0:0
     RDKit          3D

 39 41  0  0  0  0  0  0  0  0999 V2000
   58.0381   28.2163   54.3502 H   0  0  0  0  0  0  0  0  0  0  0  0
   57.5250   28.8490   53.6110 C   0  0  0  0  0  0  0  0  0  0  0  0
   56.2220   28.6180   53.3070 N   0  0  0  0  0  0  0  0  0  0  0  0
   55.5690   29.3790   52.3860 C   0  0  0  0  0  0  0  0  0  0  0  0
   54.3160   29.1720   52.1020 N   0  0  0  0  0  0  0  0  0  0  0  0
   53.2710   30.1590   52.0330 C   0  0  0  0  0  0  0  0  0  0  0  0
   52.4720   30.3690   53.1650 C   0  0  0  0  0  0  0  0  0  0  0  0
   52.6359   29.7656   54.0700 H   0  0  0  0  0  0  0  0  0  0  0  0
   51.4670   31.3420   53.1500 C   0  0  0  0  0  0  0  0  0  0  0  0
   50.8330   31.4901   54.0366 H   0  0  0  0  0  0  0  0  0  0  0  0
   51.2670   32.1260   52.0110 C   0  0  0  0  0  0  0  0  0  0  0  0
   50.2680   33.0920   51.9980 O   0  0  0  0  0  0  0  0  0  0  0  0
   52.0790   31.9440   50.8870 C   0  0  0  0  0  0  0  0  0  0  0  0
   51.9264   32.5662   49.9928 H   0  0  0  0  0  0  0  0  0  0  0  0
   53.0850   30.9720   50.8980 C   0  0  0  0  0  0  0  0  0  0  0  0
   53.7323   30.8423   50.0181 H   0  0  0  0  0  0  0  0  0  0  0  0
   56.2240   30.4040   51.7790 N   0  0  0  0  0  0  0  0  0  0  0  0
   57.5220   30.6880   52.0660 C   0  0  0  0  0  0  0  0  0  0  0  0
   58.1920   31.7840   51.3450 C   0  0  0  0  0  0  0  0  0  0  0  0
   58.5040   31.7480   49.6910 S   0  0  0  0  0  0  0  0  0  0  0  0
   59.2360   33.2580   49.6820 C   0  0  0  0  0  0  0  0  0  0  0  0
   59.8660   33.8920   48.4890 C   0  0  0  0  0  0  0  0  0  0  0  0
   60.6060   34.6367   48.8174 H   0  0  0  0  0  0  0  0  0  0  0  0
   60.3655   33.1205   47.8846 H   0  0  0  0  0  0  0  0  0  0  0  0
   59.0914   34.3866   47.8846 H   0  0  0  0  0  0  0  0  0  0  0  0
   59.2590   33.8050   50.9160 N   0  0  0  0  0  0  0  0  0  0  0  0
   58.6670   33.0070   51.8500 C   0  0  0  0  0  0  0  0  0  0  0  0
   58.5100   33.4780   53.2780 C   0  0  0  0  0  0  0  0  0  0  0  0
   57.4638   33.3308   53.5844 H   0  0  0  0  0  0  0  0  0  0  0  0
   59.4080   32.6580   54.2080 C   0  0  0  0  0  0  0  0  0  0  0  0
   59.1578   32.8864   55.2545 H   0  0  0  0  0  0  0  0  0  0  0  0
   59.2501   31.5860   54.0188 H   0  0  0  0  0  0  0  0  0  0  0  0
   60.4613   32.9124   54.0188 H   0  0  0  0  0  0  0  0  0  0  0  0
   58.8370   34.9720   53.3890 C   0  0  0  0  0  0  0  0  0  0  0  0
   58.8991   35.2559   54.4499 H   0  0  0  0  0  0  0  0  0  0  0  0
   59.8006   35.1739   52.8984 H   0  0  0  0  0  0  0  0  0  0  0  0
   58.0458   35.5580   52.8984 H   0  0  0  0  0  0  0  0  0  0  0  0
   58.2120   29.8880   52.9860 C   0  0  0  0  0  0  0  0  0  0  0  0
   59.2724   30.0758   53.2101 H   0  0  0  0  0  0  0  0  0  0  0  0
  1  2  1  0
  2  3  1  0
  3  4  1  0
  4  5  2  0
  5  6  1  0
  6  7  2  0
  7  8  1  0
  7  9  1  0
  9 10  1  0
  9 11  2  0
 11 12  1  0
 11 13  1  0
 13 14  1  0
 13 15  2  0
 15 16  1  0
  4 17  1  0
 17 18  2  0
 18 19  1  0
 19 20  1  0
 20 21  1  0
 21 22  1  0
 22 23  1  0
 22 24  1  0
 22 25  1  0
 21 26  2  0
 26 27  1  0
 27 28  1  0
 28 29  1  0
 28 30  1  0
 30 31  1  0
 30 32  1  0
 30 33  1  0
 28 34  1  0
 34 35  1  0
 34 36  1  0
 34 37  1  0
 18 38  1  0
 38 39  1  0
 38  2  2  0
 15  6  1  0
 27 19  2  0
M  CHG  2   3  -1  12  -1
M  END
>  <UniqueID>  (1) 
1

>  <SMILES>  (1) 
Cc1nc(C(C)C)c(-c2cc[n-]/c(=N\c3ccc([O-])cc3)n2)s1

>  <Energy>  (1) 
77.11530022628651

>  <Genealogy>  (1) 
Cc1nc(C(C)C)c(-c2cc[n-]c(=Nc3ccc([O-])cc3)n2)s1 (protonated)
Cc1nc(C(C)C)c(-c2cc[n-]/c(=N\c3ccc([O-])cc3)n2)s1 (cis-trans isomerization)
Cc1nc(C(C)C)c(-c2cc[n-]/c(=N\c3ccc([O-])cc3)n2)s1 (3D coordinates assigned)
Cc1nc(C(C)C)c(-c2cc[n-]/c(=N\c3ccc([O-])cc3)n2)s1 (optimized conformer: 77.11530022628651 kcal/mol)

>  <smiles>  (1) 
Cc1nc(C(C)C)c(-c2cc[nH]c(=Nc3ccc(O)cc3)n2)s1

>  <score_type>  (1) 
oracle

>  <origin>  (1) 
adg

>  <m_score__min__energy>  (1) 
-12.42

>  <m_primary>  (1) 
energy

$$$$
1:0
     RDKit          3D

 45 47  0  0  0  0  0  0  0  0999 V2000
   59.1870   27.6370   44.8350 O   0  0  0  0  0  0  0  0  0  0  0  0
   57.9850   27.4450   44.5050 C   0  0  0  0  0  0  0  0  0  0  0  0
   57.5410   26.0680   44.1190 C   0  0  0  0  0  0  0  0  0  0  0  0
   57.1210   25.2960   45.3480 C   0  0  0  0  0  0  0  0  0  0  0  0
   55.9440   25.6230   46.0440 C   0  0  0  0  0  0  0  0  0  0  0  0
   55.1490   26.6880   45.6380 O   0  0  0  0  0  0  0  0  0  0  0  0
   55.5720   24.8920   47.1260 N   0  0  0  0  0  0  0  0  0  0  0  0
   56.3130   23.8380   47.5520 C   0  0  0  0  0  0  0  0  0  0  0  0
   55.9480   23.1790   48.5580 O   0  0  0  0  0  0  0  0  0  0  0  0
   57.4460   23.4940   46.8900 N   0  0  0  0  0  0  0  0  0  0  0  0
   57.8640   24.1910   45.8020 C   0  0  0  0  0  0  0  0  0  0  0  0
   58.9160   23.8330   45.2080 O   0  0  0  0  0  0  0  0  0  0  0  0
   57.0470   28.5320   44.4930 N   0  0  0  0  0  0  0  0  0  0  0  0
   57.4230   29.9190   44.5570 C   0  0  0  0  0  0  0  0  0  0  0  0
   57.1910   30.7910   43.4790 C   0  0  0  0  0  0  0  0  0  0  0  0
   57.5450   32.1400   43.5770 C   0  0  0  0  0  0  0  0  0  0  0  0
   58.1190   32.6320   44.7500 C   0  0  0  0  0  0  0  0  0  0  0  0
   58.3350   31.7780   45.8400 C   0  0  0  0  0  0  0  0  0  0  0  0
   59.0620   32.3960   47.3250 S   0  0  0  0  0  0  0  0  0  0  0  0
   58.5060   33.7620   47.6210 O   0  0  0  0  0  0  0  0  0  0  0  0
   58.6960   31.4880   48.4670 O   0  0  0  0  0  0  0  0  0  0  0  0
   60.8010   32.4910   47.1990 N   0  0  0  0  0  0  0  0  0  0  0  0
   61.2110   33.8340   46.7560 C   0  0  0  0  0  0  0  0  0  0  0  0
   62.7090   33.8490   46.4050 C   0  0  0  0  0  0  0  0  0  0  0  0
   63.4930   32.7390   47.1260 C   0  0  0  0  0  0  0  0  0  0  0  0
   62.9330   32.4930   48.5300 C   0  0  0  0  0  0  0  0  0  0  0  0
   61.4260   32.1470   48.4920 C   0  0  0  0  0  0  0  0  0  0  0  0
   57.9760   30.4270   45.7420 C   0  0  0  0  0  0  0  0  0  0  0  0
   56.6897   26.1408   43.4262 H   0  0  0  0  0  0  0  0  0  0  0  0
   58.3758   25.5433   43.6313 H   0  0  0  0  0  0  0  0  0  0  0  0
   56.0290   28.2990   44.5120 H   0  0  0  0  0  0  0  0  0  0  0  0
   56.7296   30.4108   42.5557 H   0  0  0  0  0  0  0  0  0  0  0  0
   57.3705   32.8157   42.7267 H   0  0  0  0  0  0  0  0  0  0  0  0
   58.4026   33.6926   44.8192 H   0  0  0  0  0  0  0  0  0  0  0  0
   60.6276   34.1163   45.8672 H   0  0  0  0  0  0  0  0  0  0  0  0
   61.0283   34.5498   47.5710 H   0  0  0  0  0  0  0  0  0  0  0  0
   62.8185   33.7103   45.3193 H   0  0  0  0  0  0  0  0  0  0  0  0
   63.1198   34.8155   46.7322 H   0  0  0  0  0  0  0  0  0  0  0  0
   63.4199   31.8098   46.5419 H   0  0  0  0  0  0  0  0  0  0  0  0
   64.5425   33.0553   47.2184 H   0  0  0  0  0  0  0  0  0  0  0  0
   63.4794   31.6565   48.9903 H   0  0  0  0  0  0  0  0  0  0  0  0
   63.0585   33.4155   49.1158 H   0  0  0  0  0  0  0  0  0  0  0  0
   61.3071   31.0673   48.6655 H   0  0  0  0  0  0  0  0  0  0  0  0
   60.9266   32.7386   49.2734 H   0  0  0  0  0  0  0  0  0  0  0  0
   58.1292   29.7587   46.6021 H   0  0  0  0  0  0  0  0  0  0  0  0
  1  2  2  0
  2  3  1  0
  3  4  1  0
  4  5  2  0
  5  6  1  0
  5  7  1  0
  7  8  1  0
  8  9  2  0
  8 10  1  0
 10 11  1  0
 11 12  2  0
  2 13  1  0
 13 14  1  0
 14 15  2  0
 15 16  1  0
 16 17  2  0
 17 18  1  0
 18 19  1  0
 19 20  2  0
 19 21  2  0
 19 22  1  0
 22 23  1  0
 23 24  1  0
 24 25  1  0
 25 26  1  0
 26 27  1  0
 18 28  2  0
 11  4  1  0
 28 14  1  0
 27 22  1  0
  3 29  1  0
  3 30  1  0
 13 31  1  0
 15 32  1  0
 16 33  1  0
 17 34  1  0
 23 35  1  0
 23 36  1  0
 24 37  1  0
 24 38  1  0
 25 39  1  0
 25 40  1  0
 26 41  1  0
 26 42  1  0
 27 43  1  0
 27 44  1  0
 28 45  1  0
M  CHG  3   6  -1   7  -1  10  -1
M  END
>  <UniqueID>  (2) 
2

>  <SMILES>  (2) 
O=C(Cc1c([O-])[n-]c(=O)[n-]c1=O)Nc1cccc(S(=O)(=O)N2CCCCC2)c1

>  <Energy>  (2) 
52.80158122376319

>  <Genealogy>  (2) 
O=C(Cc1c([O-])[n-]c(=O)[n-]c1=O)Nc1cccc(S(=O)(=O)N2CCCCC2)c1 (protonated)
O=C(Cc1c([O-])[n-]c(=O)[n-]c1=O)Nc1cccc(S(=O)(=O)N2CCCCC2)c1 (3D coordinates assigned)
O=C(Cc1c([O-])[n-]c(=O)[n-]c1=O)Nc1cccc(S(=O)(=O)N2CCCCC2)c1 (nonaromatic ring conformer: 52.80158122376319 kcal/mol)

>  <smiles>  (2) 
O=C(Cc1c(O)[nH]c(=O)[nH]c1=O)Nc1cccc(S(=O)(=O)N2CCCCC2)c1

>  <score_type>  (2) 
oracle

>  <origin>  (2) 
adg

>  <m_score__min__energy>  (2) 
-17.190000000000001

>  <m_primary>  (2) 
energy

$$$$
2:0
     RDKit          3D

 31 32  0  0  0  0  0  0  0  0999 V2000
   60.6400   28.2480   45.8060 C   0  0  0  0  0  0  0  0  0  0  0  0
   59.9900   28.6540   44.6070 O   0  0  0  0  0  0  0  0  0  0  0  0
   58.8230   29.4350   44.5560 C   0  0  0  0  0  0  0  0  0  0  0  0
   58.8690   30.8270   44.3430 C   0  0  0  0  0  0  0  0  0  0  0  0
   57.6910   31.5780   44.3240 C   0  0  0  0  0  0  0  0  0  0  0  0
   57.7460   32.9510   44.1160 O   0  0  0  0  0  0  0  0  0  0  0  0
   56.4570   30.9520   44.5120 C   0  0  0  0  0  0  0  0  0  0  0  0
   56.3940   29.5710   44.7180 C   0  0  0  0  0  0  0  0  0  0  0  0
   55.1530   28.9660   44.8810 O   0  0  0  0  0  0  0  0  0  0  0  0
   57.5760   28.8060   44.7440 C   0  0  0  0  0  0  0  0  0  0  0  0
   57.5210   27.3520   44.9890 C   0  0  0  0  0  0  0  0  0  0  0  0
   57.6030   26.5550   44.0170 O   0  0  0  0  0  0  0  0  0  0  0  0
   57.4960   26.8140   46.3900 C   0  0  0  0  0  0  0  0  0  0  0  0
   56.9010   25.4300   46.3920 C   0  0  0  0  0  0  0  0  0  0  0  0
   57.7360   24.3140   46.5760 C   0  0  0  0  0  0  0  0  0  0  0  0
   57.2100   23.0200   46.5200 C   0  0  0  0  0  0  0  0  0  0  0  0
   58.0430   21.9230   46.7050 O   0  0  0  0  0  0  0  0  0  0  0  0
   55.8480   22.8290   46.2730 C   0  0  0  0  0  0  0  0  0  0  0  0
   55.0120   23.9300   46.0760 C   0  0  0  0  0  0  0  0  0  0  0  0
   55.5320   25.2280   46.1260 C   0  0  0  0  0  0  0  0  0  0  0  0
   54.6850   26.3100   45.9070 O   0  0  0  0  0  0  0  0  0  0  0  0
   60.0663   28.6063   46.6735 H   0  0  0  0  0  0  0  0  0  0  0  0
   60.7022   27.1502   45.8357 H   0  0  0  0  0  0  0  0  0  0  0  0
   61.6539   28.6737   45.8357 H   0  0  0  0  0  0  0  0  0  0  0  0
   59.8378   31.3253   44.1908 H   0  0  0  0  0  0  0  0  0  0  0  0
   55.5321   31.5473   44.4979 H   0  0  0  0  0  0  0  0  0  0  0  0
   58.5223   26.7713   46.7836 H   0  0  0  0  0  0  0  0  0  0  0  0
   56.8847   27.4742   47.0228 H   0  0  0  0  0  0  0  0  0  0  0  0
   58.8097   24.4599   46.7652 H   0  0  0  0  0  0  0  0  0  0  0  0
   55.4341   21.8106   46.2337 H   0  0  0  0  0  0  0  0  0  0  0  0
   53.9404   23.7763   45.8807 H   0  0  0  0  0  0  0  0  0  0  0  0
  1  2  1  0
  2  3  1  0
  3  4  2  0
  4  5  1  0
  5  6  1  0
  5  7  2  0
  7  8  1  0
  8  9  1  0
  8 10  2  0
 10 11  1  0
 11 12  2  0
 11 13  1  0
 13 14  1  0
 14 15  2  0
 15 16  1  0
 16 17  1  0
 16 18  2  0
 18 19  1  0
 19 20  2  0
 20 21  1  0
 10  3  1  0
 20 14  1  0
  1 22  1  0
  1 23  1  0
  1 24  1  0
  4 25  1  0
  7 26  1  0
 13 27  1  0
 13 28  1  0
 15 29  1  0
 18 30  1  0
 19 31  1  0
M  CHG  4   6  -1   9  -1  17  -1  21  -1
M  END
>  <UniqueID>  (3) 
3

>  <SMILES>  (3) 
COc1cc([O-])cc([O-])c1C(=O)Cc1cc([O-])ccc1[O-]

>  <Energy>  (3) 
36.60244419916279

>  <Genealogy>  (3) 
COc1cc([O-])cc([O-])c1C(=O)Cc1cc([O-])ccc1[O-] (protonated)
COc1cc([O-])cc([O-])c1C(=O)Cc1cc([O-])ccc1[O-] (3D coordinates assigned)
COc1cc([O-])cc([O-])c1C(=O)Cc1cc([O-])ccc1[O-] (optimized conformer: 36.60244419916279 kcal/mol)

>  <smiles>  (3) 
COc1cc(O)cc(O)c1C(=O)Cc1cc(O)ccc1O

>  <score_type>  (3) 
oracle

>  <origin>  (3) 
adg

>  <m_score__min__energy>  (3) 
-15.56

>  <m_primary>  (3) 
energy

$$$$
3:0
     RDKit          3D

 57 61  0  0  0  0  0  0  0  0999 V2000
   59.9580   22.8570   45.5140 O   0  0  0  0  0  0  0  0  0  0  0  0
   58.8680   23.4780   45.5950 C   0  0  0  0  0  0  0  0  0  0  0  0
   57.7960   23.2730   44.5560 C   0  0  0  0  0  0  0  0  0  0  0  0
   56.6300   24.1720   44.7020 N   0  0  0  0  0  0  0  0  0  0  0  0
   56.9720   25.6150   44.7600 C   0  0  0  0  0  0  0  0  0  0  0  0
   56.2790   26.3450   45.9220 C   0  0  0  0  0  0  0  0  0  0  0  0
   54.8280   26.0910   45.9310 N   0  0  0  0  0  0  0  0  0  0  0  0
   54.4570   24.6700   45.7630 C   0  0  0  0  0  0  0  0  0  0  0  0
   55.6630   23.7200   45.7240 C   0  0  0  0  0  0  0  0  0  0  0  0
   58.6190   24.3840   46.6780 N   0  0  0  0  0  0  0  0  0  0  0  0
   59.0270   25.7560   46.7750 C   0  0  0  0  0  0  0  0  0  0  0  0
   58.6920   26.5670   47.8750 C   0  0  0  0  0  0  0  0  0  0  0  0
   59.1160   27.8980   47.9240 C   0  0  0  0  0  0  0  0  0  0  0  0
   59.9000   28.4310   46.8900 C   0  0  0  0  0  0  0  0  0  0  0  0
   60.3210   29.8520   46.9350 C   0  0  0  0  0  0  0  0  0  0  0  0
   61.4110   30.1900   47.6870 N   0  0  0  0  0  0  0  0  0  0  0  0
   61.7860   31.4910   47.8480 C   0  0  0  0  0  0  0  0  0  0  0  0
   62.8960   31.8320   48.6380 C   0  0  0  0  0  0  0  0  0  0  0  0
   63.2530   33.1770   48.7990 C   0  0  0  0  0  0  0  0  0  0  0  0
   62.5060   34.1850   48.1760 C   0  0  0  0  0  0  0  0  0  0  0  0
   61.3990   33.8520   47.3860 C   0  0  0  0  0  0  0  0  0  0  0  0
   61.0380   32.5080   47.2210 C   0  0  0  0  0  0  0  0  0  0  0  0
   59.9700   32.1720   46.4560 N   0  0  0  0  0  0  0  0  0  0  0  0
   59.5910   30.8770   46.2780 C   0  0  0  0  0  0  0  0  0  0  0  0
   58.4490   30.6010   45.3770 C   0  0  0  0  0  0  0  0  0  0  0  0
   57.4450   29.6830   45.7390 C   0  0  0  0  0  0  0  0  0  0  0  0
   56.3830   29.4170   44.8680 C   0  0  0  0  0  0  0  0  0  0  0  0
   56.3230   30.0520   43.6260 C   0  0  0  0  0  0  0  0  0  0  0  0
   57.3260   30.9540   43.2510 C   0  0  0  0  0  0  0  0  0  0  0  0
   58.3900   31.2200   44.1190 C   0  0  0  0  0  0  0  0  0  0  0  0
   60.2500   27.6150   45.8030 C   0  0  0  0  0  0  0  0  0  0  0  0
   59.8250   26.2850   45.7540 C   0  0  0  0  0  0  0  0  0  0  0  0
   58.2401   23.4424   43.5640 H   0  0  0  0  0  0  0  0  0  0  0  0
   57.4221   22.2467   44.6859 H   0  0  0  0  0  0  0  0  0  0  0  0
   58.0607   25.7136   44.8823 H   0  0  0  0  0  0  0  0  0  0  0  0
   56.6233   26.0760   43.8241 H   0  0  0  0  0  0  0  0  0  0  0  0
   56.7091   25.9942   46.8717 H   0  0  0  0  0  0  0  0  0  0  0  0
   56.4392   27.4258   45.7949 H   0  0  0  0  0  0  0  0  0  0  0  0
   54.3930   26.6470   45.1560 H   0  0  0  0  0  0  0  0  0  0  0  0
   53.8110   24.3775   46.6039 H   0  0  0  0  0  0  0  0  0  0  0  0
   53.9461   24.5826   44.7928 H   0  0  0  0  0  0  0  0  0  0  0  0
   56.1518   23.7114   46.7094 H   0  0  0  0  0  0  0  0  0  0  0  0
   55.3166   22.7072   45.4703 H   0  0  0  0  0  0  0  0  0  0  0  0
   58.0940   26.1519   48.6997 H   0  0  0  0  0  0  0  0  0  0  0  0
   58.8334   28.5310   48.7781 H   0  0  0  0  0  0  0  0  0  0  0  0
   61.9490   29.4390   48.1770 H   0  0  0  0  0  0  0  0  0  0  0  0
   63.4846   31.0436   49.1299 H   0  0  0  0  0  0  0  0  0  0  0  0
   64.1233   33.4426   49.4171 H   0  0  0  0  0  0  0  0  0  0  0  0
   62.7895   35.2397   48.3076 H   0  0  0  0  0  0  0  0  0  0  0  0
   60.8137   34.6439   46.8958 H   0  0  0  0  0  0  0  0  0  0  0  0
   57.4958   29.1721   46.7118 H   0  0  0  0  0  0  0  0  0  0  0  0
   55.5953   28.7076   45.1617 H   0  0  0  0  0  0  0  0  0  0  0  0
   55.4873   29.8435   42.9418 H   0  0  0  0  0  0  0  0  0  0  0  0
   57.2772   31.4541   42.2725 H   0  0  0  0  0  0  0  0  0  0  0  0
   59.1841   31.9175   43.8142 H   0  0  0  0  0  0  0  0  0  0  0  0
   60.8618   28.0246   44.9858 H   0  0  0  0  0  0  0  0  0  0  0  0
   60.1198   25.6487   44.9065 H   0  0  0  0  0  0  0  0  0  0  0  0
  1  2  2  0
  2  3  1  0
  3  4  1  0
  4  5  1  0
  5  6  1  0
  6  7  1  0
  7  8  1  0
  8  9  1  0
  2 10  1  0
 10 11  1  0
 11 12  2  0
 12 13  1  0
 13 14  2  0
 14 15  1  0
 15 16  2  0
 16 17  1  0
 17 18  2  0
 18 19  1  0
 19 20  2  0
 20 21  1  0
 21 22  2  0
 22 23  1  0
 23 24  2  0
 24 25  1  0
 25 26  2  0
 26 27  1  0
 27 28  2  0
 28 29  1  0
 29 30  2  0
 14 31  1  0
 31 32  2  0
  9  4  1  0
 32 11  1  0
 24 15  1  0
 30 25  1  0
 22 17  1  0
  3 33  1  0
  3 34  1  0
  5 35  1  0
  5 36  1  0
  6 37  1  0
  6 38  1  0
  7 39  1  0
  8 40  1  0
  8 41  1  0
  9 42  1  0
  9 43  1  0
 12 44  1  0
 13 45  1  0
 16 46  1  0
 18 47  1  0
 19 48  1  0
 20 49  1  0
 21 50  1  0
 26 51  1  0
 27 52  1  0
 28 53  1  0
 29 54  1  0
 30 55  1  0
 31 56  1  0
 32 57  1  0
M  CHG  2  10  -1  16   1
M  END
>  <UniqueID>  (4) 
4

>  <SMILES>  (4) 
O=C(CN1CCNCC1)[N-]c1ccc(-c2[nH+]c3ccccc3nc2-c2ccccc2)cc1

>  <Energy>  (4) 
95.25945410119431

>  <Genealogy>  (4) 
O=C(CN1CCNCC1)[N-]c1ccc(-c2[nH+]c3ccccc3nc2-c2ccccc2)cc1 (protonated)
O=C(CN1CCNCC1)[N-]c1ccc(-c2[nH+]c3ccccc3nc2-c2ccccc2)cc1 (3D coordinates assigned)
O=C(CN1CCNCC1)[N-]c1ccc(-c2[nH+]c3ccccc3nc2-c2ccccc2)cc1 (nonaromatic ring conformer: 95.25945410119431 kcal/mol)

>  <smiles>  (4) 
O=C(CN1CCNCC1)Nc1ccc(-c2nc3ccccc3nc2-c2ccccc2)cc1

>  <score_type>  (4) 
oracle

>  <origin>  (4) 
adg

>  <m_score__min__energy>  (4) 
-10.31

>  <m_primary>  (4) 
energy

$$$$
4:0
     RDKit          3D

 42 44  0  0  0  0  0  0  0  0999 V2000
   64.0790   30.4560   52.0700 C   0  0  0  0  0  0  0  0  0  0  0  0
   63.7060   31.8010   51.7950 O   0  0  0  0  0  0  0  0  0  0  0  0
   63.3900   32.2970   50.5190 C   0  0  0  0  0  0  0  0  0  0  0  0
   62.0800   32.6750   50.1700 C   0  0  0  0  0  0  0  0  0  0  0  0
   61.7900   33.1780   48.8850 C   0  0  0  0  0  0  0  0  0  0  0  0
   60.4820   33.5680   48.5060 C   0  0  0  0  0  0  0  0  0  0  0  0
   59.3130   33.4560   49.4560 C   0  0  0  0  0  0  0  0  0  0  0  0
   60.2980   34.1030   47.2150 C   0  0  0  0  0  0  0  0  0  0  0  0
   59.0470   34.5620   46.8010 O   0  0  0  0  0  0  0  0  0  0  0  0
   58.6710   34.5720   45.4250 C   0  0  0  0  0  0  0  0  0  0  0  0
   58.2480   33.1980   44.9770 C   0  0  0  0  0  0  0  0  0  0  0  0
   58.0560   32.9260   43.6110 C   0  0  0  0  0  0  0  0  0  0  0  0
   57.7270   31.6330   43.1920 C   0  0  0  0  0  0  0  0  0  0  0  0
   57.5830   30.6060   44.1320 C   0  0  0  0  0  0  0  0  0  0  0  0
   57.7780   30.8690   45.4920 C   0  0  0  0  0  0  0  0  0  0  0  0
   58.1190   32.1590   45.9140 C   0  0  0  0  0  0  0  0  0  0  0  0
   61.3170   34.1980   46.3690 O   0  0  0  0  0  0  0  0  0  0  0  0
   62.5520   33.8280   46.6750 C   0  0  0  0  0  0  0  0  0  0  0  0
   63.4580   33.9600   45.8100 O   0  0  0  0  0  0  0  0  0  0  0  0
   62.8430   33.3060   47.9480 C   0  0  0  0  0  0  0  0  0  0  0  0
   64.1470   32.9220   48.3010 C   0  0  0  0  0  0  0  0  0  0  0  0
   64.4240   32.4190   49.5840 C   0  0  0  0  0  0  0  0  0  0  0  0
   65.7180   32.0350   49.9730 O   0  0  0  0  0  0  0  0  0  0  0  0
   66.7060   32.9240   50.4790 C   0  0  0  0  0  0  0  0  0  0  0  0
   64.1216   30.3025   53.1584 H   0  0  0  0  0  0  0  0  0  0  0  0
   63.3364   29.7727   51.6321 H   0  0  0  0  0  0  0  0  0  0  0  0
   65.0674   30.2528   51.6321 H   0  0  0  0  0  0  0  0  0  0  0  0
   61.2716   32.5767   50.9095 H   0  0  0  0  0  0  0  0  0  0  0  0
   59.6785   33.4910   50.4929 H   0  0  0  0  0  0  0  0  0  0  0  0
   58.6189   34.2918   49.2835 H   0  0  0  0  0  0  0  0  0  0  0  0
   58.7902   32.5037   49.2835 H   0  0  0  0  0  0  0  0  0  0  0  0
   57.8332   35.2709   45.2850 H   0  0  0  0  0  0  0  0  0  0  0  0
   59.5370   34.8878   44.8248 H   0  0  0  0  0  0  0  0  0  0  0  0
   58.1648   33.7319   42.8703 H   0  0  0  0  0  0  0  0  0  0  0  0
   57.5812   31.4228   42.1222 H   0  0  0  0  0  0  0  0  0  0  0  0
   57.3163   29.5914   43.8011 H   0  0  0  0  0  0  0  0  0  0  0  0
   57.6633   30.0615   46.2301 H   0  0  0  0  0  0  0  0  0  0  0  0
   58.2865   32.3601   46.9824 H   0  0  0  0  0  0  0  0  0  0  0  0
   64.9599   33.0158   47.5659 H   0  0  0  0  0  0  0  0  0  0  0  0
   66.6864   32.9064   51.5787 H   0  0  0  0  0  0  0  0  0  0  0  0
   67.6986   32.6090   50.1248 H   0  0  0  0  0  0  0  0  0  0  0  0
   66.4971   33.9443   50.1248 H   0  0  0  0  0  0  0  0  0  0  0  0
  1  2  1  0
  2  3  1  0
  3  4  2  0
  4  5  1  0
  5  6  1  0
  6  7  1  0
  6  8  2  0
  8  9  1  0
  9 10  1  0
 10 11  1  0
 11 12  2  0
 12 13  1  0
 13 14  2  0
 14 15  1  0
 15 16  2  0
  8 17  1  0
 17 18  1  0
 18 19  2  0
 18 20  1  0
 20 21  1  0
 21 22  2  0
 22 23  1  0
 23 24  1  0
 22  3  1  0
 20  5  2  0
 16 11  1  0
  1 25  1  0
  1 26  1  0
  1 27  1  0
  4 28  1  0
  7 29  1  0
  7 30  1  0
  7 31  1  0
 10 32  1  0
 10 33  1  0
 12 34  1  0
 13 35  1  0
 14 36  1  0
 15 37  1  0
 16 38  1  0
 21 39  1  0
 24 40  1  0
 24 41  1  0
 24 42  1  0
M  END
>  <UniqueID>  (5) 
5

>  <SMILES>  (5) 
COc1cc2c(C)c(OCc3ccccc3)oc(=O)c2cc1OC

>  <Energy>  (5) 
57.36906169500964

>  <Genealogy>  (5) 
COc1cc2c(C)c(OCc3ccccc3)oc(=O)c2cc1OC (3D coordinates assigned)
COc1cc2c(C)c(OCc3ccccc3)oc(=O)c2cc1OC (optimized conformer: 57.36906169500964 kcal/mol)

>  <smiles>  (5) 
COc1cc2c(C)c(OCc3ccccc3)oc(=O)c2cc1OC

>  <score_type>  (5) 
oracle

>  <origin>  (5) 
adg

>  <m_score__min__energy>  (5) 
-7.0800000000000001

>  <m_primary>  (5) 
energy

$$$$
5:0
     RDKit          3D

 45 47  0  0  0  0  0  0  0  0999 V2000
   63.0910   31.4940   49.9610 C   0  0  0  0  0  0  0  0  0  0  0  0
   63.5910   32.7780   49.3090 C   0  0  0  0  0  0  0  0  0  0  0  0
   62.6120   33.2650   48.2900 C   0  0  0  0  0  0  0  0  0  0  0  0
   61.2940   33.4230   48.5370 N   0  0  0  0  0  0  0  0  0  0  0  0
   60.6350   33.9350   47.4610 C   0  0  0  0  0  0  0  0  0  0  0  0
   59.1560   34.1750   47.4860 C   0  0  0  0  0  0  0  0  0  0  0  0
   58.4630   33.1860   46.6380 N   0  0  0  0  0  0  0  0  0  0  0  0
   59.1410   31.8810   46.6680 C   0  0  0  0  0  0  0  0  0  0  0  0
   58.1980   30.8370   46.0740 C   0  0  0  0  0  0  0  0  0  0  0  0
   57.5600   31.3330   44.8450 N   0  0  0  0  0  0  0  0  0  0  0  0
   56.6250   30.4910   44.1330 C   0  0  0  0  0  0  0  0  0  0  0  0
   56.3680   30.7300   42.9190 O   0  0  0  0  0  0  0  0  0  0  0  0
   55.9650   29.3160   44.8170 C   0  0  0  0  0  0  0  0  0  0  0  0
   56.9250   28.1860   45.0780 C   0  0  0  0  0  0  0  0  0  0  0  0
   58.2470   28.3580   44.7970 N   0  0  0  0  0  0  0  0  0  0  0  0
   59.1680   27.3870   45.0360 C   0  0  0  0  0  0  0  0  0  0  0  0
   58.7710   26.1700   45.5920 C   0  0  0  0  0  0  0  0  0  0  0  0
   57.4270   25.9670   45.9020 C   0  0  0  0  0  0  0  0  0  0  0  0
   56.4920   26.9750   45.6510 C   0  0  0  0  0  0  0  0  0  0  0  0
   55.1560   26.7740   45.9750 O   0  0  0  0  0  0  0  0  0  0  0  0
   58.0500   32.5710   44.2160 C   0  0  0  0  0  0  0  0  0  0  0  0
   58.3400   33.6840   45.2510 C   0  0  0  0  0  0  0  0  0  0  0  0
   61.4320   34.1960   46.3480 C   0  0  0  0  0  0  0  0  0  0  0  0
   63.0120   33.7700   46.7370 S   0  0  0  0  0  0  0  0  0  0  0  0
   63.1317   31.5985   51.0553 H   0  0  0  0  0  0  0  0  0  0  0  0
   62.0533   31.3044   49.6491 H   0  0  0  0  0  0  0  0  0  0  0  0
   63.7272   30.6526   49.6491 H   0  0  0  0  0  0  0  0  0  0  0  0
   63.7219   33.5492   50.0824 H   0  0  0  0  0  0  0  0  0  0  0  0
   64.5500   32.5731   48.8106 H   0  0  0  0  0  0  0  0  0  0  0  0
   58.7912   34.0857   48.5199 H   0  0  0  0  0  0  0  0  0  0  0  0
   58.9504   35.1843   47.1000 H   0  0  0  0  0  0  0  0  0  0  0  0
   60.0654   31.9283   46.0736 H   0  0  0  0  0  0  0  0  0  0  0  0
   59.4004   31.6124   47.7027 H   0  0  0  0  0  0  0  0  0  0  0  0
   58.7715   29.9283   45.8387 H   0  0  0  0  0  0  0  0  0  0  0  0
   57.4110   30.6196   46.8111 H   0  0  0  0  0  0  0  0  0  0  0  0
   55.5498   29.6549   45.7776 H   0  0  0  0  0  0  0  0  0  0  0  0
   55.1788   28.9381   44.1468 H   0  0  0  0  0  0  0  0  0  0  0  0
   60.2263   27.5606   44.7911 H   0  0  0  0  0  0  0  0  0  0  0  0
   59.5110   25.3790   45.7837 H   0  0  0  0  0  0  0  0  0  0  0  0
   57.1025   25.0135   46.3441 H   0  0  0  0  0  0  0  0  0  0  0  0
   58.9779   32.3463   43.6696 H   0  0  0  0  0  0  0  0  0  0  0  0
   57.2632   32.9380   43.5406 H   0  0  0  0  0  0  0  0  0  0  0  0
   59.2827   34.1789   44.9744 H   0  0  0  0  0  0  0  0  0  0  0  0
   57.4834   34.3738   45.2310 H   0  0  0  0  0  0  0  0  0  0  0  0
   61.0892   34.6071   45.3870 H   0  0  0  0  0  0  0  0  0  0  0  0
  1  2  1  0
  2  3  1  0
  3  4  2  0
  4  5  1  0
  5  6  1  0
  6  7  1  0
  7  8  1  0
  8  9  1  0
  9 10  1  0
 10 11  1  0
 11 12  2  0
 11 13  1  0
 13 14  1  0
 14 15  2  0
 15 16  1  0
 16 17  2  0
 17 18  1  0
 18 19  2  0
 19 20  1  0
 10 21  1  0
 21 22  1  0
  5 23  2  0
 23 24  1  0
 24  3  1  0
 22  7  1  0
 19 14  1  0
  1 25  1  0
  1 26  1  0
  1 27  1  0
  2 28  1  0
  2 29  1  0
  6 30  1  0
  6 31  1  0
  8 32  1  0
  8 33  1  0
  9 34  1  0
  9 35  1  0
 13 36  1  0
 13 37  1  0
 16 38  1  0
 17 39  1  0
 18 40  1  0
 21 41  1  0
 21 42  1  0
 22 43  1  0
 22 44  1  0
 23 45  1  0
M  CHG  1  20  -1
M  END
>  <UniqueID>  (6) 
6

>  <SMILES>  (6) 
CCc1nc(CN2CCN(C(=O)Cc3ncccc3[O-])CC2)cs1

>  <Energy>  (6) 
77.66316001189057

>  <Genealogy>  (6) 
CCc1nc(CN2CCN(C(=O)Cc3ncccc3[O-])CC2)cs1 (protonated)
CCc1nc(CN2CCN(C(=O)Cc3ncccc3[O-])CC2)cs1 (3D coordinates assigned)
CCc1nc(CN2CCN(C(=O)Cc3ncccc3[O-])CC2)cs1 (nonaromatic ring conformer: 77.66316001189057 kcal/mol)

>  <smiles>  (6) 
CCc1nc(CN2CCN(C(=O)Cc3ncccc3O)CC2)cs1

>  <score_type>  (6) 
oracle

>  <origin>  (6) 
adg

>  <m_score__min__energy>  (6) 
-11.84

>  <m_primary>  (6) 
energy

$$$$
6:0
     RDKit          3D

 39 41  0  0  0  0  0  0  0  0999 V2000
   55.1400   26.4930   46.3630 O   0  0  0  0  0  0  0  0  0  0  0  0
   56.2150   25.9220   46.0430 C   0  0  0  0  0  0  0  0  0  0  0  0
   57.4530   26.4610   46.5250 N   0  0  0  0  0  0  0  0  0  0  0  0
   58.0640   27.6780   46.0760 C   0  0  0  0  0  0  0  0  0  0  0  0
   59.4280   27.9370   46.2930 C   0  0  0  0  0  0  0  0  0  0  0  0
   59.9930   29.1390   45.8590 C   0  0  0  0  0  0  0  0  0  0  0  0
   59.2020   30.0880   45.2060 C   0  0  0  0  0  0  0  0  0  0  0  0
   57.8470   29.8310   44.9680 C   0  0  0  0  0  0  0  0  0  0  0  0
   56.8510   31.0640   44.2020 S   0  0  0  0  0  0  0  0  0  0  0  0
   55.5020   30.5150   43.8280 O   0  0  0  0  0  0  0  0  0  0  0  0
   57.5430   31.5440   42.9570 O   0  0  0  0  0  0  0  0  0  0  0  0
   56.6430   32.3970   45.2910 N   0  0  0  0  0  0  0  0  0  0  0  0
   57.6960   33.2510   45.7560 C   0  0  0  0  0  0  0  0  0  0  0  0
   58.2420   34.1870   44.8680 C   0  0  0  0  0  0  0  0  0  0  0  0
   59.2800   35.0300   45.2760 C   0  0  0  0  0  0  0  0  0  0  0  0
   59.7790   34.9460   46.5780 C   0  0  0  0  0  0  0  0  0  0  0  0
   59.2360   34.0220   47.4760 C   0  0  0  0  0  0  0  0  0  0  0  0
   59.8560   33.9240   49.1150 Cl  0  0  0  0  0  0  0  0  0  0  0  0
   58.1960   33.1790   47.0710 C   0  0  0  0  0  0  0  0  0  0  0  0
   57.2860   28.6160   45.3880 C   0  0  0  0  0  0  0  0  0  0  0  0
   56.1700   24.6570   45.2730 C   0  0  0  0  0  0  0  0  0  0  0  0
   57.2660   24.3070   44.4670 C   0  0  0  0  0  0  0  0  0  0  0  0
   57.2670   23.1040   43.7630 C   0  0  0  0  0  0  0  0  0  0  0  0
   56.1710   22.2480   43.8720 C   0  0  0  0  0  0  0  0  0  0  0  0
   56.1580   21.1530   43.2510 O   0  0  0  0  0  0  0  0  0  0  0  0
   55.1120   22.5980   44.6470 N   0  0  0  0  0  0  0  0  0  0  0  0
   55.0720   23.7680   45.3390 C   0  0  0  0  0  0  0  0  0  0  0  0
   53.9210   24.0630   46.0730 O   0  0  0  0  0  0  0  0  0  0  0  0
   60.0529   27.1912   46.8061 H   0  0  0  0  0  0  0  0  0  0  0  0
   61.0610   29.3383   46.0314 H   0  0  0  0  0  0  0  0  0  0  0  0
   59.6456   31.0397   44.8781 H   0  0  0  0  0  0  0  0  0  0  0  0
   57.8512   34.2592   43.8423 H   0  0  0  0  0  0  0  0  0  0  0  0
   59.7042   35.7601   44.5710 H   0  0  0  0  0  0  0  0  0  0  0  0
   60.5988   35.6065   46.8967 H   0  0  0  0  0  0  0  0  0  0  0  0
   57.7670   32.4573   47.7818 H   0  0  0  0  0  0  0  0  0  0  0  0
   56.2287   28.3992   45.1754 H   0  0  0  0  0  0  0  0  0  0  0  0
   58.1281   24.9860   44.3910 H   0  0  0  0  0  0  0  0  0  0  0  0
   58.1232   22.8324   43.1280 H   0  0  0  0  0  0  0  0  0  0  0  0
   53.8710   24.8150   46.7460 H   0  0  0  0  0  0  0  0  0  0  0  0
  1  2  2  0
  2  3  1  0
  3  4  1  0
  4  5  2  0
  5  6  1  0
  6  7  2  0
  7  8  1  0
  8  9  1  0
  9 10  2  0
  9 11  2  0
  9 12  1  0
 12 13  1  0
 13 14  2  0
 14 15  1  0
 15 16  2  0
 16 17  1  0
 17 18  1  0
 17 19  2  0
  8 20  2  0
  2 21  1  0
 21 22  1  0
 22 23  2  0
 23 24  1  0
 24 25  2  0
 24 26  1  0
 26 27  1  0
 27 28  1  0
 20  4  1  0
 27 21  2  0
 19 13  1  0
  5 29  1  0
  6 30  1  0
  7 31  1  0
 14 32  1  0
 15 33  1  0
 16 34  1  0
 19 35  1  0
 20 36  1  0
 22 37  1  0
 23 38  1  0
 28 39  1  0
M  CHG  3   3  -1  12  -1  26  -1
M  END
>  <UniqueID>  (7) 
7

>  <SMILES>  (7) 
O=C([N-]c1cccc(S(=O)(=O)[N-]c2cccc(Cl)c2)c1)c1ccc(=O)[n-]c1O

>  <Energy>  (7) 
53.98832947936221

>  <Genealogy>  (7) 
O=C([N-]c1cccc(S(=O)(=O)[N-]c2cccc(Cl)c2)c1)c1ccc(=O)[n-]c1O (protonated)
O=C([N-]c1cccc(S(=O)(=O)[N-]c2cccc(Cl)c2)c1)c1ccc(=O)[n-]c1O (3D coordinates assigned)
O=C([N-]c1cccc(S(=O)(=O)[N-]c2cccc(Cl)c2)c1)c1ccc(=O)[n-]c1O (optimized conformer: 53.98832947936221 kcal/mol)

>  <smiles>  (7) 
O=C(Nc1cccc(S(=O)(=O)Nc2cccc(Cl)c2)c1)c1ccc(=O)[nH]c1O

>  <score_type>  (7) 
oracle

>  <origin>  (7) 
adg

>  <m_score__min__energy>  (7) 
-14.69

>  <m_primary>  (7) 
energy

$$$$
7:0
     RDKit          3D

 45 47  0  0  0  0  0  0  0  0999 V2000
   57.6291   27.3110   43.6170 H   0  0  0  0  0  0  0  0  0  0  0  0
   57.7070   26.9410   44.6500 C   0  0  0  0  0  0  0  0  0  0  0  0
   57.6650   27.7990   45.6780 C   0  0  0  0  0  0  0  0  0  0  0  0
   57.5160   29.2550   45.4440 C   0  0  0  0  0  0  0  0  0  0  0  0
   56.2890   29.7910   45.0350 C   0  0  0  0  0  0  0  0  0  0  0  0
   55.1760   28.9750   44.8690 O   0  0  0  0  0  0  0  0  0  0  0  0
   56.1760   31.1210   44.8060 N   0  0  0  0  0  0  0  0  0  0  0  0
   57.2250   31.9640   44.9810 C   0  0  0  0  0  0  0  0  0  0  0  0
   57.0770   33.1850   44.7060 O   0  0  0  0  0  0  0  0  0  0  0  0
   58.4310   31.4830   45.4230 N   0  0  0  0  0  0  0  0  0  0  0  0
   59.5450   32.3300   45.6070 N   0  0  0  0  0  0  0  0  0  0  0  0
   59.5250   33.3900   46.3570 C   0  0  0  0  0  0  0  0  0  0  0  0
   58.9793   34.2854   46.0247 H   0  0  0  0  0  0  0  0  0  0  0  0
   60.2270   33.3990   47.6460 C   0  0  0  0  0  0  0  0  0  0  0  0
   61.5080   33.8610   47.9020 C   0  0  0  0  0  0  0  0  0  0  0  0
   62.1919   34.3095   47.1664 H   0  0  0  0  0  0  0  0  0  0  0  0
   61.7700   33.6650   49.2100 N   0  0  0  0  0  0  0  0  0  0  0  0
   63.0360   33.9420   49.8830 C   0  0  0  0  0  0  0  0  0  0  0  0
   62.9913   33.5593   50.9133 H   0  0  0  0  0  0  0  0  0  0  0  0
   63.2070   35.0286   49.8934 H   0  0  0  0  0  0  0  0  0  0  0  0
   64.1830   33.2650   49.1440 C   0  0  0  0  0  0  0  0  0  0  0  0
   64.8924   32.8463   49.8730 H   0  0  0  0  0  0  0  0  0  0  0  0
   63.7859   32.4564   48.5127 H   0  0  0  0  0  0  0  0  0  0  0  0
   64.6990   34.0034   48.5127 H   0  0  0  0  0  0  0  0  0  0  0  0
   60.7270   33.0890   49.7880 N   0  0  0  0  0  0  0  0  0  0  0  0
   60.6820   32.8030   50.7920 H   0  0  0  0  0  0  0  0  0  0  0  0
   59.7630   32.9240   48.8620 C   0  0  0  0  0  0  0  0  0  0  0  0
   58.4420   32.2740   49.1240 C   0  0  0  0  0  0  0  0  0  0  0  0
   58.2811   32.1948   50.2093 H   0  0  0  0  0  0  0  0  0  0  0  0
   57.6400   32.8804   48.6777 H   0  0  0  0  0  0  0  0  0  0  0  0
   58.4331   31.2686   48.6777 H   0  0  0  0  0  0  0  0  0  0  0  0
   58.5950   30.1400   45.6260 C   0  0  0  0  0  0  0  0  0  0  0  0
   59.7230   29.6940   45.9780 O   0  0  0  0  0  0  0  0  0  0  0  0
   57.7320   27.2470   47.0820 C   0  0  0  0  0  0  0  0  0  0  0  0
   56.7607   26.7986   47.3379 H   0  0  0  0  0  0  0  0  0  0  0  0
   57.9717   28.0717   47.7694 H   0  0  0  0  0  0  0  0  0  0  0  0
   58.8310   26.1720   47.2070 C   0  0  0  0  0  0  0  0  0  0  0  0
   58.6080   25.5517   48.0876 H   0  0  0  0  0  0  0  0  0  0  0  0
   59.7879   26.7075   47.2934 H   0  0  0  0  0  0  0  0  0  0  0  0
   58.9530   25.2380   45.9720 C   0  0  0  0  0  0  0  0  0  0  0  0
   58.8868   24.1953   46.3161 H   0  0  0  0  0  0  0  0  0  0  0  0
   59.9185   25.4589   45.4934 H   0  0  0  0  0  0  0  0  0  0  0  0
   57.8610   25.4720   44.9160 C   0  0  0  0  0  0  0  0  0  0  0  0
   56.9067   25.0668   45.2836 H   0  0  0  0  0  0  0  0  0  0  0  0
   58.1482   24.9653   43.9828 H   0  0  0  0  0  0  0  0  0  0  0  0
  1  2  1  0
  2  3  2  0
  3  4  1  0
  4  5  2  0
  5  6  1  0
  5  7  1  0
  7  8  1  0
  8  9  2  0
  8 10  1  0
 10 11  1  0
 11 12  2  0
 12 13  1  0
 12 14  1  0
 14 15  2  0
 15 16  1  0
 15 17  1  0
 17 18  1  0
 18 19  1  0
 18 20  1  0
 18 21  1  0
 21 22  1  0
 21 23  1  0
 21 24  1  0
 17 25  1  0
 25 26  1  0
 25 27  2  0
 27 28  1  0
 28 29  1  0
 28 30  1  0
 28 31  1  0
 10 32  1  0
 32 33  2  0
  3 34  1  0
 34 35  1  0
 34 36  1  0
 34 37  1  0
 37 38  1  0
 37 39  1  0
 37 40  1  0
 40 41  1  0
 40 42  1  0
 40 43  1  0
 43 44  1  0
 43 45  1  0
 43  2  1  0
 32  4  1  0
 27 14  1  0
M  CHG  3   6  -1   7  -1  25   1
M  END
>  <UniqueID>  (8) 
8

>  <SMILES>  (8) 
CCn1cc(/C=N/n2c(=O)[n-]c([O-])c(C3=CCCCC3)c2=O)c(C)[nH+]1

>  <Energy>  (8) 
88.52457524041193

>  <Genealogy>  (8) 
CCn1cc(C=Nn2c(=O)[n-]c([O-])c(C3=CCCCC3)c2=O)c(C)[nH+]1 (protonated)
CCn1cc(/C=N/n2c(=O)[n-]c([O-])c(C3=CCCCC3)c2=O)c(C)[nH+]1 (cis-trans isomerization)
CCn1cc(/C=N/n2c(=O)[n-]c([O-])c(C3=CCCCC3)c2=O)c(C)[nH+]1 (3D coordinates assigned)
CCn1cc(/C=N/n2c(=O)[n-]c([O-])c(C3=CCCCC3)c2=O)c(C)[nH+]1 (nonaromatic ring conformer: 88.52457524041193 kcal/mol)

>  <smiles>  (8) 
CCn1cc(C=Nn2c(=O)[nH]c(O)c(C3=CCCCC3)c2=O)c(C)n1

>  <score_type>  (8) 
oracle

>  <origin>  (8) 
adg

>  <m_score__min__energy>  (8) 
-11.31

>  <m_primary>  (8) 
energy

$$$$
8:0
     RDKit          3D

 59 62  0  0  0  0  0  0  0  0999 V2000
   66.5880   33.0310   50.1490 C   0  0  0  0  0  0  0  0  0  0  0  0
   65.1220   32.7750   49.9590 C   0  0  0  0  0  0  0  0  0  0  0  0
   64.5070   33.0640   48.7330 C   0  0  0  0  0  0  0  0  0  0  0  0
   63.1500   32.7870   48.5420 C   0  0  0  0  0  0  0  0  0  0  0  0
   62.3940   32.1920   49.5690 C   0  0  0  0  0  0  0  0  0  0  0  0
   60.9930   31.9140   49.4050 N   0  0  0  0  0  0  0  0  0  0  0  0
   59.9410   32.7580   49.8980 C   0  0  0  0  0  0  0  0  0  0  0  0
   60.1970   33.8940   50.3810 O   0  0  0  0  0  0  0  0  0  0  0  0
   58.5120   32.3160   49.7810 C   0  0  0  0  0  0  0  0  0  0  0  0
   58.0570   31.7210   51.0470 N   0  0  0  0  0  0  0  0  0  0  0  0
   57.3610   32.5420   52.0410 C   0  0  0  0  0  0  0  0  0  0  0  0
   58.3690   30.3510   51.3740 C   0  0  0  0  0  0  0  0  0  0  0  0
   57.4550   29.4810   51.3730 O   0  0  0  0  0  0  0  0  0  0  0  0
   59.7420   29.9390   51.7300 C   0  0  0  0  0  0  0  0  0  0  0  0
   60.3240   30.4400   52.9040 C   0  0  0  0  0  0  0  0  0  0  0  0
   61.6230   30.0730   53.2580 C   0  0  0  0  0  0  0  0  0  0  0  0
   62.3500   29.1990   52.4450 C   0  0  0  0  0  0  0  0  0  0  0  0
   61.7710   28.6750   51.2880 C   0  0  0  0  0  0  0  0  0  0  0  0
   60.4530   29.0180   50.9320 C   0  0  0  0  0  0  0  0  0  0  0  0
   59.8290   28.4690   49.7600 N   0  0  0  0  0  0  0  0  0  0  0  0
   60.0170   28.9070   48.4090 C   0  0  0  0  0  0  0  0  0  0  0  0
   61.1360   29.3360   48.0180 O   0  0  0  0  0  0  0  0  0  0  0  0
   58.8840   28.8020   47.4380 C   0  0  0  0  0  0  0  0  0  0  0  0
   58.6680   30.1160   46.7570 C   0  0  0  0  0  0  0  0  0  0  0  0
   57.6230   30.2740   45.8990 N   0  0  0  0  0  0  0  0  0  0  0  0
   57.3860   31.4630   45.2860 C   0  0  0  0  0  0  0  0  0  0  0  0
   56.4080   31.5650   44.4980 O   0  0  0  0  0  0  0  0  0  0  0  0
   58.2270   32.5590   45.5410 C   0  0  0  0  0  0  0  0  0  0  0  0
   58.0380   33.8150   44.9360 C   0  0  0  0  0  0  0  0  0  0  0  0
   58.9080   34.8700   45.2300 C   0  0  0  0  0  0  0  0  0  0  0  0
   59.9640   34.6840   46.1280 C   0  0  0  0  0  0  0  0  0  0  0  0
   60.1580   33.4400   46.7340 C   0  0  0  0  0  0  0  0  0  0  0  0
   59.2950   32.3760   46.4440 C   0  0  0  0  0  0  0  0  0  0  0  0
   59.4850   31.1650   47.0300 N   0  0  0  0  0  0  0  0  0  0  0  0
   63.0100   31.9120   50.7950 C   0  0  0  0  0  0  0  0  0  0  0  0
   64.3670   32.1880   50.9860 C   0  0  0  0  0  0  0  0  0  0  0  0
   66.8169   33.0710   51.2242 H   0  0  0  0  0  0  0  0  0  0  0  0
   67.1655   32.2201   49.6811 H   0  0  0  0  0  0  0  0  0  0  0  0
   66.8565   33.9896   49.6811 H   0  0  0  0  0  0  0  0  0  0  0  0
   65.0947   33.5107   47.9175 H   0  0  0  0  0  0  0  0  0  0  0  0
   62.6706   33.0355   47.5836 H   0  0  0  0  0  0  0  0  0  0  0  0
   60.7240   31.1020   48.8040 H   0  0  0  0  0  0  0  0  0  0  0  0
   57.8817   33.1850   49.5411 H   0  0  0  0  0  0  0  0  0  0  0  0
   58.4343   31.5628   48.9831 H   0  0  0  0  0  0  0  0  0  0  0  0
   57.6418   32.2108   53.0517 H   0  0  0  0  0  0  0  0  0  0  0  0
   57.6444   33.5966   51.9088 H   0  0  0  0  0  0  0  0  0  0  0  0
   56.2742   32.4350   51.9088 H   0  0  0  0  0  0  0  0  0  0  0  0
   59.7538   31.1253   53.5484 H   0  0  0  0  0  0  0  0  0  0  0  0
   62.0753   30.4720   54.1779 H   0  0  0  0  0  0  0  0  0  0  0  0
   63.3796   28.9237   52.7172 H   0  0  0  0  0  0  0  0  0  0  0  0
   62.3484   27.9895   50.6503 H   0  0  0  0  0  0  0  0  0  0  0  0
   59.1202   28.0361   46.6846 H   0  0  0  0  0  0  0  0  0  0  0  0
   57.9689   28.5229   47.9809 H   0  0  0  0  0  0  0  0  0  0  0  0
   57.2065   33.9673   44.2322 H   0  0  0  0  0  0  0  0  0  0  0  0
   58.7610   35.8502   44.7529 H   0  0  0  0  0  0  0  0  0  0  0  0
   60.6430   35.5184   46.3576 H   0  0  0  0  0  0  0  0  0  0  0  0
   60.9895   33.2963   47.4396 H   0  0  0  0  0  0  0  0  0  0  0  0
   62.4218   31.4717   51.6136 H   0  0  0  0  0  0  0  0  0  0  0  0
   64.8453   31.9439   51.9460 H   0  0  0  0  0  0  0  0  0  0  0  0
  1  2  1  0
  2  3  2  0
  3  4  1  0
  4  5  2  0
  5  6  1  0
  6  7  1  0
  7  8  2  0
  7  9  1  0
  9 10  1  0
 10 11  1  0
 10 12  1  0
 12 13  2  0
 12 14  1  0
 14 15  2  0
 15 16  1  0
 16 17  2  0
 17 18  1  0
 18 19  2  0
 19 20  1  0
 20 21  1  0
 21 22  2  0
 21 23  1  0
 23 24  1  0
 24 25  2  0
 25 26  1  0
 26 27  2  0
 26 28  1  0
 28 29  2  0
 29 30  1  0
 30 31  2  0
 31 32  1  0
 32 33  2  0
 33 34  1  0
  5 35  1  0
 35 36  2  0
 36  2  1  0
 19 14  1  0
 34 24  1  0
 33 28  1  0
  1 37  1  0
  1 38  1  0
  1 39  1  0
  3 40  1  0
  4 41  1  0
  6 42  1  0
  9 43  1  0
  9 44  1  0
 11 45  1  0
 11 46  1  0
 11 47  1  0
 15 48  1  0
 16 49  1  0
 17 50  1  0
 18 51  1  0
 23 52  1  0
 23 53  1  0
 29 54  1  0
 30 55  1  0
 31 56  1  0
 32 57  1  0
 35 58  1  0
 36 59  1  0
M  CHG  2  20  -1  34  -1
M  END
>  <UniqueID>  (9) 
9

>  <SMILES>  (9) 
Cc1ccc(NC(=O)CN(C)C(=O)c2ccccc2[N-]C(=O)Cc2nc(=O)c3ccccc3[n-]2)cc1

>  <Energy>  (9) 
74.53549854251501

>  <Genealogy>  (9) 
Cc1ccc(NC(=O)CN(C)C(=O)c2ccccc2[N-]C(=O)Cc2nc(=O)c3ccccc3[n-]2)cc1 (protonated)
Cc1ccc(NC(=O)CN(C)C(=O)c2ccccc2[N-]C(=O)Cc2nc(=O)c3ccccc3[n-]2)cc1 (3D coordinates assigned)
Cc1ccc(NC(=O)CN(C)C(=O)c2ccccc2[N-]C(=O)Cc2nc(=O)c3ccccc3[n-]2)cc1 (optimized conformer: 74.53549854251501 kcal/mol)

>  <smiles>  (9) 
Cc1ccc(NC(=O)CN(C)C(=O)c2ccccc2NC(=O)Cc2nc(=O)c3ccccc3[nH]2)cc1

>  <score_type>  (9) 
oracle

>  <origin>  (9) 
adg

>  <m_score__min__energy>  (9) 
-11.4

>  <m_primary>  (9) 
energy

$$$$
9:0
     RDKit          3D

 44 47  0  0  0  0  0  0  0  0999 V2000
   60.9630   28.2520   45.1880 H   0  0  0  0  0  0  0  0  0  0  0  0
   60.2120   28.5200   45.8140 O   0  0  0  0  0  0  0  0  0  0  0  0
   58.9310   28.7930   45.3390 C   0  0  0  0  0  0  0  0  0  0  0  0
   57.8630   27.9810   45.7310 C   0  0  0  0  0  0  0  0  0  0  0  0
   58.0366   27.1402   46.4187 H   0  0  0  0  0  0  0  0  0  0  0  0
   56.5740   28.2350   45.2510 C   0  0  0  0  0  0  0  0  0  0  0  0
   55.5180   27.4170   45.6310 O   0  0  0  0  0  0  0  0  0  0  0  0
   56.3490   29.3120   44.3870 C   0  0  0  0  0  0  0  0  0  0  0  0
   55.3368   29.4996   43.9994 H   0  0  0  0  0  0  0  0  0  0  0  0
   57.4060   30.1540   44.0120 C   0  0  0  0  0  0  0  0  0  0  0  0
   57.1420   31.2710   43.0780 C   0  0  0  0  0  0  0  0  0  0  0  0
   56.5662   31.0429   42.1689 H   0  0  0  0  0  0  0  0  0  0  0  0
   57.5470   32.5400   43.2480 C   0  0  0  0  0  0  0  0  0  0  0  0
   57.4695   33.2142   42.3823 H   0  0  0  0  0  0  0  0  0  0  0  0
   58.0880   33.1060   44.5010 C   0  0  0  0  0  0  0  0  0  0  0  0
   57.6520   32.6030   45.6870 N   0  0  0  0  0  0  0  0  0  0  0  0
   58.1260   33.0520   46.8810 C   0  0  0  0  0  0  0  0  0  0  0  0
   57.7282   32.6386   47.8196 H   0  0  0  0  0  0  0  0  0  0  0  0
   59.1180   34.0380   46.9180 C   0  0  0  0  0  0  0  0  0  0  0  0
   59.5810   34.5630   48.2170 C   0  0  0  0  0  0  0  0  0  0  0  0
   59.0511   35.4364   48.6249 H   0  0  0  0  0  0  0  0  0  0  0  0
   60.6000   34.0620   48.9470 C   0  0  0  0  0  0  0  0  0  0  0  0
   61.9400   33.7210   48.3900 C   0  0  0  0  0  0  0  0  0  0  0  0
   62.1410   33.6780   47.1470 O   0  0  0  0  0  0  0  0  0  0  0  0
   63.0260   33.3490   49.3230 C   0  0  0  0  0  0  0  0  0  0  0  0
   64.3370   33.1340   48.8640 C   0  0  0  0  0  0  0  0  0  0  0  0
   64.5687   33.2486   47.7948 H   0  0  0  0  0  0  0  0  0  0  0  0
   65.3480   32.7750   49.7610 C   0  0  0  0  0  0  0  0  0  0  0  0
   66.3731   32.6122   49.3968 H   0  0  0  0  0  0  0  0  0  0  0  0
   65.0580   32.6230   51.1180 C   0  0  0  0  0  0  0  0  0  0  0  0
   65.8550   32.3389   51.8209 H   0  0  0  0  0  0  0  0  0  0  0  0
   63.7570   32.8310   51.5860 C   0  0  0  0  0  0  0  0  0  0  0  0
   63.5332   32.7089   52.6560 H   0  0  0  0  0  0  0  0  0  0  0  0
   62.7360   33.1950   50.6950 C   0  0  0  0  0  0  0  0  0  0  0  0
   61.3610   33.4030   51.1960 C   0  0  0  0  0  0  0  0  0  0  0  0
   61.1464   33.2285   52.2607 H   0  0  0  0  0  0  0  0  0  0  0  0
   60.3710   33.7980   50.3880 C   0  0  0  0  0  0  0  0  0  0  0  0
   59.3610   33.9304   50.8032 H   0  0  0  0  0  0  0  0  0  0  0  0
   59.5810   34.5760   45.7080 C   0  0  0  0  0  0  0  0  0  0  0  0
   60.3350   35.3769   45.7148 H   0  0  0  0  0  0  0  0  0  0  0  0
   59.0850   34.0950   44.4960 C   0  0  0  0  0  0  0  0  0  0  0  0
   59.4718   34.4873   43.5439 H   0  0  0  0  0  0  0  0  0  0  0  0
   58.7060   29.8720   44.4730 C   0  0  0  0  0  0  0  0  0  0  0  0
   59.5491   30.5014   44.1521 H   0  0  0  0  0  0  0  0  0  0  0  0
  1  2  1  0
  2  3  1  0
  3  4  2  0
  4  5  1  0
  4  6  1  0
  6  7  1  0
  6  8  2  0
  8  9  1  0
  8 10  1  0
 10 11  1  0
 11 12  1  0
 11 13  2  0
 13 14  1  0
 13 15  1  0
 15 16  2  0
 16 17  1  0
 17 18  1  0
 17 19  2  0
 19 20  1  0
 20 21  1  0
 20 22  2  0
 22 23  1  0
 23 24  2  0
 23 25  1  0
 25 26  2  0
 26 27  1  0
 26 28  1  0
 28 29  1  0
 28 30  2  0
 30 31  1  0
 30 32  1  0
 32 33  1  0
 32 34  2  0
 34 35  1  0
 35 36  1  0
 35 37  2  0
 37 38  1  0
 19 39  1  0
 39 40  1  0
 39 41  2  0
 41 42  1  0
 10 43  2  0
 43 44  1  0
 43  3  1  0
 41 15  1  0
 37 22  1  0
 34 25  1  0
M  CHG  1   7  -1
M  END
>  <UniqueID>  (10) 
10

>  <SMILES>  (10) 
O=C1/C(=C\c2ccc(/C=C\c3cc([O-])cc(O)c3)nc2)C=Cc2ccccc21

>  <Energy>  (10) 
69.47581055900737

>  <Genealogy>  (10) 
O=C1C(=Cc2ccc(C=Cc3cc([O-])cc(O)c3)nc2)C=Cc2ccccc21 (protonated)
O=C1/C(=C\c2ccc(/C=C\c3cc([O-])cc(O)c3)nc2)C=Cc2ccccc21 (cis-trans isomerization)
O=C1/C(=C\c2ccc(/C=C\c3cc([O-])cc(O)c3)nc2)C=Cc2ccccc21 (3D coordinates assigned)
O=C1/C(=C\c2ccc(/C=C\c3cc([O-])cc(O)c3)nc2)C=Cc2ccccc21 (nonaromatic ring conformer: 69.47581055900737 kcal/mol)

>  <smiles>  (10) 
O=C1C(=Cc2ccc(C=Cc3cc(O)cc(O)c3)nc2)C=Cc2ccccc21

>  <score_type>  (10) 
oracle

>  <origin>  (10) 
adg

>  <m_score__min__energy>  (10) 
-14.32

>  <m_primary>  (10) 
energy

$$$$
10:0
     RDKit          3D

 51 54  0  0  0  0  0  0  0  0999 V2000
   61.6070   29.5600   53.0580 C   0  0  0  0  0  0  0  0  0  0  0  0
   60.4020   28.9660   52.5900 O   0  0  0  0  0  0  0  0  0  0  0  0
   60.1480   28.7320   51.2340 C   0  0  0  0  0  0  0  0  0  0  0  0
   60.8860   27.8180   50.5420 N   0  0  0  0  0  0  0  0  0  0  0  0
   60.6700   27.5680   49.2240 C   0  0  0  0  0  0  0  0  0  0  0  0
   59.6660   28.2530   48.5390 C   0  0  0  0  0  0  0  0  0  0  0  0
   58.8930   29.1930   49.2210 C   0  0  0  0  0  0  0  0  0  0  0  0
   59.1300   29.4440   50.5790 C   0  0  0  0  0  0  0  0  0  0  0  0
   58.1820   30.6620   51.4360 S   0  0  0  0  0  0  0  0  0  0  0  0
   56.8720   30.0890   51.9000 O   0  0  0  0  0  0  0  0  0  0  0  0
   58.9630   31.1250   52.6340 O   0  0  0  0  0  0  0  0  0  0  0  0
   57.8670   32.0180   50.3970 N   0  0  0  0  0  0  0  0  0  0  0  0
   58.7840   32.4890   49.3950 C   0  0  0  0  0  0  0  0  0  0  0  0
   60.0130   33.0360   49.7940 C   0  0  0  0  0  0  0  0  0  0  0  0
   60.9340   33.4850   48.8430 C   0  0  0  0  0  0  0  0  0  0  0  0
   62.6080   34.2110   49.4060 Br  0  0  0  0  0  0  0  0  0  0  0  0
   60.6330   33.3980   47.4820 C   0  0  0  0  0  0  0  0  0  0  0  0
   59.3990   32.8790   47.0600 C   0  0  0  0  0  0  0  0  0  0  0  0
   59.0860   32.7640   45.5870 C   0  0  0  0  0  0  0  0  0  0  0  0
   58.0840   31.6700   45.3160 C   0  0  0  0  0  0  0  0  0  0  0  0
   56.8230   32.0320   44.9510 N   0  0  0  0  0  0  0  0  0  0  0  0
   55.8820   31.1320   44.6680 N   0  0  0  0  0  0  0  0  0  0  0  0
   56.1320   29.8010   44.7200 C   0  0  0  0  0  0  0  0  0  0  0  0
   55.2080   28.9860   44.4570 O   0  0  0  0  0  0  0  0  0  0  0  0
   57.4140   29.3530   45.0690 C   0  0  0  0  0  0  0  0  0  0  0  0
   58.4070   30.2960   45.3760 C   0  0  0  0  0  0  0  0  0  0  0  0
   59.7590   29.7710   45.8020 C   0  0  0  0  0  0  0  0  0  0  0  0
   60.2190   28.6450   44.8610 C   0  0  0  0  0  0  0  0  0  0  0  0
   59.1280   27.5860   44.5570 C   0  0  0  0  0  0  0  0  0  0  0  0
   57.7520   27.8850   45.1800 C   0  0  0  0  0  0  0  0  0  0  0  0
   58.4850   32.4170   48.0220 C   0  0  0  0  0  0  0  0  0  0  0  0
   61.6116   29.5622   54.1580 H   0  0  0  0  0  0  0  0  0  0  0  0
   62.4677   28.9829   52.6889 H   0  0  0  0  0  0  0  0  0  0  0  0
   61.6735   30.5941   52.6889 H   0  0  0  0  0  0  0  0  0  0  0  0
   61.2869   26.8253   48.6969 H   0  0  0  0  0  0  0  0  0  0  0  0
   59.4858   28.0540   47.4723 H   0  0  0  0  0  0  0  0  0  0  0  0
   58.0968   29.7376   48.6922 H   0  0  0  0  0  0  0  0  0  0  0  0
   56.9970   32.5640   50.5850 H   0  0  0  0  0  0  0  0  0  0  0  0
   60.2539   33.1122   50.8646 H   0  0  0  0  0  0  0  0  0  0  0  0
   61.3670   33.7381   46.7366 H   0  0  0  0  0  0  0  0  0  0  0  0
   58.6740   33.7209   45.2339 H   0  0  0  0  0  0  0  0  0  0  0  0
   60.0170   32.5171   45.0557 H   0  0  0  0  0  0  0  0  0  0  0  0
   60.4919   30.5907   45.7714 H   0  0  0  0  0  0  0  0  0  0  0  0
   59.6803   29.3715   46.8239 H   0  0  0  0  0  0  0  0  0  0  0  0
   60.5349   29.0979   43.9096 H   0  0  0  0  0  0  0  0  0  0  0  0
   61.0369   28.1182   45.3743 H   0  0  0  0  0  0  0  0  0  0  0  0
   59.0043   27.5246   43.4657 H   0  0  0  0  0  0  0  0  0  0  0  0
   59.4750   26.6437   45.0061 H   0  0  0  0  0  0  0  0  0  0  0  0
   56.9842   27.2985   44.6542 H   0  0  0  0  0  0  0  0  0  0  0  0
   57.7834   27.6126   46.2453 H   0  0  0  0  0  0  0  0  0  0  0  0
   57.5231   31.9935   47.6975 H   0  0  0  0  0  0  0  0  0  0  0  0
  1  2  1  0
  2  3  1  0
  3  4  2  0
  4  5  1  0
  5  6  2  0
  6  7  1  0
  7  8  2  0
  8  9  1  0
  9 10  2  0
  9 11  2  0
  9 12  1  0
 12 13  1  0
 13 14  2  0
 14 15  1  0
 15 16  1  0
 15 17  2  0
 17 18  1  0
 18 19  1  0
 19 20  1  0
 20 21  2  0
 21 22  1  0
 22 23  1  0
 23 24  2  0
 23 25  1  0
 25 26  2  0
 26 27  1  0
 27 28  1  0
 28 29  1  0
 29 30  1  0
 18 31  2  0
  8  3  1  0
 31 13  1  0
 26 20  1  0
 30 25  1  0
  1 32  1  0
  1 33  1  0
  1 34  1  0
  5 35  1  0
  6 36  1  0
  7 37  1  0
 12 38  1  0
 14 39  1  0
 17 40  1  0
 19 41  1  0
 19 42  1  0
 27 43  1  0
 27 44  1  0
 28 45  1  0
 28 46  1  0
 29 47  1  0
 29 48  1  0
 30 49  1  0
 30 50  1  0
 31 51  1  0
M  CHG  1  22  -1
M  END
>  <UniqueID>  (11) 
11

>  <SMILES>  (11) 
COc1ncccc1S(=O)(=O)Nc1cc(Br)cc(Cc2n[n-]c(=O)c3c2CCCC3)c1

>  <Energy>  (11) 
61.96692879606439

>  <Genealogy>  (11) 
COc1ncccc1S(=O)(=O)Nc1cc(Br)cc(Cc2n[n-]c(=O)c3c2CCCC3)c1 (protonated)
COc1ncccc1S(=O)(=O)Nc1cc(Br)cc(Cc2n[n-]c(=O)c3c2CCCC3)c1 (3D coordinates assigned)
COc1ncccc1S(=O)(=O)Nc1cc(Br)cc(Cc2n[n-]c(=O)c3c2CCCC3)c1 (nonaromatic ring conformer: 61.96692879606439 kcal/mol)

>  <smiles>  (11) 
COc1ncccc1S(=O)(=O)Nc1cc(Br)cc(Cc2n[nH]c(=O)c3c2CCCC3)c1

>  <score_type>  (11) 
oracle

>  <origin>  (11) 
adg

>  <m_score__min__energy>  (11) 
-12.19

>  <m_primary>  (11) 
energy

$$$$
11:0
     RDKit          3D

 39 41  0  0  0  0  0  0  0  0999 V2000
   57.6250   22.5610   47.0700 N   0  0  0  0  0  0  0  0  0  0  0  0
   58.3490   23.1570   45.6200 S   0  0  0  0  0  0  0  0  0  0  0  0
   57.6760   22.5290   44.4310 O   0  0  0  0  0  0  0  0  0  0  0  0
   59.8060   22.7910   45.5970 O   0  0  0  0  0  0  0  0  0  0  0  0
   58.1730   24.9080   45.5500 C   0  0  0  0  0  0  0  0  0  0  0  0
   58.2550   25.6690   46.7220 C   0  0  0  0  0  0  0  0  0  0  0  0
   58.1030   27.0580   46.6720 C   0  0  0  0  0  0  0  0  0  0  0  0
   57.8630   27.7070   45.4470 C   0  0  0  0  0  0  0  0  0  0  0  0
   57.7000   29.1830   45.3930 C   0  0  0  0  0  0  0  0  0  0  0  0
   56.7200   29.7680   44.5810 C   0  0  0  0  0  0  0  0  0  0  0  0
   56.5840   31.1180   44.5530 N   0  0  0  0  0  0  0  0  0  0  0  0
   57.3670   31.9130   45.2820 N   0  0  0  0  0  0  0  0  0  0  0  0
   58.3470   31.4170   46.0870 C   0  0  0  0  0  0  0  0  0  0  0  0
   59.1850   32.3520   46.8800 C   0  0  0  0  0  0  0  0  0  0  0  0
   58.6190   33.1910   47.8590 C   0  0  0  0  0  0  0  0  0  0  0  0
   59.4250   34.0630   48.5960 C   0  0  0  0  0  0  0  0  0  0  0  0
   60.8030   34.1030   48.3750 C   0  0  0  0  0  0  0  0  0  0  0  0
   61.3850   33.2600   47.4210 C   0  0  0  0  0  0  0  0  0  0  0  0
   63.1220   33.3160   47.1310 S   0  0  0  0  0  0  0  0  0  0  0  0
   63.7630   31.7110   47.1340 N   0  0  0  0  0  0  0  0  0  0  0  0
   63.3980   33.9620   45.8020 O   0  0  0  0  0  0  0  0  0  0  0  0
   63.7900   34.1250   48.2070 O   0  0  0  0  0  0  0  0  0  0  0  0
   60.5760   32.3910   46.6750 C   0  0  0  0  0  0  0  0  0  0  0  0
   58.5180   30.0260   46.1560 C   0  0  0  0  0  0  0  0  0  0  0  0
   57.7730   26.9330   44.2750 C   0  0  0  0  0  0  0  0  0  0  0  0
   57.9260   25.5450   44.3280 C   0  0  0  0  0  0  0  0  0  0  0  0
   57.7450   23.3010   47.7980 H   0  0  0  0  0  0  0  0  0  0  0  0
   58.4397   25.1724   47.6860 H   0  0  0  0  0  0  0  0  0  0  0  0
   58.1716   27.6481   47.5978 H   0  0  0  0  0  0  0  0  0  0  0  0
   56.0622   29.1347   43.9675 H   0  0  0  0  0  0  0  0  0  0  0  0
   57.5353   33.1599   48.0449 H   0  0  0  0  0  0  0  0  0  0  0  0
   58.9721   34.7202   49.3529 H   0  0  0  0  0  0  0  0  0  0  0  0
   61.4319   34.7976   48.9511 H   0  0  0  0  0  0  0  0  0  0  0  0
   64.2930   31.5960   48.0270 H   0  0  0  0  0  0  0  0  0  0  0  0
   64.4630   31.6600   46.3600 H   0  0  0  0  0  0  0  0  0  0  0  0
   61.0339   31.7330   45.9217 H   0  0  0  0  0  0  0  0  0  0  0  0
   59.2934   29.5981   46.8084 H   0  0  0  0  0  0  0  0  0  0  0  0
   57.5807   27.4244   43.3098 H   0  0  0  0  0  0  0  0  0  0  0  0
   57.8520   24.9503   43.4056 H   0  0  0  0  0  0  0  0  0  0  0  0
  1  2  1  0
  2  3  2  0
  2  4  2  0
  2  5  1  0
  5  6  2  0
  6  7  1  0
  7  8  2  0
  8  9  1  0
  9 10  2  0
 10 11  1  0
 11 12  2  0
 12 13  1  0
 13 14  1  0
 14 15  2  0
 15 16  1  0
 16 17  2  0
 17 18  1  0
 18 19  1  0
 19 20  1  0
 19 21  2  0
 19 22  2  0
 18 23  2  0
 13 24  2  0
  8 25  1  0
 25 26  2  0
 26  5  1  0
 24  9  1  0
 23 14  1  0
  1 27  1  0
  6 28  1  0
  7 29  1  0
 10 30  1  0
 15 31  1  0
 16 32  1  0
 17 33  1  0
 20 34  1  0
 20 35  1  0
 23 36  1  0
 24 37  1  0
 25 38  1  0
 26 39  1  0
M  CHG  1   1  -1
M  END
>  <UniqueID>  (12) 
12

>  <SMILES>  (12) 
[NH-]S(=O)(=O)c1ccc(-c2cnnc(-c3cccc(S(N)(=O)=O)c3)c2)cc1

>  <Energy>  (12) 
50.48764011368001

>  <Genealogy>  (12) 
[NH-]S(=O)(=O)c1ccc(-c2cnnc(-c3cccc(S(N)(=O)=O)c3)c2)cc1 (protonated)
[NH-]S(=O)(=O)c1ccc(-c2cnnc(-c3cccc(S(N)(=O)=O)c3)c2)cc1 (3D coordinates assigned)
[NH-]S(=O)(=O)c1ccc(-c2cnnc(-c3cccc(S(N)(=O)=O)c3)c2)cc1 (optimized conformer: 50.48764011368001 kcal/mol)

>  <smiles>  (12) 
NS(=O)(=O)c1ccc(-c2cnnc(-c3cccc(S(N)(=O)=O)c3)c2)cc1

>  <score_type>  (12) 
oracle

>  <origin>  (12) 
adg

>  <m_score__min__energy>  (12) 
-11.08

>  <m_primary>  (12) 
energy

$$$$
12:0
     RDKit          3D

 61 65  0  0  0  0  0  0  0  0999 V2000
   59.3900   28.3926   47.5772 H   0  0  0  0  0  0  0  0  0  0  0  0
   58.9100   27.7760   46.8030 C   0  0  0  0  0  0  0  0  0  0  0  0
   58.8552   26.6842   46.9251 H   0  0  0  0  0  0  0  0  0  0  0  0
   58.3910   28.3560   45.7090 C   0  0  0  0  0  0  0  0  0  0  0  0
   57.7540   27.7060   44.6470 C   0  0  0  0  0  0  0  0  0  0  0  0
   57.5620   26.3810   44.4990 C   0  0  0  0  0  0  0  0  0  0  0  0
   57.8612   25.9200   43.5461 H   0  0  0  0  0  0  0  0  0  0  0  0
   56.9760   25.5100   45.5340 C   0  0  0  0  0  0  0  0  0  0  0  0
   57.6260   24.4620   46.0700 N   0  0  0  0  0  0  0  0  0  0  0  0
   56.7730   24.0150   47.0190 C   0  0  0  0  0  0  0  0  0  0  0  0
   57.0290   23.0190   47.7440 O   0  0  0  0  0  0  0  0  0  0  0  0
   55.6330   24.7280   47.1370 N   0  0  0  0  0  0  0  0  0  0  0  0
   55.7810   25.6790   46.2020 C   0  0  0  0  0  0  0  0  0  0  0  0
   54.8660   26.7040   45.9980 O   0  0  0  0  0  0  0  0  0  0  0  0
   57.4070   28.6970   43.7370 C   0  0  0  0  0  0  0  0  0  0  0  0
   56.9019   28.5534   42.7705 H   0  0  0  0  0  0  0  0  0  0  0  0
   57.8190   29.8960   44.2810 C   0  0  0  0  0  0  0  0  0  0  0  0
   57.6480   31.2320   43.6270 C   0  0  0  0  0  0  0  0  0  0  0  0
   57.5486   32.0085   44.3998 H   0  0  0  0  0  0  0  0  0  0  0  0
   58.5258   31.4485   43.0004 H   0  0  0  0  0  0  0  0  0  0  0  0
   56.7440   31.2205   43.0004 H   0  0  0  0  0  0  0  0  0  0  0  0
   58.4240   29.6910   45.4720 N   0  0  0  0  0  0  0  0  0  0  0  0
   58.9620   30.7130   46.3290 C   0  0  0  0  0  0  0  0  0  0  0  0
   58.1210   31.7130   46.8370 C   0  0  0  0  0  0  0  0  0  0  0  0
   57.0508   31.7108   46.5825 H   0  0  0  0  0  0  0  0  0  0  0  0
   58.6380   32.7130   47.6660 C   0  0  0  0  0  0  0  0  0  0  0  0
   57.9699   33.4879   48.0700 H   0  0  0  0  0  0  0  0  0  0  0  0
   60.0050   32.7340   47.9860 C   0  0  0  0  0  0  0  0  0  0  0  0
   60.5440   33.7890   48.8750 C   0  0  0  0  0  0  0  0  0  0  0  0
   59.7560   34.6480   49.3570 O   0  0  0  0  0  0  0  0  0  0  0  0
   61.9400   33.8360   49.2250 N   0  0  0  0  0  0  0  0  0  0  0  0
   62.9770   33.7040   48.1910 C   0  0  0  0  0  0  0  0  0  0  0  0
   62.5414   33.2327   47.2976 H   0  0  0  0  0  0  0  0  0  0  0  0
   63.3615   34.7033   47.9388 H   0  0  0  0  0  0  0  0  0  0  0  0
   64.1340   32.8380   48.7080 C   0  0  0  0  0  0  0  0  0  0  0  0
   63.8414   31.7793   48.6477 H   0  0  0  0  0  0  0  0  0  0  0  0
   65.0177   33.0390   48.0846 H   0  0  0  0  0  0  0  0  0  0  0  0
   64.4740   33.1600   50.1030 N   0  0  0  0  0  0  0  0  0  0  0  0
   65.4590   32.3590   50.7800 C   0  0  0  0  0  0  0  0  0  0  0  0
   66.4260   31.8820   50.1240 O   0  0  0  0  0  0  0  0  0  0  0  0
   65.3650   32.0940   52.2600 C   0  0  0  0  0  0  0  0  0  0  0  0
   66.3637   31.8357   52.6419 H   0  0  0  0  0  0  0  0  0  0  0  0
   64.9829   33.0009   52.7514 H   0  0  0  0  0  0  0  0  0  0  0  0
   64.4000   30.9370   52.5600 C   0  0  0  0  0  0  0  0  0  0  0  0
   64.3560   31.1170   53.6443 H   0  0  0  0  0  0  0  0  0  0  0  0
   64.5590   29.7070   51.6770 C   0  0  0  0  0  0  0  0  0  0  0  0
   65.3650   29.6669   50.9295 H   0  0  0  0  0  0  0  0  0  0  0  0
   64.6741   28.6282   51.8587 H   0  0  0  0  0  0  0  0  0  0  0  0
   63.3780   30.6440   51.4730 C   0  0  0  0  0  0  0  0  0  0  0  0
   63.3298   31.2810   50.5775 H   0  0  0  0  0  0  0  0  0  0  0  0
   62.2850   30.5227   51.4458 H   0  0  0  0  0  0  0  0  0  0  0  0
   63.8360   34.3120   50.7550 C   0  0  0  0  0  0  0  0  0  0  0  0
   64.0917   34.3147   51.8249 H   0  0  0  0  0  0  0  0  0  0  0  0
   64.1951   35.2406   50.2874 H   0  0  0  0  0  0  0  0  0  0  0  0
   62.3160   34.2180   50.5950 C   0  0  0  0  0  0  0  0  0  0  0  0
   61.9290   33.4632   51.2954 H   0  0  0  0  0  0  0  0  0  0  0  0
   61.8850   35.2075   50.8077 H   0  0  0  0  0  0  0  0  0  0  0  0
   60.8420   31.7220   47.4870 C   0  0  0  0  0  0  0  0  0  0  0  0
   61.9107   31.7186   47.7476 H   0  0  0  0  0  0  0  0  0  0  0  0
   60.3250   30.7190   46.6610 C   0  0  0  0  0  0  0  0  0  0  0  0
   61.1450   29.7380   46.2070 F   0  0  0  0  0  0  0  0  0  0  0  0
  1  2  1  0
  2  3  1  0
  2  4  2  0
  4  5  1  0
  5  6  2  0
  6  7  1  0
  6  8  1  0
  8  9  1  0
  9 10  1  0
 10 11  2  0
 10 12  1  0
 12 13  1  0
 13 14  1  0
  5 15  1  0
 15 16  1  0
 15 17  2  0
 17 18  1  0
 18 19  1  0
 18 20  1  0
 18 21  1  0
 17 22  1  0
 22 23  1  0
 23 24  2  0
 24 25  1  0
 24 26  1  0
 26 27  1  0
 26 28  2  0
 28 29  1  0
 29 30  2  0
 29 31  1  0
 31 32  1  0
 32 33  1  0
 32 34  1  0
 32 35  1  0
 35 36  1  0
 35 37  1  0
 35 38  1  0
 38 39  1  0
 39 40  2  0
 39 41  1  0
 41 42  1  0
 41 43  1  0
 41 44  1  0
 44 45  1  0
 44 46  1  0
 46 47  1  0
 46 48  1  0
 46 49  1  0
 49 50  1  0
 49 51  1  0
 38 52  1  0
 52 53  1  0
 52 54  1  0
 52 55  1  0
 55 56  1  0
 55 57  1  0
 28 58  1  0
 58 59  1  0
 58 60  2  0
 60 61  1  0
 22  4  1  0
 60 23  1  0
 13  8  2  0
 55 31  1  0
 49 44  1  0
M  CHG  3   9  -1  12  -1  14  -1
M  END
>  <UniqueID>  (13) 
13

>  <SMILES>  (13) 
C=c1/c(=C/c2[n-]c(=O)[n-]c2[O-])cc(C)n1-c1ccc(C(=O)N2CCN(C(=O)CC3CC3)CC2)cc1F

>  <Energy>  (13) 
405.6778002154145

>  <Genealogy>  (13) 
C=c1c(=Cc2[n-]c(=O)[n-]c2[O-])cc(C)n1-c1ccc(C(=O)N2CCN(C(=O)CC3CC3)CC2)cc1F (protonated)
C=c1/c(=C/c2[n-]c(=O)[n-]c2[O-])cc(C)n1-c1ccc(C(=O)N2CCN(C(=O)CC3CC3)CC2)cc1F (cis-trans isomerization)
C=c1/c(=C/c2[n-]c(=O)[n-]c2[O-])cc(C)n1-c1ccc(C(=O)N2CCN(C(=O)CC3CC3)CC2)cc1F (3D coordinates assigned)
C=c1/c(=C/c2[n-]c(=O)[n-]c2[O-])cc(C)n1-c1ccc(C(=O)N2CCN(C(=O)CC3CC3)CC2)cc1F (nonaromatic ring conformer: 405.6778002154145 kcal/mol)

>  <smiles>  (13) 
C=c1c(=Cc2[nH]c(=O)[nH]c2O)cc(C)n1-c1ccc(C(=O)N2CCN(C(=O)CC3CC3)CC2)cc1F

>  <score_type>  (13) 
oracle

>  <origin>  (13) 
adg

>  <m_score__min__energy>  (13) 
-17.559999999999999

>  <m_primary>  (13) 
energy

$$$$
13:0
     RDKit          3D

 49 52  0  0  0  0  0  0  0  0999 V2000
   56.3980   30.5530   43.3200 O   0  0  0  0  0  0  0  0  0  0  0  0
   57.2190   30.7310   44.2580 C   0  0  0  0  0  0  0  0  0  0  0  0
   58.3740   29.7780   44.4160 C   0  0  0  0  0  0  0  0  0  0  0  0
   57.9520   28.5640   45.1980 C   0  0  0  0  0  0  0  0  0  0  0  0
   58.9120   27.7570   45.8320 C   0  0  0  0  0  0  0  0  0  0  0  0
   58.5180   26.6130   46.5340 C   0  0  0  0  0  0  0  0  0  0  0  0
   57.1660   26.2620   46.6000 C   0  0  0  0  0  0  0  0  0  0  0  0
   56.7810   25.1230   47.3000 O   0  0  0  0  0  0  0  0  0  0  0  0
   56.2050   27.0540   45.9600 C   0  0  0  0  0  0  0  0  0  0  0  0
   54.8600   26.7070   46.0190 O   0  0  0  0  0  0  0  0  0  0  0  0
   56.5970   28.1990   45.2580 C   0  0  0  0  0  0  0  0  0  0  0  0
   56.9930   31.8050   45.1800 N   0  0  0  0  0  0  0  0  0  0  0  0
   57.9070   32.8640   45.4920 C   0  0  0  0  0  0  0  0  0  0  0  0
   58.3920   33.7330   44.4990 C   0  0  0  0  0  0  0  0  0  0  0  0
   59.2630   34.7690   44.8380 C   0  0  0  0  0  0  0  0  0  0  0  0
   59.6390   34.9650   46.1690 C   0  0  0  0  0  0  0  0  0  0  0  0
   59.1250   34.1350   47.1800 C   0  0  0  0  0  0  0  0  0  0  0  0
   59.5260   34.3460   48.6190 C   0  0  0  0  0  0  0  0  0  0  0  0
   60.7150   33.4940   48.9890 C   0  0  0  0  0  0  0  0  0  0  0  0
   61.9450   34.0740   48.9760 N   0  0  0  0  0  0  0  0  0  0  0  0
   63.0530   33.3950   49.2740 N   0  0  0  0  0  0  0  0  0  0  0  0
   63.0140   32.0800   49.6020 C   0  0  0  0  0  0  0  0  0  0  0  0
   64.0850   31.4820   49.8910 O   0  0  0  0  0  0  0  0  0  0  0  0
   61.7830   31.4090   49.6170 C   0  0  0  0  0  0  0  0  0  0  0  0
   60.6130   32.1210   49.3090 C   0  0  0  0  0  0  0  0  0  0  0  0
   59.3010   31.3720   49.3960 C   0  0  0  0  0  0  0  0  0  0  0  0
   59.4160   30.0030   48.7080 C   0  0  0  0  0  0  0  0  0  0  0  0
   60.6940   29.2080   49.0810 C   0  0  0  0  0  0  0  0  0  0  0  0
   61.6630   29.9570   50.0130 C   0  0  0  0  0  0  0  0  0  0  0  0
   58.2640   33.0810   46.8290 C   0  0  0  0  0  0  0  0  0  0  0  0
   58.7233   29.4644   43.4212 H   0  0  0  0  0  0  0  0  0  0  0  0
   59.1838   30.2873   44.9590 H   0  0  0  0  0  0  0  0  0  0  0  0
   59.9772   28.0259   45.7760 H   0  0  0  0  0  0  0  0  0  0  0  0
   59.2727   25.9887   47.0348 H   0  0  0  0  0  0  0  0  0  0  0  0
   55.8407   28.8161   44.7508 H   0  0  0  0  0  0  0  0  0  0  0  0
   58.0840   33.5958   43.4520 H   0  0  0  0  0  0  0  0  0  0  0  0
   59.6550   35.4339   44.0543 H   0  0  0  0  0  0  0  0  0  0  0  0
   60.3403   35.7723   46.4269 H   0  0  0  0  0  0  0  0  0  0  0  0
   59.7844   35.4049   48.7671 H   0  0  0  0  0  0  0  0  0  0  0  0
   58.6801   34.0576   49.2603 H   0  0  0  0  0  0  0  0  0  0  0  0
   59.0379   31.2245   50.4538 H   0  0  0  0  0  0  0  0  0  0  0  0
   58.5214   31.9601   48.8897 H   0  0  0  0  0  0  0  0  0  0  0  0
   58.5403   29.4004   48.9909 H   0  0  0  0  0  0  0  0  0  0  0  0
   59.4695   30.1969   47.6265 H   0  0  0  0  0  0  0  0  0  0  0  0
   60.3862   28.2780   49.5813 H   0  0  0  0  0  0  0  0  0  0  0  0
   61.2378   29.0316   48.1412 H   0  0  0  0  0  0  0  0  0  0  0  0
   61.2883   29.8958   51.0454 H   0  0  0  0  0  0  0  0  0  0  0  0
   62.6557   29.4897   49.9342 H   0  0  0  0  0  0  0  0  0  0  0  0
   57.8662   32.4194   47.6126 H   0  0  0  0  0  0  0  0  0  0  0  0
  1  2  2  0
  2  3  1  0
  3  4  1  0
  4  5  2  0
  5  6  1  0
  6  7  2  0
  7  8  1  0
  7  9  1  0
  9 10  1  0
  9 11  2  0
  2 12  1  0
 12 13  1  0
 13 14  2  0
 14 15  1  0
 15 16  2  0
 16 17  1  0
 17 18  1  0
 18 19  1  0
 19 20  2  0
 20 21  1  0
 21 22  1  0
 22 23  2  0
 22 24  1  0
 24 25  2  0
 25 26  1  0
 26 27  1  0
 27 28  1  0
 28 29  1  0
 17 30  2  0
 11  4  1  0
 30 13  1  0
 25 19  1  0
 29 24  1  0
  3 31  1  0
  3 32  1  0
  5 33  1  0
  6 34  1  0
 11 35  1  0
 14 36  1  0
 15 37  1  0
 16 38  1  0
 18 39  1  0
 18 40  1  0
 26 41  1  0
 26 42  1  0
 27 43  1  0
 27 44  1  0
 28 45  1  0
 28 46  1  0
 29 47  1  0
 29 48  1  0
 30 49  1  0
M  CHG  4   8  -1  10  -1  12  -1  21  -1
M  END
>  <UniqueID>  (14) 
14

>  <SMILES>  (14) 
O=C(Cc1ccc([O-])c([O-])c1)[N-]c1cccc(Cc2n[n-]c(=O)c3c2CCCC3)c1

>  <Energy>  (14) 
64.40781645430881

>  <Genealogy>  (14) 
O=C(Cc1ccc([O-])c([O-])c1)[N-]c1cccc(Cc2n[n-]c(=O)c3c2CCCC3)c1 (protonated)
O=C(Cc1ccc([O-])c([O-])c1)[N-]c1cccc(Cc2n[n-]c(=O)c3c2CCCC3)c1 (3D coordinates assigned)
O=C(Cc1ccc([O-])c([O-])c1)[N-]c1cccc(Cc2n[n-]c(=O)c3c2CCCC3)c1 (nonaromatic ring conformer: 64.40781645430881 kcal/mol)

>  <smiles>  (14) 
O=C(Cc1ccc(O)c(O)c1)Nc1cccc(Cc2n[nH]c(=O)c3c2CCCC3)c1

>  <score_type>  (14) 
oracle

>  <origin>  (14) 
adg

>  <m_score__min__energy>  (14) 
-21.640000000000001

>  <m_primary>  (14) 
energy

$$$$
14:0
     RDKit          3D

 65 69  0  0  0  0  0  0  0  0999 V2000
   65.3324   31.9750   48.8582 H   0  0  0  0  0  0  0  0  0  0  0  0
   64.4200   32.5610   49.0430 C   0  0  0  0  0  0  0  0  0  0  0  0
   64.4660   33.5700   49.7930 O   0  0  0  0  0  0  0  0  0  0  0  0
   63.1560   32.1610   48.4130 C   0  0  0  0  0  0  0  0  0  0  0  0
   62.3830   31.1710   48.9370 N   0  0  0  0  0  0  0  0  0  0  0  0
   61.3070   30.9100   48.1660 C   0  0  0  0  0  0  0  0  0  0  0  0
   60.4430   29.9640   48.3920 N   0  0  0  0  0  0  0  0  0  0  0  0
   59.9120   28.9830   47.4820 C   0  0  0  0  0  0  0  0  0  0  0  0
   60.2920   27.7890   47.6100 O   0  0  0  0  0  0  0  0  0  0  0  0
   59.0530   29.3170   46.3280 C   0  0  0  0  0  0  0  0  0  0  0  0
   58.9970   28.4930   45.1990 C   0  0  0  0  0  0  0  0  0  0  0  0
   59.5908   27.5676   45.1663 H   0  0  0  0  0  0  0  0  0  0  0  0
   58.1910   28.8400   44.1140 C   0  0  0  0  0  0  0  0  0  0  0  0
   58.1129   28.1580   43.2545 H   0  0  0  0  0  0  0  0  0  0  0  0
   57.4780   30.0510   44.1070 C   0  0  0  0  0  0  0  0  0  0  0  0
   56.6430   30.3890   42.9000 C   0  0  0  0  0  0  0  0  0  0  0  0
   55.6693   30.7831   43.2265 H   0  0  0  0  0  0  0  0  0  0  0  0
   57.1619   31.1479   42.2960 H   0  0  0  0  0  0  0  0  0  0  0  0
   56.4879   29.4828   42.2960 H   0  0  0  0  0  0  0  0  0  0  0  0
   57.6180   30.9440   45.2010 C   0  0  0  0  0  0  0  0  0  0  0  0
   57.0370   32.3450   45.1960 C   0  0  0  0  0  0  0  0  0  0  0  0
   56.7726   32.6185   44.1639 H   0  0  0  0  0  0  0  0  0  0  0  0
   56.1476   32.3519   45.8433 H   0  0  0  0  0  0  0  0  0  0  0  0
   58.0200   33.3530   45.7330 C   0  0  0  0  0  0  0  0  0  0  0  0
   58.7610   34.1650   44.8570 C   0  0  0  0  0  0  0  0  0  0  0  0
   58.6449   34.0470   43.7695 H   0  0  0  0  0  0  0  0  0  0  0  0
   59.6440   35.1210   45.3630 C   0  0  0  0  0  0  0  0  0  0  0  0
   60.2129   35.7618   44.6732 H   0  0  0  0  0  0  0  0  0  0  0  0
   59.8070   35.2660   46.7440 C   0  0  0  0  0  0  0  0  0  0  0  0
   60.4863   36.0359   47.1386 H   0  0  0  0  0  0  0  0  0  0  0  0
   59.1080   34.4340   47.6250 C   0  0  0  0  0  0  0  0  0  0  0  0
   59.2890   34.5950   49.0350 N   0  0  0  0  0  0  0  0  0  0  0  0
   60.4410   34.1670   49.7760 C   0  0  0  0  0  0  0  0  0  0  0  0
   61.5820   34.4050   49.3000 O   0  0  0  0  0  0  0  0  0  0  0  0
   60.3030   33.2880   51.0120 C   0  0  1  0  0  0  0  0  0  0  0  0
   61.3010   33.2644   51.4739 H   0  0  0  0  0  0  0  0  0  0  0  0
   59.2960   33.8920   52.0360 C   0  0  0  0  0  0  0  0  0  0  0  0
   59.8441   34.2764   52.9088 H   0  0  0  0  0  0  0  0  0  0  0  0
   58.7392   34.7162   51.5663 H   0  0  0  0  0  0  0  0  0  0  0  0
   58.3150   32.7930   52.4860 C   0  0  1  0  0  0  0  0  0  0  0  0
   57.6281   33.1748   53.2557 H   0  0  0  0  0  0  0  0  0  0  0  0
   57.5400   32.3150   51.2440 C   0  0  0  0  0  0  0  0  0  0  0  0
   56.9893   33.1606   50.8063 H   0  0  0  0  0  0  0  0  0  0  0  0
   56.8282   31.5279   51.5335 H   0  0  0  0  0  0  0  0  0  0  0  0
   58.5400   31.7540   50.2030 C   0  0  0  0  0  0  0  0  0  0  0  0
   58.4369   32.3188   49.2647 H   0  0  0  0  0  0  0  0  0  0  0  0
   58.3148   30.6898   50.0395 H   0  0  0  0  0  0  0  0  0  0  0  0
   59.9400   31.8720   50.6900 N   0  0  2  0  0  0  0  0  0  0  0  0
   60.5860   31.4840   49.9660 H   0  0  0  0  0  0  0  0  0  0  0  0
   60.0730   31.0620   51.9280 C   0  0  0  0  0  0  0  0  0  0  0  0
   61.1133   31.1105   52.2822 H   0  0  0  0  0  0  0  0  0  0  0  0
   59.7967   30.0212   51.7033 H   0  0  0  0  0  0  0  0  0  0  0  0
   59.1290   31.6040   53.0380 C   0  0  0  0  0  0  0  0  0  0  0  0
   59.7281   31.9377   53.8981 H   0  0  0  0  0  0  0  0  0  0  0  0
   58.4422   30.8061   53.3568 H   0  0  0  0  0  0  0  0  0  0  0  0
   58.2000   33.4940   47.1160 C   0  0  0  0  0  0  0  0  0  0  0  0
   57.6241   32.8620   47.8080 H   0  0  0  0  0  0  0  0  0  0  0  0
   58.3920   30.5520   46.3070 C   0  0  0  0  0  0  0  0  0  0  0  0
   58.4802   31.2268   47.1712 H   0  0  0  0  0  0  0  0  0  0  0  0
   61.2550   31.8960   46.8070 S   0  0  0  0  0  0  0  0  0  0  0  0
   62.6690   32.7100   47.2250 C   0  0  0  0  0  0  0  0  0  0  0  0
   63.3070   33.7880   46.4080 C   0  0  0  0  0  0  0  0  0  0  0  0
   63.7520   34.5399   47.0764 H   0  0  0  0  0  0  0  0  0  0  0  0
   64.0921   33.3511   45.7734 H   0  0  0  0  0  0  0  0  0  0  0  0
   62.5462   34.2660   45.7734 H   0  0  0  0  0  0  0  0  0  0  0  0
  1  2  1  0
  2  3  2  0
  2  4  1  0
  4  5  1  0
  5  6  1  0
  6  7  2  0
  7  8  1  0
  8  9  2  0
  8 10  1  0
 10 11  2  0
 11 12  1  0
 11 13  1  0
 13 14  1  0
 13 15  2  0
 15 16  1  0
 16 17  1  0
 16 18  1  0
 16 19  1  0
 15 20  1  0
 20 21  1  0
 21 22  1  0
 21 23  1  0
 21 24  1  0
 24 25  2  0
 25 26  1  0
 25 27  1  0
 27 28  1  0
 27 29  2  0
 29 30  1  0
 29 31  1  0
 31 32  1  0
 32 33  1  0
 33 34  2  0
 33 35  1  0
 35 36  1  1
 35 37  1  0
 37 38  1  0
 37 39  1  0
 37 40  1  0
 40 41  1  6
 40 42  1  0
 42 43  1  0
 42 44  1  0
 42 45  1  0
 45 46  1  0
 45 47  1  0
 45 48  1  0
 48 49  1  1
 48 50  1  0
 50 51  1  0
 50 52  1  0
 50 53  1  0
 53 54  1  0
 53 55  1  0
 31 56  2  0
 56 57  1  0
 20 58  2  0
 58 59  1  0
  6 60  1  0
 60 61  1  0
 61 62  1  0
 62 63  1  0
 62 64  1  0
 62 65  1  0
 61  4  2  0
 58 10  1  0
 56 24  1  0
 48 35  1  0
 53 40  1  0
M  CHG  3   5  -1  32  -1  48   1
M  END
>  <UniqueID>  (15) 
15

>  <SMILES>  (15) 
Cc1ccc(C(=O)/N=c2\[n-]c(C=O)c(C)s2)cc1Cc1cccc([N-]C(=O)[C@H]2CC3CC[NH+]2CC3)c1

>  <Energy>  (15) 
127.51358953980044

>  <Genealogy>  (15) 
Cc1ccc(C(=O)N=c2[n-]c(C=O)c(C)s2)cc1Cc1cccc([N-]C(=O)C2CC3CC[NH+]2CC3)c1 (protonated)
Cc1ccc(C(=O)N=c2[n-]c(C=O)c(C)s2)cc1Cc1cccc([N-]C(=O)[C@H]2CC3CC[NH+]2CC3)c1 (chirality)
Cc1ccc(C(=O)/N=c2\[n-]c(C=O)c(C)s2)cc1Cc1cccc([N-]C(=O)[C@H]2CC3CC[NH+]2CC3)c1 (cis-trans isomerization)
Cc1ccc(C(=O)/N=c2\[n-]c(C=O)c(C)s2)cc1Cc1cccc([N-]C(=O)[C@H]2CC3CC[NH+]2CC3)c1 (3D coordinates assigned)
Cc1ccc(C(=O)/N=c2\[n-]c(C=O)c(C)s2)cc1Cc1cccc([N-]C(=O)[C@H]2CC3CC[NH+]2CC3)c1 (nonaromatic ring conformer: 127.51358953980044 kcal/mol)

>  <smiles>  (15) 
Cc1ccc(C(=O)N=c2[nH]c(C=O)c(C)s2)cc1Cc1cccc(NC(=O)C2CC3CCN2CC3)c1

>  <score_type>  (15) 
oracle

>  <origin>  (15) 
adg

>  <m_score__min__energy>  (15) 
-12.85

>  <m_primary>  (15) 
energy

$$$$
15:0
     RDKit          3D

 80 85  0  0  1  0  0  0  0  0999 V2000
   56.2700   34.9760   44.8390 N   0  0  0  0  0  0  0  0  0  0  0  0
   57.0490   34.1180   44.9520 C   0  0  0  0  0  0  0  0  0  0  0  0
   58.0000   33.0430   45.0760 C   0  0  0  0  0  0  0  0  0  0  0  0
   57.9580   32.0350   44.2280 C   0  0  0  0  0  0  0  0  0  0  0  0
   58.0820   30.6350   44.5920 C   0  0  0  0  0  0  0  0  0  0  0  0
   59.2570   30.0140   44.9380 C   0  0  0  0  0  0  0  0  0  0  0  0
   59.2550   28.6650   45.2810 C   0  0  0  0  0  0  0  0  0  0  0  0
   58.1160   27.8960   45.2930 C   0  0  0  0  0  0  0  0  0  0  0  0
   58.0960   26.5140   45.6300 N   0  0  0  0  0  0  0  0  0  0  0  0
   59.1750   25.9080   46.3860 C   0  0  0  0  0  0  0  0  0  0  0  0
   59.4990   24.4990   45.9770 C   0  0  0  0  0  0  0  0  0  0  0  0
   58.5190   23.8090   45.2320 N   0  0  0  0  0  0  0  0  0  0  0  0
   58.0540   22.5690   45.7270 C   0  0  0  0  0  0  0  0  0  0  0  0
   56.6630   22.6690   46.2080 C   0  0  0  0  0  0  0  0  0  0  0  0
   56.4370   23.0990   47.5180 C   0  0  0  0  0  0  0  0  0  0  0  0
   55.1670   23.2190   48.0410 C   0  0  0  0  0  0  0  0  0  0  0  0
   54.0730   22.9040   47.2480 C   0  0  0  0  0  0  0  0  0  0  0  0
   54.2650   22.4700   45.9300 C   0  0  0  0  0  0  0  0  0  0  0  0
   55.5600   22.3550   45.4170 C   0  0  0  0  0  0  0  0  0  0  0  0
   57.6730   24.5600   44.3820 C   0  0  0  0  0  0  0  0  0  0  0  0
   57.0020   25.6240   45.2570 C   0  0  0  0  0  0  0  0  0  0  0  0
   56.9350   28.5300   44.9430 C   0  0  0  0  0  0  0  0  0  0  0  0
   56.9120   29.8830   44.5960 C   0  0  0  0  0  0  0  0  0  0  0  0
   55.7410   30.4760   44.2560 F   0  0  0  0  0  0  0  0  0  0  0  0
   58.9840   33.1370   46.1600 C   0  0  0  0  0  0  0  0  0  0  0  0
   58.6610   32.8250   47.3620 O   0  0  0  0  0  0  0  0  0  0  0  0
   60.3090   33.5600   45.9680 N   0  0  0  0  0  0  0  0  0  0  0  0
   61.2880   33.6650   46.9960 C   0  0  0  0  0  0  0  0  0  0  0  0
   62.6320   33.7540   46.6520 C   0  0  0  0  0  0  0  0  0  0  0  0
   63.5180   33.8380   47.7060 C   0  0  0  0  0  0  0  0  0  0  0  0
   63.1120   33.8350   49.0250 C   0  0  0  0  0  0  0  0  0  0  0  0
   61.7930   33.7480   49.3750 C   0  0  0  0  0  0  0  0  0  0  0  0
   61.2330   33.7030   50.7260 C   0  0  0  0  0  0  0  0  0  0  0  0
   60.0440   32.8560   50.8320 C   0  0  0  0  0  0  0  0  0  0  0  0
   58.8960   33.3350   51.3150 N   0  0  0  0  0  0  0  0  0  0  0  0
   57.7980   32.6190   51.4690 N   0  0  0  0  0  0  0  0  0  0  0  0
   57.8400   31.3310   51.1190 C   0  0  0  0  0  0  0  0  0  0  0  0
   56.7840   30.6580   51.2730 O   0  0  0  0  0  0  0  0  0  0  0  0
   58.9730   30.7190   50.6070 C   0  0  0  0  0  0  0  0  0  0  0  0
   60.0860   31.5180   50.4680 C   0  0  0  0  0  0  0  0  0  0  0  0
   61.2960   30.8850   49.8760 C   0  0  0  0  0  0  0  0  0  0  0  0
   61.3990   29.4830   50.4270 C   0  0  0  0  0  0  0  0  0  0  0  0
   60.2000   28.6490   50.0900 C   0  0  0  0  0  0  0  0  0  0  0  0
   58.8810   29.3040   50.2570 C   0  0  0  0  0  0  0  0  0  0  0  0
   60.8820   33.6630   48.3120 C   0  0  0  0  0  0  0  0  0  0  0  0
   57.8183   32.2725   43.1631 H   0  0  0  0  0  0  0  0  0  0  0  0
   60.1989   30.5822   44.9441 H   0  0  0  0  0  0  0  0  0  0  0  0
   60.2097   28.1923   45.5553 H   0  0  0  0  0  0  0  0  0  0  0  0
   60.0776   26.5223   46.2516 H   0  0  0  0  0  0  0  0  0  0  0  0
   58.8410   25.8639   47.4331 H   0  0  0  0  0  0  0  0  0  0  0  0
   60.4159   24.5316   45.3701 H   0  0  0  0  0  0  0  0  0  0  0  0
   59.5884   23.9400   46.9202 H   0  0  0  0  0  0  0  0  0  0  0  0
   58.1012   21.8216   44.9213 H   0  0  0  0  0  0  0  0  0  0  0  0
   58.6922   22.2724   46.5724 H   0  0  0  0  0  0  0  0  0  0  0  0
   57.2999   23.3498   48.1524 H   0  0  0  0  0  0  0  0  0  0  0  0
   55.0226   23.5610   49.0765 H   0  0  0  0  0  0  0  0  0  0  0  0
   53.0548   22.9951   47.6542 H   0  0  0  0  0  0  0  0  0  0  0  0
   53.3984   22.2203   45.3002 H   0  0  0  0  0  0  0  0  0  0  0  0
   55.7093   22.0143   44.3818 H   0  0  0  0  0  0  0  0  0  0  0  0
   58.2632   25.0397   43.5873 H   0  0  0  0  0  0  0  0  0  0  0  0
   56.9241   23.9152   43.8989 H   0  0  0  0  0  0  0  0  0  0  0  0
   56.2315   26.1674   44.6904 H   0  0  0  0  0  0  0  0  0  0  0  0
   56.4897   25.1933   46.1299 H   0  0  0  0  0  0  0  0  0  0  0  0
   55.9964   27.9564   44.9382 H   0  0  0  0  0  0  0  0  0  0  0  0
   60.6580   33.8370   45.0030 H   0  0  0  0  0  0  0  0  0  0  0  0
   62.9680   33.7572   45.6046 H   0  0  0  0  0  0  0  0  0  0  0  0
   64.5933   33.9104   47.4859 H   0  0  0  0  0  0  0  0  0  0  0  0
   63.8714   33.9046   49.8177 H   0  0  0  0  0  0  0  0  0  0  0  0
   62.0015   33.3131   51.4097 H   0  0  0  0  0  0  0  0  0  0  0  0
   60.9277   34.7272   50.9864 H   0  0  0  0  0  0  0  0  0  0  0  0
   56.9360   33.0780   51.8570 H   0  0  0  0  0  0  0  0  0  0  0  0
   61.2025   30.8507   48.7805 H   0  0  0  0  0  0  0  0  0  0  0  0
   62.1960   31.4647   50.1290 H   0  0  0  0  0  0  0  0  0  0  0  0
   62.2940   29.0022   50.0053 H   0  0  0  0  0  0  0  0  0  0  0  0
   61.4604   29.5561   51.5228 H   0  0  0  0  0  0  0  0  0  0  0  0
   60.2907   28.3399   49.0382 H   0  0  0  0  0  0  0  0  0  0  0  0
   60.2087   27.8160   50.8084 H   0  0  0  0  0  0  0  0  0  0  0  0
   58.3258   29.2146   49.3116 H   0  0  0  0  0  0  0  0  0  0  0  0
   58.3714   28.7973   51.0898 H   0  0  0  0  0  0  0  0  0  0  0  0
   59.8075   33.5924   48.5369 H   0  0  0  0  0  0  0  0  0  0  0  0
  1  2  3  0
  2  3  1  0
  3  4  2  0
  4  5  1  0
  5  6  2  0
  6  7  1  0
  7  8  2  0
  8  9  1  0
  9 10  1  0
 10 11  1  0
 11 12  1  0
 12 13  1  0
 13 14  1  0
 14 15  2  0
 15 16  1  0
 16 17  2  0
 17 18  1  0
 18 19  2  0
 12 20  1  0
 20 21  1  0
  8 22  1  0
 22 23  2  0
 23 24  1  0
  3 25  1  0
 25 26  2  0
 25 27  1  0
 27 28  1  0
 28 29  2  0
 29 30  1  0
 30 31  2  0
 31 32  1  0
 32 33  1  0
 33 34  1  0
 34 35  2  0
 35 36  1  0
 36 37  1  0
 37 38  2  0
 37 39  1  0
 39 40  2  0
 40 41  1  0
 41 42  1  0
 42 43  1  0
 43 44  1  0
 32 45  2  0
 23  5  1  0
 45 28  1  0
 21  9  1  0
 40 34  1  0
 19 14  1  0
 44 39  1  0
  4 46  1  0
  6 47  1  0
  7 48  1  0
 10 49  1  0
 10 50  1  0
 11 51  1  0
 11 52  1  0
 13 53  1  0
 13 54  1  0
 15 55  1  0
 16 56  1  0
 17 57  1  0
 18 58  1  0
 19 59  1  0
 20 60  1  0
 20 61  1  0
 21 62  1  0
 21 63  1  0
 22 64  1  0
 27 65  1  0
 29 66  1  0
 30 67  1  0
 31 68  1  0
 33 69  1  0
 33 70  1  0
 36 71  1  0
 41 72  1  0
 41 73  1  0
 42 74  1  0
 42 75  1  0
 43 76  1  0
 43 77  1  0
 44 78  1  0
 44 79  1  0
 45 80  1  0
M  END
>  <smiles>  (16) 
N#CC(=Cc1ccc(N2CCN(Cc3ccccc3)CC2)cc1F)C(=O)Nc1cccc(Cc2n[nH]c(=O)c3c2CCCC3)c1

>  <score_type>  (16) 
oracle

>  <origin>  (16) 
adg

>  <m_score__min__energy>  (16) 
-12.09

>  <m_primary>  (16) 
energy

$$$$
16:0
     RDKit          3D

 35 37  0  0  0  0  0  0  0  0999 V2000
   54.4333   29.7123   43.4837 H   0  0  0  0  0  0  0  0  0  0  0  0
   55.3870   29.7570   44.0300 C   0  0  0  0  0  0  0  0  0  0  0  0
   55.7170   28.7660   44.9000 N   0  0  0  0  0  0  0  0  0  0  0  0
   56.8890   28.7810   45.5930 C   0  0  0  0  0  0  0  0  0  0  0  0
   57.2010   27.7620   46.5010 O   0  0  0  0  0  0  0  0  0  0  0  0
   57.1890   26.3940   46.1980 C   0  0  0  0  0  0  0  0  0  0  0  0
   58.4130   25.7240   46.0740 C   0  0  0  0  0  0  0  0  0  0  0  0
   59.3545   26.2746   46.2167 H   0  0  0  0  0  0  0  0  0  0  0  0
   58.4450   24.3600   45.7700 C   0  0  0  0  0  0  0  0  0  0  0  0
   59.6340   23.7160   45.6650 F   0  0  0  0  0  0  0  0  0  0  0  0
   57.2520   23.6580   45.5740 C   0  0  0  0  0  0  0  0  0  0  0  0
   57.2774   22.5827   45.3437 H   0  0  0  0  0  0  0  0  0  0  0  0
   56.0270   24.3240   45.6710 C   0  0  0  0  0  0  0  0  0  0  0  0
   55.0892   23.7728   45.5075 H   0  0  0  0  0  0  0  0  0  0  0  0
   55.9890   25.6880   45.9750 C   0  0  0  0  0  0  0  0  0  0  0  0
   54.7920   26.3270   45.9950 F   0  0  0  0  0  0  0  0  0  0  0  0
   57.7790   29.8450   45.4270 C   0  0  0  0  0  0  0  0  0  0  0  0
   58.7150   29.8739   46.0041 H   0  0  0  0  0  0  0  0  0  0  0  0
   57.4800   30.8750   44.5260 C   0  0  0  0  0  0  0  0  0  0  0  0
   58.3330   31.8530   44.3910 N   0  0  0  0  0  0  0  0  0  0  0  0
   58.2710   33.1470   45.0120 C   0  0  0  0  0  0  0  0  0  0  0  0
   57.6790   34.0780   44.4050 O   0  0  0  0  0  0  0  0  0  0  0  0
   58.8150   33.3870   46.3730 C   0  0  0  0  0  0  0  0  0  0  0  0
   58.3730   32.6100   47.4590 C   0  0  0  0  0  0  0  0  0  0  0  0
   57.6216   31.8229   47.2981 H   0  0  0  0  0  0  0  0  0  0  0  0
   58.8830   32.8320   48.7420 C   0  0  0  0  0  0  0  0  0  0  0  0
   58.5277   32.2237   49.5868 H   0  0  0  0  0  0  0  0  0  0  0  0
   59.8430   33.8250   48.9530 C   0  0  0  0  0  0  0  0  0  0  0  0
   60.2423   33.9995   49.9630 H   0  0  0  0  0  0  0  0  0  0  0  0
   60.2950   34.5960   47.8790 C   0  0  0  0  0  0  0  0  0  0  0  0
   61.0520   35.3767   48.0445 H   0  0  0  0  0  0  0  0  0  0  0  0
   59.7880   34.3780   46.5950 C   0  0  0  0  0  0  0  0  0  0  0  0
   60.1521   34.9851   45.7530 H   0  0  0  0  0  0  0  0  0  0  0  0
   56.2550   30.8310   43.8280 C   0  0  0  0  0  0  0  0  0  0  0  0
   55.9859   31.6372   43.1297 H   0  0  0  0  0  0  0  0  0  0  0  0
  1  2  1  0
  2  3  1  0
  3  4  1  0
  4  5  1  0
  5  6  1  0
  6  7  2  0
  7  8  1  0
  7  9  1  0
  9 10  1  0
  9 11  2  0
 11 12  1  0
 11 13  1  0
 13 14  1  0
 13 15  2  0
 15 16  1  0
  4 17  2  0
 17 18  1  0
 17 19  1  0
 19 20  2  0
 20 21  1  0
 21 22  2  0
 21 23  1  0
 23 24  2  0
 24 25  1  0
 24 26  1  0
 26 27  1  0
 26 28  2  0
 28 29  1  0
 28 30  1  0
 30 31  1  0
 30 32  2  0
 32 33  1  0
 19 34  1  0
 34 35  1  0
 34  2  2  0
 15  6  1  0
 32 23  1  0
M  CHG  1   3  -1
M  END
>  <UniqueID>  (17) 
16

>  <SMILES>  (17) 
O=C(/N=c1\cc[n-]c(Oc2cc(F)ccc2F)c1)c1ccccc1

>  <Energy>  (17) 
55.57713289465426

>  <Genealogy>  (17) 
O=C(N=c1cc[n-]c(Oc2cc(F)ccc2F)c1)c1ccccc1 (protonated)
O=C(/N=c1\cc[n-]c(Oc2cc(F)ccc2F)c1)c1ccccc1 (cis-trans isomerization)
O=C(/N=c1\cc[n-]c(Oc2cc(F)ccc2F)c1)c1ccccc1 (3D coordinates assigned)
O=C(/N=c1\cc[n-]c(Oc2cc(F)ccc2F)c1)c1ccccc1 (optimized conformer: 55.57713289465426 kcal/mol)

>  <smiles>  (17) 
O=C(N=c1cc[nH]c(Oc2cc(F)ccc2F)c1)c1ccccc1

>  <score_type>  (17) 
oracle

>  <origin>  (17) 
adg

>  <m_score__min__energy>  (17) 
-9.3499999999999996

>  <m_primary>  (17) 
energy

$$$$
17:0
     RDKit          3D

 33 35  0  0  0  0  0  0  0  0999 V2000
   58.4790   31.4080   44.2060 C   0  0  0  0  0  0  0  0  0  0  0  0
   58.4260   30.8730   45.4380 C   0  0  0  0  0  0  0  0  0  0  0  0
   57.7280   29.5820   45.6430 C   0  0  0  0  0  0  0  0  0  0  0  0
   58.3570   28.5370   46.3600 C   0  0  0  0  0  0  0  0  0  0  0  0
   57.7340   27.3340   46.4620 N   0  0  0  0  0  0  0  0  0  0  0  0
   56.5150   27.1120   45.9100 C   0  0  0  0  0  0  0  0  0  0  0  0
   55.9720   25.9820   46.0190 O   0  0  0  0  0  0  0  0  0  0  0  0
   55.8760   28.1100   45.2530 N   0  0  0  0  0  0  0  0  0  0  0  0
   56.4430   29.3340   45.1120 C   0  0  0  0  0  0  0  0  0  0  0  0
   55.8000   30.2420   44.5230 O   0  0  0  0  0  0  0  0  0  0  0  0
   59.9390   28.7140   47.2330 S   0  0  0  0  0  0  0  0  0  0  0  0
   60.4960   30.3480   46.6240 C   0  0  0  0  0  0  0  0  0  0  0  0
   59.3280   31.3320   46.5640 C   0  0  1  0  0  0  0  0  0  0  0  0
   59.8220   32.7980   46.4950 C   0  0  0  0  0  0  0  0  0  0  0  0
   61.1690   32.9880   47.1540 C   0  0  0  0  0  0  0  0  0  0  0  0
   61.3340   32.7480   48.5290 C   0  0  0  0  0  0  0  0  0  0  0  0
   62.5810   32.9260   49.1340 C   0  0  0  0  0  0  0  0  0  0  0  0
   63.6760   33.3590   48.3750 C   0  0  0  0  0  0  0  0  0  0  0  0
   64.9240   33.5380   48.9670 O   0  0  0  0  0  0  0  0  0  0  0  0
   63.5150   33.6170   47.0100 C   0  0  0  0  0  0  0  0  0  0  0  0
   62.2690   33.4390   46.4030 C   0  0  0  0  0  0  0  0  0  0  0  0
   58.9949   32.3659   44.0441 H   0  0  0  0  0  0  0  0  0  0  0  0
   58.0065   30.8879   43.3597 H   0  0  0  0  0  0  0  0  0  0  0  0
   61.2656   30.7429   47.3035 H   0  0  0  0  0  0  0  0  0  0  0  0
   60.9061   30.2255   45.6107 H   0  0  0  0  0  0  0  0  0  0  0  0
   58.7280   31.3323   47.4860 H   0  0  0  0  0  0  0  0  0  0  0  0
   59.9016   33.0938   45.4385 H   0  0  0  0  0  0  0  0  0  0  0  0
   59.0948   33.4209   47.0365 H   0  0  0  0  0  0  0  0  0  0  0  0
   60.4759   32.4179   49.1329 H   0  0  0  0  0  0  0  0  0  0  0  0
   62.7031   32.7257   50.2087 H   0  0  0  0  0  0  0  0  0  0  0  0
   65.7530   33.0810   48.6050 H   0  0  0  0  0  0  0  0  0  0  0  0
   64.3719   33.9611   46.4123 H   0  0  0  0  0  0  0  0  0  0  0  0
   62.1479   33.6530   45.3308 H   0  0  0  0  0  0  0  0  0  0  0  0
  1  2  2  0
  2  3  1  0
  3  4  2  0
  4  5  1  0
  5  6  1  0
  6  7  2  0
  6  8  1  0
  8  9  1  0
  9 10  2  0
  4 11  1  0
 11 12  1  0
 12 13  1  0
 13 14  1  0
 14 15  1  0
 15 16  2  0
 16 17  1  0
 17 18  2  0
 18 19  1  0
 18 20  1  0
 20 21  2  0
 13  2  1  0
 21 15  1  0
  9  3  1  0
  1 22  1  0
  1 23  1  0
 12 24  1  0
 12 25  1  0
 13 26  1  1
 14 27  1  0
 14 28  1  0
 16 29  1  0
 17 30  1  0
 19 31  1  0
 20 32  1  0
 21 33  1  0
M  CHG  2   5  -1   8  -1
M  END
>  <UniqueID>  (18) 
17

>  <SMILES>  (18) 
C=C1c2c([n-]c(=O)[n-]c2=O)SC[C@H]1Cc1ccc(O)cc1

>  <Energy>  (18) 
55.00345144296797

>  <Genealogy>  (18) 
C=C1c2c([n-]c(=O)[n-]c2=O)SCC1Cc1ccc(O)cc1 (protonated)
C=C1c2c([n-]c(=O)[n-]c2=O)SC[C@H]1Cc1ccc(O)cc1 (chirality)
C=C1c2c([n-]c(=O)[n-]c2=O)SC[C@H]1Cc1ccc(O)cc1 (3D coordinates assigned)
C=C1c2c([n-]c(=O)[n-]c2=O)SC[C@H]1Cc1ccc(O)cc1 (nonaromatic ring conformer: 55.00345144296797 kcal/mol)

>  <smiles>  (18) 
C=C1c2c([nH]c(=O)[nH]c2=O)SCC1Cc1ccc(O)cc1

>  <score_type>  (18) 
oracle

>  <origin>  (18) 
adg

>  <m_score__min__energy>  (18) 
-11.02

>  <m_primary>  (18) 
energy

$$$$
18:0
     RDKit          3D

 43 46  0  0  0  0  0  0  0  0999 V2000
   53.0070   24.9830   45.9220 H   0  0  0  0  0  0  0  0  0  0  0  0
   53.9190   24.4730   45.9650 N   0  0  0  0  0  0  0  0  0  0  0  0
   55.0430   25.0990   45.8380 C   0  0  0  0  0  0  0  0  0  0  0  0
   56.1930   24.4670   45.5330 N   0  0  0  0  0  0  0  0  0  0  0  0
   57.0980   25.4600   45.4980 C   0  0  0  0  0  0  0  0  0  0  0  0
   58.1685   25.3377   45.2767 H   0  0  0  0  0  0  0  0  0  0  0  0
   56.4720   26.6600   45.7840 C   0  0  0  0  0  0  0  0  0  0  0  0
   57.0940   28.0050   45.8520 C   0  0  0  0  0  0  0  0  0  0  0  0
   56.8410   28.9810   44.8680 C   0  0  0  0  0  0  0  0  0  0  0  0
   56.1692   28.7488   44.0285 H   0  0  0  0  0  0  0  0  0  0  0  0
   57.4380   30.2430   44.9510 C   0  0  0  0  0  0  0  0  0  0  0  0
   57.2320   30.9977   44.1777 H   0  0  0  0  0  0  0  0  0  0  0  0
   58.2970   30.5510   46.0140 C   0  0  0  0  0  0  0  0  0  0  0  0
   58.9000   31.8530   46.1040 N   0  0  0  0  0  0  0  0  0  0  0  0
   58.2980   33.0260   45.7980 C   0  0  0  0  0  0  0  0  0  0  0  0
   56.8990   33.1620   45.2770 C   0  0  0  0  0  0  0  0  0  0  0  0
   56.1981   33.2301   46.1220 H   0  0  0  0  0  0  0  0  0  0  0  0
   56.8231   34.0718   44.6633 H   0  0  0  0  0  0  0  0  0  0  0  0
   56.6493   32.2839   44.6633 H   0  0  0  0  0  0  0  0  0  0  0  0
   59.1650   34.0810   46.0000 C   0  0  0  0  0  0  0  0  0  0  0  0
   58.9564   35.1466   45.8239 H   0  0  0  0  0  0  0  0  0  0  0  0
   60.3520   33.5340   46.4690 C   0  0  0  0  0  0  0  0  0  0  0  0
   61.4730   34.2170   46.7740 C   0  0  0  0  0  0  0  0  0  0  0  0
   61.7730   35.0494   46.1205 H   0  0  0  0  0  0  0  0  0  0  0  0
   62.3200   33.9010   47.9460 C   0  0  0  0  0  0  0  0  0  0  0  0
   63.5920   33.3170   47.7840 C   0  0  0  0  0  0  0  0  0  0  0  0
   64.1260   33.0560   46.5210 O   0  0  0  0  0  0  0  0  0  0  0  0
   64.8220   32.3400   46.3550 H   0  0  0  0  0  0  0  0  0  0  0  0
   64.3340   33.0070   48.8780 N   0  0  0  0  0  0  0  0  0  0  0  0
   63.8730   33.2400   50.1330 C   0  0  0  0  0  0  0  0  0  0  0  0
   64.5850   32.9460   51.1280 O   0  0  0  0  0  0  0  0  0  0  0  0
   62.6450   33.7860   50.3160 N   0  0  0  0  0  0  0  0  0  0  0  0
   61.8580   34.1130   49.2590 C   0  0  0  0  0  0  0  0  0  0  0  0
   60.7120   34.5910   49.4690 O   0  0  0  0  0  0  0  0  0  0  0  0
   60.1590   32.1500   46.5150 C   0  0  0  0  0  0  0  0  0  0  0  0
   61.0680   31.2310   46.8770 C   0  0  0  0  0  0  0  0  0  0  0  0
   60.8019   30.1637   46.8750 H   0  0  0  0  0  0  0  0  0  0  0  0
   62.0790   31.5452   47.1756 H   0  0  0  0  0  0  0  0  0  0  0  0
   58.5510   29.5870   46.9970 C   0  0  0  0  0  0  0  0  0  0  0  0
   59.2218   29.8240   47.8360 H   0  0  0  0  0  0  0  0  0  0  0  0
   57.9560   28.3250   46.9170 C   0  0  0  0  0  0  0  0  0  0  0  0
   58.1636   27.5747   47.6941 H   0  0  0  0  0  0  0  0  0  0  0  0
   55.1610   26.4320   46.0000 N   0  0  0  0  0  0  0  0  0  0  0  0
  1  2  1  0
  2  3  2  3
  3  4  1  0
  4  5  1  0
  5  6  1  0
  5  7  2  0
  7  8  1  0
  8  9  2  0
  9 10  1  0
  9 11  1  0
 11 12  1  0
 11 13  2  0
 13 14  1  0
 14 15  1  0
 15 16  1  0
 16 17  1  0
 16 18  1  0
 16 19  1  0
 15 20  2  0
 20 21  1  0
 20 22  1  0
 22 23  2  0
 23 24  1  0
 23 25  1  0
 25 26  2  0
 26 27  1  0
 27 28  1  0
 26 29  1  0
 29 30  1  0
 30 31  2  0
 30 32  1  0
 32 33  1  0
 33 34  2  0
 22 35  1  0
 35 36  2  0
 36 37  1  0
 36 38  1  0
 13 39  1  0
 39 40  1  0
 39 41  2  0
 41 42  1  0
  7 43  1  0
 43  3  1  0
 41  8  1  0
 35 14  1  0
 33 25  1  0
M  CHG  4   4  -1  29  -1  32  -1  43  -1
M  END
>  <UniqueID>  (19) 
18

>  <SMILES>  (19) 
C=c1/c(=C/c2c(O)[n-]c(=O)[n-]c2=O)cc(C)n1-c1ccc(-c2c[n-]c(=N)[n-]2)cc1

>  <Energy>  (19) 
122.18712461139883

>  <Genealogy>  (19) 
C=c1c(=Cc2c(O)[n-]c(=O)[n-]c2=O)cc(C)n1-c1ccc(-c2c[n-]c(=N)[n-]2)cc1 (protonated)
C=c1/c(=C/c2c(O)[n-]c(=O)[n-]c2=O)cc(C)n1-c1ccc(-c2c[n-]c(=N)[n-]2)cc1 (cis-trans isomerization)
C=c1/c(=C/c2c(O)[n-]c(=O)[n-]c2=O)cc(C)n1-c1ccc(-c2c[n-]c(=N)[n-]2)cc1 (3D coordinates assigned)
C=c1/c(=C/c2c(O)[n-]c(=O)[n-]c2=O)cc(C)n1-c1ccc(-c2c[n-]c(=N)[n-]2)cc1 (optimized conformer: 122.18712461139883 kcal/mol)

>  <smiles>  (19) 
C=c1c(=Cc2c(O)[nH]c(=O)[nH]c2=O)cc(C)n1-c1ccc(-c2c[nH]c(=N)[nH]2)cc1

>  <score_type>  (19) 
oracle

>  <origin>  (19) 
adg

>  <m_score__min__energy>  (19) 
-13.41

>  <m_primary>  (19) 
energy

$$$$
19:0
     RDKit          3D

 36 37  0  0  0  0  0  0  0  0999 V2000
   55.8269   31.5151   44.7745 H   0  0  0  0  0  0  0  0  0  0  0  0
   56.8850   31.2890   44.5760 C   0  0  0  0  0  0  0  0  0  0  0  0
   57.6250   32.2530   43.9950 C   0  0  0  0  0  0  0  0  0  0  0  0
   57.7660   32.2260   42.5590 C   0  0  0  0  0  0  0  0  0  0  0  0
   57.8780   32.2030   41.4080 N   0  0  0  0  0  0  0  0  0  0  0  0
   58.3450   33.3140   44.7390 C   0  0  0  0  0  0  0  0  0  0  0  0
   59.0570   34.1410   44.1070 O   0  0  0  0  0  0  0  0  0  0  0  0
   58.2820   33.3820   46.1670 N   0  0  0  0  0  0  0  0  0  0  0  0
   59.2860   34.0670   46.9730 C   0  0  0  0  0  0  0  0  0  0  0  0
   59.8716   34.7396   46.3291 H   0  0  0  0  0  0  0  0  0  0  0  0
   58.7802   34.6458   47.7599 H   0  0  0  0  0  0  0  0  0  0  0  0
   60.2230   33.0510   47.6260 C   0  0  0  0  0  0  0  0  0  0  0  0
   60.6757   32.4261   46.8421 H   0  0  0  0  0  0  0  0  0  0  0  0
   60.9967   33.6008   48.1820 H   0  0  0  0  0  0  0  0  0  0  0  0
   59.4830   32.1640   48.5940 C   0  0  0  0  0  0  0  0  0  0  0  0
   58.8680   32.7130   49.7310 C   0  0  0  0  0  0  0  0  0  0  0  0
   58.9015   33.7992   49.9012 H   0  0  0  0  0  0  0  0  0  0  0  0
   58.2130   31.8840   50.6480 C   0  0  0  0  0  0  0  0  0  0  0  0
   57.7277   32.3196   51.5338 H   0  0  0  0  0  0  0  0  0  0  0  0
   58.1750   30.5020   50.4390 C   0  0  0  0  0  0  0  0  0  0  0  0
   57.5240   29.6800   51.3520 O   0  0  0  0  0  0  0  0  0  0  0  0
   58.7910   29.9470   49.3130 C   0  0  0  0  0  0  0  0  0  0  0  0
   58.7612   28.8597   49.1493 H   0  0  0  0  0  0  0  0  0  0  0  0
   59.4450   30.7750   48.3950 C   0  0  0  0  0  0  0  0  0  0  0  0
   59.9323   30.3354   47.5122 H   0  0  0  0  0  0  0  0  0  0  0  0
   57.3790   29.9510   44.9690 C   0  0  0  0  0  0  0  0  0  0  0  0
   58.7610   29.7590   45.1220 C   0  0  0  0  0  0  0  0  0  0  0  0
   59.4502   30.6038   44.9759 H   0  0  0  0  0  0  0  0  0  0  0  0
   59.2660   28.5000   45.4590 C   0  0  0  0  0  0  0  0  0  0  0  0
   60.3495   28.3585   45.5858 H   0  0  0  0  0  0  0  0  0  0  0  0
   58.3960   27.4210   45.6350 C   0  0  0  0  0  0  0  0  0  0  0  0
   58.7933   26.4348   45.9171 H   0  0  0  0  0  0  0  0  0  0  0  0
   57.0230   27.5940   45.4530 C   0  0  0  0  0  0  0  0  0  0  0  0
   56.3409   26.7413   45.5860 H   0  0  0  0  0  0  0  0  0  0  0  0
   56.5110   28.8480   45.1020 C   0  0  0  0  0  0  0  0  0  0  0  0
   55.1450   28.9850   44.8750 O   0  0  0  0  0  0  0  0  0  0  0  0
  1  2  1  0
  2  3  2  0
  3  4  1  0
  4  5  3  0
  3  6  1  0
  6  7  2  0
  6  8  1  0
  8  9  1  0
  9 10  1  0
  9 11  1  0
  9 12  1  0
 12 13  1  0
 12 14  1  0
 12 15  1  0
 15 16  2  0
 16 17  1  0
 16 18  1  0
 18 19  1  0
 18 20  2  0
 20 21  1  0
 20 22  1  0
 22 23  1  0
 22 24  2  0
 24 25  1  0
  2 26  1  0
 26 27  2  0
 27 28  1  0
 27 29  1  0
 29 30  1  0
 29 31  2  0
 31 32  1  0
 31 33  1  0
 33 34  1  0
 33 35  2  0
 35 36  1  0
 24 15  1  0
 35 26  1  0
M  CHG  3   8  -1  21  -1  36  -1
M  END
>  <UniqueID>  (20) 
19

>  <SMILES>  (20) 
N#C/C(=C/c1ccccc1[O-])C(=O)[N-]CCc1ccc([O-])cc1

>  <Energy>  (20) 
38.23868248153878

>  <Genealogy>  (20) 
N#CC(=Cc1ccccc1[O-])C(=O)[N-]CCc1ccc([O-])cc1 (protonated)
N#C/C(=C/c1ccccc1[O-])C(=O)[N-]CCc1ccc([O-])cc1 (cis-trans isomerization)
N#C/C(=C/c1ccccc1[O-])C(=O)[N-]CCc1ccc([O-])cc1 (3D coordinates assigned)
N#C/C(=C/c1ccccc1[O-])C(=O)[N-]CCc1ccc([O-])cc1 (optimized conformer: 38.23868248153878 kcal/mol)

>  <smiles>  (20) 
N#CC(=Cc1ccccc1O)C(=O)NCCc1ccc(O)cc1

>  <score_type>  (20) 
oracle

>  <origin>  (20) 
adg

>  <m_score__min__energy>  (20) 
-13.880000000000001

>  <m_primary>  (20) 
energy

$$$$
20:0
     RDKit          3D

 43 45  0  0  0  0  0  0  0  0999 V2000
   64.1220   33.0190   48.4090 C   0  0  0  0  0  0  0  0  0  0  0  0
   62.8010   32.7960   47.7350 C   0  0  0  0  0  0  0  0  0  0  0  0
   62.2040   31.5250   47.7490 C   0  0  0  0  0  0  0  0  0  0  0  0
   60.9900   31.3080   47.0900 C   0  0  0  0  0  0  0  0  0  0  0  0
   60.3680   32.3540   46.3950 C   0  0  0  0  0  0  0  0  0  0  0  0
   58.8310   32.0850   45.5800 S   0  0  0  0  0  0  0  0  0  0  0  0
   57.7080   32.2960   46.5570 O   0  0  0  0  0  0  0  0  0  0  0  0
   58.6960   33.0580   44.4420 O   0  0  0  0  0  0  0  0  0  0  0  0
   58.8030   30.4580   44.9810 N   0  0  0  0  0  0  0  0  0  0  0  0
   57.7880   29.4590   45.1870 C   0  0  0  0  0  0  0  0  0  0  0  0
   58.1970   28.2100   45.6660 C   0  0  0  0  0  0  0  0  0  0  0  0
   57.2670   27.1860   45.9090 C   0  0  0  0  0  0  0  0  0  0  0  0
   57.7480   25.8820   46.4280 C   0  0  0  0  0  0  0  0  0  0  0  0
   57.2250   25.4170   47.4780 O   0  0  0  0  0  0  0  0  0  0  0  0
   58.7640   25.0450   45.6950 C   0  0  0  0  0  0  0  0  0  0  0  0
   58.1140   23.9280   44.9130 C   0  0  0  0  0  0  0  0  0  0  0  0
   58.7070   22.6540   44.8570 C   0  0  0  0  0  0  0  0  0  0  0  0
   58.1030   21.6270   44.1240 C   0  0  0  0  0  0  0  0  0  0  0  0
   56.9120   21.8640   43.4340 C   0  0  0  0  0  0  0  0  0  0  0  0
   56.3240   23.1310   43.4680 C   0  0  0  0  0  0  0  0  0  0  0  0
   55.1750   23.3630   42.7880 F   0  0  0  0  0  0  0  0  0  0  0  0
   56.9240   24.1620   44.1990 C   0  0  0  0  0  0  0  0  0  0  0  0
   55.9140   27.4370   45.6240 C   0  0  0  0  0  0  0  0  0  0  0  0
   54.9510   26.4490   45.7780 O   0  0  0  0  0  0  0  0  0  0  0  0
   55.5320   28.6560   45.1620 N   0  0  0  0  0  0  0  0  0  0  0  0
   56.4150   29.6660   44.9420 C   0  0  0  0  0  0  0  0  0  0  0  0
   55.9800   30.7660   44.5190 O   0  0  0  0  0  0  0  0  0  0  0  0
   60.9670   33.6210   46.3720 C   0  0  0  0  0  0  0  0  0  0  0  0
   62.1810   33.8400   47.0300 C   0  0  0  0  0  0  0  0  0  0  0  0
   63.9854   32.9959   49.5002 H   0  0  0  0  0  0  0  0  0  0  0  0
   64.8243   32.2267   48.1106 H   0  0  0  0  0  0  0  0  0  0  0  0
   64.5253   33.9979   48.1106 H   0  0  0  0  0  0  0  0  0  0  0  0
   62.6938   30.6961   48.2810 H   0  0  0  0  0  0  0  0  0  0  0  0
   60.5217   30.3131   47.1172 H   0  0  0  0  0  0  0  0  0  0  0  0
   59.2649   28.0268   45.8555 H   0  0  0  0  0  0  0  0  0  0  0  0
   59.3204   25.6897   44.9988 H   0  0  0  0  0  0  0  0  0  0  0  0
   59.4358   24.5938   46.4401 H   0  0  0  0  0  0  0  0  0  0  0  0
   59.6494   22.4644   45.3917 H   0  0  0  0  0  0  0  0  0  0  0  0
   58.5672   20.6303   44.0910 H   0  0  0  0  0  0  0  0  0  0  0  0
   56.4366   21.0526   42.8634 H   0  0  0  0  0  0  0  0  0  0  0  0
   56.4632   25.1607   44.2158 H   0  0  0  0  0  0  0  0  0  0  0  0
   60.4795   34.4471   45.8336 H   0  0  0  0  0  0  0  0  0  0  0  0
   62.6520   34.8335   46.9952 H   0  0  0  0  0  0  0  0  0  0  0  0
  1  2  1  0
  2  3  2  0
  3  4  1  0
  4  5  2  0
  5  6  1  0
  6  7  2  0
  6  8  2  0
  6  9  1  0
  9 10  1  0
 10 11  2  0
 11 12  1  0
 12 13  1  0
 13 14  2  0
 13 15  1  0
 15 16  1  0
 16 17  2  0
 17 18  1  0
 18 19  2  0
 19 20  1  0
 20 21  1  0
 20 22  2  0
 12 23  2  0
 23 24  1  0
 23 25  1  0
 25 26  1  0
 26 27  2  0
  5 28  1  0
 28 29  2  0
 29  2  1  0
 26 10  1  0
 22 16  1  0
  1 30  1  0
  1 31  1  0
  1 32  1  0
  3 33  1  0
  4 34  1  0
 11 35  1  0
 15 36  1  0
 15 37  1  0
 17 38  1  0
 18 39  1  0
 19 40  1  0
 22 41  1  0
 28 42  1  0
 29 43  1  0
M  CHG  3   9  -1  24  -1  25  -1
M  END
>  <UniqueID>  (21) 
20

>  <SMILES>  (21) 
Cc1ccc(S(=O)(=O)[N-]c2cc(C(=O)Cc3cccc(F)c3)c([O-])[n-]c2=O)cc1

>  <Energy>  (21) 
58.381636600264684

>  <Genealogy>  (21) 
Cc1ccc(S(=O)(=O)[N-]c2cc(C(=O)Cc3cccc(F)c3)c([O-])[n-]c2=O)cc1 (protonated)
Cc1ccc(S(=O)(=O)[N-]c2cc(C(=O)Cc3cccc(F)c3)c([O-])[n-]c2=O)cc1 (3D coordinates assigned)
Cc1ccc(S(=O)(=O)[N-]c2cc(C(=O)Cc3cccc(F)c3)c([O-])[n-]c2=O)cc1 (optimized conformer: 58.381636600264684 kcal/mol)

>  <smiles>  (21) 
Cc1ccc(S(=O)(=O)Nc2cc(C(=O)Cc3cccc(F)c3)c(O)[nH]c2=O)cc1

>  <score_type>  (21) 
oracle

>  <origin>  (21) 
adg

>  <m_score__min__energy>  (21) 
-15.74

>  <m_primary>  (21) 
energy

$$$$
21:0
     RDKit          3D

 81 85  0  0  0  0  0  0  0  0999 V2000
   61.2699   29.6565   47.0326 H   0  0  0  0  0  0  0  0  0  0  0  0
   60.3680   29.7570   46.4110 C   0  0  0  0  0  0  0  0  0  0  0  0
   60.0124   28.9031   45.8156 H   0  0  0  0  0  0  0  0  0  0  0  0
   59.7010   30.9220   46.3790 C   0  0  0  0  0  0  0  0  0  0  0  0
   58.5400   31.2200   45.6450 C   0  0  0  0  0  0  0  0  0  0  0  0
   57.7070   30.4250   44.9450 C   0  0  0  0  0  0  0  0  0  0  0  0
   57.3715   30.7904   43.9632 H   0  0  0  0  0  0  0  0  0  0  0  0
   57.2080   29.1140   45.3780 C   0  0  0  0  0  0  0  0  0  0  0  0
   58.0020   28.1290   45.8340 N   0  0  0  0  0  0  0  0  0  0  0  0
   57.1510   27.0930   45.9950 C   0  0  0  0  0  0  0  0  0  0  0  0
   57.5240   25.9710   46.4290 O   0  0  0  0  0  0  0  0  0  0  0  0
   55.8730   27.3480   45.6440 N   0  0  0  0  0  0  0  0  0  0  0  0
   55.9280   28.6270   45.2430 C   0  0  0  0  0  0  0  0  0  0  0  0
   54.8380   29.3270   44.7420 O   0  0  0  0  0  0  0  0  0  0  0  0
   58.3550   32.5890   45.7500 C   0  0  0  0  0  0  0  0  0  0  0  0
   57.5653   33.1825   45.2661 H   0  0  0  0  0  0  0  0  0  0  0  0
   59.3500   33.0650   46.5770 C   0  0  0  0  0  0  0  0  0  0  0  0
   59.5200   34.5020   46.9680 C   0  0  0  0  0  0  0  0  0  0  0  0
   59.5298   34.5849   48.0648 H   0  0  0  0  0  0  0  0  0  0  0  0
   60.4694   34.8823   46.5631 H   0  0  0  0  0  0  0  0  0  0  0  0
   58.6856   35.0934   46.5631 H   0  0  0  0  0  0  0  0  0  0  0  0
   60.1660   32.0580   46.9610 N   0  0  0  0  0  0  0  0  0  0  0  0
   61.3370   32.1970   47.7830 C   0  0  0  0  0  0  0  0  0  0  0  0
   61.2300   32.6940   49.0890 C   0  0  0  0  0  0  0  0  0  0  0  0
   60.2438   32.9687   49.4915 H   0  0  0  0  0  0  0  0  0  0  0  0
   62.3710   32.8420   49.8820 C   0  0  0  0  0  0  0  0  0  0  0  0
   62.2760   33.2272   50.9079 H   0  0  0  0  0  0  0  0  0  0  0  0
   63.6380   32.5030   49.3800 C   0  0  0  0  0  0  0  0  0  0  0  0
   64.8360   32.6770   50.2360 C   0  0  0  0  0  0  0  0  0  0  0  0
   65.5260   33.7280   50.0980 O   0  0  0  0  0  0  0  0  0  0  0  0
   65.2770   31.6370   51.1530 N   0  0  0  0  0  0  0  0  0  0  0  0
   66.1050   31.1550   50.7340 H   0  0  0  0  0  0  0  0  0  0  0  0
   64.2300   30.5920   51.3490 C   0  0  0  0  0  0  0  0  0  0  0  0
   63.4687   30.7137   50.5644 H   0  0  0  0  0  0  0  0  0  0  0  0
   64.7389   29.6181   51.2980 H   0  0  0  0  0  0  0  0  0  0  0  0
   63.5290   30.6570   52.7180 C   0  0  0  0  0  0  0  0  0  0  0  0
   62.5240   30.2183   52.6317 H   0  0  0  0  0  0  0  0  0  0  0  0
   64.1255   30.0944   53.4513 H   0  0  0  0  0  0  0  0  0  0  0  0
   63.4120   32.0480   53.1670 N   0  0  0  0  0  0  0  0  0  0  0  0
   62.1720   32.5860   53.6610 C   0  0  0  0  0  0  0  0  0  0  0  0
   62.1930   33.4120   54.6140 O   0  0  0  0  0  0  0  0  0  0  0  0
   60.8500   32.1640   53.0740 C   0  0  0  0  0  0  0  0  0  0  0  0
   60.2002   33.0476   52.9902 H   0  0  0  0  0  0  0  0  0  0  0  0
   61.0430   31.7174   52.0874 H   0  0  0  0  0  0  0  0  0  0  0  0
   60.1450   31.1100   53.9430 C   0  0  0  0  0  0  0  0  0  0  0  0
   60.8125   30.8341   54.7726 H   0  0  0  0  0  0  0  0  0  0  0  0
   59.2062   31.5530   54.3068 H   0  0  0  0  0  0  0  0  0  0  0  0
   59.7850   29.8380   53.1570 C   0  0  0  0  0  0  0  0  0  0  0  0
   60.5196   29.0560   53.3994 H   0  0  0  0  0  0  0  0  0  0  0  0
   58.7654   29.5468   53.4495 H   0  0  0  0  0  0  0  0  0  0  0  0
   59.7840   30.0550   51.6370 C   0  0  0  0  0  0  0  0  0  0  0  0
   60.3370   30.9757   51.3995 H   0  0  0  0  0  0  0  0  0  0  0  0
   60.2659   29.1957   51.1478 H   0  0  0  0  0  0  0  0  0  0  0  0
   58.3910   30.1780   51.1470 N   0  0  0  0  0  0  0  0  0  0  0  0
   57.4170   30.4200   52.2410 C   0  0  0  0  0  0  0  0  0  0  0  0
   56.4724   29.9174   51.9860 H   0  0  0  0  0  0  0  0  0  0  0  0
   57.8589   30.0226   53.1667 H   0  0  0  0  0  0  0  0  0  0  0  0
   57.1280   31.9190   52.4760 C   0  0  0  0  0  0  0  0  0  0  0  0
   56.2415   32.2139   51.8953 H   0  0  0  0  0  0  0  0  0  0  0  0
   56.9465   32.0866   53.5479 H   0  0  0  0  0  0  0  0  0  0  0  0
   58.2790   32.7290   52.0510 N   0  0  0  0  0  0  0  0  0  0  0  0
   58.0960   34.1330   52.4420 C   0  0  0  0  0  0  0  0  0  0  0  0
   58.0860   34.2097   53.5393 H   0  0  0  0  0  0  0  0  0  0  0  0
   58.9231   34.7364   52.0398 H   0  0  0  0  0  0  0  0  0  0  0  0
   57.1419   34.5043   52.0398 H   0  0  0  0  0  0  0  0  0  0  0  0
   58.4870   32.6220   50.5910 C   0  0  0  0  0  0  0  0  0  0  0  0
   57.7838   33.2978   50.0823 H   0  0  0  0  0  0  0  0  0  0  0  0
   59.5305   32.8962   50.3770 H   0  0  0  0  0  0  0  0  0  0  0  0
   58.2580   31.1840   50.0740 C   0  0  0  0  0  0  0  0  0  0  0  0
   57.2455   31.1172   49.6492 H   0  0  0  0  0  0  0  0  0  0  0  0
   59.0252   30.9717   49.3149 H   0  0  0  0  0  0  0  0  0  0  0  0
   64.6280   32.8640   53.2420 C   0  0  0  0  0  0  0  0  0  0  0  0
   64.4117   33.8688   52.8501 H   0  0  0  0  0  0  0  0  0  0  0  0
   64.9477   32.9210   54.2930 H   0  0  0  0  0  0  0  0  0  0  0  0
   65.7650   32.2360   52.4170 C   0  0  0  0  0  0  0  0  0  0  0  0
   66.5014   33.0172   52.1772 H   0  0  0  0  0  0  0  0  0  0  0  0
   66.2140   31.4324   53.0192 H   0  0  0  0  0  0  0  0  0  0  0  0
   63.7380   31.9810   48.0770 C   0  0  0  0  0  0  0  0  0  0  0  0
   64.7205   31.6861   47.6799 H   0  0  0  0  0  0  0  0  0  0  0  0
   62.5950   31.8350   47.2840 C   0  0  0  0  0  0  0  0  0  0  0  0
   62.6844   31.4340   46.2636 H   0  0  0  0  0  0  0  0  0  0  0  0
  1  2  1  0
  2  3  1  0
  2  4  2  0
  4  5  1  0
  5  6  2  0
  6  7  1  0
  6  8  1  0
  8  9  1  0
  9 10  1  0
 10 11  2  0
 10 12  1  0
 12 13  1  0
 13 14  1  0
  5 15  1  0
 15 16  1  0
 15 17  2  0
 17 18  1  0
 18 19  1  0
 18 20  1  0
 18 21  1  0
 17 22  1  0
 22 23  1  0
 23 24  2  0
 24 25  1  0
 24 26  1  0
 26 27  1  0
 26 28  2  0
 28 29  1  0
 29 30  2  0
 29 31  1  0
 31 32  1  0
 31 33  1  0
 33 34  1  0
 33 35  1  0
 33 36  1  0
 36 37  1  0
 36 38  1  0
 36 39  1  0
 39 40  1  0
 40 41  2  0
 40 42  1  0
 42 43  1  0
 42 44  1  0
 42 45  1  0
 45 46  1  0
 45 47  1  0
 45 48  1  0
 48 49  1  0
 48 50  1  0
 48 51  1  0
 51 52  1  0
 51 53  1  0
 51 54  1  0
 54 55  1  0
 55 56  1  0
 55 57  1  0
 55 58  1  0
 58 59  1  0
 58 60  1  0
 58 61  1  0
 61 62  1  0
 62 63  1  0
 62 64  1  0
 62 65  1  0
 61 66  1  0
 66 67  1  0
 66 68  1  0
 66 69  1  0
 69 70  1  0
 69 71  1  0
 39 72  1  0
 72 73  1  0
 72 74  1  0
 72 75  1  0
 75 76  1  0
 75 77  1  0
 28 78  1  0
 78 79  1  0
 78 80  2  0
 80 81  1  0
 22  4  1  0
 80 23  1  0
 13  8  2  0
 75 31  1  0
 69 54  1  0
M  CHG  4   9  -1  12  -1  14  -1  31   1
M  END
>  <UniqueID>  (22) 
21

>  <SMILES>  (22) 
C=c1/c(=C\c2[n-]c(=O)[n-]c2[O-])cc(C)n1-c1ccc(C(=O)[NH+]2CCN(C(=O)CCCCN3CCN(C)CC3)CC2)cc1

>  <Energy>  (22) 
181.86914439135933

>  <Genealogy>  (22) 
C=c1c(=Cc2[n-]c(=O)[n-]c2[O-])cc(C)n1-c1ccc(C(=O)[NH+]2CCN(C(=O)CCCCN3CCN(C)CC3)CC2)cc1 (protonated)
C=c1/c(=C\c2[n-]c(=O)[n-]c2[O-])cc(C)n1-c1ccc(C(=O)[NH+]2CCN(C(=O)CCCCN3CCN(C)CC3)CC2)cc1 (cis-trans isomerization)
C=c1/c(=C\c2[n-]c(=O)[n-]c2[O-])cc(C)n1-c1ccc(C(=O)[NH+]2CCN(C(=O)CCCCN3CCN(C)CC3)CC2)cc1 (3D coordinates assigned)
C=c1/c(=C\c2[n-]c(=O)[n-]c2[O-])cc(C)n1-c1ccc(C(=O)[NH+]2CCN(C(=O)CCCCN3CCN(C)CC3)CC2)cc1 (nonaromatic ring conformer: 181.86914439135933 kcal/mol)

>  <smiles>  (22) 
C=c1c(=Cc2[nH]c(=O)[nH]c2O)cc(C)n1-c1ccc(C(=O)N2CCN(C(=O)CCCCN3CCN(C)CC3)CC2)cc1

>  <score_type>  (22) 
oracle

>  <origin>  (22) 
adg

>  <m_score__min__energy>  (22) 
-16.48

>  <m_primary>  (22) 
energy

$$$$
22:0
     RDKit          3D

 99105  0  0  0  0  0  0  0  0999 V2000
   60.8800   26.3990   54.7270 C   0  0  0  0  0  0  0  0  0  0  0  0
   59.8900   27.2950   54.0350 C   0  0  0  0  0  0  0  0  0  0  0  0
   60.3380   28.3350   53.2050 C   0  0  0  0  0  0  0  0  0  0  0  0
   59.4220   29.1790   52.5410 C   0  0  0  0  0  0  0  0  0  0  0  0
   59.8300   30.2280   51.6750 C   0  0  0  0  0  0  0  0  0  0  0  0
   61.3090   30.4610   51.4290 C   0  0  0  0  0  0  0  0  0  0  0  0
   58.8290   31.0350   51.0630 C   0  0  0  0  0  0  0  0  0  0  0  0
   59.1660   32.1920   50.1350 C   0  0  0  0  0  0  0  0  0  0  0  0
   59.1140   31.7610   48.6990 C   0  0  0  0  0  0  0  0  0  0  0  0
   58.3580   32.3660   47.8920 O   0  0  0  0  0  0  0  0  0  0  0  0
   59.9200   30.6640   48.2470 N   0  0  0  0  0  0  0  0  0  0  0  0
   59.9320   30.2200   46.8570 C   0  0  0  0  0  0  0  0  0  0  0  0
   59.4390   28.8010   46.7530 C   0  0  0  0  0  0  0  0  0  0  0  0
   60.2440   27.7320   47.1750 C   0  0  0  0  0  0  0  0  0  0  0  0
   59.7800   26.4160   47.0770 C   0  0  0  0  0  0  0  0  0  0  0  0
   58.5040   26.1510   46.5540 C   0  0  0  0  0  0  0  0  0  0  0  0
   58.0060   24.7620   46.4520 C   0  0  0  0  0  0  0  0  0  0  0  0
   57.6930   24.1450   47.5060 O   0  0  0  0  0  0  0  0  0  0  0  0
   57.8450   24.1150   45.1740 N   0  0  0  0  0  0  0  0  0  0  0  0
   57.9270   22.6570   45.0590 C   0  0  0  0  0  0  0  0  0  0  0  0
   56.5600   22.0720   44.6500 C   0  0  0  0  0  0  0  0  0  0  0  0
   55.7370   22.9910   43.8180 N   0  0  0  0  0  0  0  0  0  0  0  0
   54.6660   23.6530   44.5950 C   0  0  0  0  0  0  0  0  0  0  0  0
   54.4840   22.9620   45.9210 C   0  0  0  0  0  0  0  0  0  0  0  0
   55.0320   23.5250   47.0850 C   0  0  0  0  0  0  0  0  0  0  0  0
   54.8550   22.8960   48.3230 C   0  0  0  0  0  0  0  0  0  0  0  0
   54.1320   21.7040   48.4040 C   0  0  0  0  0  0  0  0  0  0  0  0
   53.5830   21.1390   47.2490 C   0  0  0  0  0  0  0  0  0  0  0  0
   53.7580   21.7630   46.0110 C   0  0  0  0  0  0  0  0  0  0  0  0
   56.5570   23.9670   43.0670 C   0  0  0  0  0  0  0  0  0  0  0  0
   57.3620   24.8740   44.0140 C   0  0  0  0  0  0  0  0  0  0  0  0
   57.6930   27.2230   46.1480 C   0  0  0  0  0  0  0  0  0  0  0  0
   58.1590   28.5380   46.2430 C   0  0  0  0  0  0  0  0  0  0  0  0
   57.4760   30.7520   51.3560 C   0  0  0  0  0  0  0  0  0  0  0  0
   56.5510   31.4460   50.8550 O   0  0  0  0  0  0  0  0  0  0  0  0
   57.1480   29.7510   52.1590 O   0  0  0  0  0  0  0  0  0  0  0  0
   58.0420   28.9690   52.7440 C   0  0  0  0  0  0  0  0  0  0  0  0
   57.5950   27.9300   53.5660 C   0  0  0  0  0  0  0  0  0  0  0  0
   58.5120   27.0810   54.2090 C   0  0  0  0  0  0  0  0  0  0  0  0
   58.0920   26.0130   55.0190 O   0  0  0  0  0  0  0  0  0  0  0  0
   56.9750   25.1730   54.7430 C   0  0  0  0  0  0  0  0  0  0  0  0
   55.7130   25.9700   54.8540 C   0  0  0  0  0  0  0  0  0  0  0  0
   54.5270   25.5110   54.2660 C   0  0  0  0  0  0  0  0  0  0  0  0
   53.3670   26.2810   54.3720 C   0  0  0  0  0  0  0  0  0  0  0  0
   53.3920   27.5030   55.0480 C   0  0  0  0  0  0  0  0  0  0  0  0
   52.2030   28.2460   55.1300 O   0  0  0  0  0  0  0  0  0  0  0  0
   52.1190   29.6340   55.4550 C   0  0  0  0  0  0  0  0  0  0  0  0
   51.8300   30.4530   54.2250 C   0  0  0  0  0  0  0  0  0  0  0  0
   52.5970   30.2690   53.0630 C   0  0  0  0  0  0  0  0  0  0  0  0
   52.3320   31.0250   51.9170 C   0  0  0  0  0  0  0  0  0  0  0  0
   51.2920   31.9610   51.9210 C   0  0  0  0  0  0  0  0  0  0  0  0
   51.0260   32.7080   50.7790 O   0  0  0  0  0  0  0  0  0  0  0  0
   50.5190   32.1420   53.0710 C   0  0  0  0  0  0  0  0  0  0  0  0
   50.7820   31.3880   54.2190 C   0  0  0  0  0  0  0  0  0  0  0  0
   54.6050   27.9310   55.6180 C   0  0  0  0  0  0  0  0  0  0  0  0
   55.7210   27.1640   55.5070 N   0  0  0  0  0  0  0  0  0  0  0  0
   60.7676   26.5008   55.8165 H   0  0  0  0  0  0  0  0  0  0  0  0
   60.6956   25.3545   54.4353 H   0  0  0  0  0  0  0  0  0  0  0  0
   61.9010   26.6864   54.4353 H   0  0  0  0  0  0  0  0  0  0  0  0
   61.4180   28.4943   53.0703 H   0  0  0  0  0  0  0  0  0  0  0  0
   61.8325   30.5435   52.3929 H   0  0  0  0  0  0  0  0  0  0  0  0
   61.7231   29.6170   50.8579 H   0  0  0  0  0  0  0  0  0  0  0  0
   61.4436   31.3914   50.8579 H   0  0  0  0  0  0  0  0  0  0  0  0
   58.4406   33.0036   50.2936 H   0  0  0  0  0  0  0  0  0  0  0  0
   60.1856   32.5374   50.3609 H   0  0  0  0  0  0  0  0  0  0  0  0
   60.5230   30.1600   48.9360 H   0  0  0  0  0  0  0  0  0  0  0  0
   59.2785   30.8749   46.2620 H   0  0  0  0  0  0  0  0  0  0  0  0
   60.9632   30.2674   46.4770 H   0  0  0  0  0  0  0  0  0  0  0  0
   61.2453   27.9299   47.5851 H   0  0  0  0  0  0  0  0  0  0  0  0
   60.4179   25.5845   47.4113 H   0  0  0  0  0  0  0  0  0  0  0  0
   58.6759   22.3951   44.2970 H   0  0  0  0  0  0  0  0  0  0  0  0
   58.2170   22.2380   46.0339 H   0  0  0  0  0  0  0  0  0  0  0  0
   56.7352   21.1493   44.0774 H   0  0  0  0  0  0  0  0  0  0  0  0
   55.9984   21.8918   45.5785 H   0  0  0  0  0  0  0  0  0  0  0  0
   54.9388   24.7046   44.7674 H   0  0  0  0  0  0  0  0  0  0  0  0
   53.7246   23.5979   44.0287 H   0  0  0  0  0  0  0  0  0  0  0  0
   55.6024   24.4636   47.0237 H   0  0  0  0  0  0  0  0  0  0  0  0
   55.2855   23.3408   49.2323 H   0  0  0  0  0  0  0  0  0  0  0  0
   53.9944   21.2094   49.3769 H   0  0  0  0  0  0  0  0  0  0  0  0
   53.0120   20.2011   47.3150 H   0  0  0  0  0  0  0  0  0  0  0  0
   53.3260   21.3140   45.1045 H   0  0  0  0  0  0  0  0  0  0  0  0
   57.2553   23.4210   42.4156 H   0  0  0  0  0  0  0  0  0  0  0  0
   55.8818   24.6007   42.4732 H   0  0  0  0  0  0  0  0  0  0  0  0
   58.2233   25.2896   43.4704 H   0  0  0  0  0  0  0  0  0  0  0  0
   56.7076   25.6838   44.3690 H   0  0  0  0  0  0  0  0  0  0  0  0
   56.6852   27.0272   45.7529 H   0  0  0  0  0  0  0  0  0  0  0  0
   57.5185   29.3704   45.9161 H   0  0  0  0  0  0  0  0  0  0  0  0
   56.5155   27.7757   53.7108 H   0  0  0  0  0  0  0  0  0  0  0  0
   57.0641   24.7671   53.7245 H   0  0  0  0  0  0  0  0  0  0  0  0
   56.9509   24.3448   55.4666 H   0  0  0  0  0  0  0  0  0  0  0  0
   54.5098   24.5529   53.7258 H   0  0  0  0  0  0  0  0  0  0  0  0
   52.4294   25.9237   53.9212 H   0  0  0  0  0  0  0  0  0  0  0  0
   51.3120   29.7851   56.1870 H   0  0  0  0  0  0  0  0  0  0  0  0
   53.0824   29.9571   55.8762 H   0  0  0  0  0  0  0  0  0  0  0  0
   53.4093   29.5273   53.0544 H   0  0  0  0  0  0  0  0  0  0  0  0
   52.9413   30.8839   51.0121 H   0  0  0  0  0  0  0  0  0  0  0  0
   49.7023   32.8788   53.0732 H   0  0  0  0  0  0  0  0  0  0  0  0
   50.1664   31.5276   55.1198 H   0  0  0  0  0  0  0  0  0  0  0  0
   54.6500   28.8898   56.1553 H   0  0  0  0  0  0  0  0  0  0  0  0
  1  2  1  0
  2  3  2  0
  3  4  1  0
  4  5  1  0
  5  6  1  0
  5  7  2  0
  7  8  1  0
  8  9  1  0
  9 10  2  0
  9 11  1  0
 11 12  1  0
 12 13  1  0
 13 14  2  0
 14 15  1  0
 15 16  2  0
 16 17  1  0
 17 18  2  0
 17 19  1  0
 19 20  1  0
 20 21  1  0
 21 22  1  0
 22 23  1  0
 23 24  1  0
 24 25  2  0
 25 26  1  0
 26 27  2  0
 27 28  1  0
 28 29  2  0
 22 30  1  0
 30 31  1  0
 16 32  1  0
 32 33  2  0
  7 34  1  0
 34 35  2  0
 34 36  1  0
 36 37  1  0
 37 38  1  0
 38 39  2  0
 39 40  1  0
 40 41  1  0
 41 42  1  0
 42 43  2  0
 43 44  1  0
 44 45  2  0
 45 46  1  0
 46 47  1  0
 47 48  1  0
 48 49  2  0
 49 50  1  0
 50 51  2  0
 51 52  1  0
 51 53  1  0
 53 54  2  0
 45 55  1  0
 55 56  2  0
 39  2  1  0
 56 42  1  0
 37  4  2  0
 54 48  1  0
 33 13  1  0
 31 19  1  0
 29 24  1  0
  1 57  1  0
  1 58  1  0
  1 59  1  0
  3 60  1  0
  6 61  1  0
  6 62  1  0
  6 63  1  0
  8 64  1  0
  8 65  1  0
 11 66  1  0
 12 67  1  0
 12 68  1  0
 14 69  1  0
 15 70  1  0
 20 71  1  0
 20 72  1  0
 21 73  1  0
 21 74  1  0
 23 75  1  0
 23 76  1  0
 25 77  1  0
 26 78  1  0
 27 79  1  0
 28 80  1  0
 29 81  1  0
 30 82  1  0
 30 83  1  0
 31 84  1  0
 31 85  1  0
 32 86  1  0
 33 87  1  0
 38 88  1  0
 41 89  1  0
 41 90  1  0
 43 91  1  0
 44 92  1  0
 47 93  1  0
 47 94  1  0
 49 95  1  0
 50 96  1  0
 53 97  1  0
 54 98  1  0
 55 99  1  0
M  CHG  1  52  -1
M  END
>  <UniqueID>  (23) 
22

>  <SMILES>  (23) 
Cc1cc2c(C)c(CC(=O)NCc3ccc(C(=O)N4CCN(Cc5ccccc5)CC4)cc3)c(=O)oc2cc1OCc1ccc(OCc2ccc([O-])cc2)cn1

>  <Energy>  (23) 
127.42486385255748

>  <Genealogy>  (23) 
Cc1cc2c(C)c(CC(=O)NCc3ccc(C(=O)N4CCN(Cc5ccccc5)CC4)cc3)c(=O)oc2cc1OCc1ccc(OCc2ccc([O-])cc2)cn1 (protonated)
Cc1cc2c(C)c(CC(=O)NCc3ccc(C(=O)N4CCN(Cc5ccccc5)CC4)cc3)c(=O)oc2cc1OCc1ccc(OCc2ccc([O-])cc2)cn1 (3D coordinates assigned)
Cc1cc2c(C)c(CC(=O)NCc3ccc(C(=O)N4CCN(Cc5ccccc5)CC4)cc3)c(=O)oc2cc1OCc1ccc(OCc2ccc([O-])cc2)cn1 (nonaromatic ring conformer: 127.42486385255748 kcal/mol)

>  <smiles>  (23) 
Cc1cc2c(C)c(CC(=O)NCc3ccc(C(=O)N4CCN(Cc5ccccc5)CC4)cc3)c(=O)oc2cc1OCc1ccc(OCc2ccc(O)cc2)cn1

>  <score_type>  (23) 
oracle

>  <origin>  (23) 
adg

>  <m_score__min__energy>  (23) 
-14.199999999999999

>  <m_primary>  (23) 
energy

$$$$
23:0
     RDKit          3D

 51 55  0  0  0  0  0  0  0  0999 V2000
   60.3550   28.4920   49.3510 O   0  0  0  0  0  0  0  0  0  0  0  0
   60.1740   29.4080   48.5050 C   0  0  0  0  0  0  0  0  0  0  0  0
   60.3620   30.7790   48.8920 N   0  0  0  0  0  0  0  0  0  0  0  0
   61.0680   31.1510   50.1160 C   0  0  0  0  0  0  0  0  0  0  0  0
   62.3650   31.8340   49.7760 C   0  0  0  0  0  0  0  0  0  0  0  0
   63.4960   31.7240   50.6130 C   0  0  0  0  0  0  0  0  0  0  0  0
   64.7150   32.3470   50.2600 C   0  0  0  0  0  0  0  0  0  0  0  0
   66.2330   32.1860   51.4070 Br  0  0  0  0  0  0  0  0  0  0  0  0
   64.8190   33.0800   49.0620 C   0  0  0  0  0  0  0  0  0  0  0  0
   63.6880   33.1620   48.2550 C   0  0  0  0  0  0  0  0  0  0  0  0
   63.5680   33.7930   47.0780 N   0  0  0  0  0  0  0  0  0  0  0  0
   62.2770   33.5440   46.7380 C   0  0  0  0  0  0  0  0  0  0  0  0
   61.5950   32.7930   47.6400 N   0  0  0  0  0  0  0  0  0  0  0  0
   62.5130   32.5660   48.5920 C   0  0  0  0  0  0  0  0  0  0  0  0
   59.7620   29.0560   47.1260 C   0  0  0  0  0  0  0  0  0  0  0  0
   60.7190   28.8480   46.1170 C   0  0  0  0  0  0  0  0  0  0  0  0
   60.3200   28.4970   44.8260 C   0  0  0  0  0  0  0  0  0  0  0  0
   58.9660   28.3510   44.5240 C   0  0  0  0  0  0  0  0  0  0  0  0
   57.9940   28.5610   45.5150 C   0  0  0  0  0  0  0  0  0  0  0  0
   56.5280   28.4260   45.1900 C   0  0  0  0  0  0  0  0  0  0  0  0
   55.9280   29.7320   44.9210 N   0  0  0  0  0  0  0  0  0  0  0  0
   56.5110   30.7880   44.1440 C   0  0  0  0  0  0  0  0  0  0  0  0
   56.3420   30.7850   42.8970 O   0  0  0  0  0  0  0  0  0  0  0  0
   57.2560   31.9020   44.7540 C   0  0  0  0  0  0  0  0  0  0  0  0
   57.8740   32.9460   44.0670 C   0  0  0  0  0  0  0  0  0  0  0  0
   58.4300   33.7370   45.0490 C   0  0  0  0  0  0  0  0  0  0  0  0
   59.1760   34.9090   44.9530 C   0  0  0  0  0  0  0  0  0  0  0  0
   59.6180   35.5040   46.1500 C   0  0  0  0  0  0  0  0  0  0  0  0
   59.3040   34.9200   47.3970 C   0  0  0  0  0  0  0  0  0  0  0  0
   58.5470   33.7360   47.4600 C   0  0  0  0  0  0  0  0  0  0  0  0
   58.1240   33.1700   46.2580 C   0  0  0  0  0  0  0  0  0  0  0  0
   57.3960   32.0530   46.0930 N   0  0  0  0  0  0  0  0  0  0  0  0
   58.3990   28.8960   46.8170 C   0  0  0  0  0  0  0  0  0  0  0  0
   59.9720   31.5450   48.2980 H   0  0  0  0  0  0  0  0  0  0  0  0
   60.4397   31.8353   50.7051 H   0  0  0  0  0  0  0  0  0  0  0  0
   61.2807   30.2432   50.6997 H   0  0  0  0  0  0  0  0  0  0  0  0
   63.4285   31.1486   51.5481 H   0  0  0  0  0  0  0  0  0  0  0  0
   65.7607   33.5703   48.7743 H   0  0  0  0  0  0  0  0  0  0  0  0
   61.8221   33.9194   45.8095 H   0  0  0  0  0  0  0  0  0  0  0  0
   61.7887   28.9626   46.3463 H   0  0  0  0  0  0  0  0  0  0  0  0
   61.0763   28.3349   44.0439 H   0  0  0  0  0  0  0  0  0  0  0  0
   58.6588   28.0703   43.5057 H   0  0  0  0  0  0  0  0  0  0  0  0
   56.4139   27.7879   44.3013 H   0  0  0  0  0  0  0  0  0  0  0  0
   56.0174   27.9774   46.0549 H   0  0  0  0  0  0  0  0  0  0  0  0
   57.9099   33.1038   42.9790 H   0  0  0  0  0  0  0  0  0  0  0  0
   59.4119   35.3546   43.9754 H   0  0  0  0  0  0  0  0  0  0  0  0
   60.2115   36.4294   46.1138 H   0  0  0  0  0  0  0  0  0  0  0  0
   59.6539   35.3944   48.3257 H   0  0  0  0  0  0  0  0  0  0  0  0
   58.2971   33.2721   48.4256 H   0  0  0  0  0  0  0  0  0  0  0  0
   57.0300   31.4230   46.8410 H   0  0  0  0  0  0  0  0  0  0  0  0
   57.6426   29.0348   47.6035 H   0  0  0  0  0  0  0  0  0  0  0  0
  1  2  2  0
  2  3  1  0
  3  4  1  0
  4  5  1  0
  5  6  2  0
  6  7  1  0
  7  8  1  0
  7  9  2  0
  9 10  1  0
 10 11  1  0
 11 12  1  0
 12 13  2  0
 13 14  1  0
  2 15  1  0
 15 16  2  0
 16 17  1  0
 17 18  2  0
 18 19  1  0
 19 20  1  0
 20 21  1  0
 21 22  1  0
 22 23  2  0
 22 24  1  0
 24 25  2  0
 25 26  1  0
 26 27  2  0
 27 28  1  0
 28 29  2  0
 29 30  1  0
 30 31  2  0
 31 32  1  0
 19 33  2  0
 14  5  1  0
 33 15  1  0
 14 10  2  0
 32 24  1  0
 31 26  1  0
  3 34  1  0
  4 35  1  0
  4 36  1  0
  6 37  1  0
  9 38  1  0
 12 39  1  0
 16 40  1  0
 17 41  1  0
 18 42  1  0
 20 43  1  0
 20 44  1  0
 25 45  1  0
 27 46  1  0
 28 47  1  0
 29 48  1  0
 30 49  1  0
 32 50  1  0
 33 51  1  0
M  CHG  2  11  -1  21  -1
M  END
>  <UniqueID>  (24) 
23

>  <SMILES>  (24) 
O=C(NCc1cc(Br)cc2[n-]cnc12)c1cccc(C[N-]C(=O)c2cc3ccccc3[nH]2)c1

>  <Energy>  (24) 
125.20491832330589

>  <Genealogy>  (24) 
O=C(NCc1cc(Br)cc2[n-]cnc12)c1cccc(C[N-]C(=O)c2cc3ccccc3[nH]2)c1 (protonated)
O=C(NCc1cc(Br)cc2[n-]cnc12)c1cccc(C[N-]C(=O)c2cc3ccccc3[nH]2)c1 (3D coordinates assigned)
O=C(NCc1cc(Br)cc2[n-]cnc12)c1cccc(C[N-]C(=O)c2cc3ccccc3[nH]2)c1 (optimized conformer: 125.20491832330589 kcal/mol)

>  <smiles>  (24) 
O=C(NCc1cc(Br)cc2[nH]cnc12)c1cccc(CNC(=O)c2cc3ccccc3[nH]2)c1

>  <score_type>  (24) 
oracle

>  <origin>  (24) 
adg

>  <m_score__min__energy>  (24) 
-12.289999999999999

>  <m_primary>  (24) 
energy

$$$$
24:0
     RDKit          3D

 56 59  0  0  0  0  0  0  0  0999 V2000
   58.1440   28.1150   47.4680 O   0  0  0  0  0  0  0  0  0  0  0  0
   58.7530   28.7020   46.5350 C   0  0  0  0  0  0  0  0  0  0  0  0
   60.1790   28.8190   46.6070 N   0  0  0  0  0  0  0  0  0  0  0  0
   60.9160   30.0700   46.4640 C   0  0  0  0  0  0  0  0  0  0  0  0
   61.2540   30.6380   47.8150 C   0  0  0  0  0  0  0  0  0  0  0  0
   61.1360   29.9030   48.8330 O   0  0  0  0  0  0  0  0  0  0  0  0
   61.7690   31.9810   47.9550 N   0  0  0  0  0  0  0  0  0  0  0  0
   62.0200   32.8160   46.7690 C   0  0  0  0  0  0  0  0  0  0  0  0
   63.0140   33.9440   47.0800 C   0  0  0  0  0  0  0  0  0  0  0  0
   64.0760   33.4280   48.0590 C   0  0  0  0  0  0  0  0  0  0  0  0
   63.4660   33.0850   49.4620 C   0  0  2  0  0  0  0  0  0  0  0  0
   63.4460   34.2580   50.2460 O   0  0  0  0  0  0  0  0  0  0  0  0
   64.3100   32.0660   50.2540 C   0  0  0  0  0  0  0  0  0  0  0  0
   63.7590   30.9440   50.9220 C   0  0  0  0  0  0  0  0  0  0  0  0
   64.5810   30.0320   51.5910 C   0  0  0  0  0  0  0  0  0  0  0  0
   65.9660   30.1910   51.5780 C   0  0  0  0  0  0  0  0  0  0  0  0
   66.5350   31.2490   50.8730 C   0  0  0  0  0  0  0  0  0  0  0  0
   65.7210   32.1650   50.2030 C   0  0  0  0  0  0  0  0  0  0  0  0
   61.9920   32.5630   49.2880 C   0  0  0  0  0  0  0  0  0  0  0  0
   57.9760   29.2790   45.4190 C   0  0  0  0  0  0  0  0  0  0  0  0
   57.6910   28.5110   44.2820 C   0  0  0  0  0  0  0  0  0  0  0  0
   56.9480   29.0580   43.2350 C   0  0  0  0  0  0  0  0  0  0  0  0
   56.4890   30.3700   43.3380 C   0  0  0  0  0  0  0  0  0  0  0  0
   56.7580   31.1000   44.4520 N   0  0  0  0  0  0  0  0  0  0  0  0
   57.4750   30.5920   45.4950 C   0  0  0  0  0  0  0  0  0  0  0  0
   57.7600   31.3810   46.6180 O   0  0  0  0  0  0  0  0  0  0  0  0
   58.3550   32.6510   46.5880 C   0  0  0  0  0  0  0  0  0  0  0  0
   58.7400   33.3280   47.7620 C   0  0  0  0  0  0  0  0  0  0  0  0
   59.3410   34.5880   47.6820 C   0  0  0  0  0  0  0  0  0  0  0  0
   59.5760   35.1750   46.4360 C   0  0  0  0  0  0  0  0  0  0  0  0
   59.2160   34.4990   45.2670 C   0  0  0  0  0  0  0  0  0  0  0  0
   58.6140   33.2390   45.3440 C   0  0  0  0  0  0  0  0  0  0  0  0
   61.8459   29.8811   45.9075 H   0  0  0  0  0  0  0  0  0  0  0  0
   60.2896   30.7925   45.9202 H   0  0  0  0  0  0  0  0  0  0  0  0
   62.4331   32.1854   45.9679 H   0  0  0  0  0  0  0  0  0  0  0  0
   61.0678   33.2693   46.4562 H   0  0  0  0  0  0  0  0  0  0  0  0
   63.5004   34.2721   46.1495 H   0  0  0  0  0  0  0  0  0  0  0  0
   62.4789   34.7929   47.5305 H   0  0  0  0  0  0  0  0  0  0  0  0
   64.5341   32.5201   47.6396 H   0  0  0  0  0  0  0  0  0  0  0  0
   64.8231   34.2231   48.1991 H   0  0  0  0  0  0  0  0  0  0  0  0
   62.8220   34.1250   51.0070 H   0  0  0  0  0  0  0  0  0  0  0  0
   62.6701   30.7886   50.9140 H   0  0  0  0  0  0  0  0  0  0  0  0
   64.1326   29.1847   52.1304 H   0  0  0  0  0  0  0  0  0  0  0  0
   66.6076   29.4829   52.1230 H   0  0  0  0  0  0  0  0  0  0  0  0
   67.6287   31.3634   50.8439 H   0  0  0  0  0  0  0  0  0  0  0  0
   66.1848   32.9781   49.6252 H   0  0  0  0  0  0  0  0  0  0  0  0
   61.7951   31.7937   50.0492 H   0  0  0  0  0  0  0  0  0  0  0  0
   61.3115   33.4194   49.4039 H   0  0  0  0  0  0  0  0  0  0  0  0
   58.0537   27.4747   44.2147 H   0  0  0  0  0  0  0  0  0  0  0  0
   56.7270   28.4603   42.3384 H   0  0  0  0  0  0  0  0  0  0  0  0
   55.9083   30.8150   42.5165 H   0  0  0  0  0  0  0  0  0  0  0  0
   58.5673   32.8641   48.7443 H   0  0  0  0  0  0  0  0  0  0  0  0
   59.6293   35.1181   48.6017 H   0  0  0  0  0  0  0  0  0  0  0  0
   60.0441   36.1686   46.3752 H   0  0  0  0  0  0  0  0  0  0  0  0
   59.4063   34.9582   44.2857 H   0  0  0  0  0  0  0  0  0  0  0  0
   58.3421   32.7062   44.4208 H   0  0  0  0  0  0  0  0  0  0  0  0
  1  2  2  0
  2  3  1  0
  3  4  1  0
  4  5  1  0
  5  6  2  0
  5  7  1  0
  7  8  1  0
  8  9  1  0
  9 10  1  0
 10 11  1  0
 11 12  1  1
 11 13  1  0
 13 14  2  0
 14 15  1  0
 15 16  2  0
 16 17  1  0
 17 18  2  0
 11 19  1  0
  2 20  1  0
 20 21  2  0
 21 22  1  0
 22 23  2  0
 23 24  1  0
 24 25  2  0
 25 26  1  0
 26 27  1  0
 27 28  2  0
 28 29  1  0
 29 30  2  0
 30 31  1  0
 31 32  2  0
 19  7  1  0
 25 20  1  0
 32 27  1  0
 18 13  1  0
  4 33  1  0
  4 34  1  0
  8 35  1  0
  8 36  1  0
  9 37  1  0
  9 38  1  0
 10 39  1  0
 10 40  1  0
 12 41  1  0
 14 42  1  0
 15 43  1  0
 16 44  1  0
 17 45  1  0
 18 46  1  0
 19 47  1  0
 19 48  1  0
 21 49  1  0
 22 50  1  0
 23 51  1  0
 28 52  1  0
 29 53  1  0
 30 54  1  0
 31 55  1  0
 32 56  1  0
M  CHG  1   3  -1
M  END
>  <UniqueID>  (25) 
24

>  <SMILES>  (25) 
O=C([N-]CC(=O)N1CCC[C@](O)(c2ccccc2)C1)c1cccnc1Oc1ccccc1

>  <Energy>  (25) 
84.25164297871734

>  <Genealogy>  (25) 
O=C([N-]CC(=O)N1CCCC(O)(c2ccccc2)C1)c1cccnc1Oc1ccccc1 (protonated)
O=C([N-]CC(=O)N1CCC[C@](O)(c2ccccc2)C1)c1cccnc1Oc1ccccc1 (chirality)
O=C([N-]CC(=O)N1CCC[C@](O)(c2ccccc2)C1)c1cccnc1Oc1ccccc1 (3D coordinates assigned)
O=C([N-]CC(=O)N1CCC[C@](O)(c2ccccc2)C1)c1cccnc1Oc1ccccc1 (nonaromatic ring conformer: 84.25164297871734 kcal/mol)

>  <smiles>  (25) 
O=C(NCC(=O)N1CCCC(O)(c2ccccc2)C1)c1cccnc1Oc1ccccc1

>  <score_type>  (25) 
oracle

>  <origin>  (25) 
adg

>  <m_score__min__energy>  (25) 
-10.390000000000001

>  <m_primary>  (25) 
energy

$$$$
25:0
     RDKit          3D

 53 56  0  0  0  0  0  0  0  0999 V2000
   57.4852   26.5353   48.0046 H   0  0  0  0  0  0  0  0  0  0  0  0
   57.6130   25.8900   47.1230 C   0  0  0  0  0  0  0  0  0  0  0  0
   58.8220   25.8770   46.5290 C   0  0  0  0  0  0  0  0  0  0  0  0
   59.2980   24.6260   45.9880 C   0  0  0  0  0  0  0  0  0  0  0  0
   59.6810   23.6240   45.5550 N   0  0  0  0  0  0  0  0  0  0  0  0
   59.7340   27.0500   46.5000 C   0  0  0  0  0  0  0  0  0  0  0  0
   60.9760   26.8720   46.3670 O   0  0  0  0  0  0  0  0  0  0  0  0
   59.2380   28.3960   46.5040 N   0  0  0  0  0  0  0  0  0  0  0  0
   58.5490   29.0630   45.4370 C   0  0  0  0  0  0  0  0  0  0  0  0
   57.6220   28.3920   44.6210 C   0  0  0  0  0  0  0  0  0  0  0  0
   57.4319   27.3195   44.7746 H   0  0  0  0  0  0  0  0  0  0  0  0
   56.9410   29.0830   43.6150 C   0  0  0  0  0  0  0  0  0  0  0  0
   56.2183   28.5525   42.9776 H   0  0  0  0  0  0  0  0  0  0  0  0
   57.1760   30.4460   43.4170 C   0  0  0  0  0  0  0  0  0  0  0  0
   56.6334   30.9863   42.6273 H   0  0  0  0  0  0  0  0  0  0  0  0
   58.1020   31.1290   44.2220 C   0  0  0  0  0  0  0  0  0  0  0  0
   58.3480   32.5730   44.0330 C   0  0  0  0  0  0  0  0  0  0  0  0
   58.1270   33.0840   42.9020 O   0  0  0  0  0  0  0  0  0  0  0  0
   58.8080   33.4110   45.1100 N   0  0  0  0  0  0  0  0  0  0  0  0
   59.2460   34.7800   44.8980 C   0  0  0  0  0  0  0  0  0  0  0  0
   60.1465   34.8012   44.2667 H   0  0  0  0  0  0  0  0  0  0  0  0
   58.4781   35.3773   44.3846 H   0  0  0  0  0  0  0  0  0  0  0  0
   59.5550   35.3320   46.2820 C   0  0  0  0  0  0  0  0  0  0  0  0
   60.6397   35.3242   46.4645 H   0  0  0  0  0  0  0  0  0  0  0  0
   59.2171   36.3734   46.3882 H   0  0  0  0  0  0  0  0  0  0  0  0
   58.8440   34.4070   47.2640 C   0  0  0  0  0  0  0  0  0  0  0  0
   59.4650   34.2469   48.1577 H   0  0  0  0  0  0  0  0  0  0  0  0
   57.8898   34.8349   47.6051 H   0  0  0  0  0  0  0  0  0  0  0  0
   58.6360   33.0950   46.5210 C   0  0  0  0  0  0  0  0  0  0  0  0
   59.3800   32.3507   46.8410 H   0  0  0  0  0  0  0  0  0  0  0  0
   57.6435   32.6662   46.7234 H   0  0  0  0  0  0  0  0  0  0  0  0
   58.7630   30.4340   45.2480 C   0  0  0  0  0  0  0  0  0  0  0  0
   59.4565   30.9726   45.9105 H   0  0  0  0  0  0  0  0  0  0  0  0
   56.4430   25.0990   46.6760 C   0  0  0  0  0  0  0  0  0  0  0  0
   55.4080   25.7250   45.9760 C   0  0  0  0  0  0  0  0  0  0  0  0
   55.4770   27.0800   45.6700 O   0  0  0  0  0  0  0  0  0  0  0  0
   54.3290   25.0080   45.5800 N   0  0  0  0  0  0  0  0  0  0  0  0
   54.2160   23.6840   45.8540 C   0  0  0  0  0  0  0  0  0  0  0  0
   53.2010   23.0590   45.4420 O   0  0  0  0  0  0  0  0  0  0  0  0
   55.1960   23.0390   46.5620 N   0  0  0  0  0  0  0  0  0  0  0  0
   55.0670   21.6330   46.8610 C   0  0  0  0  0  0  0  0  0  0  0  0
   54.0600   21.1810   47.7290 C   0  0  0  0  0  0  0  0  0  0  0  0
   53.3620   21.9009   48.1813 H   0  0  0  0  0  0  0  0  0  0  0  0
   53.9420   19.8190   48.0200 C   0  0  0  0  0  0  0  0  0  0  0  0
   53.1528   19.4697   48.7020 H   0  0  0  0  0  0  0  0  0  0  0  0
   54.8250   18.9000   47.4460 C   0  0  0  0  0  0  0  0  0  0  0  0
   54.7297   17.8285   47.6759 H   0  0  0  0  0  0  0  0  0  0  0  0
   55.8290   19.3420   46.5800 C   0  0  0  0  0  0  0  0  0  0  0  0
   56.5231   18.6180   46.1283 H   0  0  0  0  0  0  0  0  0  0  0  0
   55.9520   20.7050   46.2870 C   0  0  0  0  0  0  0  0  0  0  0  0
   56.7435   21.0505   45.6057 H   0  0  0  0  0  0  0  0  0  0  0  0
   56.2980   23.7340   46.9910 C   0  0  0  0  0  0  0  0  0  0  0  0
   57.1750   23.1580   47.6940 O   0  0  0  0  0  0  0  0  0  0  0  0
  1  2  1  0
  2  3  2  0
  3  4  1  0
  4  5  3  0
  3  6  1  0
  6  7  2  0
  6  8  1  0
  8  9  1  0
  9 10  2  0
 10 11  1  0
 10 12  1  0
 12 13  1  0
 12 14  2  0
 14 15  1  0
 14 16  1  0
 16 17  1  0
 17 18  2  0
 17 19  1  0
 19 20  1  0
 20 21  1  0
 20 22  1  0
 20 23  1  0
 23 24  1  0
 23 25  1  0
 23 26  1  0
 26 27  1  0
 26 28  1  0
 26 29  1  0
 29 30  1  0
 29 31  1  0
 16 32  2  0
 32 33  1  0
  2 34  1  0
 34 35  2  0
 35 36  1  0
 35 37  1  0
 37 38  1  0
 38 39  2  0
 38 40  1  0
 40 41  1  0
 41 42  2  0
 42 43  1  0
 42 44  1  0
 44 45  1  0
 44 46  2  0
 46 47  1  0
 46 48  1  0
 48 49  1  0
 48 50  2  0
 50 51  1  0
 40 52  1  0
 52 53  2  0
 32  9  1  0
 52 34  1  0
 29 19  1  0
 50 41  1  0
M  CHG  3   8  -1  36  -1  37  -1
M  END
>  <UniqueID>  (26) 
25

>  <SMILES>  (26) 
N#C/C(=C/c1c([O-])[n-]c(=O)n(-c2ccccc2)c1=O)C(=O)[N-]c1cccc(C(=O)N2CCCC2)c1

>  <Energy>  (26) 
85.65856743879024

>  <Genealogy>  (26) 
N#CC(=Cc1c([O-])[n-]c(=O)n(-c2ccccc2)c1=O)C(=O)[N-]c1cccc(C(=O)N2CCCC2)c1 (protonated)
N#C/C(=C/c1c([O-])[n-]c(=O)n(-c2ccccc2)c1=O)C(=O)[N-]c1cccc(C(=O)N2CCCC2)c1 (cis-trans isomerization)
N#C/C(=C/c1c([O-])[n-]c(=O)n(-c2ccccc2)c1=O)C(=O)[N-]c1cccc(C(=O)N2CCCC2)c1 (3D coordinates assigned)
N#C/C(=C/c1c([O-])[n-]c(=O)n(-c2ccccc2)c1=O)C(=O)[N-]c1cccc(C(=O)N2CCCC2)c1 (nonaromatic ring conformer: 85.65856743879024 kcal/mol)

>  <smiles>  (26) 
N#CC(=Cc1c(O)[nH]c(=O)n(-c2ccccc2)c1=O)C(=O)Nc1cccc(C(=O)N2CCCC2)c1

>  <score_type>  (26) 
oracle

>  <origin>  (26) 
adg

>  <m_score__min__energy>  (26) 
-15.220000000000001

>  <m_primary>  (26) 
energy

$$$$
26:0
     RDKit          3D

 61 63  0  0  0  0  0  0  0  0999 V2000
   61.5250   28.8570   50.7880 C   0  0  0  0  0  0  0  0  0  0  0  0
   60.7470   29.0820   49.5760 N   0  0  0  0  0  0  0  0  0  0  0  0
   60.3170   27.9980   48.7420 C   0  0  0  0  0  0  0  0  0  0  0  0
   60.6250   26.8140   49.0430 O   0  0  0  0  0  0  0  0  0  0  0  0
   59.5030   28.2540   47.4980 C   0  0  0  0  0  0  0  0  0  0  0  0
   60.4140   28.5250   46.2840 C   0  0  0  0  0  0  0  0  0  0  0  0
   59.5670   28.9270   45.0620 C   0  0  0  0  0  0  0  0  0  0  0  0
   58.2970   28.1800   45.0090 N   0  0  0  0  0  0  0  0  0  0  0  0
   57.0850   28.8210   44.5570 C   0  0  0  0  0  0  0  0  0  0  0  0
   56.0360   28.7130   45.2490 O   0  0  0  0  0  0  0  0  0  0  0  0
   57.0190   29.5790   43.3390 N   0  0  0  0  0  0  0  0  0  0  0  0
   56.3210   30.8430   43.1110 C   0  0  0  0  0  0  0  0  0  0  0  0
   57.1540   31.7920   42.2880 C   0  0  0  0  0  0  0  0  0  0  0  0
   57.0570   31.7660   41.0310 O   0  0  0  0  0  0  0  0  0  0  0  0
   58.1640   32.6150   42.8800 N   0  0  0  0  0  0  0  0  0  0  0  0
   58.4470   32.7640   44.2780 C   0  0  0  0  0  0  0  0  0  0  0  0
   58.8660   33.9910   44.8200 C   0  0  0  0  0  0  0  0  0  0  0  0
   59.1650   34.0930   46.1830 C   0  0  0  0  0  0  0  0  0  0  0  0
   59.0660   32.9680   47.0130 C   0  0  0  0  0  0  0  0  0  0  0  0
   59.4460   33.1070   48.7290 S   0  0  0  0  0  0  0  0  0  0  0  0
   59.6820   34.5580   49.0480 O   0  0  0  0  0  0  0  0  0  0  0  0
   58.2820   32.6160   49.5460 O   0  0  0  0  0  0  0  0  0  0  0  0
   60.8810   32.1720   49.0920 N   0  0  0  0  0  0  0  0  0  0  0  0
   61.7760   32.8710   50.0480 C   0  0  0  0  0  0  0  0  0  0  0  0
   63.1760   33.1720   49.4900 C   0  0  0  0  0  0  0  0  0  0  0  0
   63.0740   33.7420   48.0780 C   0  0  0  0  0  0  0  0  0  0  0  0
   62.3330   32.7850   47.1260 C   0  0  0  0  0  0  0  0  0  0  0  0
   61.5430   31.6860   47.8630 C   0  0  0  0  0  0  0  0  0  0  0  0
   58.6800   31.7370   46.4650 C   0  0  0  0  0  0  0  0  0  0  0  0
   58.3800   31.6360   45.1030 C   0  0  0  0  0  0  0  0  0  0  0  0
   58.2110   26.9000   45.7230 C   0  0  0  0  0  0  0  0  0  0  0  0
   58.5110   27.0920   47.2240 C   0  0  0  0  0  0  0  0  0  0  0  0
   60.8923   29.0400   51.6691 H   0  0  0  0  0  0  0  0  0  0  0  0
   61.8854   27.8178   50.8048 H   0  0  0  0  0  0  0  0  0  0  0  0
   62.3844   29.5434   50.8048 H   0  0  0  0  0  0  0  0  0  0  0  0
   60.5120   30.0650   49.3100 H   0  0  0  0  0  0  0  0  0  0  0  0
   58.9032   29.1603   47.6680 H   0  0  0  0  0  0  0  0  0  0  0  0
   61.1105   29.3408   46.5275 H   0  0  0  0  0  0  0  0  0  0  0  0
   60.9758   27.6098   46.0457 H   0  0  0  0  0  0  0  0  0  0  0  0
   59.3455   30.0029   45.1202 H   0  0  0  0  0  0  0  0  0  0  0  0
   60.1416   28.6912   44.1541 H   0  0  0  0  0  0  0  0  0  0  0  0
   55.3793   30.6408   42.5797 H   0  0  0  0  0  0  0  0  0  0  0  0
   56.1264   31.3113   44.0871 H   0  0  0  0  0  0  0  0  0  0  0  0
   58.9592   34.8740   44.1706 H   0  0  0  0  0  0  0  0  0  0  0  0
   59.4788   35.0593   46.6046 H   0  0  0  0  0  0  0  0  0  0  0  0
   61.3041   33.8238   50.3299 H   0  0  0  0  0  0  0  0  0  0  0  0
   61.9142   32.1959   50.9054 H   0  0  0  0  0  0  0  0  0  0  0  0
   63.6762   33.9040   50.1412 H   0  0  0  0  0  0  0  0  0  0  0  0
   63.7557   32.2377   49.4569 H   0  0  0  0  0  0  0  0  0  0  0  0
   62.5290   34.6967   48.1181 H   0  0  0  0  0  0  0  0  0  0  0  0
   64.0944   33.8845   47.6928 H   0  0  0  0  0  0  0  0  0  0  0  0
   61.6298   33.3725   46.5174 H   0  0  0  0  0  0  0  0  0  0  0  0
   63.0937   32.2832   46.5099 H   0  0  0  0  0  0  0  0  0  0  0  0
   60.7731   31.2927   47.1829 H   0  0  0  0  0  0  0  0  0  0  0  0
   62.2629   30.9104   48.1634 H   0  0  0  0  0  0  0  0  0  0  0  0
   58.6128   30.8474   47.1085 H   0  0  0  0  0  0  0  0  0  0  0  0
   58.0896   30.6640   44.6777 H   0  0  0  0  0  0  0  0  0  0  0  0
   57.1972   26.4892   45.6070 H   0  0  0  0  0  0  0  0  0  0  0  0
   58.9538   26.2080   45.2994 H   0  0  0  0  0  0  0  0  0  0  0  0
   57.5668   27.3062   47.7460 H   0  0  0  0  0  0  0  0  0  0  0  0
   58.9791   26.1656   47.5882 H   0  0  0  0  0  0  0  0  0  0  0  0
  1  2  1  0
  2  3  1  0
  3  4  2  0
  3  5  1  0
  5  6  1  0
  6  7  1  0
  7  8  1  0
  8  9  1  0
  9 10  2  0
  9 11  1  0
 11 12  1  0
 12 13  1  0
 13 14  2  0
 13 15  1  0
 15 16  1  0
 16 17  2  0
 17 18  1  0
 18 19  2  0
 19 20  1  0
 20 21  2  0
 20 22  2  0
 20 23  1  0
 23 24  1  0
 24 25  1  0
 25 26  1  0
 26 27  1  0
 27 28  1  0
 19 29  1  0
 29 30  2  0
  8 31  1  0
 31 32  1  0
 32  5  1  0
 30 16  1  0
 28 23  1  0
  1 33  1  0
  1 34  1  0
  1 35  1  0
  2 36  1  0
  5 37  1  0
  6 38  1  0
  6 39  1  0
  7 40  1  0
  7 41  1  0
 12 42  1  0
 12 43  1  0
 17 44  1  0
 18 45  1  0
 24 46  1  0
 24 47  1  0
 25 48  1  0
 25 49  1  0
 26 50  1  0
 26 51  1  0
 27 52  1  0
 27 53  1  0
 28 54  1  0
 28 55  1  0
 29 56  1  0
 30 57  1  0
 31 58  1  0
 31 59  1  0
 32 60  1  0
 32 61  1  0
M  CHG  2  11  -1  15  -1
M  END
>  <UniqueID>  (27) 
26

>  <SMILES>  (27) 
CNC(=O)C1CCN(C(=O)[N-]CC(=O)[N-]c2ccc(S(=O)(=O)N3CCCCC3)cc2)CC1

>  <Energy>  (27) 
75.6115306091484

>  <Genealogy>  (27) 
CNC(=O)C1CCN(C(=O)[N-]CC(=O)[N-]c2ccc(S(=O)(=O)N3CCCCC3)cc2)CC1 (protonated)
CNC(=O)C1CCN(C(=O)[N-]CC(=O)[N-]c2ccc(S(=O)(=O)N3CCCCC3)cc2)CC1 (3D coordinates assigned)
CNC(=O)C1CCN(C(=O)[N-]CC(=O)[N-]c2ccc(S(=O)(=O)N3CCCCC3)cc2)CC1 (nonaromatic ring conformer: 75.6115306091484 kcal/mol)

>  <smiles>  (27) 
CNC(=O)C1CCN(C(=O)NCC(=O)Nc2ccc(S(=O)(=O)N3CCCCC3)cc2)CC1

>  <score_type>  (27) 
oracle

>  <origin>  (27) 
adg

>  <m_score__min__energy>  (27) 
-12.449999999999999

>  <m_primary>  (27) 
energy

$$$$
27:0
     RDKit          3D

 57 60  0  0  0  0  0  0  0  0999 V2000
   57.7800   29.7140   51.3290 O   0  0  0  0  0  0  0  0  0  0  0  0
   58.3250   30.3460   50.3870 C   0  0  0  0  0  0  0  0  0  0  0  0
   59.2720   29.6300   49.4700 C   0  0  0  0  0  0  0  0  0  0  0  0
   60.6350   29.9060   49.8010 O   0  0  0  0  0  0  0  0  0  0  0  0
   61.4860   30.7820   49.1030 C   0  0  0  0  0  0  0  0  0  0  0  0
   61.1940   31.2370   47.8000 C   0  0  0  0  0  0  0  0  0  0  0  0
   62.0850   32.0810   47.1310 C   0  0  0  0  0  0  0  0  0  0  0  0
   63.2670   32.4850   47.7550 C   0  0  0  0  0  0  0  0  0  0  0  0
   63.5600   32.0500   49.0480 C   0  0  0  0  0  0  0  0  0  0  0  0
   62.6740   31.2030   49.7230 C   0  0  0  0  0  0  0  0  0  0  0  0
   63.1140   30.6120   51.4890 Br  0  0  0  0  0  0  0  0  0  0  0  0
   58.0190   31.7280   50.1580 N   0  0  0  0  0  0  0  0  0  0  0  0
   58.6110   32.6170   49.1990 C   0  0  0  0  0  0  0  0  0  0  0  0
   58.2130   32.6230   47.8500 C   0  0  0  0  0  0  0  0  0  0  0  0
   58.7110   33.5890   46.9660 C   0  0  0  0  0  0  0  0  0  0  0  0
   58.1350   33.6430   45.2970 S   0  0  0  0  0  0  0  0  0  0  0  0
   56.7620   34.2590   45.2650 O   0  0  0  0  0  0  0  0  0  0  0  0
   59.0540   34.5140   44.4850 O   0  0  0  0  0  0  0  0  0  0  0  0
   58.0650   32.0460   44.5880 N   0  0  0  0  0  0  0  0  0  0  0  0
   56.6640   31.6040   44.4500 C   0  0  0  0  0  0  0  0  0  0  0  0
   56.5880   30.0730   44.3270 C   0  0  0  0  0  0  0  0  0  0  0  0
   57.1170   29.3750   45.4480 O   0  0  0  0  0  0  0  0  0  0  0  0
   58.0690   30.1220   46.1940 C   0  0  0  0  0  0  0  0  0  0  0  0
   58.9070   31.0770   45.3250 C   0  0  0  0  0  0  0  0  0  0  0  0
   59.6280   34.5420   47.4260 C   0  0  0  0  0  0  0  0  0  0  0  0
   60.0180   34.5500   48.7650 C   0  0  0  0  0  0  0  0  0  0  0  0
   59.5110   33.5960   49.6560 C   0  0  0  0  0  0  0  0  0  0  0  0
   59.8610   33.6720   51.0430 N   0  0  0  0  0  0  0  0  0  0  0  0
   61.2070   33.4780   51.5460 C   0  0  0  0  0  0  0  0  0  0  0  0
   61.0610   33.3690   53.0580 C   0  0  0  0  0  0  0  0  0  0  0  0
   59.6670   33.9040   53.3900 C   0  0  0  0  0  0  0  0  0  0  0  0
   58.8750   33.8610   52.0900 C   0  0  0  0  0  0  0  0  0  0  0  0
   59.0972   28.5470   49.5512 H   0  0  0  0  0  0  0  0  0  0  0  0
   59.0892   29.9817   48.4439 H   0  0  0  0  0  0  0  0  0  0  0  0
   60.2606   30.9261   47.3081 H   0  0  0  0  0  0  0  0  0  0  0  0
   61.8549   32.4271   46.1125 H   0  0  0  0  0  0  0  0  0  0  0  0
   63.9683   33.1473   47.2264 H   0  0  0  0  0  0  0  0  0  0  0  0
   64.4901   32.3738   49.5381 H   0  0  0  0  0  0  0  0  0  0  0  0
   57.5053   31.8634   47.4863 H   0  0  0  0  0  0  0  0  0  0  0  0
   56.0953   31.9240   45.3355 H   0  0  0  0  0  0  0  0  0  0  0  0
   56.2386   32.0539   43.5408 H   0  0  0  0  0  0  0  0  0  0  0  0
   55.5323   29.7876   44.2087 H   0  0  0  0  0  0  0  0  0  0  0  0
   57.2027   29.7928   43.4589 H   0  0  0  0  0  0  0  0  0  0  0  0
   57.5332   30.7159   46.9491 H   0  0  0  0  0  0  0  0  0  0  0  0
   58.7637   29.4019   46.6510 H   0  0  0  0  0  0  0  0  0  0  0  0
   59.5995   31.6319   45.9750 H   0  0  0  0  0  0  0  0  0  0  0  0
   59.4510   30.4712   44.5854 H   0  0  0  0  0  0  0  0  0  0  0  0
   60.0418   35.2862   46.7296 H   0  0  0  0  0  0  0  0  0  0  0  0
   60.7279   35.3100   49.1233 H   0  0  0  0  0  0  0  0  0  0  0  0
   61.6429   32.5560   51.1338 H   0  0  0  0  0  0  0  0  0  0  0  0
   61.8747   34.3032   51.2576 H   0  0  0  0  0  0  0  0  0  0  0  0
   61.1527   32.3199   53.3756 H   0  0  0  0  0  0  0  0  0  0  0  0
   61.8444   33.9388   53.5792 H   0  0  0  0  0  0  0  0  0  0  0  0
   59.1866   33.2707   54.1504 H   0  0  0  0  0  0  0  0  0  0  0  0
   59.7157   34.9251   53.7963 H   0  0  0  0  0  0  0  0  0  0  0  0
   58.1613   33.0240   52.1019 H   0  0  0  0  0  0  0  0  0  0  0  0
   58.2887   34.7792   51.9382 H   0  0  0  0  0  0  0  0  0  0  0  0
  1  2  2  0
  2  3  1  0
  3  4  1  0
  4  5  1  0
  5  6  2  0
  6  7  1  0
  7  8  2  0
  8  9  1  0
  9 10  2  0
 10 11  1  0
  2 12  1  0
 12 13  1  0
 13 14  2  0
 14 15  1  0
 15 16  1  0
 16 17  2  0
 16 18  2  0
 16 19  1  0
 19 20  1  0
 20 21  1  0
 21 22  1  0
 22 23  1  0
 23 24  1  0
 15 25  2  0
 25 26  1  0
 26 27  2  0
 27 28  1  0
 28 29  1  0
 29 30  1  0
 30 31  1  0
 31 32  1  0
 10  5  1  0
 27 13  1  0
 32 28  1  0
 24 19  1  0
  3 33  1  0
  3 34  1  0
  6 35  1  0
  7 36  1  0
  8 37  1  0
  9 38  1  0
 14 39  1  0
 20 40  1  0
 20 41  1  0
 21 42  1  0
 21 43  1  0
 23 44  1  0
 23 45  1  0
 24 46  1  0
 24 47  1  0
 25 48  1  0
 26 49  1  0
 29 50  1  0
 29 51  1  0
 30 52  1  0
 30 53  1  0
 31 54  1  0
 31 55  1  0
 32 56  1  0
 32 57  1  0
M  CHG  1  12  -1
M  END
>  <UniqueID>  (28) 
27

>  <SMILES>  (28) 
O=C(COc1ccccc1Br)[N-]c1cc(S(=O)(=O)N2CCOCC2)ccc1N1CCCC1

>  <Energy>  (28) 
75.36186924809446

>  <Genealogy>  (28) 
O=C(COc1ccccc1Br)[N-]c1cc(S(=O)(=O)N2CCOCC2)ccc1N1CCCC1 (protonated)
O=C(COc1ccccc1Br)[N-]c1cc(S(=O)(=O)N2CCOCC2)ccc1N1CCCC1 (3D coordinates assigned)
O=C(COc1ccccc1Br)[N-]c1cc(S(=O)(=O)N2CCOCC2)ccc1N1CCCC1 (nonaromatic ring conformer: 75.36186924809446 kcal/mol)

>  <smiles>  (28) 
O=C(COc1ccccc1Br)Nc1cc(S(=O)(=O)N2CCOCC2)ccc1N1CCCC1

>  <score_type>  (28) 
oracle

>  <origin>  (28) 
adg

>  <m_score__min__energy>  (28) 
-11.59

>  <m_primary>  (28) 
energy

$$$$
28:0
     RDKit          3D

 43 44  0  0  0  0  0  0  0  0999 V2000
   54.7620   30.2370   44.7280 H   0  0  0  0  0  0  0  0  0  0  0  0
   55.1480   29.3220   44.9250 O   0  0  0  0  0  0  0  0  0  0  0  0
   56.5140   29.1150   45.1170 C   0  0  0  0  0  0  0  0  0  0  0  0
   56.9730   27.8110   45.3340 C   0  0  0  0  0  0  0  0  0  0  0  0
   56.2558   26.9771   45.3494 H   0  0  0  0  0  0  0  0  0  0  0  0
   58.3440   27.5550   45.5330 C   0  0  0  0  0  0  0  0  0  0  0  0
   58.8820   26.1910   45.7590 C   0  0  0  0  0  0  0  0  0  0  0  0
   59.9582   26.0891   45.9625 H   0  0  0  0  0  0  0  0  0  0  0  0
   58.1410   25.0760   45.7310 C   0  0  0  0  0  0  0  0  0  0  0  0
   58.2167   24.4081   44.8602 H   0  0  0  0  0  0  0  0  0  0  0  0
   57.2270   24.7150   46.8300 C   0  0  0  0  0  0  0  0  0  0  0  0
   57.6910   24.0790   47.8120 O   0  0  0  0  0  0  0  0  0  0  0  0
   55.8230   25.0030   46.7980 N   0  0  0  0  0  0  0  0  0  0  0  0
   55.0260   25.1870   45.5900 C   0  0  0  0  0  0  0  0  0  0  0  0
   54.3778   26.0671   45.7138 H   0  0  0  0  0  0  0  0  0  0  0  0
   55.7022   25.3334   44.7348 H   0  0  0  0  0  0  0  0  0  0  0  0
   54.1590   23.9550   45.3320 C   0  0  0  0  0  0  0  0  0  0  0  0
   53.8910   23.4915   46.2929 H   0  0  0  0  0  0  0  0  0  0  0  0
   53.2486   24.2624   44.7966 H   0  0  0  0  0  0  0  0  0  0  0  0
   54.8980   22.9740   44.5050 N   0  0  0  0  0  0  0  0  0  0  0  0
   55.8100   23.6350   43.5540 C   0  0  0  0  0  0  0  0  0  0  0  0
   55.2365   24.3294   42.9225 H   0  0  0  0  0  0  0  0  0  0  0  0
   56.5776   24.1875   44.1156 H   0  0  0  0  0  0  0  0  0  0  0  0
   56.4980   22.5810   42.6600 C   0  0  0  0  0  0  0  0  0  0  0  0
   56.1079   22.6770   41.6360 H   0  0  0  0  0  0  0  0  0  0  0  0
   57.5819   22.7652   42.6963 H   0  0  0  0  0  0  0  0  0  0  0  0
   56.2680   21.2580   43.1130 O   0  0  0  0  0  0  0  0  0  0  0  0
   56.5990   21.1560   44.4830 C   0  0  0  0  0  0  0  0  0  0  0  0
   56.5095   20.1058   44.7979 H   0  0  0  0  0  0  0  0  0  0  0  0
   57.6302   21.5126   44.6228 H   0  0  0  0  0  0  0  0  0  0  0  0
   55.6570   22.0230   45.3430 C   0  0  0  0  0  0  0  0  0  0  0  0
   54.9502   21.3681   45.8737 H   0  0  0  0  0  0  0  0  0  0  0  0
   56.2649   22.5956   46.0589 H   0  0  0  0  0  0  0  0  0  0  0  0
   59.2440   28.6300   45.4900 C   0  0  0  0  0  0  0  0  0  0  0  0
   60.3196   28.4442   45.6266 H   0  0  0  0  0  0  0  0  0  0  0  0
   58.7910   29.9320   45.2760 C   0  0  0  0  0  0  0  0  0  0  0  0
   59.5106   30.7637   45.2524 H   0  0  0  0  0  0  0  0  0  0  0  0
   57.4190   30.1890   45.0900 C   0  0  0  0  0  0  0  0  0  0  0  0
   56.9280   31.4860   44.8750 O   0  0  0  0  0  0  0  0  0  0  0  0
   57.7410   32.6530   44.7800 C   0  0  0  0  0  0  0  0  0  0  0  0
   57.9896   33.0099   45.7903 H   0  0  0  0  0  0  0  0  0  0  0  0
   58.6673   32.4114   44.2382 H   0  0  0  0  0  0  0  0  0  0  0  0
   57.1934   33.4382   44.2382 H   0  0  0  0  0  0  0  0  0  0  0  0
  1  2  1  0
  2  3  1  0
  3  4  2  0
  4  5  1  0
  4  6  1  0
  6  7  1  0
  7  8  1  0
  7  9  2  0
  9 10  1  0
  9 11  1  0
 11 12  2  0
 11 13  1  0
 13 14  1  0
 14 15  1  0
 14 16  1  0
 14 17  1  0
 17 18  1  0
 17 19  1  0
 17 20  1  0
 20 21  1  0
 21 22  1  0
 21 23  1  0
 21 24  1  0
 24 25  1  0
 24 26  1  0
 24 27  1  0
 27 28  1  0
 28 29  1  0
 28 30  1  0
 28 31  1  0
 31 32  1  0
 31 33  1  0
  6 34  2  0
 34 35  1  0
 34 36  1  0
 36 37  1  0
 36 38  2  0
 38 39  1  0
 39 40  1  0
 40 41  1  0
 40 42  1  0
 40 43  1  0
 38  3  1  0
 31 20  1  0
M  CHG  1  13  -1
M  END
>  <UniqueID>  (29) 
28

>  <SMILES>  (29) 
COc1ccc(/C=C/C(=O)[N-]CCN2CCOCC2)cc1O

>  <Energy>  (29) 
55.85235401853609

>  <Genealogy>  (29) 
COc1ccc(C=CC(=O)[N-]CCN2CCOCC2)cc1O (protonated)
COc1ccc(/C=C/C(=O)[N-]CCN2CCOCC2)cc1O (cis-trans isomerization)
COc1ccc(/C=C/C(=O)[N-]CCN2CCOCC2)cc1O (3D coordinates assigned)
COc1ccc(/C=C/C(=O)[N-]CCN2CCOCC2)cc1O (nonaromatic ring conformer: 55.85235401853609 kcal/mol)

>  <smiles>  (29) 
COc1ccc(C=CC(=O)NCCN2CCOCC2)cc1O

>  <score_type>  (29) 
oracle

>  <origin>  (29) 
adg

>  <m_score__min__energy>  (29) 
-9.2300000000000004

>  <m_primary>  (29) 
energy

$$$$
29:0
     RDKit          3D

 49 52  0  0  0  0  0  0  0  0999 V2000
   55.9500   25.3070   45.3980 O   0  0  0  0  0  0  0  0  0  0  0  0
   56.5390   26.3420   45.8150 C   0  0  0  0  0  0  0  0  0  0  0  0
   57.8880   26.2060   46.4760 C   0  0  0  0  0  0  0  0  0  0  0  0
   58.4610   27.5150   46.7930 N   0  0  0  0  0  0  0  0  0  0  0  0
   59.8220   27.6680   47.2330 C   0  0  0  0  0  0  0  0  0  0  0  0
   60.5770   26.6580   47.2760 O   0  0  0  0  0  0  0  0  0  0  0  0
   60.3610   28.9950   47.6180 C   0  0  0  0  0  0  0  0  0  0  0  0
   60.5230   29.9960   46.6430 C   0  0  0  0  0  0  0  0  0  0  0  0
   61.0340   31.2510   46.9910 C   0  0  0  0  0  0  0  0  0  0  0  0
   61.3910   31.5250   48.3160 C   0  0  0  0  0  0  0  0  0  0  0  0
   62.0590   33.0930   48.7590 S   0  0  0  0  0  0  0  0  0  0  0  0
   63.4810   33.1730   48.2790 O   0  0  0  0  0  0  0  0  0  0  0  0
   62.0480   33.2500   50.2560 O   0  0  0  0  0  0  0  0  0  0  0  0
   61.1150   34.3530   48.0050 N   0  0  0  0  0  0  0  0  0  0  0  0
   61.1650   34.2520   46.5470 C   0  0  0  0  0  0  0  0  0  0  0  0
   59.8870   34.8890   46.0300 C   0  0  0  0  0  0  0  0  0  0  0  0
   58.9100   34.8250   47.1930 C   0  0  0  0  0  0  0  0  0  0  0  0
   59.6990   34.2420   48.3580 C   0  0  0  0  0  0  0  0  0  0  0  0
   61.2530   30.5270   49.2880 C   0  0  0  0  0  0  0  0  0  0  0  0
   60.7430   29.2720   48.9450 C   0  0  0  0  0  0  0  0  0  0  0  0
   55.8880   27.6110   45.6250 N   0  0  0  0  0  0  0  0  0  0  0  0
   56.3880   28.7190   45.1590 C   0  0  0  0  0  0  0  0  0  0  0  0
   56.3180   29.0960   43.8530 N   0  0  0  0  0  0  0  0  0  0  0  0
   56.9520   30.2770   43.8590 C   0  0  0  0  0  0  0  0  0  0  0  0
   57.1860   31.1250   42.7780 C   0  0  0  0  0  0  0  0  0  0  0  0
   57.8830   32.3220   43.0280 C   0  0  0  0  0  0  0  0  0  0  0  0
   58.3200   32.6360   44.3360 C   0  0  0  0  0  0  0  0  0  0  0  0
   58.0650   31.7540   45.4020 C   0  0  0  0  0  0  0  0  0  0  0  0
   57.3740   30.5780   45.1170 C   0  0  0  0  0  0  0  0  0  0  0  0
   57.0280   29.6020   45.9690 N   0  0  0  0  0  0  0  0  0  0  0  0
   57.7744   25.6301   47.4063 H   0  0  0  0  0  0  0  0  0  0  0  0
   58.5652   25.6910   45.7787 H   0  0  0  0  0  0  0  0  0  0  0  0
   57.8810   28.3580   46.5870 H   0  0  0  0  0  0  0  0  0  0  0  0
   60.2457   29.7903   45.5986 H   0  0  0  0  0  0  0  0  0  0  0  0
   61.1557   32.0258   46.2197 H   0  0  0  0  0  0  0  0  0  0  0  0
   62.0425   34.7894   46.1581 H   0  0  0  0  0  0  0  0  0  0  0  0
   61.2487   33.2044   46.2221 H   0  0  0  0  0  0  0  0  0  0  0  0
   60.0683   35.9333   45.7358 H   0  0  0  0  0  0  0  0  0  0  0  0
   59.5006   34.3708   45.1399 H   0  0  0  0  0  0  0  0  0  0  0  0
   58.5436   35.8317   47.4427 H   0  0  0  0  0  0  0  0  0  0  0  0
   58.0284   34.2131   46.9513 H   0  0  0  0  0  0  0  0  0  0  0  0
   59.4920   34.8092   49.2775 H   0  0  0  0  0  0  0  0  0  0  0  0
   59.4180   33.1944   48.5410 H   0  0  0  0  0  0  0  0  0  0  0  0
   61.5477   30.7319   50.3278 H   0  0  0  0  0  0  0  0  0  0  0  0
   60.6392   28.4951   49.7168 H   0  0  0  0  0  0  0  0  0  0  0  0
   56.8387   30.8682   41.7664 H   0  0  0  0  0  0  0  0  0  0  0  0
   58.0891   33.0175   42.2011 H   0  0  0  0  0  0  0  0  0  0  0  0
   58.8623   33.5750   44.5208 H   0  0  0  0  0  0  0  0  0  0  0  0
   58.3993   31.9846   46.4243 H   0  0  0  0  0  0  0  0  0  0  0  0
  1  2  2  0
  2  3  1  0
  3  4  1  0
  4  5  1  0
  5  6  2  0
  5  7  1  0
  7  8  2  0
  8  9  1  0
  9 10  2  0
 10 11  1  0
 11 12  2  0
 11 13  2  0
 11 14  1  0
 14 15  1  0
 15 16  1  0
 16 17  1  0
 17 18  1  0
 10 19  1  0
 19 20  2  0
  2 21  1  0
 21 22  2  3
 22 23  1  0
 23 24  1  0
 24 25  2  0
 25 26  1  0
 26 27  2  0
 27 28  1  0
 28 29  2  0
 29 30  1  0
 20  7  1  0
 30 22  1  0
 18 14  1  0
 29 24  1  0
  3 31  1  0
  3 32  1  0
  4 33  1  0
  8 34  1  0
  9 35  1  0
 15 36  1  0
 15 37  1  0
 16 38  1  0
 16 39  1  0
 17 40  1  0
 17 41  1  0
 18 42  1  0
 18 43  1  0
 19 44  1  0
 20 45  1  0
 25 46  1  0
 26 47  1  0
 27 48  1  0
 28 49  1  0
M  CHG  2  23  -1  30  -1
M  END
>  <UniqueID>  (30) 
29

>  <SMILES>  (30) 
O=C(CNC(=O)c1ccc(S(=O)(=O)N2CCCC2)cc1)N=c1[n-]c2ccccc2[n-]1

>  <Energy>  (30) 
92.53238024624247

>  <Genealogy>  (30) 
O=C(CNC(=O)c1ccc(S(=O)(=O)N2CCCC2)cc1)N=c1[n-]c2ccccc2[n-]1 (protonated)
O=C(CNC(=O)c1ccc(S(=O)(=O)N2CCCC2)cc1)N=c1[n-]c2ccccc2[n-]1 (3D coordinates assigned)
O=C(CNC(=O)c1ccc(S(=O)(=O)N2CCCC2)cc1)N=c1[n-]c2ccccc2[n-]1 (nonaromatic ring conformer: 92.53238024624247 kcal/mol)

>  <smiles>  (30) 
O=C(CNC(=O)c1ccc(S(=O)(=O)N2CCCC2)cc1)N=c1[nH]c2ccccc2[nH]1

>  <score_type>  (30) 
oracle

>  <origin>  (30) 
adg

>  <m_score__min__energy>  (30) 
-12.029999999999999

>  <m_primary>  (30) 
energy

$$$$
30:0
     RDKit          3D

 50 53  0  0  0  0  0  0  0  0999 V2000
   58.2330   30.0920   43.8890 C   0  0  0  0  0  0  0  0  0  0  0  0
   58.2210   29.7740   45.1930 C   0  0  0  0  0  0  0  0  0  0  0  0
   58.0500   28.5010   45.7620 C   0  0  0  0  0  0  0  0  0  0  0  0
   57.7050   27.3210   45.2100 C   0  0  0  0  0  0  0  0  0  0  0  0
   57.1880   26.1520   45.9360 C   0  0  0  0  0  0  0  0  0  0  0  0
   57.9750   25.2230   46.5040 N   0  0  0  0  0  0  0  0  0  0  0  0
   57.1010   24.4380   47.1720 C   0  0  0  0  0  0  0  0  0  0  0  0
   57.4640   23.4300   47.8310 O   0  0  0  0  0  0  0  0  0  0  0  0
   55.8120   24.8270   47.0900 N   0  0  0  0  0  0  0  0  0  0  0  0
   55.8850   25.9230   46.3180 C   0  0  0  0  0  0  0  0  0  0  0  0
   54.7890   26.7130   45.9950 O   0  0  0  0  0  0  0  0  0  0  0  0
   58.2940   28.6480   47.1190 C   0  0  0  0  0  0  0  0  0  0  0  0
   58.5510   29.9850   47.3380 C   0  0  0  0  0  0  0  0  0  0  0  0
   58.8090   30.5990   48.6790 C   0  0  0  0  0  0  0  0  0  0  0  0
   58.4910   30.6700   46.1750 N   0  0  0  0  0  0  0  0  0  0  0  0
   58.7540   32.0770   46.0230 C   0  0  0  0  0  0  0  0  0  0  0  0
   57.7410   32.9200   45.5340 C   0  0  0  0  0  0  0  0  0  0  0  0
   56.4880   32.4030   45.2230 O   0  0  0  0  0  0  0  0  0  0  0  0
   57.9870   34.2830   45.3520 C   0  0  0  0  0  0  0  0  0  0  0  0
   59.2410   34.8140   45.6510 C   0  0  0  0  0  0  0  0  0  0  0  0
   60.2560   33.9850   46.1330 C   0  0  0  0  0  0  0  0  0  0  0  0
   60.0290   32.6110   46.3150 C   0  0  0  0  0  0  0  0  0  0  0  0
   61.1160   31.7570   46.8470 C   0  0  0  0  0  0  0  0  0  0  0  0
   61.2590   30.5920   46.3840 O   0  0  0  0  0  0  0  0  0  0  0  0
   61.9970   32.2150   47.8950 N   0  0  0  0  0  0  0  0  0  0  0  0
   62.6590   31.2170   48.7490 C   0  0  0  0  0  0  0  0  0  0  0  0
   63.4380   31.8810   49.8900 C   0  0  0  0  0  0  0  0  0  0  0  0
   64.3990   32.9520   49.3540 C   0  0  0  0  0  0  0  0  0  0  0  0
   63.7610   33.8880   48.3040 C   0  0  0  0  0  0  0  0  0  0  0  0
   62.2590   33.6480   48.1040 C   0  0  0  0  0  0  0  0  0  0  0  0
   58.3776   31.1375   43.5792 H   0  0  0  0  0  0  0  0  0  0  0  0
   58.0982   29.3071   43.1302 H   0  0  0  0  0  0  0  0  0  0  0  0
   57.8204   27.2241   44.1204 H   0  0  0  0  0  0  0  0  0  0  0  0
   58.2844   27.8503   47.8763 H   0  0  0  0  0  0  0  0  0  0  0  0
   58.5124   29.8930   49.4687 H   0  0  0  0  0  0  0  0  0  0  0  0
   59.8801   30.8296   48.7767 H   0  0  0  0  0  0  0  0  0  0  0  0
   58.2241   31.5255   48.7767 H   0  0  0  0  0  0  0  0  0  0  0  0
   57.1897   34.9387   44.9720 H   0  0  0  0  0  0  0  0  0  0  0  0
   59.4311   35.8878   45.5070 H   0  0  0  0  0  0  0  0  0  0  0  0
   61.2413   34.4115   46.3721 H   0  0  0  0  0  0  0  0  0  0  0  0
   61.8957   30.5510   49.1777 H   0  0  0  0  0  0  0  0  0  0  0  0
   63.3702   30.6507   48.1298 H   0  0  0  0  0  0  0  0  0  0  0  0
   62.7265   32.3519   50.5842 H   0  0  0  0  0  0  0  0  0  0  0  0
   64.0281   31.1089   50.4055 H   0  0  0  0  0  0  0  0  0  0  0  0
   64.7445   33.5637   50.2004 H   0  0  0  0  0  0  0  0  0  0  0  0
   65.2241   32.4231   48.8546 H   0  0  0  0  0  0  0  0  0  0  0  0
   63.9072   34.9283   48.6301 H   0  0  0  0  0  0  0  0  0  0  0  0
   64.2532   33.6797   47.3426 H   0  0  0  0  0  0  0  0  0  0  0  0
   61.7143   33.9907   48.9961 H   0  0  0  0  0  0  0  0  0  0  0  0
   61.9206   34.2076   47.2195 H   0  0  0  0  0  0  0  0  0  0  0  0
  1  2  2  0
  2  3  1  0
  3  4  2  3
  4  5  1  0
  5  6  1  0
  6  7  1  0
  7  8  2  0
  7  9  1  0
  9 10  1  0
 10 11  1  0
  3 12  1  0
 12 13  2  0
 13 14  1  0
 13 15  1  0
 15 16  1  0
 16 17  2  0
 17 18  1  0
 17 19  1  0
 19 20  2  0
 20 21  1  0
 21 22  2  0
 22 23  1  0
 23 24  2  0
 23 25  1  0
 25 26  1  0
 26 27  1  0
 27 28  1  0
 28 29  1  0
 29 30  1  0
 15  2  1  0
 22 16  1  0
 30 25  1  0
 10  5  2  0
  1 31  1  0
  1 32  1  0
  4 33  1  0
 12 34  1  0
 14 35  1  0
 14 36  1  0
 14 37  1  0
 19 38  1  0
 20 39  1  0
 21 40  1  0
 26 41  1  0
 26 42  1  0
 27 43  1  0
 27 44  1  0
 28 45  1  0
 28 46  1  0
 29 47  1  0
 29 48  1  0
 30 49  1  0
 30 50  1  0
M  CHG  4   6  -1   9  -1  11  -1  18  -1
M  END
>  <UniqueID>  (31) 
30

>  <SMILES>  (31) 
C=c1c(=Cc2[n-]c(=O)[n-]c2[O-])cc(C)n1-c1c([O-])cccc1C(=O)N1CCCCC1

>  <Energy>  (31) 
134.3073268481723

>  <Genealogy>  (31) 
C=c1c(=Cc2[n-]c(=O)[n-]c2[O-])cc(C)n1-c1c([O-])cccc1C(=O)N1CCCCC1 (protonated)
C=c1c(=Cc2[n-]c(=O)[n-]c2[O-])cc(C)n1-c1c([O-])cccc1C(=O)N1CCCCC1 (3D coordinates assigned)
C=c1c(=Cc2[n-]c(=O)[n-]c2[O-])cc(C)n1-c1c([O-])cccc1C(=O)N1CCCCC1 (nonaromatic ring conformer: 134.3073268481723 kcal/mol)

>  <smiles>  (31) 
C=c1c(=Cc2[nH]c(=O)[nH]c2O)cc(C)n1-c1c(O)cccc1C(=O)N1CCCCC1

>  <score_type>  (31) 
oracle

>  <origin>  (31) 
adg

>  <m_score__min__energy>  (31) 
-17.890000000000001

>  <m_primary>  (31) 
energy

$$$$
31:0
     RDKit          3D

 40 41  0  0  0  0  0  0  0  0999 V2000
   61.0437   35.0569   49.5971 H   0  0  0  0  0  0  0  0  0  0  0  0
   60.2760   34.3060   49.3590 C   0  0  0  0  0  0  0  0  0  0  0  0
   59.9430   33.3610   50.2780 N   0  0  0  0  0  0  0  0  0  0  0  0
   59.0060   32.4050   50.0360 C   0  0  0  0  0  0  0  0  0  0  0  0
   58.7590   31.5370   50.9780 N   0  0  0  0  0  0  0  0  0  0  0  0
   58.1550   30.2370   50.8810 C   0  0  0  0  0  0  0  0  0  0  0  0
   57.2210   29.8940   51.6540 O   0  0  0  0  0  0  0  0  0  0  0  0
   58.5720   29.3610   49.8300 N   0  0  0  0  0  0  0  0  0  0  0  0
   59.9680   29.0510   49.5410 C   0  0  0  0  0  0  0  0  0  0  0  0
   60.0625   27.9764   49.3257 H   0  0  0  0  0  0  0  0  0  0  0  0
   60.5790   29.3193   50.4155 H   0  0  0  0  0  0  0  0  0  0  0  0
   60.4570   29.8480   48.3370 C   0  0  0  0  0  0  0  0  0  0  0  0
   61.0030   30.7378   48.6835 H   0  0  0  0  0  0  0  0  0  0  0  0
   61.1260   29.2209   47.7293 H   0  0  0  0  0  0  0  0  0  0  0  0
   59.5949   30.1603   47.7293 H   0  0  0  0  0  0  0  0  0  0  0  0
   58.3270   32.4140   48.7980 C   0  0  0  0  0  0  0  0  0  0  0  0
   57.5462   31.6675   48.5907 H   0  0  0  0  0  0  0  0  0  0  0  0
   58.6530   33.3800   47.8330 C   0  0  0  0  0  0  0  0  0  0  0  0
   57.9730   33.3780   46.4870 C   0  0  0  0  0  0  0  0  0  0  0  0
   57.0915   32.7217   46.5344 H   0  0  0  0  0  0  0  0  0  0  0  0
   57.6837   34.4122   46.2486 H   0  0  0  0  0  0  0  0  0  0  0  0
   58.9070   32.8760   45.3770 C   0  0  0  0  0  0  0  0  0  0  0  0
   59.4211   33.7396   44.9299 H   0  0  0  0  0  0  0  0  0  0  0  0
   59.6216   32.1736   45.8309 H   0  0  0  0  0  0  0  0  0  0  0  0
   58.1500   32.1270   44.2730 C   0  0  0  0  0  0  0  0  0  0  0  0
   57.0696   32.1831   44.4719 H   0  0  0  0  0  0  0  0  0  0  0  0
   58.3799   32.5924   43.3032 H   0  0  0  0  0  0  0  0  0  0  0  0
   58.5510   30.7590   44.2370 O   0  0  0  0  0  0  0  0  0  0  0  0
   57.7300   29.7230   44.6970 C   0  0  0  0  0  0  0  0  0  0  0  0
   58.2700   28.5220   45.1930 C   0  0  0  0  0  0  0  0  0  0  0  0
   60.0060   28.2900   45.3390 Cl  0  0  0  0  0  0  0  0  0  0  0  0
   57.4140   27.5090   45.6320 C   0  0  0  0  0  0  0  0  0  0  0  0
   57.8251   26.5624   46.0127 H   0  0  0  0  0  0  0  0  0  0  0  0
   56.0330   27.7070   45.5840 C   0  0  0  0  0  0  0  0  0  0  0  0
   55.1700   26.7080   46.0160 O   0  0  0  0  0  0  0  0  0  0  0  0
   55.5300   28.8810   45.1200 N   0  0  0  0  0  0  0  0  0  0  0  0
   56.3370   29.8840   44.6850 C   0  0  0  0  0  0  0  0  0  0  0  0
   55.8260   30.9560   44.2640 O   0  0  0  0  0  0  0  0  0  0  0  0
   59.6470   34.3250   48.1170 C   0  0  0  0  0  0  0  0  0  0  0  0
   59.9286   35.0764   47.3646 H   0  0  0  0  0  0  0  0  0  0  0  0
  1  2  1  0
  2  3  1  0
  3  4  1  0
  4  5  2  0
  5  6  1  0
  6  7  2  0
  6  8  1  0
  8  9  1  0
  9 10  1  0
  9 11  1  0
  9 12  1  0
 12 13  1  0
 12 14  1  0
 12 15  1  0
  4 16  1  0
 16 17  1  0
 16 18  2  0
 18 19  1  0
 19 20  1  0
 19 21  1  0
 19 22  1  0
 22 23  1  0
 22 24  1  0
 22 25  1  0
 25 26  1  0
 25 27  1  0
 25 28  1  0
 28 29  1  0
 29 30  2  0
 30 31  1  0
 30 32  1  0
 32 33  1  0
 32 34  2  0
 34 35  1  0
 34 36  1  0
 36 37  1  0
 37 38  2  0
 18 39  1  0
 39 40  1  0
 39  2  2  0
 37 29  1  0
M  CHG  4   3  -1   8  -1  35  -1  36  -1
M  END
>  <UniqueID>  (32) 
31

>  <SMILES>  (32) 
CC[N-]C(=O)/N=c1\cc(CCCOc2c(Cl)cc([O-])[n-]c2=O)cc[n-]1

>  <Energy>  (32) 
46.779669303765566

>  <Genealogy>  (32) 
CC[N-]C(=O)N=c1cc(CCCOc2c(Cl)cc([O-])[n-]c2=O)cc[n-]1 (protonated)
CC[N-]C(=O)/N=c1\cc(CCCOc2c(Cl)cc([O-])[n-]c2=O)cc[n-]1 (cis-trans isomerization)
CC[N-]C(=O)/N=c1\cc(CCCOc2c(Cl)cc([O-])[n-]c2=O)cc[n-]1 (3D coordinates assigned)
CC[N-]C(=O)/N=c1\cc(CCCOc2c(Cl)cc([O-])[n-]c2=O)cc[n-]1 (optimized conformer: 46.779669303765566 kcal/mol)

>  <smiles>  (32) 
CCNC(=O)N=c1cc(CCCOc2c(Cl)cc(O)[nH]c2=O)cc[nH]1

>  <score_type>  (32) 
oracle

>  <origin>  (32) 
adg

>  <m_score__min__energy>  (32) 
-14.390000000000001

>  <m_primary>  (32) 
energy

$$$$
32:0
     RDKit          3D

 56 59  0  0  0  0  0  0  0  0999 V2000
   59.4420   34.3750   49.0240 O   0  0  0  0  0  0  0  0  0  0  0  0
   59.7690   33.5260   48.1550 C   0  0  0  0  0  0  0  0  0  0  0  0
   60.8910   32.6710   48.4090 N   0  0  0  0  0  0  0  0  0  0  0  0
   61.9310   32.3530   47.4320 C   0  0  0  0  0  0  0  0  0  0  0  0
   63.3100   32.2400   48.0690 C   0  0  0  0  0  0  0  0  0  0  0  0
   63.7640   33.4740   47.3010 C   0  0  0  0  0  0  0  0  0  0  0  0
   62.3840   33.5930   46.6730 C   0  0  0  0  0  0  0  0  0  0  0  0
   59.0210   33.4760   46.8860 C   0  0  0  0  0  0  0  0  0  0  0  0
   58.9390   34.6050   46.0580 C   0  0  0  0  0  0  0  0  0  0  0  0
   58.2090   34.5520   44.8690 C   0  0  0  0  0  0  0  0  0  0  0  0
   57.5650   33.3700   44.4950 C   0  0  0  0  0  0  0  0  0  0  0  0
   57.6620   32.2260   45.2940 C   0  0  0  0  0  0  0  0  0  0  0  0
   56.9820   31.0650   44.8940 O   0  0  0  0  0  0  0  0  0  0  0  0
   57.4340   29.7520   45.0900 C   0  0  0  0  0  0  0  0  0  0  0  0
   58.8000   29.4560   45.2440 C   0  0  0  0  0  0  0  0  0  0  0  0
   59.2200   28.1350   45.4160 C   0  0  0  0  0  0  0  0  0  0  0  0
   58.2870   27.0890   45.4080 C   0  0  0  0  0  0  0  0  0  0  0  0
   58.7570   25.7060   45.6190 C   0  0  0  0  0  0  0  0  0  0  0  0
   58.0560   24.6020   45.3240 C   0  0  0  0  0  0  0  0  0  0  0  0
   56.7190   23.9650   46.2870 S   0  0  0  0  0  0  0  0  0  0  0  0
   55.8940   25.0890   46.8510 O   0  0  0  0  0  0  0  0  0  0  0  0
   57.2900   23.1520   47.4160 O   0  0  0  0  0  0  0  0  0  0  0  0
   55.7150   22.9340   45.2860 N   0  0  0  0  0  0  0  0  0  0  0  0
   56.1060   21.5160   45.3920 C   0  0  0  0  0  0  0  0  0  0  0  0
   57.4060   21.1980   44.6120 C   0  0  0  0  0  0  0  0  0  0  0  0
   57.7680   22.2060   43.6870 O   0  0  0  0  0  0  0  0  0  0  0  0
   56.6330   22.6280   42.9630 C   0  0  0  0  0  0  0  0  0  0  0  0
   55.6690   23.3990   43.8820 C   0  0  0  0  0  0  0  0  0  0  0  0
   56.9220   27.3860   45.2700 C   0  0  0  0  0  0  0  0  0  0  0  0
   56.5000   28.7070   45.0920 C   0  0  0  0  0  0  0  0  0  0  0  0
   55.1470   28.9810   44.9280 O   0  0  0  0  0  0  0  0  0  0  0  0
   58.3920   32.2860   46.4960 C   0  0  0  0  0  0  0  0  0  0  0  0
   61.4903   31.4942   46.9046 H   0  0  0  0  0  0  0  0  0  0  0  0
   63.3117   32.3651   49.1619 H   0  0  0  0  0  0  0  0  0  0  0  0
   63.8795   31.3013   48.0023 H   0  0  0  0  0  0  0  0  0  0  0  0
   64.0406   34.3246   47.9413 H   0  0  0  0  0  0  0  0  0  0  0  0
   64.6621   33.4353   46.6670 H   0  0  0  0  0  0  0  0  0  0  0  0
   61.8431   34.5104   46.9482 H   0  0  0  0  0  0  0  0  0  0  0  0
   62.2728   33.6481   45.5800 H   0  0  0  0  0  0  0  0  0  0  0  0
   59.4512   35.5348   46.3461 H   0  0  0  0  0  0  0  0  0  0  0  0
   58.1409   35.4419   44.2260 H   0  0  0  0  0  0  0  0  0  0  0  0
   56.9775   33.3387   43.5656 H   0  0  0  0  0  0  0  0  0  0  0  0
   59.5413   30.2686   45.2289 H   0  0  0  0  0  0  0  0  0  0  0  0
   60.2882   27.9145   45.5584 H   0  0  0  0  0  0  0  0  0  0  0  0
   59.7593   25.5707   46.0515 H   0  0  0  0  0  0  0  0  0  0  0  0
   58.3344   24.0511   44.4135 H   0  0  0  0  0  0  0  0  0  0  0  0
   56.2628   21.2719   46.4530 H   0  0  0  0  0  0  0  0  0  0  0  0
   55.2974   20.9131   44.9529 H   0  0  0  0  0  0  0  0  0  0  0  0
   58.2260   21.0780   45.3354 H   0  0  0  0  0  0  0  0  0  0  0  0
   57.2219   20.2795   44.0354 H   0  0  0  0  0  0  0  0  0  0  0  0
   56.9513   23.2838   42.1392 H   0  0  0  0  0  0  0  0  0  0  0  0
   56.1152   21.7440   42.5626 H   0  0  0  0  0  0  0  0  0  0  0  0
   55.9377   24.4654   43.8566 H   0  0  0  0  0  0  0  0  0  0  0  0
   54.6486   23.2245   43.5101 H   0  0  0  0  0  0  0  0  0  0  0  0
   56.1800   26.5746   45.3021 H   0  0  0  0  0  0  0  0  0  0  0  0
   58.4693   31.3929   47.1334 H   0  0  0  0  0  0  0  0  0  0  0  0
  1  2  2  0
  2  3  1  0
  3  4  1  0
  4  5  1  0
  5  6  1  0
  6  7  1  0
  2  8  1  0
  8  9  2  0
  9 10  1  0
 10 11  2  0
 11 12  1  0
 12 13  1  0
 13 14  1  0
 14 15  2  0
 15 16  1  0
 16 17  2  0
 17 18  1  0
 18 19  2  3
 19 20  1  0
 20 21  2  0
 20 22  2  0
 20 23  1  0
 23 24  1  0
 24 25  1  0
 25 26  1  0
 26 27  1  0
 27 28  1  0
 17 29  1  0
 29 30  2  0
 30 31  1  0
 12 32  2  0
  7  4  1  0
 32  8  1  0
 30 14  1  0
 28 23  1  0
  4 33  1  0
  5 34  1  0
  5 35  1  0
  6 36  1  0
  6 37  1  0
  7 38  1  0
  7 39  1  0
  9 40  1  0
 10 41  1  0
 11 42  1  0
 15 43  1  0
 16 44  1  0
 18 45  1  0
 19 46  1  0
 24 47  1  0
 24 48  1  0
 25 49  1  0
 25 50  1  0
 27 51  1  0
 27 52  1  0
 28 53  1  0
 28 54  1  0
 29 55  1  0
 32 56  1  0
M  CHG  2   3  -1  31  -1
M  END
>  <UniqueID>  (33) 
32

>  <SMILES>  (33) 
O=C([N-]C1CCC1)c1cccc(Oc2ccc(C=CS(=O)(=O)N3CCOCC3)cc2[O-])c1

>  <Energy>  (33) 
146.58678908654022

>  <Genealogy>  (33) 
O=C([N-]C1CCC1)c1cccc(Oc2ccc(C=CS(=O)(=O)N3CCOCC3)cc2[O-])c1 (protonated)
O=C([N-]C1CCC1)c1cccc(Oc2ccc(C=CS(=O)(=O)N3CCOCC3)cc2[O-])c1 (3D coordinates assigned)
O=C([N-]C1CCC1)c1cccc(Oc2ccc(C=CS(=O)(=O)N3CCOCC3)cc2[O-])c1 (nonaromatic ring conformer: 146.58678908654022 kcal/mol)

>  <smiles>  (33) 
O=C(NC1CCC1)c1cccc(Oc2ccc(C=CS(=O)(=O)N3CCOCC3)cc2O)c1

>  <score_type>  (33) 
oracle

>  <origin>  (33) 
adg

>  <m_score__min__energy>  (33) 
-15.51

>  <m_primary>  (33) 
energy

$$$$
33:0
     RDKit          3D

 32 34  0  0  0  0  0  0  0  0999 V2000
   60.7420   31.8440   47.2060 C   0  0  0  0  0  0  0  0  0  0  0  0
   59.4640   31.3980   46.5440 C   0  0  0  0  0  0  0  0  0  0  0  0
   58.6060   32.3590   45.9920 C   0  0  0  0  0  0  0  0  0  0  0  0
   57.4210   31.9490   45.3770 C   0  0  0  0  0  0  0  0  0  0  0  0
   56.6440   32.8040   44.8770 O   0  0  0  0  0  0  0  0  0  0  0  0
   57.1060   30.6600   45.3150 O   0  0  0  0  0  0  0  0  0  0  0  0
   57.8800   29.7060   45.8220 C   0  0  0  0  0  0  0  0  0  0  0  0
   57.4790   28.3700   45.7180 C   0  0  0  0  0  0  0  0  0  0  0  0
   58.2670   27.3460   46.2530 C   0  0  0  0  0  0  0  0  0  0  0  0
   57.8240   26.0210   46.1130 O   0  0  0  0  0  0  0  0  0  0  0  0
   57.2540   25.4730   44.9550 C   0  0  0  0  0  0  0  0  0  0  0  0
   57.8770   25.5300   43.8610 O   0  0  0  0  0  0  0  0  0  0  0  0
   55.9420   24.7690   45.0340 C   0  0  0  0  0  0  0  0  0  0  0  0
   54.8060   25.4040   45.5780 C   0  0  0  0  0  0  0  0  0  0  0  0
   54.8700   26.7130   46.0440 O   0  0  0  0  0  0  0  0  0  0  0  0
   53.6190   24.7430   45.6430 N   0  0  0  0  0  0  0  0  0  0  0  0
   53.4990   23.4690   45.1850 C   0  0  0  0  0  0  0  0  0  0  0  0
   52.3910   22.8740   45.2520 O   0  0  0  0  0  0  0  0  0  0  0  0
   54.5720   22.8360   44.6540 N   0  0  0  0  0  0  0  0  0  0  0  0
   55.7820   23.4460   44.5670 C   0  0  0  0  0  0  0  0  0  0  0  0
   56.7490   22.8080   44.0720 O   0  0  0  0  0  0  0  0  0  0  0  0
   59.4880   27.6670   46.8720 C   0  0  0  0  0  0  0  0  0  0  0  0
   59.8990   28.9990   46.9800 C   0  0  0  0  0  0  0  0  0  0  0  0
   59.0990   30.0350   46.4620 C   0  0  0  0  0  0  0  0  0  0  0  0
   60.6228   31.8024   48.2987 H   0  0  0  0  0  0  0  0  0  0  0  0
   61.5640   31.1796   46.9013 H   0  0  0  0  0  0  0  0  0  0  0  0
   60.9722   32.8756   46.9013 H   0  0  0  0  0  0  0  0  0  0  0  0
   58.8638   33.4272   46.0427 H   0  0  0  0  0  0  0  0  0  0  0  0
   56.5349   28.1225   45.2106 H   0  0  0  0  0  0  0  0  0  0  0  0
   52.7860   25.2260   46.0490 H   0  0  0  0  0  0  0  0  0  0  0  0
   60.1242   26.8647   47.2740 H   0  0  0  0  0  0  0  0  0  0  0  0
   60.8529   29.2388   47.4725 H   0  0  0  0  0  0  0  0  0  0  0  0
  1  2  1  0
  2  3  2  0
  3  4  1  0
  4  5  2  0
  4  6  1  0
  6  7  1  0
  7  8  2  0
  8  9  1  0
  9 10  1  0
 10 11  1  0
 11 12  2  0
 11 13  1  0
 13 14  2  0
 14 15  1  0
 14 16  1  0
 16 17  1  0
 17 18  2  0
 17 19  1  0
 19 20  1  0
 20 21  2  0
  9 22  2  0
 22 23  1  0
 23 24  2  0
 24  2  1  0
 24  7  1  0
 20 13  1  0
  1 25  1  0
  1 26  1  0
  1 27  1  0
  3 28  1  0
  8 29  1  0
 16 30  1  0
 22 31  1  0
 23 32  1  0
M  CHG  2  15  -1  19  -1
M  END
>  <UniqueID>  (34) 
33

>  <SMILES>  (34) 
Cc1cc(=O)oc2cc(OC(=O)c3c([O-])[nH]c(=O)[n-]c3=O)ccc12

>  <Energy>  (34) 
49.85894448831992

>  <Genealogy>  (34) 
Cc1cc(=O)oc2cc(OC(=O)c3c([O-])[nH]c(=O)[n-]c3=O)ccc12 (protonated)
Cc1cc(=O)oc2cc(OC(=O)c3c([O-])[nH]c(=O)[n-]c3=O)ccc12 (3D coordinates assigned)
Cc1cc(=O)oc2cc(OC(=O)c3c([O-])[nH]c(=O)[n-]c3=O)ccc12 (optimized conformer: 49.85894448831992 kcal/mol)

>  <smiles>  (34) 
Cc1cc(=O)oc2cc(OC(=O)c3c(O)[nH]c(=O)[nH]c3=O)ccc12

>  <score_type>  (34) 
oracle

>  <origin>  (34) 
adg

>  <m_score__min__energy>  (34) 
-12.890000000000001

>  <m_primary>  (34) 
energy

$$$$
34:0
     RDKit          3D

 48 51  0  0  0  0  0  0  0  0999 V2000
   59.5390   29.8440   47.3820 C   0  0  0  0  0  0  0  0  0  0  0  0
   59.1380   30.7110   46.4400 C   0  0  0  0  0  0  0  0  0  0  0  0
   58.4690   30.4150   45.2410 C   0  0  0  0  0  0  0  0  0  0  0  0
   58.2240   29.2380   44.6310 C   0  0  0  0  0  0  0  0  0  0  0  0
   57.4230   28.1360   45.1830 C   0  0  0  0  0  0  0  0  0  0  0  0
   57.9530   27.0870   45.8350 N   0  0  0  0  0  0  0  0  0  0  0  0
   56.8690   26.4110   46.2740 C   0  0  0  0  0  0  0  0  0  0  0  0
   56.9580   25.3390   46.9280 O   0  0  0  0  0  0  0  0  0  0  0  0
   55.6830   26.9800   45.9690 N   0  0  0  0  0  0  0  0  0  0  0  0
   56.0510   28.0800   45.2930 C   0  0  0  0  0  0  0  0  0  0  0  0
   55.1540   29.0250   44.8120 O   0  0  0  0  0  0  0  0  0  0  0  0
   58.0640   31.6310   44.7140 C   0  0  0  0  0  0  0  0  0  0  0  0
   58.5480   32.6130   45.5520 C   0  0  0  0  0  0  0  0  0  0  0  0
   58.3650   34.0850   45.3390 C   0  0  0  0  0  0  0  0  0  0  0  0
   59.1970   32.0580   46.5980 N   0  0  0  0  0  0  0  0  0  0  0  0
   59.8020   32.7770   47.6870 C   0  0  0  0  0  0  0  0  0  0  0  0
   60.9960   33.4780   47.4790 C   0  0  0  0  0  0  0  0  0  0  0  0
   61.5870   34.1830   48.5270 C   0  0  0  0  0  0  0  0  0  0  0  0
   60.9950   34.1890   49.7920 C   0  0  0  0  0  0  0  0  0  0  0  0
   59.8050   33.4770   50.0240 C   0  0  0  0  0  0  0  0  0  0  0  0
   59.1780   33.4950   51.3670 C   0  0  0  0  0  0  0  0  0  0  0  0
   58.9930   34.6000   51.9440 O   0  0  0  0  0  0  0  0  0  0  0  0
   58.7830   32.2760   52.0280 N   0  0  0  0  0  0  0  0  0  0  0  0
   57.5230   32.2070   52.7730 C   0  0  0  0  0  0  0  0  0  0  0  0
   56.5820   31.2320   52.0710 C   0  0  0  0  0  0  0  0  0  0  0  0
   57.2520   29.9580   51.8180 N   0  0  0  0  0  0  0  0  0  0  0  0
   58.6650   29.8750   51.5830 C   0  0  0  0  0  0  0  0  0  0  0  0
   59.1680   28.7930   51.1790 O   0  0  0  0  0  0  0  0  0  0  0  0
   59.5650   31.0430   51.8740 C   0  0  0  0  0  0  0  0  0  0  0  0
   59.2060   32.7750   48.9600 C   0  0  0  0  0  0  0  0  0  0  0  0
   58.0770   32.0500   49.1650 F   0  0  0  0  0  0  0  0  0  0  0  0
   60.0569   30.2093   48.2811 H   0  0  0  0  0  0  0  0  0  0  0  0
   59.3499   28.7678   47.2553 H   0  0  0  0  0  0  0  0  0  0  0  0
   58.6618   29.0893   43.6329 H   0  0  0  0  0  0  0  0  0  0  0  0
   57.4696   31.7836   43.8011 H   0  0  0  0  0  0  0  0  0  0  0  0
   58.3020   34.5914   46.3134 H   0  0  0  0  0  0  0  0  0  0  0  0
   59.2206   34.4828   44.7736 H   0  0  0  0  0  0  0  0  0  0  0  0
   57.4380   34.2612   44.7736 H   0  0  0  0  0  0  0  0  0  0  0  0
   61.4692   33.4726   46.4860 H   0  0  0  0  0  0  0  0  0  0  0  0
   62.5224   34.7362   48.3568 H   0  0  0  0  0  0  0  0  0  0  0  0
   61.4626   34.7542   50.6117 H   0  0  0  0  0  0  0  0  0  0  0  0
   57.7191   31.8571   53.7973 H   0  0  0  0  0  0  0  0  0  0  0  0
   57.0609   33.2044   52.8138 H   0  0  0  0  0  0  0  0  0  0  0  0
   55.7025   31.0571   52.7081 H   0  0  0  0  0  0  0  0  0  0  0  0
   56.2758   31.6675   51.1084 H   0  0  0  0  0  0  0  0  0  0  0  0
   56.6620   29.1160   51.6340 H   0  0  0  0  0  0  0  0  0  0  0  0
   60.1193   30.8486   52.8040 H   0  0  0  0  0  0  0  0  0  0  0  0
   60.2625   31.1697   51.0329 H   0  0  0  0  0  0  0  0  0  0  0  0
  1  2  2  0
  2  3  1  0
  3  4  2  3
  4  5  1  0
  5  6  1  0
  6  7  1  0
  7  8  2  0
  7  9  1  0
  9 10  1  0
 10 11  1  0
  3 12  1  0
 12 13  2  0
 13 14  1  0
 13 15  1  0
 15 16  1  0
 16 17  2  0
 17 18  1  0
 18 19  2  0
 19 20  1  0
 20 21  1  0
 21 22  2  0
 21 23  1  0
 23 24  1  0
 24 25  1  0
 25 26  1  0
 26 27  1  0
 27 28  2  0
 27 29  1  0
 20 30  2  0
 30 31  1  0
 15  2  1  0
 30 16  1  0
 10  5  2  0
 29 23  1  0
  1 32  1  0
  1 33  1  0
  4 34  1  0
 12 35  1  0
 14 36  1  0
 14 37  1  0
 14 38  1  0
 17 39  1  0
 18 40  1  0
 19 41  1  0
 24 42  1  0
 24 43  1  0
 25 44  1  0
 25 45  1  0
 26 46  1  0
 29 47  1  0
 29 48  1  0
M  CHG  3   6  -1   9  -1  11  -1
M  END
>  <UniqueID>  (35) 
34

>  <SMILES>  (35) 
C=c1c(=Cc2[n-]c(=O)[n-]c2[O-])cc(C)n1-c1cccc(C(=O)N2CCNC(=O)C2)c1F

>  <Energy>  (35) 
132.2527283238155

>  <Genealogy>  (35) 
C=c1c(=Cc2[n-]c(=O)[n-]c2[O-])cc(C)n1-c1cccc(C(=O)N2CCNC(=O)C2)c1F (protonated)
C=c1c(=Cc2[n-]c(=O)[n-]c2[O-])cc(C)n1-c1cccc(C(=O)N2CCNC(=O)C2)c1F (3D coordinates assigned)
C=c1c(=Cc2[n-]c(=O)[n-]c2[O-])cc(C)n1-c1cccc(C(=O)N2CCNC(=O)C2)c1F (nonaromatic ring conformer: 132.2527283238155 kcal/mol)

>  <smiles>  (35) 
C=c1c(=Cc2[nH]c(=O)[nH]c2O)cc(C)n1-c1cccc(C(=O)N2CCNC(=O)C2)c1F

>  <score_type>  (35) 
oracle

>  <origin>  (35) 
adg

>  <m_score__min__energy>  (35) 
-16.609999999999999

>  <m_primary>  (35) 
energy

$$$$
35:0
     RDKit          3D

 47 50  0  0  1  0  0  0  0  0999 V2000
   55.1540   23.5100   45.3960 C   0  0  0  0  0  0  0  0  0  0  0  0
   55.2630   24.8820   45.9490 C   0  0  0  0  0  0  0  0  0  0  0  0
   54.3170   25.6770   45.6650 O   0  0  0  0  0  0  0  0  0  0  0  0
   56.3660   25.2610   46.7470 N   0  0  0  0  0  0  0  0  0  0  0  0
   57.0970   26.2840   46.4940 C   0  0  0  0  0  0  0  0  0  0  0  0
   57.0000   26.9010   45.2890 C   0  0  0  0  0  0  0  0  0  0  0  0
   57.7650   27.9960   45.0080 C   0  0  0  0  0  0  0  0  0  0  0  0
   58.6300   28.4260   46.0190 C   0  0  0  0  0  0  0  0  0  0  0  0
   58.7030   27.7800   47.2230 C   0  0  0  0  0  0  0  0  0  0  0  0
   57.9310   26.6990   47.4660 N   0  0  0  0  0  0  0  0  0  0  0  0
   59.4370   29.6370   45.6810 C   0  0  0  0  0  0  0  0  0  0  0  0
   58.5690   30.6600   45.0880 N   0  0  0  0  0  0  0  0  0  0  0  0
   58.5700   32.0060   45.5430 C   0  0  0  0  0  0  0  0  0  0  0  0
   59.4320   32.4860   46.4570 N   0  0  0  0  0  0  0  0  0  0  0  0
   59.3380   33.7810   46.8160 C   0  0  0  0  0  0  0  0  0  0  0  0
   60.1270   34.3120   47.6790 N   0  0  0  0  0  0  0  0  0  0  0  0
   61.4880   33.9080   47.8180 C   0  0  0  0  0  0  0  0  0  0  0  0
   62.2710   33.5320   46.7470 C   0  0  0  0  0  0  0  0  0  0  0  0
   63.5740   33.1590   46.9540 C   0  0  0  0  0  0  0  0  0  0  0  0
   64.1650   33.1380   48.2130 C   0  0  0  0  0  0  0  0  0  0  0  0
   63.3490   33.5230   49.2650 C   0  0  0  0  0  0  0  0  0  0  0  0
   64.0620   33.5100   50.8660 Cl  0  0  0  0  0  0  0  0  0  0  0  0
   62.0370   33.9010   49.0820 C   0  0  0  0  0  0  0  0  0  0  0  0
   58.4010   34.5880   46.2750 N   0  0  0  0  0  0  0  0  0  0  0  0
   57.5440   34.1030   45.3630 C   0  0  0  0  0  0  0  0  0  0  0  0
   56.6910   34.8980   44.8900 O   0  0  0  0  0  0  0  0  0  0  0  0
   57.6130   32.8080   44.9820 N   0  0  0  0  0  0  0  0  0  0  0  0
   57.7060   30.2090   44.0150 C   0  0  0  0  0  0  0  0  0  0  0  0
   57.7620   28.7480   43.7460 C   0  0  0  0  0  0  0  0  0  0  0  0
   55.0964   22.7854   46.2216 H   0  0  0  0  0  0  0  0  0  0  0  0
   54.2470   23.4347   44.7781 H   0  0  0  0  0  0  0  0  0  0  0  0
   56.0377   23.2924   44.7781 H   0  0  0  0  0  0  0  0  0  0  0  0
   56.2997   26.5158   44.5332 H   0  0  0  0  0  0  0  0  0  0  0  0
   59.3945   28.1433   47.9975 H   0  0  0  0  0  0  0  0  0  0  0  0
   57.9640   26.1890   48.3710 H   0  0  0  0  0  0  0  0  0  0  0  0
   59.8992   30.0355   46.5962 H   0  0  0  0  0  0  0  0  0  0  0  0
   60.2214   29.3625   44.9603 H   0  0  0  0  0  0  0  0  0  0  0  0
   61.8516   33.5313   45.7301 H   0  0  0  0  0  0  0  0  0  0  0  0
   64.1796   32.8628   46.0848 H   0  0  0  0  0  0  0  0  0  0  0  0
   65.2118   32.8355   48.3638 H   0  0  0  0  0  0  0  0  0  0  0  0
   61.4260   34.1980   49.9471 H   0  0  0  0  0  0  0  0  0  0  0  0
   58.3400   35.5750   46.5590 H   0  0  0  0  0  0  0  0  0  0  0  0
   56.9560   32.4360   44.2830 H   0  0  0  0  0  0  0  0  0  0  0  0
   56.6698   30.4700   44.2759 H   0  0  0  0  0  0  0  0  0  0  0  0
   58.0604   30.7073   43.1006 H   0  0  0  0  0  0  0  0  0  0  0  0
   56.8844   28.4548   43.1512 H   0  0  0  0  0  0  0  0  0  0  0  0
   58.6855   28.5216   43.1928 H   0  0  0  0  0  0  0  0  0  0  0  0
  1  2  1  0
  2  3  2  0
  2  4  1  0
  4  5  2  0
  5  6  1  0
  6  7  2  0
  7  8  1  0
  8  9  2  0
  9 10  1  0
  8 11  1  0
 11 12  1  0
 12 13  1  0
 13 14  2  0
 14 15  1  0
 15 16  2  0
 16 17  1  0
 17 18  2  0
 18 19  1  0
 19 20  2  0
 20 21  1  0
 21 22  1  0
 21 23  2  0
 15 24  1  0
 24 25  1  0
 25 26  2  0
 25 27  1  0
 12 28  1  0
 28 29  1  0
 10  5  1  0
 27 13  1  0
 29  7  1  0
 23 17  1  0
  1 30  1  0
  1 31  1  0
  1 32  1  0
  6 33  1  0
  9 34  1  0
 10 35  1  0
 11 36  1  0
 11 37  1  0
 18 38  1  0
 19 39  1  0
 20 40  1  0
 23 41  1  0
 24 42  1  0
 27 43  1  0
 28 44  1  0
 28 45  1  0
 29 46  1  0
 29 47  1  0
M  END
>  <smiles>  (36) 
CC(=O)N=c1cc2c(c[nH]1)CN(c1nc(=Nc3cccc(Cl)c3)[nH]c(=O)[nH]1)CC2

>  <score_type>  (36) 
oracle

>  <origin>  (36) 
adg

>  <m_score__min__energy>  (36) 
-8.7400000000000002

>  <m_primary>  (36) 
energy

$$$$
36:0
     RDKit          3D

 48 50  0  0  0  0  0  0  0  0999 V2000
   60.6690   26.8000   46.5420 C   0  0  0  0  0  0  0  0  0  0  0  0
   59.6720   27.6320   45.7910 C   0  0  0  0  0  0  0  0  0  0  0  0
   58.3270   27.2350   45.7240 C   0  0  0  0  0  0  0  0  0  0  0  0
   57.3900   28.0300   45.0570 C   0  0  0  0  0  0  0  0  0  0  0  0
   57.7830   29.2360   44.4630 C   0  0  0  0  0  0  0  0  0  0  0  0
   56.5940   30.2390   43.6410 S   0  0  0  0  0  0  0  0  0  0  0  0
   55.3530   30.3500   44.4810 O   0  0  0  0  0  0  0  0  0  0  0  0
   56.2540   29.6140   42.3170 O   0  0  0  0  0  0  0  0  0  0  0  0
   57.2490   31.8010   43.4010 O   0  0  0  0  0  0  0  0  0  0  0  0
   57.8270   32.5880   44.4070 C   0  0  0  0  0  0  0  0  0  0  0  0
   57.3310   32.4660   45.7100 C   0  0  0  0  0  0  0  0  0  0  0  0
   57.8690   33.2270   46.7510 C   0  0  0  0  0  0  0  0  0  0  0  0
   58.9360   34.1080   46.5070 C   0  0  0  0  0  0  0  0  0  0  0  0
   59.4950   34.9610   47.5800 C   0  0  0  0  0  0  0  0  0  0  0  0
   60.4100   34.5760   48.4840 C   0  0  0  0  0  0  0  0  0  0  0  0
   61.1930   33.3180   48.4130 C   0  0  0  0  0  0  0  0  0  0  0  0
   62.4230   33.3790   48.1370 O   0  0  0  0  0  0  0  0  0  0  0  0
   60.5890   32.0290   48.6680 N   0  0  0  0  0  0  0  0  0  0  0  0
   59.2300   31.9330   49.2220 C   0  0  0  0  0  0  0  0  0  0  0  0
   58.9600   30.5370   49.7940 C   0  0  0  0  0  0  0  0  0  0  0  0
   59.3330   29.5320   48.8760 O   0  0  0  0  0  0  0  0  0  0  0  0
   60.7350   29.5580   48.7050 C   0  0  0  0  0  0  0  0  0  0  0  0
   61.1700   30.8490   48.0090 C   0  0  0  0  0  0  0  0  0  0  0  0
   59.4170   34.2520   45.1990 C   0  0  0  0  0  0  0  0  0  0  0  0
   58.8770   33.4930   44.1570 C   0  0  0  0  0  0  0  0  0  0  0  0
   59.1210   29.6490   44.5500 C   0  0  0  0  0  0  0  0  0  0  0  0
   60.0590   28.8520   45.2150 C   0  0  0  0  0  0  0  0  0  0  0  0
   60.5141   26.9293   47.6233 H   0  0  0  0  0  0  0  0  0  0  0  0
   60.5366   25.7407   46.2767 H   0  0  0  0  0  0  0  0  0  0  0  0
   61.6875   27.1199   46.2767 H   0  0  0  0  0  0  0  0  0  0  0  0
   58.0091   26.2947   46.1982 H   0  0  0  0  0  0  0  0  0  0  0  0
   56.3401   27.7071   44.9985 H   0  0  0  0  0  0  0  0  0  0  0  0
   56.5096   31.7641   45.9166 H   0  0  0  0  0  0  0  0  0  0  0  0
   57.4553   33.1360   47.7662 H   0  0  0  0  0  0  0  0  0  0  0  0
   59.1302   35.9969   47.6419 H   0  0  0  0  0  0  0  0  0  0  0  0
   60.5924   35.2422   49.3401 H   0  0  0  0  0  0  0  0  0  0  0  0
   59.1165   32.6772   50.0241 H   0  0  0  0  0  0  0  0  0  0  0  0
   58.5103   32.1218   48.4118 H   0  0  0  0  0  0  0  0  0  0  0  0
   59.5389   30.4101   50.7207 H   0  0  0  0  0  0  0  0  0  0  0  0
   57.8827   30.4440   49.9959 H   0  0  0  0  0  0  0  0  0  0  0  0
   61.2203   29.4976   49.6903 H   0  0  0  0  0  0  0  0  0  0  0  0
   61.0315   28.7021   48.0809 H   0  0  0  0  0  0  0  0  0  0  0  0
   62.2670   30.9228   48.0424 H   0  0  0  0  0  0  0  0  0  0  0  0
   60.8153   30.8207   46.9681 H   0  0  0  0  0  0  0  0  0  0  0  0
   60.2258   34.9678   44.9906 H   0  0  0  0  0  0  0  0  0  0  0  0
   59.2738   33.6029   43.1370 H   0  0  0  0  0  0  0  0  0  0  0  0
   59.4329   30.6006   44.0948 H   0  0  0  0  0  0  0  0  0  0  0  0
   61.1055   29.1833   45.2868 H   0  0  0  0  0  0  0  0  0  0  0  0
  1  2  1  0
  2  3  2  0
  3  4  1  0
  4  5  2  0
  5  6  1  0
  6  7  2  0
  6  8  2  0
  6  9  1  0
  9 10  1  0
 10 11  2  0
 11 12  1  0
 12 13  2  0
 13 14  1  0
 14 15  2  3
 15 16  1  0
 16 17  2  0
 16 18  1  0
 18 19  1  0
 19 20  1  0
 20 21  1  0
 21 22  1  0
 22 23  1  0
 13 24  1  0
 24 25  2  0
  5 26  1  0
 26 27  2  0
 27  2  1  0
 25 10  1  0
 23 18  1  0
  1 28  1  0
  1 29  1  0
  1 30  1  0
  3 31  1  0
  4 32  1  0
 11 33  1  0
 12 34  1  0
 14 35  1  0
 15 36  1  0
 19 37  1  0
 19 38  1  0
 20 39  1  0
 20 40  1  0
 22 41  1  0
 22 42  1  0
 23 43  1  0
 23 44  1  0
 24 45  1  0
 25 46  1  0
 26 47  1  0
 27 48  1  0
M  END
>  <UniqueID>  (37) 
35

>  <SMILES>  (37) 
Cc1ccc(S(=O)(=O)Oc2ccc(C=CC(=O)N3CCOCC3)cc2)cc1

>  <Energy>  (37) 
60.73423482472669

>  <Genealogy>  (37) 
Cc1ccc(S(=O)(=O)Oc2ccc(C=CC(=O)N3CCOCC3)cc2)cc1 (3D coordinates assigned)
Cc1ccc(S(=O)(=O)Oc2ccc(C=CC(=O)N3CCOCC3)cc2)cc1 (nonaromatic ring conformer: 60.73423482472669 kcal/mol)

>  <smiles>  (37) 
Cc1ccc(S(=O)(=O)Oc2ccc(C=CC(=O)N3CCOCC3)cc2)cc1

>  <score_type>  (37) 
oracle

>  <origin>  (37) 
adg

>  <m_score__min__energy>  (37) 
-9.1199999999999992

>  <m_primary>  (37) 
energy

$$$$
37:0
     RDKit          3D

 53 56  0  0  0  0  0  0  0  0999 V2000
   54.6890   30.8670   51.4550 C   0  0  0  0  0  0  0  0  0  0  0  0
   54.5460   30.5450   52.7500 C   0  0  0  0  0  0  0  0  0  0  0  0
   53.3710   30.6000   53.5180 C   0  0  0  0  0  0  0  0  0  0  0  0
   52.0880   30.7760   53.1480 C   0  0  0  0  0  0  0  0  0  0  0  0
   51.6280   30.9980   51.7650 C   0  0  0  0  0  0  0  0  0  0  0  0
   51.8910   30.1630   50.7450 N   0  0  0  0  0  0  0  0  0  0  0  0
   51.3870   30.8140   49.6760 C   0  0  0  0  0  0  0  0  0  0  0  0
   51.4180   30.3280   48.5140 O   0  0  0  0  0  0  0  0  0  0  0  0
   50.8500   32.0230   49.9450 N   0  0  0  0  0  0  0  0  0  0  0  0
   51.0230   32.1310   51.2700 C   0  0  0  0  0  0  0  0  0  0  0  0
   50.6500   33.2440   52.0040 O   0  0  0  0  0  0  0  0  0  0  0  0
   53.7560   30.3860   54.8340 C   0  0  0  0  0  0  0  0  0  0  0  0
   55.1130   30.1340   54.8150 C   0  0  0  0  0  0  0  0  0  0  0  0
   55.9430   29.8090   56.0150 C   0  0  0  0  0  0  0  0  0  0  0  0
   55.5890   30.2270   53.5550 N   0  0  0  0  0  0  0  0  0  0  0  0
   56.9550   30.0380   53.1570 C   0  0  0  0  0  0  0  0  0  0  0  0
   57.6500   31.0830   52.5340 C   0  0  0  0  0  0  0  0  0  0  0  0
   58.9570   30.8850   52.0430 C   0  0  0  0  0  0  0  0  0  0  0  0
   59.6510   31.9430   51.3330 N   0  0  0  0  0  0  0  0  0  0  0  0
   61.0520   32.2280   51.6760 C   0  0  0  0  0  0  0  0  0  0  0  0
   61.5770   33.4630   50.9470 C   0  0  0  0  0  0  0  0  0  0  0  0
   61.1870   33.4490   49.5280 N   0  0  0  0  0  0  0  0  0  0  0  0
   61.8330   32.3550   48.8110 C   0  0  0  0  0  0  0  0  0  0  0  0
   61.0930   31.1590   48.2590 C   0  0  0  0  0  0  0  0  0  0  0  0
   63.0450   32.3770   48.6720 O   0  0  0  0  0  0  0  0  0  0  0  0
   59.7150   33.5220   49.3530 C   0  0  0  0  0  0  0  0  0  0  0  0
   58.8880   32.9030   50.5130 C   0  0  0  0  0  0  0  0  0  0  0  0
   59.5520   29.6150   52.2170 C   0  0  0  0  0  0  0  0  0  0  0  0
   58.8650   28.5820   52.8620 C   0  0  0  0  0  0  0  0  0  0  0  0
   57.5680   28.7900   53.3260 C   0  0  0  0  0  0  0  0  0  0  0  0
   56.8960   27.7730   53.9240 F   0  0  0  0  0  0  0  0  0  0  0  0
   55.6729   30.7773   50.9714 H   0  0  0  0  0  0  0  0  0  0  0  0
   53.8223   31.2206   50.8772 H   0  0  0  0  0  0  0  0  0  0  0  0
   51.3241   30.7523   53.9391 H   0  0  0  0  0  0  0  0  0  0  0  0
   53.1056   30.4121   55.7207 H   0  0  0  0  0  0  0  0  0  0  0  0
   55.3714   30.0328   56.9278 H   0  0  0  0  0  0  0  0  0  0  0  0
   56.2067   28.7412   56.0001 H   0  0  0  0  0  0  0  0  0  0  0  0
   56.8617   30.4138   56.0001 H   0  0  0  0  0  0  0  0  0  0  0  0
   57.1714   32.0676   52.4268 H   0  0  0  0  0  0  0  0  0  0  0  0
   61.1253   32.3972   52.7604 H   0  0  0  0  0  0  0  0  0  0  0  0
   61.6608   31.3654   51.3672 H   0  0  0  0  0  0  0  0  0  0  0  0
   61.1637   34.3640   51.4239 H   0  0  0  0  0  0  0  0  0  0  0  0
   62.6754   33.4620   51.0065 H   0  0  0  0  0  0  0  0  0  0  0  0
   61.5720   34.3280   49.1070 H   0  0  0  0  0  0  0  0  0  0  0  0
   60.7140   30.5465   49.0904 H   0  0  0  0  0  0  0  0  0  0  0  0
   60.2493   31.5024   47.6423 H   0  0  0  0  0  0  0  0  0  0  0  0
   61.7769   30.5573   47.6423 H   0  0  0  0  0  0  0  0  0  0  0  0
   59.4339   34.5814   49.2601 H   0  0  0  0  0  0  0  0  0  0  0  0
   59.4807   32.9296   48.4562 H   0  0  0  0  0  0  0  0  0  0  0  0
   58.5390   33.7174   51.1649 H   0  0  0  0  0  0  0  0  0  0  0  0
   58.0553   32.3480   50.0563 H   0  0  0  0  0  0  0  0  0  0  0  0
   60.5698   29.4367   51.8397 H   0  0  0  0  0  0  0  0  0  0  0  0
   59.3490   27.6043   53.0032 H   0  0  0  0  0  0  0  0  0  0  0  0
  1  2  2  0
  2  3  1  0
  3  4  2  3
  4  5  1  0
  5  6  1  0
  6  7  1  0
  7  8  2  0
  7  9  1  0
  9 10  1  0
 10 11  1  0
  3 12  1  0
 12 13  2  0
 13 14  1  0
 13 15  1  0
 15 16  1  0
 16 17  2  0
 17 18  1  0
 18 19  1  0
 19 20  1  0
 20 21  1  0
 21 22  1  0
 22 23  1  0
 23 24  1  0
 23 25  2  0
 22 26  1  0
 26 27  1  0
 18 28  2  0
 28 29  1  0
 29 30  2  0
 30 31  1  0
 15  2  1  0
 30 16  1  0
 10  5  2  0
 27 19  1  0
  1 32  1  0
  1 33  1  0
  4 34  1  0
 12 35  1  0
 14 36  1  0
 14 37  1  0
 14 38  1  0
 17 39  1  0
 20 40  1  0
 20 41  1  0
 21 42  1  0
 21 43  1  0
 22 44  1  0
 24 45  1  0
 24 46  1  0
 24 47  1  0
 26 48  1  0
 26 49  1  0
 27 50  1  0
 27 51  1  0
 28 52  1  0
 29 53  1  0
M  CHG  4   6  -1   9  -1  11  -1  22   1
M  END
>  <UniqueID>  (38) 
36

>  <SMILES>  (38) 
C=c1c(=Cc2[n-]c(=O)[n-]c2[O-])cc(C)n1-c1cc(N2CC[NH+](C(C)=O)CC2)ccc1F

>  <Energy>  (38) 
147.25340864434145

>  <Genealogy>  (38) 
C=c1c(=Cc2[n-]c(=O)[n-]c2[O-])cc(C)n1-c1cc(N2CC[NH+](C(C)=O)CC2)ccc1F (protonated)
C=c1c(=Cc2[n-]c(=O)[n-]c2[O-])cc(C)n1-c1cc(N2CC[NH+](C(C)=O)CC2)ccc1F (3D coordinates assigned)
C=c1c(=Cc2[n-]c(=O)[n-]c2[O-])cc(C)n1-c1cc(N2CC[NH+](C(C)=O)CC2)ccc1F (nonaromatic ring conformer: 147.25340864434145 kcal/mol)

>  <smiles>  (38) 
C=c1c(=Cc2[nH]c(=O)[nH]c2O)cc(C)n1-c1cc(N2CCN(C(C)=O)CC2)ccc1F

>  <score_type>  (38) 
oracle

>  <origin>  (38) 
adg

>  <m_score__min__energy>  (38) 
-15.32

>  <m_primary>  (38) 
energy

$$$$
38:0
     RDKit          3D

 67 71  0  0  0  0  0  0  0  0999 V2000
   58.0200   29.6960   50.8090 O   0  0  0  0  0  0  0  0  0  0  0  0
   57.9580   30.8920   51.2070 C   0  0  0  0  0  0  0  0  0  0  0  0
   56.9590   31.2750   52.1660 N   0  0  0  0  0  0  0  0  0  0  0  0
   55.7500   30.5330   52.3970 C   0  0  0  0  0  0  0  0  0  0  0  0
   55.7310   29.4060   53.2390 C   0  0  0  0  0  0  0  0  0  0  0  0
   54.5460   28.6880   53.4300 C   0  0  0  0  0  0  0  0  0  0  0  0
   53.3760   29.0790   52.7730 C   0  0  0  0  0  0  0  0  0  0  0  0
   53.3900   30.1870   51.9220 C   0  0  0  0  0  0  0  0  0  0  0  0
   54.5720   30.9070   51.7290 C   0  0  0  0  0  0  0  0  0  0  0  0
   58.9740   31.8670   50.7390 C   0  0  0  0  0  0  0  0  0  0  0  0
   58.6840   32.7180   49.6620 C   0  0  0  0  0  0  0  0  0  0  0  0
   59.6110   33.6130   49.2050 N   0  0  0  0  0  0  0  0  0  0  0  0
   59.2600   34.5060   48.0880 C   0  0  0  0  0  0  0  0  0  0  0  0
   58.7990   33.6980   46.9050 C   0  0  0  0  0  0  0  0  0  0  0  0
   57.5070   33.8710   46.3840 C   0  0  0  0  0  0  0  0  0  0  0  0
   57.0530   33.0650   45.3380 C   0  0  0  0  0  0  0  0  0  0  0  0
   57.8850   32.0730   44.8030 C   0  0  0  0  0  0  0  0  0  0  0  0
   57.3770   31.1500   43.7780 C   0  0  0  0  0  0  0  0  0  0  0  0
   57.1890   31.5840   42.6110 O   0  0  0  0  0  0  0  0  0  0  0  0
   57.1230   29.7650   44.0930 N   0  0  0  0  0  0  0  0  0  0  0  0
   57.0200   28.7570   43.0330 C   0  0  0  0  0  0  0  0  0  0  0  0
   57.9980   27.6180   43.3310 C   0  0  0  0  0  0  0  0  0  0  0  0
   57.8790   27.0940   44.7140 N   0  0  0  0  0  0  0  0  0  0  0  0
   59.1630   26.6950   45.3380 C   0  0  0  0  0  0  0  0  0  0  0  0
   59.6490   27.6540   46.4070 C   0  0  0  0  0  0  0  0  0  0  0  0
   59.4350   27.3660   47.7680 C   0  0  0  0  0  0  0  0  0  0  0  0
   59.8520   28.2640   48.7560 C   0  0  0  0  0  0  0  0  0  0  0  0
   60.5020   29.4450   48.3960 C   0  0  0  0  0  0  0  0  0  0  0  0
   60.7480   29.7260   47.0510 C   0  0  0  0  0  0  0  0  0  0  0  0
   60.3310   28.8340   46.0590 C   0  0  0  0  0  0  0  0  0  0  0  0
   56.9300   27.7970   45.6070 C   0  0  0  0  0  0  0  0  0  0  0  0
   57.0370   29.3280   45.4930 C   0  0  0  0  0  0  0  0  0  0  0  0
   59.1820   31.9070   45.3070 C   0  0  0  0  0  0  0  0  0  0  0  0
   59.6350   32.7120   46.3570 C   0  0  0  0  0  0  0  0  0  0  0  0
   60.8330   33.6980   49.8190 C   0  0  0  0  0  0  0  0  0  0  0  0
   61.7010   34.5180   49.4170 O   0  0  0  0  0  0  0  0  0  0  0  0
   61.1220   32.8990   50.8760 N   0  0  0  0  0  0  0  0  0  0  0  0
   60.2300   31.9970   51.3520 C   0  0  0  0  0  0  0  0  0  0  0  0
   60.5390   31.3030   52.3570 O   0  0  0  0  0  0  0  0  0  0  0  0
   57.1780   32.0680   52.8100 H   0  0  0  0  0  0  0  0  0  0  0  0
   56.6522   29.0882   53.7493 H   0  0  0  0  0  0  0  0  0  0  0  0
   54.5348   27.8143   54.0983 H   0  0  0  0  0  0  0  0  0  0  0  0
   52.4443   28.5145   52.9259 H   0  0  0  0  0  0  0  0  0  0  0  0
   52.4695   30.4929   51.4033 H   0  0  0  0  0  0  0  0  0  0  0  0
   54.5801   31.7721   51.0497 H   0  0  0  0  0  0  0  0  0  0  0  0
   57.6973   32.6644   49.1787 H   0  0  0  0  0  0  0  0  0  0  0  0
   58.4522   35.1828   48.4033 H   0  0  0  0  0  0  0  0  0  0  0  0
   60.1471   35.0899   47.8015 H   0  0  0  0  0  0  0  0  0  0  0  0
   56.8482   34.6462   46.8023 H   0  0  0  0  0  0  0  0  0  0  0  0
   56.0403   33.2092   44.9334 H   0  0  0  0  0  0  0  0  0  0  0  0
   55.9939   28.3622   42.9981 H   0  0  0  0  0  0  0  0  0  0  0  0
   57.2651   29.2125   42.0622 H   0  0  0  0  0  0  0  0  0  0  0  0
   57.8022   26.7956   42.6272 H   0  0  0  0  0  0  0  0  0  0  0  0
   59.0150   28.0223   43.2204 H   0  0  0  0  0  0  0  0  0  0  0  0
   59.0326   25.7032   45.7954 H   0  0  0  0  0  0  0  0  0  0  0  0
   59.9201   26.6950   44.5400 H   0  0  0  0  0  0  0  0  0  0  0  0
   58.9367   26.4288   48.0565 H   0  0  0  0  0  0  0  0  0  0  0  0
   59.6675   28.0391   49.8169 H   0  0  0  0  0  0  0  0  0  0  0  0
   60.8209   30.1554   49.1729 H   0  0  0  0  0  0  0  0  0  0  0  0
   61.2715   30.6520   46.7710 H   0  0  0  0  0  0  0  0  0  0  0  0
   60.5371   29.0557   45.0015 H   0  0  0  0  0  0  0  0  0  0  0  0
   55.9062   27.4943   45.3421 H   0  0  0  0  0  0  0  0  0  0  0  0
   57.1784   27.5209   46.6424 H   0  0  0  0  0  0  0  0  0  0  0  0
   56.1478   29.7826   45.9542 H   0  0  0  0  0  0  0  0  0  0  0  0
   57.9553   29.6464   46.0081 H   0  0  0  0  0  0  0  0  0  0  0  0
   59.8449   31.1422   44.8760 H   0  0  0  0  0  0  0  0  0  0  0  0
   60.6508   32.5721   46.7553 H   0  0  0  0  0  0  0  0  0  0  0  0
  1  2  2  0
  2  3  1  0
  3  4  1  0
  4  5  2  0
  5  6  1  0
  6  7  2  0
  7  8  1  0
  8  9  2  0
  2 10  1  0
 10 11  2  0
 11 12  1  0
 12 13  1  0
 13 14  1  0
 14 15  2  0
 15 16  1  0
 16 17  2  0
 17 18  1  0
 18 19  2  0
 18 20  1  0
 20 21  1  0
 21 22  1  0
 22 23  1  0
 23 24  1  0
 24 25  1  0
 25 26  2  0
 26 27  1  0
 27 28  2  0
 28 29  1  0
 29 30  2  0
 23 31  1  0
 31 32  1  0
 17 33  1  0
 33 34  2  0
 12 35  1  0
 35 36  2  0
 35 37  1  0
 37 38  1  0
 38 39  2  0
  9  4  1  0
 38 10  1  0
 34 14  1  0
 32 20  1  0
 30 25  1  0
  3 40  1  0
  5 41  1  0
  6 42  1  0
  7 43  1  0
  8 44  1  0
  9 45  1  0
 11 46  1  0
 13 47  1  0
 13 48  1  0
 15 49  1  0
 16 50  1  0
 21 51  1  0
 21 52  1  0
 22 53  1  0
 22 54  1  0
 24 55  1  0
 24 56  1  0
 26 57  1  0
 27 58  1  0
 28 59  1  0
 29 60  1  0
 30 61  1  0
 31 62  1  0
 31 63  1  0
 32 64  1  0
 32 65  1  0
 33 66  1  0
 34 67  1  0
M  CHG  1  37  -1
M  END
>  <UniqueID>  (39) 
37

>  <SMILES>  (39) 
O=C(Nc1ccccc1)c1cn(Cc2ccc(C(=O)N3CCN(Cc4ccccc4)CC3)cc2)c(=O)[n-]c1=O

>  <Energy>  (39) 
95.16057560937843

>  <Genealogy>  (39) 
O=C(Nc1ccccc1)c1cn(Cc2ccc(C(=O)N3CCN(Cc4ccccc4)CC3)cc2)c(=O)[n-]c1=O (protonated)
O=C(Nc1ccccc1)c1cn(Cc2ccc(C(=O)N3CCN(Cc4ccccc4)CC3)cc2)c(=O)[n-]c1=O (3D coordinates assigned)
O=C(Nc1ccccc1)c1cn(Cc2ccc(C(=O)N3CCN(Cc4ccccc4)CC3)cc2)c(=O)[n-]c1=O (nonaromatic ring conformer: 95.16057560937843 kcal/mol)

>  <smiles>  (39) 
O=C(Nc1ccccc1)c1cn(Cc2ccc(C(=O)N3CCN(Cc4ccccc4)CC3)cc2)c(=O)[nH]c1=O

>  <score_type>  (39) 
oracle

>  <origin>  (39) 
adg

>  <m_score__min__energy>  (39) 
-11.52

>  <m_primary>  (39) 
energy

$$$$
39:0
     RDKit          3D

 35 36  0  0  0  0  0  0  0  0999 V2000
   57.5450   32.6930   43.1980 O   0  0  0  0  0  0  0  0  0  0  0  0
   57.5600   32.4350   44.4300 C   0  0  0  0  0  0  0  0  0  0  0  0
   57.0130   31.1830   44.8670 N   0  0  0  0  0  0  0  0  0  0  0  0
   57.6970   29.8940   44.8650 C   0  0  0  0  0  0  0  0  0  0  0  0
   56.7130   28.7910   45.1360 C   0  0  0  0  0  0  0  0  0  0  0  0
   55.4920   29.0220   44.9190 O   0  0  0  0  0  0  0  0  0  0  0  0
   57.1140   27.4540   45.6590 C   0  0  0  0  0  0  0  0  0  0  0  0
   58.4870   27.1610   45.7820 C   0  0  0  0  0  0  0  0  0  0  0  0
   58.9140   25.9180   46.2560 C   0  0  0  0  0  0  0  0  0  0  0  0
   57.9790   24.9500   46.6190 C   0  0  0  0  0  0  0  0  0  0  0  0
   56.6150   25.2250   46.5180 C   0  0  0  0  0  0  0  0  0  0  0  0
   56.1750   26.4690   46.0490 C   0  0  0  0  0  0  0  0  0  0  0  0
   54.8070   26.7090   46.0020 O   0  0  0  0  0  0  0  0  0  0  0  0
   58.1340   33.4360   45.3550 C   0  0  0  0  0  0  0  0  0  0  0  0
   58.8150   34.4040   44.9210 O   0  0  0  0  0  0  0  0  0  0  0  0
   57.9040   33.3010   46.7610 N   0  0  0  0  0  0  0  0  0  0  0  0
   58.8520   33.7370   47.7800 C   0  0  0  0  0  0  0  0  0  0  0  0
   60.1920   33.0890   47.5590 C   0  0  0  0  0  0  0  0  0  0  0  0
   61.3410   33.8710   47.3650 C   0  0  0  0  0  0  0  0  0  0  0  0
   62.5680   33.2440   47.1380 C   0  0  0  0  0  0  0  0  0  0  0  0
   62.6450   31.8860   47.1020 N   0  0  0  0  0  0  0  0  0  0  0  0
   61.5470   31.1060   47.2820 C   0  0  0  0  0  0  0  0  0  0  0  0
   60.3000   31.6930   47.5110 C   0  0  0  0  0  0  0  0  0  0  0  0
   58.1654   29.7315   43.8831 H   0  0  0  0  0  0  0  0  0  0  0  0
   58.4675   29.8922   45.6501 H   0  0  0  0  0  0  0  0  0  0  0  0
   59.2317   27.9203   45.5013 H   0  0  0  0  0  0  0  0  0  0  0  0
   59.9893   25.7030   46.3428 H   0  0  0  0  0  0  0  0  0  0  0  0
   58.3167   23.9692   46.9851 H   0  0  0  0  0  0  0  0  0  0  0  0
   55.8803   24.4597   46.8087 H   0  0  0  0  0  0  0  0  0  0  0  0
   58.9644   34.8300   47.7270 H   0  0  0  0  0  0  0  0  0  0  0  0
   58.4723   33.4445   48.7701 H   0  0  0  0  0  0  0  0  0  0  0  0
   61.2757   34.9687   47.3915 H   0  0  0  0  0  0  0  0  0  0  0  0
   63.4742   33.8493   46.9880 H   0  0  0  0  0  0  0  0  0  0  0  0
   61.6401   30.0105   47.2474 H   0  0  0  0  0  0  0  0  0  0  0  0
   59.4092   31.0634   47.6526 H   0  0  0  0  0  0  0  0  0  0  0  0
  1  2  2  0
  2  3  1  0
  3  4  1  0
  4  5  1  0
  5  6  2  0
  5  7  1  0
  7  8  2  0
  8  9  1  0
  9 10  2  0
 10 11  1  0
 11 12  2  0
 12 13  1  0
  2 14  1  0
 14 15  2  0
 14 16  1  0
 16 17  1  0
 17 18  1  0
 18 19  2  0
 19 20  1  0
 20 21  2  0
 21 22  1  0
 22 23  2  0
 12  7  1  0
 23 18  1  0
  4 24  1  0
  4 25  1  0
  8 26  1  0
  9 27  1  0
 10 28  1  0
 11 29  1  0
 17 30  1  0
 17 31  1  0
 19 32  1  0
 20 33  1  0
 22 34  1  0
 23 35  1  0
M  CHG  3   3  -1  13  -1  16  -1
M  END
>  <UniqueID>  (40) 
38

>  <SMILES>  (40) 
O=C([N-]CC(=O)c1ccccc1[O-])C(=O)[N-]Cc1ccncc1

>  <Energy>  (40) 
37.51731939178779

>  <Genealogy>  (40) 
O=C([N-]CC(=O)c1ccccc1[O-])C(=O)[N-]Cc1ccncc1 (protonated)
O=C([N-]CC(=O)c1ccccc1[O-])C(=O)[N-]Cc1ccncc1 (3D coordinates assigned)
O=C([N-]CC(=O)c1ccccc1[O-])C(=O)[N-]Cc1ccncc1 (optimized conformer: 37.51731939178779 kcal/mol)

>  <smiles>  (40) 
O=C(NCC(=O)c1ccccc1O)C(=O)NCc1ccncc1

>  <score_type>  (40) 
oracle

>  <origin>  (40) 
adg

>  <m_score__min__energy>  (40) 
-14.08

>  <m_primary>  (40) 
energy

$$$$
40:0
     RDKit          3D

 58 60  0  0  0  0  0  0  0  0999 V2000
   57.9080   32.3420   41.7390 C   0  0  0  0  0  0  0  0  0  0  0  0
   58.0940   32.5010   43.2160 C   0  0  0  0  0  0  0  0  0  0  0  0
   58.5620   33.6340   43.7730 N   0  0  0  0  0  0  0  0  0  0  0  0
   58.6130   33.4540   45.0820 N   0  0  0  0  0  0  0  0  0  0  0  0
   59.0420   34.4920   46.0160 C   0  0  0  0  0  0  0  0  0  0  0  0
   58.1510   32.2240   45.3970 C   0  0  0  0  0  0  0  0  0  0  0  0
   58.1600   31.6460   46.7860 C   0  0  0  0  0  0  0  0  0  0  0  0
   57.8090   31.5750   44.2170 C   0  0  0  0  0  0  0  0  0  0  0  0
   57.1540   29.9350   44.0310 S   0  0  0  0  0  0  0  0  0  0  0  0
   55.9340   29.7810   44.8950 O   0  0  0  0  0  0  0  0  0  0  0  0
   56.7230   29.7350   42.6060 O   0  0  0  0  0  0  0  0  0  0  0  0
   58.3230   28.6980   44.4480 N   0  0  0  0  0  0  0  0  0  0  0  0
   57.6970   27.5440   45.1370 C   0  0  0  0  0  0  0  0  0  0  0  0
   57.8710   27.5940   46.6620 C   0  0  0  0  0  0  0  0  0  0  0  0
   59.3660   27.6170   47.0620 C   0  0  0  0  0  0  0  0  0  0  0  0
   59.5340   28.3380   48.3790 C   0  0  0  0  0  0  0  0  0  0  0  0
   58.6770   29.1930   48.7360 O   0  0  0  0  0  0  0  0  0  0  0  0
   60.6540   28.0470   49.2300 N   0  0  0  0  0  0  0  0  0  0  0  0
   60.9110   28.8020   50.4540 C   0  0  0  0  0  0  0  0  0  0  0  0
   61.6800   30.0950   50.1610 C   0  0  0  0  0  0  0  0  0  0  0  0
   61.7160   30.3610   48.7200 N   0  0  0  0  0  0  0  0  0  0  0  0
   62.2470   31.5590   48.1170 C   0  0  0  0  0  0  0  0  0  0  0  0
   61.4990   32.3340   47.2070 C   0  0  0  0  0  0  0  0  0  0  0  0
   62.0610   33.4810   46.6330 C   0  0  0  0  0  0  0  0  0  0  0  0
   63.3600   33.8700   46.9650 C   0  0  0  0  0  0  0  0  0  0  0  0
   64.1090   33.1050   47.8600 C   0  0  0  0  0  0  0  0  0  0  0  0
   63.5580   31.9520   48.4280 C   0  0  0  0  0  0  0  0  0  0  0  0
   60.2590   28.2440   45.9610 C   0  0  0  0  0  0  0  0  0  0  0  0
   59.4790   29.2930   45.1590 C   0  0  0  0  0  0  0  0  0  0  0  0
   57.0847   31.6382   41.5468 H   0  0  0  0  0  0  0  0  0  0  0  0
   57.6677   33.3182   41.2925 H   0  0  0  0  0  0  0  0  0  0  0  0
   58.8349   31.9528   41.2925 H   0  0  0  0  0  0  0  0  0  0  0  0
   58.8964   34.1397   47.0478 H   0  0  0  0  0  0  0  0  0  0  0  0
   60.1064   34.7159   45.8517 H   0  0  0  0  0  0  0  0  0  0  0  0
   58.4463   35.4020   45.8517 H   0  0  0  0  0  0  0  0  0  0  0  0
   58.1473   32.4625   47.5230 H   0  0  0  0  0  0  0  0  0  0  0  0
   57.2716   31.0125   46.9253 H   0  0  0  0  0  0  0  0  0  0  0  0
   59.0677   31.0404   46.9253 H   0  0  0  0  0  0  0  0  0  0  0  0
   56.6215   27.5384   44.9062 H   0  0  0  0  0  0  0  0  0  0  0  0
   58.1971   26.6328   44.7768 H   0  0  0  0  0  0  0  0  0  0  0  0
   57.3838   28.5016   47.0478 H   0  0  0  0  0  0  0  0  0  0  0  0
   57.4127   26.6909   47.0914 H   0  0  0  0  0  0  0  0  0  0  0  0
   59.7007   26.5757   47.1785 H   0  0  0  0  0  0  0  0  0  0  0  0
   61.3540   27.3290   48.9320 H   0  0  0  0  0  0  0  0  0  0  0  0
   59.9506   29.0558   50.9265 H   0  0  0  0  0  0  0  0  0  0  0  0
   61.5223   28.1792   51.1236 H   0  0  0  0  0  0  0  0  0  0  0  0
   61.1835   30.9338   50.6708 H   0  0  0  0  0  0  0  0  0  0  0  0
   62.7117   29.9834   50.5260 H   0  0  0  0  0  0  0  0  0  0  0  0
   61.5450   29.5290   48.1000 H   0  0  0  0  0  0  0  0  0  0  0  0
   60.4721   32.0370   46.9475 H   0  0  0  0  0  0  0  0  0  0  0  0
   61.4765   34.0780   45.9175 H   0  0  0  0  0  0  0  0  0  0  0  0
   63.7928   34.7788   46.5214 H   0  0  0  0  0  0  0  0  0  0  0  0
   65.1339   33.4092   48.1190 H   0  0  0  0  0  0  0  0  0  0  0  0
   64.1574   31.3477   49.1248 H   0  0  0  0  0  0  0  0  0  0  0  0
   61.1291   28.7242   46.4325 H   0  0  0  0  0  0  0  0  0  0  0  0
   60.5856   27.4477   45.2760 H   0  0  0  0  0  0  0  0  0  0  0  0
   59.1120   30.0673   45.8487 H   0  0  0  0  0  0  0  0  0  0  0  0
   60.1580   29.7212   44.4070 H   0  0  0  0  0  0  0  0  0  0  0  0
  1  2  1  0
  2  3  2  0
  3  4  1  0
  4  5  1  0
  4  6  1  0
  6  7  1  0
  6  8  2  0
  8  9  1  0
  9 10  2  0
  9 11  2  0
  9 12  1  0
 12 13  1  0
 13 14  1  0
 14 15  1  0
 15 16  1  0
 16 17  2  0
 16 18  1  0
 18 19  1  0
 19 20  1  0
 20 21  1  0
 21 22  1  0
 22 23  2  0
 23 24  1  0
 24 25  2  0
 25 26  1  0
 26 27  2  0
 15 28  1  0
 28 29  1  0
  8  2  1  0
 29 12  1  0
 27 22  1  0
  1 30  1  0
  1 31  1  0
  1 32  1  0
  5 33  1  0
  5 34  1  0
  5 35  1  0
  7 36  1  0
  7 37  1  0
  7 38  1  0
 13 39  1  0
 13 40  1  0
 14 41  1  0
 14 42  1  0
 15 43  1  0
 18 44  1  0
 19 45  1  0
 19 46  1  0
 20 47  1  0
 20 48  1  0
 21 49  1  0
 23 50  1  0
 24 51  1  0
 25 52  1  0
 26 53  1  0
 27 54  1  0
 28 55  1  0
 28 56  1  0
 29 57  1  0
 29 58  1  0
M  END
>  <UniqueID>  (41) 
39

>  <SMILES>  (41) 
Cc1nn(C)c(C)c1S(=O)(=O)N1CCC(C(=O)NCCNc2ccccc2)CC1

>  <Energy>  (41) 
87.3567438315328

>  <Genealogy>  (41) 
Cc1nn(C)c(C)c1S(=O)(=O)N1CCC(C(=O)NCCNc2ccccc2)CC1 (3D coordinates assigned)
Cc1nn(C)c(C)c1S(=O)(=O)N1CCC(C(=O)NCCNc2ccccc2)CC1 (nonaromatic ring conformer: 87.3567438315328 kcal/mol)

>  <smiles>  (41) 
Cc1nn(C)c(C)c1S(=O)(=O)N1CCC(C(=O)NCCNc2ccccc2)CC1

>  <score_type>  (41) 
oracle

>  <origin>  (41) 
adg

>  <m_score__min__energy>  (41) 
-9.4900000000000002

>  <m_primary>  (41) 
energy

$$$$
41:0
     RDKit          3D

 59 62  0  0  0  0  0  0  0  0999 V2000
   58.5893   28.1480   42.7206 H   0  0  0  0  0  0  0  0  0  0  0  0
   58.1320   27.2370   43.1340 C   0  0  0  0  0  0  0  0  0  0  0  0
   57.5150   26.5913   42.4918 H   0  0  0  0  0  0  0  0  0  0  0  0
   58.3270   26.9130   44.4230 C   0  0  0  0  0  0  0  0  0  0  0  0
   57.8060   25.7870   45.0750 C   0  0  0  0  0  0  0  0  0  0  0  0
   57.0030   24.8390   44.5440 C   0  0  0  0  0  0  0  0  0  0  0  0
   57.3973   24.2651   43.6924 H   0  0  0  0  0  0  0  0  0  0  0  0
   55.6390   24.5070   45.0100 C   0  0  0  0  0  0  0  0  0  0  0  0
   55.0130   23.3260   44.8440 N   0  0  0  0  0  0  0  0  0  0  0  0
   53.7870   23.5400   45.3680 C   0  0  0  0  0  0  0  0  0  0  0  0
   52.8990   22.6490   45.4000 O   0  0  0  0  0  0  0  0  0  0  0  0
   53.5870   24.7850   45.8480 N   0  0  0  0  0  0  0  0  0  0  0  0
   54.7660   25.3840   45.6100 C   0  0  0  0  0  0  0  0  0  0  0  0
   55.0350   26.7080   45.9300 O   0  0  0  0  0  0  0  0  0  0  0  0
   58.2640   25.8540   46.3840 C   0  0  0  0  0  0  0  0  0  0  0  0
   58.0455   25.1411   47.1927 H   0  0  0  0  0  0  0  0  0  0  0  0
   59.0460   26.9870   46.4750 C   0  0  0  0  0  0  0  0  0  0  0  0
   59.6840   27.4690   47.7440 C   0  0  0  0  0  0  0  0  0  0  0  0
   59.1399   27.0579   48.6071 H   0  0  0  0  0  0  0  0  0  0  0  0
   60.7314   27.1347   47.7778 H   0  0  0  0  0  0  0  0  0  0  0  0
   59.6486   28.5679   47.7778 H   0  0  0  0  0  0  0  0  0  0  0  0
   59.0830   27.6400   45.2890 N   0  0  0  0  0  0  0  0  0  0  0  0
   59.8560   28.8640   45.0170 C   0  0  0  0  0  0  0  0  0  0  0  0
   60.5488   29.0435   45.8523 H   0  0  0  0  0  0  0  0  0  0  0  0
   60.4090   28.7240   44.0765 H   0  0  0  0  0  0  0  0  0  0  0  0
   58.9340   30.0820   44.8610 C   0  0  0  0  0  0  0  0  0  0  0  0
   59.1860   30.5986   43.9231 H   0  0  0  0  0  0  0  0  0  0  0  0
   57.8956   29.7193   44.8533 H   0  0  0  0  0  0  0  0  0  0  0  0
   59.0740   31.0550   46.0030 C   0  0  0  0  0  0  0  0  0  0  0  0
   58.6360   32.3810   45.8640 C   0  0  0  0  0  0  0  0  0  0  0  0
   58.1988   32.7165   44.9120 H   0  0  0  0  0  0  0  0  0  0  0  0
   58.7530   33.2770   46.9300 C   0  0  0  0  0  0  0  0  0  0  0  0
   58.3775   34.3053   46.8227 H   0  0  0  0  0  0  0  0  0  0  0  0
   59.3450   32.8750   48.1340 C   0  0  0  0  0  0  0  0  0  0  0  0
   59.4950   33.8410   49.1810 N   0  0  0  0  0  0  0  0  0  0  0  0
   59.7240   33.4700   50.8590 S   0  0  0  0  0  0  0  0  0  0  0  0
   59.2800   32.0540   51.0990 O   0  0  0  0  0  0  0  0  0  0  0  0
   58.8680   34.3810   51.6940 O   0  0  0  0  0  0  0  0  0  0  0  0
   61.4350   33.6360   51.3610 C   0  0  0  0  0  0  0  0  0  0  0  0
   61.8277   34.5857   50.9688 H   0  0  0  0  0  0  0  0  0  0  0  0
   61.4661   33.6104   52.4603 H   0  0  0  0  0  0  0  0  0  0  0  0
   62.3110   32.4880   50.8410 C   0  0  0  0  0  0  0  0  0  0  0  0
   63.2124   32.4186   51.4677 H   0  0  0  0  0  0  0  0  0  0  0  0
   61.7177   31.5629   50.8883 H   0  0  0  0  0  0  0  0  0  0  0  0
   62.7310   32.6950   49.4080 C   0  0  0  0  0  0  0  0  0  0  0  0
   62.9300   33.9970   48.9160 C   0  0  0  0  0  0  0  0  0  0  0  0
   62.7557   34.8625   49.5721 H   0  0  0  0  0  0  0  0  0  0  0  0
   63.3480   34.1970   47.5980 C   0  0  0  0  0  0  0  0  0  0  0  0
   63.5007   35.2181   47.2186 H   0  0  0  0  0  0  0  0  0  0  0  0
   63.5720   33.1010   46.7620 C   0  0  0  0  0  0  0  0  0  0  0  0
   63.9148   33.2589   45.7288 H   0  0  0  0  0  0  0  0  0  0  0  0
   63.3610   31.8040   47.2370 C   0  0  0  0  0  0  0  0  0  0  0  0
   63.5216   30.9430   46.5715 H   0  0  0  0  0  0  0  0  0  0  0  0
   62.9460   31.5980   48.5570 C   0  0  0  0  0  0  0  0  0  0  0  0
   62.7877   30.5751   48.9294 H   0  0  0  0  0  0  0  0  0  0  0  0
   59.7750   31.5460   48.2790 C   0  0  0  0  0  0  0  0  0  0  0  0
   60.2299   31.2173   49.2251 H   0  0  0  0  0  0  0  0  0  0  0  0
   59.6270   30.6390   47.2250 C   0  0  0  0  0  0  0  0  0  0  0  0
   59.9455   29.5940   47.3538 H   0  0  0  0  0  0  0  0  0  0  0  0
  1  2  1  0
  2  3  1  0
  2  4  2  0
  4  5  1  0
  5  6  2  0
  6  7  1  0
  6  8  1  0
  8  9  1  0
  9 10  1  0
 10 11  2  0
 10 12  1  0
 12 13  1  0
 13 14  1  0
  5 15  1  0
 15 16  1  0
 15 17  2  0
 17 18  1  0
 18 19  1  0
 18 20  1  0
 18 21  1  0
 17 22  1  0
 22 23  1  0
 23 24  1  0
 23 25  1  0
 23 26  1  0
 26 27  1  0
 26 28  1  0
 26 29  1  0
 29 30  2  0
 30 31  1  0
 30 32  1  0
 32 33  1  0
 32 34  2  0
 34 35  1  0
 35 36  1  0
 36 37  2  0
 36 38  2  0
 36 39  1  0
 39 40  1  0
 39 41  1  0
 39 42  1  0
 42 43  1  0
 42 44  1  0
 42 45  1  0
 45 46  2  0
 46 47  1  0
 46 48  1  0
 48 49  1  0
 48 50  2  0
 50 51  1  0
 50 52  1  0
 52 53  1  0
 52 54  2  0
 54 55  1  0
 34 56  1  0
 56 57  1  0
 56 58  2  0
 58 59  1  0
 22  4  1  0
 58 29  1  0
 13  8  2  0
 54 45  1  0
M  CHG  4   9  -1  12  -1  14  -1  35  -1
M  END
>  <UniqueID>  (42) 
40

>  <SMILES>  (42) 
C=c1/c(=C/c2[n-]c(=O)[n-]c2[O-])cc(C)n1CCc1ccc([N-]S(=O)(=O)CCc2ccccc2)cc1

>  <Energy>  (42) 
116.8100408499576

>  <Genealogy>  (42) 
C=c1c(=Cc2[n-]c(=O)[n-]c2[O-])cc(C)n1CCc1ccc([N-]S(=O)(=O)CCc2ccccc2)cc1 (protonated)
C=c1/c(=C/c2[n-]c(=O)[n-]c2[O-])cc(C)n1CCc1ccc([N-]S(=O)(=O)CCc2ccccc2)cc1 (cis-trans isomerization)
C=c1/c(=C/c2[n-]c(=O)[n-]c2[O-])cc(C)n1CCc1ccc([N-]S(=O)(=O)CCc2ccccc2)cc1 (3D coordinates assigned)
C=c1/c(=C/c2[n-]c(=O)[n-]c2[O-])cc(C)n1CCc1ccc([N-]S(=O)(=O)CCc2ccccc2)cc1 (optimized conformer: 116.8100408499576 kcal/mol)

>  <smiles>  (42) 
C=c1c(=Cc2[nH]c(=O)[nH]c2O)cc(C)n1CCc1ccc(NS(=O)(=O)CCc2ccccc2)cc1

>  <score_type>  (42) 
oracle

>  <origin>  (42) 
adg

>  <m_score__min__energy>  (42) 
-19.579999999999998

>  <m_primary>  (42) 
energy

$$$$
42:0
     RDKit          3D

 34 36  0  0  1  0  0  0  0  0999 V2000
   59.2250   27.4870   44.2250 C   0  0  0  0  0  0  0  0  0  0  0  0
   58.4640   28.5370   44.4920 C   0  0  0  0  0  0  0  0  0  0  0  0
   57.2500   28.6290   43.9230 N   0  0  0  0  0  0  0  0  0  0  0  0
   56.4910   29.7030   44.2050 C   0  0  0  0  0  0  0  0  0  0  0  0
   55.3360   29.8200   43.6830 O   0  0  0  0  0  0  0  0  0  0  0  0
   56.8770   30.6920   45.0270 N   0  0  0  0  0  0  0  0  0  0  0  0
   58.1090   30.5990   45.6040 C   0  0  0  0  0  0  0  0  0  0  0  0
   58.4910   31.5710   46.4130 C   0  0  0  0  0  0  0  0  0  0  0  0
   58.8010   32.9120   46.0050 C   0  0  0  0  0  0  0  0  0  0  0  0
   59.9920   33.5780   46.1730 C   0  0  0  0  0  0  0  0  0  0  0  0
   61.2390   33.1450   46.7830 C   0  0  0  0  0  0  0  0  0  0  0  0
   61.3700   32.1090   47.6550 C   0  0  0  0  0  0  0  0  0  0  0  0
   62.5780   31.7210   48.2200 C   0  0  0  0  0  0  0  0  0  0  0  0
   63.6970   32.4350   47.8680 C   0  0  0  0  0  0  0  0  0  0  0  0
   63.6340   33.4880   46.9950 C   0  0  0  0  0  0  0  0  0  0  0  0
   62.4130   33.8360   46.4600 C   0  0  0  0  0  0  0  0  0  0  0  0
   59.7790   34.8040   45.6260 N   0  0  0  0  0  0  0  0  0  0  0  0
   58.5480   34.8860   45.1550 N   0  0  0  0  0  0  0  0  0  0  0  0
   57.8770   33.7390   45.3600 C   0  0  0  0  0  0  0  0  0  0  0  0
   56.6800   33.4510   45.0450 O   0  0  0  0  0  0  0  0  0  0  0  0
   58.9300   29.5150   45.3470 C   0  0  0  0  0  0  0  0  0  0  0  0
   60.0740   29.4370   45.8900 O   0  0  0  0  0  0  0  0  0  0  0  0
   60.2209   27.3986   44.6837 H   0  0  0  0  0  0  0  0  0  0  0  0
   58.8614   26.7030   43.5445 H   0  0  0  0  0  0  0  0  0  0  0  0
   56.8690   27.9050   43.2710 H   0  0  0  0  0  0  0  0  0  0  0  0
   56.2770   31.5290   45.2420 H   0  0  0  0  0  0  0  0  0  0  0  0
   58.5784   31.3341   47.4836 H   0  0  0  0  0  0  0  0  0  0  0  0
   60.4659   31.5454   47.9287 H   0  0  0  0  0  0  0  0  0  0  0  0
   62.6361   30.8756   48.9214 H   0  0  0  0  0  0  0  0  0  0  0  0
   64.6693   32.1537   48.2986 H   0  0  0  0  0  0  0  0  0  0  0  0
   64.5426   34.0464   46.7255 H   0  0  0  0  0  0  0  0  0  0  0  0
   62.3590   34.6816   45.7585 H   0  0  0  0  0  0  0  0  0  0  0  0
   60.4510   35.6090   45.5540 H   0  0  0  0  0  0  0  0  0  0  0  0
   58.1100   35.7200   44.6790 H   0  0  0  0  0  0  0  0  0  0  0  0
  1  2  2  0
  2  3  1  0
  3  4  1  0
  4  5  2  0
  4  6  1  0
  6  7  1  0
  7  8  2  0
  8  9  1  0
  9 10  2  0
 10 11  1  0
 11 12  2  0
 12 13  1  0
 13 14  2  0
 14 15  1  0
 15 16  2  0
 10 17  1  0
 17 18  1  0
 18 19  1  0
 19 20  2  0
  7 21  1  0
 21 22  2  0
 21  2  1  0
 19  9  1  0
 16 11  1  0
  1 23  1  0
  1 24  1  0
  3 25  1  0
  6 26  1  0
  8 27  1  0
 12 28  1  0
 13 29  1  0
 14 30  1  0
 15 31  1  0
 16 32  1  0
 17 33  1  0
 18 34  1  0
M  END
>  <smiles>  (43) 
C=c1[nH]c(=O)[nH]c(=Cc2c(-c3ccccc3)[nH][nH]c2=O)c1=O

>  <score_type>  (43) 
oracle

>  <origin>  (43) 
adg

>  <m_score__min__energy>  (43) 
-7.2599999999999998

>  <m_primary>  (43) 
energy

$$$$
43:0
     RDKit          3D

 62 65  0  0  0  0  0  0  0  0999 V2000
   51.4780   22.9400   45.6180 C   0  0  0  0  0  0  0  0  0  0  0  0
   52.7800   22.4530   45.2900 O   0  0  0  0  0  0  0  0  0  0  0  0
   53.9650   23.1770   45.4790 C   0  0  0  0  0  0  0  0  0  0  0  0
   55.2280   22.5560   45.5370 C   0  0  0  0  0  0  0  0  0  0  0  0
   56.3760   23.3210   45.7760 C   0  0  0  0  0  0  0  0  0  0  0  0
   56.2860   24.7090   45.9580 C   0  0  0  0  0  0  0  0  0  0  0  0
   57.5240   25.5110   46.2630 C   0  0  0  0  0  0  0  0  0  0  0  0
   57.8960   26.3730   45.1000 C   0  0  0  0  0  0  0  0  0  0  0  0
   57.7290   25.9360   43.9300 O   0  0  0  0  0  0  0  0  0  0  0  0
   58.3950   27.6950   45.3450 N   0  0  0  0  0  0  0  0  0  0  0  0
   58.0010   28.9360   44.7310 C   0  0  0  0  0  0  0  0  0  0  0  0
   57.0200   29.0000   43.7180 C   0  0  0  0  0  0  0  0  0  0  0  0
   56.6870   30.2230   43.1310 C   0  0  0  0  0  0  0  0  0  0  0  0
   57.3320   31.3940   43.5340 C   0  0  0  0  0  0  0  0  0  0  0  0
   58.3230   31.3420   44.5140 C   0  0  0  0  0  0  0  0  0  0  0  0
   58.6620   30.1200   45.1160 C   0  0  0  0  0  0  0  0  0  0  0  0
   59.9890   30.0790   46.3350 S   0  0  0  0  0  0  0  0  0  0  0  0
   58.8940   29.9920   47.7900 C   0  0  0  0  0  0  0  0  0  0  0  0
   59.2190   31.0690   48.7700 C   0  0  0  0  0  0  0  0  0  0  0  0
   60.0640   30.8500   49.6800 O   0  0  0  0  0  0  0  0  0  0  0  0
   58.6040   32.3560   48.6270 N   0  0  0  0  0  0  0  0  0  0  0  0
   58.6100   33.2000   47.4650 C   0  0  0  0  0  0  0  0  0  0  0  0
   57.4290   33.4840   46.7550 C   0  0  0  0  0  0  0  0  0  0  0  0
   57.4680   34.2290   45.5730 C   0  0  0  0  0  0  0  0  0  0  0  0
   58.6830   34.7070   45.0900 C   0  0  0  0  0  0  0  0  0  0  0  0
   59.8640   34.4420   45.7890 C   0  0  0  0  0  0  0  0  0  0  0  0
   59.8380   33.6870   46.9730 C   0  0  0  0  0  0  0  0  0  0  0  0
   61.0660   33.4510   47.6820 N   0  0  0  0  0  0  0  0  0  0  0  0
   62.0420   32.4910   47.1540 C   0  0  0  0  0  0  0  0  0  0  0  0
   63.4940   32.9670   47.3900 C   0  0  0  0  0  0  0  0  0  0  0  0
   63.5790   34.1900   48.1000 O   0  0  0  0  0  0  0  0  0  0  0  0
   62.8180   34.1070   49.2850 C   0  0  0  0  0  0  0  0  0  0  0  0
   61.3300   34.1660   48.9370 C   0  0  0  0  0  0  0  0  0  0  0  0
   55.0270   25.3340   45.8600 C   0  0  0  0  0  0  0  0  0  0  0  0
   54.9060   26.7140   45.9950 O   0  0  0  0  0  0  0  0  0  0  0  0
   53.8790   24.5680   45.6290 C   0  0  0  0  0  0  0  0  0  0  0  0
   51.3668   22.9816   46.7116 H   0  0  0  0  0  0  0  0  0  0  0  0
   51.3469   23.9480   45.1975 H   0  0  0  0  0  0  0  0  0  0  0  0
   50.7176   22.2655   45.1975 H   0  0  0  0  0  0  0  0  0  0  0  0
   55.3125   21.4686   45.3943 H   0  0  0  0  0  0  0  0  0  0  0  0
   57.3586   22.8286   45.8215 H   0  0  0  0  0  0  0  0  0  0  0  0
   57.3342   26.1488   47.1389 H   0  0  0  0  0  0  0  0  0  0  0  0
   58.3527   24.8173   46.4679 H   0  0  0  0  0  0  0  0  0  0  0  0
   56.5143   28.0804   43.3886 H   0  0  0  0  0  0  0  0  0  0  0  0
   55.9144   30.2637   42.3490 H   0  0  0  0  0  0  0  0  0  0  0  0
   57.0586   32.3573   43.0787 H   0  0  0  0  0  0  0  0  0  0  0  0
   58.8418   32.2635   44.8168 H   0  0  0  0  0  0  0  0  0  0  0  0
   57.8504   30.1073   47.4620 H   0  0  0  0  0  0  0  0  0  0  0  0
   59.0392   29.0177   48.2796 H   0  0  0  0  0  0  0  0  0  0  0  0
   56.4644   33.1157   47.1343 H   0  0  0  0  0  0  0  0  0  0  0  0
   56.5379   34.4378   45.0240 H   0  0  0  0  0  0  0  0  0  0  0  0
   58.7136   35.2926   44.1593 H   0  0  0  0  0  0  0  0  0  0  0  0
   60.8214   34.8278   45.4088 H   0  0  0  0  0  0  0  0  0  0  0  0
   61.8978   31.5228   47.6558 H   0  0  0  0  0  0  0  0  0  0  0  0
   61.8821   32.3992   46.0696 H   0  0  0  0  0  0  0  0  0  0  0  0
   64.0251   32.1934   47.9640 H   0  0  0  0  0  0  0  0  0  0  0  0
   63.9444   33.1350   46.4006 H   0  0  0  0  0  0  0  0  0  0  0  0
   63.0380   33.1586   49.7970 H   0  0  0  0  0  0  0  0  0  0  0  0
   63.0747   34.9474   49.9467 H   0  0  0  0  0  0  0  0  0  0  0  0
   60.7501   33.7005   49.7476 H   0  0  0  0  0  0  0  0  0  0  0  0
   61.0349   35.2187   48.8153 H   0  0  0  0  0  0  0  0  0  0  0  0
   52.8986   25.0627   45.5644 H   0  0  0  0  0  0  0  0  0  0  0  0
  1  2  1  0
  2  3  1  0
  3  4  2  0
  4  5  1  0
  5  6  2  0
  6  7  1  0
  7  8  1  0
  8  9  2  0
  8 10  1  0
 10 11  1  0
 11 12  2  0
 12 13  1  0
 13 14  2  0
 14 15  1  0
 15 16  2  0
 16 17  1  0
 17 18  1  0
 18 19  1  0
 19 20  2  0
 19 21  1  0
 21 22  1  0
 22 23  2  0
 23 24  1  0
 24 25  2  0
 25 26  1  0
 26 27  2  0
 27 28  1  0
 28 29  1  0
 29 30  1  0
 30 31  1  0
 31 32  1  0
 32 33  1  0
  6 34  1  0
 34 35  1  0
 34 36  2  0
 36  3  1  0
 16 11  1  0
 27 22  1  0
 33 28  1  0
  1 37  1  0
  1 38  1  0
  1 39  1  0
  4 40  1  0
  5 41  1  0
  7 42  1  0
  7 43  1  0
 12 44  1  0
 13 45  1  0
 14 46  1  0
 15 47  1  0
 18 48  1  0
 18 49  1  0
 23 50  1  0
 24 51  1  0
 25 52  1  0
 26 53  1  0
 29 54  1  0
 29 55  1  0
 30 56  1  0
 30 57  1  0
 32 58  1  0
 32 59  1  0
 33 60  1  0
 33 61  1  0
 36 62  1  0
M  CHG  3  10  -1  21  -1  35  -1
M  END
>  <UniqueID>  (44) 
41

>  <SMILES>  (44) 
COc1ccc(CC(=O)[N-]c2ccccc2SCC(=O)[N-]c2ccccc2N2CCOCC2)c([O-])c1

>  <Energy>  (44) 
75.36118822323793

>  <Genealogy>  (44) 
COc1ccc(CC(=O)[N-]c2ccccc2SCC(=O)[N-]c2ccccc2N2CCOCC2)c([O-])c1 (protonated)
COc1ccc(CC(=O)[N-]c2ccccc2SCC(=O)[N-]c2ccccc2N2CCOCC2)c([O-])c1 (3D coordinates assigned)
COc1ccc(CC(=O)[N-]c2ccccc2SCC(=O)[N-]c2ccccc2N2CCOCC2)c([O-])c1 (nonaromatic ring conformer: 75.36118822323793 kcal/mol)

>  <smiles>  (44) 
COc1ccc(CC(=O)Nc2ccccc2SCC(=O)Nc2ccccc2N2CCOCC2)c(O)c1

>  <score_type>  (44) 
oracle

>  <origin>  (44) 
adg

>  <m_score__min__energy>  (44) 
-15.92

>  <m_primary>  (44) 
energy

$$$$
44:0
     RDKit          3D

 53 56  0  0  0  0  0  0  0  0999 V2000
   67.4670   33.1240   50.8890 C   0  0  0  0  0  0  0  0  0  0  0  0
   66.3820   33.0100   49.9740 O   0  0  0  0  0  0  0  0  0  0  0  0
   65.2460   32.2090   50.1780 C   0  0  0  0  0  0  0  0  0  0  0  0
   65.2540   31.1320   51.0870 C   0  0  0  0  0  0  0  0  0  0  0  0
   64.1090   30.3540   51.2740 C   0  0  0  0  0  0  0  0  0  0  0  0
   62.9450   30.6380   50.5620 C   0  0  0  0  0  0  0  0  0  0  0  0
   62.9200   31.7020   49.6580 C   0  0  0  0  0  0  0  0  0  0  0  0
   64.0650   32.4910   49.4550 C   0  0  0  0  0  0  0  0  0  0  0  0
   63.9900   33.6450   48.4850 C   0  0  0  0  0  0  0  0  0  0  0  0
   62.8740   33.4560   47.5590 N   0  0  0  0  0  0  0  0  0  0  0  0
   61.5340   33.8660   47.8760 C   0  0  0  0  0  0  0  0  0  0  0  0
   61.3010   34.4830   48.9500 O   0  0  0  0  0  0  0  0  0  0  0  0
   60.4200   33.5740   46.9560 C   0  0  0  0  0  0  0  0  0  0  0  0
   59.4860   34.4960   46.4970 C   0  0  0  0  0  0  0  0  0  0  0  0
   58.5270   33.9420   45.6390 C   0  0  0  0  0  0  0  0  0  0  0  0
   58.6970   32.5730   45.4120 C   0  0  0  0  0  0  0  0  0  0  0  0
   57.8500   31.6960   44.5600 C   0  0  0  0  0  0  0  0  0  0  0  0
   57.7240   31.9540   43.1830 C   0  0  0  0  0  0  0  0  0  0  0  0
   56.9230   31.1400   42.3780 C   0  0  0  0  0  0  0  0  0  0  0  0
   56.2460   30.0530   42.9320 C   0  0  0  0  0  0  0  0  0  0  0  0
   56.3730   29.7640   44.3010 C   0  0  0  0  0  0  0  0  0  0  0  0
   55.6740   28.6720   44.9150 N   0  0  0  0  0  0  0  0  0  0  0  0
   56.2590   27.5720   45.6250 C   0  0  0  0  0  0  0  0  0  0  0  0
   55.5540   26.5720   45.9300 O   0  0  0  0  0  0  0  0  0  0  0  0
   57.7040   27.5850   45.9520 C   0  0  0  0  0  0  0  0  0  0  0  0
   58.1400   27.4180   47.2800 C   0  0  0  0  0  0  0  0  0  0  0  0
   59.5060   27.4310   47.5840 C   0  0  0  0  0  0  0  0  0  0  0  0
   60.4480   27.6060   46.5700 C   0  0  0  0  0  0  0  0  0  0  0  0
   60.0300   27.7700   45.2480 C   0  0  0  0  0  0  0  0  0  0  0  0
   58.6660   27.7600   44.9380 C   0  0  0  0  0  0  0  0  0  0  0  0
   57.1560   30.5990   45.1080 C   0  0  0  0  0  0  0  0  0  0  0  0
   60.0460   32.0740   46.2950 S   0  0  0  0  0  0  0  0  0  0  0  0
   67.0836   33.0837   51.9192 H   0  0  0  0  0  0  0  0  0  0  0  0
   68.1717   32.2950   50.7273 H   0  0  0  0  0  0  0  0  0  0  0  0
   67.9839   34.0814   50.7273 H   0  0  0  0  0  0  0  0  0  0  0  0
   66.1686   30.9024   51.6534 H   0  0  0  0  0  0  0  0  0  0  0  0
   64.1261   29.5149   51.9851 H   0  0  0  0  0  0  0  0  0  0  0  0
   62.0452   30.0234   50.7123 H   0  0  0  0  0  0  0  0  0  0  0  0
   61.9978   31.9240   49.1010 H   0  0  0  0  0  0  0  0  0  0  0  0
   63.8432   34.5807   49.0444 H   0  0  0  0  0  0  0  0  0  0  0  0
   64.9275   33.6928   47.9115 H   0  0  0  0  0  0  0  0  0  0  0  0
   63.0730   32.9980   46.6420 H   0  0  0  0  0  0  0  0  0  0  0  0
   59.4988   35.5588   46.7804 H   0  0  0  0  0  0  0  0  0  0  0  0
   57.7152   34.5299   45.1858 H   0  0  0  0  0  0  0  0  0  0  0  0
   58.2607   32.8039   42.7361 H   0  0  0  0  0  0  0  0  0  0  0  0
   56.8258   31.3568   41.3040 H   0  0  0  0  0  0  0  0  0  0  0  0
   55.6107   29.4202   42.2948 H   0  0  0  0  0  0  0  0  0  0  0  0
   57.4025   27.2764   48.0837 H   0  0  0  0  0  0  0  0  0  0  0  0
   59.8377   27.3029   48.6249 H   0  0  0  0  0  0  0  0  0  0  0  0
   61.5210   27.6148   46.8122 H   0  0  0  0  0  0  0  0  0  0  0  0
   60.7740   27.9072   44.4495 H   0  0  0  0  0  0  0  0  0  0  0  0
   58.3422   27.8897   43.8948 H   0  0  0  0  0  0  0  0  0  0  0  0
   57.2303   30.3952   46.1864 H   0  0  0  0  0  0  0  0  0  0  0  0
  1  2  1  0
  2  3  1  0
  3  4  2  0
  4  5  1  0
  5  6  2  0
  6  7  1  0
  7  8  2  0
  8  9  1  0
  9 10  1  0
 10 11  1  0
 11 12  2  0
 11 13  1  0
 13 14  2  0
 14 15  1  0
 15 16  2  0
 16 17  1  0
 17 18  2  0
 18 19  1  0
 19 20  2  0
 20 21  1  0
 21 22  1  0
 22 23  1  0
 23 24  2  0
 23 25  1  0
 25 26  2  0
 26 27  1  0
 27 28  2  0
 28 29  1  0
 29 30  2  0
 21 31  2  0
 16 32  1  0
  8  3  1  0
 32 13  1  0
 31 17  1  0
 30 25  1  0
  1 33  1  0
  1 34  1  0
  1 35  1  0
  4 36  1  0
  5 37  1  0
  6 38  1  0
  7 39  1  0
  9 40  1  0
  9 41  1  0
 10 42  1  0
 14 43  1  0
 15 44  1  0
 18 45  1  0
 19 46  1  0
 20 47  1  0
 26 48  1  0
 27 49  1  0
 28 50  1  0
 29 51  1  0
 30 52  1  0
 31 53  1  0
M  CHG  1  22  -1
M  END
>  <UniqueID>  (45) 
42

>  <SMILES>  (45) 
COc1ccccc1CNC(=O)c1ccc(-c2cccc([N-]C(=O)c3ccccc3)c2)s1

>  <Energy>  (45) 
87.87966856733684

>  <Genealogy>  (45) 
COc1ccccc1CNC(=O)c1ccc(-c2cccc([N-]C(=O)c3ccccc3)c2)s1 (protonated)
COc1ccccc1CNC(=O)c1ccc(-c2cccc([N-]C(=O)c3ccccc3)c2)s1 (3D coordinates assigned)
COc1ccccc1CNC(=O)c1ccc(-c2cccc([N-]C(=O)c3ccccc3)c2)s1 (optimized conformer: 87.87966856733684 kcal/mol)

>  <smiles>  (45) 
COc1ccccc1CNC(=O)c1ccc(-c2cccc(NC(=O)c3ccccc3)c2)s1

>  <score_type>  (45) 
oracle

>  <origin>  (45) 
adg

>  <m_score__min__energy>  (45) 
-11.48

>  <m_primary>  (45) 
energy

$$$$
45:0
     RDKit          3D

 29 30  0  0  0  0  0  0  0  0999 V2000
   57.5300   28.6280   43.7490 C   0  0  0  0  0  0  0  0  0  0  0  0
   56.7790   30.2320   43.9100 S   0  0  0  0  0  0  0  0  0  0  0  0
   55.4110   30.0880   44.5160 O   0  0  0  0  0  0  0  0  0  0  0  0
   56.6410   30.8610   42.5530 O   0  0  0  0  0  0  0  0  0  0  0  0
   57.7840   31.2470   44.9390 C   0  0  0  0  0  0  0  0  0  0  0  0
   58.6670   30.6650   45.8560 C   0  0  0  0  0  0  0  0  0  0  0  0
   59.4560   31.4710   46.6820 C   0  0  0  0  0  0  0  0  0  0  0  0
   59.3560   32.8700   46.6190 C   0  0  0  0  0  0  0  0  0  0  0  0
   60.1930   33.6760   47.4640 N   0  0  0  0  0  0  0  0  0  0  0  0
   61.6140   33.5140   47.5840 C   0  0  0  0  0  0  0  0  0  0  0  0
   62.3130   32.7860   46.7850 N   0  0  0  0  0  0  0  0  0  0  0  0
   63.7220   32.8820   47.1480 C   0  0  0  0  0  0  0  0  0  0  0  0
   63.7670   33.8610   48.3330 C   0  0  0  0  0  0  0  0  0  0  0  0
   62.3770   34.2140   48.5450 N   0  0  0  0  0  0  0  0  0  0  0  0
   58.4780   33.4500   45.6850 C   0  0  0  0  0  0  0  0  0  0  0  0
   57.6910   32.6430   44.8590 C   0  0  0  0  0  0  0  0  0  0  0  0
   57.7246   28.2123   44.7486 H   0  0  0  0  0  0  0  0  0  0  0  0
   56.8515   27.9590   43.1994 H   0  0  0  0  0  0  0  0  0  0  0  0
   58.4783   28.7206   43.1994 H   0  0  0  0  0  0  0  0  0  0  0  0
   58.7403   29.5697   45.9269 H   0  0  0  0  0  0  0  0  0  0  0  0
   60.1607   31.0055   47.3868 H   0  0  0  0  0  0  0  0  0  0  0  0
   59.7610   34.4880   47.9590 H   0  0  0  0  0  0  0  0  0  0  0  0
   64.1115   31.8974   47.4460 H   0  0  0  0  0  0  0  0  0  0  0  0
   64.3409   33.2263   46.3064 H   0  0  0  0  0  0  0  0  0  0  0  0
   64.1884   33.3760   49.2258 H   0  0  0  0  0  0  0  0  0  0  0  0
   64.4024   34.7371   48.1363 H   0  0  0  0  0  0  0  0  0  0  0  0
   62.0110   34.8720   49.2660 H   0  0  0  0  0  0  0  0  0  0  0  0
   58.4107   34.5450   45.6045 H   0  0  0  0  0  0  0  0  0  0  0  0
   56.9956   33.1055   44.1431 H   0  0  0  0  0  0  0  0  0  0  0  0
  1  2  1  0
  2  3  2  0
  2  4  2  0
  2  5  1  0
  5  6  2  0
  6  7  1  0
  7  8  2  0
  8  9  1  0
  9 10  1  0
 10 11  2  0
 11 12  1  0
 12 13  1  0
 13 14  1  0
  8 15  1  0
 15 16  2  0
 16  5  1  0
 14 10  1  0
  1 17  1  0
  1 18  1  0
  1 19  1  0
  6 20  1  0
  7 21  1  0
  9 22  1  0
 12 23  1  0
 12 24  1  0
 13 25  1  0
 13 26  1  0
 14 27  1  0
 15 28  1  0
 16 29  1  0
M  END
>  <UniqueID>  (46) 
43

>  <SMILES>  (46) 
CS(=O)(=O)c1ccc(NC2=NCCN2)cc1

>  <Energy>  (46) 
40.727001797074884

>  <Genealogy>  (46) 
CS(=O)(=O)c1ccc(NC2=NCCN2)cc1 (3D coordinates assigned)
CS(=O)(=O)c1ccc(NC2=NCCN2)cc1 (nonaromatic ring conformer: 40.727001797074884 kcal/mol)

>  <smiles>  (46) 
CS(=O)(=O)c1ccc(NC2=NCCN2)cc1

>  <score_type>  (46) 
oracle

>  <origin>  (46) 
adg

>  <m_score__min__energy>  (46) 
-6.1799999999999997

>  <m_primary>  (46) 
energy

$$$$
46:0
     RDKit          3D

 43 45  0  0  0  0  0  0  0  0999 V2000
   56.5910   24.7570   44.4950 C   0  0  0  0  0  0  0  0  0  0  0  0
   55.6610   25.5630   45.7780 S   0  0  0  0  0  0  0  0  0  0  0  0
   54.2080   25.2110   45.6170 O   0  0  0  0  0  0  0  0  0  0  0  0
   56.1660   25.0920   47.1130 O   0  0  0  0  0  0  0  0  0  0  0  0
   55.8800   27.2760   45.6270 N   0  0  0  0  0  0  0  0  0  0  0  0
   57.1120   28.0090   45.4980 C   0  0  0  0  0  0  0  0  0  0  0  0
   57.0260   29.3240   45.0200 C   0  0  0  0  0  0  0  0  0  0  0  0
   58.1710   30.1190   44.8640 C   0  0  0  0  0  0  0  0  0  0  0  0
   58.0770   31.5090   44.3670 C   0  0  0  0  0  0  0  0  0  0  0  0
   58.1200   31.7300   43.1280 O   0  0  0  0  0  0  0  0  0  0  0  0
   58.0000   32.6200   45.2640 N   0  0  0  0  0  0  0  0  0  0  0  0
   58.0140   34.0920   45.1270 C   0  0  0  0  0  0  0  0  0  0  0  0
   58.1500   34.3820   46.5840 C   0  0  0  0  0  0  0  0  0  0  0  0
   59.4290   35.0170   46.9540 N   0  0  0  0  0  0  0  0  0  0  0  0
   60.6590   34.3750   47.3570 C   0  0  0  0  0  0  0  0  0  0  0  0
   60.9470   34.2660   48.7280 C   0  0  0  0  0  0  0  0  0  0  0  0
   62.1350   33.6700   49.1630 C   0  0  0  0  0  0  0  0  0  0  0  0
   63.0570   33.1870   48.2320 C   0  0  0  0  0  0  0  0  0  0  0  0
   64.2090   32.6090   48.6550 F   0  0  0  0  0  0  0  0  0  0  0  0
   62.7940   33.3060   46.8660 C   0  0  0  0  0  0  0  0  0  0  0  0
   61.6090   33.9030   46.4260 C   0  0  0  0  0  0  0  0  0  0  0  0
   58.0920   32.8920   46.7150 C   0  0  0  0  0  0  0  0  0  0  0  0
   59.4250   29.5710   45.1670 C   0  0  0  0  0  0  0  0  0  0  0  0
   59.5270   28.2640   45.6410 C   0  0  0  0  0  0  0  0  0  0  0  0
   58.3830   27.4740   45.8140 C   0  0  0  0  0  0  0  0  0  0  0  0
   58.5260   26.1730   46.2900 O   0  0  0  0  0  0  0  0  0  0  0  0
   57.3484   24.1006   44.9483 H   0  0  0  0  0  0  0  0  0  0  0  0
   55.9118   24.1571   43.8714 H   0  0  0  0  0  0  0  0  0  0  0  0
   57.0882   25.5146   43.8714 H   0  0  0  0  0  0  0  0  0  0  0  0
   56.0411   29.7406   44.7622 H   0  0  0  0  0  0  0  0  0  0  0  0
   58.8696   34.4561   44.5394 H   0  0  0  0  0  0  0  0  0  0  0  0
   57.1671   34.5553   44.5997 H   0  0  0  0  0  0  0  0  0  0  0  0
   57.4939   35.0578   47.1521 H   0  0  0  0  0  0  0  0  0  0  0  0
   59.3630   36.0440   47.1350 H   0  0  0  0  0  0  0  0  0  0  0  0
   60.2303   34.6536   49.4670 H   0  0  0  0  0  0  0  0  0  0  0  0
   62.3434   33.5816   50.2395 H   0  0  0  0  0  0  0  0  0  0  0  0
   63.5222   32.9285   46.1330 H   0  0  0  0  0  0  0  0  0  0  0  0
   61.4158   34.0055   45.3480 H   0  0  0  0  0  0  0  0  0  0  0  0
   58.9990   32.4687   47.1712 H   0  0  0  0  0  0  0  0  0  0  0  0
   57.3042   32.4724   47.3579 H   0  0  0  0  0  0  0  0  0  0  0  0
   60.3337   30.1756   45.0300 H   0  0  0  0  0  0  0  0  0  0  0  0
   60.5166   27.8484   45.8818 H   0  0  0  0  0  0  0  0  0  0  0  0
   57.7420   25.6520   46.6650 H   0  0  0  0  0  0  0  0  0  0  0  0
  1  2  1  0
  2  3  2  0
  2  4  2  0
  2  5  1  0
  5  6  1  0
  6  7  2  0
  7  8  1  0
  8  9  1  0
  9 10  2  0
  9 11  1  0
 11 12  1  0
 12 13  1  0
 13 14  1  0
 14 15  1  0
 15 16  2  0
 16 17  1  0
 17 18  2  0
 18 19  1  0
 18 20  1  0
 20 21  2  0
 13 22  1  0
  8 23  2  0
 23 24  1  0
 24 25  2  0
 25 26  1  0
 25  6  1  0
 22 11  1  0
 21 15  1  0
  1 27  1  0
  1 28  1  0
  1 29  1  0
  7 30  1  0
 12 31  1  0
 12 32  1  0
 13 33  1  0
 14 34  1  0
 16 35  1  0
 17 36  1  0
 20 37  1  0
 21 38  1  0
 22 39  1  0
 22 40  1  0
 23 41  1  0
 24 42  1  0
 26 43  1  0
M  CHG  1   5  -1
M  END
>  <UniqueID>  (47) 
44

>  <SMILES>  (47) 
CS(=O)(=O)[N-]c1cc(C(=O)N2CC(Nc3ccc(F)cc3)C2)ccc1O

>  <Energy>  (47) 
101.5280309220614

>  <Genealogy>  (47) 
CS(=O)(=O)[N-]c1cc(C(=O)N2CC(Nc3ccc(F)cc3)C2)ccc1O (protonated)
CS(=O)(=O)[N-]c1cc(C(=O)N2CC(Nc3ccc(F)cc3)C2)ccc1O (3D coordinates assigned)
CS(=O)(=O)[N-]c1cc(C(=O)N2CC(Nc3ccc(F)cc3)C2)ccc1O (nonaromatic ring conformer: 101.5280309220614 kcal/mol)

>  <smiles>  (47) 
CS(=O)(=O)Nc1cc(C(=O)N2CC(Nc3ccc(F)cc3)C2)ccc1O

>  <score_type>  (47) 
oracle

>  <origin>  (47) 
adg

>  <m_score__min__energy>  (47) 
-10.35

>  <m_primary>  (47) 
energy

$$$$
47:0
     RDKit          3D

 49 51  0  0  0  0  0  0  0  0999 V2000
   55.4780   30.4880   52.0390 C   0  0  0  0  0  0  0  0  0  0  0  0
   56.8980   30.9660   51.9510 C   0  0  0  0  0  0  0  0  0  0  0  0
   57.2030   32.3110   52.2020 C   0  0  0  0  0  0  0  0  0  0  0  0
   58.5220   32.7740   52.0830 C   0  0  0  0  0  0  0  0  0  0  0  0
   58.8380   34.2220   52.3140 C   0  0  0  0  0  0  0  0  0  0  0  0
   59.5280   31.8930   51.6570 C   0  0  0  0  0  0  0  0  0  0  0  0
   59.2220   30.5550   51.3580 C   0  0  0  0  0  0  0  0  0  0  0  0
   60.2260   29.6460   50.8810 N   0  0  0  0  0  0  0  0  0  0  0  0
   61.5980   29.9730   50.6100 C   0  0  0  0  0  0  0  0  0  0  0  0
   62.5000   29.2640   51.1310 O   0  0  0  0  0  0  0  0  0  0  0  0
   61.9760   31.0860   49.7060 C   0  0  0  0  0  0  0  0  0  0  0  0
   63.1390   31.8350   49.9510 C   0  0  0  0  0  0  0  0  0  0  0  0
   63.4810   32.8990   49.1130 C   0  0  0  0  0  0  0  0  0  0  0  0
   62.6590   33.2390   48.0350 C   0  0  0  0  0  0  0  0  0  0  0  0
   61.4880   32.5110   47.7810 C   0  0  0  0  0  0  0  0  0  0  0  0
   60.6410   32.8910   46.6820 N   0  0  0  0  0  0  0  0  0  0  0  0
   59.4180   33.6280   46.8300 C   0  0  0  0  0  0  0  0  0  0  0  0
   59.0670   34.0600   47.9620 O   0  0  0  0  0  0  0  0  0  0  0  0
   58.5910   33.8550   45.6820 N   0  0  0  0  0  0  0  0  0  0  0  0
   58.1680   32.8700   44.7260 C   0  0  0  0  0  0  0  0  0  0  0  0
   58.1820   33.1160   43.3390 C   0  0  0  0  0  0  0  0  0  0  0  0
   57.7550   32.1280   42.4480 C   0  0  0  0  0  0  0  0  0  0  0  0
   57.3310   30.8850   42.9240 C   0  0  0  0  0  0  0  0  0  0  0  0
   57.3490   30.6170   44.2990 C   0  0  0  0  0  0  0  0  0  0  0  0
   56.8310   29.0530   44.9170 S   0  0  0  0  0  0  0  0  0  0  0  0
   57.3090   28.8660   46.3310 O   0  0  0  0  0  0  0  0  0  0  0  0
   57.3950   27.9610   44.0550 O   0  0  0  0  0  0  0  0  0  0  0  0
   55.1520   28.9750   44.9020 O   0  0  0  0  0  0  0  0  0  0  0  0
   57.7710   31.6100   45.1930 C   0  0  0  0  0  0  0  0  0  0  0  0
   61.1820   31.4030   48.5900 C   0  0  0  0  0  0  0  0  0  0  0  0
   57.9120   30.0940   51.5270 C   0  0  0  0  0  0  0  0  0  0  0  0
   55.1887   30.3906   53.0958 H   0  0  0  0  0  0  0  0  0  0  0  0
   54.8157   31.2127   51.5428 H   0  0  0  0  0  0  0  0  0  0  0  0
   55.3888   29.5103   51.5428 H   0  0  0  0  0  0  0  0  0  0  0  0
   56.4033   33.0076   52.4940 H   0  0  0  0  0  0  0  0  0  0  0  0
   58.8812   34.4199   53.3952 H   0  0  0  0  0  0  0  0  0  0  0  0
   59.8098   34.4625   51.8581 H   0  0  0  0  0  0  0  0  0  0  0  0
   58.0548   34.8455   51.8581 H   0  0  0  0  0  0  0  0  0  0  0  0
   60.5627   32.2525   51.5566 H   0  0  0  0  0  0  0  0  0  0  0  0
   63.7830   31.5826   50.8063 H   0  0  0  0  0  0  0  0  0  0  0  0
   64.4010   33.4716   49.3023 H   0  0  0  0  0  0  0  0  0  0  0  0
   62.9320   34.0817   47.3828 H   0  0  0  0  0  0  0  0  0  0  0  0
   60.9880   32.7290   45.7100 H   0  0  0  0  0  0  0  0  0  0  0  0
   58.5295   34.0872   42.9569 H   0  0  0  0  0  0  0  0  0  0  0  0
   57.7527   32.3299   41.3667 H   0  0  0  0  0  0  0  0  0  0  0  0
   56.9827   30.1161   42.2187 H   0  0  0  0  0  0  0  0  0  0  0  0
   57.7908   31.3983   46.2722 H   0  0  0  0  0  0  0  0  0  0  0  0
   60.3110   30.7766   48.3470 H   0  0  0  0  0  0  0  0  0  0  0  0
   57.6750   29.0389   51.3257 H   0  0  0  0  0  0  0  0  0  0  0  0
  1  2  1  0
  2  3  2  0
  3  4  1  0
  4  5  1  0
  4  6  2  0
  6  7  1  0
  7  8  1  0
  8  9  1  0
  9 10  2  0
  9 11  1  0
 11 12  2  0
 12 13  1  0
 13 14  2  0
 14 15  1  0
 15 16  1  0
 16 17  1  0
 17 18  2  0
 17 19  1  0
 19 20  1  0
 20 21  2  0
 21 22  1  0
 22 23  2  0
 23 24  1  0
 24 25  1  0
 25 26  2  0
 25 27  2  0
 25 28  1  0
 24 29  2  0
 15 30  2  0
  7 31  2  0
 31  2  1  0
 30 11  1  0
 29 20  1  0
  1 32  1  0
  1 33  1  0
  1 34  1  0
  3 35  1  0
  5 36  1  0
  5 37  1  0
  5 38  1  0
  6 39  1  0
 12 40  1  0
 13 41  1  0
 14 42  1  0
 16 43  1  0
 21 44  1  0
 22 45  1  0
 23 46  1  0
 29 47  1  0
 30 48  1  0
 31 49  1  0
M  CHG  3   8  -1  19  -1  28  -1
M  END
>  <UniqueID>  (48) 
45

>  <SMILES>  (48) 
Cc1cc(C)cc([N-]C(=O)c2cccc(NC(=O)[N-]c3cccc(S(=O)(=O)[O-])c3)c2)c1

>  <Energy>  (48) 
61.78126673070472

>  <Genealogy>  (48) 
Cc1cc(C)cc([N-]C(=O)c2cccc(NC(=O)[N-]c3cccc(S(=O)(=O)[O-])c3)c2)c1 (protonated)
Cc1cc(C)cc([N-]C(=O)c2cccc(NC(=O)[N-]c3cccc(S(=O)(=O)[O-])c3)c2)c1 (3D coordinates assigned)
Cc1cc(C)cc([N-]C(=O)c2cccc(NC(=O)[N-]c3cccc(S(=O)(=O)[O-])c3)c2)c1 (optimized conformer: 61.78126673070472 kcal/mol)

>  <smiles>  (48) 
Cc1cc(C)cc(NC(=O)c2cccc(NC(=O)Nc3cccc(S(=O)(=O)O)c3)c2)c1

>  <score_type>  (48) 
oracle

>  <origin>  (48) 
adg

>  <m_score__min__energy>  (48) 
-14.73

>  <m_primary>  (48) 
energy

$$$$
48:0
     RDKit          3D

 54 57  0  0  0  0  0  0  0  0999 V2000
   58.0252   20.5074   46.5735 H   0  0  0  0  0  0  0  0  0  0  0  0
   57.7470   21.4300   46.0430 C   0  0  0  0  0  0  0  0  0  0  0  0
   58.6830   31.2210   46.5760 N   0  0  0  0  0  0  0  0  0  0  0  0
   58.2580   32.1290   45.6540 C   0  0  0  0  0  0  0  0  0  0  0  0
   57.2530   31.8690   44.8660 N   0  0  0  0  0  0  0  0  0  0  0  0
   56.3180   26.0580   46.3000 C   0  0  0  0  0  0  0  0  0  0  0  0
   55.0910   26.3350   46.1900 O   0  0  0  0  0  0  0  0  0  0  0  0
   57.3350   27.0320   45.8400 C   0  0  0  0  0  0  0  0  0  0  0  0
   58.6690   26.9280   46.2710 C   0  0  0  0  0  0  0  0  0  0  0  0
   58.9556   26.1332   46.9754 H   0  0  0  0  0  0  0  0  0  0  0  0
   59.6350   27.8300   45.8090 C   0  0  0  0  0  0  0  0  0  0  0  0
   60.6699   27.7611   46.1754 H   0  0  0  0  0  0  0  0  0  0  0  0
   59.2880   28.8160   44.8850 C   0  0  0  0  0  0  0  0  0  0  0  0
   60.0519   29.5198   44.5228 H   0  0  0  0  0  0  0  0  0  0  0  0
   57.9740   28.9140   44.4170 C   0  0  0  0  0  0  0  0  0  0  0  0
   57.6790   29.8670   43.3860 N   0  0  0  0  0  0  0  0  0  0  0  0
   57.2990   31.2420   43.5700 C   0  0  0  0  0  0  0  0  0  0  0  0
   57.0050   31.9290   42.5560 O   0  0  0  0  0  0  0  0  0  0  0  0
   56.7390   24.7800   46.8180 N   0  0  0  0  0  0  0  0  0  0  0  0
   57.0520   23.7160   46.1310 C   0  0  0  0  0  0  0  0  0  0  0  0
   57.4120   22.5470   46.7480 N   0  0  0  0  0  0  0  0  0  0  0  0
   59.7710   31.4400   47.3600 C   0  0  0  0  0  0  0  0  0  0  0  0
   60.0936   30.6709   48.0773 H   0  0  0  0  0  0  0  0  0  0  0  0
   60.4820   32.6400   47.2580 C   0  0  0  0  0  0  0  0  0  0  0  0
   61.6840   32.8700   48.0860 C   0  0  0  0  0  0  0  0  0  0  0  0
   61.5640   33.0560   49.4750 C   0  0  0  0  0  0  0  0  0  0  0  0
   60.5705   33.0257   49.9461 H   0  0  0  0  0  0  0  0  0  0  0  0
   62.6980   33.2790   50.2610 C   0  0  0  0  0  0  0  0  0  0  0  0
   62.5955   33.4063   51.3488 H   0  0  0  0  0  0  0  0  0  0  0  0
   63.9700   33.3410   49.6640 C   0  0  0  0  0  0  0  0  0  0  0  0
   65.1920   33.5740   50.5050 C   0  0  0  0  0  0  0  0  0  0  0  0
   65.0657   33.0856   51.4825 H   0  0  0  0  0  0  0  0  0  0  0  0
   65.3383   34.6535   50.6574 H   0  0  0  0  0  0  0  0  0  0  0  0
   66.3140   33.0290   49.8450 O   0  0  0  0  0  0  0  0  0  0  0  0
   66.9280   32.0710   50.6790 C   0  0  0  0  0  0  0  0  0  0  0  0
   66.7568   32.3382   51.7322 H   0  0  0  0  0  0  0  0  0  0  0  0
   66.4968   31.0793   50.4775 H   0  0  0  0  0  0  0  0  0  0  0  0
   68.0092   32.0486   50.4775 H   0  0  0  0  0  0  0  0  0  0  0  0
   64.0950   33.1270   48.2800 C   0  0  0  0  0  0  0  0  0  0  0  0
   65.0896   33.1428   47.8104 H   0  0  0  0  0  0  0  0  0  0  0  0
   62.9580   32.8940   47.4980 C   0  0  0  0  0  0  0  0  0  0  0  0
   63.0636   32.7286   46.4156 H   0  0  0  0  0  0  0  0  0  0  0  0
   57.3650   22.6380   43.9900 C   0  0  0  0  0  0  0  0  0  0  0  0
   57.3392   22.6720   42.8908 H   0  0  0  0  0  0  0  0  0  0  0  0
   57.0260   23.7750   44.7320 C   0  0  0  0  0  0  0  0  0  0  0  0
   58.5000   34.3130   44.6220 O   0  0  0  0  0  0  0  0  0  0  0  0
   56.9890   28.0530   44.9350 C   0  0  0  0  0  0  0  0  0  0  0  0
   55.9396   28.1789   44.6301 H   0  0  0  0  0  0  0  0  0  0  0  0
   58.9250   33.3560   45.5390 C   0  0  0  0  0  0  0  0  0  0  0  0
   56.7417   24.7067   44.2210 H   0  0  0  0  0  0  0  0  0  0  0  0
   60.0370   33.6110   46.3450 C   0  0  0  0  0  0  0  0  0  0  0  0
   60.5648   34.5728   46.2649 H   0  0  0  0  0  0  0  0  0  0  0  0
   57.7370   21.4570   44.6440 C   0  0  0  0  0  0  0  0  0  0  0  0
   58.0172   20.5637   44.0665 H   0  0  0  0  0  0  0  0  0  0  0  0
  1  2  1  0
  2  3  1  0
  3  4  1  0
  4  5  2  0
  5  6  1  0
  6  7  2  0
  6  8  1  0
  8  9  2  0
  9 10  1  0
  9 11  1  0
 11 12  1  0
 11 13  2  0
 13 14  1  0
 13 15  1  0
 15 16  1  0
 16 17  1  0
 17 18  2  0
 17 19  1  0
 19 20  2  0
 20 21  1  0
 21 22  1  0
 22 23  1  0
 22 24  2  0
 24 25  1  0
 25 26  2  0
 26 27  1  0
 26 28  1  0
 28 29  1  0
 28 30  2  0
 30 31  1  0
 31 32  1  0
 31 33  1  0
 31 34  1  0
 34 35  1  0
 35 36  1  0
 35 37  1  0
 35 38  1  0
 30 39  1  0
 39 40  1  0
 39 41  2  0
 41 42  1  0
 24 43  1  0
 43 44  1  0
 43 45  2  0
 45 46  1  0
 15 47  2  0
 47 48  1  0
  4 49  1  0
 49 50  1  0
 49 51  2  0
 51 52  1  0
 51 53  1  0
 53 54  1  0
 53  2  2  0
 47  8  1  0
 45 20  1  0
 41 25  1  0
M  CHG  4   3  -1  16  -1  21  -1  46  -1
M  END
>  <UniqueID>  (49) 
46

>  <SMILES>  (49) 
COCc1ccc(-c2c[n-]/c(=N\C(=O)[N-]c3cccc(C(=O)/N=c4/cccc[n-]4)c3)c([O-])c2)cc1

>  <Energy>  (49) 
78.74078038284387

>  <Genealogy>  (49) 
COCc1ccc(-c2c[n-]c(=NC(=O)[N-]c3cccc(C(=O)N=c4cccc[n-]4)c3)c([O-])c2)cc1 (protonated)
COCc1ccc(-c2c[n-]/c(=N\C(=O)[N-]c3cccc(C(=O)/N=c4/cccc[n-]4)c3)c([O-])c2)cc1 (cis-trans isomerization)
COCc1ccc(-c2c[n-]/c(=N\C(=O)[N-]c3cccc(C(=O)/N=c4/cccc[n-]4)c3)c([O-])c2)cc1 (3D coordinates assigned)
COCc1ccc(-c2c[n-]/c(=N\C(=O)[N-]c3cccc(C(=O)/N=c4/cccc[n-]4)c3)c([O-])c2)cc1 (optimized conformer: 78.74078038284387 kcal/mol)

>  <smiles>  (49) 
COCc1ccc(-c2c[nH]c(=NC(=O)Nc3cccc(C(=O)N=c4cccc[nH]4)c3)c(O)c2)cc1

>  <score_type>  (49) 
oracle

>  <origin>  (49) 
adg

>  <m_score__min__energy>  (49) 
-13.35

>  <m_primary>  (49) 
energy

$$$$
49:0
     RDKit          3D

 38 40  0  0  0  0  0  0  0  0999 V2000
   55.9013   29.1679   43.0088 H   0  0  0  0  0  0  0  0  0  0  0  0
   56.3120   30.1300   43.3490 C   0  0  0  0  0  0  0  0  0  0  0  0
   56.0347   31.0603   42.8316 H   0  0  0  0  0  0  0  0  0  0  0  0
   57.1560   30.1690   44.4010 C   0  0  0  0  0  0  0  0  0  0  0  0
   57.6460   31.4370   44.7850 C   0  0  0  0  0  0  0  0  0  0  0  0
   57.3578   32.3190   44.1943 H   0  0  0  0  0  0  0  0  0  0  0  0
   58.4930   31.6110   45.9010 C   0  0  0  0  0  0  0  0  0  0  0  0
   58.9860   32.9350   46.2840 N   0  0  0  0  0  0  0  0  0  0  0  0
   59.0380   34.0130   45.2740 C   0  0  0  0  0  0  0  0  0  0  0  0
   59.6410   33.6630   44.4232 H   0  0  0  0  0  0  0  0  0  0  0  0
   57.9995   34.2365   44.9884 H   0  0  0  0  0  0  0  0  0  0  0  0
   59.6490   35.3160   45.7960 C   0  0  0  0  0  0  0  0  0  0  0  0
   60.7457   35.2393   45.7598 H   0  0  0  0  0  0  0  0  0  0  0  0
   59.3007   36.1456   45.1633 H   0  0  0  0  0  0  0  0  0  0  0  0
   59.2480   35.5630   47.1220 O   0  0  0  0  0  0  0  0  0  0  0  0
   59.8610   34.6080   47.9540 C   0  0  0  0  0  0  0  0  0  0  0  0
   60.9416   34.5934   47.7487 H   0  0  0  0  0  0  0  0  0  0  0  0
   59.6702   34.8835   49.0017 H   0  0  0  0  0  0  0  0  0  0  0  0
   59.2860   33.2110   47.7060 C   0  0  0  0  0  0  0  0  0  0  0  0
   60.0165   32.4674   48.0574 H   0  0  0  0  0  0  0  0  0  0  0  0
   58.3330   33.1541   48.2524 H   0  0  0  0  0  0  0  0  0  0  0  0
   58.8370   30.4650   46.6380 C   0  0  0  0  0  0  0  0  0  0  0  0
   59.4802   30.5680   47.5244 H   0  0  0  0  0  0  0  0  0  0  0  0
   58.3810   29.2020   46.2700 C   0  0  0  0  0  0  0  0  0  0  0  0
   58.6823   28.3292   46.8679 H   0  0  0  0  0  0  0  0  0  0  0  0
   57.5430   29.0110   45.1510 C   0  0  0  0  0  0  0  0  0  0  0  0
   57.1680   27.7500   44.7980 C   0  0  0  0  0  0  0  0  0  0  0  0
   56.8351   27.5878   43.7622 H   0  0  0  0  0  0  0  0  0  0  0  0
   57.1760   26.5800   45.7090 C   0  0  0  0  0  0  0  0  0  0  0  0
   55.9880   26.0840   46.2730 C   0  0  0  0  0  0  0  0  0  0  0  0
   54.7690   26.6980   46.0040 O   0  0  0  0  0  0  0  0  0  0  0  0
   56.0230   24.9900   47.0800 N   0  0  0  0  0  0  0  0  0  0  0  0
   55.1350   24.6350   47.5010 H   0  0  0  0  0  0  0  0  0  0  0  0
   57.1960   24.3480   47.3350 C   0  0  0  0  0  0  0  0  0  0  0  0
   57.2140   23.3360   48.0840 O   0  0  0  0  0  0  0  0  0  0  0  0
   58.3500   24.7940   46.7790 N   0  0  0  0  0  0  0  0  0  0  0  0
   58.3660   25.8850   45.9700 C   0  0  0  0  0  0  0  0  0  0  0  0
   59.4560   26.2670   45.4680 O   0  0  0  0  0  0  0  0  0  0  0  0
  1  2  1  0
  2  3  1  0
  2  4  2  0
  4  5  1  0
  5  6  1  0
  5  7  2  0
  7  8  1  0
  8  9  1  0
  9 10  1  0
  9 11  1  0
  9 12  1  0
 12 13  1  0
 12 14  1  0
 12 15  1  0
 15 16  1  0
 16 17  1  0
 16 18  1  0
 16 19  1  0
 19 20  1  0
 19 21  1  0
  7 22  1  0
 22 23  1  0
 22 24  2  0
 24 25  1  0
 24 26  1  0
 26 27  2  0
 27 28  1  0
 27 29  1  0
 29 30  2  0
 30 31  1  0
 30 32  1  0
 32 33  1  0
 32 34  1  0
 34 35  2  0
 34 36  1  0
 36 37  1  0
 37 38  2  0
 26  4  1  0
 37 29  1  0
 19  8  1  0
M  CHG  2  31  -1  36  -1
M  END
>  <UniqueID>  (50) 
47

>  <SMILES>  (50) 
C=c1cc(N2CCOCC2)cc/c1=C\c1c([O-])[nH]c(=O)[n-]c1=O

>  <Energy>  (50) 
67.87028379073908

>  <Genealogy>  (50) 
C=c1cc(N2CCOCC2)ccc1=Cc1c([O-])[nH]c(=O)[n-]c1=O (protonated)
C=c1cc(N2CCOCC2)cc/c1=C\c1c([O-])[nH]c(=O)[n-]c1=O (cis-trans isomerization)
C=c1cc(N2CCOCC2)cc/c1=C\c1c([O-])[nH]c(=O)[n-]c1=O (3D coordinates assigned)
C=c1cc(N2CCOCC2)cc/c1=C\c1c([O-])[nH]c(=O)[n-]c1=O (nonaromatic ring conformer: 67.87028379073908 kcal/mol)

>  <smiles>  (50) 
C=c1cc(N2CCOCC2)ccc1=Cc1c(O)[nH]c(=O)[nH]c1=O

>  <score_type>  (50) 
oracle

>  <origin>  (50) 
adg

>  <m_score__min__energy>  (50) 
-13.279999999999999

>  <m_primary>  (50) 
energy

$$$$
50:0
     RDKit          3D

 49 52  0  0  0  0  0  0  0  0999 V2000
   59.3970   35.2660   45.3520 O   0  0  0  0  0  0  0  0  0  0  0  0
   58.7420   34.6080   46.1470 C   0  0  0  0  0  0  0  0  0  0  0  0
   59.2310   34.4540   47.5610 C   0  0  0  0  0  0  0  0  0  0  0  0
   60.4000   33.5050   47.6080 C   0  0  0  0  0  0  0  0  0  0  0  0
   61.6350   33.8900   47.0600 C   0  0  0  0  0  0  0  0  0  0  0  0
   62.7350   33.0300   47.1240 C   0  0  0  0  0  0  0  0  0  0  0  0
   63.9230   33.4070   46.5890 F   0  0  0  0  0  0  0  0  0  0  0  0
   62.6140   31.7830   47.7440 C   0  0  0  0  0  0  0  0  0  0  0  0
   61.3930   31.3960   48.3020 C   0  0  0  0  0  0  0  0  0  0  0  0
   60.2870   32.2520   48.2400 C   0  0  0  0  0  0  0  0  0  0  0  0
   59.1140   31.8580   48.7950 F   0  0  0  0  0  0  0  0  0  0  0  0
   57.4380   34.0000   45.7080 C   0  0  0  0  0  0  0  0  0  0  0  0
   57.6350   32.6090   45.3110 N   0  0  0  0  0  0  0  0  0  0  0  0
   58.7940   31.9200   45.4030 C   0  0  0  0  0  0  0  0  0  0  0  0
   58.5440   30.6380   44.9730 C   0  0  0  0  0  0  0  0  0  0  0  0
   57.2110   30.6100   44.6730 C   0  0  0  0  0  0  0  0  0  0  0  0
   56.6620   31.8230   44.8670 N   0  0  0  0  0  0  0  0  0  0  0  0
   56.5270   29.3940   44.1330 C   0  0  0  0  0  0  0  0  0  0  0  0
   57.2760   28.1620   44.4860 N   0  0  0  0  0  0  0  0  0  0  0  0
   57.0090   27.7330   45.8770 C   0  0  0  0  0  0  0  0  0  0  0  0
   56.8840   26.2310   45.9630 C   0  0  0  0  0  0  0  0  0  0  0  0
   58.0510   25.4480   46.0080 C   0  0  0  0  0  0  0  0  0  0  0  0
   57.9670   24.0560   46.1020 C   0  0  0  0  0  0  0  0  0  0  0  0
   56.7190   23.4330   46.1520 C   0  0  0  0  0  0  0  0  0  0  0  0
   55.5520   24.1990   46.1080 C   0  0  0  0  0  0  0  0  0  0  0  0
   55.6270   25.5940   46.0150 C   0  0  0  0  0  0  0  0  0  0  0  0
   54.4500   26.3330   45.9740 O   0  0  0  0  0  0  0  0  0  0  0  0
   58.7300   28.2860   44.1800 C   0  0  0  0  0  0  0  0  0  0  0  0
   59.4280   29.4380   44.9440 C   0  0  0  0  0  0  0  0  0  0  0  0
   59.5445   35.4357   47.9458 H   0  0  0  0  0  0  0  0  0  0  0  0
   58.4163   34.0501   48.1800 H   0  0  0  0  0  0  0  0  0  0  0  0
   61.7368   34.8735   46.5780 H   0  0  0  0  0  0  0  0  0  0  0  0
   63.4800   31.1065   47.7925 H   0  0  0  0  0  0  0  0  0  0  0  0
   61.3004   30.4154   48.7917 H   0  0  0  0  0  0  0  0  0  0  0  0
   56.7200   34.0415   46.5403 H   0  0  0  0  0  0  0  0  0  0  0  0
   57.0513   34.5660   44.8477 H   0  0  0  0  0  0  0  0  0  0  0  0
   59.7590   32.3122   45.7565 H   0  0  0  0  0  0  0  0  0  0  0  0
   55.5138   29.3330   44.5569 H   0  0  0  0  0  0  0  0  0  0  0  0
   56.4817   29.4749   43.0369 H   0  0  0  0  0  0  0  0  0  0  0  0
   57.8376   28.0629   46.5209 H   0  0  0  0  0  0  0  0  0  0  0  0
   56.0619   28.1840   46.2082 H   0  0  0  0  0  0  0  0  0  0  0  0
   59.0369   25.9343   45.9690 H   0  0  0  0  0  0  0  0  0  0  0  0
   58.8851   23.4511   46.1366 H   0  0  0  0  0  0  0  0  0  0  0  0
   56.6545   22.3374   46.2261 H   0  0  0  0  0  0  0  0  0  0  0  0
   54.5702   23.7044   46.1466 H   0  0  0  0  0  0  0  0  0  0  0  0
   59.2239   27.3407   44.4492 H   0  0  0  0  0  0  0  0  0  0  0  0
   58.8158   28.5119   43.1069 H   0  0  0  0  0  0  0  0  0  0  0  0
   59.6398   29.1163   45.9744 H   0  0  0  0  0  0  0  0  0  0  0  0
   60.3680   29.6935   44.4329 H   0  0  0  0  0  0  0  0  0  0  0  0
  1  2  2  0
  2  3  1  0
  3  4  1  0
  4  5  2  0
  5  6  1  0
  6  7  1  0
  6  8  2  0
  8  9  1  0
  9 10  2  0
 10 11  1  0
  2 12  1  0
 12 13  1  0
 13 14  1  0
 14 15  2  0
 15 16  1  0
 16 17  2  0
 16 18  1  0
 18 19  1  0
 19 20  1  0
 20 21  1  0
 21 22  2  0
 22 23  1  0
 23 24  2  0
 24 25  1  0
 25 26  2  0
 26 27  1  0
 19 28  1  0
 28 29  1  0
 10  4  1  0
 17 13  1  0
 26 21  1  0
 29 15  1  0
  3 30  1  0
  3 31  1  0
  5 32  1  0
  8 33  1  0
  9 34  1  0
 12 35  1  0
 12 36  1  0
 14 37  1  0
 18 38  1  0
 18 39  1  0
 20 40  1  0
 20 41  1  0
 22 42  1  0
 23 43  1  0
 24 44  1  0
 25 45  1  0
 28 46  1  0
 28 47  1  0
 29 48  1  0
 29 49  1  0
M  CHG  1  27  -1
M  END
>  <UniqueID>  (51) 
48

>  <SMILES>  (51) 
O=C(Cc1cc(F)ccc1F)Cn1cc2c(n1)CN(Cc1ccccc1[O-])CC2

>  <Energy>  (51) 
87.7554106817277

>  <Genealogy>  (51) 
O=C(Cc1cc(F)ccc1F)Cn1cc2c(n1)CN(Cc1ccccc1[O-])CC2 (protonated)
O=C(Cc1cc(F)ccc1F)Cn1cc2c(n1)CN(Cc1ccccc1[O-])CC2 (3D coordinates assigned)
O=C(Cc1cc(F)ccc1F)Cn1cc2c(n1)CN(Cc1ccccc1[O-])CC2 (nonaromatic ring conformer: 87.7554106817277 kcal/mol)

>  <smiles>  (51) 
O=C(Cc1cc(F)ccc1F)Cn1cc2c(n1)CN(Cc1ccccc1O)CC2

>  <score_type>  (51) 
oracle

>  <origin>  (51) 
adg

>  <m_score__min__energy>  (51) 
-13.23

>  <m_primary>  (51) 
energy

$$$$
51:0
     RDKit          3D

 34 36  0  0  0  0  0  0  0  0999 V2000
   64.6130   33.1040   47.3470 H   0  0  0  0  0  0  0  0  0  0  0  0
   63.7970   33.6610   47.1230 O   0  0  0  0  0  0  0  0  0  0  0  0
   62.5200   33.1060   47.0500 C   0  0  0  0  0  0  0  0  0  0  0  0
   61.5170   33.7930   46.3580 C   0  0  0  0  0  0  0  0  0  0  0  0
   61.7449   34.7569   45.8795 H   0  0  0  0  0  0  0  0  0  0  0  0
   60.2270   33.2620   46.2710 C   0  0  0  0  0  0  0  0  0  0  0  0
   59.4476   33.8070   45.7182 H   0  0  0  0  0  0  0  0  0  0  0  0
   59.9190   32.0330   46.8870 C   0  0  0  0  0  0  0  0  0  0  0  0
   58.5710   31.4190   46.8110 C   0  0  0  0  0  0  0  0  0  0  0  0
   58.2023   30.8638   47.6861 H   0  0  0  0  0  0  0  0  0  0  0  0
   57.7770   31.5040   45.7330 C   0  0  0  0  0  0  0  0  0  0  0  0
   57.2295   32.4414   45.5551 H   0  0  0  0  0  0  0  0  0  0  0  0
   57.6060   30.3910   44.7730 C   0  0  0  0  0  0  0  0  0  0  0  0
   57.6640   30.6430   43.5400 O   0  0  0  0  0  0  0  0  0  0  0  0
   57.3510   28.9960   45.2050 C   0  0  0  0  0  0  0  0  0  0  0  0
   56.0260   28.5350   45.2400 C   0  0  0  0  0  0  0  0  0  0  0  0
   54.9770   29.3640   44.8590 O   0  0  0  0  0  0  0  0  0  0  0  0
   55.7510   27.2760   45.6600 N   0  0  0  0  0  0  0  0  0  0  0  0
   56.7170   26.4100   46.0580 C   0  0  0  0  0  0  0  0  0  0  0  0
   56.3740   25.2600   46.4410 O   0  0  0  0  0  0  0  0  0  0  0  0
   58.0740   26.8030   46.0350 C   0  0  0  0  0  0  0  0  0  0  0  0
   59.1180   25.9310   46.4320 C   0  0  0  0  0  0  0  0  0  0  0  0
   58.8570   24.6420   46.8860 O   0  0  0  0  0  0  0  0  0  0  0  0
   60.4470   26.3550   46.3710 C   0  0  0  0  0  0  0  0  0  0  0  0
   61.2519   25.6749   46.6867 H   0  0  0  0  0  0  0  0  0  0  0  0
   60.7610   27.6310   45.9140 C   0  0  0  0  0  0  0  0  0  0  0  0
   61.8121   27.9512   45.8624 H   0  0  0  0  0  0  0  0  0  0  0  0
   59.7480   28.5060   45.5210 C   0  0  0  0  0  0  0  0  0  0  0  0
   60.0078   29.5101   45.1544 H   0  0  0  0  0  0  0  0  0  0  0  0
   58.3930   28.1160   45.5890 C   0  0  0  0  0  0  0  0  0  0  0  0
   60.9360   31.3420   47.5660 C   0  0  0  0  0  0  0  0  0  0  0  0
   60.7149   30.3714   48.0340 H   0  0  0  0  0  0  0  0  0  0  0  0
   62.2270   31.8740   47.6540 C   0  0  0  0  0  0  0  0  0  0  0  0
   63.2120   31.1730   48.3420 O   0  0  0  0  0  0  0  0  0  0  0  0
  1  2  1  0
  2  3  1  0
  3  4  2  0
  4  5  1  0
  4  6  1  0
  6  7  1  0
  6  8  2  0
  8  9  1  0
  9 10  1  0
  9 11  2  0
 11 12  1  0
 11 13  1  0
 13 14  2  0
 13 15  1  0
 15 16  2  0
 16 17  1  0
 16 18  1  0
 18 19  1  0
 19 20  2  0
 19 21  1  0
 21 22  2  0
 22 23  1  0
 22 24  1  0
 24 25  1  0
 24 26  2  0
 26 27  1  0
 26 28  1  0
 28 29  1  0
 28 30  2  0
  8 31  1  0
 31 32  1  0
 31 33  2  0
 33 34  1  0
 33  3  1  0
 30 15  1  0
 30 21  1  0
M  CHG  4  17  -1  18  -1  23  -1  34  -1
M  END
>  <UniqueID>  (52) 
49

>  <SMILES>  (52) 
O=C(/C=C/c1ccc(O)c([O-])c1)c1c([O-])[n-]c(=O)c2c([O-])cccc12

>  <Energy>  (52) 
55.39832998186159

>  <Genealogy>  (52) 
O=C(C=Cc1ccc(O)c([O-])c1)c1c([O-])[n-]c(=O)c2c([O-])cccc12 (protonated)
O=C(/C=C/c1ccc(O)c([O-])c1)c1c([O-])[n-]c(=O)c2c([O-])cccc12 (cis-trans isomerization)
O=C(/C=C/c1ccc(O)c([O-])c1)c1c([O-])[n-]c(=O)c2c([O-])cccc12 (3D coordinates assigned)
O=C(/C=C/c1ccc(O)c([O-])c1)c1c([O-])[n-]c(=O)c2c([O-])cccc12 (optimized conformer: 55.39832998186159 kcal/mol)

>  <smiles>  (52) 
O=C(C=Cc1ccc(O)c(O)c1)c1c(O)[nH]c(=O)c2c(O)cccc12

>  <score_type>  (52) 
oracle

>  <origin>  (52) 
adg

>  <m_score__min__energy>  (52) 
-17.399999999999999

>  <m_primary>  (52) 
energy

$$$$
52:0
     RDKit          3D

 42 44  0  0  0  0  0  0  0  0999 V2000
   55.8800   30.8070   44.4980 O   0  0  0  0  0  0  0  0  0  0  0  0
   57.2160   31.1970   43.9280 S   0  0  0  0  0  0  0  0  0  0  0  0
   57.0360   31.5970   42.4910 O   0  0  0  0  0  0  0  0  0  0  0  0
   58.2890   29.8350   44.0160 N   0  0  0  0  0  0  0  0  0  0  0  0
   58.8980   29.3690   45.2330 C   0  0  0  0  0  0  0  0  0  0  0  0
   58.8220   28.0050   45.5580 C   0  0  0  0  0  0  0  0  0  0  0  0
   59.4070   27.5210   46.7320 C   0  0  0  0  0  0  0  0  0  0  0  0
   60.0780   28.3920   47.5920 C   0  0  0  0  0  0  0  0  0  0  0  0
   60.1670   29.7550   47.2810 C   0  0  0  0  0  0  0  0  0  0  0  0
   61.0030   30.8630   48.3670 S   0  0  0  0  0  0  0  0  0  0  0  0
   61.5800   30.0910   49.5230 O   0  0  0  0  0  0  0  0  0  0  0  0
   60.0210   31.8670   48.9060 O   0  0  0  0  0  0  0  0  0  0  0  0
   62.2630   31.6950   47.4910 N   0  0  0  0  0  0  0  0  0  0  0  0
   63.3130   32.1700   48.3900 C   0  0  0  0  0  0  0  0  0  0  0  0
   63.9480   33.3740   47.7130 C   0  0  0  0  0  0  0  0  0  0  0  0
   62.9140   33.8610   46.7100 C   0  0  0  0  0  0  0  0  0  0  0  0
   61.7460   32.8940   46.8310 C   0  0  0  0  0  0  0  0  0  0  0  0
   59.5690   30.2420   46.1120 C   0  0  0  0  0  0  0  0  0  0  0  0
   57.8990   32.5580   44.8130 C   0  0  0  0  0  0  0  0  0  0  0  0
   57.6130   32.7150   46.1770 C   0  0  0  0  0  0  0  0  0  0  0  0
   58.1280   33.8100   46.8800 C   0  0  0  0  0  0  0  0  0  0  0  0
   58.9300   34.7490   46.2240 C   0  0  0  0  0  0  0  0  0  0  0  0
   59.2200   34.5930   44.8660 C   0  0  0  0  0  0  0  0  0  0  0  0
   58.7080   33.5000   44.1600 C   0  0  0  0  0  0  0  0  0  0  0  0
   58.5380   29.3710   43.1140 H   0  0  0  0  0  0  0  0  0  0  0  0
   58.2980   27.3118   44.8835 H   0  0  0  0  0  0  0  0  0  0  0  0
   59.3383   26.4512   46.9786 H   0  0  0  0  0  0  0  0  0  0  0  0
   60.5373   28.0078   48.5147 H   0  0  0  0  0  0  0  0  0  0  0  0
   62.8808   32.4625   49.3583 H   0  0  0  0  0  0  0  0  0  0  0  0
   64.0574   31.3835   48.5833 H   0  0  0  0  0  0  0  0  0  0  0  0
   64.1688   34.1592   48.4510 H   0  0  0  0  0  0  0  0  0  0  0  0
   64.9011   33.1167   47.2278 H   0  0  0  0  0  0  0  0  0  0  0  0
   62.5931   34.8844   46.9544 H   0  0  0  0  0  0  0  0  0  0  0  0
   63.3178   33.8883   45.6872 H   0  0  0  0  0  0  0  0  0  0  0  0
   60.9427   33.3426   47.4338 H   0  0  0  0  0  0  0  0  0  0  0  0
   61.3261   32.6534   45.8432 H   0  0  0  0  0  0  0  0  0  0  0  0
   59.6237   31.3154   45.8781 H   0  0  0  0  0  0  0  0  0  0  0  0
   56.9832   31.9766   46.6948 H   0  0  0  0  0  0  0  0  0  0  0  0
   57.9017   33.9321   47.9495 H   0  0  0  0  0  0  0  0  0  0  0  0
   59.3326   35.6105   46.7770 H   0  0  0  0  0  0  0  0  0  0  0  0
   59.8523   35.3315   44.3514 H   0  0  0  0  0  0  0  0  0  0  0  0
   58.9398   33.3786   43.0916 H   0  0  0  0  0  0  0  0  0  0  0  0
  1  2  2  0
  2  3  2  0
  2  4  1  0
  4  5  1  0
  5  6  2  0
  6  7  1  0
  7  8  2  0
  8  9  1  0
  9 10  1  0
 10 11  2  0
 10 12  2  0
 10 13  1  0
 13 14  1  0
 14 15  1  0
 15 16  1  0
 16 17  1  0
  9 18  2  0
  2 19  1  0
 19 20  2  0
 20 21  1  0
 21 22  2  0
 22 23  1  0
 23 24  2  0
 18  5  1  0
 24 19  1  0
 17 13  1  0
  4 25  1  0
  6 26  1  0
  7 27  1  0
  8 28  1  0
 14 29  1  0
 14 30  1  0
 15 31  1  0
 15 32  1  0
 16 33  1  0
 16 34  1  0
 17 35  1  0
 17 36  1  0
 18 37  1  0
 20 38  1  0
 21 39  1  0
 22 40  1  0
 23 41  1  0
 24 42  1  0
M  END
>  <UniqueID>  (53) 
50

>  <SMILES>  (53) 
O=S(=O)(Nc1cccc(S(=O)(=O)N2CCCC2)c1)c1ccccc1

>  <Energy>  (53) 
45.41352016328501

>  <Genealogy>  (53) 
O=S(=O)(Nc1cccc(S(=O)(=O)N2CCCC2)c1)c1ccccc1 (3D coordinates assigned)
O=S(=O)(Nc1cccc(S(=O)(=O)N2CCCC2)c1)c1ccccc1 (nonaromatic ring conformer: 45.41352016328501 kcal/mol)

>  <smiles>  (53) 
O=S(=O)(Nc1cccc(S(=O)(=O)N2CCCC2)c1)c1ccccc1

>  <score_type>  (53) 
oracle

>  <origin>  (53) 
adg

>  <m_score__min__energy>  (53) 
-10.039999999999999

>  <m_primary>  (53) 
energy

$$$$
53:0
     RDKit          3D

 37 39  0  0  0  0  0  0  0  0999 V2000
   55.1750   26.7160   45.9990 O   0  0  0  0  0  0  0  0  0  0  0  0
   56.2730   27.2100   45.6270 C   0  0  0  0  0  0  0  0  0  0  0  0
   57.4540   26.3010   45.4120 C   0  0  0  0  0  0  0  0  0  0  0  0
   58.7920   26.9970   45.7250 C   0  0  2  0  0  0  0  0  0  0  0  0
   58.6660   27.6730   46.9840 O   0  0  0  0  0  0  0  0  0  0  0  0
   59.4170   28.8000   47.3350 C   0  0  0  0  0  0  0  0  0  0  0  0
   59.4970   29.2000   48.6730 C   0  0  0  0  0  0  0  0  0  0  0  0
   60.2390   30.3330   49.0200 C   0  0  0  0  0  0  0  0  0  0  0  0
   60.8950   31.0730   48.0310 C   0  0  0  0  0  0  0  0  0  0  0  0
   60.8060   30.6830   46.6900 C   0  0  0  0  0  0  0  0  0  0  0  0
   60.0660   29.5450   46.3390 C   0  0  0  0  0  0  0  0  0  0  0  0
   59.9250   29.1550   44.9720 N   0  0  0  0  0  0  0  0  0  0  0  0
   59.2230   27.9550   44.6320 C   0  0  0  0  0  0  0  0  0  0  0  0
   59.0540   27.6610   43.4180 O   0  0  0  0  0  0  0  0  0  0  0  0
   56.3620   28.6280   45.4420 N   0  0  0  0  0  0  0  0  0  0  0  0
   56.0060   29.3300   44.2150 C   0  0  0  0  0  0  0  0  0  0  0  0
   56.8130   30.5920   44.1140 C   0  0  0  0  0  0  0  0  0  0  0  0
   57.4110   31.1450   45.2580 C   0  0  0  0  0  0  0  0  0  0  0  0
   58.1900   32.3020   45.1560 C   0  0  0  0  0  0  0  0  0  0  0  0
   58.3860   32.9070   43.9110 C   0  0  0  0  0  0  0  0  0  0  0  0
   57.8070   32.3520   42.7660 C   0  0  0  0  0  0  0  0  0  0  0  0
   57.0280   31.1950   42.8640 C   0  0  0  0  0  0  0  0  0  0  0  0
   57.3495   25.4241   46.0679 H   0  0  0  0  0  0  0  0  0  0  0  0
   57.4661   26.0101   44.3512 H   0  0  0  0  0  0  0  0  0  0  0  0
   59.5810   26.2325   45.7797 H   0  0  0  0  0  0  0  0  0  0  0  0
   58.9764   28.6234   49.4518 H   0  0  0  0  0  0  0  0  0  0  0  0
   60.3070   30.6431   50.0732 H   0  0  0  0  0  0  0  0  0  0  0  0
   61.4811   31.9619   48.3073 H   0  0  0  0  0  0  0  0  0  0  0  0
   61.3164   31.2691   45.9115 H   0  0  0  0  0  0  0  0  0  0  0  0
   60.3230   29.7510   44.2110 H   0  0  0  0  0  0  0  0  0  0  0  0
   56.2194   28.6869   43.3485 H   0  0  0  0  0  0  0  0  0  0  0  0
   54.9344   29.5778   44.2296 H   0  0  0  0  0  0  0  0  0  0  0  0
   57.2662   30.6664   46.2378 H   0  0  0  0  0  0  0  0  0  0  0  0
   58.6490   32.7365   46.0563 H   0  0  0  0  0  0  0  0  0  0  0  0
   58.9955   33.8193   43.8324 H   0  0  0  0  0  0  0  0  0  0  0  0
   57.9645   32.8264   41.7861 H   0  0  0  0  0  0  0  0  0  0  0  0
   56.5822   30.7558   41.9593 H   0  0  0  0  0  0  0  0  0  0  0  0
  1  2  2  0
  2  3  1  0
  3  4  1  0
  4  5  1  0
  5  6  1  0
  6  7  2  0
  7  8  1  0
  8  9  2  0
  9 10  1  0
 10 11  2  0
 11 12  1  0
 12 13  1  0
 13 14  2  0
  2 15  1  0
 15 16  1  0
 16 17  1  0
 17 18  2  0
 18 19  1  0
 19 20  2  0
 20 21  1  0
 21 22  2  0
 13  4  1  0
 22 17  1  0
 11  6  1  0
  3 23  1  0
  3 24  1  0
  4 25  1  1
  7 26  1  0
  8 27  1  0
  9 28  1  0
 10 29  1  0
 12 30  1  0
 16 31  1  0
 16 32  1  0
 18 33  1  0
 19 34  1  0
 20 35  1  0
 21 36  1  0
 22 37  1  0
M  CHG  1  15  -1
M  END
>  <UniqueID>  (54) 
51

>  <SMILES>  (54) 
O=C(C[C@@H]1Oc2ccccc2NC1=O)[N-]Cc1ccccc1

>  <Energy>  (54) 
38.02304027799252

>  <Genealogy>  (54) 
O=C(CC1Oc2ccccc2NC1=O)[N-]Cc1ccccc1 (protonated)
O=C(C[C@@H]1Oc2ccccc2NC1=O)[N-]Cc1ccccc1 (chirality)
O=C(C[C@@H]1Oc2ccccc2NC1=O)[N-]Cc1ccccc1 (3D coordinates assigned)
O=C(C[C@@H]1Oc2ccccc2NC1=O)[N-]Cc1ccccc1 (nonaromatic ring conformer: 38.02304027799252 kcal/mol)

>  <smiles>  (54) 
O=C(CC1Oc2ccccc2NC1=O)NCc1ccccc1

>  <score_type>  (54) 
oracle

>  <origin>  (54) 
adg

>  <m_score__min__energy>  (54) 
-9.4900000000000002

>  <m_primary>  (54) 
energy

$$$$
54:0
     RDKit          3D

 58 61  0  0  0  0  0  0  0  0999 V2000
   53.8240   24.4680   45.6250 C   0  0  0  0  0  0  0  0  0  0  0  0
   54.8910   23.4500   45.6250 N   0  0  0  0  0  0  0  0  0  0  0  0
   55.4480   23.2360   46.9790 C   0  0  0  0  0  0  0  0  0  0  0  0
   56.2090   24.4720   47.4840 C   0  0  0  0  0  0  0  0  0  0  0  0
   56.9610   25.0980   46.3920 N   0  0  0  0  0  0  0  0  0  0  0  0
   57.5200   26.4120   46.5660 C   0  0  0  0  0  0  0  0  0  0  0  0
   58.7930   26.5640   47.1400 C   0  0  0  0  0  0  0  0  0  0  0  0
   59.3670   27.8370   47.2770 C   0  0  0  0  0  0  0  0  0  0  0  0
   60.7690   27.9910   47.8140 C   0  0  0  0  0  0  0  0  0  0  0  0
   60.7650   28.7780   49.0960 C   0  0  0  0  0  0  0  0  0  0  0  0
   60.5580   28.1780   50.1850 O   0  0  0  0  0  0  0  0  0  0  0  0
   60.9170   30.2070   49.0890 N   0  0  0  0  0  0  0  0  0  0  0  0
   59.9480   31.0190   49.8420 C   0  0  0  0  0  0  0  0  0  0  0  0
   60.0630   32.5000   49.4720 C   0  0  0  0  0  0  0  0  0  0  0  0
   60.3170   32.6270   48.0310 N   0  0  0  0  0  0  0  0  0  0  0  0
   59.3490   33.2320   47.1530 C   0  0  0  0  0  0  0  0  0  0  0  0
   57.9810   32.9280   47.2770 C   0  0  0  0  0  0  0  0  0  0  0  0
   57.0540   33.4750   46.3840 C   0  0  0  0  0  0  0  0  0  0  0  0
   57.4810   34.3360   45.3680 C   0  0  0  0  0  0  0  0  0  0  0  0
   56.5820   34.8600   44.5000 F   0  0  0  0  0  0  0  0  0  0  0  0
   58.8370   34.6490   45.2420 C   0  0  0  0  0  0  0  0  0  0  0  0
   59.7710   34.0920   46.1230 C   0  0  0  0  0  0  0  0  0  0  0  0
   61.5010   31.9710   47.4570 C   0  0  0  0  0  0  0  0  0  0  0  0
   62.0270   30.8520   48.3720 C   0  0  0  0  0  0  0  0  0  0  0  0
   58.6360   28.9670   46.8760 C   0  0  0  0  0  0  0  0  0  0  0  0
   57.3650   28.8240   46.3180 C   0  0  0  0  0  0  0  0  0  0  0  0
   56.8040   27.5540   46.1610 C   0  0  0  0  0  0  0  0  0  0  0  0
   55.5290   27.4350   45.6170 O   0  0  0  0  0  0  0  0  0  0  0  0
   57.2340   24.3260   45.1760 C   0  0  0  0  0  0  0  0  0  0  0  0
   55.9310   23.7350   44.6020 C   0  0  0  0  0  0  0  0  0  0  0  0
   53.5587   24.7211   46.6621 H   0  0  0  0  0  0  0  0  0  0  0  0
   54.1787   25.3709   45.1065 H   0  0  0  0  0  0  0  0  0  0  0  0
   52.9387   24.0713   45.1065 H   0  0  0  0  0  0  0  0  0  0  0  0
   54.6231   23.0174   47.6731 H   0  0  0  0  0  0  0  0  0  0  0  0
   56.1555   22.3952   46.9291 H   0  0  0  0  0  0  0  0  0  0  0  0
   55.4896   25.1983   47.8901 H   0  0  0  0  0  0  0  0  0  0  0  0
   56.9157   24.1577   48.2661 H   0  0  0  0  0  0  0  0  0  0  0  0
   59.3448   25.6772   47.4851 H   0  0  0  0  0  0  0  0  0  0  0  0
   61.1943   26.9944   48.0036 H   0  0  0  0  0  0  0  0  0  0  0  0
   61.3748   28.5299   47.0706 H   0  0  0  0  0  0  0  0  0  0  0  0
   58.9308   30.6693   49.6118 H   0  0  0  0  0  0  0  0  0  0  0  0
   60.1611   30.9100   50.9156 H   0  0  0  0  0  0  0  0  0  0  0  0
   59.1247   33.0151   49.7256 H   0  0  0  0  0  0  0  0  0  0  0  0
   60.8939   32.9541   50.0319 H   0  0  0  0  0  0  0  0  0  0  0  0
   57.6392   32.2576   48.0793 H   0  0  0  0  0  0  0  0  0  0  0  0
   55.9866   33.2275   46.4810 H   0  0  0  0  0  0  0  0  0  0  0  0
   59.1709   35.3343   44.4490 H   0  0  0  0  0  0  0  0  0  0  0  0
   60.8394   34.3277   46.0095 H   0  0  0  0  0  0  0  0  0  0  0  0
   61.2320   31.5383   46.4821 H   0  0  0  0  0  0  0  0  0  0  0  0
   62.2932   32.7261   47.3462 H   0  0  0  0  0  0  0  0  0  0  0  0
   62.5485   30.1004   47.7612 H   0  0  0  0  0  0  0  0  0  0  0  0
   62.7182   31.2898   49.1073 H   0  0  0  0  0  0  0  0  0  0  0  0
   59.0678   29.9707   47.0025 H   0  0  0  0  0  0  0  0  0  0  0  0
   56.8026   29.7145   46.0005 H   0  0  0  0  0  0  0  0  0  0  0  0
   57.6929   24.9857   44.4249 H   0  0  0  0  0  0  0  0  0  0  0  0
   57.9164   23.5005   45.4268 H   0  0  0  0  0  0  0  0  0  0  0  0
   55.5161   24.4519   43.8782 H   0  0  0  0  0  0  0  0  0  0  0  0
   56.1956   22.7715   44.1421 H   0  0  0  0  0  0  0  0  0  0  0  0
  1  2  1  0
  2  3  1  0
  3  4  1  0
  4  5  1  0
  5  6  1  0
  6  7  2  0
  7  8  1  0
  8  9  1  0
  9 10  1  0
 10 11  2  0
 10 12  1  0
 12 13  1  0
 13 14  1  0
 14 15  1  0
 15 16  1  0
 16 17  2  0
 17 18  1  0
 18 19  2  0
 19 20  1  0
 19 21  1  0
 21 22  2  0
 15 23  1  0
 23 24  1  0
  8 25  2  0
 25 26  1  0
 26 27  2  0
 27 28  1  0
  5 29  1  0
 29 30  1  0
 30  2  1  0
 27  6  1  0
 24 12  1  0
 22 16  1  0
  1 31  1  0
  1 32  1  0
  1 33  1  0
  3 34  1  0
  3 35  1  0
  4 36  1  0
  4 37  1  0
  7 38  1  0
  9 39  1  0
  9 40  1  0
 13 41  1  0
 13 42  1  0
 14 43  1  0
 14 44  1  0
 17 45  1  0
 18 46  1  0
 21 47  1  0
 22 48  1  0
 23 49  1  0
 23 50  1  0
 24 51  1  0
 24 52  1  0
 25 53  1  0
 26 54  1  0
 29 55  1  0
 29 56  1  0
 30 57  1  0
 30 58  1  0
M  CHG  1  28  -1
M  END
>  <UniqueID>  (55) 
52

>  <SMILES>  (55) 
CN1CCN(c2cc(CC(=O)N3CCN(c4ccc(F)cc4)CC3)ccc2[O-])CC1

>  <Energy>  (55) 
73.59552194828318

>  <Genealogy>  (55) 
CN1CCN(c2cc(CC(=O)N3CCN(c4ccc(F)cc4)CC3)ccc2[O-])CC1 (protonated)
CN1CCN(c2cc(CC(=O)N3CCN(c4ccc(F)cc4)CC3)ccc2[O-])CC1 (3D coordinates assigned)
CN1CCN(c2cc(CC(=O)N3CCN(c4ccc(F)cc4)CC3)ccc2[O-])CC1 (nonaromatic ring conformer: 73.59552194828318 kcal/mol)

>  <smiles>  (55) 
CN1CCN(c2cc(CC(=O)N3CCN(c4ccc(F)cc4)CC3)ccc2O)CC1

>  <score_type>  (55) 
oracle

>  <origin>  (55) 
adg

>  <m_score__min__energy>  (55) 
-12.31

>  <m_primary>  (55) 
energy

$$$$
55:0
     RDKit          3D

 50 53  0  0  0  0  0  0  0  0999 V2000
   54.7500   28.5760   44.5150 H   0  0  0  0  0  0  0  0  0  0  0  0
   55.5510   28.5840   45.1370 O   0  0  0  0  0  0  0  0  0  0  0  0
   56.0510   27.4080   45.6860 C   0  0  0  0  0  0  0  0  0  0  0  0
   55.2850   26.3460   45.9830 N   0  0  0  0  0  0  0  0  0  0  0  0
   56.1740   25.4720   46.5020 C   0  0  0  0  0  0  0  0  0  0  0  0
   55.8410   24.3320   46.9150 O   0  0  0  0  0  0  0  0  0  0  0  0
   57.4470   25.9200   46.5520 N   0  0  0  0  0  0  0  0  0  0  0  0
   57.3660   27.1480   46.0060 C   0  0  0  0  0  0  0  0  0  0  0  0
   58.4810   28.1090   45.9410 C   0  0  0  0  0  0  0  0  0  0  0  0
   59.4794   27.7378   46.2156 H   0  0  0  0  0  0  0  0  0  0  0  0
   58.3860   29.4020   45.5750 C   0  0  0  0  0  0  0  0  0  0  0  0
   58.1450   29.7920   44.2680 C   0  0  0  0  0  0  0  0  0  0  0  0
   58.0619   29.1313   43.3925 H   0  0  0  0  0  0  0  0  0  0  0  0
   58.0290   31.1660   44.2730 C   0  0  0  0  0  0  0  0  0  0  0  0
   57.7370   31.9980   43.0610 C   0  0  0  0  0  0  0  0  0  0  0  0
   57.3878   32.9929   43.3746 H   0  0  0  0  0  0  0  0  0  0  0  0
   58.6519   32.1033   42.4594 H   0  0  0  0  0  0  0  0  0  0  0  0
   56.9570   31.5085   42.4594 H   0  0  0  0  0  0  0  0  0  0  0  0
   58.2060   31.6510   45.5240 N   0  0  0  0  0  0  0  0  0  0  0  0
   58.2150   33.0730   45.9010 C   0  0  0  0  0  0  0  0  0  0  0  0
   57.5818   33.6363   45.1997 H   0  0  0  0  0  0  0  0  0  0  0  0
   57.8286   33.1690   46.9264 H   0  0  0  0  0  0  0  0  0  0  0  0
   59.6060   33.6240   45.8580 C   0  0  0  0  0  0  0  0  0  0  0  0
   59.7970   34.8170   45.4960 O   0  0  0  0  0  0  0  0  0  0  0  0
   60.6930   32.8170   46.3250 N   0  0  0  0  0  0  0  0  0  0  0  0
   61.6690   33.1840   47.3120 C   0  0  0  0  0  0  0  0  0  0  0  0
   63.0390   32.9840   47.0610 C   0  0  0  0  0  0  0  0  0  0  0  0
   63.3613   32.5845   46.0881 H   0  0  0  0  0  0  0  0  0  0  0  0
   63.9930   33.2870   48.0330 C   0  0  0  0  0  0  0  0  0  0  0  0
   65.0616   33.1365   47.8201 H   0  0  0  0  0  0  0  0  0  0  0  0
   63.5930   33.7800   49.2730 C   0  0  0  0  0  0  0  0  0  0  0  0
   64.3469   34.0215   50.0368 H   0  0  0  0  0  0  0  0  0  0  0  0
   62.2390   33.9680   49.5480 C   0  0  0  0  0  0  0  0  0  0  0  0
   61.9337   34.3533   50.5320 H   0  0  0  0  0  0  0  0  0  0  0  0
   61.2560   33.6710   48.5820 C   0  0  0  0  0  0  0  0  0  0  0  0
   59.8230   33.8990   48.9220 C   0  0  0  0  0  0  0  0  0  0  0  0
   59.2270   34.9210   48.4840 O   0  0  0  0  0  0  0  0  0  0  0  0
   59.1010   32.9630   49.7280 N   0  0  0  0  0  0  0  0  0  0  0  0
   59.3620   32.7720   51.1480 C   0  0  0  0  0  0  0  0  0  0  0  0
   60.3101   32.2218   51.0557 H   0  0  0  0  0  0  0  0  0  0  0  0
   58.0890   32.6100   51.9580 C   0  0  0  0  0  0  0  0  0  0  0  0
   57.1140   32.5748   51.4500 H   0  0  0  0  0  0  0  0  0  0  0  0
   57.7264   31.8861   52.7026 H   0  0  0  0  0  0  0  0  0  0  0  0
   58.8720   33.9150   52.0150 C   0  0  0  0  0  0  0  0  0  0  0  0
   58.4626   34.8232   51.5485 H   0  0  0  0  0  0  0  0  0  0  0  0
   59.3098   34.5255   52.8185 H   0  0  0  0  0  0  0  0  0  0  0  0
   58.4710   30.5860   46.3280 C   0  0  0  0  0  0  0  0  0  0  0  0
   58.8910   30.7060   47.5970 C   0  0  0  0  0  0  0  0  0  0  0  0
   58.9112   31.6948   48.0785 H   0  0  0  0  0  0  0  0  0  0  0  0
   59.2151   29.8155   48.1556 H   0  0  0  0  0  0  0  0  0  0  0  0
  1  2  1  0
  2  3  1  0
  3  4  1  0
  4  5  1  0
  5  6  2  0
  5  7  1  0
  7  8  1  0
  8  9  1  0
  9 10  1  0
  9 11  2  0
 11 12  1  0
 12 13  1  0
 12 14  2  0
 14 15  1  0
 15 16  1  0
 15 17  1  0
 15 18  1  0
 14 19  1  0
 19 20  1  0
 20 21  1  0
 20 22  1  0
 20 23  1  0
 23 24  2  0
 23 25  1  0
 25 26  1  0
 26 27  2  0
 27 28  1  0
 27 29  1  0
 29 30  1  0
 29 31  2  0
 31 32  1  0
 31 33  1  0
 33 34  1  0
 33 35  2  0
 35 36  1  0
 36 37  2  0
 36 38  1  0
 38 39  1  0
 39 40  1  0
 39 41  1  0
 41 42  1  0
 41 43  1  0
 41 44  1  0
 44 45  1  0
 44 46  1  0
 19 47  1  0
 47 48  2  0
 48 49  1  0
 48 50  1  0
  8  3  2  0
 47 11  1  0
 35 26  1  0
 44 39  1  0
M  CHG  4   4  -1   7  -1  25  -1  38  -1
M  END
>  <UniqueID>  (56) 
53

>  <SMILES>  (56) 
C=c1/c(=C\c2[n-]c(=O)[n-]c2O)cc(C)n1CC(=O)[N-]c1ccccc1C(=O)[N-]C1CC1

>  <Energy>  (56) 
388.74751498596214

>  <Genealogy>  (56) 
C=c1c(=Cc2[n-]c(=O)[n-]c2O)cc(C)n1CC(=O)[N-]c1ccccc1C(=O)[N-]C1CC1 (protonated)
C=c1/c(=C\c2[n-]c(=O)[n-]c2O)cc(C)n1CC(=O)[N-]c1ccccc1C(=O)[N-]C1CC1 (cis-trans isomerization)
C=c1/c(=C\c2[n-]c(=O)[n-]c2O)cc(C)n1CC(=O)[N-]c1ccccc1C(=O)[N-]C1CC1 (3D coordinates assigned)
C=c1/c(=C\c2[n-]c(=O)[n-]c2O)cc(C)n1CC(=O)[N-]c1ccccc1C(=O)[N-]C1CC1 (nonaromatic ring conformer: 388.74751498596214 kcal/mol)

>  <smiles>  (56) 
C=c1c(=Cc2[nH]c(=O)[nH]c2O)cc(C)n1CC(=O)Nc1ccccc1C(=O)NC1CC1

>  <score_type>  (56) 
oracle

>  <origin>  (56) 
adg

>  <m_score__min__energy>  (56) 
-15.609999999999999

>  <m_primary>  (56) 
energy

$$$$
56:0
     RDKit          3D

 57 60  0  0  0  0  0  0  0  0999 V2000
   56.8350   28.9690   43.9950 C   0  0  0  0  0  0  0  0  0  0  0  0
   57.6200   28.5570   45.2190 C   0  0  0  0  0  0  0  0  0  0  0  0
   57.6850   27.1870   45.5870 C   0  0  0  0  0  0  0  0  0  0  0  0
   56.9070   26.2000   44.8880 N   0  0  0  0  0  0  0  0  0  0  0  0
   55.7170   25.2120   45.6740 S   0  0  0  0  0  0  0  0  0  0  0  0
   55.5240   23.6730   44.8010 C   0  0  0  0  0  0  0  0  0  0  0  0
   54.3990   25.9340   45.6630 O   0  0  0  0  0  0  0  0  0  0  0  0
   56.1250   24.9530   47.0970 O   0  0  0  0  0  0  0  0  0  0  0  0
   58.4840   26.8010   46.6750 C   0  0  0  0  0  0  0  0  0  0  0  0
   59.2020   27.7470   47.4010 C   0  0  0  0  0  0  0  0  0  0  0  0
   59.1120   29.0960   47.0740 C   0  0  0  0  0  0  0  0  0  0  0  0
   58.3140   29.5210   45.9990 C   0  0  0  0  0  0  0  0  0  0  0  0
   58.1970   30.9770   45.7380 C   0  0  0  0  0  0  0  0  0  0  0  0
   59.2530   31.8500   46.0250 C   0  0  0  0  0  0  0  0  0  0  0  0
   59.1050   33.2200   45.7840 C   0  0  0  0  0  0  0  0  0  0  0  0
   60.2280   34.1670   46.1290 C   0  0  0  0  0  0  0  0  0  0  0  0
   60.6130   34.0130   47.5750 C   0  0  0  0  0  0  0  0  0  0  0  0
   61.9500   34.1690   47.9720 C   0  0  0  0  0  0  0  0  0  0  0  0
   62.3140   33.9860   49.3070 C   0  0  0  0  0  0  0  0  0  0  0  0
   61.3480   33.6470   50.2590 C   0  0  0  0  0  0  0  0  0  0  0  0
   60.0040   33.4910   49.8830 C   0  0  0  0  0  0  0  0  0  0  0  0
   58.9860   33.1300   50.8990 C   0  0  0  0  0  0  0  0  0  0  0  0
   58.6290   33.9890   51.7490 O   0  0  0  0  0  0  0  0  0  0  0  0
   58.4250   31.8120   50.9810 N   0  0  0  0  0  0  0  0  0  0  0  0
   59.1590   30.5840   51.0950 C   0  0  0  0  0  0  0  0  0  0  0  0
   58.9490   29.7760   52.2210 C   0  0  0  0  0  0  0  0  0  0  0  0
   59.6510   28.5770   52.3730 C   0  0  0  0  0  0  0  0  0  0  0  0
   60.5580   28.1690   51.3910 C   0  0  0  0  0  0  0  0  0  0  0  0
   60.7530   28.9510   50.2500 C   0  0  0  0  0  0  0  0  0  0  0  0
   60.0530   30.1530   50.0930 C   0  0  0  0  0  0  0  0  0  0  0  0
   60.2160   30.8640   48.9500 F   0  0  0  0  0  0  0  0  0  0  0  0
   59.6480   33.6560   48.5320 C   0  0  0  0  0  0  0  0  0  0  0  0
   57.8790   33.6800   45.2760 C   0  0  0  0  0  0  0  0  0  0  0  0
   57.6870   34.9050   45.0540 O   0  0  0  0  0  0  0  0  0  0  0  0
   56.8850   32.7910   45.0170 N   0  0  0  0  0  0  0  0  0  0  0  0
   57.0380   31.4860   45.2420 N   0  0  0  0  0  0  0  0  0  0  0  0
   55.9008   29.4593   44.3064 H   0  0  0  0  0  0  0  0  0  0  0  0
   57.4338   29.6691   43.3939 H   0  0  0  0  0  0  0  0  0  0  0  0
   56.5990   28.0785   43.3939 H   0  0  0  0  0  0  0  0  0  0  0  0
   57.1160   25.9880   43.8870 H   0  0  0  0  0  0  0  0  0  0  0  0
   55.4209   22.8512   45.5249 H   0  0  0  0  0  0  0  0  0  0  0  0
   54.6247   23.7201   44.1693 H   0  0  0  0  0  0  0  0  0  0  0  0
   56.4071   23.4966   44.1693 H   0  0  0  0  0  0  0  0  0  0  0  0
   58.5433   25.7394   46.9568 H   0  0  0  0  0  0  0  0  0  0  0  0
   59.8426   27.4268   48.2359 H   0  0  0  0  0  0  0  0  0  0  0  0
   59.6714   29.8375   47.6632 H   0  0  0  0  0  0  0  0  0  0  0  0
   60.1951   31.4604   46.4382 H   0  0  0  0  0  0  0  0  0  0  0  0
   61.0990   33.9435   45.4955 H   0  0  0  0  0  0  0  0  0  0  0  0
   59.8919   35.1999   45.9555 H   0  0  0  0  0  0  0  0  0  0  0  0
   62.7145   34.4367   47.2278 H   0  0  0  0  0  0  0  0  0  0  0  0
   63.3640   34.1089   49.6109 H   0  0  0  0  0  0  0  0  0  0  0  0
   61.6424   33.5016   51.3088 H   0  0  0  0  0  0  0  0  0  0  0  0
   58.2269   30.0876   52.9901 H   0  0  0  0  0  0  0  0  0  0  0  0
   59.4897   27.9545   53.2655 H   0  0  0  0  0  0  0  0  0  0  0  0
   61.1189   27.2311   51.5167 H   0  0  0  0  0  0  0  0  0  0  0  0
   61.4584   28.6214   49.4730 H   0  0  0  0  0  0  0  0  0  0  0  0
   58.6037   33.5040   48.2217 H   0  0  0  0  0  0  0  0  0  0  0  0
  1  2  1  0
  2  3  2  0
  3  4  1  0
  4  5  1  0
  5  6  1  0
  5  7  2  0
  5  8  2  0
  3  9  1  0
  9 10  2  0
 10 11  1  0
 11 12  2  0
 12 13  1  0
 13 14  1  0
 14 15  2  0
 15 16  1  0
 16 17  1  0
 17 18  2  0
 18 19  1  0
 19 20  2  0
 20 21  1  0
 21 22  1  0
 22 23  2  0
 22 24  1  0
 24 25  1  0
 25 26  2  0
 26 27  1  0
 27 28  2  0
 28 29  1  0
 29 30  2  0
 30 31  1  0
 21 32  2  0
 15 33  1  0
 33 34  2  0
 33 35  1  0
 35 36  1  0
 12  2  1  0
 36 13  2  0
 32 17  1  0
 30 25  1  0
  1 37  1  0
  1 38  1  0
  1 39  1  0
  4 40  1  0
  6 41  1  0
  6 42  1  0
  6 43  1  0
  9 44  1  0
 10 45  1  0
 11 46  1  0
 14 47  1  0
 16 48  1  0
 16 49  1  0
 18 50  1  0
 19 51  1  0
 20 52  1  0
 26 53  1  0
 27 54  1  0
 28 55  1  0
 29 56  1  0
 32 57  1  0
M  CHG  2  24  -1  35  -1
M  END
>  <UniqueID>  (57) 
54

>  <SMILES>  (57) 
Cc1c(NS(C)(=O)=O)cccc1-c1cc(Cc2cccc(C(=O)[N-]c3ccccc3F)c2)c(=O)[n-]n1

>  <Energy>  (57) 
78.35999665061333

>  <Genealogy>  (57) 
Cc1c(NS(C)(=O)=O)cccc1-c1cc(Cc2cccc(C(=O)[N-]c3ccccc3F)c2)c(=O)[n-]n1 (protonated)
Cc1c(NS(C)(=O)=O)cccc1-c1cc(Cc2cccc(C(=O)[N-]c3ccccc3F)c2)c(=O)[n-]n1 (3D coordinates assigned)
Cc1c(NS(C)(=O)=O)cccc1-c1cc(Cc2cccc(C(=O)[N-]c3ccccc3F)c2)c(=O)[n-]n1 (optimized conformer: 78.35999665061333 kcal/mol)

>  <smiles>  (57) 
Cc1c(NS(C)(=O)=O)cccc1-c1cc(Cc2cccc(C(=O)Nc3ccccc3F)c2)c(=O)[nH]n1

>  <score_type>  (57) 
oracle

>  <origin>  (57) 
adg

>  <m_score__min__energy>  (57) 
-13.42

>  <m_primary>  (57) 
energy

$$$$
57:0
     RDKit          3D

 54 57  0  0  0  0  0  0  0  0999 V2000
   58.8380   25.4270   48.6880 H   0  0  0  0  0  0  0  0  0  0  0  0
   58.1330   24.9430   48.1430 O   0  0  0  0  0  0  0  0  0  0  0  0
   57.2810   25.6500   47.3010 C   0  0  0  0  0  0  0  0  0  0  0  0
   56.0140   25.2860   47.0370 N   0  0  0  0  0  0  0  0  0  0  0  0
   55.6070   26.2410   46.1730 C   0  0  0  0  0  0  0  0  0  0  0  0
   54.4520   26.2540   45.6720 O   0  0  0  0  0  0  0  0  0  0  0  0
   56.5390   27.1740   45.8780 N   0  0  0  0  0  0  0  0  0  0  0  0
   57.5960   26.8020   46.6250 C   0  0  0  0  0  0  0  0  0  0  0  0
   58.9270   27.4270   46.5590 C   0  0  0  0  0  0  0  0  0  0  0  0
   59.6496   27.0047   45.8452 H   0  0  0  0  0  0  0  0  0  0  0  0
   59.3310   28.4750   47.3030 C   0  0  0  0  0  0  0  0  0  0  0  0
   58.8910   28.6900   48.5990 C   0  0  0  0  0  0  0  0  0  0  0  0
   58.1302   28.1068   49.1385 H   0  0  0  0  0  0  0  0  0  0  0  0
   59.5910   29.7770   49.0830 C   0  0  0  0  0  0  0  0  0  0  0  0
   59.4460   30.3420   50.4640 C   0  0  0  0  0  0  0  0  0  0  0  0
   59.6480   29.5548   51.2053 H   0  0  0  0  0  0  0  0  0  0  0  0
   60.1617   31.1661   50.6000 H   0  0  0  0  0  0  0  0  0  0  0  0
   58.4218   30.7196   50.6000 H   0  0  0  0  0  0  0  0  0  0  0  0
   60.4120   30.2690   48.1290 N   0  0  0  0  0  0  0  0  0  0  0  0
   61.2530   31.4300   48.2620 C   0  0  0  0  0  0  0  0  0  0  0  0
   62.6450   31.2600   48.2970 C   0  0  0  0  0  0  0  0  0  0  0  0
   63.0746   30.2562   48.1639 H   0  0  0  0  0  0  0  0  0  0  0  0
   63.4900   32.3520   48.4990 C   0  0  0  0  0  0  0  0  0  0  0  0
   64.5803   32.2077   48.5186 H   0  0  0  0  0  0  0  0  0  0  0  0
   62.9520   33.6260   48.6760 C   0  0  0  0  0  0  0  0  0  0  0  0
   63.6186   34.4848   48.8436 H   0  0  0  0  0  0  0  0  0  0  0  0
   61.5690   33.8140   48.6410 C   0  0  0  0  0  0  0  0  0  0  0  0
   61.1528   34.8216   48.7877 H   0  0  0  0  0  0  0  0  0  0  0  0
   60.7020   32.7280   48.4200 C   0  0  0  0  0  0  0  0  0  0  0  0
   59.2420   32.9750   48.3400 C   0  0  0  0  0  0  0  0  0  0  0  0
   58.4940   32.6580   49.3040 O   0  0  0  0  0  0  0  0  0  0  0  0
   58.6880   33.5620   47.1500 N   0  0  0  0  0  0  0  0  0  0  0  0
   58.2270   32.9160   46.1200 C   0  0  0  0  0  0  0  0  0  0  0  0
   58.0040   33.4660   44.9050 N   0  0  0  0  0  0  0  0  0  0  0  0
   57.5340   32.5910   44.0180 N   0  0  0  0  0  0  0  0  0  0  0  0
   57.3880   31.3370   44.5130 C   0  0  0  0  0  0  0  0  0  0  0  0
   56.8340   30.1680   43.7210 C   0  0  0  0  0  0  0  0  0  0  0  0
   57.8240   28.9910   43.7960 C   0  0  0  0  0  0  0  0  0  0  0  0
   58.0272   28.7494   44.8497 H   0  0  0  0  0  0  0  0  0  0  0  0
   57.3887   28.1133   43.2959 H   0  0  0  0  0  0  0  0  0  0  0  0
   58.7633   29.2695   43.2959 H   0  0  0  0  0  0  0  0  0  0  0  0
   56.6410   30.5880   42.2500 C   0  0  0  0  0  0  0  0  0  0  0  0
   56.1820   31.5869   42.2111 H   0  0  0  0  0  0  0  0  0  0  0  0
   57.6178   30.6134   41.7447 H   0  0  0  0  0  0  0  0  0  0  0  0
   55.9856   29.8633   41.7447 H   0  0  0  0  0  0  0  0  0  0  0  0
   55.4730   29.7190   44.2940 C   0  0  0  0  0  0  0  0  0  0  0  0
   55.5153   29.7330   45.3931 H   0  0  0  0  0  0  0  0  0  0  0  0
   54.6855   30.4050   43.9486 H   0  0  0  0  0  0  0  0  0  0  0  0
   55.2482   28.6991   43.9486 H   0  0  0  0  0  0  0  0  0  0  0  0
   57.8420   31.2810   46.1440 S   0  0  0  0  0  0  0  0  0  0  0  0
   60.2360   29.5080   47.0180 C   0  0  0  0  0  0  0  0  0  0  0  0
   60.7450   29.8300   45.8180 C   0  0  0  0  0  0  0  0  0  0  0  0
   61.4510   30.6686   45.7271 H   0  0  0  0  0  0  0  0  0  0  0  0
   60.4560   29.2552   44.9258 H   0  0  0  0  0  0  0  0  0  0  0  0
  1  2  1  0
  2  3  1  0
  3  4  1  0
  4  5  1  0
  5  6  2  0
  5  7  1  0
  7  8  1  0
  8  9  1  0
  9 10  1  0
  9 11  2  0
 11 12  1  0
 12 13  1  0
 12 14  2  0
 14 15  1  0
 15 16  1  0
 15 17  1  0
 15 18  1  0
 14 19  1  0
 19 20  1  0
 20 21  2  0
 21 22  1  0
 21 23  1  0
 23 24  1  0
 23 25  2  0
 25 26  1  0
 25 27  1  0
 27 28  1  0
 27 29  2  0
 29 30  1  0
 30 31  2  0
 30 32  1  0
 32 33  2  3
 33 34  1  0
 34 35  1  0
 35 36  2  0
 36 37  1  0
 37 38  1  0
 38 39  1  0
 38 40  1  0
 38 41  1  0
 37 42  1  0
 42 43  1  0
 42 44  1  0
 42 45  1  0
 37 46  1  0
 46 47  1  0
 46 48  1  0
 46 49  1  0
 36 50  1  0
 19 51  1  0
 51 52  2  0
 52 53  1  0
 52 54  1  0
  8  3  2  0
 51 11  1  0
 29 20  1  0
 50 33  1  0
M  CHG  3   4  -1   7  -1  34  -1
M  END
>  <UniqueID>  (58) 
55

>  <SMILES>  (58) 
C=c1/c(=C\c2[n-]c(=O)[n-]c2O)cc(C)n1-c1ccccc1C(=O)N=c1[n-]nc(C(C)(C)C)s1

>  <Energy>  (58) 
166.09126805463987

>  <Genealogy>  (58) 
C=c1c(=Cc2[n-]c(=O)[n-]c2O)cc(C)n1-c1ccccc1C(=O)N=c1[n-]nc(C(C)(C)C)s1 (protonated)
C=c1/c(=C\c2[n-]c(=O)[n-]c2O)cc(C)n1-c1ccccc1C(=O)N=c1[n-]nc(C(C)(C)C)s1 (cis-trans isomerization)
C=c1/c(=C\c2[n-]c(=O)[n-]c2O)cc(C)n1-c1ccccc1C(=O)N=c1[n-]nc(C(C)(C)C)s1 (3D coordinates assigned)
C=c1/c(=C\c2[n-]c(=O)[n-]c2O)cc(C)n1-c1ccccc1C(=O)N=c1[n-]nc(C(C)(C)C)s1 (optimized conformer: 166.09126805463987 kcal/mol)

>  <smiles>  (58) 
C=c1c(=Cc2[nH]c(=O)[nH]c2O)cc(C)n1-c1ccccc1C(=O)N=c1[nH]nc(C(C)(C)C)s1

>  <score_type>  (58) 
oracle

>  <origin>  (58) 
adg

>  <m_score__min__energy>  (58) 
-15.43

>  <m_primary>  (58) 
energy

$$$$
58:0
     RDKit          3D

 61 64  0  0  0  0  0  0  0  0999 V2000
   64.5250   33.1430   49.0090 C   0  0  0  0  0  0  0  0  0  0  0  0
   63.0710   33.4750   49.1710 C   0  0  0  0  0  0  0  0  0  0  0  0
   62.4610   33.3690   50.4300 C   0  0  0  0  0  0  0  0  0  0  0  0
   61.0930   33.6350   50.5820 C   0  0  0  0  0  0  0  0  0  0  0  0
   60.4510   33.4890   51.9310 C   0  0  0  0  0  0  0  0  0  0  0  0
   60.3290   33.9920   49.4600 C   0  0  0  0  0  0  0  0  0  0  0  0
   60.9320   34.1130   48.1950 C   0  0  0  0  0  0  0  0  0  0  0  0
   60.2000   34.4640   47.0490 O   0  0  0  0  0  0  0  0  0  0  0  0
   59.2190   33.6750   46.4300 C   0  0  0  0  0  0  0  0  0  0  0  0
   59.1340   32.3200   46.7690 C   0  0  0  0  0  0  0  0  0  0  0  0
   58.1720   31.4970   46.1750 C   0  0  0  0  0  0  0  0  0  0  0  0
   57.2810   32.0210   45.2230 C   0  0  0  0  0  0  0  0  0  0  0  0
   56.2540   31.2270   44.6170 N   0  0  0  0  0  0  0  0  0  0  0  0
   56.4560   29.6090   44.0240 S   0  0  0  0  0  0  0  0  0  0  0  0
   55.7190   29.4650   42.7230 O   0  0  0  0  0  0  0  0  0  0  0  0
   57.9170   29.3660   43.7780 O   0  0  0  0  0  0  0  0  0  0  0  0
   55.8960   28.4850   45.2210 N   0  0  0  0  0  0  0  0  0  0  0  0
   56.7140   27.5630   45.9510 C   0  0  0  0  0  0  0  0  0  0  0  0
   56.4310   26.1870   45.9920 C   0  0  0  0  0  0  0  0  0  0  0  0
   57.2520   25.3230   46.7210 C   0  0  0  0  0  0  0  0  0  0  0  0
   58.3500   25.8230   47.4240 C   0  0  0  0  0  0  0  0  0  0  0  0
   58.6270   27.2000   47.4150 C   0  0  0  0  0  0  0  0  0  0  0  0
   59.8110   27.7530   48.1650 C   0  0  0  0  0  0  0  0  0  0  0  0
   59.7340   29.2310   48.2170 N   0  0  0  0  0  0  0  0  0  0  0  0
   59.0260   29.7100   49.4200 C   0  0  0  0  0  0  0  0  0  0  0  0
   59.8580   29.4990   50.7040 C   0  0  0  0  0  0  0  0  0  0  0  0
   61.3090   29.6630   50.4990 N   0  0  0  0  0  0  0  0  0  0  0  0
   61.6180   30.5030   49.3360 C   0  0  0  0  0  0  0  0  0  0  0  0
   61.0550   29.8870   48.0380 C   0  0  0  0  0  0  0  0  0  0  0  0
   57.7960   28.0640   46.6840 C   0  0  0  0  0  0  0  0  0  0  0  0
   57.3910   33.3670   44.8540 C   0  0  0  0  0  0  0  0  0  0  0  0
   58.3540   34.1910   45.4470 C   0  0  0  0  0  0  0  0  0  0  0  0
   62.2950   33.8290   48.0540 C   0  0  0  0  0  0  0  0  0  0  0  0
   64.9896   33.0369   50.0004 H   0  0  0  0  0  0  0  0  0  0  0  0
   64.6259   32.1987   48.4539 H   0  0  0  0  0  0  0  0  0  0  0  0
   65.0257   33.9499   48.4539 H   0  0  0  0  0  0  0  0  0  0  0  0
   63.0605   33.0750   51.3042 H   0  0  0  0  0  0  0  0  0  0  0  0
   61.2030   33.6600   52.7154 H   0  0  0  0  0  0  0  0  0  0  0  0
   59.6406   34.2258   52.0331 H   0  0  0  0  0  0  0  0  0  0  0  0
   60.0389   32.4742   52.0331 H   0  0  0  0  0  0  0  0  0  0  0  0
   59.2506   34.1786   49.5708 H   0  0  0  0  0  0  0  0  0  0  0  0
   59.8300   31.8985   47.5092 H   0  0  0  0  0  0  0  0  0  0  0  0
   58.1125   30.4347   46.4542 H   0  0  0  0  0  0  0  0  0  0  0  0
   55.5610   25.7893   45.4488 H   0  0  0  0  0  0  0  0  0  0  0  0
   57.0327   24.2453   46.7412 H   0  0  0  0  0  0  0  0  0  0  0  0
   58.9999   25.1365   47.9865 H   0  0  0  0  0  0  0  0  0  0  0  0
   59.8125   27.3523   49.1894 H   0  0  0  0  0  0  0  0  0  0  0  0
   60.7355   27.4582   47.6470 H   0  0  0  0  0  0  0  0  0  0  0  0
   58.8168   30.7838   49.3049 H   0  0  0  0  0  0  0  0  0  0  0  0
   58.0956   29.1316   49.5193 H   0  0  0  0  0  0  0  0  0  0  0  0
   59.5280   30.2302   51.4566 H   0  0  0  0  0  0  0  0  0  0  0  0
   59.6927   28.4613   51.0294 H   0  0  0  0  0  0  0  0  0  0  0  0
   61.7480   28.7220   50.3570 H   0  0  0  0  0  0  0  0  0  0  0  0
   61.1729   31.4980   49.4835 H   0  0  0  0  0  0  0  0  0  0  0  0
   62.7113   30.5777   49.2407 H   0  0  0  0  0  0  0  0  0  0  0  0
   60.9478   30.6872   47.2909 H   0  0  0  0  0  0  0  0  0  0  0  0
   61.7620   29.1079   47.7168 H   0  0  0  0  0  0  0  0  0  0  0  0
   57.9973   29.1454   46.6874 H   0  0  0  0  0  0  0  0  0  0  0  0
   56.7146   33.7804   44.0914 H   0  0  0  0  0  0  0  0  0  0  0  0
   58.4352   35.2453   45.1439 H   0  0  0  0  0  0  0  0  0  0  0  0
   62.7632   33.8833   47.0601 H   0  0  0  0  0  0  0  0  0  0  0  0
  1  2  1  0
  2  3  2  0
  3  4  1  0
  4  5  1  0
  4  6  2  0
  6  7  1  0
  7  8  1  0
  8  9  1  0
  9 10  2  0
 10 11  1  0
 11 12  2  0
 12 13  1  0
 13 14  1  0
 14 15  2  0
 14 16  2  0
 14 17  1  0
 17 18  1  0
 18 19  2  0
 19 20  1  0
 20 21  2  0
 21 22  1  0
 22 23  1  0
 23 24  1  0
 24 25  1  0
 25 26  1  0
 26 27  1  0
 27 28  1  0
 28 29  1  0
 22 30  2  0
 12 31  1  0
 31 32  2  0
  7 33  2  0
 33  2  1  0
 32  9  1  0
 30 18  1  0
 29 24  1  0
  1 34  1  0
  1 35  1  0
  1 36  1  0
  3 37  1  0
  5 38  1  0
  5 39  1  0
  5 40  1  0
  6 41  1  0
 10 42  1  0
 11 43  1  0
 19 44  1  0
 20 45  1  0
 21 46  1  0
 23 47  1  0
 23 48  1  0
 25 49  1  0
 25 50  1  0
 26 51  1  0
 26 52  1  0
 27 53  1  0
 28 54  1  0
 28 55  1  0
 29 56  1  0
 29 57  1  0
 30 58  1  0
 31 59  1  0
 32 60  1  0
 33 61  1  0
M  CHG  2  13  -1  17  -1
M  END
>  <UniqueID>  (59) 
56

>  <SMILES>  (59) 
Cc1cc(C)cc(Oc2ccc([N-]S(=O)(=O)[N-]c3cccc(CN4CCNCC4)c3)cc2)c1

>  <Energy>  (59) 
89.01582171161377

>  <Genealogy>  (59) 
Cc1cc(C)cc(Oc2ccc([N-]S(=O)(=O)[N-]c3cccc(CN4CCNCC4)c3)cc2)c1 (protonated)
Cc1cc(C)cc(Oc2ccc([N-]S(=O)(=O)[N-]c3cccc(CN4CCNCC4)c3)cc2)c1 (3D coordinates assigned)
Cc1cc(C)cc(Oc2ccc([N-]S(=O)(=O)[N-]c3cccc(CN4CCNCC4)c3)cc2)c1 (nonaromatic ring conformer: 89.01582171161377 kcal/mol)

>  <smiles>  (59) 
Cc1cc(C)cc(Oc2ccc(NS(=O)(=O)Nc3cccc(CN4CCNCC4)c3)cc2)c1

>  <score_type>  (59) 
oracle

>  <origin>  (59) 
adg

>  <m_score__min__energy>  (59) 
-12.970000000000001

>  <m_primary>  (59) 
energy

$$$$
59:0
     RDKit          3D

 55 57  0  0  0  0  0  0  0  0999 V2000
   56.3040   29.9430   42.9610 C   0  0  0  0  0  0  0  0  0  0  0  0
   55.9260   29.4900   44.3530 C   0  0  0  0  0  0  0  0  0  0  0  0
   56.8430   30.0210   45.2910 O   0  0  0  0  0  0  0  0  0  0  0  0
   58.2140   29.8140   45.2530 C   0  0  0  0  0  0  0  0  0  0  0  0
   58.8960   30.0610   44.2390 O   0  0  0  0  0  0  0  0  0  0  0  0
   58.8450   29.2890   46.4560 C   0  0  0  0  0  0  0  0  0  0  0  0
   58.7000   29.9460   47.6630 C   0  0  0  0  0  0  0  0  0  0  0  0
   59.3030   29.4250   48.7570 N   0  0  0  0  0  0  0  0  0  0  0  0
   60.0370   28.2990   48.7210 C   0  0  0  0  0  0  0  0  0  0  0  0
   60.7600   27.7620   50.2720 S   0  0  0  0  0  0  0  0  0  0  0  0
   60.8190   29.1640   51.3910 C   0  0  0  0  0  0  0  0  0  0  0  0
   60.9900   30.4600   50.6540 C   0  0  0  0  0  0  0  0  0  0  0  0
   60.2710   31.4590   50.9350 O   0  0  0  0  0  0  0  0  0  0  0  0
   61.9900   30.4840   49.6430 N   0  0  0  0  0  0  0  0  0  0  0  0
   62.2740   31.6260   48.8590 C   0  0  0  0  0  0  0  0  0  0  0  0
   63.5450   32.0530   48.5480 C   0  0  0  0  0  0  0  0  0  0  0  0
   63.7290   33.1830   47.7740 C   0  0  0  0  0  0  0  0  0  0  0  0
   62.6790   33.9280   47.2810 C   0  0  0  0  0  0  0  0  0  0  0  0
   61.3980   33.4970   47.5950 C   0  0  0  0  0  0  0  0  0  0  0  0
   59.9890   34.3550   47.0300 S   0  0  0  0  0  0  0  0  0  0  0  0
   60.4370   35.4760   46.1300 O   0  0  0  0  0  0  0  0  0  0  0  0
   59.3090   34.9480   48.2240 O   0  0  0  0  0  0  0  0  0  0  0  0
   58.9490   33.3560   46.0930 N   0  0  0  0  0  0  0  0  0  0  0  0
   57.5920   33.3530   46.5530 C   0  0  0  0  0  0  0  0  0  0  0  0
   56.6380   33.4100   45.3650 C   0  0  0  0  0  0  0  0  0  0  0  0
   57.1110   32.4720   44.4340 O   0  0  0  0  0  0  0  0  0  0  0  0
   58.1790   33.0760   43.7740 C   0  0  0  0  0  0  0  0  0  0  0  0
   59.0360   33.8540   44.7200 C   0  0  0  0  0  0  0  0  0  0  0  0
   61.2180   32.3710   48.3670 C   0  0  0  0  0  0  0  0  0  0  0  0
   60.1880   27.6530   47.5730 N   0  0  0  0  0  0  0  0  0  0  0  0
   59.6110   28.1230   46.4460 C   0  0  0  0  0  0  0  0  0  0  0  0
   59.7280   27.5350   45.3110 N   0  0  0  0  0  0  0  0  0  0  0  0
   57.0074   30.7860   43.0281 H   0  0  0  0  0  0  0  0  0  0  0  0
   56.7794   29.1109   42.4210 H   0  0  0  0  0  0  0  0  0  0  0  0
   55.4002   30.2617   42.4210 H   0  0  0  0  0  0  0  0  0  0  0  0
   54.9124   29.8450   44.5908 H   0  0  0  0  0  0  0  0  0  0  0  0
   55.9518   28.3913   44.3990 H   0  0  0  0  0  0  0  0  0  0  0  0
   58.1084   30.8707   47.7330 H   0  0  0  0  0  0  0  0  0  0  0  0
   59.1660   29.9630   49.6630 H   0  0  0  0  0  0  0  0  0  0  0  0
   59.8808   29.2016   51.9640 H   0  0  0  0  0  0  0  0  0  0  0  0
   61.6847   29.0331   52.0569 H   0  0  0  0  0  0  0  0  0  0  0  0
   62.5680   29.6220   49.4440 H   0  0  0  0  0  0  0  0  0  0  0  0
   64.4171   31.4930   48.9167 H   0  0  0  0  0  0  0  0  0  0  0  0
   64.7560   33.5012   47.5416 H   0  0  0  0  0  0  0  0  0  0  0  0
   62.8491   34.8241   46.6662 H   0  0  0  0  0  0  0  0  0  0  0  0
   57.4041   32.4337   47.1272 H   0  0  0  0  0  0  0  0  0  0  0  0
   57.4256   34.2328   47.1920 H   0  0  0  0  0  0  0  0  0  0  0  0
   55.6177   33.1496   45.6831 H   0  0  0  0  0  0  0  0  0  0  0  0
   56.6004   34.4200   44.9308 H   0  0  0  0  0  0  0  0  0  0  0  0
   58.7905   32.2969   43.2954 H   0  0  0  0  0  0  0  0  0  0  0  0
   57.7736   33.7705   43.0235 H   0  0  0  0  0  0  0  0  0  0  0  0
   60.0818   33.7864   44.3857 H   0  0  0  0  0  0  0  0  0  0  0  0
   58.6774   34.8939   44.7181 H   0  0  0  0  0  0  0  0  0  0  0  0
   60.1921   32.0510   48.6019 H   0  0  0  0  0  0  0  0  0  0  0  0
   59.7590   28.0950   44.4310 H   0  0  0  0  0  0  0  0  0  0  0  0
  1  2  1  0
  2  3  1  0
  3  4  1  0
  4  5  2  0
  4  6  1  0
  6  7  2  0
  7  8  1  0
  8  9  1  0
  9 10  1  0
 10 11  1  0
 11 12  1  0
 12 13  2  0
 12 14  1  0
 14 15  1  0
 15 16  2  0
 16 17  1  0
 17 18  2  0
 18 19  1  0
 19 20  1  0
 20 21  2  0
 20 22  2  0
 20 23  1  0
 23 24  1  0
 24 25  1  0
 25 26  1  0
 26 27  1  0
 27 28  1  0
 19 29  2  0
  9 30  2  0
 30 31  1  0
 31 32  2  3
 31  6  1  0
 29 15  1  0
 28 23  1  0
  1 33  1  0
  1 34  1  0
  1 35  1  0
  2 36  1  0
  2 37  1  0
  7 38  1  0
  8 39  1  0
 11 40  1  0
 11 41  1  0
 14 42  1  0
 16 43  1  0
 17 44  1  0
 18 45  1  0
 24 46  1  0
 24 47  1  0
 25 48  1  0
 25 49  1  0
 27 50  1  0
 27 51  1  0
 28 52  1  0
 28 53  1  0
 29 54  1  0
 32 55  1  0
M  END
>  <smiles>  (60) 
CCOC(=O)c1c[nH]c(SCC(=O)Nc2cccc(S(=O)(=O)N3CCOCC3)c2)nc1=N

>  <score_type>  (60) 
oracle

>  <origin>  (60) 
adg

>  <m_score__min__energy>  (60) 
-9.4499999999999993

>  <m_primary>  (60) 
energy

$$$$
60:0
     RDKit          3D

 52 55  0  0  0  0  0  0  0  0999 V2000
   55.1430   27.4680   45.2910 H   0  0  0  0  0  0  0  0  0  0  0  0
   55.1320   26.7410   45.9950 O   0  0  0  0  0  0  0  0  0  0  0  0
   56.2340   25.9130   46.2000 C   0  0  0  0  0  0  0  0  0  0  0  0
   56.1900   24.5780   46.0610 N   0  0  0  0  0  0  0  0  0  0  0  0
   57.4700   24.2100   46.2970 C   0  0  0  0  0  0  0  0  0  0  0  0
   57.8490   23.0110   46.2520 O   0  0  0  0  0  0  0  0  0  0  0  0
   58.3140   25.2300   46.5720 N   0  0  0  0  0  0  0  0  0  0  0  0
   57.5150   26.3100   46.5360 C   0  0  0  0  0  0  0  0  0  0  0  0
   58.0150   27.6860   46.6610 C   0  0  0  0  0  0  0  0  0  0  0  0
   58.4516   27.9726   47.6291 H   0  0  0  0  0  0  0  0  0  0  0  0
   57.9880   28.6280   45.7000 C   0  0  0  0  0  0  0  0  0  0  0  0
   57.8520   29.9790   45.9750 C   0  0  0  0  0  0  0  0  0  0  0  0
   57.7206   30.4360   46.9669 H   0  0  0  0  0  0  0  0  0  0  0  0
   57.9130   30.6420   44.7650 C   0  0  0  0  0  0  0  0  0  0  0  0
   57.8470   32.1030   44.5780 C   0  0  0  0  0  0  0  0  0  0  0  0
   57.3570   32.5660   43.5150 O   0  0  0  0  0  0  0  0  0  0  0  0
   58.3460   33.0030   45.5810 N   0  0  0  0  0  0  0  0  0  0  0  0
   57.8800   32.8970   46.9680 C   0  0  0  0  0  0  0  0  0  0  0  0
   57.1445   33.6911   47.1644 H   0  0  0  0  0  0  0  0  0  0  0  0
   57.4195   31.9087   47.1138 H   0  0  0  0  0  0  0  0  0  0  0  0
   59.0540   33.0450   47.9420 C   0  0  0  0  0  0  0  0  0  0  0  0
   58.6491   33.2602   48.9419 H   0  0  0  0  0  0  0  0  0  0  0  0
   59.6173   32.1008   47.9080 H   0  0  0  0  0  0  0  0  0  0  0  0
   60.0500   34.1780   47.5630 C   0  0  0  0  0  0  0  0  0  0  0  0
   60.0824   34.8791   48.4100 H   0  0  0  0  0  0  0  0  0  0  0  0
   61.4500   33.6190   47.3700 C   0  0  0  0  0  0  0  0  0  0  0  0
   61.7710   33.0980   46.2680 O   0  0  0  0  0  0  0  0  0  0  0  0
   62.4010   33.6060   48.4520 N   0  0  0  0  0  0  0  0  0  0  0  0
   63.7010   32.9660   48.3470 C   0  0  0  0  0  0  0  0  0  0  0  0
   63.5854   31.8768   48.2458 H   0  0  0  0  0  0  0  0  0  0  0  0
   64.2555   33.3148   47.4633 H   0  0  0  0  0  0  0  0  0  0  0  0
   64.4320   33.3050   49.6400 C   0  0  0  0  0  0  0  0  0  0  0  0
   64.9475   32.4162   50.0327 H   0  0  0  0  0  0  0  0  0  0  0  0
   65.1964   34.0798   49.4811 H   0  0  0  0  0  0  0  0  0  0  0  0
   63.3570   33.7700   50.6170 C   0  0  0  0  0  0  0  0  0  0  0  0
   63.0643   32.9465   51.2850 H   0  0  0  0  0  0  0  0  0  0  0  0
   63.7167   34.5915   51.2540 H   0  0  0  0  0  0  0  0  0  0  0  0
   62.1760   34.2020   49.7590 C   0  0  0  0  0  0  0  0  0  0  0  0
   61.2334   33.8348   50.1909 H   0  0  0  0  0  0  0  0  0  0  0  0
   62.0976   35.2975   49.6978 H   0  0  0  0  0  0  0  0  0  0  0  0
   59.5760   35.0280   46.3590 C   0  0  0  0  0  0  0  0  0  0  0  0
   58.7311   35.6535   46.6829 H   0  0  0  0  0  0  0  0  0  0  0  0
   60.4325   35.6332   46.0269 H   0  0  0  0  0  0  0  0  0  0  0  0
   59.1230   34.1750   45.1590 C   0  0  0  0  0  0  0  0  0  0  0  0
   58.5001   34.7949   44.4973 H   0  0  0  0  0  0  0  0  0  0  0  0
   60.0226   33.8169   44.6371 H   0  0  0  0  0  0  0  0  0  0  0  0
   58.0840   29.7630   43.7600 N   0  0  0  0  0  0  0  0  0  0  0  0
   58.1390   29.9970   42.7450 H   0  0  0  0  0  0  0  0  0  0  0  0
   58.0960   28.5290   44.3040 C   0  0  0  0  0  0  0  0  0  0  0  0
   58.1130   27.4260   43.5480 C   0  0  0  0  0  0  0  0  0  0  0  0
   58.1225   26.4338   44.0229 H   0  0  0  0  0  0  0  0  0  0  0  0
   58.1175   27.5109   42.4513 H   0  0  0  0  0  0  0  0  0  0  0  0
  1  2  1  0
  2  3  1  0
  3  4  1  0
  4  5  1  0
  5  6  2  0
  5  7  1  0
  7  8  1  0
  8  9  1  0
  9 10  1  0
  9 11  2  0
 11 12  1  0
 12 13  1  0
 12 14  2  0
 14 15  1  0
 15 16  2  0
 15 17  1  0
 17 18  1  0
 18 19  1  0
 18 20  1  0
 18 21  1  0
 21 22  1  0
 21 23  1  0
 21 24  1  0
 24 25  1  0
 24 26  1  0
 26 27  2  0
 26 28  1  0
 28 29  1  0
 29 30  1  0
 29 31  1  0
 29 32  1  0
 32 33  1  0
 32 34  1  0
 32 35  1  0
 35 36  1  0
 35 37  1  0
 35 38  1  0
 38 39  1  0
 38 40  1  0
 24 41  1  0
 41 42  1  0
 41 43  1  0
 41 44  1  0
 44 45  1  0
 44 46  1  0
 14 47  1  0
 47 48  1  0
 47 49  1  0
 49 50  2  0
 50 51  1  0
 50 52  1  0
  8  3  2  0
 49 11  1  0
 44 17  1  0
 38 28  1  0
M  CHG  2   4  -1   7  -1
M  END
>  <UniqueID>  (61) 
57

>  <SMILES>  (61) 
C=c1[nH]c(C(=O)N2CCC(C(=O)N3CCCC3)CC2)c/c1=C/c1[n-]c(=O)[n-]c1O

>  <Energy>  (61) 
126.87092569520514

>  <Genealogy>  (61) 
C=c1[nH]c(C(=O)N2CCC(C(=O)N3CCCC3)CC2)cc1=Cc1[n-]c(=O)[n-]c1O (protonated)
C=c1[nH]c(C(=O)N2CCC(C(=O)N3CCCC3)CC2)c/c1=C/c1[n-]c(=O)[n-]c1O (cis-trans isomerization)
C=c1[nH]c(C(=O)N2CCC(C(=O)N3CCCC3)CC2)c/c1=C/c1[n-]c(=O)[n-]c1O (3D coordinates assigned)
C=c1[nH]c(C(=O)N2CCC(C(=O)N3CCCC3)CC2)c/c1=C/c1[n-]c(=O)[n-]c1O (nonaromatic ring conformer: 126.87092569520514 kcal/mol)

>  <smiles>  (61) 
C=c1[nH]c(C(=O)N2CCC(C(=O)N3CCCC3)CC2)cc1=Cc1[nH]c(=O)[nH]c1O

>  <score_type>  (61) 
oracle

>  <origin>  (61) 
adg

>  <m_score__min__energy>  (61) 
-14.609999999999999

>  <m_primary>  (61) 
energy

$$$$
61:0
     RDKit          3D

 55 58  0  0  0  0  0  0  0  0999 V2000
   63.3390   33.9270   52.8030 C   0  0  0  0  0  0  0  0  0  0  0  0
   63.0330   33.6940   51.3590 C   0  0  0  0  0  0  0  0  0  0  0  0
   61.9220   34.0760   50.7820 O   0  0  0  0  0  0  0  0  0  0  0  0
   61.9850   33.6890   49.5280 C   0  0  0  0  0  0  0  0  0  0  0  0
   60.8920   33.9230   48.5250 C   0  0  0  0  0  0  0  0  0  0  0  0
   61.4730   34.0210   47.1000 C   0  0  0  0  0  0  0  0  0  0  0  0
   60.3950   33.8410   46.0110 C   0  0  0  0  0  0  0  0  0  0  0  0
   59.0490   34.0600   46.5740 N   0  0  0  0  0  0  0  0  0  0  0  0
   58.0050   34.2520   45.5440 C   0  0  0  0  0  0  0  0  0  0  0  0
   57.7920   33.0460   44.6500 C   0  0  0  0  0  0  0  0  0  0  0  0
   58.1760   33.0860   43.3010 C   0  0  0  0  0  0  0  0  0  0  0  0
   57.9820   31.9750   42.4800 C   0  0  0  0  0  0  0  0  0  0  0  0
   57.3970   30.8150   42.9930 C   0  0  0  0  0  0  0  0  0  0  0  0
   56.9940   30.7570   44.3380 C   0  0  0  0  0  0  0  0  0  0  0  0
   56.3710   29.5290   44.8780 C   0  0  0  0  0  0  0  0  0  0  0  0
   55.1180   29.3890   44.8730 O   0  0  0  0  0  0  0  0  0  0  0  0
   57.1590   28.5100   45.3980 O   0  0  0  0  0  0  0  0  0  0  0  0
   57.1920   31.8830   45.1590 C   0  0  0  0  0  0  0  0  0  0  0  0
   58.7030   33.0220   47.5680 C   0  0  0  0  0  0  0  0  0  0  0  0
   59.8290   32.8150   48.6060 C   0  0  0  0  0  0  0  0  0  0  0  0
   63.1350   33.0430   49.2360 N   0  0  0  0  0  0  0  0  0  0  0  0
   63.8110   33.0600   50.4020 C   0  0  0  0  0  0  0  0  0  0  0  0
   65.1400   32.4420   50.5660 C   0  0  0  0  0  0  0  0  0  0  0  0
   65.8960   32.3540   49.5610 O   0  0  0  0  0  0  0  0  0  0  0  0
   65.6050   32.0110   51.8530 N   0  0  0  0  0  0  0  0  0  0  0  0
   66.6230   31.0110   52.0400 C   0  0  0  0  0  0  0  0  0  0  0  0
   67.6620   31.1880   52.9730 C   0  0  0  0  0  0  0  0  0  0  0  0
   68.6520   30.2110   53.1190 C   0  0  0  0  0  0  0  0  0  0  0  0
   68.6220   29.0580   52.3300 C   0  0  0  0  0  0  0  0  0  0  0  0
   67.6050   28.8830   51.3880 C   0  0  0  0  0  0  0  0  0  0  0  0
   67.5740   27.4410   50.3900 Cl  0  0  0  0  0  0  0  0  0  0  0  0
   66.6130   29.8590   51.2390 C   0  0  0  0  0  0  0  0  0  0  0  0
   62.6168   33.3771   53.4242 H   0  0  0  0  0  0  0  0  0  0  0  0
   64.3568   33.5731   53.0239 H   0  0  0  0  0  0  0  0  0  0  0  0
   63.2686   35.0023   53.0239 H   0  0  0  0  0  0  0  0  0  0  0  0
   60.4055   34.8800   48.7647 H   0  0  0  0  0  0  0  0  0  0  0  0
   61.9388   35.0097   46.9758 H   0  0  0  0  0  0  0  0  0  0  0  0
   62.2078   33.2111   46.9813 H   0  0  0  0  0  0  0  0  0  0  0  0
   60.5719   34.5666   45.2034 H   0  0  0  0  0  0  0  0  0  0  0  0
   60.4536   32.8149   45.6190 H   0  0  0  0  0  0  0  0  0  0  0  0
   57.0557   34.4784   46.0516 H   0  0  0  0  0  0  0  0  0  0  0  0
   58.3447   35.0730   44.8955 H   0  0  0  0  0  0  0  0  0  0  0  0
   58.6323   33.9980   42.8888 H   0  0  0  0  0  0  0  0  0  0  0  0
   58.2908   32.0126   41.4249 H   0  0  0  0  0  0  0  0  0  0  0  0
   57.2509   29.9417   42.3403 H   0  0  0  0  0  0  0  0  0  0  0  0
   56.8731   31.8515   46.2113 H   0  0  0  0  0  0  0  0  0  0  0  0
   57.7864   33.3262   48.0945 H   0  0  0  0  0  0  0  0  0  0  0  0
   58.5577   32.0730   47.0311 H   0  0  0  0  0  0  0  0  0  0  0  0
   59.3887   32.8172   49.6140 H   0  0  0  0  0  0  0  0  0  0  0  0
   60.3198   31.8544   48.3907 H   0  0  0  0  0  0  0  0  0  0  0  0
   65.2690   32.5330   52.6920 H   0  0  0  0  0  0  0  0  0  0  0  0
   67.6954   32.0983   53.5897 H   0  0  0  0  0  0  0  0  0  0  0  0
   69.4561   30.3505   53.8566 H   0  0  0  0  0  0  0  0  0  0  0  0
   69.3987   28.2885   52.4505 H   0  0  0  0  0  0  0  0  0  0  0  0
   65.8202   29.7220   50.4889 H   0  0  0  0  0  0  0  0  0  0  0  0
  1  2  1  0
  2  3  1  0
  3  4  1  0
  4  5  1  0
  5  6  1  0
  6  7  1  0
  7  8  1  0
  8  9  1  0
  9 10  1  0
 10 11  2  0
 11 12  1  0
 12 13  2  0
 13 14  1  0
 14 15  1  0
 15 16  2  0
 15 17  1  0
 14 18  2  0
  8 19  1  0
 19 20  1  0
  4 21  2  0
 21 22  1  0
 22 23  1  0
 23 24  2  0
 23 25  1  0
 25 26  1  0
 26 27  2  0
 27 28  1  0
 28 29  2  0
 29 30  1  0
 30 31  1  0
 30 32  2  0
 22  2  2  0
 32 26  1  0
 20  5  1  0
 18 10  1  0
  1 33  1  0
  1 34  1  0
  1 35  1  0
  5 36  1  0
  6 37  1  0
  6 38  1  0
  7 39  1  0
  7 40  1  0
  9 41  1  0
  9 42  1  0
 11 43  1  0
 12 44  1  0
 13 45  1  0
 18 46  1  0
 19 47  1  0
 19 48  1  0
 20 49  1  0
 20 50  1  0
 25 51  1  0
 27 52  1  0
 28 53  1  0
 29 54  1  0
 32 55  1  0
M  CHG  1  17  -1
M  END
>  <UniqueID>  (62) 
58

>  <SMILES>  (62) 
Cc1oc(C2CCN(Cc3cccc(C(=O)[O-])c3)CC2)nc1C(=O)Nc1cccc(Cl)c1

>  <Energy>  (62) 
99.43993547081891

>  <Genealogy>  (62) 
Cc1oc(C2CCN(Cc3cccc(C(=O)[O-])c3)CC2)nc1C(=O)Nc1cccc(Cl)c1 (protonated)
Cc1oc(C2CCN(Cc3cccc(C(=O)[O-])c3)CC2)nc1C(=O)Nc1cccc(Cl)c1 (3D coordinates assigned)
Cc1oc(C2CCN(Cc3cccc(C(=O)[O-])c3)CC2)nc1C(=O)Nc1cccc(Cl)c1 (nonaromatic ring conformer: 99.43993547081891 kcal/mol)

>  <smiles>  (62) 
Cc1oc(C2CCN(Cc3cccc(C(=O)O)c3)CC2)nc1C(=O)Nc1cccc(Cl)c1

>  <score_type>  (62) 
oracle

>  <origin>  (62) 
adg

>  <m_score__min__energy>  (62) 
-11.91

>  <m_primary>  (62) 
energy

$$$$
62:0
     RDKit          3D

 38 40  0  0  0  0  0  0  0  0999 V2000
   55.0150   26.2960   45.9740 O   0  0  0  0  0  0  0  0  0  0  0  0
   56.1590   25.7720   45.9700 C   0  0  0  0  0  0  0  0  0  0  0  0
   57.1980   26.3700   46.7570 N   0  0  0  0  0  0  0  0  0  0  0  0
   58.6430   27.0820   46.1080 S   0  0  0  0  0  0  0  0  0  0  0  0
   59.7640   26.0850   46.2060 O   0  0  0  0  0  0  0  0  0  0  0  0
   58.4030   27.4060   44.6610 O   0  0  0  0  0  0  0  0  0  0  0  0
   59.0870   28.5170   47.0520 C   0  0  0  0  0  0  0  0  0  0  0  0
   59.8640   28.3230   48.2050 C   0  0  0  0  0  0  0  0  0  0  0  0
   60.1590   29.3890   49.0550 C   0  0  0  0  0  0  0  0  0  0  0  0
   59.6880   30.6670   48.7610 C   0  0  0  0  0  0  0  0  0  0  0  0
   58.9410   30.8870   47.6030 C   0  0  0  0  0  0  0  0  0  0  0  0
   58.6470   29.8270   46.7280 C   0  0  0  0  0  0  0  0  0  0  0  0
   57.9140   30.1350   45.4830 C   0  0  0  0  0  0  0  0  0  0  0  0
   58.4980   30.9560   44.5040 C   0  0  0  0  0  0  0  0  0  0  0  0
   57.8100   31.2360   43.3190 C   0  0  0  0  0  0  0  0  0  0  0  0
   56.5440   30.6890   43.0980 C   0  0  0  0  0  0  0  0  0  0  0  0
   55.9640   29.8540   44.0590 C   0  0  0  0  0  0  0  0  0  0  0  0
   54.7390   29.3160   43.8400 F   0  0  0  0  0  0  0  0  0  0  0  0
   56.6490   29.5720   45.2460 C   0  0  0  0  0  0  0  0  0  0  0  0
   56.4000   24.5830   45.1310 C   0  0  0  0  0  0  0  0  0  0  0  0
   55.3790   24.0980   44.2970 C   0  0  0  0  0  0  0  0  0  0  0  0
   55.6140   22.9960   43.4690 C   0  0  0  0  0  0  0  0  0  0  0  0
   56.8590   22.3590   43.4840 C   0  0  0  0  0  0  0  0  0  0  0  0
   57.8670   22.8180   44.3370 C   0  0  0  0  0  0  0  0  0  0  0  0
   57.6390   23.9250   45.1600 C   0  0  0  0  0  0  0  0  0  0  0  0
   60.2448   27.3183   48.4410 H   0  0  0  0  0  0  0  0  0  0  0  0
   60.7640   29.2206   49.9581 H   0  0  0  0  0  0  0  0  0  0  0  0
   59.9051   31.5030   49.4421 H   0  0  0  0  0  0  0  0  0  0  0  0
   58.5787   31.8998   47.3727 H   0  0  0  0  0  0  0  0  0  0  0  0
   59.4994   31.3799   44.6700 H   0  0  0  0  0  0  0  0  0  0  0  0
   58.2666   31.8880   42.5598 H   0  0  0  0  0  0  0  0  0  0  0  0
   56.0025   30.9149   42.1675 H   0  0  0  0  0  0  0  0  0  0  0  0
   56.1955   28.9073   45.9960 H   0  0  0  0  0  0  0  0  0  0  0  0
   54.3931   24.5859   44.2953 H   0  0  0  0  0  0  0  0  0  0  0  0
   54.8179   22.6293   42.8044 H   0  0  0  0  0  0  0  0  0  0  0  0
   57.0449   21.4978   42.8254 H   0  0  0  0  0  0  0  0  0  0  0  0
   58.8410   22.3074   44.3607 H   0  0  0  0  0  0  0  0  0  0  0  0
   58.4334   24.2812   45.8323 H   0  0  0  0  0  0  0  0  0  0  0  0
  1  2  2  0
  2  3  1  0
  3  4  1  0
  4  5  2  0
  4  6  2  0
  4  7  1  0
  7  8  2  0
  8  9  1  0
  9 10  2  0
 10 11  1  0
 11 12  2  0
 12 13  1  0
 13 14  2  0
 14 15  1  0
 15 16  2  0
 16 17  1  0
 17 18  1  0
 17 19  2  0
  2 20  1  0
 20 21  2  0
 21 22  1  0
 22 23  2  0
 23 24  1  0
 24 25  2  0
 12  7  1  0
 19 13  1  0
 25 20  1  0
  8 26  1  0
  9 27  1  0
 10 28  1  0
 11 29  1  0
 14 30  1  0
 15 31  1  0
 16 32  1  0
 19 33  1  0
 21 34  1  0
 22 35  1  0
 23 36  1  0
 24 37  1  0
 25 38  1  0
M  CHG  1   3  -1
M  END
>  <UniqueID>  (63) 
59

>  <SMILES>  (63) 
O=C([N-]S(=O)(=O)c1ccccc1-c1cccc(F)c1)c1ccccc1

>  <Energy>  (63) 
54.613726988092544

>  <Genealogy>  (63) 
O=C([N-]S(=O)(=O)c1ccccc1-c1cccc(F)c1)c1ccccc1 (protonated)
O=C([N-]S(=O)(=O)c1ccccc1-c1cccc(F)c1)c1ccccc1 (3D coordinates assigned)
O=C([N-]S(=O)(=O)c1ccccc1-c1cccc(F)c1)c1ccccc1 (optimized conformer: 54.613726988092544 kcal/mol)

>  <smiles>  (63) 
O=C(NS(=O)(=O)c1ccccc1-c1cccc(F)c1)c1ccccc1

>  <score_type>  (63) 
oracle

>  <origin>  (63) 
adg

>  <m_score__min__energy>  (63) 
-10.23

>  <m_primary>  (63) 
energy

$$$$
63:0
     RDKit          3D

 32 34  0  0  0  0  0  0  0  0999 V2000
   55.1460   27.5300   45.3670 H   0  0  0  0  0  0  0  0  0  0  0  0
   55.0820   26.7320   45.9870 O   0  0  0  0  0  0  0  0  0  0  0  0
   56.1840   25.9580   46.3520 C   0  0  0  0  0  0  0  0  0  0  0  0
   55.9780   24.6500   46.6580 N   0  0  0  0  0  0  0  0  0  0  0  0
   56.9980   23.8420   47.0400 C   0  0  0  0  0  0  0  0  0  0  0  0
   56.7750   22.6370   47.3220 O   0  0  0  0  0  0  0  0  0  0  0  0
   58.2600   24.3330   47.1170 N   0  0  0  0  0  0  0  0  0  0  0  0
   58.5300   25.6290   46.8180 C   0  0  0  0  0  0  0  0  0  0  0  0
   59.7230   26.0320   46.8680 O   0  0  0  0  0  0  0  0  0  0  0  0
   57.4870   26.4970   46.4320 C   0  0  0  0  0  0  0  0  0  0  0  0
   57.7470   27.9090   46.0640 C   0  0  0  0  0  0  0  0  0  0  0  0
   58.1861   28.5814   46.8157 H   0  0  0  0  0  0  0  0  0  0  0  0
   57.4660   28.3940   44.8490 C   0  0  0  0  0  0  0  0  0  0  0  0
   57.9885   27.9728   43.9775 H   0  0  0  0  0  0  0  0  0  0  0  0
   56.4840   29.4700   44.6340 C   0  0  0  0  0  0  0  0  0  0  0  0
   55.2720   29.2480   44.8930 O   0  0  0  0  0  0  0  0  0  0  0  0
   56.8930   30.7340   44.0920 N   0  0  0  0  0  0  0  0  0  0  0  0
   57.4680   31.8320   44.8160 C   0  0  0  0  0  0  0  0  0  0  0  0
   57.7190   33.0380   44.1240 C   0  0  0  0  0  0  0  0  0  0  0  0
   57.4549   33.1181   43.0592 H   0  0  0  0  0  0  0  0  0  0  0  0
   58.3020   34.1370   44.7790 C   0  0  0  0  0  0  0  0  0  0  0  0
   58.4869   35.0794   44.2427 H   0  0  0  0  0  0  0  0  0  0  0  0
   58.6400   34.0030   46.1250 C   0  0  0  0  0  0  0  0  0  0  0  0
   58.4160   32.8250   46.7930 C   0  0  0  0  0  0  0  0  0  0  0  0
   57.8420   31.7170   46.1740 C   0  0  0  0  0  0  0  0  0  0  0  0
   57.6843   30.7790   46.7266 H   0  0  0  0  0  0  0  0  0  0  0  0
   58.9010   33.0130   48.1350 C   0  0  0  0  0  0  0  0  0  0  0  0
   58.8790   32.1580   49.0580 O   0  0  0  0  0  0  0  0  0  0  0  0
   59.4080   34.2990   48.2700 O   0  0  0  0  0  0  0  0  0  0  0  0
   59.2840   35.0100   47.0330 C   0  0  0  0  0  0  0  0  0  0  0  0
   58.6476   35.8995   47.1508 H   0  0  0  0  0  0  0  0  0  0  0  0
   60.2452   35.3844   46.6511 H   0  0  0  0  0  0  0  0  0  0  0  0
  1  2  1  0
  2  3  1  0
  3  4  1  0
  4  5  1  0
  5  6  2  0
  5  7  1  0
  7  8  1  0
  8  9  2  0
  8 10  1  0
 10 11  1  0
 11 12  1  0
 11 13  2  0
 13 14  1  0
 13 15  1  0
 15 16  2  0
 15 17  1  0
 17 18  1  0
 18 19  2  0
 19 20  1  0
 19 21  1  0
 21 22  1  0
 21 23  2  0
 23 24  1  0
 24 25  2  0
 25 26  1  0
 24 27  1  0
 27 28  2  0
 27 29  1  0
 29 30  1  0
 30 31  1  0
 30 32  1  0
 10  3  2  0
 25 18  1  0
 30 23  1  0
M  CHG  3   4  -1   7  -1  17  -1
M  END
>  <UniqueID>  (64) 
60

>  <SMILES>  (64) 
O=C(/C=C/c1c(O)[n-]c(=O)[n-]c1=O)[N-]c1ccc2c(c1)C(=O)OC2

>  <Energy>  (64) 
68.36033484502777

>  <Genealogy>  (64) 
O=C(C=Cc1c(O)[n-]c(=O)[n-]c1=O)[N-]c1ccc2c(c1)C(=O)OC2 (protonated)
O=C(/C=C/c1c(O)[n-]c(=O)[n-]c1=O)[N-]c1ccc2c(c1)C(=O)OC2 (cis-trans isomerization)
O=C(/C=C/c1c(O)[n-]c(=O)[n-]c1=O)[N-]c1ccc2c(c1)C(=O)OC2 (3D coordinates assigned)
O=C(/C=C/c1c(O)[n-]c(=O)[n-]c1=O)[N-]c1ccc2c(c1)C(=O)OC2 (nonaromatic ring conformer: 68.36033484502777 kcal/mol)

>  <smiles>  (64) 
O=C(C=Cc1c(O)[nH]c(=O)[nH]c1=O)Nc1ccc2c(c1)C(=O)OC2

>  <score_type>  (64) 
oracle

>  <origin>  (64) 
adg

>  <m_score__min__energy>  (64) 
-14.279999999999999

>  <m_primary>  (64) 
energy

$$$$
64:0
     RDKit          3D

 59 61  0  0  0  0  0  0  0  0999 V2000
   59.6910   33.8140   50.5230 C   0  0  0  0  0  0  0  0  0  0  0  0
   60.8600   32.8600   50.7480 C   0  0  0  0  0  0  0  0  0  0  0  0
   61.6110   32.6180   49.4600 C   0  0  0  0  0  0  0  0  0  0  0  0
   62.5070   33.6020   49.0060 C   0  0  0  0  0  0  0  0  0  0  0  0
   63.2580   33.3980   47.8470 C   0  0  0  0  0  0  0  0  0  0  0  0
   63.1220   32.2140   47.1240 C   0  0  0  0  0  0  0  0  0  0  0  0
   62.2400   31.2240   47.5630 C   0  0  0  0  0  0  0  0  0  0  0  0
   61.4810   31.4130   48.7300 C   0  0  0  0  0  0  0  0  0  0  0  0
   60.5750   30.3730   49.1450 N   0  0  0  0  0  0  0  0  0  0  0  0
   61.1330   29.0890   49.5940 C   0  0  0  0  0  0  0  0  0  0  0  0
   60.6550   27.9420   48.7510 C   0  0  0  0  0  0  0  0  0  0  0  0
   60.2260   26.8860   49.2920 O   0  0  0  0  0  0  0  0  0  0  0  0
   60.6170   28.0820   47.3240 N   0  0  0  0  0  0  0  0  0  0  0  0
   60.2950   26.9700   46.4330 C   0  0  0  0  0  0  0  0  0  0  0  0
   58.8030   26.8150   46.3260 C   0  0  0  0  0  0  0  0  0  0  0  0
   58.0600   27.7170   45.5500 C   0  0  0  0  0  0  0  0  0  0  0  0
   56.6760   27.5600   45.4210 C   0  0  0  0  0  0  0  0  0  0  0  0
   56.0260   26.5020   46.0590 C   0  0  0  0  0  0  0  0  0  0  0  0
   54.6520   26.3460   45.9250 O   0  0  0  0  0  0  0  0  0  0  0  0
   56.7590   25.5990   46.8340 C   0  0  0  0  0  0  0  0  0  0  0  0
   58.1440   25.7500   46.9660 C   0  0  0  0  0  0  0  0  0  0  0  0
   59.1540   30.5080   48.9190 C   0  0  0  0  0  0  0  0  0  0  0  0
   58.4270   31.0560   49.7930 O   0  0  0  0  0  0  0  0  0  0  0  0
   58.5010   29.9710   47.6780 C   0  0  0  0  0  0  0  0  0  0  0  0
   59.3500   30.2590   46.5270 N   0  0  0  0  0  0  0  0  0  0  0  0
   58.5140   31.3030   45.4190 S   0  0  0  0  0  0  0  0  0  0  0  0
   58.8910   30.9210   44.0150 O   0  0  0  0  0  0  0  0  0  0  0  0
   57.0260   31.1340   45.5660 O   0  0  0  0  0  0  0  0  0  0  0  0
   58.9550   32.9830   45.7110 C   0  0  0  0  0  0  0  0  0  0  0  0
   58.9040   33.9180   44.6670 C   0  0  0  0  0  0  0  0  0  0  0  0
   59.2590   35.2510   44.8980 C   0  0  0  0  0  0  0  0  0  0  0  0
   59.6680   35.6570   46.1690 C   0  0  0  0  0  0  0  0  0  0  0  0
   59.7210   34.7290   47.2140 C   0  0  0  0  0  0  0  0  0  0  0  0
   59.3600   33.3960   46.9890 C   0  0  0  0  0  0  0  0  0  0  0  0
   59.2915   34.1400   51.4947 H   0  0  0  0  0  0  0  0  0  0  0  0
   60.0371   34.6908   49.9560 H   0  0  0  0  0  0  0  0  0  0  0  0
   58.9014   33.2991   49.9560 H   0  0  0  0  0  0  0  0  0  0  0  0
   61.5456   33.2982   51.4883 H   0  0  0  0  0  0  0  0  0  0  0  0
   60.4661   31.8996   51.1120 H   0  0  0  0  0  0  0  0  0  0  0  0
   62.6171   34.5406   49.5689 H   0  0  0  0  0  0  0  0  0  0  0  0
   63.9586   34.1733   47.5035 H   0  0  0  0  0  0  0  0  0  0  0  0
   63.7097   32.0593   46.2071 H   0  0  0  0  0  0  0  0  0  0  0  0
   62.1389   30.2898   46.9910 H   0  0  0  0  0  0  0  0  0  0  0  0
   62.2303   29.1391   49.5361 H   0  0  0  0  0  0  0  0  0  0  0  0
   60.7964   28.9149   50.6267 H   0  0  0  0  0  0  0  0  0  0  0  0
   60.9030   28.9920   46.9000 H   0  0  0  0  0  0  0  0  0  0  0  0
   60.7134   27.1691   45.4354 H   0  0  0  0  0  0  0  0  0  0  0  0
   60.7270   26.0436   46.8395 H   0  0  0  0  0  0  0  0  0  0  0  0
   58.5672   28.5502   45.0415 H   0  0  0  0  0  0  0  0  0  0  0  0
   56.0978   28.2727   44.8147 H   0  0  0  0  0  0  0  0  0  0  0  0
   56.2464   24.7682   47.3410 H   0  0  0  0  0  0  0  0  0  0  0  0
   58.7187   25.0339   47.5718 H   0  0  0  0  0  0  0  0  0  0  0  0
   58.3672   28.8834   47.7737 H   0  0  0  0  0  0  0  0  0  0  0  0
   57.5187   30.4469   47.5414 H   0  0  0  0  0  0  0  0  0  0  0  0
   58.5838   33.6020   43.6632 H   0  0  0  0  0  0  0  0  0  0  0  0
   59.2157   35.9808   44.0761 H   0  0  0  0  0  0  0  0  0  0  0  0
   59.9483   36.7054   46.3487 H   0  0  0  0  0  0  0  0  0  0  0  0
   60.0472   35.0478   48.2150 H   0  0  0  0  0  0  0  0  0  0  0  0
   59.3938   32.6709   47.8154 H   0  0  0  0  0  0  0  0  0  0  0  0
  1  2  1  0
  2  3  1  0
  3  4  2  0
  4  5  1  0
  5  6  2  0
  6  7  1  0
  7  8  2  0
  8  9  1  0
  9 10  1  0
 10 11  1  0
 11 12  2  0
 11 13  1  0
 13 14  1  0
 14 15  1  0
 15 16  2  0
 16 17  1  0
 17 18  2  0
 18 19  1  0
 18 20  1  0
 20 21  2  0
  9 22  1  0
 22 23  2  0
 22 24  1  0
 24 25  1  0
 25 26  1  0
 26 27  2  0
 26 28  2  0
 26 29  1  0
 29 30  2  0
 30 31  1  0
 31 32  2  0
 32 33  1  0
 33 34  2  0
  8  3  1  0
 21 15  1  0
 34 29  1  0
  1 35  1  0
  1 36  1  0
  1 37  1  0
  2 38  1  0
  2 39  1  0
  4 40  1  0
  5 41  1  0
  6 42  1  0
  7 43  1  0
 10 44  1  0
 10 45  1  0
 13 46  1  0
 14 47  1  0
 14 48  1  0
 16 49  1  0
 17 50  1  0
 20 51  1  0
 21 52  1  0
 24 53  1  0
 24 54  1  0
 30 55  1  0
 31 56  1  0
 32 57  1  0
 33 58  1  0
 34 59  1  0
M  CHG  2  19  -1  25  -1
M  END
>  <UniqueID>  (65) 
61

>  <SMILES>  (65) 
CCc1ccccc1N(CC(=O)NCc1ccc([O-])cc1)C(=O)C[N-]S(=O)(=O)c1ccccc1

>  <Energy>  (65) 
52.758409513415074

>  <Genealogy>  (65) 
CCc1ccccc1N(CC(=O)NCc1ccc([O-])cc1)C(=O)C[N-]S(=O)(=O)c1ccccc1 (protonated)
CCc1ccccc1N(CC(=O)NCc1ccc([O-])cc1)C(=O)C[N-]S(=O)(=O)c1ccccc1 (3D coordinates assigned)
CCc1ccccc1N(CC(=O)NCc1ccc([O-])cc1)C(=O)C[N-]S(=O)(=O)c1ccccc1 (optimized conformer: 52.758409513415074 kcal/mol)

>  <smiles>  (65) 
CCc1ccccc1N(CC(=O)NCc1ccc(O)cc1)C(=O)CNS(=O)(=O)c1ccccc1

>  <score_type>  (65) 
oracle

>  <origin>  (65) 
adg

>  <m_score__min__energy>  (65) 
-13.800000000000001

>  <m_primary>  (65) 
energy

$$$$
65:0
     RDKit          3D

 49 52  0  0  0  0  0  0  0  0999 V2000
   58.9741   28.5091   48.1877 H   0  0  0  0  0  0  0  0  0  0  0  0
   58.6100   27.9630   47.3050 C   0  0  0  0  0  0  0  0  0  0  0  0
   58.5472   26.8650   47.3248 H   0  0  0  0  0  0  0  0  0  0  0  0
   58.2420   28.6370   46.2030 C   0  0  0  0  0  0  0  0  0  0  0  0
   57.7610   28.0850   45.0080 C   0  0  0  0  0  0  0  0  0  0  0  0
   57.5670   26.7740   44.7440 C   0  0  0  0  0  0  0  0  0  0  0  0
   57.8198   26.4229   43.7327 H   0  0  0  0  0  0  0  0  0  0  0  0
   57.0440   25.7690   45.6970 C   0  0  0  0  0  0  0  0  0  0  0  0
   57.7030   24.6870   46.1470 N   0  0  0  0  0  0  0  0  0  0  0  0
   56.8030   24.0760   46.9470 C   0  0  0  0  0  0  0  0  0  0  0  0
   57.0580   23.0100   47.5650 O   0  0  0  0  0  0  0  0  0  0  0  0
   55.6070   24.6960   47.0280 N   0  0  0  0  0  0  0  0  0  0  0  0
   55.7750   25.7610   46.2290 C   0  0  0  0  0  0  0  0  0  0  0  0
   54.7870   26.7090   45.9900 O   0  0  0  0  0  0  0  0  0  0  0  0
   57.5530   29.1570   44.1460 C   0  0  0  0  0  0  0  0  0  0  0  0
   57.1874   29.1043   43.1099 H   0  0  0  0  0  0  0  0  0  0  0  0
   57.8940   30.3000   44.8420 C   0  0  0  0  0  0  0  0  0  0  0  0
   57.8360   31.6870   44.2790 C   0  0  0  0  0  0  0  0  0  0  0  0
   57.8055   32.4159   45.1023 H   0  0  0  0  0  0  0  0  0  0  0  0
   58.7273   31.8693   43.6607 H   0  0  0  0  0  0  0  0  0  0  0  0
   56.9326   31.7943   43.6607 H   0  0  0  0  0  0  0  0  0  0  0  0
   58.3180   29.9860   46.0850 N   0  0  0  0  0  0  0  0  0  0  0  0
   58.7480   30.9270   47.0840 C   0  0  0  0  0  0  0  0  0  0  0  0
   59.8140   30.6120   47.9380 C   0  0  0  0  0  0  0  0  0  0  0  0
   60.3120   29.6347   47.8550 H   0  0  0  0  0  0  0  0  0  0  0  0
   60.2470   31.5350   48.8950 C   0  0  0  0  0  0  0  0  0  0  0  0
   61.0740   31.2750   49.5721 H   0  0  0  0  0  0  0  0  0  0  0  0
   59.6310   32.7910   48.9950 C   0  0  0  0  0  0  0  0  0  0  0  0
   60.0990   33.7600   50.0040 C   0  0  0  0  0  0  0  0  0  0  0  0
   59.2940   34.1640   50.8830 O   0  0  0  0  0  0  0  0  0  0  0  0
   61.4490   34.2440   50.0300 N   0  0  0  0  0  0  0  0  0  0  0  0
   62.4310   34.0960   48.9540 C   0  0  1  0  0  0  0  0  0  0  0  0
   63.1738   34.9005   49.0591 H   0  0  0  0  0  0  0  0  0  0  0  0
   63.1000   32.7560   49.0470 C   0  0  0  0  0  0  0  0  0  0  0  0
   63.1000   32.0930   50.1190 O   0  0  0  0  0  0  0  0  0  0  0  0
   63.7600   32.2450   47.8930 N   0  0  0  0  0  0  0  0  0  0  0  0
   63.9650   33.1190   46.7440 C   0  0  0  0  0  0  0  0  0  0  0  0
   64.2709   32.5091   45.8812 H   0  0  0  0  0  0  0  0  0  0  0  0
   64.7443   33.8512   47.0022 H   0  0  0  0  0  0  0  0  0  0  0  0
   62.6770   33.8900   46.3820 C   0  0  0  0  0  0  0  0  0  0  0  0
   62.1139   33.2908   45.6514 H   0  0  0  0  0  0  0  0  0  0  0  0
   63.0010   34.8646   45.9881 H   0  0  0  0  0  0  0  0  0  0  0  0
   61.7410   34.1940   47.5790 C   0  0  0  0  0  0  0  0  0  0  0  0
   60.9079   33.4760   47.5579 H   0  0  0  0  0  0  0  0  0  0  0  0
   61.4052   35.2352   47.4645 H   0  0  0  0  0  0  0  0  0  0  0  0
   58.5490   33.0970   48.1560 C   0  0  0  0  0  0  0  0  0  0  0  0
   58.0397   34.0675   48.2501 H   0  0  0  0  0  0  0  0  0  0  0  0
   58.1160   32.1730   47.2010 C   0  0  0  0  0  0  0  0  0  0  0  0
   57.2752   32.4246   46.5379 H   0  0  0  0  0  0  0  0  0  0  0  0
  1  2  1  0
  2  3  1  0
  2  4  2  0
  4  5  1  0
  5  6  2  0
  6  7  1  0
  6  8  1  0
  8  9  1  0
  9 10  1  0
 10 11  2  0
 10 12  1  0
 12 13  1  0
 13 14  1  0
  5 15  1  0
 15 16  1  0
 15 17  2  0
 17 18  1  0
 18 19  1  0
 18 20  1  0
 18 21  1  0
 17 22  1  0
 22 23  1  0
 23 24  2  0
 24 25  1  0
 24 26  1  0
 26 27  1  0
 26 28  2  0
 28 29  1  0
 29 30  2  0
 29 31  1  0
 31 32  1  0
 32 33  1  6
 32 34  1  0
 34 35  2  0
 34 36  1  0
 36 37  1  0
 37 38  1  0
 37 39  1  0
 37 40  1  0
 40 41  1  0
 40 42  1  0
 40 43  1  0
 43 44  1  0
 43 45  1  0
 28 46  1  0
 46 47  1  0
 46 48  2  0
 48 49  1  0
 22  4  1  0
 48 23  1  0
 13  8  2  0
 43 32  1  0
M  CHG  5   9  -1  12  -1  14  -1  31  -1  36  -1
M  END
>  <UniqueID>  (66) 
62

>  <SMILES>  (66) 
C=c1/c(=C/c2[n-]c(=O)[n-]c2[O-])cc(C)n1-c1ccc(C(=O)[N-][C@@H]2CCC[N-]C2=O)cc1

>  <Energy>  (66) 
127.09407431735158

>  <Genealogy>  (66) 
C=c1c(=Cc2[n-]c(=O)[n-]c2[O-])cc(C)n1-c1ccc(C(=O)[N-]C2CCC[N-]C2=O)cc1 (protonated)
C=c1c(=Cc2[n-]c(=O)[n-]c2[O-])cc(C)n1-c1ccc(C(=O)[N-][C@@H]2CCC[N-]C2=O)cc1 (chirality)
C=c1/c(=C/c2[n-]c(=O)[n-]c2[O-])cc(C)n1-c1ccc(C(=O)[N-][C@@H]2CCC[N-]C2=O)cc1 (cis-trans isomerization)
C=c1/c(=C/c2[n-]c(=O)[n-]c2[O-])cc(C)n1-c1ccc(C(=O)[N-][C@@H]2CCC[N-]C2=O)cc1 (3D coordinates assigned)
C=c1/c(=C/c2[n-]c(=O)[n-]c2[O-])cc(C)n1-c1ccc(C(=O)[N-][C@@H]2CCC[N-]C2=O)cc1 (nonaromatic ring conformer: 127.09407431735158 kcal/mol)

>  <smiles>  (66) 
C=c1c(=Cc2[nH]c(=O)[nH]c2O)cc(C)n1-c1ccc(C(=O)NC2CCCNC2=O)cc1

>  <score_type>  (66) 
oracle

>  <origin>  (66) 
adg

>  <m_score__min__energy>  (66) 
-17.600000000000001

>  <m_primary>  (66) 
energy

$$$$
66:0
     RDKit          3D

 48 50  0  0  0  0  0  0  0  0999 V2000
   63.7535   32.8201   47.5826 H   0  0  0  0  0  0  0  0  0  0  0  0
   63.2130   31.8630   47.5410 C   0  0  0  0  0  0  0  0  0  0  0  0
   63.7453   30.9215   47.7416 H   0  0  0  0  0  0  0  0  0  0  0  0
   61.9110   31.8440   47.2470 C   0  0  0  0  0  0  0  0  0  0  0  0
   61.3870   32.7904   47.0478 H   0  0  0  0  0  0  0  0  0  0  0  0
   61.1510   30.5510   47.1840 C   0  0  0  0  0  0  0  0  0  0  0  0
   61.8462   29.7127   47.3385 H   0  0  0  0  0  0  0  0  0  0  0  0
   60.3803   30.5482   47.9689 H   0  0  0  0  0  0  0  0  0  0  0  0
   60.5210   30.4130   45.9110 O   0  0  0  0  0  0  0  0  0  0  0  0
   59.2180   29.9190   45.7230 C   0  0  0  0  0  0  0  0  0  0  0  0
   58.2380   30.7760   45.1840 C   0  0  0  0  0  0  0  0  0  0  0  0
   58.5760   32.0240   45.0080 N   0  0  0  0  0  0  0  0  0  0  0  0
   58.9950   32.9830   45.9960 C   0  0  0  0  0  0  0  0  0  0  0  0
   58.7490   32.8030   47.3720 C   0  0  0  0  0  0  0  0  0  0  0  0
   58.2487   31.8888   47.7239 H   0  0  0  0  0  0  0  0  0  0  0  0
   59.1380   33.7810   48.2910 C   0  0  0  0  0  0  0  0  0  0  0  0
   58.9645   33.6254   49.3660 H   0  0  0  0  0  0  0  0  0  0  0  0
   59.7470   34.9560   47.8450 C   0  0  0  0  0  0  0  0  0  0  0  0
   60.0593   35.7224   48.5697 H   0  0  0  0  0  0  0  0  0  0  0  0
   59.9600   35.1590   46.4790 C   0  0  0  0  0  0  0  0  0  0  0  0
   60.4307   36.0895   46.1287 H   0  0  0  0  0  0  0  0  0  0  0  0
   59.5760   34.1820   45.5580 C   0  0  0  0  0  0  0  0  0  0  0  0
   59.7302   34.3539   44.4825 H   0  0  0  0  0  0  0  0  0  0  0  0
   56.9760   30.4070   44.8650 N   0  0  0  0  0  0  0  0  0  0  0  0
   56.2470   29.2790   44.9780 C   0  0  0  0  0  0  0  0  0  0  0  0
   55.0900   29.3020   44.4770 O   0  0  0  0  0  0  0  0  0  0  0  0
   56.6560   28.1100   45.6240 C   0  0  0  0  0  0  0  0  0  0  0  0
   55.7120   27.0310   45.7310 N   0  0  0  0  0  0  0  0  0  0  0  0
   56.0310   25.6380   45.6340 C   0  0  0  0  0  0  0  0  0  0  0  0
   55.2150   24.7940   46.0900 O   0  0  0  0  0  0  0  0  0  0  0  0
   57.2450   25.1480   44.8910 C   0  0  0  0  0  0  0  0  0  0  0  0
   57.4304   25.8009   44.0253 H   0  0  0  0  0  0  0  0  0  0  0  0
   58.1136   25.1675   45.5657 H   0  0  0  0  0  0  0  0  0  0  0  0
   57.0220   23.7400   44.4140 C   0  0  0  0  0  0  0  0  0  0  0  0
   57.3860   22.6470   45.2170 C   0  0  0  0  0  0  0  0  0  0  0  0
   57.8210   22.8177   46.2128 H   0  0  0  0  0  0  0  0  0  0  0  0
   57.1960   21.3410   44.7520 C   0  0  0  0  0  0  0  0  0  0  0  0
   57.4725   20.4866   45.3872 H   0  0  0  0  0  0  0  0  0  0  0  0
   56.6560   21.1200   43.4830 C   0  0  0  0  0  0  0  0  0  0  0  0
   56.5043   20.0923   43.1214 H   0  0  0  0  0  0  0  0  0  0  0  0
   56.3090   22.2020   42.6740 C   0  0  0  0  0  0  0  0  0  0  0  0
   55.8905   22.0263   41.6720 H   0  0  0  0  0  0  0  0  0  0  0  0
   56.4920   23.5090   43.1340 C   0  0  0  0  0  0  0  0  0  0  0  0
   56.2201   24.3595   42.4915 H   0  0  0  0  0  0  0  0  0  0  0  0
   57.9260   27.8410   46.1250 C   0  0  0  0  0  0  0  0  0  0  0  0
   58.0590   26.8479   46.5790 H   0  0  0  0  0  0  0  0  0  0  0  0
   59.0200   28.6390   46.1280 N   0  0  0  0  0  0  0  0  0  0  0  0
   59.8680   28.1790   46.5380 H   0  0  0  0  0  0  0  0  0  0  0  0
  1  2  1  0
  2  3  1  0
  2  4  2  0
  4  5  1  0
  4  6  1  0
  6  7  1  0
  6  8  1  0
  6  9  1  0
  9 10  1  0
 10 11  1  0
 11 12  2  0
 12 13  1  0
 13 14  2  0
 14 15  1  0
 14 16  1  0
 16 17  1  0
 16 18  2  0
 18 19  1  0
 18 20  1  0
 20 21  1  0
 20 22  2  0
 22 23  1  0
 11 24  1  0
 24 25  1  0
 25 26  2  0
 25 27  1  0
 27 28  1  0
 28 29  1  0
 29 30  2  0
 29 31  1  0
 31 32  1  0
 31 33  1  0
 31 34  1  0
 34 35  2  0
 35 36  1  0
 35 37  1  0
 37 38  1  0
 37 39  2  0
 39 40  1  0
 39 41  1  0
 41 42  1  0
 41 43  2  0
 43 44  1  0
 27 45  2  0
 45 46  1  0
 45 47  1  0
 47 48  1  0
 47 10  2  0
 22 13  1  0
 43 34  1  0
M  CHG  3  24  -1  28  -1  47   1
M  END
>  <UniqueID>  (67) 
63

>  <SMILES>  (67) 
C=CCOc1[nH+]cc([N-]C(=O)Cc2ccccc2)c(=O)[n-]/c1=N\c1ccccc1

>  <Energy>  (67) 
91.74961377992746

>  <Genealogy>  (67) 
C=CCOc1[nH+]cc([N-]C(=O)Cc2ccccc2)c(=O)[n-]c1=Nc1ccccc1 (protonated)
C=CCOc1[nH+]cc([N-]C(=O)Cc2ccccc2)c(=O)[n-]/c1=N\c1ccccc1 (cis-trans isomerization)
C=CCOc1[nH+]cc([N-]C(=O)Cc2ccccc2)c(=O)[n-]/c1=N\c1ccccc1 (3D coordinates assigned)
C=CCOc1[nH+]cc([N-]C(=O)Cc2ccccc2)c(=O)[n-]/c1=N\c1ccccc1 (optimized conformer: 91.74961377992746 kcal/mol)

>  <smiles>  (67) 
C=CCOc1ncc(NC(=O)Cc2ccccc2)c(=O)[nH]c1=Nc1ccccc1

>  <score_type>  (67) 
oracle

>  <origin>  (67) 
adg

>  <m_score__min__energy>  (67) 
-10.51

>  <m_primary>  (67) 
energy

$$$$
67:0
     RDKit          3D

 25 26  0  0  0  0  0  0  0  0999 V2000
   56.5110   30.6340   43.4070 C   0  0  0  0  0  0  0  0  0  0  0  0
   57.4240   29.8030   44.2650 C   0  0  0  0  0  0  0  0  0  0  0  0
   58.8120   30.0010   44.1880 C   0  0  0  0  0  0  0  0  0  0  0  0
   59.6810   29.2370   44.9660 C   0  0  0  0  0  0  0  0  0  0  0  0
   59.1780   28.2690   45.8330 C   0  0  0  0  0  0  0  0  0  0  0  0
   57.7950   28.0580   45.9390 C   0  0  0  0  0  0  0  0  0  0  0  0
   57.2760   26.9820   46.8590 C   0  0  0  0  0  0  0  0  0  0  0  0
   56.7960   25.8080   46.0620 C   0  0  0  0  0  0  0  0  0  0  0  0
   57.5870   24.8000   45.6520 N   0  0  0  0  0  0  0  0  0  0  0  0
   56.7230   23.9590   45.0410 C   0  0  0  0  0  0  0  0  0  0  0  0
   57.0910   22.8790   44.5100 O   0  0  0  0  0  0  0  0  0  0  0  0
   55.4350   24.3640   45.0470 N   0  0  0  0  0  0  0  0  0  0  0  0
   55.4990   25.5330   45.7020 C   0  0  0  0  0  0  0  0  0  0  0  0
   54.3930   26.3310   45.9710 O   0  0  0  0  0  0  0  0  0  0  0  0
   56.9110   28.8190   45.1440 C   0  0  0  0  0  0  0  0  0  0  0  0
   55.5360   28.5790   45.2410 O   0  0  0  0  0  0  0  0  0  0  0  0
   55.8506   31.2351   44.0494 H   0  0  0  0  0  0  0  0  0  0  0  0
   57.1117   31.3017   42.7719 H   0  0  0  0  0  0  0  0  0  0  0  0
   55.9026   29.9733   42.7719 H   0  0  0  0  0  0  0  0  0  0  0  0
   59.2171   30.7651   43.5083 H   0  0  0  0  0  0  0  0  0  0  0  0
   60.7667   29.3989   44.8952 H   0  0  0  0  0  0  0  0  0  0  0  0
   59.8703   27.6659   46.4387 H   0  0  0  0  0  0  0  0  0  0  0  0
   58.0837   26.6586   47.5321 H   0  0  0  0  0  0  0  0  0  0  0  0
   56.4373   27.3849   47.4458 H   0  0  0  0  0  0  0  0  0  0  0  0
   55.1390   27.6530   45.3220 H   0  0  0  0  0  0  0  0  0  0  0  0
  1  2  1  0
  2  3  2  0
  3  4  1  0
  4  5  2  0
  5  6  1  0
  6  7  1  0
  7  8  1  0
  8  9  1  0
  9 10  1  0
 10 11  2  0
 10 12  1  0
 12 13  1  0
 13 14  1  0
  6 15  2  0
 15 16  1  0
 15  2  1  0
 13  8  2  0
  1 17  1  0
  1 18  1  0
  1 19  1  0
  3 20  1  0
  4 21  1  0
  5 22  1  0
  7 23  1  0
  7 24  1  0
 16 25  1  0
M  CHG  3   9  -1  12  -1  14  -1
M  END
>  <UniqueID>  (68) 
64

>  <SMILES>  (68) 
Cc1cccc(Cc2[n-]c(=O)[n-]c2[O-])c1O

>  <Energy>  (68) 
54.2187044797111

>  <Genealogy>  (68) 
Cc1cccc(Cc2[n-]c(=O)[n-]c2[O-])c1O (protonated)
Cc1cccc(Cc2[n-]c(=O)[n-]c2[O-])c1O (3D coordinates assigned)
Cc1cccc(Cc2[n-]c(=O)[n-]c2[O-])c1O (optimized conformer: 54.2187044797111 kcal/mol)

>  <smiles>  (68) 
Cc1cccc(Cc2[nH]c(=O)[nH]c2O)c1O

>  <score_type>  (68) 
oracle

>  <origin>  (68) 
adg

>  <m_score__min__energy>  (68) 
-14.84

>  <m_primary>  (68) 
energy

$$$$
68:0
     RDKit          3D

 66 69  0  0  0  0  0  0  0  0999 V2000
   59.4510   31.9150   51.7530 C   0  0  0  0  0  0  0  0  0  0  0  0
   58.8010   30.9740   50.3920 S   0  0  0  0  0  0  0  0  0  0  0  0
   58.1890   31.9130   49.3940 O   0  0  0  0  0  0  0  0  0  0  0  0
   57.7340   30.0340   50.8810 O   0  0  0  0  0  0  0  0  0  0  0  0
   60.0690   30.0780   49.6170 N   0  0  0  0  0  0  0  0  0  0  0  0
   59.8790   29.0310   48.6580 C   0  0  0  0  0  0  0  0  0  0  0  0
   60.5210   27.8070   48.8710 C   0  0  0  0  0  0  0  0  0  0  0  0
   60.4290   26.7890   47.9210 C   0  0  0  0  0  0  0  0  0  0  0  0
   59.6870   26.9780   46.7540 C   0  0  0  0  0  0  0  0  0  0  0  0
   58.9920   28.1840   46.5370 C   0  0  0  0  0  0  0  0  0  0  0  0
   58.1610   28.4060   45.3200 C   0  0  0  0  0  0  0  0  0  0  0  0
   58.7360   28.6520   44.2250 O   0  0  0  0  0  0  0  0  0  0  0  0
   56.6540   28.3050   45.3110 C   0  0  0  0  0  0  0  0  0  0  0  0
   56.0040   29.5380   44.8660 N   0  0  0  0  0  0  0  0  0  0  0  0
   56.5850   30.5810   44.0740 C   0  0  0  0  0  0  0  0  0  0  0  0
   56.3450   30.6110   42.8380 O   0  0  0  0  0  0  0  0  0  0  0  0
   57.3940   31.6560   44.6700 C   0  0  0  0  0  0  0  0  0  0  0  0
   57.7810   31.5630   46.0110 C   0  0  0  0  0  0  0  0  0  0  0  0
   58.5910   32.5450   46.5770 C   0  0  0  0  0  0  0  0  0  0  0  0
   59.0240   33.6440   45.8140 C   0  0  0  0  0  0  0  0  0  0  0  0
   59.9050   34.6760   46.4100 C   0  0  0  0  0  0  0  0  0  0  0  0
   59.6520   35.8980   46.2300 O   0  0  0  0  0  0  0  0  0  0  0  0
   61.0520   34.3070   47.1910 N   0  0  0  0  0  0  0  0  0  0  0  0
   62.0590   33.4370   46.5750 C   0  0  0  0  0  0  0  0  0  0  0  0
   63.4030   33.5410   47.2990 C   0  0  0  0  0  0  0  0  0  0  0  0
   63.2630   33.4700   48.7630 N   0  0  0  0  0  0  0  0  0  0  0  0
   63.3770   32.1360   49.3930 C   0  0  0  0  0  0  0  0  0  0  0  0
   64.6710   31.9080   50.1370 C   0  0  0  0  0  0  0  0  0  0  0  0
   65.7950   32.7110   49.8750 C   0  0  0  0  0  0  0  0  0  0  0  0
   66.9970   32.4910   50.5550 C   0  0  0  0  0  0  0  0  0  0  0  0
   67.0940   31.4540   51.4880 C   0  0  0  0  0  0  0  0  0  0  0  0
   65.9920   30.6300   51.7330 C   0  0  0  0  0  0  0  0  0  0  0  0
   64.7910   30.8440   51.0500 C   0  0  0  0  0  0  0  0  0  0  0  0
   62.2890   34.4130   49.3400 C   0  0  0  0  0  0  0  0  0  0  0  0
   60.9230   34.3620   48.6480 C   0  0  0  0  0  0  0  0  0  0  0  0
   58.6020   33.7530   44.4770 C   0  0  0  0  0  0  0  0  0  0  0  0
   57.7950   32.7620   43.9080 C   0  0  0  0  0  0  0  0  0  0  0  0
   59.0950   29.2050   47.5040 C   0  0  0  0  0  0  0  0  0  0  0  0
   59.1338   31.4558   52.7009 H   0  0  0  0  0  0  0  0  0  0  0  0
   60.5497   31.9253   51.7001 H   0  0  0  0  0  0  0  0  0  0  0  0
   59.0717   32.9462   51.7001 H   0  0  0  0  0  0  0  0  0  0  0  0
   61.1011   27.6460   49.7916 H   0  0  0  0  0  0  0  0  0  0  0  0
   60.9441   25.8323   48.0928 H   0  0  0  0  0  0  0  0  0  0  0  0
   59.6446   26.1797   45.9984 H   0  0  0  0  0  0  0  0  0  0  0  0
   56.3608   27.4893   44.6337 H   0  0  0  0  0  0  0  0  0  0  0  0
   56.3294   28.1149   46.3447 H   0  0  0  0  0  0  0  0  0  0  0  0
   57.4446   30.7115   46.6208 H   0  0  0  0  0  0  0  0  0  0  0  0
   58.8948   32.4599   47.6308 H   0  0  0  0  0  0  0  0  0  0  0  0
   61.7079   32.3955   46.6195 H   0  0  0  0  0  0  0  0  0  0  0  0
   62.2015   33.7560   45.5320 H   0  0  0  0  0  0  0  0  0  0  0  0
   64.0477   32.7143   46.9660 H   0  0  0  0  0  0  0  0  0  0  0  0
   63.8400   34.5200   47.0526 H   0  0  0  0  0  0  0  0  0  0  0  0
   62.5458   32.0187   50.1039 H   0  0  0  0  0  0  0  0  0  0  0  0
   63.3492   31.3991   48.5768 H   0  0  0  0  0  0  0  0  0  0  0  0
   65.7284   33.5177   49.1301 H   0  0  0  0  0  0  0  0  0  0  0  0
   67.8668   33.1342   50.3558 H   0  0  0  0  0  0  0  0  0  0  0  0
   68.0371   31.2868   52.0289 H   0  0  0  0  0  0  0  0  0  0  0  0
   66.0697   29.8119   52.4643 H   0  0  0  0  0  0  0  0  0  0  0  0
   63.9348   30.1766   51.2274 H   0  0  0  0  0  0  0  0  0  0  0  0
   62.1523   34.1684   50.4037 H   0  0  0  0  0  0  0  0  0  0  0  0
   62.6908   35.4274   49.1999 H   0  0  0  0  0  0  0  0  0  0  0  0
   60.3833   33.4671   48.9914 H   0  0  0  0  0  0  0  0  0  0  0  0
   60.3744   35.2794   48.9077 H   0  0  0  0  0  0  0  0  0  0  0  0
   58.9080   34.6217   43.8756 H   0  0  0  0  0  0  0  0  0  0  0  0
   57.4742   32.8510   42.8596 H   0  0  0  0  0  0  0  0  0  0  0  0
   58.5543   30.1510   47.3534 H   0  0  0  0  0  0  0  0  0  0  0  0
  1  2  1  0
  2  3  2  0
  2  4  2  0
  2  5  1  0
  5  6  1  0
  6  7  2  0
  7  8  1  0
  8  9  2  0
  9 10  1  0
 10 11  1  0
 11 12  2  0
 11 13  1  0
 13 14  1  0
 14 15  1  0
 15 16  2  0
 15 17  1  0
 17 18  2  0
 18 19  1  0
 19 20  2  0
 20 21  1  0
 21 22  2  0
 21 23  1  0
 23 24  1  0
 24 25  1  0
 25 26  1  0
 26 27  1  0
 27 28  1  0
 28 29  2  0
 29 30  1  0
 30 31  2  0
 31 32  1  0
 32 33  2  0
 26 34  1  0
 34 35  1  0
 20 36  1  0
 36 37  2  0
 10 38  2  0
 38  6  1  0
 37 17  1  0
 35 23  1  0
 33 28  1  0
  1 39  1  0
  1 40  1  0
  1 41  1  0
  7 42  1  0
  8 43  1  0
  9 44  1  0
 13 45  1  0
 13 46  1  0
 18 47  1  0
 19 48  1  0
 24 49  1  0
 24 50  1  0
 25 51  1  0
 25 52  1  0
 27 53  1  0
 27 54  1  0
 29 55  1  0
 30 56  1  0
 31 57  1  0
 32 58  1  0
 33 59  1  0
 34 60  1  0
 34 61  1  0
 35 62  1  0
 35 63  1  0
 36 64  1  0
 37 65  1  0
 38 66  1  0
M  CHG  2   5  -1  14  -1
M  END
>  <UniqueID>  (69) 
65

>  <SMILES>  (69) 
CS(=O)(=O)[N-]c1cccc(C(=O)C[N-]C(=O)c2ccc(C(=O)N3CCN(Cc4ccccc4)CC3)cc2)c1

>  <Energy>  (69) 
84.53820912837595

>  <Genealogy>  (69) 
CS(=O)(=O)[N-]c1cccc(C(=O)C[N-]C(=O)c2ccc(C(=O)N3CCN(Cc4ccccc4)CC3)cc2)c1 (protonated)
CS(=O)(=O)[N-]c1cccc(C(=O)C[N-]C(=O)c2ccc(C(=O)N3CCN(Cc4ccccc4)CC3)cc2)c1 (3D coordinates assigned)
CS(=O)(=O)[N-]c1cccc(C(=O)C[N-]C(=O)c2ccc(C(=O)N3CCN(Cc4ccccc4)CC3)cc2)c1 (nonaromatic ring conformer: 84.53820912837595 kcal/mol)

>  <smiles>  (69) 
CS(=O)(=O)Nc1cccc(C(=O)CNC(=O)c2ccc(C(=O)N3CCN(Cc4ccccc4)CC3)cc2)c1

>  <score_type>  (69) 
oracle

>  <origin>  (69) 
adg

>  <m_score__min__energy>  (69) 
-13.66

>  <m_primary>  (69) 
energy

$$$$
69:0
     RDKit          3D

 58 61  0  0  0  0  0  0  0  0999 V2000
   53.8710   27.9810   52.8490 O   0  0  0  0  0  0  0  0  0  0  0  0
   54.5670   28.9560   53.2410 C   0  0  0  0  0  0  0  0  0  0  0  0
   55.7350   28.6830   54.1120 C   0  0  0  0  0  0  0  0  0  0  0  0
   56.9440   29.2560   54.0150 C   0  0  0  0  0  0  0  0  0  0  0  0
   57.4680   29.9040   52.8030 C   0  0  0  0  0  0  0  0  0  0  0  0
   58.5740   29.3680   52.1270 C   0  0  0  0  0  0  0  0  0  0  0  0
   59.0380   29.9650   50.9520 C   0  0  0  0  0  0  0  0  0  0  0  0
   58.3970   31.1080   50.4390 C   0  0  0  0  0  0  0  0  0  0  0  0
   58.8090   31.7250   49.2130 N   0  0  0  0  0  0  0  0  0  0  0  0
   59.1930   30.8890   47.7440 S   0  0  0  0  0  0  0  0  0  0  0  0
   58.3770   29.6270   47.6720 O   0  0  0  0  0  0  0  0  0  0  0  0
   60.6470   30.5060   47.7600 O   0  0  0  0  0  0  0  0  0  0  0  0
   58.8100   31.8920   46.3380 C   0  0  0  0  0  0  0  0  0  0  0  0
   58.1610   31.3130   45.2350 C   0  0  0  0  0  0  0  0  0  0  0  0
   57.7870   32.0950   44.1390 C   0  0  0  0  0  0  0  0  0  0  0  0
   58.0540   33.4620   44.1340 C   0  0  0  0  0  0  0  0  0  0  0  0
   58.6990   34.0530   45.2210 C   0  0  0  0  0  0  0  0  0  0  0  0
   59.0860   33.2790   46.3250 C   0  0  0  0  0  0  0  0  0  0  0  0
   59.7580   33.9490   47.4550 C   0  0  0  0  0  0  0  0  0  0  0  0
   59.0870   34.7390   48.1710 O   0  0  0  0  0  0  0  0  0  0  0  0
   61.1480   33.7050   47.7550 N   0  0  0  0  0  0  0  0  0  0  0  0
   61.6410   33.9170   49.1220 C   0  0  0  0  0  0  0  0  0  0  0  0
   63.1530   34.1680   49.1240 C   0  0  0  0  0  0  0  0  0  0  0  0
   63.8280   33.1750   48.3790 O   0  0  0  0  0  0  0  0  0  0  0  0
   63.4580   33.2760   47.0170 C   0  0  0  0  0  0  0  0  0  0  0  0
   61.9800   32.9250   46.8290 C   0  0  0  0  0  0  0  0  0  0  0  0
   57.3100   31.6500   51.1300 C   0  0  0  0  0  0  0  0  0  0  0  0
   56.8560   31.0630   52.3140 C   0  0  0  0  0  0  0  0  0  0  0  0
   54.1950   30.2990   52.9030 N   0  0  0  0  0  0  0  0  0  0  0  0
   53.1320   30.7590   52.0560 C   0  0  0  0  0  0  0  0  0  0  0  0
   53.0000   30.1690   50.7920 C   0  0  0  0  0  0  0  0  0  0  0  0
   51.9590   30.5420   49.9390 C   0  0  0  0  0  0  0  0  0  0  0  0
   51.0400   31.5150   50.3410 C   0  0  0  0  0  0  0  0  0  0  0  0
   51.1530   32.1060   51.6030 C   0  0  0  0  0  0  0  0  0  0  0  0
   50.2410   33.0760   51.9980 O   0  0  0  0  0  0  0  0  0  0  0  0
   52.1870   31.7240   52.4660 C   0  0  0  0  0  0  0  0  0  0  0  0
   55.5975   27.9413   54.9126 H   0  0  0  0  0  0  0  0  0  0  0  0
   57.5896   29.2401   54.9055 H   0  0  0  0  0  0  0  0  0  0  0  0
   59.0780   28.4742   52.5234 H   0  0  0  0  0  0  0  0  0  0  0  0
   59.9063   29.5406   50.4267 H   0  0  0  0  0  0  0  0  0  0  0  0
   57.9452   30.2344   45.2340 H   0  0  0  0  0  0  0  0  0  0  0  0
   57.2813   31.6306   43.2795 H   0  0  0  0  0  0  0  0  0  0  0  0
   57.7559   34.0766   43.2718 H   0  0  0  0  0  0  0  0  0  0  0  0
   58.9055   35.1334   45.2121 H   0  0  0  0  0  0  0  0  0  0  0  0
   61.1305   34.7883   49.5581 H   0  0  0  0  0  0  0  0  0  0  0  0
   61.4333   33.0141   49.7151 H   0  0  0  0  0  0  0  0  0  0  0  0
   63.3555   35.1531   48.6783 H   0  0  0  0  0  0  0  0  0  0  0  0
   63.5141   34.1357   50.1625 H   0  0  0  0  0  0  0  0  0  0  0  0
   63.6311   34.3059   46.6715 H   0  0  0  0  0  0  0  0  0  0  0  0
   64.0658   32.5695   46.4327 H   0  0  0  0  0  0  0  0  0  0  0  0
   61.6820   33.1519   45.7947 H   0  0  0  0  0  0  0  0  0  0  0  0
   61.8378   31.8541   47.0363 H   0  0  0  0  0  0  0  0  0  0  0  0
   56.8073   32.5466   50.7384 H   0  0  0  0  0  0  0  0  0  0  0  0
   56.0156   31.5132   52.8627 H   0  0  0  0  0  0  0  0  0  0  0  0
   53.7227   29.4053   50.4687 H   0  0  0  0  0  0  0  0  0  0  0  0
   51.8624   30.0697   48.9503 H   0  0  0  0  0  0  0  0  0  0  0  0
   50.2270   31.8162   49.6640 H   0  0  0  0  0  0  0  0  0  0  0  0
   52.2632   32.1768   53.4656 H   0  0  0  0  0  0  0  0  0  0  0  0
  1  2  2  0
  2  3  1  0
  3  4  2  3
  4  5  1  0
  5  6  2  0
  6  7  1  0
  7  8  2  0
  8  9  1  0
  9 10  1  0
 10 11  2  0
 10 12  2  0
 10 13  1  0
 13 14  2  0
 14 15  1  0
 15 16  2  0
 16 17  1  0
 17 18  2  0
 18 19  1  0
 19 20  2  0
 19 21  1  0
 21 22  1  0
 22 23  1  0
 23 24  1  0
 24 25  1  0
 25 26  1  0
  8 27  1  0
 27 28  2  0
  2 29  1  0
 29 30  1  0
 30 31  2  0
 31 32  1  0
 32 33  2  0
 33 34  1  0
 34 35  1  0
 34 36  2  0
 28  5  1  0
 36 30  1  0
 18 13  1  0
 26 21  1  0
  3 37  1  0
  4 38  1  0
  6 39  1  0
  7 40  1  0
 14 41  1  0
 15 42  1  0
 16 43  1  0
 17 44  1  0
 22 45  1  0
 22 46  1  0
 23 47  1  0
 23 48  1  0
 25 49  1  0
 25 50  1  0
 26 51  1  0
 26 52  1  0
 27 53  1  0
 28 54  1  0
 31 55  1  0
 32 56  1  0
 33 57  1  0
 36 58  1  0
M  CHG  3   9  -1  29  -1  35  -1
M  END
>  <UniqueID>  (70) 
66

>  <SMILES>  (70) 
O=C(C=Cc1ccc([N-]S(=O)(=O)c2ccccc2C(=O)N2CCOCC2)cc1)[N-]c1cccc([O-])c1

>  <Energy>  (70) 
85.47457990503548

>  <Genealogy>  (70) 
O=C(C=Cc1ccc([N-]S(=O)(=O)c2ccccc2C(=O)N2CCOCC2)cc1)[N-]c1cccc([O-])c1 (protonated)
O=C(C=Cc1ccc([N-]S(=O)(=O)c2ccccc2C(=O)N2CCOCC2)cc1)[N-]c1cccc([O-])c1 (3D coordinates assigned)
O=C(C=Cc1ccc([N-]S(=O)(=O)c2ccccc2C(=O)N2CCOCC2)cc1)[N-]c1cccc([O-])c1 (nonaromatic ring conformer: 85.47457990503548 kcal/mol)

>  <smiles>  (70) 
O=C(C=Cc1ccc(NS(=O)(=O)c2ccccc2C(=O)N2CCOCC2)cc1)Nc1cccc(O)c1

>  <score_type>  (70) 
oracle

>  <origin>  (70) 
adg

>  <m_score__min__energy>  (70) 
-15.75

>  <m_primary>  (70) 
energy

$$$$
70:0
     RDKit          3D

 50 53  0  0  0  0  0  0  0  0999 V2000
   62.9530   31.6620   47.3640 C   0  0  0  0  0  0  0  0  0  0  0  0
   63.5620   32.7850   46.9720 C   0  0  0  0  0  0  0  0  0  0  0  0
   63.3630   34.0900   47.6940 C   0  0  0  0  0  0  0  0  0  0  0  0
   62.6680   33.8760   48.9700 N   0  0  0  0  0  0  0  0  0  0  0  0
   61.3700   34.1550   49.2350 C   0  0  0  0  0  0  0  0  0  0  0  0
   60.3850   34.6010   48.2330 C   0  0  0  0  0  0  0  0  0  0  0  0
   59.8700   33.8150   47.2770 C   0  0  0  0  0  0  0  0  0  0  0  0
   59.6350   34.4310   45.6030 S   0  0  0  0  0  0  0  0  0  0  0  0
   58.8960   32.8490   45.1870 C   0  0  0  0  0  0  0  0  0  0  0  0
   58.4270   32.6190   44.0410 O   0  0  0  0  0  0  0  0  0  0  0  0
   58.8250   31.8940   46.2440 N   0  0  0  0  0  0  0  0  0  0  0  0
   58.2310   30.5900   46.1330 C   0  0  0  0  0  0  0  0  0  0  0  0
   58.6450   29.5490   46.9770 C   0  0  0  0  0  0  0  0  0  0  0  0
   58.0680   28.2800   46.8730 C   0  0  0  0  0  0  0  0  0  0  0  0
   57.0680   28.0280   45.9180 C   0  0  0  0  0  0  0  0  0  0  0  0
   56.4580   26.6850   45.8100 C   0  0  0  0  0  0  0  0  0  0  0  0
   57.1730   25.6720   45.5840 O   0  0  0  0  0  0  0  0  0  0  0  0
   55.0860   26.5210   45.9580 O   0  0  0  0  0  0  0  0  0  0  0  0
   56.6570   29.0720   45.0710 C   0  0  0  0  0  0  0  0  0  0  0  0
   57.2330   30.3410   45.1780 C   0  0  0  0  0  0  0  0  0  0  0  0
   59.3670   32.4440   47.4390 C   0  0  0  0  0  0  0  0  0  0  0  0
   59.3860   31.8070   48.5250 O   0  0  0  0  0  0  0  0  0  0  0  0
   61.0660   33.8280   50.5430 C   0  0  0  0  0  0  0  0  0  0  0  0
   62.2290   33.3520   51.1090 C   0  0  0  0  0  0  0  0  0  0  0  0
   63.1980   33.3900   50.1200 C   0  0  0  0  0  0  0  0  0  0  0  0
   64.6080   32.9770   50.3120 C   0  0  0  0  0  0  0  0  0  0  0  0
   65.5280   33.8120   50.0990 O   0  0  0  0  0  0  0  0  0  0  0  0
   64.9680   31.6140   50.7760 C   0  0  0  0  0  0  0  0  0  0  0  0
   66.3130   31.2100   50.8620 C   0  0  0  0  0  0  0  0  0  0  0  0
   66.6380   29.9310   51.3270 C   0  0  0  0  0  0  0  0  0  0  0  0
   65.6290   29.0490   51.7180 C   0  0  0  0  0  0  0  0  0  0  0  0
   64.2910   29.4440   51.6480 C   0  0  0  0  0  0  0  0  0  0  0  0
   63.9600   30.7210   51.1830 C   0  0  0  0  0  0  0  0  0  0  0  0
   63.1205   30.7245   46.8135 H   0  0  0  0  0  0  0  0  0  0  0  0
   62.2842   31.6750   48.2372 H   0  0  0  0  0  0  0  0  0  0  0  0
   64.2276   32.7545   46.0968 H   0  0  0  0  0  0  0  0  0  0  0  0
   64.3439   34.5479   47.8893 H   0  0  0  0  0  0  0  0  0  0  0  0
   62.7511   34.7529   47.0646 H   0  0  0  0  0  0  0  0  0  0  0  0
   60.0504   35.6481   48.2724 H   0  0  0  0  0  0  0  0  0  0  0  0
   59.4293   29.7325   47.7261 H   0  0  0  0  0  0  0  0  0  0  0  0
   58.3989   27.4730   47.5433 H   0  0  0  0  0  0  0  0  0  0  0  0
   55.8761   28.8888   44.3183 H   0  0  0  0  0  0  0  0  0  0  0  0
   56.9021   31.1496   44.5096 H   0  0  0  0  0  0  0  0  0  0  0  0
   60.0876   33.9280   51.0357 H   0  0  0  0  0  0  0  0  0  0  0  0
   62.3619   33.0084   52.1455 H   0  0  0  0  0  0  0  0  0  0  0  0
   67.1129   31.9030   50.5622 H   0  0  0  0  0  0  0  0  0  0  0  0
   67.6914   29.6196   51.3846 H   0  0  0  0  0  0  0  0  0  0  0  0
   65.8875   28.0433   52.0811 H   0  0  0  0  0  0  0  0  0  0  0  0
   63.4965   28.7498   51.9590 H   0  0  0  0  0  0  0  0  0  0  0  0
   62.9051   31.0289   51.1353 H   0  0  0  0  0  0  0  0  0  0  0  0
  1  2  2  0
  2  3  1  0
  3  4  1  0
  4  5  1  0
  5  6  1  0
  6  7  2  3
  7  8  1  0
  8  9  1  0
  9 10  2  0
  9 11  1  0
 11 12  1  0
 12 13  2  0
 13 14  1  0
 14 15  2  0
 15 16  1  0
 16 17  2  0
 16 18  1  0
 15 19  1  0
 19 20  2  0
 11 21  1  0
 21 22  2  0
  5 23  2  0
 23 24  1  0
 24 25  2  0
 25 26  1  0
 26 27  2  0
 26 28  1  0
 28 29  2  0
 29 30  1  0
 30 31  2  0
 31 32  1  0
 32 33  2  0
 25  4  1  0
 33 28  1  0
 21  7  1  0
 20 12  1  0
  1 34  1  0
  1 35  1  0
  2 36  1  0
  3 37  1  0
  3 38  1  0
  6 39  1  0
 13 40  1  0
 14 41  1  0
 19 42  1  0
 20 43  1  0
 23 44  1  0
 24 45  1  0
 29 46  1  0
 30 47  1  0
 31 48  1  0
 32 49  1  0
 33 50  1  0
M  CHG  1  18  -1
M  END
>  <UniqueID>  (71) 
67

>  <SMILES>  (71) 
C=CCn1c(C=C2SC(=O)N(c3ccc(C(=O)[O-])cc3)C2=O)ccc1C(=O)c1ccccc1

>  <Energy>  (71) 
115.68030995341311

>  <Genealogy>  (71) 
C=CCn1c(C=C2SC(=O)N(c3ccc(C(=O)[O-])cc3)C2=O)ccc1C(=O)c1ccccc1 (protonated)
C=CCn1c(C=C2SC(=O)N(c3ccc(C(=O)[O-])cc3)C2=O)ccc1C(=O)c1ccccc1 (3D coordinates assigned)
C=CCn1c(C=C2SC(=O)N(c3ccc(C(=O)[O-])cc3)C2=O)ccc1C(=O)c1ccccc1 (nonaromatic ring conformer: 115.68030995341311 kcal/mol)

>  <smiles>  (71) 
C=CCn1c(C=C2SC(=O)N(c3ccc(C(=O)O)cc3)C2=O)ccc1C(=O)c1ccccc1

>  <score_type>  (71) 
oracle

>  <origin>  (71) 
adg

>  <m_score__min__energy>  (71) 
-11.49

>  <m_primary>  (71) 
energy

$$$$
71:0
     RDKit          3D

 48 50  0  0  0  0  0  0  0  0999 V2000
   55.2680   21.8140   49.9740 C   0  0  0  0  0  0  0  0  0  0  0  0
   55.0340   21.6650   48.5430 N   0  0  0  0  0  0  0  0  0  0  0  0
   56.1060   21.6380   47.5970 C   0  0  0  0  0  0  0  0  0  0  0  0
   57.3000   21.7540   47.9890 O   0  0  0  0  0  0  0  0  0  0  0  0
   55.8090   21.5060   46.2360 O   0  0  0  0  0  0  0  0  0  0  0  0
   54.5400   21.8160   45.6580 C   0  0  0  0  0  0  0  0  0  0  0  0
   54.5580   23.2160   45.0010 C   0  0  0  0  0  0  0  0  0  0  0  0
   55.5160   23.3540   43.8330 C   0  0  0  0  0  0  0  0  0  0  0  0
   55.0770   23.2640   42.6530 O   0  0  0  0  0  0  0  0  0  0  0  0
   56.8890   23.7080   44.0620 N   0  0  0  0  0  0  0  0  0  0  0  0
   57.3780   24.9890   44.4850 C   0  0  0  0  0  0  0  0  0  0  0  0
   57.4110   25.3610   45.8410 C   0  0  0  0  0  0  0  0  0  0  0  0
   57.8790   26.6240   46.2170 C   0  0  0  0  0  0  0  0  0  0  0  0
   57.9020   26.9630   47.5310 F   0  0  0  0  0  0  0  0  0  0  0  0
   58.2990   27.5400   45.2390 C   0  0  0  0  0  0  0  0  0  0  0  0
   58.8180   28.8660   45.6300 C   0  0  0  0  0  0  0  0  0  0  0  0
   60.0210   28.9260   46.3520 C   0  0  0  0  0  0  0  0  0  0  0  0
   60.5660   30.1570   46.7200 C   0  0  0  0  0  0  0  0  0  0  0  0
   59.9160   31.3400   46.3710 C   0  0  0  0  0  0  0  0  0  0  0  0
   58.7140   31.2970   45.6620 C   0  0  0  0  0  0  0  0  0  0  0  0
   58.1470   30.0670   45.2910 C   0  0  0  0  0  0  0  0  0  0  0  0
   56.5900   30.0590   44.4420 S   0  0  0  0  0  0  0  0  0  0  0  0
   55.5270   28.8800   45.1330 N   0  0  0  0  0  0  0  0  0  0  0  0
   56.8010   29.7100   42.9950 O   0  0  0  0  0  0  0  0  0  0  0  0
   55.9520   31.4150   44.5440 O   0  0  0  0  0  0  0  0  0  0  0  0
   58.2530   27.1740   43.8860 C   0  0  0  0  0  0  0  0  0  0  0  0
   57.7850   25.9110   43.5120 C   0  0  0  0  0  0  0  0  0  0  0  0
   57.7390   25.5790   42.1970 F   0  0  0  0  0  0  0  0  0  0  0  0
   54.5730   24.3760   45.9880 C   0  0  0  0  0  0  0  0  0  0  0  0
   53.2850   24.8040   45.6080 O   0  0  0  0  0  0  0  0  0  0  0  0
   53.1720   23.7490   44.6810 C   0  0  0  0  0  0  0  0  0  0  0  0
   54.4680   21.3046   50.5313 H   0  0  0  0  0  0  0  0  0  0  0  0
   56.2387   21.3673   50.2353 H   0  0  0  0  0  0  0  0  0  0  0  0
   55.2739   22.8825   50.2353 H   0  0  0  0  0  0  0  0  0  0  0  0
   54.0530   21.5790   48.1930 H   0  0  0  0  0  0  0  0  0  0  0  0
   54.2992   21.0628   44.8934 H   0  0  0  0  0  0  0  0  0  0  0  0
   53.7815   21.8122   46.4546 H   0  0  0  0  0  0  0  0  0  0  0  0
   57.0666   24.6542   46.6103 H   0  0  0  0  0  0  0  0  0  0  0  0
   60.5378   27.9955   46.6297 H   0  0  0  0  0  0  0  0  0  0  0  0
   61.5087   30.1939   47.2856 H   0  0  0  0  0  0  0  0  0  0  0  0
   60.3512   32.3095   46.6549 H   0  0  0  0  0  0  0  0  0  0  0  0
   58.2067   32.2348   45.3916 H   0  0  0  0  0  0  0  0  0  0  0  0
   54.5950   29.3370   45.2550 H   0  0  0  0  0  0  0  0  0  0  0  0
   58.5868   27.8843   43.1152 H   0  0  0  0  0  0  0  0  0  0  0  0
   54.6365   24.0566   47.0387 H   0  0  0  0  0  0  0  0  0  0  0  0
   55.4049   25.0948   45.9519 H   0  0  0  0  0  0  0  0  0  0  0  0
   52.3650   23.0409   44.9203 H   0  0  0  0  0  0  0  0  0  0  0  0
   52.9229   23.9855   43.6360 H   0  0  0  0  0  0  0  0  0  0  0  0
  1  2  1  0
  2  3  1  0
  3  4  2  0
  3  5  1  0
  5  6  1  0
  6  7  1  0
  7  8  1  0
  8  9  2  0
  8 10  1  0
 10 11  1  0
 11 12  2  0
 12 13  1  0
 13 14  1  0
 13 15  2  0
 15 16  1  0
 16 17  2  0
 17 18  1  0
 18 19  2  0
 19 20  1  0
 20 21  2  0
 21 22  1  0
 22 23  1  0
 22 24  2  0
 22 25  2  0
 15 26  1  0
 26 27  2  0
 27 28  1  0
  7 29  1  0
 29 30  1  0
 30 31  1  0
 31  7  1  0
 27 11  1  0
 21 16  1  0
  1 32  1  0
  1 33  1  0
  1 34  1  0
  2 35  1  0
  6 36  1  0
  6 37  1  0
 12 38  1  0
 17 39  1  0
 18 40  1  0
 19 41  1  0
 20 42  1  0
 23 43  1  0
 26 44  1  0
 29 45  1  0
 29 46  1  0
 31 47  1  0
 31 48  1  0
M  CHG  2  10  -1  23  -1
M  END
>  <UniqueID>  (72) 
68

>  <SMILES>  (72) 
CNC(=O)OCC1(C(=O)[N-]c2cc(F)c(-c3ccccc3S([NH-])(=O)=O)cc2F)COC1

>  <Energy>  (72) 
123.4965595517432

>  <Genealogy>  (72) 
CNC(=O)OCC1(C(=O)[N-]c2cc(F)c(-c3ccccc3S([NH-])(=O)=O)cc2F)COC1 (protonated)
CNC(=O)OCC1(C(=O)[N-]c2cc(F)c(-c3ccccc3S([NH-])(=O)=O)cc2F)COC1 (3D coordinates assigned)
CNC(=O)OCC1(C(=O)[N-]c2cc(F)c(-c3ccccc3S([NH-])(=O)=O)cc2F)COC1 (nonaromatic ring conformer: 123.4965595517432 kcal/mol)

>  <smiles>  (72) 
CNC(=O)OCC1(C(=O)Nc2cc(F)c(-c3ccccc3S(N)(=O)=O)cc2F)COC1

>  <score_type>  (72) 
oracle

>  <origin>  (72) 
adg

>  <m_score__min__energy>  (72) 
-12.25

>  <m_primary>  (72) 
energy

$$$$
72:0
     RDKit          3D

 51 54  0  0  0  0  0  0  0  0999 V2000
   56.1210   28.5780   44.2130 H   0  0  0  0  0  0  0  0  0  0  0  0
   55.9420   28.3740   45.1890 O   0  0  0  0  0  0  0  0  0  0  0  0
   56.1930   27.1070   45.7060 C   0  0  0  0  0  0  0  0  0  0  0  0
   55.2310   26.2120   45.9860 N   0  0  0  0  0  0  0  0  0  0  0  0
   55.9280   25.1850   46.5190 C   0  0  0  0  0  0  0  0  0  0  0  0
   55.3770   24.1290   46.9230 O   0  0  0  0  0  0  0  0  0  0  0  0
   57.2610   25.3840   46.5940 N   0  0  0  0  0  0  0  0  0  0  0  0
   57.4280   26.6030   46.0510 C   0  0  0  0  0  0  0  0  0  0  0  0
   58.7320   27.2870   45.9850 C   0  0  0  0  0  0  0  0  0  0  0  0
   59.4526   26.9532   45.2239 H   0  0  0  0  0  0  0  0  0  0  0  0
   59.0950   28.2970   46.8010 C   0  0  0  0  0  0  0  0  0  0  0  0
   58.5540   28.5850   48.0480 C   0  0  0  0  0  0  0  0  0  0  0  0
   57.7694   28.0183   48.5708 H   0  0  0  0  0  0  0  0  0  0  0  0
   59.1930   29.7210   48.5030 C   0  0  0  0  0  0  0  0  0  0  0  0
   58.8900   30.4040   49.8030 C   0  0  0  0  0  0  0  0  0  0  0  0
   59.1805   29.7491   50.6377 H   0  0  0  0  0  0  0  0  0  0  0  0
   59.4546   31.3462   49.8625 H   0  0  0  0  0  0  0  0  0  0  0  0
   57.8126   30.6178   49.8625 H   0  0  0  0  0  0  0  0  0  0  0  0
   60.0820   30.1600   47.5860 N   0  0  0  0  0  0  0  0  0  0  0  0
   60.9190   31.3210   47.7170 C   0  0  0  0  0  0  0  0  0  0  0  0
   61.9620   31.3200   48.6540 C   0  0  0  0  0  0  0  0  0  0  0  0
   62.1323   30.4306   49.2784 H   0  0  0  0  0  0  0  0  0  0  0  0
   62.7910   32.4430   48.8030 C   0  0  0  0  0  0  0  0  0  0  0  0
   63.8540   32.4460   49.7730 N   0  0  0  0  0  0  0  0  0  0  0  0
   63.5530   32.2780   51.2020 C   0  0  0  0  0  0  0  0  0  0  0  0
   63.4511   33.2705   51.6653 H   0  0  0  0  0  0  0  0  0  0  0  0
   62.6177   31.7063   51.2937 H   0  0  0  0  0  0  0  0  0  0  0  0
   64.6750   31.4960   51.9280 C   0  0  0  0  0  0  0  0  0  0  0  0
   64.9943   32.0799   52.8039 H   0  0  0  0  0  0  0  0  0  0  0  0
   64.2566   30.5173   52.2054 H   0  0  0  0  0  0  0  0  0  0  0  0
   65.8110   31.2460   51.1190 O   0  0  0  0  0  0  0  0  0  0  0  0
   66.2150   32.4330   50.4710 C   0  0  0  0  0  0  0  0  0  0  0  0
   66.2361   33.2589   51.1973 H   0  0  0  0  0  0  0  0  0  0  0  0
   67.2196   32.2956   50.0446 H   0  0  0  0  0  0  0  0  0  0  0  0
   65.2260   32.7620   49.3530 C   0  0  0  0  0  0  0  0  0  0  0  0
   65.2938   33.8333   49.1129 H   0  0  0  0  0  0  0  0  0  0  0  0
   65.4756   32.1594   48.4673 H   0  0  0  0  0  0  0  0  0  0  0  0
   62.5540   33.5760   48.0100 C   0  0  0  0  0  0  0  0  0  0  0  0
   63.1890   34.4665   48.1271 H   0  0  0  0  0  0  0  0  0  0  0  0
   61.5180   33.5820   47.0730 C   0  0  0  0  0  0  0  0  0  0  0  0
   61.3458   34.4756   46.4550 H   0  0  0  0  0  0  0  0  0  0  0  0
   60.6930   32.4530   46.9140 C   0  0  0  0  0  0  0  0  0  0  0  0
   59.6510   32.4120   45.9740 O   0  0  0  0  0  0  0  0  0  0  0  0
   58.3110   32.8260   46.2240 C   0  0  0  0  0  0  0  0  0  0  0  0
   58.1256   33.7841   45.7163 H   0  0  0  0  0  0  0  0  0  0  0  0
   58.1290   32.9640   47.5860 F   0  0  0  0  0  0  0  0  0  0  0  0
   57.4270   31.8750   45.7460 F   0  0  0  0  0  0  0  0  0  0  0  0
   60.0360   29.2980   46.5400 C   0  0  0  0  0  0  0  0  0  0  0  0
   60.7850   29.4250   45.4330 C   0  0  0  0  0  0  0  0  0  0  0  0
   61.4954   30.2599   45.3424 H   0  0  0  0  0  0  0  0  0  0  0  0
   60.6883   28.6941   44.6166 H   0  0  0  0  0  0  0  0  0  0  0  0
  1  2  1  0
  2  3  1  0
  3  4  1  0
  4  5  1  0
  5  6  2  0
  5  7  1  0
  7  8  1  0
  8  9  1  0
  9 10  1  0
  9 11  2  0
 11 12  1  0
 12 13  1  0
 12 14  2  0
 14 15  1  0
 15 16  1  0
 15 17  1  0
 15 18  1  0
 14 19  1  0
 19 20  1  0
 20 21  2  0
 21 22  1  0
 21 23  1  0
 23 24  1  0
 24 25  1  0
 25 26  1  0
 25 27  1  0
 25 28  1  0
 28 29  1  0
 28 30  1  0
 28 31  1  0
 31 32  1  0
 32 33  1  0
 32 34  1  0
 32 35  1  0
 35 36  1  0
 35 37  1  0
 23 38  2  0
 38 39  1  0
 38 40  1  0
 40 41  1  0
 40 42  2  0
 42 43  1  0
 43 44  1  0
 44 45  1  0
 44 46  1  0
 44 47  1  0
 19 48  1  0
 48 49  2  0
 49 50  1  0
 49 51  1  0
  8  3  2  0
 48 11  1  0
 42 20  1  0
 35 24  1  0
M  CHG  2   4  -1   7  -1
M  END
>  <UniqueID>  (73) 
69

>  <SMILES>  (73) 
C=c1/c(=C/c2[n-]c(=O)[n-]c2O)cc(C)n1-c1cc(N2CCOCC2)ccc1OC(F)F

>  <Energy>  (73) 
134.19735670481373

>  <Genealogy>  (73) 
C=c1c(=Cc2[n-]c(=O)[n-]c2O)cc(C)n1-c1cc(N2CCOCC2)ccc1OC(F)F (protonated)
C=c1/c(=C/c2[n-]c(=O)[n-]c2O)cc(C)n1-c1cc(N2CCOCC2)ccc1OC(F)F (cis-trans isomerization)
C=c1/c(=C/c2[n-]c(=O)[n-]c2O)cc(C)n1-c1cc(N2CCOCC2)ccc1OC(F)F (3D coordinates assigned)
C=c1/c(=C/c2[n-]c(=O)[n-]c2O)cc(C)n1-c1cc(N2CCOCC2)ccc1OC(F)F (nonaromatic ring conformer: 134.19735670481373 kcal/mol)

>  <smiles>  (73) 
C=c1c(=Cc2[nH]c(=O)[nH]c2O)cc(C)n1-c1cc(N2CCOCC2)ccc1OC(F)F

>  <score_type>  (73) 
oracle

>  <origin>  (73) 
adg

>  <m_score__min__energy>  (73) 
-12.77

>  <m_primary>  (73) 
energy

$$$$
73:0
     RDKit          3D

 45 48  0  0  0  0  0  0  0  0999 V2000
   59.4370   29.0020   44.5730 O   0  0  0  0  0  0  0  0  0  0  0  0
   58.4870   28.8980   45.3950 C   0  0  0  0  0  0  0  0  0  0  0  0
   58.1230   27.5440   45.9250 C   0  0  0  0  0  0  0  0  0  0  0  0
   59.5910   26.5800   46.4410 S   0  0  0  0  0  0  0  0  0  0  0  0
   60.1460   27.7740   47.6570 C   0  0  0  0  0  0  0  0  0  0  0  0
   60.0920   27.5630   48.9910 N   0  0  0  0  0  0  0  0  0  0  0  0
   60.5300   28.6010   49.6970 N   0  0  0  0  0  0  0  0  0  0  0  0
   60.9360   29.6420   48.9300 C   0  0  0  0  0  0  0  0  0  0  0  0
   61.3310   30.7960   49.3830 N   0  0  0  0  0  0  0  0  0  0  0  0
   62.1690   31.7340   48.6930 C   0  0  0  0  0  0  0  0  0  0  0  0
   61.8330   32.2160   47.4160 C   0  0  0  0  0  0  0  0  0  0  0  0
   62.6540   33.1500   46.7790 C   0  0  0  0  0  0  0  0  0  0  0  0
   63.8020   33.6250   47.4200 C   0  0  0  0  0  0  0  0  0  0  0  0
   64.1240   33.1730   48.7020 C   0  0  0  0  0  0  0  0  0  0  0  0
   63.3030   32.2400   49.3430 C   0  0  0  0  0  0  0  0  0  0  0  0
   60.7590   29.3020   47.2930 S   0  0  0  0  0  0  0  0  0  0  0  0
   57.8250   30.0700   45.8760 N   0  0  0  0  0  0  0  0  0  0  0  0
   57.4210   31.3990   44.8430 S   0  0  0  0  0  0  0  0  0  0  0  0
   55.9350   31.6210   44.8640 O   0  0  0  0  0  0  0  0  0  0  0  0
   57.8290   31.0680   43.4340 O   0  0  0  0  0  0  0  0  0  0  0  0
   58.2490   32.8560   45.4200 C   0  0  0  0  0  0  0  0  0  0  0  0
   58.5930   33.8430   44.4820 C   0  0  0  0  0  0  0  0  0  0  0  0
   59.2680   34.9980   44.8760 C   0  0  0  0  0  0  0  0  0  0  0  0
   59.6150   35.1900   46.2100 C   0  0  0  0  0  0  0  0  0  0  0  0
   59.2880   34.2230   47.1710 C   0  0  0  0  0  0  0  0  0  0  0  0
   59.6440   34.4240   48.5150 C   0  0  0  0  0  0  0  0  0  0  0  0
   59.3190   33.4700   49.4790 C   0  0  0  0  0  0  0  0  0  0  0  0
   58.6370   32.3110   49.1140 C   0  0  0  0  0  0  0  0  0  0  0  0
   58.2800   32.0920   47.7810 C   0  0  0  0  0  0  0  0  0  0  0  0
   58.5970   33.0420   46.7860 C   0  0  0  0  0  0  0  0  0  0  0  0
   57.4603   27.6710   46.7938 H   0  0  0  0  0  0  0  0  0  0  0  0
   57.6246   26.9897   45.1161 H   0  0  0  0  0  0  0  0  0  0  0  0
   60.5060   28.5950   50.7410 H   0  0  0  0  0  0  0  0  0  0  0  0
   60.9210   31.8568   46.9167 H   0  0  0  0  0  0  0  0  0  0  0  0
   62.3969   33.5118   45.7725 H   0  0  0  0  0  0  0  0  0  0  0  0
   64.4518   34.3548   46.9148 H   0  0  0  0  0  0  0  0  0  0  0  0
   65.0245   33.5515   49.2079 H   0  0  0  0  0  0  0  0  0  0  0  0
   63.5480   31.9021   50.3607 H   0  0  0  0  0  0  0  0  0  0  0  0
   58.3268   33.7034   43.4239 H   0  0  0  0  0  0  0  0  0  0  0  0
   59.5276   35.7617   44.1281 H   0  0  0  0  0  0  0  0  0  0  0  0
   60.1478   36.1039   46.5115 H   0  0  0  0  0  0  0  0  0  0  0  0
   60.1815   35.3378   48.8083 H   0  0  0  0  0  0  0  0  0  0  0  0
   59.6016   33.6328   50.5295 H   0  0  0  0  0  0  0  0  0  0  0  0
   58.3783   31.5645   49.8794 H   0  0  0  0  0  0  0  0  0  0  0  0
   57.7468   31.1705   47.5042 H   0  0  0  0  0  0  0  0  0  0  0  0
  1  2  2  0
  2  3  1  0
  3  4  1  0
  4  5  1  0
  5  6  2  0
  6  7  1  0
  7  8  1  0
  8  9  2  3
  9 10  1  0
 10 11  2  0
 11 12  1  0
 12 13  2  0
 13 14  1  0
 14 15  2  0
  8 16  1  0
  2 17  1  0
 17 18  1  0
 18 19  2  0
 18 20  2  0
 18 21  1  0
 21 22  2  0
 22 23  1  0
 23 24  2  0
 24 25  1  0
 25 26  2  0
 26 27  1  0
 27 28  2  0
 28 29  1  0
 29 30  2  0
 16  5  1  0
 30 21  1  0
 15 10  1  0
 30 25  1  0
  3 31  1  0
  3 32  1  0
  7 33  1  0
 11 34  1  0
 12 35  1  0
 13 36  1  0
 14 37  1  0
 15 38  1  0
 22 39  1  0
 23 40  1  0
 24 41  1  0
 26 42  1  0
 27 43  1  0
 28 44  1  0
 29 45  1  0
M  CHG  1  17  -1
M  END
>  <UniqueID>  (74) 
70

>  <SMILES>  (74) 
O=C(CSc1n[nH]c(=Nc2ccccc2)s1)[N-]S(=O)(=O)c1cccc2ccccc12

>  <Energy>  (74) 
92.37121315993332

>  <Genealogy>  (74) 
O=C(CSc1n[nH]c(=Nc2ccccc2)s1)[N-]S(=O)(=O)c1cccc2ccccc12 (protonated)
O=C(CSc1n[nH]c(=Nc2ccccc2)s1)[N-]S(=O)(=O)c1cccc2ccccc12 (3D coordinates assigned)
O=C(CSc1n[nH]c(=Nc2ccccc2)s1)[N-]S(=O)(=O)c1cccc2ccccc12 (optimized conformer: 92.37121315993332 kcal/mol)

>  <smiles>  (74) 
O=C(CSc1n[nH]c(=Nc2ccccc2)s1)NS(=O)(=O)c1cccc2ccccc12

>  <score_type>  (74) 
oracle

>  <origin>  (74) 
adg

>  <m_score__min__energy>  (74) 
-11.19

>  <m_primary>  (74) 
energy

$$$$
74:0
     RDKit          3D

 27 29  0  0  0  0  0  0  0  0999 V2000
   60.6340   27.8790   45.6300 C   0  0  0  0  0  0  0  0  0  0  0  0
   59.2210   28.2250   45.4410 N   0  0  0  0  0  0  0  0  0  0  0  0
   58.2840   27.2650   45.1220 C   0  0  0  0  0  0  0  0  0  0  0  0
   58.6220   26.0550   45.0150 O   0  0  0  0  0  0  0  0  0  0  0  0
   56.9700   27.6140   44.9140 N   0  0  0  0  0  0  0  0  0  0  0  0
   56.5620   28.9150   44.9980 C   0  0  0  0  0  0  0  0  0  0  0  0
   55.3570   29.2280   44.8030 O   0  0  0  0  0  0  0  0  0  0  0  0
   57.5120   29.8740   45.2990 C   0  0  0  0  0  0  0  0  0  0  0  0
   57.3650   31.2020   45.4180 N   0  0  0  0  0  0  0  0  0  0  0  0
   58.6320   31.6120   45.7050 C   0  0  0  0  0  0  0  0  0  0  0  0
   58.9860   33.0310   45.9290 C   0  0  0  0  0  0  0  0  0  0  0  0
   59.3820   33.4760   47.2030 C   0  0  0  0  0  0  0  0  0  0  0  0
   59.7170   34.8180   47.4130 C   0  0  0  0  0  0  0  0  0  0  0  0
   59.6590   35.7270   46.3540 C   0  0  0  0  0  0  0  0  0  0  0  0
   59.2680   35.2970   45.0850 C   0  0  0  0  0  0  0  0  0  0  0  0
   58.9320   33.9560   44.8700 C   0  0  0  0  0  0  0  0  0  0  0  0
   59.5460   30.6030   45.7660 N   0  0  0  0  0  0  0  0  0  0  0  0
   58.7990   29.5200   45.5050 C   0  0  0  0  0  0  0  0  0  0  0  0
   60.8574   27.8243   46.7057 H   0  0  0  0  0  0  0  0  0  0  0  0
   60.8385   26.9043   45.1630 H   0  0  0  0  0  0  0  0  0  0  0  0
   61.2657   28.6490   45.1630 H   0  0  0  0  0  0  0  0  0  0  0  0
   56.2730   26.8720   44.6800 H   0  0  0  0  0  0  0  0  0  0  0  0
   59.4287   32.7640   48.0401 H   0  0  0  0  0  0  0  0  0  0  0  0
   60.0262   35.1575   48.4126 H   0  0  0  0  0  0  0  0  0  0  0  0
   59.9216   36.7822   46.5202 H   0  0  0  0  0  0  0  0  0  0  0  0
   59.2239   36.0141   44.2520 H   0  0  0  0  0  0  0  0  0  0  0  0
   58.6240   33.6230   43.8679 H   0  0  0  0  0  0  0  0  0  0  0  0
  1  2  1  0
  2  3  1  0
  3  4  2  0
  3  5  1  0
  5  6  1  0
  6  7  2  0
  6  8  1  0
  8  9  1  0
  9 10  2  0
 10 11  1  0
 11 12  2  0
 12 13  1  0
 13 14  2  0
 14 15  1  0
 15 16  2  0
 10 17  1  0
 17 18  1  0
 18  2  1  0
 18  8  2  0
 16 11  1  0
  1 19  1  0
  1 20  1  0
  1 21  1  0
  5 22  1  0
 12 23  1  0
 13 24  1  0
 14 25  1  0
 15 26  1  0
 16 27  1  0
M  CHG  1  17  -1
M  END
>  <UniqueID>  (75) 
71

>  <SMILES>  (75) 
Cn1c(=O)[nH]c(=O)c2nc(-c3ccccc3)[n-]c21

>  <Energy>  (75) 
69.5353882948147

>  <Genealogy>  (75) 
Cn1c(=O)[nH]c(=O)c2nc(-c3ccccc3)[n-]c21 (protonated)
Cn1c(=O)[nH]c(=O)c2nc(-c3ccccc3)[n-]c21 (3D coordinates assigned)
Cn1c(=O)[nH]c(=O)c2nc(-c3ccccc3)[n-]c21 (optimized conformer: 69.5353882948147 kcal/mol)

>  <smiles>  (75) 
Cn1c(=O)[nH]c(=O)c2nc(-c3ccccc3)[nH]c21

>  <score_type>  (75) 
oracle

>  <origin>  (75) 
adg

>  <m_score__min__energy>  (75) 
-7.9500000000000002

>  <m_primary>  (75) 
energy

$$$$
75:0
     RDKit          3D

 49 52  0  0  0  0  0  0  0  0999 V2000
   55.3780   26.2730   46.2250 O   0  0  0  0  0  0  0  0  0  0  0  0
   56.3090   27.0810   45.9590 C   0  0  0  0  0  0  0  0  0  0  0  0
   56.0210   28.2880   45.2410 N   0  0  0  0  0  0  0  0  0  0  0  0
   56.9500   28.9270   44.3110 C   0  0  0  0  0  0  0  0  0  0  0  0
   56.8300   30.4540   44.3710 C   0  0  0  0  0  0  0  0  0  0  0  0
   57.6880   31.0200   45.4140 N   0  0  0  0  0  0  0  0  0  0  0  0
   58.1130   30.3720   46.5240 C   0  0  0  0  0  0  0  0  0  0  0  0
   58.8530   31.2310   47.3230 C   0  0  0  0  0  0  0  0  0  0  0  0
   59.5860   30.8270   48.9110 S   0  0  0  0  0  0  0  0  0  0  0  0
   61.1710   30.2380   48.2140 C   0  0  0  0  0  0  0  0  0  0  0  0
   62.1870   31.3430   48.2630 C   0  0  0  0  0  0  0  0  0  0  0  0
   62.4590   32.1000   47.1110 C   0  0  0  0  0  0  0  0  0  0  0  0
   63.3990   33.1340   47.1530 C   0  0  0  0  0  0  0  0  0  0  0  0
   64.0720   33.4210   48.3440 C   0  0  0  0  0  0  0  0  0  0  0  0
   63.7990   32.6800   49.4980 C   0  0  0  0  0  0  0  0  0  0  0  0
   62.8560   31.6470   49.4610 C   0  0  0  0  0  0  0  0  0  0  0  0
   58.8740   32.4480   46.6690 C   0  0  0  0  0  0  0  0  0  0  0  0
   59.4390   33.6770   47.0160 C   0  0  0  0  0  0  0  0  0  0  0  0
   60.1520   33.8310   48.2030 O   0  0  0  0  0  0  0  0  0  0  0  0
   59.2620   34.7570   46.1280 C   0  0  0  0  0  0  0  0  0  0  0  0
   58.5290   34.5870   44.9340 C   0  0  0  0  0  0  0  0  0  0  0  0
   57.9660   33.3400   44.6110 C   0  0  0  0  0  0  0  0  0  0  0  0
   58.1560   32.2830   45.5070 C   0  0  0  0  0  0  0  0  0  0  0  0
   57.6950   26.7730   46.3780 C   0  0  0  0  0  0  0  0  0  0  0  0
   58.4660   25.8330   45.6720 C   0  0  0  0  0  0  0  0  0  0  0  0
   59.7770   25.5670   46.0810 C   0  0  0  0  0  0  0  0  0  0  0  0
   60.3030   26.2170   47.1520 N   0  0  0  0  0  0  0  0  0  0  0  0
   59.5850   27.1310   47.8540 C   0  0  0  0  0  0  0  0  0  0  0  0
   58.2690   27.4230   47.4850 C   0  0  0  0  0  0  0  0  0  0  0  0
   57.9779   28.6370   44.5743 H   0  0  0  0  0  0  0  0  0  0  0  0
   56.7040   28.5976   43.2907 H   0  0  0  0  0  0  0  0  0  0  0  0
   57.1256   30.8741   43.3983 H   0  0  0  0  0  0  0  0  0  0  0  0
   55.7863   30.7088   44.6072 H   0  0  0  0  0  0  0  0  0  0  0  0
   57.9022   29.3181   46.7581 H   0  0  0  0  0  0  0  0  0  0  0  0
   61.5333   29.3818   48.8019 H   0  0  0  0  0  0  0  0  0  0  0  0
   61.0176   29.9301   47.1692 H   0  0  0  0  0  0  0  0  0  0  0  0
   61.9302   31.8782   46.1723 H   0  0  0  0  0  0  0  0  0  0  0  0
   63.6092   33.7224   46.2477 H   0  0  0  0  0  0  0  0  0  0  0  0
   64.8167   34.2301   48.3735 H   0  0  0  0  0  0  0  0  0  0  0  0
   64.3261   32.9094   50.4358 H   0  0  0  0  0  0  0  0  0  0  0  0
   62.6376   31.0711   50.3724 H   0  0  0  0  0  0  0  0  0  0  0  0
   60.1810   33.0970   48.9010 H   0  0  0  0  0  0  0  0  0  0  0  0
   59.6978   35.7383   46.3670 H   0  0  0  0  0  0  0  0  0  0  0  0
   58.3970   35.4381   44.2498 H   0  0  0  0  0  0  0  0  0  0  0  0
   57.3936   33.1999   43.6821 H   0  0  0  0  0  0  0  0  0  0  0  0
   58.0408   25.3097   44.8029 H   0  0  0  0  0  0  0  0  0  0  0  0
   60.3835   24.8299   45.5343 H   0  0  0  0  0  0  0  0  0  0  0  0
   60.0400   27.6427   48.7149 H   0  0  0  0  0  0  0  0  0  0  0  0
   57.6848   28.1581   48.0580 H   0  0  0  0  0  0  0  0  0  0  0  0
  1  2  2  0
  2  3  1  0
  3  4  1  0
  4  5  1  0
  5  6  1  0
  6  7  1  0
  7  8  2  0
  8  9  1  0
  9 10  1  0
 10 11  1  0
 11 12  2  0
 12 13  1  0
 13 14  2  0
 14 15  1  0
 15 16  2  0
  8 17  1  0
 17 18  2  0
 18 19  1  0
 18 20  1  0
 20 21  2  0
 21 22  1  0
 22 23  2  0
  2 24  1  0
 24 25  2  0
 25 26  1  0
 26 27  2  0
 27 28  1  0
 28 29  2  0
 23  6  1  0
 29 24  1  0
 16 11  1  0
 23 17  1  0
  4 30  1  0
  4 31  1  0
  5 32  1  0
  5 33  1  0
  7 34  1  0
 10 35  1  0
 10 36  1  0
 12 37  1  0
 13 38  1  0
 14 39  1  0
 15 40  1  0
 16 41  1  0
 19 42  1  0
 20 43  1  0
 21 44  1  0
 22 45  1  0
 25 46  1  0
 26 47  1  0
 28 48  1  0
 29 49  1  0
M  CHG  1   3  -1
M  END
>  <UniqueID>  (76) 
72

>  <SMILES>  (76) 
O=C([N-]CCn1cc(SCc2ccccc2)c2c(O)cccc21)c1ccncc1

>  <Energy>  (76) 
76.24621303926737

>  <Genealogy>  (76) 
O=C([N-]CCn1cc(SCc2ccccc2)c2c(O)cccc21)c1ccncc1 (protonated)
O=C([N-]CCn1cc(SCc2ccccc2)c2c(O)cccc21)c1ccncc1 (3D coordinates assigned)
O=C([N-]CCn1cc(SCc2ccccc2)c2c(O)cccc21)c1ccncc1 (optimized conformer: 76.24621303926737 kcal/mol)

>  <smiles>  (76) 
O=C(NCCn1cc(SCc2ccccc2)c2c(O)cccc21)c1ccncc1

>  <score_type>  (76) 
oracle

>  <origin>  (76) 
adg

>  <m_score__min__energy>  (76) 
-10.33

>  <m_primary>  (76) 
energy

$$$$
76:0
     RDKit          3D

 52 55  0  0  0  0  0  0  0  0999 V2000
   58.5970   31.8640   49.0040 C   0  0  0  0  0  0  0  0  0  0  0  0
   59.5980   30.7820   49.4330 C   0  0  2  0  0  0  0  0  0  0  0  0
   60.4650   31.2280   50.4360 O   0  0  0  0  0  0  0  0  0  0  0  0
   60.3360   30.0920   48.2790 C   0  0  0  0  0  0  0  0  0  0  0  0
   59.7130   28.7470   48.6940 C   0  0  2  0  0  0  0  0  0  0  0  0
   60.7720   27.7540   49.2150 C   0  0  0  0  0  0  0  0  0  0  0  0
   58.7750   28.1110   47.6820 C   0  0  0  0  0  0  0  0  0  0  0  0
   58.4970   26.7630   47.5060 C   0  0  0  0  0  0  0  0  0  0  0  0
   57.7560   26.6000   46.3950 N   0  0  0  0  0  0  0  0  0  0  0  0
   57.6090   27.8550   45.9250 C   0  0  0  0  0  0  0  0  0  0  0  0
   56.9860   28.1120   44.8150 N   0  0  0  0  0  0  0  0  0  0  0  0
   56.3240   29.3550   44.5240 C   0  0  0  0  0  0  0  0  0  0  0  0
   55.0650   29.3970   44.5520 O   0  0  0  0  0  0  0  0  0  0  0  0
   57.0860   30.5880   44.2290 C   0  0  0  0  0  0  0  0  0  0  0  0
   57.0380   31.1570   42.9420 C   0  0  0  0  0  0  0  0  0  0  0  0
   57.7460   32.3220   42.6670 C   0  0  0  0  0  0  0  0  0  0  0  0
   58.5010   32.9430   43.6630 C   0  0  0  0  0  0  0  0  0  0  0  0
   58.5470   32.4020   44.9560 C   0  0  0  0  0  0  0  0  0  0  0  0
   59.2750   33.1150   46.0300 C   0  0  0  0  0  0  0  0  0  0  0  0
   58.7030   34.2410   46.6420 C   0  0  0  0  0  0  0  0  0  0  0  0
   59.4300   34.9750   47.5800 C   0  0  0  0  0  0  0  0  0  0  0  0
   60.7200   34.5830   47.9360 C   0  0  0  0  0  0  0  0  0  0  0  0
   61.2990   33.4340   47.3640 C   0  0  0  0  0  0  0  0  0  0  0  0
   62.6650   32.9830   47.7440 C   0  0  0  0  0  0  0  0  0  0  0  0
   63.7670   33.0700   46.8380 N   0  0  0  0  0  0  0  0  0  0  0  0
   62.8760   32.5470   48.9100 O   0  0  0  0  0  0  0  0  0  0  0  0
   60.5730   32.7160   46.3930 C   0  0  0  0  0  0  0  0  0  0  0  0
   57.8430   31.2170   45.2290 C   0  0  0  0  0  0  0  0  0  0  0  0
   58.2290   28.7980   46.6640 N   0  0  0  0  0  0  0  0  0  0  0  0
   58.9510   29.4510   49.8270 C   0  0  0  0  0  0  0  0  0  0  0  0
   58.1611   32.3352   49.8973 H   0  0  0  0  0  0  0  0  0  0  0  0
   59.1156   32.6260   48.4037 H   0  0  0  0  0  0  0  0  0  0  0  0
   57.7970   31.4061   48.4037 H   0  0  0  0  0  0  0  0  0  0  0  0
   61.2750   31.5750   49.9870 H   0  0  0  0  0  0  0  0  0  0  0  0
   60.0335   30.4389   47.2799 H   0  0  0  0  0  0  0  0  0  0  0  0
   61.4260   30.1939   48.1722 H   0  0  0  0  0  0  0  0  0  0  0  0
   60.7682   27.7576   50.3150 H   0  0  0  0  0  0  0  0  0  0  0  0
   60.5372   26.7430   48.8508 H   0  0  0  0  0  0  0  0  0  0  0  0
   61.7659   28.0533   48.8508 H   0  0  0  0  0  0  0  0  0  0  0  0
   58.8307   25.9533   48.1716 H   0  0  0  0  0  0  0  0  0  0  0  0
   56.4393   30.6792   42.1525 H   0  0  0  0  0  0  0  0  0  0  0  0
   57.7107   32.7571   41.6573 H   0  0  0  0  0  0  0  0  0  0  0  0
   59.0623   33.8606   43.4329 H   0  0  0  0  0  0  0  0  0  0  0  0
   57.6787   34.5458   46.3815 H   0  0  0  0  0  0  0  0  0  0  0  0
   58.9829   35.8680   48.0413 H   0  0  0  0  0  0  0  0  0  0  0  0
   61.2888   35.1750   48.6682 H   0  0  0  0  0  0  0  0  0  0  0  0
   64.7060   32.7160   47.1210 H   0  0  0  0  0  0  0  0  0  0  0  0
   63.6790   33.5350   45.9100 H   0  0  0  0  0  0  0  0  0  0  0  0
   61.0262   31.8352   45.9147 H   0  0  0  0  0  0  0  0  0  0  0  0
   57.8858   30.7781   46.2367 H   0  0  0  0  0  0  0  0  0  0  0  0
   57.8571   29.4318   49.7124 H   0  0  0  0  0  0  0  0  0  0  0  0
   59.0224   29.0810   50.8605 H   0  0  0  0  0  0  0  0  0  0  0  0
  1  2  1  0
  2  3  1  1
  2  4  1  0
  4  5  1  0
  5  6  1  1
  5  7  1  0
  7  8  2  0
  8  9  1  0
  9 10  1  0
 10 11  2  3
 11 12  1  0
 12 13  2  0
 12 14  1  0
 14 15  2  0
 15 16  1  0
 16 17  2  0
 17 18  1  0
 18 19  1  0
 19 20  2  0
 20 21  1  0
 21 22  2  0
 22 23  1  0
 23 24  1  0
 24 25  1  0
 24 26  2  0
 23 27  2  0
 18 28  2  0
 10 29  1  0
  5 30  1  0
 30  2  1  0
 29  7  1  0
 28 14  1  0
 27 19  1  0
  1 31  1  0
  1 32  1  0
  1 33  1  0
  3 34  1  0
  4 35  1  0
  4 36  1  0
  6 37  1  0
  6 38  1  0
  6 39  1  0
  8 40  1  0
 15 41  1  0
 16 42  1  0
 17 43  1  0
 20 44  1  0
 21 45  1  0
 22 46  1  0
 25 47  1  0
 25 48  1  0
 27 49  1  0
 28 50  1  0
 30 51  1  0
 30 52  1  0
M  CHG  2   9  -1  29  -1
M  END
>  <UniqueID>  (77) 
73

>  <SMILES>  (77) 
CC1(O)CC(C)(c2c[n-]c(=NC(=O)c3cccc(-c4cccc(C(N)=O)c4)c3)[n-]2)C1

>  <Energy>  (77) 
158.92685034027076

>  <Genealogy>  (77) 
CC1(O)CC(C)(c2c[n-]c(=NC(=O)c3cccc(-c4cccc(C(N)=O)c4)c3)[n-]2)C1 (protonated)
CC1(O)CC(C)(c2c[n-]c(=NC(=O)c3cccc(-c4cccc(C(N)=O)c4)c3)[n-]2)C1 (3D coordinates assigned)
CC1(O)CC(C)(c2c[n-]c(=NC(=O)c3cccc(-c4cccc(C(N)=O)c4)c3)[n-]2)C1 (nonaromatic ring conformer: 158.92685034027076 kcal/mol)

>  <smiles>  (77) 
CC1(O)CC(C)(c2c[nH]c(=NC(=O)c3cccc(-c4cccc(C(N)=O)c4)c3)[nH]2)C1

>  <score_type>  (77) 
oracle

>  <origin>  (77) 
adg

>  <m_score__min__energy>  (77) 
-13.35

>  <m_primary>  (77) 
energy

$$$$
77:0
     RDKit          3D

 42 46  0  0  0  0  0  0  0  0999 V2000
   60.8580   33.7440   45.5940 H   0  0  0  0  0  0  0  0  0  0  0  0
   60.9470   34.2900   46.4420 O   0  0  0  0  0  0  0  0  0  0  0  0
   60.3880   33.8570   47.6410 C   0  0  0  0  0  0  0  0  0  0  0  0
   60.7340   34.3750   48.8440 N   0  0  0  0  0  0  0  0  0  0  0  0
   59.9870   33.6760   49.7250 C   0  0  0  0  0  0  0  0  0  0  0  0
   59.9640   33.8230   51.1070 C   0  0  0  0  0  0  0  0  0  0  0  0
   60.6037   34.5656   51.6063 H   0  0  0  0  0  0  0  0  0  0  0  0
   59.1260   33.0210   51.8290 N   0  0  0  0  0  0  0  0  0  0  0  0
   58.3130   32.0850   51.2390 C   0  0  0  0  0  0  0  0  0  0  0  0
   57.4340   31.2550   52.0790 C   0  0  0  0  0  0  0  0  0  0  0  0
   56.5950   30.3130   51.5950 N   0  0  0  0  0  0  0  0  0  0  0  0
   55.8990   29.6910   52.5840 C   0  0  0  0  0  0  0  0  0  0  0  0
   55.1676   28.8951   52.3800 H   0  0  0  0  0  0  0  0  0  0  0  0
   56.1790   30.1340   53.8710 C   0  0  0  0  0  0  0  0  0  0  0  0
   55.7228   29.7585   54.7989 H   0  0  0  0  0  0  0  0  0  0  0  0
   57.3390   31.3460   53.7580 S   0  0  0  0  0  0  0  0  0  0  0  0
   58.3260   31.9280   49.8360 C   0  0  0  0  0  0  0  0  0  0  0  0
   57.6804   31.1918   49.3348 H   0  0  0  0  0  0  0  0  0  0  0  0
   59.1910   32.7450   49.1150 C   0  0  0  0  0  0  0  0  0  0  0  0
   59.4370   32.8540   47.7680 C   0  0  0  0  0  0  0  0  0  0  0  0
   58.8560   32.0690   46.7160 N   0  0  0  0  0  0  0  0  0  0  0  0
   58.0610   32.5370   45.7300 C   0  0  0  0  0  0  0  0  0  0  0  0
   57.6640   33.9730   45.5540 C   0  0  0  0  0  0  0  0  0  0  0  0
   57.5346   34.4412   46.5409 H   0  0  0  0  0  0  0  0  0  0  0  0
   58.4489   34.5047   44.9960 H   0  0  0  0  0  0  0  0  0  0  0  0
   56.7175   34.0260   44.9960 H   0  0  0  0  0  0  0  0  0  0  0  0
   57.6930   31.5130   44.8810 C   0  0  0  0  0  0  0  0  0  0  0  0
   57.0612   31.5994   43.9847 H   0  0  0  0  0  0  0  0  0  0  0  0
   58.2750   30.3500   45.3770 C   0  0  0  0  0  0  0  0  0  0  0  0
   58.1840   29.1040   44.8630 C   0  0  0  0  0  0  0  0  0  0  0  0
   58.7902   28.8856   43.9715 H   0  0  0  0  0  0  0  0  0  0  0  0
   57.3430   28.0060   45.3900 C   0  0  0  0  0  0  0  0  0  0  0  0
   57.7850   26.8630   45.9440 N   0  0  0  0  0  0  0  0  0  0  0  0
   56.6500   26.1930   46.2400 C   0  0  0  0  0  0  0  0  0  0  0  0
   56.6550   25.0580   46.7830 O   0  0  0  0  0  0  0  0  0  0  0  0
   55.5120   26.8340   45.9050 N   0  0  0  0  0  0  0  0  0  0  0  0
   55.9670   27.9770   45.3670 C   0  0  0  0  0  0  0  0  0  0  0  0
   55.1410   28.9750   44.8660 O   0  0  0  0  0  0  0  0  0  0  0  0
   58.9940   30.7360   46.5180 C   0  0  0  0  0  0  0  0  0  0  0  0
   59.7390   29.9400   47.3030 C   0  0  0  0  0  0  0  0  0  0  0  0
   60.2597   30.3601   48.1761 H   0  0  0  0  0  0  0  0  0  0  0  0
   59.8282   28.8681   47.0727 H   0  0  0  0  0  0  0  0  0  0  0  0
  1  2  1  0
  2  3  1  0
  3  4  1  0
  4  5  1  0
  5  6  2  0
  6  7  1  0
  6  8  1  0
  8  9  2  0
  9 10  1  0
 10 11  2  0
 11 12  1  0
 12 13  1  0
 12 14  2  0
 14 15  1  0
 14 16  1  0
  9 17  1  0
 17 18  1  0
 17 19  2  0
 19 20  1  0
 20 21  1  0
 21 22  1  0
 22 23  1  0
 23 24  1  0
 23 25  1  0
 23 26  1  0
 22 27  2  0
 27 28  1  0
 27 29  1  0
 29 30  2  0
 30 31  1  0
 30 32  1  0
 32 33  1  0
 33 34  1  0
 34 35  2  0
 34 36  1  0
 36 37  1  0
 37 38  1  0
 29 39  1  0
 39 40  2  0
 40 41  1  0
 40 42  1  0
 20  3  2  0
 39 21  1  0
 19  5  1  0
 37 32  2  0
 16 10  1  0
M  CHG  4   4  -1  33  -1  36  -1  38  -1
M  END
>  <UniqueID>  (78) 
74

>  <SMILES>  (78) 
C=c1/c(=C/c2[n-]c(=O)[n-]c2[O-])cc(C)n1-c1c(O)[n-]c2cnc(-c3nccs3)cc12

>  <Energy>  (78) 
180.23339696607118

>  <Genealogy>  (78) 
C=c1c(=Cc2[n-]c(=O)[n-]c2[O-])cc(C)n1-c1c(O)[n-]c2cnc(-c3nccs3)cc12 (protonated)
C=c1/c(=C/c2[n-]c(=O)[n-]c2[O-])cc(C)n1-c1c(O)[n-]c2cnc(-c3nccs3)cc12 (cis-trans isomerization)
C=c1/c(=C/c2[n-]c(=O)[n-]c2[O-])cc(C)n1-c1c(O)[n-]c2cnc(-c3nccs3)cc12 (3D coordinates assigned)
C=c1/c(=C/c2[n-]c(=O)[n-]c2[O-])cc(C)n1-c1c(O)[n-]c2cnc(-c3nccs3)cc12 (optimized conformer: 180.23339696607118 kcal/mol)

>  <smiles>  (78) 
C=c1c(=Cc2[nH]c(=O)[nH]c2O)cc(C)n1-c1c(O)[nH]c2cnc(-c3nccs3)cc12

>  <score_type>  (78) 
oracle

>  <origin>  (78) 
adg

>  <m_score__min__energy>  (78) 
-17.050000000000001

>  <m_primary>  (78) 
energy

$$$$
78:0
     RDKit          3D

 60 63  0  0  0  0  0  0  0  0999 V2000
   57.3920   26.7080   47.4890 C   0  0  0  0  0  0  0  0  0  0  0  0
   57.9580   27.0260   46.3150 C   0  0  0  0  0  0  0  0  0  0  0  0
   57.9770   26.2550   45.1410 C   0  0  0  0  0  0  0  0  0  0  0  0
   57.3010   25.1390   44.8080 C   0  0  0  0  0  0  0  0  0  0  0  0
   55.9070   24.8410   45.1720 C   0  0  0  0  0  0  0  0  0  0  0  0
   55.3140   23.6570   44.9360 N   0  0  0  0  0  0  0  0  0  0  0  0
   54.0350   23.8690   45.3170 C   0  0  0  0  0  0  0  0  0  0  0  0
   53.1540   22.9710   45.2590 O   0  0  0  0  0  0  0  0  0  0  0  0
   53.7700   25.1200   45.7520 N   0  0  0  0  0  0  0  0  0  0  0  0
   54.9620   25.7260   45.6400 C   0  0  0  0  0  0  0  0  0  0  0  0
   55.1750   27.0670   45.9370 O   0  0  0  0  0  0  0  0  0  0  0  0
   58.8780   26.8720   44.2870 C   0  0  0  0  0  0  0  0  0  0  0  0
   59.3160   28.0150   44.9250 C   0  0  0  0  0  0  0  0  0  0  0  0
   60.3160   28.9800   44.3690 C   0  0  0  0  0  0  0  0  0  0  0  0
   58.7510   28.1140   46.1460 N   0  0  0  0  0  0  0  0  0  0  0  0
   59.0450   29.1310   47.1190 C   0  0  0  0  0  0  0  0  0  0  0  0
   59.7400   28.7760   48.2820 C   0  0  0  0  0  0  0  0  0  0  0  0
   60.0100   29.7290   49.2630 C   0  0  0  0  0  0  0  0  0  0  0  0
   59.5910   31.0590   49.1000 C   0  0  0  0  0  0  0  0  0  0  0  0
   59.8470   32.0620   50.1610 C   0  0  0  0  0  0  0  0  0  0  0  0
   60.2850   31.6860   51.2820 O   0  0  0  0  0  0  0  0  0  0  0  0
   59.6340   33.4590   49.8930 N   0  0  0  0  0  0  0  0  0  0  0  0
   60.4290   34.2820   49.2690 C   0  0  0  0  0  0  0  0  0  0  0  0
   61.0090   34.0230   47.9030 C   0  0  0  0  0  0  0  0  0  0  0  0
   62.4790   34.2010   47.9220 N   0  0  0  0  0  0  0  0  0  0  0  0
   63.0670   33.8050   49.2170 C   0  0  0  0  0  0  0  0  0  0  0  0
   63.0580   32.2700   49.4080 C   0  0  0  0  0  0  0  0  0  0  0  0
   62.8540   31.5560   48.2020 O   0  0  0  0  0  0  0  0  0  0  0  0
   63.6520   32.1020   47.1740 C   0  0  0  0  0  0  0  0  0  0  0  0
   63.1510   33.5110   46.7940 C   0  0  0  0  0  0  0  0  0  0  0  0
   58.9020   31.4170   47.9260 C   0  0  0  0  0  0  0  0  0  0  0  0
   58.6320   30.4670   46.9270 C   0  0  0  0  0  0  0  0  0  0  0  0
   57.7380   30.9490   45.4760 S   0  0  0  0  0  0  0  0  0  0  0  0
   57.0720   32.5930   45.6220 C   0  0  0  0  0  0  0  0  0  0  0  0
   58.6510   30.9340   44.2830 O   0  0  0  0  0  0  0  0  0  0  0  0
   56.6080   29.9870   45.2490 O   0  0  0  0  0  0  0  0  0  0  0  0
   57.4507   27.4081   48.3354 H   0  0  0  0  0  0  0  0  0  0  0  0
   56.8692   25.7472   47.6052 H   0  0  0  0  0  0  0  0  0  0  0  0
   57.8372   24.3853   44.2126 H   0  0  0  0  0  0  0  0  0  0  0  0
   59.1850   26.5185   43.2916 H   0  0  0  0  0  0  0  0  0  0  0  0
   60.8382   29.4839   45.1957 H   0  0  0  0  0  0  0  0  0  0  0  0
   61.0460   28.4363   43.7514 H   0  0  0  0  0  0  0  0  0  0  0  0
   59.7987   29.7289   43.7514 H   0  0  0  0  0  0  0  0  0  0  0  0
   60.0752   27.7378   48.4224 H   0  0  0  0  0  0  0  0  0  0  0  0
   60.5558   29.4365   50.1722 H   0  0  0  0  0  0  0  0  0  0  0  0
   60.6929   35.2245   49.7711 H   0  0  0  0  0  0  0  0  0  0  0  0
   60.7729   32.9926   47.5988 H   0  0  0  0  0  0  0  0  0  0  0  0
   60.5730   34.7380   47.1897 H   0  0  0  0  0  0  0  0  0  0  0  0
   64.1063   34.1629   49.2602 H   0  0  0  0  0  0  0  0  0  0  0  0
   62.4605   34.2523   50.0183 H   0  0  0  0  0  0  0  0  0  0  0  0
   64.0252   31.9657   49.8344 H   0  0  0  0  0  0  0  0  0  0  0  0
   62.2167   32.0299   50.0748 H   0  0  0  0  0  0  0  0  0  0  0  0
   64.6937   32.1692   47.5209 H   0  0  0  0  0  0  0  0  0  0  0  0
   63.5890   31.4507   46.2898 H   0  0  0  0  0  0  0  0  0  0  0  0
   64.0117   34.1163   46.4732 H   0  0  0  0  0  0  0  0  0  0  0  0
   62.4127   33.3956   45.9868 H   0  0  0  0  0  0  0  0  0  0  0  0
   58.5699   32.4566   47.7887 H   0  0  0  0  0  0  0  0  0  0  0  0
   56.9667   32.8528   46.6857 H   0  0  0  0  0  0  0  0  0  0  0  0
   57.7512   33.3083   45.1353 H   0  0  0  0  0  0  0  0  0  0  0  0
   56.0864   32.6339   45.1353 H   0  0  0  0  0  0  0  0  0  0  0  0
  1  2  2  0
  2  3  1  0
  3  4  2  3
  4  5  1  0
  5  6  1  0
  6  7  1  0
  7  8  2  0
  7  9  1  0
  9 10  1  0
 10 11  1  0
  3 12  1  0
 12 13  2  0
 13 14  1  0
 13 15  1  0
 15 16  1  0
 16 17  2  0
 17 18  1  0
 18 19  2  0
 19 20  1  0
 20 21  2  0
 20 22  1  0
 22 23  2  3
 23 24  1  0
 24 25  1  0
 25 26  1  0
 26 27  1  0
 27 28  1  0
 28 29  1  0
 29 30  1  0
 19 31  1  0
 31 32  2  0
 32 33  1  0
 33 34  1  0
 33 35  2  0
 33 36  2  0
 15  2  1  0
 32 16  1  0
 10  5  2  0
 30 25  1  0
  1 37  1  0
  1 38  1  0
  4 39  1  0
 12 40  1  0
 14 41  1  0
 14 42  1  0
 14 43  1  0
 17 44  1  0
 18 45  1  0
 23 46  1  0
 24 47  1  0
 24 48  1  0
 26 49  1  0
 26 50  1  0
 27 51  1  0
 27 52  1  0
 29 53  1  0
 29 54  1  0
 30 55  1  0
 30 56  1  0
 31 57  1  0
 34 58  1  0
 34 59  1  0
 34 60  1  0
M  CHG  3   6  -1   9  -1  11  -1
M  END
>  <UniqueID>  (79) 
75

>  <SMILES>  (79) 
C=c1c(=Cc2[n-]c(=O)[n-]c2[O-])cc(C)n1-c1ccc(C(=O)N=CCN2CCOCC2)cc1S(C)(=O)=O

>  <Energy>  (79) 
151.83966391369805

>  <Genealogy>  (79) 
C=c1c(=Cc2[n-]c(=O)[n-]c2[O-])cc(C)n1-c1ccc(C(=O)N=CCN2CCOCC2)cc1S(C)(=O)=O (protonated)
C=c1c(=Cc2[n-]c(=O)[n-]c2[O-])cc(C)n1-c1ccc(C(=O)N=CCN2CCOCC2)cc1S(C)(=O)=O (3D coordinates assigned)
C=c1c(=Cc2[n-]c(=O)[n-]c2[O-])cc(C)n1-c1ccc(C(=O)N=CCN2CCOCC2)cc1S(C)(=O)=O (nonaromatic ring conformer: 151.83966391369805 kcal/mol)

>  <smiles>  (79) 
C=c1c(=Cc2[nH]c(=O)[nH]c2O)cc(C)n1-c1ccc(C(=O)N=CCN2CCOCC2)cc1S(C)(=O)=O

>  <score_type>  (79) 
oracle

>  <origin>  (79) 
adg

>  <m_score__min__energy>  (79) 
-17.120000000000001

>  <m_primary>  (79) 
energy

$$$$
79:0
     RDKit          3D

 51 54  0  0  0  0  0  0  0  0999 V2000
   58.8290   28.0030   47.1930 C   0  0  0  0  0  0  0  0  0  0  0  0
   58.3320   28.5480   46.0720 C   0  0  0  0  0  0  0  0  0  0  0  0
   57.5990   27.8950   45.0680 C   0  0  0  0  0  0  0  0  0  0  0  0
   57.3980   26.5840   44.8300 C   0  0  0  0  0  0  0  0  0  0  0  0
   56.9100   25.6030   45.8120 C   0  0  0  0  0  0  0  0  0  0  0  0
   57.6280   24.5650   46.2820 N   0  0  0  0  0  0  0  0  0  0  0  0
   56.7350   23.8830   47.0310 C   0  0  0  0  0  0  0  0  0  0  0  0
   57.0390   22.8360   47.6610 O   0  0  0  0  0  0  0  0  0  0  0  0
   55.4890   24.4040   47.0440 N   0  0  0  0  0  0  0  0  0  0  0  0
   55.6160   25.4840   46.2550 C   0  0  0  0  0  0  0  0  0  0  0  0
   54.5670   26.3400   45.9440 O   0  0  0  0  0  0  0  0  0  0  0  0
   57.0700   28.8910   44.2640 C   0  0  0  0  0  0  0  0  0  0  0  0
   57.5530   30.0910   44.7440 C   0  0  0  0  0  0  0  0  0  0  0  0
   57.2440   31.4320   44.1490 C   0  0  0  0  0  0  0  0  0  0  0  0
   58.3170   29.8860   45.8410 N   0  0  0  0  0  0  0  0  0  0  0  0
   58.9580   30.9110   46.6230 C   0  0  0  0  0  0  0  0  0  0  0  0
   58.9130   30.8680   48.0230 C   0  0  0  0  0  0  0  0  0  0  0  0
   59.5170   31.8770   48.7780 C   0  0  0  0  0  0  0  0  0  0  0  0
   60.1660   32.9500   48.1430 C   0  0  0  0  0  0  0  0  0  0  0  0
   60.7890   34.0260   48.9390 C   0  0  0  0  0  0  0  0  0  0  0  0
   60.0720   34.9540   49.4060 O   0  0  0  0  0  0  0  0  0  0  0  0
   62.2020   34.0360   49.1930 N   0  0  0  0  0  0  0  0  0  0  0  0
   62.7600   34.4940   50.4510 C   0  0  0  0  0  0  0  0  0  0  0  0
   64.0510   33.9460   50.5990 O   0  0  0  0  0  0  0  0  0  0  0  0
   64.4310   33.4250   49.3430 C   0  0  0  0  0  0  0  0  0  0  0  0
   63.1660   33.2010   48.5100 C   0  0  0  0  0  0  0  0  0  0  0  0
   62.7290   31.7220   48.5620 C   0  0  0  0  0  0  0  0  0  0  0  0
   63.3700   33.6500   47.0530 C   0  0  0  0  0  0  0  0  0  0  0  0
   60.2280   32.9770   46.7400 C   0  0  0  0  0  0  0  0  0  0  0  0
   59.6230   31.9670   45.9860 C   0  0  0  0  0  0  0  0  0  0  0  0
   59.3895   28.6258   47.9057 H   0  0  0  0  0  0  0  0  0  0  0  0
   58.6759   26.9334   47.3992 H   0  0  0  0  0  0  0  0  0  0  0  0
   57.6171   26.2164   43.8167 H   0  0  0  0  0  0  0  0  0  0  0  0
   56.3944   28.7520   43.4071 H   0  0  0  0  0  0  0  0  0  0  0  0
   57.0760   32.1610   44.9554 H   0  0  0  0  0  0  0  0  0  0  0  0
   58.0898   31.7611   43.5275 H   0  0  0  0  0  0  0  0  0  0  0  0
   56.3394   31.3578   43.5275 H   0  0  0  0  0  0  0  0  0  0  0  0
   58.4003   30.0370   48.5295 H   0  0  0  0  0  0  0  0  0  0  0  0
   59.4843   31.8312   49.8766 H   0  0  0  0  0  0  0  0  0  0  0  0
   62.8219   35.5923   50.4505 H   0  0  0  0  0  0  0  0  0  0  0  0
   62.1185   34.1726   51.2848 H   0  0  0  0  0  0  0  0  0  0  0  0
   65.0924   34.1384   48.8296 H   0  0  0  0  0  0  0  0  0  0  0  0
   64.9697   32.4751   49.4751 H   0  0  0  0  0  0  0  0  0  0  0  0
   62.6351   31.4041   49.6109 H   0  0  0  0  0  0  0  0  0  0  0  0
   61.7589   31.6083   48.0561 H   0  0  0  0  0  0  0  0  0  0  0  0
   63.4815   31.0993   48.0561 H   0  0  0  0  0  0  0  0  0  0  0  0
   63.8250   34.6514   47.0382 H   0  0  0  0  0  0  0  0  0  0  0  0
   64.0332   32.9383   46.5394 H   0  0  0  0  0  0  0  0  0  0  0  0
   62.3978   33.6814   46.5394 H   0  0  0  0  0  0  0  0  0  0  0  0
   60.7556   33.7975   46.2316 H   0  0  0  0  0  0  0  0  0  0  0  0
   59.6693   32.0016   44.8875 H   0  0  0  0  0  0  0  0  0  0  0  0
  1  2  2  0
  2  3  1  0
  3  4  2  3
  4  5  1  0
  5  6  1  0
  6  7  1  0
  7  8  2  0
  7  9  1  0
  9 10  1  0
 10 11  1  0
  3 12  1  0
 12 13  2  0
 13 14  1  0
 13 15  1  0
 15 16  1  0
 16 17  2  0
 17 18  1  0
 18 19  2  0
 19 20  1  0
 20 21  2  0
 20 22  1  0
 22 23  1  0
 23 24  1  0
 24 25  1  0
 25 26  1  0
 26 27  1  0
 26 28  1  0
 19 29  1  0
 29 30  2  0
 15  2  1  0
 30 16  1  0
 10  5  2  0
 26 22  1  0
  1 31  1  0
  1 32  1  0
  4 33  1  0
 12 34  1  0
 14 35  1  0
 14 36  1  0
 14 37  1  0
 17 38  1  0
 18 39  1  0
 23 40  1  0
 23 41  1  0
 25 42  1  0
 25 43  1  0
 27 44  1  0
 27 45  1  0
 27 46  1  0
 28 47  1  0
 28 48  1  0
 28 49  1  0
 29 50  1  0
 30 51  1  0
M  CHG  3   6  -1   9  -1  11  -1
M  END
>  <UniqueID>  (80) 
76

>  <SMILES>  (80) 
C=c1c(=Cc2[n-]c(=O)[n-]c2[O-])cc(C)n1-c1ccc(C(=O)N2COCC2(C)C)cc1

>  <Energy>  (80) 
134.98782528771844

>  <Genealogy>  (80) 
C=c1c(=Cc2[n-]c(=O)[n-]c2[O-])cc(C)n1-c1ccc(C(=O)N2COCC2(C)C)cc1 (protonated)
C=c1c(=Cc2[n-]c(=O)[n-]c2[O-])cc(C)n1-c1ccc(C(=O)N2COCC2(C)C)cc1 (3D coordinates assigned)
C=c1c(=Cc2[n-]c(=O)[n-]c2[O-])cc(C)n1-c1ccc(C(=O)N2COCC2(C)C)cc1 (nonaromatic ring conformer: 134.98782528771844 kcal/mol)

>  <smiles>  (80) 
C=c1c(=Cc2[nH]c(=O)[nH]c2O)cc(C)n1-c1ccc(C(=O)N2COCC2(C)C)cc1

>  <score_type>  (80) 
oracle

>  <origin>  (80) 
adg

>  <m_score__min__energy>  (80) 
-15.710000000000001

>  <m_primary>  (80) 
energy

$$$$
80:0
     RDKit          3D

 49 51  0  0  0  0  0  0  0  0999 V2000
   53.1600   22.3570   45.5010 O   0  0  0  0  0  0  0  0  0  0  0  0
   53.7540   23.2350   46.1860 C   0  0  0  0  0  0  0  0  0  0  0  0
   54.1740   22.9170   47.6020 C   0  0  0  0  0  0  0  0  0  0  0  0
   54.8890   21.5650   47.7130 C   0  0  0  0  0  0  0  0  0  0  0  0
   56.6590   21.7620   47.5760 S   0  0  0  0  0  0  0  0  0  0  0  0
   57.0510   23.1090   48.1170 O   0  0  0  0  0  0  0  0  0  0  0  0
   57.3440   20.7000   48.3890 O   0  0  0  0  0  0  0  0  0  0  0  0
   57.1600   21.6160   45.8920 C   0  0  0  0  0  0  0  0  0  0  0  0
   58.4570   21.9790   45.5000 C   0  0  0  0  0  0  0  0  0  0  0  0
   58.8370   21.8750   44.1580 C   0  0  0  0  0  0  0  0  0  0  0  0
   57.9250   21.4140   43.2030 C   0  0  0  0  0  0  0  0  0  0  0  0
   56.6290   21.0630   43.5890 C   0  0  0  0  0  0  0  0  0  0  0  0
   56.2460   21.1620   44.9300 C   0  0  0  0  0  0  0  0  0  0  0  0
   54.0060   24.5140   45.5810 N   0  0  0  0  0  0  0  0  0  0  0  0
   55.0970   25.2180   45.6490 C   0  0  0  0  0  0  0  0  0  0  0  0
   55.1560   26.5100   46.0440 N   0  0  0  0  0  0  0  0  0  0  0  0
   56.3900   27.0110   46.0050 N   0  0  0  0  0  0  0  0  0  0  0  0
   57.3090   26.1180   45.5780 C   0  0  0  0  0  0  0  0  0  0  0  0
   59.0560   26.4840   45.4420 S   0  0  0  0  0  0  0  0  0  0  0  0
   59.1990   27.2470   47.0980 C   0  0  0  0  0  0  0  0  0  0  0  0
   59.1730   28.7370   46.9660 C   0  0  0  0  0  0  0  0  0  0  0  0
   60.0250   29.4290   47.5860 O   0  0  0  0  0  0  0  0  0  0  0  0
   58.1380   29.3700   46.1980 N   0  0  0  0  0  0  0  0  0  0  0  0
   58.1320   30.7750   45.8900 C   0  0  0  0  0  0  0  0  0  0  0  0
   59.0380   31.6350   46.5350 C   0  0  0  0  0  0  0  0  0  0  0  0
   59.1130   32.9830   46.1780 C   0  0  0  0  0  0  0  0  0  0  0  0
   58.2950   33.4860   45.1680 C   0  0  0  0  0  0  0  0  0  0  0  0
   57.3960   32.6430   44.5120 C   0  0  0  0  0  0  0  0  0  0  0  0
   57.2950   31.2840   44.8660 C   0  0  0  0  0  0  0  0  0  0  0  0
   56.3250   30.4490   44.2080 N   0  0  0  0  0  0  0  0  0  0  0  0
   55.6120   29.6700   44.8740 O   0  0  0  0  0  0  0  0  0  0  0  0
   56.2730   30.3860   42.8340 O   0  0  0  0  0  0  0  0  0  0  0  0
   56.6100   24.6300   45.2090 S   0  0  0  0  0  0  0  0  0  0  0  0
   54.8550   23.7061   47.9536 H   0  0  0  0  0  0  0  0  0  0  0  0
   53.2634   22.8650   48.2169 H   0  0  0  0  0  0  0  0  0  0  0  0
   54.6521   21.1119   48.6870 H   0  0  0  0  0  0  0  0  0  0  0  0
   54.5444   20.9185   46.8924 H   0  0  0  0  0  0  0  0  0  0  0  0
   59.1753   22.3455   46.2481 H   0  0  0  0  0  0  0  0  0  0  0  0
   59.8557   22.1565   43.8529 H   0  0  0  0  0  0  0  0  0  0  0  0
   58.2279   21.3279   42.1490 H   0  0  0  0  0  0  0  0  0  0  0  0
   55.9090   20.7083   42.8369 H   0  0  0  0  0  0  0  0  0  0  0  0
   55.2255   20.8832   45.2312 H   0  0  0  0  0  0  0  0  0  0  0  0
   58.3572   26.9200   47.7260 H   0  0  0  0  0  0  0  0  0  0  0  0
   60.1464   26.9372   47.5632 H   0  0  0  0  0  0  0  0  0  0  0  0
   57.3490   28.7820   45.8490 H   0  0  0  0  0  0  0  0  0  0  0  0
   59.6929   31.2430   47.3271 H   0  0  0  0  0  0  0  0  0  0  0  0
   59.8192   33.6492   46.6951 H   0  0  0  0  0  0  0  0  0  0  0  0
   58.3577   34.5478   44.8875 H   0  0  0  0  0  0  0  0  0  0  0  0
   56.7596   33.0449   43.7098 H   0  0  0  0  0  0  0  0  0  0  0  0
  1  2  2  0
  2  3  1  0
  3  4  1  0
  4  5  1  0
  5  6  2  0
  5  7  2  0
  5  8  1  0
  8  9  2  0
  9 10  1  0
 10 11  2  0
 11 12  1  0
 12 13  2  0
  2 14  1  0
 14 15  2  3
 15 16  1  0
 16 17  1  0
 17 18  2  0
 18 19  1  0
 19 20  1  0
 20 21  1  0
 21 22  2  0
 21 23  1  0
 23 24  1  0
 24 25  2  0
 25 26  1  0
 26 27  2  0
 27 28  1  0
 28 29  2  0
 29 30  1  0
 30 31  2  0
 30 32  1  0
 18 33  1  0
 13  8  1  0
 33 15  1  0
 29 24  1  0
  3 34  1  0
  3 35  1  0
  4 36  1  0
  4 37  1  0
  9 38  1  0
 10 39  1  0
 11 40  1  0
 12 41  1  0
 13 42  1  0
 20 43  1  0
 20 44  1  0
 23 45  1  0
 25 46  1  0
 26 47  1  0
 27 48  1  0
 28 49  1  0
M  CHG  3  16  -1  30   1  32  -1
M  END
>  <UniqueID>  (81) 
77

>  <SMILES>  (81) 
O=C(CCS(=O)(=O)c1ccccc1)N=c1[n-]nc(SCC(=O)Nc2ccccc2[N+](=O)[O-])s1

>  <Energy>  (81) 
88.60947390255737

>  <Genealogy>  (81) 
O=C(CCS(=O)(=O)c1ccccc1)N=c1[n-]nc(SCC(=O)Nc2ccccc2[N+](=O)[O-])s1 (protonated)
O=C(CCS(=O)(=O)c1ccccc1)N=c1[n-]nc(SCC(=O)Nc2ccccc2[N+](=O)[O-])s1 (3D coordinates assigned)
O=C(CCS(=O)(=O)c1ccccc1)N=c1[n-]nc(SCC(=O)Nc2ccccc2[N+](=O)[O-])s1 (optimized conformer: 88.60947390255737 kcal/mol)

>  <smiles>  (81) 
O=C(CCS(=O)(=O)c1ccccc1)N=c1[nH]nc(SCC(=O)Nc2ccccc2[N+](=O)[O-])s1

>  <score_type>  (81) 
oracle

>  <origin>  (81) 
adg

>  <m_score__min__energy>  (81) 
-11.82

>  <m_primary>  (81) 
energy

$$$$
81:0
     RDKit          3D

 54 57  0  0  0  0  0  0  0  0999 V2000
   54.6620   23.6750   44.1030 C   0  0  0  0  0  0  0  0  0  0  0  0
   55.9750   22.9430   44.1270 C   0  0  0  0  0  0  0  0  0  0  0  0
   56.2820   22.0740   43.0660 C   0  0  0  0  0  0  0  0  0  0  0  0
   57.4910   21.3890   43.0440 C   0  0  0  0  0  0  0  0  0  0  0  0
   58.4090   21.5540   44.0820 C   0  0  0  0  0  0  0  0  0  0  0  0
   58.1150   22.4090   45.1460 C   0  0  0  0  0  0  0  0  0  0  0  0
   56.8920   23.1020   45.1910 C   0  0  0  0  0  0  0  0  0  0  0  0
   56.6480   24.0440   46.3460 C   0  0  0  0  0  0  0  0  0  0  0  0
   57.1830   25.3680   46.0320 N   0  0  0  0  0  0  0  0  0  0  0  0
   58.4780   25.6210   45.9230 N   0  0  0  0  0  0  0  0  0  0  0  0
   58.6170   26.9430   45.7030 C   0  0  0  0  0  0  0  0  0  0  0  0
   59.9590   27.6170   45.6110 C   0  0  0  0  0  0  0  0  0  0  0  0
   57.3660   27.5570   45.6760 C   0  0  0  0  0  0  0  0  0  0  0  0
   57.0400   28.9870   45.4850 C   0  0  0  0  0  0  0  0  0  0  0  0
   55.8650   29.3290   45.1540 O   0  0  0  0  0  0  0  0  0  0  0  0
   58.0130   29.9870   45.8010 N   0  0  0  0  0  0  0  0  0  0  0  0
   58.5020   30.3850   47.0970 C   0  0  0  0  0  0  0  0  0  0  0  0
   58.7790   29.3540   48.0070 C   0  0  0  0  0  0  0  0  0  0  0  0
   59.3420   29.6270   49.2570 C   0  0  0  0  0  0  0  0  0  0  0  0
   59.6410   30.9410   49.6190 C   0  0  0  0  0  0  0  0  0  0  0  0
   59.3700   31.9860   48.7330 C   0  0  0  0  0  0  0  0  0  0  0  0
   58.7990   31.7280   47.4650 C   0  0  0  0  0  0  0  0  0  0  0  0
   58.5650   32.8380   46.5720 N   0  0  0  0  0  0  0  0  0  0  0  0
   59.7320   33.6200   46.1380 C   0  0  0  0  0  0  0  0  0  0  0  0
   59.2780   34.9480   45.5130 C   0  0  0  0  0  0  0  0  0  0  0  0
   58.2750   34.7440   44.5400 O   0  0  0  0  0  0  0  0  0  0  0  0
   57.1130   34.2150   45.1510 C   0  0  0  0  0  0  0  0  0  0  0  0
   57.3830   32.8110   45.7060 C   0  0  0  0  0  0  0  0  0  0  0  0
   56.4910   26.5160   45.9040 C   0  0  0  0  0  0  0  0  0  0  0  0
   55.2330   26.6080   46.0070 O   0  0  0  0  0  0  0  0  0  0  0  0
   54.3273   23.8616   45.1341 H   0  0  0  0  0  0  0  0  0  0  0  0
   54.7864   24.6340   43.5787 H   0  0  0  0  0  0  0  0  0  0  0  0
   53.9117   23.0650   43.5787 H   0  0  0  0  0  0  0  0  0  0  0  0
   55.5605   21.9351   42.2474 H   0  0  0  0  0  0  0  0  0  0  0  0
   57.7248   20.7153   42.2065 H   0  0  0  0  0  0  0  0  0  0  0  0
   59.3649   21.0101   44.0620 H   0  0  0  0  0  0  0  0  0  0  0  0
   58.8467   22.5418   45.9565 H   0  0  0  0  0  0  0  0  0  0  0  0
   55.5664   24.1223   46.5302 H   0  0  0  0  0  0  0  0  0  0  0  0
   57.1515   23.6541   47.2429 H   0  0  0  0  0  0  0  0  0  0  0  0
   60.3427   27.8097   46.6237 H   0  0  0  0  0  0  0  0  0  0  0  0
   60.6608   26.9644   45.0710 H   0  0  0  0  0  0  0  0  0  0  0  0
   59.8546   28.5696   45.0710 H   0  0  0  0  0  0  0  0  0  0  0  0
   58.5495   28.3138   47.7325 H   0  0  0  0  0  0  0  0  0  0  0  0
   59.5498   28.8042   49.9568 H   0  0  0  0  0  0  0  0  0  0  0  0
   60.0895   31.1535   50.6007 H   0  0  0  0  0  0  0  0  0  0  0  0
   59.6031   33.0208   49.0244 H   0  0  0  0  0  0  0  0  0  0  0  0
   60.3736   33.8279   47.0070 H   0  0  0  0  0  0  0  0  0  0  0  0
   60.2919   33.0428   45.3874 H   0  0  0  0  0  0  0  0  0  0  0  0
   58.8805   35.5990   46.3056 H   0  0  0  0  0  0  0  0  0  0  0  0
   60.1455   35.4142   45.0230 H   0  0  0  0  0  0  0  0  0  0  0  0
   56.8056   34.8759   45.9749 H   0  0  0  0  0  0  0  0  0  0  0  0
   56.3155   34.1493   44.3962 H   0  0  0  0  0  0  0  0  0  0  0  0
   56.5120   32.4745   46.2875 H   0  0  0  0  0  0  0  0  0  0  0  0
   57.5610   32.1183   44.8703 H   0  0  0  0  0  0  0  0  0  0  0  0
  1  2  1  0
  2  3  2  0
  3  4  1  0
  4  5  2  0
  5  6  1  0
  6  7  2  0
  7  8  1  0
  8  9  1  0
  9 10  1  0
 10 11  1  0
 11 12  1  0
 11 13  2  0
 13 14  1  0
 14 15  2  0
 14 16  1  0
 16 17  1  0
 17 18  2  0
 18 19  1  0
 19 20  2  0
 20 21  1  0
 21 22  2  0
 22 23  1  0
 23 24  1  0
 24 25  1  0
 25 26  1  0
 26 27  1  0
 27 28  1  0
 13 29  1  0
 29 30  2  0
  7  2  1  0
 29  9  1  0
 22 17  1  0
 28 23  1  0
  1 31  1  0
  1 32  1  0
  1 33  1  0
  3 34  1  0
  4 35  1  0
  5 36  1  0
  6 37  1  0
  8 38  1  0
  8 39  1  0
 12 40  1  0
 12 41  1  0
 12 42  1  0
 18 43  1  0
 19 44  1  0
 20 45  1  0
 21 46  1  0
 24 47  1  0
 24 48  1  0
 25 49  1  0
 25 50  1  0
 27 51  1  0
 27 52  1  0
 28 53  1  0
 28 54  1  0
M  CHG  2  10  -1  16  -1
M  END
>  <UniqueID>  (82) 
78

>  <SMILES>  (82) 
Cc1ccccc1Cn1[n-]c(C)c(C(=O)[N-]c2ccccc2N2CCOCC2)c1=O

>  <Energy>  (82) 
104.08678993540488

>  <Genealogy>  (82) 
Cc1ccccc1Cn1[n-]c(C)c(C(=O)[N-]c2ccccc2N2CCOCC2)c1=O (protonated)
Cc1ccccc1Cn1[n-]c(C)c(C(=O)[N-]c2ccccc2N2CCOCC2)c1=O (3D coordinates assigned)
Cc1ccccc1Cn1[n-]c(C)c(C(=O)[N-]c2ccccc2N2CCOCC2)c1=O (nonaromatic ring conformer: 104.08678993540488 kcal/mol)

>  <smiles>  (82) 
Cc1ccccc1Cn1[nH]c(C)c(C(=O)Nc2ccccc2N2CCOCC2)c1=O

>  <score_type>  (82) 
oracle

>  <origin>  (82) 
adg

>  <m_score__min__energy>  (82) 
-11.75

>  <m_primary>  (82) 
energy

$$$$
82:0
     RDKit          3D

 62 65  0  0  0  0  0  0  0  0999 V2000
   58.5590   22.1880   45.3260 H   0  0  0  0  0  0  0  0  0  0  0  0
   59.4090   22.7840   45.4400 N   0  0  0  0  0  0  0  0  0  0  0  0
   59.3500   23.9530   45.9920 C   0  0  0  0  0  0  0  0  0  0  0  0
   60.4320   24.7800   45.9320 N   0  0  0  0  0  0  0  0  0  0  0  0
   60.4310   26.0140   46.5030 C   0  0  0  0  0  0  0  0  0  0  0  0
   61.3197   26.6574   46.4246 H   0  0  0  0  0  0  0  0  0  0  0  0
   59.3010   26.4640   47.1890 C   0  0  0  0  0  0  0  0  0  0  0  0
   59.2740   27.7690   47.7910 C   0  0  0  0  0  0  0  0  0  0  0  0
   59.2830   28.8610   48.3010 C   0  0  0  0  0  0  0  0  0  0  0  0
   59.3090   30.1520   48.9370 C   0  0  0  0  0  0  0  0  0  0  0  0
   58.8120   31.2820   48.2760 C   0  0  0  0  0  0  0  0  0  0  0  0
   58.3170   31.1650   46.9710 O   0  0  0  0  0  0  0  0  0  0  0  0
   59.1520   31.2080   45.8190 C   0  0  0  0  0  0  0  0  0  0  0  0
   58.6509   31.7854   45.0280 H   0  0  0  0  0  0  0  0  0  0  0  0
   60.1065   31.6859   46.0844 H   0  0  0  0  0  0  0  0  0  0  0  0
   59.4270   29.7850   45.3120 C   0  0  0  0  0  0  0  0  0  0  0  0
   60.4041   29.7825   44.8068 H   0  0  0  0  0  0  0  0  0  0  0  0
   59.3983   29.1267   46.1928 H   0  0  0  0  0  0  0  0  0  0  0  0
   58.4150   29.2680   44.3650 N   0  0  0  0  0  0  0  0  0  0  0  0
   57.3770   30.2240   43.9290 C   0  0  0  0  0  0  0  0  0  0  0  0
   57.2748   30.1566   42.8358 H   0  0  0  0  0  0  0  0  0  0  0  0
   57.6963   31.2267   44.2494 H   0  0  0  0  0  0  0  0  0  0  0  0
   56.0370   29.9570   44.5530 C   0  0  0  0  0  0  0  0  0  0  0  0
   55.1410   30.8380   44.5030 O   0  0  0  0  0  0  0  0  0  0  0  0
   55.7330   28.6790   45.1070 N   0  0  0  0  0  0  0  0  0  0  0  0
   56.7700   27.7180   45.4480 C   0  0  0  0  0  0  0  0  0  0  0  0
   56.3641   26.7009   45.3441 H   0  0  0  0  0  0  0  0  0  0  0  0
   57.0900   27.9055   46.4836 H   0  0  0  0  0  0  0  0  0  0  0  0
   57.9890   27.8650   44.5310 C   0  0  0  0  0  0  0  0  0  0  0  0
   57.7360   27.4554   43.5420 H   0  0  0  0  0  0  0  0  0  0  0  0
   58.8221   27.3195   44.9983 H   0  0  0  0  0  0  0  0  0  0  0  0
   58.8110   32.4880   48.9100 N   0  0  0  0  0  0  0  0  0  0  0  0
   59.2840   32.6500   50.1750 C   0  0  0  0  0  0  0  0  0  0  0  0
   59.2490   33.8400   50.7050 N   0  0  0  0  0  0  0  0  0  0  0  0
   58.8930   34.1560   52.0860 C   0  0  0  0  0  0  0  0  0  0  0  0
   59.5369   33.5844   52.7706 H   0  0  0  0  0  0  0  0  0  0  0  0
   59.0332   35.2325   52.2637 H   0  0  0  0  0  0  0  0  0  0  0  0
   57.8408   33.8891   52.2637 H   0  0  0  0  0  0  0  0  0  0  0  0
   59.7950   31.5310   50.8650 C   0  0  0  0  0  0  0  0  0  0  0  0
   60.1847   31.6404   51.8878 H   0  0  0  0  0  0  0  0  0  0  0  0
   59.8020   30.2840   50.2390 C   0  0  0  0  0  0  0  0  0  0  0  0
   60.1954   29.4045   50.7698 H   0  0  0  0  0  0  0  0  0  0  0  0
   58.1820   25.6340   47.2750 C   0  0  0  0  0  0  0  0  0  0  0  0
   57.2944   25.9694   47.8314 H   0  0  0  0  0  0  0  0  0  0  0  0
   58.1820   24.3780   46.6580 C   0  0  0  0  0  0  0  0  0  0  0  0
   56.7300   23.3730   46.7600 S   0  0  0  0  0  0  0  0  0  0  0  0
   55.6090   24.2090   47.3140 O   0  0  0  0  0  0  0  0  0  0  0  0
   56.9710   22.2010   47.6710 O   0  0  0  0  0  0  0  0  0  0  0  0
   56.3010   22.7900   45.1680 N   0  0  0  0  0  0  0  0  0  0  0  0
   56.9390   23.6230   44.1370 C   0  0  0  0  0  0  0  0  0  0  0  0
   56.6020   24.6640   44.2502 H   0  0  0  0  0  0  0  0  0  0  0  0
   58.0313   23.5687   44.2549 H   0  0  0  0  0  0  0  0  0  0  0  0
   56.5560   23.1120   42.7310 C   0  0  0  0  0  0  0  0  0  0  0  0
   55.8839   23.8446   42.2603 H   0  0  0  0  0  0  0  0  0  0  0  0
   57.4853   22.9879   42.1557 H   0  0  0  0  0  0  0  0  0  0  0  0
   55.9030   21.8560   42.7700 O   0  0  0  0  0  0  0  0  0  0  0  0
   56.6590   20.9440   43.5410 C   0  0  0  0  0  0  0  0  0  0  0  0
   56.1947   19.9487   43.4789 H   0  0  0  0  0  0  0  0  0  0  0  0
   57.6848   20.9153   43.1448 H   0  0  0  0  0  0  0  0  0  0  0  0
   56.7140   21.3840   45.0180 C   0  0  0  0  0  0  0  0  0  0  0  0
   56.0393   20.7464   45.6082 H   0  0  0  0  0  0  0  0  0  0  0  0
   57.7500   21.2842   45.3740 H   0  0  0  0  0  0  0  0  0  0  0  0
  1  2  1  0
  2  3  2  3
  3  4  1  0
  4  5  1  0
  5  6  1  0
  5  7  2  0
  7  8  1  0
  8  9  3  0
  9 10  1  0
 10 11  2  0
 11 12  1  0
 12 13  1  0
 13 14  1  0
 13 15  1  0
 13 16  1  0
 16 17  1  0
 16 18  1  0
 16 19  1  0
 19 20  1  0
 20 21  1  0
 20 22  1  0
 20 23  1  0
 23 24  2  0
 23 25  1  0
 25 26  1  0
 26 27  1  0
 26 28  1  0
 26 29  1  0
 29 30  1  0
 29 31  1  0
 11 32  1  0
 32 33  1  0
 33 34  2  0
 34 35  1  0
 35 36  1  0
 35 37  1  0
 35 38  1  0
 33 39  1  0
 39 40  1  0
 39 41  2  0
 41 42  1  0
  7 43  1  0
 43 44  1  0
 43 45  2  0
 45 46  1  0
 46 47  2  0
 46 48  2  0
 46 49  1  0
 49 50  1  0
 50 51  1  0
 50 52  1  0
 50 53  1  0
 53 54  1  0
 53 55  1  0
 53 56  1  0
 56 57  1  0
 57 58  1  0
 57 59  1  0
 57 60  1  0
 60 61  1  0
 60 62  1  0
 45  3  1  0
 60 49  1  0
 41 10  1  0
 29 19  1  0
M  CHG  3   4  -1  25  -1  32  -1
M  END
>  <UniqueID>  (83) 
79

>  <SMILES>  (83) 
C/N=c1\ccc(C#Cc2c[n-]c(=N)c(S(=O)(=O)N3CCOCC3)c2)c(OCCN2CC[N-]C(=O)C2)[n-]1

>  <Energy>  (83) 
75.09639635752576

>  <Genealogy>  (83) 
CN=c1ccc(C#Cc2c[n-]c(=N)c(S(=O)(=O)N3CCOCC3)c2)c(OCCN2CC[N-]C(=O)C2)[n-]1 (protonated)
C/N=c1\ccc(C#Cc2c[n-]c(=N)c(S(=O)(=O)N3CCOCC3)c2)c(OCCN2CC[N-]C(=O)C2)[n-]1 (cis-trans isomerization)
C/N=c1\ccc(C#Cc2c[n-]c(=N)c(S(=O)(=O)N3CCOCC3)c2)c(OCCN2CC[N-]C(=O)C2)[n-]1 (3D coordinates assigned)
C/N=c1\ccc(C#Cc2c[n-]c(=N)c(S(=O)(=O)N3CCOCC3)c2)c(OCCN2CC[N-]C(=O)C2)[n-]1 (nonaromatic ring conformer: 75.09639635752576 kcal/mol)

>  <smiles>  (83) 
CN=c1ccc(C#Cc2c[nH]c(=N)c(S(=O)(=O)N3CCOCC3)c2)c(OCCN2CCNC(=O)C2)[nH]1

>  <score_type>  (83) 
oracle

>  <origin>  (83) 
adg

>  <m_score__min__energy>  (83) 
-14.91

>  <m_primary>  (83) 
energy

$$$$
83:0
     RDKit          3D

 53 56  0  0  0  0  0  0  0  0999 V2000
   58.9129   33.4225   49.0680 H   0  0  0  0  0  0  0  0  0  0  0  0
   59.0310   33.6390   47.9960 C   0  0  0  0  0  0  0  0  0  0  0  0
   60.4240   34.2260   47.2560 S   0  0  0  0  0  0  0  0  0  0  0  0
   59.8110   34.2740   45.6920 C   0  0  0  0  0  0  0  0  0  0  0  0
   60.3543   34.6051   44.7947 H   0  0  0  0  0  0  0  0  0  0  0  0
   58.4940   33.8210   45.7310 C   0  0  0  0  0  0  0  0  0  0  0  0
   57.6070   33.7780   44.5160 C   0  0  0  0  0  0  0  0  0  0  0  0
   57.8232   34.6555   43.8889 H   0  0  0  0  0  0  0  0  0  0  0  0
   56.5627   33.7787   44.8615 H   0  0  0  0  0  0  0  0  0  0  0  0
   57.8210   32.5290   43.6940 C   0  0  0  0  0  0  0  0  0  0  0  0
   58.4150   32.6150   42.5850 O   0  0  0  0  0  0  0  0  0  0  0  0
   57.3780   31.2300   44.1640 N   0  0  0  0  0  0  0  0  0  0  0  0
   58.0490   30.6680   45.3520 C   0  0  0  0  0  0  0  0  0  0  0  0
   57.8747   31.3460   46.2005 H   0  0  0  0  0  0  0  0  0  0  0  0
   59.1150   30.5708   45.0985 H   0  0  0  0  0  0  0  0  0  0  0  0
   57.5630   29.2840   45.7400 C   0  0  0  0  0  0  0  0  0  0  0  0
   58.3010   28.4540   46.6120 C   0  0  0  0  0  0  0  0  0  0  0  0
   59.5550   28.8750   47.1760 N   0  0  0  0  0  0  0  0  0  0  0  0
   60.6850   29.2300   46.3210 C   0  0  0  0  0  0  0  0  0  0  0  0
   61.5477   29.5010   46.9473 H   0  0  0  0  0  0  0  0  0  0  0  0
   60.9483   28.3713   45.6859 H   0  0  0  0  0  0  0  0  0  0  0  0
   60.4099   30.0850   45.6859 H   0  0  0  0  0  0  0  0  0  0  0  0
   59.6600   29.0320   48.6260 C   0  0  0  0  0  0  0  0  0  0  0  0
   59.1146   28.2165   49.1235 H   0  0  0  0  0  0  0  0  0  0  0  0
   60.7188   28.9995   48.9226 H   0  0  0  0  0  0  0  0  0  0  0  0
   59.2256   29.9981   48.9226 H   0  0  0  0  0  0  0  0  0  0  0  0
   57.8280   27.2150   46.9130 N   0  0  0  0  0  0  0  0  0  0  0  0
   56.6430   26.7630   46.4210 C   0  0  0  0  0  0  0  0  0  0  0  0
   56.1950   25.5850   46.7370 N   0  0  0  0  0  0  0  0  0  0  0  0
   57.0120   24.3740   46.7580 C   0  0  0  0  0  0  0  0  0  0  0  0
   58.0639   24.6437   46.9334 H   0  0  0  0  0  0  0  0  0  0  0  0
   56.6657   23.7105   47.5641 H   0  0  0  0  0  0  0  0  0  0  0  0
   56.8890   23.6680   45.4390 C   0  0  0  0  0  0  0  0  0  0  0  0
   57.7130   22.5700   45.1460 C   0  0  0  0  0  0  0  0  0  0  0  0
   58.4724   22.2441   45.8720 H   0  0  0  0  0  0  0  0  0  0  0  0
   57.5700   21.8900   43.9330 C   0  0  0  0  0  0  0  0  0  0  0  0
   58.2246   21.0365   43.7025 H   0  0  0  0  0  0  0  0  0  0  0  0
   56.5980   22.2910   43.0120 C   0  0  0  0  0  0  0  0  0  0  0  0
   56.4914   21.7566   42.0565 H   0  0  0  0  0  0  0  0  0  0  0  0
   55.7620   23.3710   43.3060 C   0  0  0  0  0  0  0  0  0  0  0  0
   54.9929   23.6830   42.5841 H   0  0  0  0  0  0  0  0  0  0  0  0
   55.9020   24.0550   44.5160 C   0  0  0  0  0  0  0  0  0  0  0  0
   55.2370   24.9001   44.7475 H   0  0  0  0  0  0  0  0  0  0  0  0
   55.9130   27.5560   45.6000 N   0  0  0  0  0  0  0  0  0  0  0  0
   56.3470   28.7920   45.2420 C   0  0  0  0  0  0  0  0  0  0  0  0
   55.5030   29.6370   44.3460 C   0  0  0  0  0  0  0  0  0  0  0  0
   54.8997   30.3256   44.9558 H   0  0  0  0  0  0  0  0  0  0  0  0
   54.8411   28.9882   43.7536 H   0  0  0  0  0  0  0  0  0  0  0  0
   56.3920   30.4420   43.4040 C   0  0  0  0  0  0  0  0  0  0  0  0
   55.7651   31.1238   42.8106 H   0  0  0  0  0  0  0  0  0  0  0  0
   56.9295   29.7454   42.7438 H   0  0  0  0  0  0  0  0  0  0  0  0
   58.0560   33.4750   47.0200 C   0  0  0  0  0  0  0  0  0  0  0  0
   57.0409   33.1101   47.2354 H   0  0  0  0  0  0  0  0  0  0  0  0
  1  2  1  0
  2  3  1  0
  3  4  1  0
  4  5  1  0
  4  6  2  0
  6  7  1  0
  7  8  1  0
  7  9  1  0
  7 10  1  0
 10 11  2  0
 10 12  1  0
 12 13  1  0
 13 14  1  0
 13 15  1  0
 13 16  1  0
 16 17  1  0
 17 18  1  0
 18 19  1  0
 19 20  1  0
 19 21  1  0
 19 22  1  0
 18 23  1  0
 23 24  1  0
 23 25  1  0
 23 26  1  0
 17 27  2  0
 27 28  1  0
 28 29  2  0
 29 30  1  0
 30 31  1  0
 30 32  1  0
 30 33  1  0
 33 34  2  0
 34 35  1  0
 34 36  1  0
 36 37  1  0
 36 38  2  0
 38 39  1  0
 38 40  1  0
 40 41  1  0
 40 42  2  0
 42 43  1  0
 28 44  1  0
 44 45  1  0
 45 46  1  0
 46 47  1  0
 46 48  1  0
 46 49  1  0
 49 50  1  0
 49 51  1  0
  6 52  1  0
 52 53  1  0
 52  2  2  0
 49 12  1  0
 45 16  2  0
 42 33  1  0
M  CHG  1  44  -1
M  END
>  <UniqueID>  (84) 
80

>  <SMILES>  (84) 
CN(C)c1n/c(=N\Cc2ccccc2)[n-]c2c1CN(C(=O)Cc1ccsc1)CC2

>  <Energy>  (84) 
87.00470980309825

>  <Genealogy>  (84) 
CN(C)c1nc(=NCc2ccccc2)[n-]c2c1CN(C(=O)Cc1ccsc1)CC2 (protonated)
CN(C)c1n/c(=N\Cc2ccccc2)[n-]c2c1CN(C(=O)Cc1ccsc1)CC2 (cis-trans isomerization)
CN(C)c1n/c(=N\Cc2ccccc2)[n-]c2c1CN(C(=O)Cc1ccsc1)CC2 (3D coordinates assigned)
CN(C)c1n/c(=N\Cc2ccccc2)[n-]c2c1CN(C(=O)Cc1ccsc1)CC2 (nonaromatic ring conformer: 87.00470980309825 kcal/mol)

>  <smiles>  (84) 
CN(C)c1nc(=NCc2ccccc2)[nH]c2c1CN(C(=O)Cc1ccsc1)CC2

>  <score_type>  (84) 
oracle

>  <origin>  (84) 
adg

>  <m_score__min__energy>  (84) 
-10.41

>  <m_primary>  (84) 
energy

$$$$
84:0
     RDKit          3D

 60 63  0  0  0  0  0  0  0  0999 V2000
   57.4370   28.5470   44.6560 C   0  0  0  0  0  0  0  0  0  0  0  0
   58.2620   29.6300   44.1250 N   0  0  0  0  0  0  0  0  0  0  0  0
   57.3310   31.0940   44.0490 S   0  0  0  0  0  0  0  0  0  0  0  0
   56.0340   30.8930   44.7810 O   0  0  0  0  0  0  0  0  0  0  0  0
   57.0210   31.4230   42.6150 O   0  0  0  0  0  0  0  0  0  0  0  0
   58.2130   32.4230   44.8000 C   0  0  0  0  0  0  0  0  0  0  0  0
   57.8860   33.7520   44.5020 C   0  0  0  0  0  0  0  0  0  0  0  0
   58.5990   34.7980   45.0900 C   0  0  0  0  0  0  0  0  0  0  0  0
   59.6450   34.5250   45.9750 C   0  0  0  0  0  0  0  0  0  0  0  0
   59.9920   33.1970   46.2800 C   0  0  0  0  0  0  0  0  0  0  0  0
   61.1080   32.9040   47.2160 C   0  0  0  0  0  0  0  0  0  0  0  0
   62.4390   33.1630   46.8440 C   0  0  0  0  0  0  0  0  0  0  0  0
   63.4880   32.8880   47.7250 C   0  0  0  0  0  0  0  0  0  0  0  0
   63.2310   32.3470   48.9970 C   0  0  0  0  0  0  0  0  0  0  0  0
   64.3140   32.0570   49.9050 N   0  0  0  0  0  0  0  0  0  0  0  0
   65.5950   32.7620   49.7450 C   0  0  0  0  0  0  0  0  0  0  0  0
   66.5390   32.4500   50.9050 C   0  0  0  0  0  0  0  0  0  0  0  0
   66.5890   30.9920   51.0960 N   0  0  0  0  0  0  0  0  0  0  0  0
   67.7100   30.5400   51.9480 C   0  0  0  0  0  0  0  0  0  0  0  0
   67.4900   29.1540   52.5880 C   0  0  0  0  0  0  0  0  0  0  0  0
   67.7860   28.0640   51.5920 C   0  0  0  0  0  0  0  0  0  0  0  0
   66.7590   27.2170   51.1410 C   0  0  0  0  0  0  0  0  0  0  0  0
   67.0430   26.1830   50.2430 C   0  0  0  0  0  0  0  0  0  0  0  0
   68.3520   25.9800   49.8000 C   0  0  0  0  0  0  0  0  0  0  0  0
   69.3820   26.8080   50.2550 C   0  0  0  0  0  0  0  0  0  0  0  0
   69.1020   27.8440   51.1520 C   0  0  0  0  0  0  0  0  0  0  0  0
   65.2890   30.3810   51.4650 C   0  0  0  0  0  0  0  0  0  0  0  0
   64.0710   31.2590   51.1150 C   0  0  0  0  0  0  0  0  0  0  0  0
   61.9010   32.0860   49.3670 C   0  0  0  0  0  0  0  0  0  0  0  0
   60.8520   32.3630   48.4870 C   0  0  0  0  0  0  0  0  0  0  0  0
   59.2670   32.1480   45.6820 C   0  0  0  0  0  0  0  0  0  0  0  0
   57.4584   28.5750   45.7554 H   0  0  0  0  0  0  0  0  0  0  0  0
   56.4014   28.6696   44.3061 H   0  0  0  0  0  0  0  0  0  0  0  0
   57.8303   27.5811   44.3061 H   0  0  0  0  0  0  0  0  0  0  0  0
   58.5240   29.3800   43.1430 H   0  0  0  0  0  0  0  0  0  0  0  0
   57.0655   33.9718   43.8031 H   0  0  0  0  0  0  0  0  0  0  0  0
   58.3366   35.8403   44.8559 H   0  0  0  0  0  0  0  0  0  0  0  0
   60.2009   35.3546   46.4363 H   0  0  0  0  0  0  0  0  0  0  0  0
   62.6561   33.5854   45.8518 H   0  0  0  0  0  0  0  0  0  0  0  0
   64.5243   33.0966   47.4207 H   0  0  0  0  0  0  0  0  0  0  0  0
   66.0654   32.4444   48.8027 H   0  0  0  0  0  0  0  0  0  0  0  0
   65.4005   33.8446   49.7322 H   0  0  0  0  0  0  0  0  0  0  0  0
   67.5461   32.8274   50.6740 H   0  0  0  0  0  0  0  0  0  0  0  0
   66.1763   32.9352   51.8232 H   0  0  0  0  0  0  0  0  0  0  0  0
   68.6187   30.4956   51.3297 H   0  0  0  0  0  0  0  0  0  0  0  0
   67.7951   31.2625   52.7731 H   0  0  0  0  0  0  0  0  0  0  0  0
   68.1585   29.0446   53.4547 H   0  0  0  0  0  0  0  0  0  0  0  0
   66.4408   29.0706   52.9076 H   0  0  0  0  0  0  0  0  0  0  0  0
   65.7286   27.3678   51.4954 H   0  0  0  0  0  0  0  0  0  0  0  0
   66.2344   25.5288   49.8851 H   0  0  0  0  0  0  0  0  0  0  0  0
   68.5725   25.1674   49.0921 H   0  0  0  0  0  0  0  0  0  0  0  0
   70.4129   26.6449   49.9076 H   0  0  0  0  0  0  0  0  0  0  0  0
   69.9157   28.4893   51.5145 H   0  0  0  0  0  0  0  0  0  0  0  0
   65.1915   29.4234   50.9325 H   0  0  0  0  0  0  0  0  0  0  0  0
   65.2914   30.2547   52.5577 H   0  0  0  0  0  0  0  0  0  0  0  0
   63.1989   30.6101   50.9464 H   0  0  0  0  0  0  0  0  0  0  0  0
   63.8893   31.9481   51.9529 H   0  0  0  0  0  0  0  0  0  0  0  0
   61.6839   31.6601   50.3577 H   0  0  0  0  0  0  0  0  0  0  0  0
   59.8157   32.1555   48.7921 H   0  0  0  0  0  0  0  0  0  0  0  0
   59.5301   31.1043   45.9090 H   0  0  0  0  0  0  0  0  0  0  0  0
  1  2  1  0
  2  3  1  0
  3  4  2  0
  3  5  2  0
  3  6  1  0
  6  7  2  0
  7  8  1  0
  8  9  2  0
  9 10  1  0
 10 11  1  0
 11 12  2  0
 12 13  1  0
 13 14  2  0
 14 15  1  0
 15 16  1  0
 16 17  1  0
 17 18  1  0
 18 19  1  0
 19 20  1  0
 20 21  1  0
 21 22  2  0
 22 23  1  0
 23 24  2  0
 24 25  1  0
 25 26  2  0
 18 27  1  0
 27 28  1  0
 14 29  1  0
 29 30  2  0
 10 31  2  0
 31  6  1  0
 30 11  1  0
 28 15  1  0
 26 21  1  0
  1 32  1  0
  1 33  1  0
  1 34  1  0
  2 35  1  0
  7 36  1  0
  8 37  1  0
  9 38  1  0
 12 39  1  0
 13 40  1  0
 16 41  1  0
 16 42  1  0
 17 43  1  0
 17 44  1  0
 19 45  1  0
 19 46  1  0
 20 47  1  0
 20 48  1  0
 22 49  1  0
 23 50  1  0
 24 51  1  0
 25 52  1  0
 26 53  1  0
 27 54  1  0
 27 55  1  0
 28 56  1  0
 28 57  1  0
 29 58  1  0
 30 59  1  0
 31 60  1  0
M  END
>  <UniqueID>  (85) 
81

>  <SMILES>  (85) 
CNS(=O)(=O)c1cccc(-c2ccc(N3CCN(CCc4ccccc4)CC3)cc2)c1

>  <Energy>  (85) 
75.8275750600669

>  <Genealogy>  (85) 
CNS(=O)(=O)c1cccc(-c2ccc(N3CCN(CCc4ccccc4)CC3)cc2)c1 (3D coordinates assigned)
CNS(=O)(=O)c1cccc(-c2ccc(N3CCN(CCc4ccccc4)CC3)cc2)c1 (nonaromatic ring conformer: 75.8275750600669 kcal/mol)

>  <smiles>  (85) 
CNS(=O)(=O)c1cccc(-c2ccc(N3CCN(CCc4ccccc4)CC3)cc2)c1

>  <score_type>  (85) 
oracle

>  <origin>  (85) 
adg

>  <m_score__min__energy>  (85) 
-10.02

>  <m_primary>  (85) 
energy

$$$$
85:0
     RDKit          3D

 64 67  0  0  0  0  0  0  0  0999 V2000
   57.0530   30.4280   51.6200 O   0  0  0  0  0  0  0  0  0  0  0  0
   58.0200   30.8850   50.9500 C   0  0  0  0  0  0  0  0  0  0  0  0
   58.2760   32.3710   50.9560 C   0  0  0  0  0  0  0  0  0  0  0  0
   59.7010   32.6590   51.0920 N   0  0  0  0  0  0  0  0  0  0  0  0
   60.4920   33.2200   50.0390 C   0  0  0  0  0  0  0  0  0  0  0  0
   60.2690   34.3950   49.6350 O   0  0  0  0  0  0  0  0  0  0  0  0
   61.6210   32.4090   49.4520 C   0  0  2  0  0  0  0  0  0  0  0  0
   62.9350   32.6450   50.1840 C   0  0  0  0  0  0  0  0  0  0  0  0
   64.0070   32.3840   49.1320 C   0  0  0  0  0  0  0  0  0  0  0  0
   63.2650   32.2900   47.7970 C   0  0  0  0  0  0  0  0  0  0  0  0
   61.8860   32.7370   48.0400 N   0  0  1  0  0  0  0  0  0  0  0  0
   60.9480   32.1100   47.1270 C   0  0  0  0  0  0  0  0  0  0  0  0
   61.1370   30.9170   46.7500 O   0  0  0  0  0  0  0  0  0  0  0  0
   59.7710   32.8470   46.5960 C   0  0  0  0  0  0  0  0  0  0  0  0
   58.4780   32.5190   47.0460 C   0  0  0  0  0  0  0  0  0  0  0  0
   57.3600   33.1990   46.5500 C   0  0  0  0  0  0  0  0  0  0  0  0
   57.5200   34.2060   45.5960 C   0  0  0  0  0  0  0  0  0  0  0  0
   58.7960   34.5320   45.1320 C   0  0  0  0  0  0  0  0  0  0  0  0
   59.9170   33.8560   45.6240 C   0  0  0  0  0  0  0  0  0  0  0  0
   58.8940   29.9480   50.2010 C   0  0  0  0  0  0  0  0  0  0  0  0
   60.1140   29.5270   50.7580 C   0  0  0  0  0  0  0  0  0  0  0  0
   60.9320   28.6240   50.0740 C   0  0  0  0  0  0  0  0  0  0  0  0
   60.5400   28.1250   48.8320 C   0  0  0  0  0  0  0  0  0  0  0  0
   59.3350   28.5320   48.2510 C   0  0  0  0  0  0  0  0  0  0  0  0
   58.9800   27.9850   47.0060 O   0  0  0  0  0  0  0  0  0  0  0  0
   59.8780   27.7220   45.9250 C   0  0  0  0  0  0  0  0  0  0  0  0
   59.8170   28.8110   44.8880 C   0  0  0  0  0  0  0  0  0  0  0  0
   60.8970   29.2620   44.4190 O   0  0  0  0  0  0  0  0  0  0  0  0
   58.5640   29.3720   44.4540 N   0  0  0  0  0  0  0  0  0  0  0  0
   58.5350   30.7670   43.9970 C   0  0  0  0  0  0  0  0  0  0  0  0
   57.0930   31.2400   43.8160 C   0  0  0  0  0  0  0  0  0  0  0  0
   56.2990   30.7190   44.8600 O   0  0  0  0  0  0  0  0  0  0  0  0
   56.0820   29.3300   44.6660 C   0  0  0  0  0  0  0  0  0  0  0  0
   57.3620   28.5410   44.2970 C   0  0  0  0  0  0  0  0  0  0  0  0
   58.5220   29.4600   48.9320 C   0  0  0  0  0  0  0  0  0  0  0  0
   57.9109   32.8021   50.0121 H   0  0  0  0  0  0  0  0  0  0  0  0
   57.7472   32.8129   51.8134 H   0  0  0  0  0  0  0  0  0  0  0  0
   61.2852   31.3663   49.5527 H   0  0  0  0  0  0  0  0  0  0  0  0
   62.9949   33.6797   50.5525 H   0  0  0  0  0  0  0  0  0  0  0  0
   63.0461   31.9968   51.0658 H   0  0  0  0  0  0  0  0  0  0  0  0
   64.7320   33.2110   49.1102 H   0  0  0  0  0  0  0  0  0  0  0  0
   64.5714   31.4648   49.3477 H   0  0  0  0  0  0  0  0  0  0  0  0
   63.7465   32.9388   47.0506 H   0  0  0  0  0  0  0  0  0  0  0  0
   63.2817   31.2605   47.4100 H   0  0  0  0  0  0  0  0  0  0  0  0
   61.8650   33.7780   47.9260 H   0  0  0  0  0  0  0  0  0  0  0  0
   58.3455   31.7224   47.7929 H   0  0  0  0  0  0  0  0  0  0  0  0
   56.3541   32.9400   46.9120 H   0  0  0  0  0  0  0  0  0  0  0  0
   56.6407   34.7425   45.2100 H   0  0  0  0  0  0  0  0  0  0  0  0
   58.9198   35.3227   44.3774 H   0  0  0  0  0  0  0  0  0  0  0  0
   60.9187   34.1137   45.2497 H   0  0  0  0  0  0  0  0  0  0  0  0
   60.4272   29.9114   51.7399 H   0  0  0  0  0  0  0  0  0  0  0  0
   61.8876   28.3058   50.5162 H   0  0  0  0  0  0  0  0  0  0  0  0
   61.1840   27.4054   48.3052 H   0  0  0  0  0  0  0  0  0  0  0  0
   60.9034   27.6582   46.3181 H   0  0  0  0  0  0  0  0  0  0  0  0
   59.5838   26.7738   45.4513 H   0  0  0  0  0  0  0  0  0  0  0  0
   59.0338   31.4030   44.7431 H   0  0  0  0  0  0  0  0  0  0  0  0
   59.0565   30.8363   43.0310 H   0  0  0  0  0  0  0  0  0  0  0  0
   57.0603   32.3392   43.8424 H   0  0  0  0  0  0  0  0  0  0  0  0
   56.7075   30.8881   42.8477 H   0  0  0  0  0  0  0  0  0  0  0  0
   55.6724   28.9101   45.5965 H   0  0  0  0  0  0  0  0  0  0  0  0
   55.3895   29.2303   43.8172 H   0  0  0  0  0  0  0  0  0  0  0  0
   57.4444   27.6634   44.9550 H   0  0  0  0  0  0  0  0  0  0  0  0
   57.2883   28.2316   43.2440 H   0  0  0  0  0  0  0  0  0  0  0  0
   57.5870   29.8073   48.4682 H   0  0  0  0  0  0  0  0  0  0  0  0
  1  2  2  0
  2  3  1  0
  3  4  1  0
  4  5  1  0
  5  6  2  0
  5  7  1  0
  7  8  1  0
  8  9  1  0
  9 10  1  0
 10 11  1  0
 11 12  1  0
 12 13  2  0
 12 14  1  0
 14 15  2  0
 15 16  1  0
 16 17  2  0
 17 18  1  0
 18 19  2  0
  2 20  1  0
 20 21  2  0
 21 22  1  0
 22 23  2  0
 23 24  1  0
 24 25  1  0
 25 26  1  0
 26 27  1  0
 27 28  2  0
 27 29  1  0
 29 30  1  0
 30 31  1  0
 31 32  1  0
 32 33  1  0
 33 34  1  0
 24 35  2  0
 11  7  1  0
 19 14  1  0
 35 20  1  0
 34 29  1  0
  3 36  1  0
  3 37  1  0
  7 38  1  6
  8 39  1  0
  8 40  1  0
  9 41  1  0
  9 42  1  0
 10 43  1  0
 10 44  1  0
 11 45  1  1
 15 46  1  0
 16 47  1  0
 17 48  1  0
 18 49  1  0
 19 50  1  0
 21 51  1  0
 22 52  1  0
 23 53  1  0
 26 54  1  0
 26 55  1  0
 30 56  1  0
 30 57  1  0
 31 58  1  0
 31 59  1  0
 33 60  1  0
 33 61  1  0
 34 62  1  0
 34 63  1  0
 35 64  1  0
M  CHG  2   4  -1  11   1
M  END
>  <UniqueID>  (86) 
82

>  <SMILES>  (86) 
O=C(C[N-]C(=O)[C@@H]1CCC[N@H+]1C(=O)c1ccccc1)c1cccc(OCC(=O)N2CCOCC2)c1

>  <Energy>  (86) 
80.60441958460409

>  <Genealogy>  (86) 
O=C(C[N-]C(=O)C1CCC[NH+]1C(=O)c1ccccc1)c1cccc(OCC(=O)N2CCOCC2)c1 (protonated)
O=C(C[N-]C(=O)[C@@H]1CCC[N@H+]1C(=O)c1ccccc1)c1cccc(OCC(=O)N2CCOCC2)c1 (chirality)
O=C(C[N-]C(=O)[C@@H]1CCC[N@H+]1C(=O)c1ccccc1)c1cccc(OCC(=O)N2CCOCC2)c1 (3D coordinates assigned)
O=C(C[N-]C(=O)[C@@H]1CCC[N@H+]1C(=O)c1ccccc1)c1cccc(OCC(=O)N2CCOCC2)c1 (nonaromatic ring conformer: 80.60441958460409 kcal/mol)

>  <smiles>  (86) 
O=C(CNC(=O)C1CCCN1C(=O)c1ccccc1)c1cccc(OCC(=O)N2CCOCC2)c1

>  <score_type>  (86) 
oracle

>  <origin>  (86) 
adg

>  <m_score__min__energy>  (86) 
-10.359999999999999

>  <m_primary>  (86) 
energy

$$$$
86:0
     RDKit          3D

 70 74  0  0  0  0  0  0  0  0999 V2000
   69.0650   33.9580   50.7350 C   0  0  0  0  0  0  0  0  0  0  0  0
   67.6070   33.8220   50.6090 N   0  0  0  0  0  0  0  0  0  0  0  0
   67.2160   32.4020   50.6810 C   0  0  0  0  0  0  0  0  0  0  0  0
   65.7020   32.2470   50.4330 C   0  0  0  0  0  0  0  0  0  0  0  0
   65.0000   33.5450   50.5160 N   0  0  0  0  0  0  0  0  0  0  0  0
   63.5350   33.3470   50.4880 C   0  0  0  0  0  0  0  0  0  0  0  0
   63.0200   33.4970   49.0820 C   0  0  0  0  0  0  0  0  0  0  0  0
   63.9170   33.4620   48.0030 C   0  0  0  0  0  0  0  0  0  0  0  0
   63.4510   33.6170   46.6950 C   0  0  0  0  0  0  0  0  0  0  0  0
   62.0920   33.8250   46.4550 C   0  0  0  0  0  0  0  0  0  0  0  0
   61.1850   33.8940   47.5290 C   0  0  0  0  0  0  0  0  0  0  0  0
   59.7780   34.0860   47.3130 N   0  0  0  0  0  0  0  0  0  0  0  0
   59.0210   33.3810   46.5240 C   0  0  0  0  0  0  0  0  0  0  0  0
   59.3490   32.0880   46.2730 N   0  0  0  0  0  0  0  0  0  0  0  0
   58.5700   31.2940   45.4880 C   0  0  0  0  0  0  0  0  0  0  0  0
   57.3920   31.8190   44.9300 C   0  0  0  0  0  0  0  0  0  0  0  0
   57.0780   33.1580   45.1870 C   0  0  0  0  0  0  0  0  0  0  0  0
   57.8880   33.9040   45.9800 N   0  0  0  0  0  0  0  0  0  0  0  0
   56.5360   30.9960   44.0040 C   0  0  0  0  0  0  0  0  0  0  0  0
   56.7240   29.4970   44.2510 C   0  0  0  0  0  0  0  0  0  0  0  0
   58.2120   29.1330   44.2370 C   0  0  0  0  0  0  0  0  0  0  0  0
   58.9470   29.9250   45.2300 N   0  0  0  0  0  0  0  0  0  0  0  0
   60.2070   29.4240   45.6990 C   0  0  0  0  0  0  0  0  0  0  0  0
   61.0010   30.1970   46.2930 O   0  0  0  0  0  0  0  0  0  0  0  0
   60.5840   28.0590   45.4940 N   0  0  0  0  0  0  0  0  0  0  0  0
   60.3890   27.0050   46.4830 C   0  0  0  0  0  0  0  0  0  0  0  0
   59.0440   26.3740   46.2720 C   0  0  0  0  0  0  0  0  0  0  0  0
   58.2850   25.9540   47.3760 C   0  0  0  0  0  0  0  0  0  0  0  0
   57.0550   25.3190   47.1850 C   0  0  0  0  0  0  0  0  0  0  0  0
   56.5710   25.0900   45.8890 C   0  0  0  0  0  0  0  0  0  0  0  0
   55.0220   24.2840   45.6610 S   0  0  0  0  0  0  0  0  0  0  0  0
   53.7500   25.4520   45.6960 N   0  0  0  0  0  0  0  0  0  0  0  0
   54.8140   23.2780   46.7600 O   0  0  0  0  0  0  0  0  0  0  0  0
   55.0010   23.5670   44.3410 O   0  0  0  0  0  0  0  0  0  0  0  0
   57.3260   25.5130   44.7850 C   0  0  0  0  0  0  0  0  0  0  0  0
   58.5580   26.1450   44.9760 C   0  0  0  0  0  0  0  0  0  0  0  0
   61.6520   33.7030   48.8370 C   0  0  0  0  0  0  0  0  0  0  0  0
   65.4190   34.2740   51.7280 C   0  0  0  0  0  0  0  0  0  0  0  0
   66.9250   34.5980   51.6660 C   0  0  0  0  0  0  0  0  0  0  0  0
   69.3402   33.9837   51.7997 H   0  0  0  0  0  0  0  0  0  0  0  0
   69.5564   33.1018   50.2498 H   0  0  0  0  0  0  0  0  0  0  0  0
   69.3896   34.8903   50.2498 H   0  0  0  0  0  0  0  0  0  0  0  0
   67.7681   31.8350   49.9170 H   0  0  0  0  0  0  0  0  0  0  0  0
   67.4541   32.0172   51.6836 H   0  0  0  0  0  0  0  0  0  0  0  0
   65.5465   31.8208   49.4309 H   0  0  0  0  0  0  0  0  0  0  0  0
   65.2927   31.5849   51.2102 H   0  0  0  0  0  0  0  0  0  0  0  0
   63.2970   32.3385   50.8570 H   0  0  0  0  0  0  0  0  0  0  0  0
   63.0571   34.1024   51.1291 H   0  0  0  0  0  0  0  0  0  0  0  0
   64.9909   33.3120   48.1879 H   0  0  0  0  0  0  0  0  0  0  0  0
   64.1569   33.5750   45.8524 H   0  0  0  0  0  0  0  0  0  0  0  0
   61.7284   33.9354   45.4227 H   0  0  0  0  0  0  0  0  0  0  0  0
   56.1750   33.6058   44.7465 H   0  0  0  0  0  0  0  0  0  0  0  0
   55.4798   31.2557   44.1682 H   0  0  0  0  0  0  0  0  0  0  0  0
   56.8367   31.2158   42.9690 H   0  0  0  0  0  0  0  0  0  0  0  0
   56.2965   29.2351   45.2301 H   0  0  0  0  0  0  0  0  0  0  0  0
   56.2137   28.9383   43.4526 H   0  0  0  0  0  0  0  0  0  0  0  0
   58.3249   28.0643   44.4716 H   0  0  0  0  0  0  0  0  0  0  0  0
   58.6204   29.3487   43.2387 H   0  0  0  0  0  0  0  0  0  0  0  0
   61.1747   26.2436   46.3692 H   0  0  0  0  0  0  0  0  0  0  0  0
   60.4421   27.4330   47.4949 H   0  0  0  0  0  0  0  0  0  0  0  0
   58.6602   26.1256   48.3957 H   0  0  0  0  0  0  0  0  0  0  0  0
   56.4638   24.9974   48.0551 H   0  0  0  0  0  0  0  0  0  0  0  0
   54.1340   26.3340   45.2890 H   0  0  0  0  0  0  0  0  0  0  0  0
   56.9473   25.3468   43.7657 H   0  0  0  0  0  0  0  0  0  0  0  0
   59.1497   26.4645   44.1055 H   0  0  0  0  0  0  0  0  0  0  0  0
   60.9423   33.7145   49.6774 H   0  0  0  0  0  0  0  0  0  0  0  0
   64.8491   35.2120   51.8021 H   0  0  0  0  0  0  0  0  0  0  0  0
   65.2253   33.6438   52.6085 H   0  0  0  0  0  0  0  0  0  0  0  0
   67.0508   35.6709   51.4583 H   0  0  0  0  0  0  0  0  0  0  0  0
   67.3742   34.3290   52.6334 H   0  0  0  0  0  0  0  0  0  0  0  0
  1  2  1  0
  2  3  1  0
  3  4  1  0
  4  5  1  0
  5  6  1  0
  6  7  1  0
  7  8  2  0
  8  9  1  0
  9 10  2  0
 10 11  1  0
 11 12  1  0
 12 13  2  3
 13 14  1  0
 14 15  2  0
 15 16  1  0
 16 17  2  0
 17 18  1  0
 16 19  1  0
 19 20  1  0
 20 21  1  0
 21 22  1  0
 22 23  1  0
 23 24  2  0
 23 25  1  0
 25 26  1  0
 26 27  1  0
 27 28  2  0
 28 29  1  0
 29 30  2  0
 30 31  1  0
 31 32  1  0
 31 33  2  0
 31 34  2  0
 30 35  1  0
 35 36  2  0
 11 37  2  0
  5 38  1  0
 38 39  1  0
 39  2  1  0
 37  7  1  0
 18 13  1  0
 36 27  1  0
 22 15  1  0
  1 40  1  0
  1 41  1  0
  1 42  1  0
  3 43  1  0
  3 44  1  0
  4 45  1  0
  4 46  1  0
  6 47  1  0
  6 48  1  0
  8 49  1  0
  9 50  1  0
 10 51  1  0
 17 52  1  0
 19 53  1  0
 19 54  1  0
 20 55  1  0
 20 56  1  0
 21 57  1  0
 21 58  1  0
 26 59  1  0
 26 60  1  0
 28 61  1  0
 29 62  1  0
 32 63  1  0
 35 64  1  0
 36 65  1  0
 37 66  1  0
 38 67  1  0
 38 68  1  0
 39 69  1  0
 39 70  1  0
M  CHG  3  18  -1  25  -1  32  -1
M  END
>  <UniqueID>  (87) 
83

>  <SMILES>  (87) 
CN1CCN(Cc2cccc(N=c3nc4c(c[n-]3)CCCN4C(=O)[N-]Cc3ccc(S([NH-])(=O)=O)cc3)c2)CC1

>  <Energy>  (87) 
90.71017723893827

>  <Genealogy>  (87) 
CN1CCN(Cc2cccc(N=c3nc4c(c[n-]3)CCCN4C(=O)[N-]Cc3ccc(S([NH-])(=O)=O)cc3)c2)CC1 (protonated)
CN1CCN(Cc2cccc(N=c3nc4c(c[n-]3)CCCN4C(=O)[N-]Cc3ccc(S([NH-])(=O)=O)cc3)c2)CC1 (3D coordinates assigned)
CN1CCN(Cc2cccc(N=c3nc4c(c[n-]3)CCCN4C(=O)[N-]Cc3ccc(S([NH-])(=O)=O)cc3)c2)CC1 (nonaromatic ring conformer: 90.71017723893827 kcal/mol)

>  <smiles>  (87) 
CN1CCN(Cc2cccc(N=c3nc4c(c[nH]3)CCCN4C(=O)NCc3ccc(S(N)(=O)=O)cc3)c2)CC1

>  <score_type>  (87) 
oracle

>  <origin>  (87) 
adg

>  <m_score__min__energy>  (87) 
-14.77

>  <m_primary>  (87) 
energy

$$$$
