0:0
     RDKit          3D

 47 50  0  0  0  0  0  0  0  0999 V2000
   60.1563   35.1195   46.0372 H   0  0  0  0  0  0  0  0  0  0  0  0
   59.4670   34.2910   45.8170 C   0  0  0  0  0  0  0  0  0  0  0  0
   58.3590   34.5050   44.9960 C   0  0  0  0  0  0  0  0  0  0  0  0
   58.1671   35.5062   44.5827 H   0  0  0  0  0  0  0  0  0  0  0  0
   57.4930   33.4500   44.6980 C   0  0  0  0  0  0  0  0  0  0  0  0
   56.6255   33.6223   44.0440 H   0  0  0  0  0  0  0  0  0  0  0  0
   57.7250   32.1660   45.2310 C   0  0  0  0  0  0  0  0  0  0  0  0
   56.9070   31.0710   44.9060 O   0  0  0  0  0  0  0  0  0  0  0  0
   56.9820   30.3370   43.6890 C   0  0  0  0  0  0  0  0  0  0  0  0
   57.0915   29.2657   43.9131 H   0  0  0  0  0  0  0  0  0  0  0  0
   56.0628   30.4977   43.1066 H   0  0  0  0  0  0  0  0  0  0  0  0
   57.8497   30.6803   43.1066 H   0  0  0  0  0  0  0  0  0  0  0  0
   58.8190   31.9690   46.0980 C   0  0  0  0  0  0  0  0  0  0  0  0
   59.0890   30.6840   46.6820 N   0  0  0  0  0  0  0  0  0  0  0  0
   59.7800   29.7570   46.1360 N   0  0  0  0  0  0  0  0  0  0  0  0
   59.5310   28.3490   46.2750 C   0  0  0  0  0  0  0  0  0  0  0  0
   59.5330   27.6160   47.4520 C   0  0  0  0  0  0  0  0  0  0  0  0
   59.9770   28.0550   48.7950 C   0  0  0  0  0  0  0  0  0  0  0  0
   59.5490   29.2900   49.3050 C   0  0  0  0  0  0  0  0  0  0  0  0
   58.8924   29.9341   48.7017 H   0  0  0  0  0  0  0  0  0  0  0  0
   59.9530   29.7040   50.5740 C   0  0  0  0  0  0  0  0  0  0  0  0
   59.6250   30.6757   50.9717 H   0  0  0  0  0  0  0  0  0  0  0  0
   60.7770   28.8740   51.3340 C   0  0  0  0  0  0  0  0  0  0  0  0
   61.1048   29.1932   52.3343 H   0  0  0  0  0  0  0  0  0  0  0  0
   61.1760   27.6710   50.8410 N   0  0  0  0  0  0  0  0  0  0  0  0
   61.7830   27.0550   51.4270 H   0  0  0  0  0  0  0  0  0  0  0  0
   60.7960   27.2460   49.6040 C   0  0  0  0  0  0  0  0  0  0  0  0
   61.1311   26.2652   49.2356 H   0  0  0  0  0  0  0  0  0  0  0  0
   59.0480   26.3790   47.1990 N   0  0  0  0  0  0  0  0  0  0  0  0
   58.7320   26.3070   45.9130 N   0  0  0  0  0  0  0  0  0  0  0  0
   58.1660   25.1330   45.2990 C   0  0  0  0  0  0  0  0  0  0  0  0
   57.0270   25.2500   44.4860 C   0  0  0  0  0  0  0  0  0  0  0  0
   56.5788   26.2397   44.3143 H   0  0  0  0  0  0  0  0  0  0  0  0
   56.4580   24.1190   43.8930 C   0  0  0  0  0  0  0  0  0  0  0  0
   55.5709   24.2275   43.2517 H   0  0  0  0  0  0  0  0  0  0  0  0
   57.0090   22.8460   44.1090 C   0  0  0  0  0  0  0  0  0  0  0  0
   56.4210   21.6830   43.4980 N   0  0  0  0  0  0  0  0  0  0  0  0
   56.2640   21.6230   42.2610 O   0  0  0  0  0  0  0  0  0  0  0  0
   56.0180   20.6160   44.2700 O   0  0  0  0  0  0  0  0  0  0  0  0
   58.1400   22.7270   44.9380 C   0  0  0  0  0  0  0  0  0  0  0  0
   58.5797   21.7357   45.1224 H   0  0  0  0  0  0  0  0  0  0  0  0
   58.7090   23.8590   45.5290 C   0  0  0  0  0  0  0  0  0  0  0  0
   59.5894   23.7506   46.1795 H   0  0  0  0  0  0  0  0  0  0  0  0
   58.9850   27.5010   45.3370 C   0  0  0  0  0  0  0  0  0  0  0  0
   58.6760   27.8070   44.1550 O   0  0  0  0  0  0  0  0  0  0  0  0
   59.7010   33.0260   46.3590 C   0  0  0  0  0  0  0  0  0  0  0  0
   60.5829   32.8580   46.9947 H   0  0  0  0  0  0  0  0  0  0  0  0
  1  2  1  0
  2  3  2  0
  3  4  1  0
  3  5  1  0
  5  6  1  0
  5  7  2  0
  7  8  1  0
  8  9  1  0
  9 10  1  0
  9 11  1  0
  9 12  1  0
  7 13  1  0
 13 14  1  0
 14 15  2  0
 15 16  1  0
 16 17  2  0
 17 18  1  0
 18 19  2  0
 19 20  1  0
 19 21  1  0
 21 22  1  0
 21 23  2  0
 23 24  1  0
 23 25  1  0
 25 26  1  0
 25 27  2  0
 27 28  1  0
 17 29  1  0
 29 30  1  0
 30 31  1  0
 31 32  2  0
 32 33  1  0
 32 34  1  0
 34 35  1  0
 34 36  2  0
 36 37  1  0
 37 38  2  0
 37 39  1  0
 36 40  1  0
 40 41  1  0
 40 42  2  0
 42 43  1  0
 30 44  1  0
 44 45  2  0
 13 46  2  0
 46 47  1  0
 46  2  1  0
 44 16  1  0
 27 18  1  0
 42 31  1  0
M  CHG  4  25   1  29  -1  37   1  39  -1
M  END
>  <UniqueID>  (1) 
1

>  <SMILES>  (1) 
COc1ccccc1/N=N\c1c(-c2ccc[nH+]c2)[n-]n(-c2ccc([N+](=O)[O-])cc2)c1=O

>  <Energy>  (1) 
105.57846062403608

>  <Genealogy>  (1) 
COc1ccccc1N=Nc1c(-c2ccc[nH+]c2)[n-]n(-c2ccc([N+](=O)[O-])cc2)c1=O (protonated)
COc1ccccc1/N=N\c1c(-c2ccc[nH+]c2)[n-]n(-c2ccc([N+](=O)[O-])cc2)c1=O (cis-trans isomerization)
COc1ccccc1/N=N\c1c(-c2ccc[nH+]c2)[n-]n(-c2ccc([N+](=O)[O-])cc2)c1=O (3D coordinates assigned)
COc1ccccc1/N=N\c1c(-c2ccc[nH+]c2)[n-]n(-c2ccc([N+](=O)[O-])cc2)c1=O (optimized conformer: 105.57846062403608 kcal/mol)

>  <smiles>  (1) 
COc1ccccc1N=Nc1c(-c2cccnc2)[nH]n(-c2ccc([N+](=O)[O-])cc2)c1=O

>  <score_type>  (1) 
oracle

>  <origin>  (1) 
adg

>  <m_score__min__energy>  (1) 
-8.1400000000000006

>  <m_primary>  (1) 
energy

$$$$
1:0
     RDKit          3D

 22 23  0  0  0  0  0  0  0  0999 V2000
   55.1910   24.5197   46.7262 H   0  0  0  0  0  0  0  0  0  0  0  0
   55.9280   25.2730   46.4110 C   0  0  0  0  0  0  0  0  0  0  0  0
   55.5120   26.5020   46.0040 N   0  0  0  0  0  0  0  0  0  0  0  0
   56.3820   27.4730   45.6130 C   0  0  0  0  0  0  0  0  0  0  0  0
   55.8960   28.6200   45.2250 N   0  0  0  0  0  0  0  0  0  0  0  0
   56.5560   29.6360   44.4540 C   0  0  0  0  0  0  0  0  0  0  0  0
   56.2000   29.8140   43.1110 C   0  0  0  0  0  0  0  0  0  0  0  0
   55.4543   29.1498   42.6497 H   0  0  0  0  0  0  0  0  0  0  0  0
   56.7880   30.8320   42.3540 C   0  0  0  0  0  0  0  0  0  0  0  0
   56.5170   30.9556   41.2951 H   0  0  0  0  0  0  0  0  0  0  0  0
   57.7210   31.6940   42.9420 C   0  0  0  0  0  0  0  0  0  0  0  0
   58.2880   32.6820   42.2080 F   0  0  0  0  0  0  0  0  0  0  0  0
   58.0550   31.5450   44.2910 C   0  0  0  0  0  0  0  0  0  0  0  0
   58.7805   32.2284   44.7563 H   0  0  0  0  0  0  0  0  0  0  0  0
   57.4670   30.5270   45.0500 C   0  0  0  0  0  0  0  0  0  0  0  0
   57.7179   30.4231   46.1160 H   0  0  0  0  0  0  0  0  0  0  0  0
   57.7640   27.1880   45.6010 C   0  0  0  0  0  0  0  0  0  0  0  0
   58.4844   27.9488   45.2660 H   0  0  0  0  0  0  0  0  0  0  0  0
   58.2090   25.9320   46.0180 C   0  0  0  0  0  0  0  0  0  0  0  0
   59.2850   25.7033   46.0225 H   0  0  0  0  0  0  0  0  0  0  0  0
   57.2890   24.9670   46.4290 C   0  0  0  0  0  0  0  0  0  0  0  0
   57.6326   23.9769   46.7632 H   0  0  0  0  0  0  0  0  0  0  0  0
  1  2  1  0
  2  3  1  0
  3  4  1  0
  4  5  2  0
  5  6  1  0
  6  7  2  0
  7  8  1  0
  7  9  1  0
  9 10  1  0
  9 11  2  0
 11 12  1  0
 11 13  1  0
 13 14  1  0
 13 15  2  0
 15 16  1  0
  4 17  1  0
 17 18  1  0
 17 19  2  0
 19 20  1  0
 19 21  1  0
 21 22  1  0
 21  2  2  0
 15  6  1  0
M  CHG  1   3  -1
M  END
>  <UniqueID>  (2) 
2

>  <SMILES>  (2) 
Fc1ccc(/N=c2\cccc[n-]2)cc1

>  <Energy>  (2) 
33.17127184577415

>  <Genealogy>  (2) 
Fc1ccc(N=c2cccc[n-]2)cc1 (protonated)
Fc1ccc(/N=c2\cccc[n-]2)cc1 (cis-trans isomerization)
Fc1ccc(/N=c2\cccc[n-]2)cc1 (3D coordinates assigned)
Fc1ccc(/N=c2\cccc[n-]2)cc1 (optimized conformer: 33.17127184577415 kcal/mol)

>  <smiles>  (2) 
Fc1ccc(N=c2cccc[nH]2)cc1

>  <score_type>  (2) 
oracle

>  <origin>  (2) 
adg

>  <m_score__min__energy>  (2) 
-7.6100000000000003

>  <m_primary>  (2) 
energy

$$$$
2:0
     RDKit          3D

 33 35  0  0  0  0  0  0  0  0999 V2000
   55.4530   29.6200   44.8730 O   0  0  0  0  0  0  0  0  0  0  0  0
   56.6370   29.6220   44.4420 C   0  0  0  0  0  0  0  0  0  0  0  0
   57.4150   28.3340   44.4110 C   0  0  0  0  0  0  0  0  0  0  0  0
   57.7810   27.8740   45.8250 C   0  0  0  0  0  0  0  0  0  0  0  0
   58.8320   28.7650   46.4090 C   0  0  0  0  0  0  0  0  0  0  0  0
   59.9160   29.3010   45.7270 C   0  0  0  0  0  0  0  0  0  0  0  0
   60.7760   30.0360   46.5520 C   0  0  0  0  0  0  0  0  0  0  0  0
   60.3810   30.0680   47.8830 C   0  0  0  0  0  0  0  0  0  0  0  0
   58.9620   29.1770   48.0350 S   0  0  0  0  0  0  0  0  0  0  0  0
   57.2280   30.8610   44.0210 N   0  0  0  0  0  0  0  0  0  0  0  0
   57.3990   31.2380   42.6180 C   0  0  0  0  0  0  0  0  0  0  0  0
   57.8920   32.7050   42.6260 C   0  0  0  0  0  0  0  0  0  0  0  0
   58.0420   33.0100   44.0760 C   0  0  0  0  0  0  0  0  0  0  0  0
   58.5440   34.1760   44.6570 C   0  0  0  0  0  0  0  0  0  0  0  0
   58.6660   34.2280   46.0540 C   0  0  0  0  0  0  0  0  0  0  0  0
   58.3060   33.1160   46.8380 C   0  0  0  0  0  0  0  0  0  0  0  0
   57.8090   31.9530   46.2310 C   0  0  0  0  0  0  0  0  0  0  0  0
   57.6590   31.9390   44.8380 C   0  0  0  0  0  0  0  0  0  0  0  0
   56.8040   27.5573   43.9279 H   0  0  0  0  0  0  0  0  0  0  0  0
   58.3448   28.5022   43.8478 H   0  0  0  0  0  0  0  0  0  0  0  0
   56.8837   27.9075   46.4604 H   0  0  0  0  0  0  0  0  0  0  0  0
   58.1718   26.8469   45.7756 H   0  0  0  0  0  0  0  0  0  0  0  0
   60.0823   29.1624   44.6485 H   0  0  0  0  0  0  0  0  0  0  0  0
   61.6800   30.5409   46.1806 H   0  0  0  0  0  0  0  0  0  0  0  0
   60.9061   30.5871   48.6984 H   0  0  0  0  0  0  0  0  0  0  0  0
   58.1435   30.5875   42.1357 H   0  0  0  0  0  0  0  0  0  0  0  0
   56.4595   31.1323   42.0556 H   0  0  0  0  0  0  0  0  0  0  0  0
   58.8546   32.7998   42.1021 H   0  0  0  0  0  0  0  0  0  0  0  0
   57.2045   33.3922   42.1112 H   0  0  0  0  0  0  0  0  0  0  0  0
   58.8371   35.0340   44.0342 H   0  0  0  0  0  0  0  0  0  0  0  0
   59.0442   35.1407   46.5378 H   0  0  0  0  0  0  0  0  0  0  0  0
   58.4148   33.1590   47.9318 H   0  0  0  0  0  0  0  0  0  0  0  0
   57.5433   31.0726   46.8346 H   0  0  0  0  0  0  0  0  0  0  0  0
  1  2  2  0
  2  3  1  0
  3  4  1  0
  4  5  1  0
  5  6  2  0
  6  7  1  0
  7  8  2  0
  8  9  1  0
  2 10  1  0
 10 11  1  0
 11 12  1  0
 12 13  1  0
 13 14  2  0
 14 15  1  0
 15 16  2  0
 16 17  1  0
 17 18  2  0
  9  5  1  0
 18 10  1  0
 18 13  1  0
  3 19  1  0
  3 20  1  0
  4 21  1  0
  4 22  1  0
  6 23  1  0
  7 24  1  0
  8 25  1  0
 11 26  1  0
 11 27  1  0
 12 28  1  0
 12 29  1  0
 14 30  1  0
 15 31  1  0
 16 32  1  0
 17 33  1  0
M  END
>  <UniqueID>  (3) 
3

>  <SMILES>  (3) 
O=C(CCc1cccs1)N1CCc2ccccc21

>  <Energy>  (3) 
75.08301934289074

>  <Genealogy>  (3) 
O=C(CCc1cccs1)N1CCc2ccccc21 (3D coordinates assigned)
O=C(CCc1cccs1)N1CCc2ccccc21 (nonaromatic ring conformer: 75.08301934289074 kcal/mol)

>  <smiles>  (3) 
O=C(CCc1cccs1)N1CCc2ccccc21

>  <score_type>  (3) 
oracle

>  <origin>  (3) 
adg

>  <m_score__min__energy>  (3) 
-7.0300000000000002

>  <m_primary>  (3) 
energy

$$$$
3:0
     RDKit          3D

 30 32  0  0  0  0  0  0  0  0999 V2000
   55.5660   29.2930   44.4820 O   0  0  0  0  0  0  0  0  0  0  0  0
   56.6710   28.9810   44.9990 C   0  0  0  0  0  0  0  0  0  0  0  0
   57.7720   30.0140   45.0440 C   0  0  0  0  0  0  0  0  0  0  0  0
   57.2860   31.4460   44.7040 C   0  0  2  0  0  0  0  0  0  0  0  0
   55.8940   31.5600   44.8570 O   0  0  0  0  0  0  0  0  0  0  0  0
   57.6650   31.8660   43.3060 C   0  0  0  0  0  0  0  0  0  0  0  0
   57.2460   31.3090   42.2580 O   0  0  0  0  0  0  0  0  0  0  0  0
   58.5200   33.0040   43.2810 N   0  0  0  0  0  0  0  0  0  0  0  0
   58.6880   33.3620   44.6400 C   0  0  0  0  0  0  0  0  0  0  0  0
   59.4410   34.4320   45.1240 C   0  0  0  0  0  0  0  0  0  0  0  0
   59.4910   34.6370   46.5120 C   0  0  0  0  0  0  0  0  0  0  0  0
   58.7930   33.7770   47.3830 C   0  0  0  0  0  0  0  0  0  0  0  0
   58.0410   32.7060   46.8740 C   0  0  0  0  0  0  0  0  0  0  0  0
   58.0030   32.5160   45.4890 C   0  0  0  0  0  0  0  0  0  0  0  0
   56.8280   27.6310   45.5710 C   0  0  0  0  0  0  0  0  0  0  0  0
   58.0050   26.9230   45.7380 C   0  0  0  0  0  0  0  0  0  0  0  0
   57.6410   25.7210   46.3060 C   0  0  0  0  0  0  0  0  0  0  0  0
   56.2700   25.7650   46.4500 C   0  0  0  0  0  0  0  0  0  0  0  0
   55.8160   26.9120   46.0020 O   0  0  0  0  0  0  0  0  0  0  0  0
   58.2010   30.0226   46.0568 H   0  0  0  0  0  0  0  0  0  0  0  0
   58.5130   29.7326   44.2813 H   0  0  0  0  0  0  0  0  0  0  0  0
   55.4800   31.3890   43.9710 H   0  0  0  0  0  0  0  0  0  0  0  0
   58.9080   33.4900   42.4430 H   0  0  0  0  0  0  0  0  0  0  0  0
   59.9818   35.0981   44.4357 H   0  0  0  0  0  0  0  0  0  0  0  0
   60.0776   35.4726   46.9213 H   0  0  0  0  0  0  0  0  0  0  0  0
   58.8375   33.9458   48.4691 H   0  0  0  0  0  0  0  0  0  0  0  0
   57.4941   32.0316   47.5494 H   0  0  0  0  0  0  0  0  0  0  0  0
   59.0207   27.2513   45.4725 H   0  0  0  0  0  0  0  0  0  0  0  0
   58.3091   24.8937   46.5876 H   0  0  0  0  0  0  0  0  0  0  0  0
   55.6513   24.9612   46.8755 H   0  0  0  0  0  0  0  0  0  0  0  0
  1  2  2  0
  2  3  1  0
  3  4  1  0
  4  5  1  6
  4  6  1  0
  6  7  2  0
  6  8  1  0
  8  9  1  0
  9 10  2  0
 10 11  1  0
 11 12  2  0
 12 13  1  0
 13 14  2  0
  2 15  1  0
 15 16  2  0
 16 17  1  0
 17 18  2  0
 18 19  1  0
 14  4  1  0
 19 15  1  0
 14  9  1  0
  3 20  1  0
  3 21  1  0
  5 22  1  0
  8 23  1  0
 10 24  1  0
 11 25  1  0
 12 26  1  0
 13 27  1  0
 16 28  1  0
 17 29  1  0
 18 30  1  0
M  END
>  <UniqueID>  (4) 
4

>  <SMILES>  (4) 
O=C(C[C@]1(O)C(=O)Nc2ccccc21)c1ccco1

>  <Energy>  (4) 
76.94355410463872

>  <Genealogy>  (4) 
O=C(C[C@]1(O)C(=O)Nc2ccccc21)c1ccco1 (chirality)
O=C(C[C@]1(O)C(=O)Nc2ccccc21)c1ccco1 (3D coordinates assigned)
O=C(C[C@]1(O)C(=O)Nc2ccccc21)c1ccco1 (nonaromatic ring conformer: 76.94355410463872 kcal/mol)

>  <smiles>  (4) 
O=C(CC1(O)C(=O)Nc2ccccc21)c1ccco1

>  <score_type>  (4) 
oracle

>  <origin>  (4) 
adg

>  <m_score__min__energy>  (4) 
-7.7400000000000002

>  <m_primary>  (4) 
energy

$$$$
4:0
     RDKit          3D

 40 42  0  0  0  0  0  0  0  0999 V2000
   63.2710   33.8370   46.4060 C   0  0  0  0  0  0  0  0  0  0  0  0
   63.3980   32.7630   47.4800 C   0  0  0  0  0  0  0  0  0  0  0  0
   62.4520   32.9820   48.5250 O   0  0  0  0  0  0  0  0  0  0  0  0
   61.1310   33.3910   48.3000 C   0  0  0  0  0  0  0  0  0  0  0  0
   60.8100   34.6010   48.4630 O   0  0  0  0  0  0  0  0  0  0  0  0
   60.1360   32.4300   47.8920 N   0  0  0  0  0  0  0  0  0  0  0  0
   58.7640   32.8740   47.5870 C   0  0  0  0  0  0  0  0  0  0  0  0
   58.2090   32.1330   46.3630 C   0  0  0  0  0  0  0  0  0  0  0  0
   58.4390   30.6530   46.4800 C   0  0  0  0  0  0  0  0  0  0  0  0
   59.4650   30.1530   47.2720 C   0  0  0  0  0  0  0  0  0  0  0  0
   59.4620   28.4760   47.2080 S   0  0  0  0  0  0  0  0  0  0  0  0
   58.1750   28.3610   46.1330 C   0  0  0  0  0  0  0  0  0  0  0  0
   57.7030   27.1120   45.6130 N   0  0  0  0  0  0  0  0  0  0  0  0
   57.1950   26.0160   46.3850 C   0  0  0  0  0  0  0  0  0  0  0  0
   57.8780   25.5890   47.3510 O   0  0  0  0  0  0  0  0  0  0  0  0
   55.9190   25.3480   46.0660 C   0  0  0  0  0  0  0  0  0  0  0  0
   55.6950   23.9860   45.9700 C   0  0  0  0  0  0  0  0  0  0  0  0
   54.3590   23.8490   45.6650 C   0  0  0  0  0  0  0  0  0  0  0  0
   53.8470   25.1290   45.6000 C   0  0  0  0  0  0  0  0  0  0  0  0
   54.8000   25.9990   45.8460 O   0  0  0  0  0  0  0  0  0  0  0  0
   57.7020   29.6450   45.8190 C   0  0  0  0  0  0  0  0  0  0  0  0
   56.5340   29.9090   44.9550 C   0  0  0  0  0  0  0  0  0  0  0  0
   55.4660   28.9680   44.8760 N   0  0  0  0  0  0  0  0  0  0  0  0
   56.4710   30.9740   44.2850 O   0  0  0  0  0  0  0  0  0  0  0  0
   60.4100   30.9940   48.0740 C   0  0  0  0  0  0  0  0  0  0  0  0
   63.1546   34.8211   46.8835 H   0  0  0  0  0  0  0  0  0  0  0  0
   64.1753   33.8380   45.7797 H   0  0  0  0  0  0  0  0  0  0  0  0
   62.3914   33.6270   45.7797 H   0  0  0  0  0  0  0  0  0  0  0  0
   63.2154   31.7769   47.0282 H   0  0  0  0  0  0  0  0  0  0  0  0
   64.4116   32.8056   47.9053 H   0  0  0  0  0  0  0  0  0  0  0  0
   58.1185   32.6712   48.4543 H   0  0  0  0  0  0  0  0  0  0  0  0
   58.7836   33.9516   47.3669 H   0  0  0  0  0  0  0  0  0  0  0  0
   57.1285   32.3242   46.2861 H   0  0  0  0  0  0  0  0  0  0  0  0
   58.7298   32.4989   45.4658 H   0  0  0  0  0  0  0  0  0  0  0  0
   56.4309   23.1802   46.1085 H   0  0  0  0  0  0  0  0  0  0  0  0
   53.8106   22.9089   45.5054 H   0  0  0  0  0  0  0  0  0  0  0  0
   52.8002   25.3822   45.3762 H   0  0  0  0  0  0  0  0  0  0  0  0
   55.5930   27.9840   45.1970 H   0  0  0  0  0  0  0  0  0  0  0  0
   60.2998   30.7404   49.1387 H   0  0  0  0  0  0  0  0  0  0  0  0
   61.4343   30.7898   47.7290 H   0  0  0  0  0  0  0  0  0  0  0  0
  1  2  1  0
  2  3  1  0
  3  4  1  0
  4  5  2  0
  4  6  1  0
  6  7  1  0
  7  8  1  0
  8  9  1  0
  9 10  2  0
 10 11  1  0
 11 12  1  0
 12 13  1  0
 13 14  1  0
 14 15  2  0
 14 16  1  0
 16 17  2  0
 17 18  1  0
 18 19  2  0
 19 20  1  0
 12 21  2  0
 21 22  1  0
 22 23  1  0
 22 24  2  0
 10 25  1  0
 25  6  1  0
 21  9  1  0
 20 16  1  0
  1 26  1  0
  1 27  1  0
  1 28  1  0
  2 29  1  0
  2 30  1  0
  7 31  1  0
  7 32  1  0
  8 33  1  0
  8 34  1  0
 17 35  1  0
 18 36  1  0
 19 37  1  0
 23 38  1  0
 25 39  1  0
 25 40  1  0
M  CHG  2  13  -1  23  -1
M  END
>  <UniqueID>  (5) 
5

>  <SMILES>  (5) 
CCOC(=O)N1CCc2c(sc([N-]C(=O)c3ccco3)c2C([NH-])=O)C1

>  <Energy>  (5) 
100.23973793655591

>  <Genealogy>  (5) 
CCOC(=O)N1CCc2c(sc([N-]C(=O)c3ccco3)c2C([NH-])=O)C1 (protonated)
CCOC(=O)N1CCc2c(sc([N-]C(=O)c3ccco3)c2C([NH-])=O)C1 (3D coordinates assigned)
CCOC(=O)N1CCc2c(sc([N-]C(=O)c3ccco3)c2C([NH-])=O)C1 (nonaromatic ring conformer: 100.23973793655591 kcal/mol)

>  <smiles>  (5) 
CCOC(=O)N1CCc2c(sc(NC(=O)c3ccco3)c2C(N)=O)C1

>  <score_type>  (5) 
oracle

>  <origin>  (5) 
adg

>  <m_score__min__energy>  (5) 
-11.58

>  <m_primary>  (5) 
energy

$$$$
5:0
     RDKit          3D

 48 51  0  0  0  0  0  0  0  0999 V2000
   58.6590   34.5690   46.7950 C   0  0  0  0  0  0  0  0  0  0  0  0
   58.3540   33.4630   45.8370 C   0  0  0  0  0  0  0  0  0  0  0  0
   58.0260   33.7500   44.5060 C   0  0  0  0  0  0  0  0  0  0  0  0
   57.7700   32.6990   43.6250 C   0  0  0  0  0  0  0  0  0  0  0  0
   57.8360   31.3800   44.0760 C   0  0  0  0  0  0  0  0  0  0  0  0
   58.1460   31.1250   45.4210 C   0  0  0  0  0  0  0  0  0  0  0  0
   58.2570   29.7500   45.9420 C   0  0  0  0  0  0  0  0  0  0  0  0
   57.6090   28.7100   45.3810 N   0  0  0  0  0  0  0  0  0  0  0  0
   57.8600   27.6340   46.1110 N   0  0  0  0  0  0  0  0  0  0  0  0
   57.3390   26.3300   45.8220 C   0  0  0  0  0  0  0  0  0  0  0  0
   56.1750   26.0240   46.2020 O   0  0  0  0  0  0  0  0  0  0  0  0
   58.1520   25.3630   45.1360 N   0  0  0  0  0  0  0  0  0  0  0  0
   57.6480   24.1290   44.5960 C   0  0  0  0  0  0  0  0  0  0  0  0
   56.5330   24.1130   43.7360 C   0  0  0  0  0  0  0  0  0  0  0  0
   56.0720   22.9070   43.2000 C   0  0  0  0  0  0  0  0  0  0  0  0
   56.7250   21.7100   43.5040 C   0  0  0  0  0  0  0  0  0  0  0  0
   56.2780   20.5410   42.9810 F   0  0  0  0  0  0  0  0  0  0  0  0
   57.8460   21.7190   44.3390 C   0  0  0  0  0  0  0  0  0  0  0  0
   58.3110   22.9220   44.8780 C   0  0  0  0  0  0  0  0  0  0  0  0
   59.3990   22.9110   45.6880 F   0  0  0  0  0  0  0  0  0  0  0  0
   58.6650   27.9550   47.1430 C   0  0  0  0  0  0  0  0  0  0  0  0
   58.9540   29.3040   47.0640 C   0  0  0  0  0  0  0  0  0  0  0  0
   59.9040   30.0340   47.9300 C   0  0  0  0  0  0  0  0  0  0  0  0
   59.7680   30.0060   49.3270 C   0  0  0  0  0  0  0  0  0  0  0  0
   60.6710   30.6980   50.1370 C   0  0  0  0  0  0  0  0  0  0  0  0
   61.7040   31.4420   49.5610 C   0  0  0  0  0  0  0  0  0  0  0  0
   61.8300   31.5210   48.1640 C   0  0  0  0  0  0  0  0  0  0  0  0
   62.9690   32.2870   47.5400 C   0  0  0  0  0  0  0  0  0  0  0  0
   63.7660   32.8620   48.5150 F   0  0  0  0  0  0  0  0  0  0  0  0
   62.4880   33.2970   46.7240 F   0  0  0  0  0  0  0  0  0  0  0  0
   63.7370   31.4230   46.7820 F   0  0  0  0  0  0  0  0  0  0  0  0
   60.9340   30.7980   47.3550 C   0  0  0  0  0  0  0  0  0  0  0  0
   58.4140   32.1690   46.2530 N   0  0  0  0  0  0  0  0  0  0  0  0
   58.5571   34.1995   47.8261 H   0  0  0  0  0  0  0  0  0  0  0  0
   59.6880   34.9220   46.6320 H   0  0  0  0  0  0  0  0  0  0  0  0
   57.9564   35.3995   46.6320 H   0  0  0  0  0  0  0  0  0  0  0  0
   57.9709   34.7924   44.1591 H   0  0  0  0  0  0  0  0  0  0  0  0
   57.5163   32.9098   42.5756 H   0  0  0  0  0  0  0  0  0  0  0  0
   57.6466   30.5469   43.3831 H   0  0  0  0  0  0  0  0  0  0  0  0
   59.1830   25.5300   45.1000 H   0  0  0  0  0  0  0  0  0  0  0  0
   56.0222   25.0542   43.4847 H   0  0  0  0  0  0  0  0  0  0  0  0
   55.1937   22.9005   42.5378 H   0  0  0  0  0  0  0  0  0  0  0  0
   58.3636   20.7769   44.5726 H   0  0  0  0  0  0  0  0  0  0  0  0
   59.0295   27.2621   47.9157 H   0  0  0  0  0  0  0  0  0  0  0  0
   58.9464   29.4364   49.7857 H   0  0  0  0  0  0  0  0  0  0  0  0
   60.5687   30.6572   51.2315 H   0  0  0  0  0  0  0  0  0  0  0  0
   62.4230   31.9691   50.2053 H   0  0  0  0  0  0  0  0  0  0  0  0
   61.0409   30.8311   46.2607 H   0  0  0  0  0  0  0  0  0  0  0  0
  1  2  1  0
  2  3  2  0
  3  4  1  0
  4  5  2  0
  5  6  1  0
  6  7  1  0
  7  8  2  0
  8  9  1  0
  9 10  1  0
 10 11  2  0
 10 12  1  0
 12 13  1  0
 13 14  2  0
 14 15  1  0
 15 16  2  0
 16 17  1  0
 16 18  1  0
 18 19  2  0
 19 20  1  0
  9 21  1  0
 21 22  2  0
 22 23  1  0
 23 24  2  0
 24 25  1  0
 25 26  2  0
 26 27  1  0
 27 28  1  0
 28 29  1  0
 28 30  1  0
 28 31  1  0
 27 32  2  0
  6 33  2  0
 33  2  1  0
 22  7  1  0
 32 23  1  0
 19 13  1  0
  1 34  1  0
  1 35  1  0
  1 36  1  0
  3 37  1  0
  4 38  1  0
  5 39  1  0
 12 40  1  0
 14 41  1  0
 15 42  1  0
 18 43  1  0
 21 44  1  0
 24 45  1  0
 25 46  1  0
 26 47  1  0
 32 48  1  0
M  END
>  <UniqueID>  (6) 
6

>  <SMILES>  (6) 
Cc1cccc(-c2nn(C(=O)Nc3ccc(F)cc3F)cc2-c2cccc(C(F)(F)F)c2)n1

>  <Energy>  (6) 
93.61675350683859

>  <Genealogy>  (6) 
Cc1cccc(-c2nn(C(=O)Nc3ccc(F)cc3F)cc2-c2cccc(C(F)(F)F)c2)n1 (3D coordinates assigned)
Cc1cccc(-c2nn(C(=O)Nc3ccc(F)cc3F)cc2-c2cccc(C(F)(F)F)c2)n1 (optimized conformer: 93.61675350683859 kcal/mol)

>  <smiles>  (6) 
Cc1cccc(-c2nn(C(=O)Nc3ccc(F)cc3F)cc2-c2cccc(C(F)(F)F)c2)n1

>  <score_type>  (6) 
oracle

>  <origin>  (6) 
adg

>  <m_score__min__energy>  (6) 
-8.6199999999999992

>  <m_primary>  (6) 
energy

$$$$
6:0
     RDKit          3D

 40 42  0  0  0  0  0  0  0  0999 V2000
   56.7610   31.2230   42.5850 O   0  0  0  0  0  0  0  0  0  0  0  0
   57.0390   30.6210   43.9150 S   0  0  0  0  0  0  0  0  0  0  0  0
   55.7740   30.0850   44.5050 O   0  0  0  0  0  0  0  0  0  0  0  0
   58.1120   29.2630   43.7690 N   0  0  0  0  0  0  0  0  0  0  0  0
   58.1310   28.4670   44.8070 C   0  0  0  0  0  0  0  0  0  0  0  0
   59.2550   28.2900   45.5320 N   0  0  0  0  0  0  0  0  0  0  0  0
   59.3120   27.4750   46.6130 C   0  0  0  0  0  0  0  0  0  0  0  0
   58.1710   26.7940   46.9920 C   0  0  0  0  0  0  0  0  0  0  0  0
   57.0260   26.9820   46.2460 C   0  0  0  0  0  0  0  0  0  0  0  0
   57.0140   27.8000   45.1800 N   0  0  0  0  0  0  0  0  0  0  0  0
   57.6810   31.8120   45.0100 C   0  0  0  0  0  0  0  0  0  0  0  0
   58.1450   31.5170   46.2750 C   0  0  0  0  0  0  0  0  0  0  0  0
   58.6420   32.5320   47.0890 C   0  0  0  0  0  0  0  0  0  0  0  0
   58.6900   33.8500   46.6710 C   0  0  0  0  0  0  0  0  0  0  0  0
   59.1950   34.9010   47.4850 N   0  0  0  0  0  0  0  0  0  0  0  0
   59.9920   34.5860   48.6330 C   0  0  0  0  0  0  0  0  0  0  0  0
   61.3400   34.1110   48.2710 C   0  0  0  0  0  0  0  0  0  0  0  0
   62.2290   33.8890   49.3280 C   0  0  0  0  0  0  0  0  0  0  0  0
   63.4990   33.4500   49.1120 C   0  0  0  0  0  0  0  0  0  0  0  0
   63.9250   33.2140   47.8020 C   0  0  0  0  0  0  0  0  0  0  0  0
   63.0530   33.4290   46.7470 C   0  0  0  0  0  0  0  0  0  0  0  0
   61.7520   33.8800   46.9740 C   0  0  0  0  0  0  0  0  0  0  0  0
   58.2170   34.1060   45.3980 C   0  0  0  0  0  0  0  0  0  0  0  0
   57.7190   33.1240   44.5700 C   0  0  0  0  0  0  0  0  0  0  0  0
   60.2485   27.3578   47.1779 H   0  0  0  0  0  0  0  0  0  0  0  0
   58.1756   26.1219   47.8628 H   0  0  0  0  0  0  0  0  0  0  0  0
   56.1047   26.4519   46.5293 H   0  0  0  0  0  0  0  0  0  0  0  0
   56.1350   27.9260   44.6310 H   0  0  0  0  0  0  0  0  0  0  0  0
   58.1225   30.4799   46.6410 H   0  0  0  0  0  0  0  0  0  0  0  0
   59.0075   32.2780   48.0949 H   0  0  0  0  0  0  0  0  0  0  0  0
   58.9610   35.8870   47.2100 H   0  0  0  0  0  0  0  0  0  0  0  0
   60.0909   35.4895   49.2526 H   0  0  0  0  0  0  0  0  0  0  0  0
   59.4870   33.7751   49.1784 H   0  0  0  0  0  0  0  0  0  0  0  0
   61.8933   34.0738   50.3591 H   0  0  0  0  0  0  0  0  0  0  0  0
   64.1818   33.2830   49.9581 H   0  0  0  0  0  0  0  0  0  0  0  0
   64.9482   32.8591   47.6094 H   0  0  0  0  0  0  0  0  0  0  0  0
   63.3906   33.2418   45.7170 H   0  0  0  0  0  0  0  0  0  0  0  0
   61.0650   34.0489   46.1317 H   0  0  0  0  0  0  0  0  0  0  0  0
   58.2392   35.1419   45.0287 H   0  0  0  0  0  0  0  0  0  0  0  0
   57.3536   33.3810   43.5648 H   0  0  0  0  0  0  0  0  0  0  0  0
  1  2  2  0
  2  3  2  0
  2  4  1  0
  4  5  2  3
  5  6  1  0
  6  7  2  0
  7  8  1  0
  8  9  2  0
  9 10  1  0
  2 11  1  0
 11 12  2  0
 12 13  1  0
 13 14  2  0
 14 15  1  0
 15 16  1  0
 16 17  1  0
 17 18  2  0
 18 19  1  0
 19 20  2  0
 20 21  1  0
 21 22  2  0
 14 23  1  0
 23 24  2  0
 10  5  1  0
 24 11  1  0
 22 17  1  0
  7 25  1  0
  8 26  1  0
  9 27  1  0
 10 28  1  0
 12 29  1  0
 13 30  1  0
 15 31  1  0
 16 32  1  0
 16 33  1  0
 18 34  1  0
 19 35  1  0
 20 36  1  0
 21 37  1  0
 22 38  1  0
 23 39  1  0
 24 40  1  0
M  END
>  <smiles>  (7) 
O=S(=O)(N=c1nccc[nH]1)c1ccc(NCc2ccccc2)cc1

>  <score_type>  (7) 
oracle

>  <origin>  (7) 
adg

>  <m_score__min__energy>  (7) 
-8.7300000000000004

>  <m_primary>  (7) 
energy

$$$$
7:0
     RDKit          3D

 39 41  0  0  0  0  0  0  0  0999 V2000
   59.6420   30.8010   46.2660 F   0  0  0  0  0  0  0  0  0  0  0  0
   58.6210   30.5070   45.4230 C   0  0  0  0  0  0  0  0  0  0  0  0
   58.4420   29.1830   45.0080 C   0  0  0  0  0  0  0  0  0  0  0  0
   57.4130   28.8580   44.1200 C   0  0  0  0  0  0  0  0  0  0  0  0
   56.5610   29.8570   43.6440 C   0  0  0  0  0  0  0  0  0  0  0  0
   56.7360   31.1820   44.0530 C   0  0  0  0  0  0  0  0  0  0  0  0
   57.7690   31.5200   44.9440 C   0  0  0  0  0  0  0  0  0  0  0  0
   57.9300   32.8840   45.3780 N   0  0  0  0  0  0  0  0  0  0  0  0
   58.5770   33.8670   44.5030 C   0  0  0  0  0  0  0  0  0  0  0  0
   59.2650   34.9610   45.3390 C   0  0  0  0  0  0  0  0  0  0  0  0
   59.8350   34.4210   46.5960 N   0  0  0  0  0  0  0  0  0  0  0  0
   60.9540   33.4770   46.3750 C   0  0  0  0  0  0  0  0  0  0  0  0
   61.9530   33.5380   47.5030 C   0  0  0  0  0  0  0  0  0  0  0  0
   63.2060   32.9180   47.3670 C   0  0  0  0  0  0  0  0  0  0  0  0
   64.1290   32.9580   48.4160 C   0  0  0  0  0  0  0  0  0  0  0  0
   63.8060   33.6120   49.6080 C   0  0  0  0  0  0  0  0  0  0  0  0
   62.5600   34.2300   49.7520 C   0  0  0  0  0  0  0  0  0  0  0  0
   61.6340   34.1930   48.7050 C   0  0  0  0  0  0  0  0  0  0  0  0
   58.7910   33.8460   47.4860 C   0  0  0  0  0  0  0  0  0  0  0  0
   57.5610   33.2950   46.7350 C   0  0  0  0  0  0  0  0  0  0  0  0
   59.1131   28.3956   45.3817 H   0  0  0  0  0  0  0  0  0  0  0  0
   57.2742   27.8160   43.7961 H   0  0  0  0  0  0  0  0  0  0  0  0
   55.7506   29.6005   42.9458 H   0  0  0  0  0  0  0  0  0  0  0  0
   56.0615   31.9646   43.6754 H   0  0  0  0  0  0  0  0  0  0  0  0
   59.3293   33.3591   43.8817 H   0  0  0  0  0  0  0  0  0  0  0  0
   57.8121   34.3342   43.8653 H   0  0  0  0  0  0  0  0  0  0  0  0
   60.0757   35.4062   44.7436 H   0  0  0  0  0  0  0  0  0  0  0  0
   58.5078   35.7135   45.6043 H   0  0  0  0  0  0  0  0  0  0  0  0
   60.5526   32.4551   46.3067 H   0  0  0  0  0  0  0  0  0  0  0  0
   61.4657   33.7572   45.4424 H   0  0  0  0  0  0  0  0  0  0  0  0
   63.4619   32.3990   46.4315 H   0  0  0  0  0  0  0  0  0  0  0  0
   65.1105   32.4743   48.3031 H   0  0  0  0  0  0  0  0  0  0  0  0
   64.5324   33.6406   50.4335 H   0  0  0  0  0  0  0  0  0  0  0  0
   62.3080   34.7460   50.6902 H   0  0  0  0  0  0  0  0  0  0  0  0
   60.6535   34.6777   48.8223 H   0  0  0  0  0  0  0  0  0  0  0  0
   59.2416   33.0242   48.0619 H   0  0  0  0  0  0  0  0  0  0  0  0
   58.4324   34.6650   48.1268 H   0  0  0  0  0  0  0  0  0  0  0  0
   57.1628   32.4268   47.2805 H   0  0  0  0  0  0  0  0  0  0  0  0
   56.7988   34.0857   46.6724 H   0  0  0  0  0  0  0  0  0  0  0  0
  1  2  1  0
  2  3  2  0
  3  4  1  0
  4  5  2  0
  5  6  1  0
  6  7  2  0
  7  8  1  0
  8  9  1  0
  9 10  1  0
 10 11  1  0
 11 12  1  0
 12 13  1  0
 13 14  2  0
 14 15  1  0
 15 16  2  0
 16 17  1  0
 17 18  2  0
 11 19  1  0
 19 20  1  0
  7  2  1  0
 20  8  1  0
 18 13  1  0
  3 21  1  0
  4 22  1  0
  5 23  1  0
  6 24  1  0
  9 25  1  0
  9 26  1  0
 10 27  1  0
 10 28  1  0
 12 29  1  0
 12 30  1  0
 14 31  1  0
 15 32  1  0
 16 33  1  0
 17 34  1  0
 18 35  1  0
 19 36  1  0
 19 37  1  0
 20 38  1  0
 20 39  1  0
M  END
>  <UniqueID>  (8) 
7

>  <SMILES>  (8) 
Fc1ccccc1N1CCN(Cc2ccccc2)CC1

>  <Energy>  (8) 
53.75080217883749

>  <Genealogy>  (8) 
Fc1ccccc1N1CCN(Cc2ccccc2)CC1 (3D coordinates assigned)
Fc1ccccc1N1CCN(Cc2ccccc2)CC1 (nonaromatic ring conformer: 53.75080217883749 kcal/mol)

>  <smiles>  (8) 
Fc1ccccc1N1CCN(Cc2ccccc2)CC1

>  <score_type>  (8) 
oracle

>  <origin>  (8) 
adg

>  <m_score__min__energy>  (8) 
-7.46

>  <m_primary>  (8) 
energy

$$$$
8:0
     RDKit          3D

 33 35  0  0  0  0  0  0  0  0999 V2000
   59.7009   29.4732   45.6432 H   0  0  0  0  0  0  0  0  0  0  0  0
   58.7240   29.8980   45.3690 C   0  0  0  0  0  0  0  0  0  0  0  0
   58.6420   31.1570   44.8710 N   0  0  0  0  0  0  0  0  0  0  0  0
   57.4450   31.6940   44.5310 C   0  0  0  0  0  0  0  0  0  0  0  0
   57.3960   32.9010   44.0550 N   0  0  0  0  0  0  0  0  0  0  0  0
   57.2400   34.0980   44.8760 C   0  0  0  0  0  0  0  0  0  0  0  0
   56.2296   34.1164   45.3103 H   0  0  0  0  0  0  0  0  0  0  0  0
   57.3860   34.9930   44.2534 H   0  0  0  0  0  0  0  0  0  0  0  0
   58.2590   34.0810   45.9780 C   0  0  0  0  0  0  0  0  0  0  0  0
   57.9650   33.4610   47.2040 C   0  0  0  0  0  0  0  0  0  0  0  0
   56.9745   33.0113   47.3676 H   0  0  0  0  0  0  0  0  0  0  0  0
   58.9280   33.4140   48.2170 C   0  0  0  0  0  0  0  0  0  0  0  0
   58.6905   32.9346   49.1781 H   0  0  0  0  0  0  0  0  0  0  0  0
   60.1920   33.9750   48.0110 C   0  0  0  0  0  0  0  0  0  0  0  0
   60.9464   33.9410   48.8108 H   0  0  0  0  0  0  0  0  0  0  0  0
   60.4960   34.5790   46.7880 C   0  0  0  0  0  0  0  0  0  0  0  0
   61.4918   35.0167   46.6245 H   0  0  0  0  0  0  0  0  0  0  0  0
   59.5370   34.6280   45.7720 C   0  0  0  0  0  0  0  0  0  0  0  0
   59.7837   35.0964   44.8078 H   0  0  0  0  0  0  0  0  0  0  0  0
   56.3120   30.9580   44.7020 N   0  0  0  0  0  0  0  0  0  0  0  0
   56.3700   29.7190   45.1900 N   0  0  0  0  0  0  0  0  0  0  0  0
   57.5530   29.1410   45.5320 C   0  0  0  0  0  0  0  0  0  0  0  0
   57.5680   27.7600   46.0770 C   0  0  0  0  0  0  0  0  0  0  0  0
   58.5720   27.3320   46.9710 C   0  0  0  0  0  0  0  0  0  0  0  0
   59.3618   28.0320   47.2812 H   0  0  0  0  0  0  0  0  0  0  0  0
   58.5700   26.0250   47.4650 C   0  0  0  0  0  0  0  0  0  0  0  0
   59.3552   25.7024   48.1645 H   0  0  0  0  0  0  0  0  0  0  0  0
   57.5750   25.1270   47.0740 C   0  0  0  0  0  0  0  0  0  0  0  0
   57.5738   24.1003   47.4687 H   0  0  0  0  0  0  0  0  0  0  0  0
   56.5810   25.5340   46.1810 C   0  0  0  0  0  0  0  0  0  0  0  0
   55.7991   24.8256   45.8698 H   0  0  0  0  0  0  0  0  0  0  0  0
   56.5780   26.8400   45.6820 C   0  0  0  0  0  0  0  0  0  0  0  0
   55.7954   27.1515   44.9746 H   0  0  0  0  0  0  0  0  0  0  0  0
  1  2  1  0
  2  3  1  0
  3  4  1  0
  4  5  2  0
  5  6  1  0
  6  7  1  0
  6  8  1  0
  6  9  1  0
  9 10  2  0
 10 11  1  0
 10 12  1  0
 12 13  1  0
 12 14  2  0
 14 15  1  0
 14 16  1  0
 16 17  1  0
 16 18  2  0
 18 19  1  0
  4 20  1  0
 20 21  2  0
 21 22  1  0
 22 23  1  0
 23 24  2  0
 24 25  1  0
 24 26  1  0
 26 27  1  0
 26 28  2  0
 28 29  1  0
 28 30  1  0
 30 31  1  0
 30 32  2  0
 32 33  1  0
 22  2  2  0
 32 23  1  0
 18  9  1  0
M  CHG  1   3  -1
M  END
>  <UniqueID>  (9) 
8

>  <SMILES>  (9) 
c1ccc(C/N=c2\nnc(-c3ccccc3)c[n-]2)cc1

>  <Energy>  (9) 
40.46450919354336

>  <Genealogy>  (9) 
c1ccc(CN=c2nnc(-c3ccccc3)c[n-]2)cc1 (protonated)
c1ccc(C/N=c2\nnc(-c3ccccc3)c[n-]2)cc1 (cis-trans isomerization)
c1ccc(C/N=c2\nnc(-c3ccccc3)c[n-]2)cc1 (3D coordinates assigned)
c1ccc(C/N=c2\nnc(-c3ccccc3)c[n-]2)cc1 (optimized conformer: 40.46450919354336 kcal/mol)

>  <smiles>  (9) 
c1ccc(CN=c2nnc(-c3ccccc3)c[nH]2)cc1

>  <score_type>  (9) 
oracle

>  <origin>  (9) 
adg

>  <m_score__min__energy>  (9) 
-8.8800000000000008

>  <m_primary>  (9) 
energy

$$$$
9:0
     RDKit          3D

 39 42  0  0  0  0  0  0  0  0999 V2000
   62.7954   32.5232   46.8594 H   0  0  0  0  0  0  0  0  0  0  0  0
   62.0300   32.0540   47.4950 C   0  0  0  0  0  0  0  0  0  0  0  0
   61.4640   30.8310   47.1190 C   0  0  0  0  0  0  0  0  0  0  0  0
   61.7805   30.3450   46.1843 H   0  0  0  0  0  0  0  0  0  0  0  0
   60.4940   30.2220   47.9300 C   0  0  0  0  0  0  0  0  0  0  0  0
   59.8810   28.9390   47.5200 C   0  0  0  0  0  0  0  0  0  0  0  0
   60.3770   27.7550   48.0930 C   0  0  0  0  0  0  0  0  0  0  0  0
   61.1746   27.8091   48.8486 H   0  0  0  0  0  0  0  0  0  0  0  0
   59.8690   26.5120   47.7140 C   0  0  0  0  0  0  0  0  0  0  0  0
   60.2681   25.5944   48.1708 H   0  0  0  0  0  0  0  0  0  0  0  0
   58.8570   26.4290   46.7580 C   0  0  0  0  0  0  0  0  0  0  0  0
   58.4699   25.4456   46.4530 H   0  0  0  0  0  0  0  0  0  0  0  0
   58.3320   27.5950   46.1850 C   0  0  0  0  0  0  0  0  0  0  0  0
   57.3110   27.5170   45.2310 C   0  0  0  0  0  0  0  0  0  0  0  0
   56.9323   26.5332   44.9169 H   0  0  0  0  0  0  0  0  0  0  0  0
   56.7830   28.6470   44.6890 N   0  0  0  0  0  0  0  0  0  0  0  0
   56.0650   28.5220   43.9440 H   0  0  0  0  0  0  0  0  0  0  0  0
   57.2080   29.8910   45.0690 C   0  0  0  0  0  0  0  0  0  0  0  0
   56.6980   30.9820   44.5660 N   0  0  0  0  0  0  0  0  0  0  0  0
   57.3960   32.1490   44.1080 C   0  0  0  0  0  0  0  0  0  0  0  0
   58.0770   32.0680   43.0520 O   0  0  0  0  0  0  0  0  0  0  0  0
   57.4150   33.4100   44.9410 C   0  0  0  0  0  0  0  0  0  0  0  0
   56.5847   33.8919   44.4040 H   0  0  0  0  0  0  0  0  0  0  0  0
   57.7840   33.2580   46.4110 C   0  0  0  0  0  0  0  0  0  0  0  0
   57.3206   33.9115   47.1648 H   0  0  0  0  0  0  0  0  0  0  0  0
   57.7832   32.4266   47.1312 H   0  0  0  0  0  0  0  0  0  0  0  0
   58.7940   33.8280   45.4290 C   0  0  0  0  0  0  0  0  0  0  0  0
   59.0619   34.8940   45.4726 H   0  0  0  0  0  0  0  0  0  0  0  0
   59.8272   33.5795   45.1449 H   0  0  0  0  0  0  0  0  0  0  0  0
   58.2480   30.0120   45.9980 C   0  0  0  0  0  0  0  0  0  0  0  0
   58.6103   31.0097   46.2868 H   0  0  0  0  0  0  0  0  0  0  0  0
   58.8330   28.8630   46.5650 C   0  0  0  0  0  0  0  0  0  0  0  0
   60.0800   30.8630   49.1090 C   0  0  0  0  0  0  0  0  0  0  0  0
   59.3061   30.4014   49.7398 H   0  0  0  0  0  0  0  0  0  0  0  0
   60.6460   32.0840   49.4850 C   0  0  0  0  0  0  0  0  0  0  0  0
   60.3236   32.5762   50.4144 H   0  0  0  0  0  0  0  0  0  0  0  0
   61.6240   32.6820   48.6790 C   0  0  0  0  0  0  0  0  0  0  0  0
   62.2060   33.9400   49.0640 C   0  0  0  0  0  0  0  0  0  0  0  0
   62.6740   34.9520   49.3740 N   0  0  0  0  0  0  0  0  0  0  0  0
  1  2  1  0
  2  3  2  0
  3  4  1  0
  3  5  1  0
  5  6  1  0
  6  7  2  0
  7  8  1  0
  7  9  1  0
  9 10  1  0
  9 11  2  0
 11 12  1  0
 11 13  1  0
 13 14  2  0
 14 15  1  0
 14 16  1  0
 16 17  1  0
 16 18  1  0
 18 19  2  0
 19 20  1  0
 20 21  2  0
 20 22  1  0
 22 23  1  0
 22 24  1  0
 24 25  1  0
 24 26  1  0
 24 27  1  0
 27 28  1  0
 27 29  1  0
 18 30  1  0
 30 31  1  0
 30 32  2  0
  5 33  2  0
 33 34  1  0
 33 35  1  0
 35 36  1  0
 35 37  2  0
 37 38  1  0
 38 39  3  0
 37  2  1  0
 32  6  1  0
 32 13  1  0
 27 22  1  0
M  END
>  <UniqueID>  (10) 
9

>  <SMILES>  (10) 
N#Cc1ccc(-c2cccc3c[nH]/c(=N\C(=O)C4CC4)cc23)cc1

>  <Energy>  (10) 
326.8602666929674

>  <Genealogy>  (10) 
N#Cc1ccc(-c2cccc3c[nH]/c(=N\C(=O)C4CC4)cc23)cc1 (cis-trans isomerization)
N#Cc1ccc(-c2cccc3c[nH]/c(=N\C(=O)C4CC4)cc23)cc1 (3D coordinates assigned)
N#Cc1ccc(-c2cccc3c[nH]/c(=N\C(=O)C4CC4)cc23)cc1 (nonaromatic ring conformer: 326.8602666929674 kcal/mol)

>  <smiles>  (10) 
N#Cc1ccc(-c2cccc3c[nH]c(=NC(=O)C4CC4)cc23)cc1

>  <score_type>  (10) 
oracle

>  <origin>  (10) 
adg

>  <m_score__min__energy>  (10) 
-7.9100000000000001

>  <m_primary>  (10) 
energy

$$$$
10:0
     RDKit          3D

 44 47  0  0  0  0  0  0  0  0999 V2000
   56.3099   32.4548   44.7137 H   0  0  0  0  0  0  0  0  0  0  0  0
   57.3860   32.2880   44.8690 C   0  0  0  0  0  0  0  0  0  0  0  0
   57.9190   31.1360   44.4450 C   0  0  0  0  0  0  0  0  0  0  0  0
   58.6481   31.1538   43.6215 H   0  0  0  0  0  0  0  0  0  0  0  0
   57.5530   29.8400   45.0550 C   0  0  0  0  0  0  0  0  0  0  0  0
   56.2460   29.3690   44.8510 C   0  0  0  0  0  0  0  0  0  0  0  0
   55.5038   30.0166   44.3614 H   0  0  0  0  0  0  0  0  0  0  0  0
   55.8900   28.1230   45.2520 N   0  0  0  0  0  0  0  0  0  0  0  0
   56.7700   27.2880   45.8560 C   0  0  0  0  0  0  0  0  0  0  0  0
   56.4495   26.2792   46.1551 H   0  0  0  0  0  0  0  0  0  0  0  0
   58.0820   27.7010   46.1010 C   0  0  0  0  0  0  0  0  0  0  0  0
   58.9830   26.7900   46.7680 C   0  0  0  0  0  0  0  0  0  0  0  0
   59.7050   26.0620   47.3030 N   0  0  0  0  0  0  0  0  0  0  0  0
   58.4900   29.0030   45.7350 C   0  0  0  0  0  0  0  0  0  0  0  0
   59.7020   29.3770   46.0720 N   0  0  0  0  0  0  0  0  0  0  0  0
   60.0990   30.3500   47.0490 C   0  0  0  0  0  0  0  0  0  0  0  0
   61.0610   31.3230   46.6900 C   0  0  0  0  0  0  0  0  0  0  0  0
   61.5518   31.2661   45.7072 H   0  0  0  0  0  0  0  0  0  0  0  0
   61.3960   32.3600   47.5740 C   0  0  0  0  0  0  0  0  0  0  0  0
   62.1318   33.1281   47.2937 H   0  0  0  0  0  0  0  0  0  0  0  0
   60.7690   32.3870   48.8160 C   0  0  0  0  0  0  0  0  0  0  0  0
   59.8740   31.4210   49.1950 C   0  0  0  0  0  0  0  0  0  0  0  0
   59.4290   31.7600   50.4580 C   0  0  0  0  0  0  0  0  0  0  0  0
   58.7030   31.2130   51.0775 H   0  0  0  0  0  0  0  0  0  0  0  0
   60.0920   32.9380   50.7810 C   0  0  0  0  0  0  0  0  0  0  0  0
   59.9671   33.4872   51.7259 H   0  0  0  0  0  0  0  0  0  0  0  0
   60.9110   33.3160   49.7750 N   0  0  0  0  0  0  0  0  0  0  0  0
   61.5170   34.1660   49.7480 H   0  0  0  0  0  0  0  0  0  0  0  0
   59.5300   30.3550   48.3520 C   0  0  0  0  0  0  0  0  0  0  0  0
   58.5420   29.3090   48.7950 C   0  0  0  0  0  0  0  0  0  0  0  0
   58.5109   29.2761   49.8941 H   0  0  0  0  0  0  0  0  0  0  0  0
   57.5437   29.5600   48.4073 H   0  0  0  0  0  0  0  0  0  0  0  0
   58.8495   28.3266   48.4073 H   0  0  0  0  0  0  0  0  0  0  0  0
   58.1750   33.3510   45.5380 C   0  0  0  0  0  0  0  0  0  0  0  0
   58.1950   33.5180   46.9390 C   0  0  0  0  0  0  0  0  0  0  0  0
   57.6450   32.8149   47.5818 H   0  0  0  0  0  0  0  0  0  0  0  0
   58.9100   34.5720   47.5140 C   0  0  0  0  0  0  0  0  0  0  0  0
   58.9126   34.7015   48.6063 H   0  0  0  0  0  0  0  0  0  0  0  0
   59.6210   35.4610   46.7060 C   0  0  0  0  0  0  0  0  0  0  0  0
   60.1781   36.2931   47.1614 H   0  0  0  0  0  0  0  0  0  0  0  0
   59.6250   35.2940   45.3200 C   0  0  0  0  0  0  0  0  0  0  0  0
   60.1920   35.9902   44.6845 H   0  0  0  0  0  0  0  0  0  0  0  0
   58.9100   34.2440   44.7390 C   0  0  0  0  0  0  0  0  0  0  0  0
   58.9222   34.1148   43.6467 H   0  0  0  0  0  0  0  0  0  0  0  0
  1  2  1  0
  2  3  2  0
  3  4  1  0
  3  5  1  0
  5  6  2  0
  6  7  1  0
  6  8  1  0
  8  9  1  0
  9 10  1  0
  9 11  2  0
 11 12  1  0
 12 13  3  0
 11 14  1  0
 14 15  2  0
 15 16  1  0
 16 17  2  0
 17 18  1  0
 17 19  1  0
 19 20  1  0
 19 21  2  0
 21 22  1  0
 22 23  1  0
 23 24  1  0
 23 25  2  0
 25 26  1  0
 25 27  1  0
 27 28  1  0
 22 29  2  0
 29 30  1  0
 30 31  1  0
 30 32  1  0
 30 33  1  0
  2 34  1  0
 34 35  2  0
 35 36  1  0
 35 37  1  0
 37 38  1  0
 37 39  2  0
 39 40  1  0
 39 41  1  0
 41 42  1  0
 41 43  2  0
 43 44  1  0
 14  5  1  0
 29 16  1  0
 43 34  1  0
 27 21  1  0
M  CHG  1   8  -1
M  END
>  <UniqueID>  (11) 
10

>  <SMILES>  (11) 
Cc1c(/N=c2/c(C#N)c[n-]cc2/C=C/c2ccccc2)ccc2[nH]ccc12

>  <Energy>  (11) 
100.60574317820029

>  <Genealogy>  (11) 
Cc1c(N=c2c(C#N)c[n-]cc2C=Cc2ccccc2)ccc2[nH]ccc12 (protonated)
Cc1c(/N=c2/c(C#N)c[n-]cc2/C=C/c2ccccc2)ccc2[nH]ccc12 (cis-trans isomerization)
Cc1c(/N=c2/c(C#N)c[n-]cc2/C=C/c2ccccc2)ccc2[nH]ccc12 (3D coordinates assigned)
Cc1c(/N=c2/c(C#N)c[n-]cc2/C=C/c2ccccc2)ccc2[nH]ccc12 (optimized conformer: 100.60574317820029 kcal/mol)

>  <smiles>  (11) 
Cc1c(N=c2c(C#N)c[nH]cc2C=Cc2ccccc2)ccc2[nH]ccc12

>  <score_type>  (11) 
oracle

>  <origin>  (11) 
adg

>  <m_score__min__energy>  (11) 
-9.5399999999999991

>  <m_primary>  (11) 
energy

$$$$
11:0
     RDKit          3D

 49 52  0  0  1  0  0  0  0  0999 V2000
   56.6670   34.6340   44.8450 C   0  0  0  0  0  0  0  0  0  0  0  0
   57.5980   33.7640   45.6170 C   0  0  0  0  0  0  0  0  0  0  0  0
   57.6110   32.4230   45.2800 C   0  0  0  0  0  0  0  0  0  0  0  0
   58.4720   31.6110   45.9900 C   0  0  0  0  0  0  0  0  0  0  0  0
   58.5690   30.2170   45.7320 N   0  0  0  0  0  0  0  0  0  0  0  0
   57.8140   29.6740   44.6470 C   0  0  0  0  0  0  0  0  0  0  0  0
   57.8470   28.1860   44.5720 C   0  0  0  0  0  0  0  0  0  0  0  0
   57.9860   27.5190   45.8530 N   0  0  0  0  0  0  0  0  0  0  0  0
   57.6550   26.1280   45.9090 C   0  0  0  0  0  0  0  0  0  0  0  0
   57.6530   25.4320   47.1250 C   0  0  0  0  0  0  0  0  0  0  0  0
   57.3300   24.0910   47.1250 C   0  0  0  0  0  0  0  0  0  0  0  0
   57.0070   23.3920   45.9860 C   0  0  0  0  0  0  0  0  0  0  0  0
   57.0090   24.0650   44.7990 C   0  0  0  0  0  0  0  0  0  0  0  0
   56.6050   23.2160   43.3210 Cl  0  0  0  0  0  0  0  0  0  0  0  0
   57.3290   25.4100   44.7790 C   0  0  0  0  0  0  0  0  0  0  0  0
   58.4460   28.2340   47.0210 C   0  0  0  0  0  0  0  0  0  0  0  0
   59.3940   29.3270   46.5150 C   0  0  0  0  0  0  0  0  0  0  0  0
   59.2520   32.1170   46.9620 N   0  0  0  0  0  0  0  0  0  0  0  0
   59.2330   33.4230   47.2830 C   0  0  0  0  0  0  0  0  0  0  0  0
   60.0050   33.8710   48.2300 N   0  0  0  0  0  0  0  0  0  0  0  0
   61.4240   33.6250   48.1170 C   0  0  0  0  0  0  0  0  0  0  0  0
   62.0270   33.7080   46.8700 C   0  0  0  0  0  0  0  0  0  0  0  0
   63.3790   33.4680   46.8120 C   0  0  0  0  0  0  0  0  0  0  0  0
   64.1440   33.1550   47.9150 C   0  0  0  0  0  0  0  0  0  0  0  0
   63.5110   33.0820   49.1410 C   0  0  0  0  0  0  0  0  0  0  0  0
   62.1490   33.3140   49.2630 C   0  0  0  0  0  0  0  0  0  0  0  0
   61.5500   33.2350   50.4830 F   0  0  0  0  0  0  0  0  0  0  0  0
   58.3950   34.2540   46.6020 N   0  0  0  0  0  0  0  0  0  0  0  0
   56.0452   35.2150   45.5420 H   0  0  0  0  0  0  0  0  0  0  0  0
   57.2474   35.3209   44.2115 H   0  0  0  0  0  0  0  0  0  0  0  0
   56.0210   34.0084   44.2115 H   0  0  0  0  0  0  0  0  0  0  0  0
   56.9659   32.0225   44.4841 H   0  0  0  0  0  0  0  0  0  0  0  0
   56.7670   29.9917   44.7607 H   0  0  0  0  0  0  0  0  0  0  0  0
   58.2719   30.0502   43.7203 H   0  0  0  0  0  0  0  0  0  0  0  0
   56.9098   27.8451   44.1077 H   0  0  0  0  0  0  0  0  0  0  0  0
   58.7399   27.9234   43.9856 H   0  0  0  0  0  0  0  0  0  0  0  0
   57.9048   25.9465   48.0641 H   0  0  0  0  0  0  0  0  0  0  0  0
   57.3309   23.5537   48.0848 H   0  0  0  0  0  0  0  0  0  0  0  0
   56.7545   22.3223   46.0303 H   0  0  0  0  0  0  0  0  0  0  0  0
   57.3230   25.9336   43.8116 H   0  0  0  0  0  0  0  0  0  0  0  0
   57.5940   28.6850   47.5508 H   0  0  0  0  0  0  0  0  0  0  0  0
   58.9550   27.5601   47.7258 H   0  0  0  0  0  0  0  0  0  0  0  0
   59.8466   29.8657   47.3605 H   0  0  0  0  0  0  0  0  0  0  0  0
   60.2216   28.9092   45.9230 H   0  0  0  0  0  0  0  0  0  0  0  0
   59.8960   31.5000   47.4900 H   0  0  0  0  0  0  0  0  0  0  0  0
   61.4484   33.9550   45.9677 H   0  0  0  0  0  0  0  0  0  0  0  0
   63.8771   33.5290   45.8331 H   0  0  0  0  0  0  0  0  0  0  0  0
   65.2242   32.9692   47.8222 H   0  0  0  0  0  0  0  0  0  0  0  0
   64.0986   32.8351   50.0376 H   0  0  0  0  0  0  0  0  0  0  0  0
  1  2  1  0
  2  3  1  0
  3  4  2  0
  4  5  1  0
  5  6  1  0
  6  7  1  0
  7  8  1  0
  8  9  1  0
  9 10  2  0
 10 11  1  0
 11 12  2  0
 12 13  1  0
 13 14  1  0
 13 15  2  0
  8 16  1  0
 16 17  1  0
  4 18  1  0
 18 19  1  0
 19 20  2  0
 20 21  1  0
 21 22  2  0
 22 23  1  0
 23 24  2  0
 24 25  1  0
 25 26  2  0
 26 27  1  0
 19 28  1  0
 28  2  2  0
 17  5  1  0
 26 21  1  0
 15  9  1  0
  1 29  1  0
  1 30  1  0
  1 31  1  0
  3 32  1  0
  6 33  1  0
  6 34  1  0
  7 35  1  0
  7 36  1  0
 10 37  1  0
 11 38  1  0
 12 39  1  0
 15 40  1  0
 16 41  1  0
 16 42  1  0
 17 43  1  0
 17 44  1  0
 18 45  1  0
 22 46  1  0
 23 47  1  0
 24 48  1  0
 25 49  1  0
M  END
>  <smiles>  (12) 
Cc1cc(N2CCN(c3cccc(Cl)c3)CC2)[nH]c(=Nc2ccccc2F)n1

>  <score_type>  (12) 
oracle

>  <origin>  (12) 
adg

>  <m_score__min__energy>  (12) 
-8.1899999999999995

>  <m_primary>  (12) 
energy

$$$$
12:0
     RDKit          3D

 42 43  0  0  1  0  0  0  0  0999 V2000
   57.0710   27.0640   45.9790 C   0  0  0  0  0  0  0  0  0  0  0  0
   56.6700   28.3250   45.2440 C   0  0  0  0  0  0  0  0  0  0  0  0
   57.8360   28.9940   44.6530 N   0  0  0  0  0  0  0  0  0  0  0  0
   59.0030   28.1680   44.3890 C   0  0  0  0  0  0  0  0  0  0  0  0
   60.2370   28.9190   44.9020 C   0  0  0  0  0  0  0  0  0  0  0  0
   57.8190   30.3860   44.3560 C   0  0  0  0  0  0  0  0  0  0  0  0
   57.9530   31.3550   45.2700 N   0  0  0  0  0  0  0  0  0  0  0  0
   57.9250   32.6260   44.8410 C   0  0  0  0  0  0  0  0  0  0  0  0
   58.0340   33.6120   45.6480 N   0  0  0  0  0  0  0  0  0  0  0  0
   59.0930   33.7640   46.5710 C   0  0  0  0  0  0  0  0  0  0  0  0
   58.9410   34.1290   47.8880 C   0  0  0  0  0  0  0  0  0  0  0  0
   60.0440   34.2710   48.7210 C   0  0  0  0  0  0  0  0  0  0  0  0
   61.3390   34.0550   48.2790 C   0  0  0  0  0  0  0  0  0  0  0  0
   62.7440   34.2440   49.3680 S   0  0  0  0  0  0  0  0  0  0  0  0
   64.1190   33.1840   48.9090 C   0  0  0  0  0  0  0  0  0  0  0  0
   61.4910   33.6870   46.9570 C   0  0  0  0  0  0  0  0  0  0  0  0
   60.4030   33.5450   46.1260 C   0  0  0  0  0  0  0  0  0  0  0  0
   57.7700   32.9540   43.5290 N   0  0  0  0  0  0  0  0  0  0  0  0
   57.6360   31.9800   42.6170 C   0  0  0  0  0  0  0  0  0  0  0  0
   57.4740   32.2930   41.1980 C   0  0  0  0  0  0  0  0  0  0  0  0
   57.6640   30.7100   43.0530 N   0  0  0  0  0  0  0  0  0  0  0  0
   57.0155   27.2384   47.0637 H   0  0  0  0  0  0  0  0  0  0  0  0
   56.3885   26.2464   45.7037 H   0  0  0  0  0  0  0  0  0  0  0  0
   58.1004   26.7908   45.7037 H   0  0  0  0  0  0  0  0  0  0  0  0
   55.9634   28.0629   44.4427 H   0  0  0  0  0  0  0  0  0  0  0  0
   56.2045   29.0130   45.9651 H   0  0  0  0  0  0  0  0  0  0  0  0
   58.9063   27.2058   44.9132 H   0  0  0  0  0  0  0  0  0  0  0  0
   59.0959   27.9690   43.3111 H   0  0  0  0  0  0  0  0  0  0  0  0
   60.2357   28.9182   46.0020 H   0  0  0  0  0  0  0  0  0  0  0  0
   61.1473   28.4216   44.5361 H   0  0  0  0  0  0  0  0  0  0  0  0
   60.2135   29.9561   44.5361 H   0  0  0  0  0  0  0  0  0  0  0  0
   57.9324   34.3111   48.2875 H   0  0  0  0  0  0  0  0  0  0  0  0
   59.8832   34.5654   49.7686 H   0  0  0  0  0  0  0  0  0  0  0  0
   64.6097   32.8057   49.8179 H   0  0  0  0  0  0  0  0  0  0  0  0
   63.7464   32.3372   48.3140 H   0  0  0  0  0  0  0  0  0  0  0  0
   64.8431   33.7598   48.3140 H   0  0  0  0  0  0  0  0  0  0  0  0
   62.5005   33.5039   46.5604 H   0  0  0  0  0  0  0  0  0  0  0  0
   60.5675   33.2501   45.0791 H   0  0  0  0  0  0  0  0  0  0  0  0
   56.9707   33.2654   41.0921 H   0  0  0  0  0  0  0  0  0  0  0  0
   58.4623   32.3374   40.7172 H   0  0  0  0  0  0  0  0  0  0  0  0
   56.8671   31.5117   40.7172 H   0  0  0  0  0  0  0  0  0  0  0  0
   57.5550   29.9570   42.3210 H   0  0  0  0  0  0  0  0  0  0  0  0
  1  2  1  0
  2  3  1  0
  3  4  1  0
  4  5  1  0
  3  6  1  0
  6  7  2  0
  7  8  1  0
  8  9  2  0
  9 10  1  0
 10 11  2  0
 11 12  1  0
 12 13  2  0
 13 14  1  0
 14 15  1  0
 13 16  1  0
 16 17  2  0
  8 18  1  0
 18 19  2  0
 19 20  1  0
 19 21  1  0
 21  6  1  0
 17 10  1  0
  1 22  1  0
  1 23  1  0
  1 24  1  0
  2 25  1  0
  2 26  1  0
  4 27  1  0
  4 28  1  0
  5 29  1  0
  5 30  1  0
  5 31  1  0
 11 32  1  0
 12 33  1  0
 15 34  1  0
 15 35  1  0
 15 36  1  0
 16 37  1  0
 17 38  1  0
 20 39  1  0
 20 40  1  0
 20 41  1  0
 21 42  1  0
M  END
>  <smiles>  (13) 
CCN(CC)c1nc(=Nc2ccc(SC)cc2)nc(C)[nH]1

>  <score_type>  (13) 
oracle

>  <origin>  (13) 
adg

>  <m_score__min__energy>  (13) 
-6.8300000000000001

>  <m_primary>  (13) 
energy

$$$$
13:0
     RDKit          3D

 34 36  0  0  0  0  0  0  0  0999 V2000
   56.3530   29.3430   43.6120 S   0  0  0  0  0  0  0  0  0  0  0  0
   57.0460   30.2940   44.7520 C   0  0  0  0  0  0  0  0  0  0  0  0
   56.7920   31.6110   44.8670 N   0  0  0  0  0  0  0  0  0  0  0  0
   57.5000   32.0490   45.8980 N   0  0  0  0  0  0  0  0  0  0  0  0
   58.1600   30.9880   46.4070 C   0  0  0  0  0  0  0  0  0  0  0  0
   59.1650   31.1000   47.5190 C   0  0  0  0  0  0  0  0  0  0  0  0
   59.5630   32.5000   47.7190 N   0  0  0  0  0  0  0  0  0  0  0  0
   60.9780   32.6470   47.4880 C   0  0  0  0  0  0  0  0  0  0  0  0
   61.8930   31.7840   48.1180 C   0  0  0  0  0  0  0  0  0  0  0  0
   63.2680   31.9460   47.9190 C   0  0  0  0  0  0  0  0  0  0  0  0
   63.7400   32.9740   47.0990 C   0  0  0  0  0  0  0  0  0  0  0  0
   62.8390   33.8450   46.4790 C   0  0  0  0  0  0  0  0  0  0  0  0
   61.4640   33.6870   46.6750 C   0  0  0  0  0  0  0  0  0  0  0  0
   57.8990   29.8650   45.7030 N   0  0  0  0  0  0  0  0  0  0  0  0
   58.4510   28.5510   45.8850 C   0  0  0  0  0  0  0  0  0  0  0  0
   57.6100   27.4600   46.1560 C   0  0  0  0  0  0  0  0  0  0  0  0
   58.1520   26.1870   46.3560 C   0  0  0  0  0  0  0  0  0  0  0  0
   59.5350   25.9950   46.2810 C   0  0  0  0  0  0  0  0  0  0  0  0
   60.3770   27.0760   46.0030 C   0  0  0  0  0  0  0  0  0  0  0  0
   59.8380   28.3500   45.8040 C   0  0  0  0  0  0  0  0  0  0  0  0
   58.7200   30.7146   48.4483 H   0  0  0  0  0  0  0  0  0  0  0  0
   60.0562   30.5134   47.2512 H   0  0  0  0  0  0  0  0  0  0  0  0
   59.0370   33.1230   47.0600 H   0  0  0  0  0  0  0  0  0  0  0  0
   59.3280   32.7950   48.6960 H   0  0  0  0  0  0  0  0  0  0  0  0
   61.5255   30.9780   48.7702 H   0  0  0  0  0  0  0  0  0  0  0  0
   63.9783   31.2635   48.4085 H   0  0  0  0  0  0  0  0  0  0  0  0
   64.8215   33.0982   46.9410 H   0  0  0  0  0  0  0  0  0  0  0  0
   63.2126   34.6556   45.8361 H   0  0  0  0  0  0  0  0  0  0  0  0
   60.7589   34.3790   46.1913 H   0  0  0  0  0  0  0  0  0  0  0  0
   56.5213   27.6073   46.2111 H   0  0  0  0  0  0  0  0  0  0  0  0
   57.4899   25.3357   46.5726 H   0  0  0  0  0  0  0  0  0  0  0  0
   59.9606   24.9933   46.4407 H   0  0  0  0  0  0  0  0  0  0  0  0
   61.4646   26.9236   45.9409 H   0  0  0  0  0  0  0  0  0  0  0  0
   60.5028   29.1981   45.5832 H   0  0  0  0  0  0  0  0  0  0  0  0
  1  2  2  0
  2  3  1  0
  3  4  1  0
  4  5  2  0
  5  6  1  0
  6  7  1  0
  7  8  1  0
  8  9  2  0
  9 10  1  0
 10 11  2  0
 11 12  1  0
 12 13  2  0
  5 14  1  0
 14 15  1  0
 15 16  2  0
 16 17  1  0
 17 18  2  0
 18 19  1  0
 19 20  2  0
 14  2  1  0
 20 15  1  0
 13  8  1  0
  6 21  1  0
  6 22  1  0
  7 23  1  0
  7 24  1  0
  9 25  1  0
 10 26  1  0
 11 27  1  0
 12 28  1  0
 13 29  1  0
 16 30  1  0
 17 31  1  0
 18 32  1  0
 19 33  1  0
 20 34  1  0
M  CHG  2   3  -1   7   1
M  END
>  <UniqueID>  (14) 
11

>  <SMILES>  (14) 
S=c1[n-]nc(C[NH2+]c2ccccc2)n1-c1ccccc1

>  <Energy>  (14) 
77.77606361786546

>  <Genealogy>  (14) 
S=c1[n-]nc(C[NH2+]c2ccccc2)n1-c1ccccc1 (protonated)
S=c1[n-]nc(C[NH2+]c2ccccc2)n1-c1ccccc1 (3D coordinates assigned)
S=c1[n-]nc(C[NH2+]c2ccccc2)n1-c1ccccc1 (optimized conformer: 77.77606361786546 kcal/mol)

>  <smiles>  (14) 
S=c1[nH]nc(CNc2ccccc2)n1-c1ccccc1

>  <score_type>  (14) 
oracle

>  <origin>  (14) 
adg

>  <m_score__min__energy>  (14) 
-7.9900000000000002

>  <m_primary>  (14) 
energy

$$$$
14:0
     RDKit          3D

 27 29  0  0  0  0  0  0  0  0999 V2000
   60.7850   29.7200   45.6180 O   0  0  0  0  0  0  0  0  0  0  0  0
   59.5360   29.5710   45.6920 C   0  0  0  0  0  0  0  0  0  0  0  0
   58.9330   28.2780   45.3170 C   0  0  0  0  0  0  0  0  0  0  0  0
   57.6170   28.1830   45.1060 C   0  0  0  0  0  0  0  0  0  0  0  0
   56.7780   29.3940   45.1310 C   0  0  0  0  0  0  0  0  0  0  0  0
   55.5480   29.3130   44.8710 O   0  0  0  0  0  0  0  0  0  0  0  0
   57.3920   30.6700   45.3920 N   0  0  0  0  0  0  0  0  0  0  0  0
   57.0980   31.7760   44.4770 C   0  0  0  0  0  0  0  0  0  0  0  0
   57.2970   33.1120   45.1740 C   0  0  0  0  0  0  0  0  0  0  0  0
   58.6600   33.1910   45.7980 C   0  0  0  0  0  0  0  0  0  0  0  0
   59.2630   34.4480   45.9690 C   0  0  0  0  0  0  0  0  0  0  0  0
   60.4640   34.5670   46.6700 C   0  0  0  0  0  0  0  0  0  0  0  0
   61.0530   33.4390   47.2390 C   0  0  0  0  0  0  0  0  0  0  0  0
   60.4550   32.1860   47.0900 C   0  0  0  0  0  0  0  0  0  0  0  0
   59.2760   32.0360   46.3310 C   0  0  0  0  0  0  0  0  0  0  0  0
   58.6190   30.6630   46.2150 C   0  0  2  0  0  0  0  0  0  0  0  0
   59.5700   27.3875   45.2105 H   0  0  0  0  0  0  0  0  0  0  0  0
   57.1601   27.2010   44.9137 H   0  0  0  0  0  0  0  0  0  0  0  0
   57.7716   31.7166   43.6094 H   0  0  0  0  0  0  0  0  0  0  0  0
   56.0505   31.6981   44.1504 H   0  0  0  0  0  0  0  0  0  0  0  0
   57.1902   33.9222   44.4376 H   0  0  0  0  0  0  0  0  0  0  0  0
   56.5406   33.2119   45.9664 H   0  0  0  0  0  0  0  0  0  0  0  0
   58.7854   35.3448   45.5475 H   0  0  0  0  0  0  0  0  0  0  0  0
   60.9456   35.5506   46.7734 H   0  0  0  0  0  0  0  0  0  0  0  0
   61.9904   33.5361   47.8063 H   0  0  0  0  0  0  0  0  0  0  0  0
   60.9086   31.3063   47.5699 H   0  0  0  0  0  0  0  0  0  0  0  0
   58.3615   30.4289   47.2585 H   0  0  0  0  0  0  0  0  0  0  0  0
  1  2  2  0
  2  3  1  0
  3  4  2  0
  4  5  1  0
  5  6  2  0
  5  7  1  0
  7  8  1  0
  8  9  1  0
  9 10  1  0
 10 11  2  0
 11 12  1  0
 12 13  2  0
 13 14  1  0
 14 15  2  0
 15 16  1  0
 16  2  1  0
 16  7  1  0
 15 10  1  0
  3 17  1  0
  4 18  1  0
  8 19  1  0
  8 20  1  0
  9 21  1  0
  9 22  1  0
 11 23  1  0
 12 24  1  0
 13 25  1  0
 14 26  1  0
 16 27  1  1
M  END
>  <UniqueID>  (15) 
12

>  <SMILES>  (15) 
O=C1C=CC(=O)N2CCc3ccccc3[C@H]12

>  <Energy>  (15) 
38.85006135554414

>  <Genealogy>  (15) 
O=C1C=CC(=O)N2CCc3ccccc3[C@H]12 (chirality)
O=C1C=CC(=O)N2CCc3ccccc3[C@H]12 (3D coordinates assigned)
O=C1C=CC(=O)N2CCc3ccccc3[C@H]12 (nonaromatic ring conformer: 38.85006135554414 kcal/mol)

>  <smiles>  (15) 
O=C1C=CC(=O)N2CCc3ccccc3C12

>  <score_type>  (15) 
oracle

>  <origin>  (15) 
adg

>  <m_score__min__energy>  (15) 
-6.79

>  <m_primary>  (15) 
energy

$$$$
15:0
     RDKit          3D

 26 28  0  0  0  0  0  0  0  0999 V2000
   61.2440   28.7970   44.5470 C   0  0  0  0  0  0  0  0  0  0  0  0
   60.0080   29.3230   45.0060 O   0  0  0  0  0  0  0  0  0  0  0  0
   58.8420   28.5860   45.2710 C   0  0  0  0  0  0  0  0  0  0  0  0
   57.5960   29.1630   44.9830 C   0  0  0  0  0  0  0  0  0  0  0  0
   57.2880   30.3980   44.4570 C   0  0  0  0  0  0  0  0  0  0  0  0
   55.9010   30.4230   44.3960 C   0  0  0  0  0  0  0  0  0  0  0  0
   55.3980   29.2900   44.8490 O   0  0  0  0  0  0  0  0  0  0  0  0
   56.3940   28.5180   45.2090 C   0  0  0  0  0  0  0  0  0  0  0  0
   56.3390   27.2180   45.7480 C   0  0  0  0  0  0  0  0  0  0  0  0
   55.1530   26.5130   45.9980 O   0  0  0  0  0  0  0  0  0  0  0  0
   54.9250   25.1600   45.6210 C   0  0  0  0  0  0  0  0  0  0  0  0
   57.5770   26.6300   46.0390 C   0  0  0  0  0  0  0  0  0  0  0  0
   57.7720   25.4370   46.5430 O   0  0  0  0  0  0  0  0  0  0  0  0
   59.0720   25.2580   46.6660 C   0  0  0  0  0  0  0  0  0  0  0  0
   59.7610   26.3790   46.2240 C   0  0  0  0  0  0  0  0  0  0  0  0
   58.7880   27.2750   45.8150 C   0  0  0  0  0  0  0  0  0  0  0  0
   61.8718   28.5298   45.4098 H   0  0  0  0  0  0  0  0  0  0  0  0
   61.0573   27.9004   43.9377 H   0  0  0  0  0  0  0  0  0  0  0  0
   61.7607   29.5532   43.9377 H   0  0  0  0  0  0  0  0  0  0  0  0
   57.9872   31.1906   44.1521 H   0  0  0  0  0  0  0  0  0  0  0  0
   55.3049   31.2687   44.0224 H   0  0  0  0  0  0  0  0  0  0  0  0
   54.8206   24.5404   46.5239 H   0  0  0  0  0  0  0  0  0  0  0  0
   54.0034   25.0961   45.0238 H   0  0  0  0  0  0  0  0  0  0  0  0
   55.7747   24.7976   45.0238 H   0  0  0  0  0  0  0  0  0  0  0  0
   59.5448   24.3477   47.0633 H   0  0  0  0  0  0  0  0  0  0  0  0
   60.8511   26.5248   46.2031 H   0  0  0  0  0  0  0  0  0  0  0  0
  1  2  1  0
  2  3  1  0
  3  4  2  0
  4  5  1  0
  5  6  2  0
  6  7  1  0
  7  8  1  0
  8  9  2  0
  9 10  1  0
 10 11  1  0
  9 12  1  0
 12 13  1  0
 13 14  1  0
 14 15  2  0
 15 16  1  0
 16  3  1  0
  8  4  1  0
 16 12  2  0
  1 17  1  0
  1 18  1  0
  1 19  1  0
  5 20  1  0
  6 21  1  0
 11 22  1  0
 11 23  1  0
 11 24  1  0
 14 25  1  0
 15 26  1  0
M  END
>  <UniqueID>  (16) 
13

>  <SMILES>  (16) 
COc1c2ccoc2c(OC)c2occc12

>  <Energy>  (16) 
96.46880556227349

>  <Genealogy>  (16) 
COc1c2ccoc2c(OC)c2occc12 (3D coordinates assigned)
COc1c2ccoc2c(OC)c2occc12 (optimized conformer: 96.46880556227349 kcal/mol)

>  <smiles>  (16) 
COc1c2ccoc2c(OC)c2occc12

>  <score_type>  (16) 
oracle

>  <origin>  (16) 
adg

>  <m_score__min__energy>  (16) 
-5.2699999999999996

>  <m_primary>  (16) 
energy

$$$$
16:0
     RDKit          3D

 27 28  0  0  0  0  0  0  0  0999 V2000
   60.4120   27.0810   46.0540 C   0  0  0  0  0  0  0  0  0  0  0  0
   58.8330   27.6790   45.4990 S   0  0  0  0  0  0  0  0  0  0  0  0
   57.8100   27.4480   46.5750 O   0  0  0  0  0  0  0  0  0  0  0  0
   58.4280   26.9360   44.2570 O   0  0  0  0  0  0  0  0  0  0  0  0
   58.9570   29.4220   45.1440 C   0  0  0  0  0  0  0  0  0  0  0  0
   57.6310   29.9540   44.6810 C   0  0  0  0  0  0  0  0  0  0  0  0
   56.6160   29.1800   44.2610 N   0  0  0  0  0  0  0  0  0  0  0  0
   55.5620   29.9730   44.1480 N   0  0  0  0  0  0  0  0  0  0  0  0
   55.9040   31.2060   44.4960 N   0  0  0  0  0  0  0  0  0  0  0  0
   57.1860   31.2190   44.8250 N   0  0  0  0  0  0  0  0  0  0  0  0
   57.8820   32.3700   45.3180 C   0  0  0  0  0  0  0  0  0  0  0  0
   58.1420   33.4470   44.4580 C   0  0  0  0  0  0  0  0  0  0  0  0
   58.8230   34.5750   44.9280 C   0  0  0  0  0  0  0  0  0  0  0  0
   59.2600   34.6260   46.2540 C   0  0  0  0  0  0  0  0  0  0  0  0
   59.9210   35.7200   46.7080 F   0  0  0  0  0  0  0  0  0  0  0  0
   59.0260   33.5460   47.1110 C   0  0  0  0  0  0  0  0  0  0  0  0
   58.3450   32.4160   46.6450 C   0  0  0  0  0  0  0  0  0  0  0  0
   58.1720   31.3550   47.4720 F   0  0  0  0  0  0  0  0  0  0  0  0
   60.4349   27.0723   47.1537 H   0  0  0  0  0  0  0  0  0  0  0  0
   60.5711   26.0604   45.6759 H   0  0  0  0  0  0  0  0  0  0  0  0
   61.2073   27.7402   45.6759 H   0  0  0  0  0  0  0  0  0  0  0  0
   59.2650   29.9570   46.0545 H   0  0  0  0  0  0  0  0  0  0  0  0
   59.7015   29.5736   44.3485 H   0  0  0  0  0  0  0  0  0  0  0  0
   56.6180   28.1490   44.0970 H   0  0  0  0  0  0  0  0  0  0  0  0
   57.8093   33.4046   43.4104 H   0  0  0  0  0  0  0  0  0  0  0  0
   59.0145   35.4223   44.2531 H   0  0  0  0  0  0  0  0  0  0  0  0
   59.3777   33.5849   48.1525 H   0  0  0  0  0  0  0  0  0  0  0  0
  1  2  1  0
  2  3  2  0
  2  4  2  0
  2  5  1  0
  5  6  1  0
  6  7  2  0
  7  8  1  0
  8  9  2  0
  9 10  1  0
 10 11  1  0
 11 12  2  0
 12 13  1  0
 13 14  2  0
 14 15  1  0
 14 16  1  0
 16 17  2  0
 17 18  1  0
 10  6  1  0
 17 11  1  0
  1 19  1  0
  1 20  1  0
  1 21  1  0
  5 22  1  0
  5 23  1  0
  7 24  1  0
 12 25  1  0
 13 26  1  0
 16 27  1  0
M  CHG  1   7   1
M  END
>  <UniqueID>  (17) 
14

>  <SMILES>  (17) 
CS(=O)(=O)Cc1[nH+]nnn1-c1ccc(F)cc1F

>  <Energy>  (17) 
66.10306079669053

>  <Genealogy>  (17) 
CS(=O)(=O)Cc1[nH+]nnn1-c1ccc(F)cc1F (protonated)
CS(=O)(=O)Cc1[nH+]nnn1-c1ccc(F)cc1F (3D coordinates assigned)
CS(=O)(=O)Cc1[nH+]nnn1-c1ccc(F)cc1F (optimized conformer: 66.10306079669053 kcal/mol)

>  <smiles>  (17) 
CS(=O)(=O)Cc1nnnn1-c1ccc(F)cc1F

>  <score_type>  (17) 
oracle

>  <origin>  (17) 
adg

>  <m_score__min__energy>  (17) 
-5.3300000000000001

>  <m_primary>  (17) 
energy

$$$$
17:0
     RDKit          3D

 29 30  0  0  0  0  0  0  0  0999 V2000
   57.7710   31.9340   42.7910 C   0  0  0  0  0  0  0  0  0  0  0  0
   57.8770   32.3900   44.2220 C   0  0  0  0  0  0  0  0  0  0  0  0
   57.8020   33.7620   44.5150 C   0  0  0  0  0  0  0  0  0  0  0  0
   57.8960   34.2120   45.8330 C   0  0  0  0  0  0  0  0  0  0  0  0
   58.0780   33.3000   46.8710 C   0  0  0  0  0  0  0  0  0  0  0  0
   58.1640   31.9340   46.5970 C   0  0  0  0  0  0  0  0  0  0  0  0
   58.0590   31.4600   45.2760 C   0  0  0  0  0  0  0  0  0  0  0  0
   58.1870   30.0530   45.0020 N   0  0  0  0  0  0  0  0  0  0  0  0
   57.0890   29.1330   45.0860 C   0  0  0  0  0  0  0  0  0  0  0  0
   55.9060   29.5550   44.9680 O   0  0  0  0  0  0  0  0  0  0  0  0
   57.3200   27.6820   45.2320 C   0  0  0  0  0  0  0  0  0  0  0  0
   57.1450   26.9690   46.4000 C   0  0  0  0  0  0  0  0  0  0  0  0
   57.4890   25.6720   46.0740 C   0  0  0  0  0  0  0  0  0  0  0  0
   57.8650   25.6150   44.7820 N   0  0  0  0  0  0  0  0  0  0  0  0
   57.7730   26.8360   44.2780 N   0  0  0  0  0  0  0  0  0  0  0  0
   58.1460   27.1510   42.9030 C   0  0  0  0  0  0  0  0  0  0  0  0
   57.5220   30.8629   42.7650 H   0  0  0  0  0  0  0  0  0  0  0  0
   56.9820   32.5063   42.2813 H   0  0  0  0  0  0  0  0  0  0  0  0
   58.7316   32.0996   42.2813 H   0  0  0  0  0  0  0  0  0  0  0  0
   57.6681   34.4875   43.6991 H   0  0  0  0  0  0  0  0  0  0  0  0
   57.8264   35.2876   46.0526 H   0  0  0  0  0  0  0  0  0  0  0  0
   58.1540   33.6574   47.9085 H   0  0  0  0  0  0  0  0  0  0  0  0
   58.3152   31.2214   47.4212 H   0  0  0  0  0  0  0  0  0  0  0  0
   59.0970   29.6900   44.6420 H   0  0  0  0  0  0  0  0  0  0  0  0
   56.8064   27.3494   47.3750 H   0  0  0  0  0  0  0  0  0  0  0  0
   57.4603   24.8160   46.7642 H   0  0  0  0  0  0  0  0  0  0  0  0
   58.9864   27.8607   42.9045 H   0  0  0  0  0  0  0  0  0  0  0  0
   58.4459   26.2287   42.3840 H   0  0  0  0  0  0  0  0  0  0  0  0
   57.2869   27.6011   42.3840 H   0  0  0  0  0  0  0  0  0  0  0  0
  1  2  1  0
  2  3  2  0
  3  4  1  0
  4  5  2  0
  5  6  1  0
  6  7  2  0
  7  8  1  0
  8  9  1  0
  9 10  2  0
  9 11  1  0
 11 12  2  0
 12 13  1  0
 13 14  2  0
 14 15  1  0
 15 16  1  0
  7  2  1  0
 15 11  1  0
  1 17  1  0
  1 18  1  0
  1 19  1  0
  3 20  1  0
  4 21  1  0
  5 22  1  0
  6 23  1  0
  8 24  1  0
 12 25  1  0
 13 26  1  0
 16 27  1  0
 16 28  1  0
 16 29  1  0
M  END
>  <UniqueID>  (18) 
15

>  <SMILES>  (18) 
Cc1ccccc1NC(=O)c1ccnn1C

>  <Energy>  (18) 
64.95029130433372

>  <Genealogy>  (18) 
Cc1ccccc1NC(=O)c1ccnn1C (3D coordinates assigned)
Cc1ccccc1NC(=O)c1ccnn1C (optimized conformer: 64.95029130433372 kcal/mol)

>  <smiles>  (18) 
Cc1ccccc1NC(=O)c1ccnn1C

>  <score_type>  (18) 
oracle

>  <origin>  (18) 
adg

>  <m_score__min__energy>  (18) 
-5.96

>  <m_primary>  (18) 
energy

$$$$
18:0
     RDKit          3D

 53 55  0  0  0  0  0  0  0  0999 V2000
   59.3670   29.7010   48.3690 O   0  0  0  0  0  0  0  0  0  0  0  0
   60.4200   29.4550   47.7180 C   0  0  0  0  0  0  0  0  0  0  0  0
   61.4160   30.4690   47.5510 N   0  0  0  0  0  0  0  0  0  0  0  0
   61.2370   31.8150   48.0950 C   0  0  0  0  0  0  0  0  0  0  0  0
   61.6320   32.9000   47.0810 C   0  0  0  0  0  0  0  0  0  0  0  0
   60.6470   34.0840   47.0030 C   0  0  0  0  0  0  0  0  0  0  0  0
   59.7480   34.0790   45.7520 C   0  0  0  0  0  0  0  0  0  0  0  0
   58.3160   34.1960   46.1000 N   0  0  0  0  0  0  0  0  0  0  0  0
   57.8730   33.1100   47.0000 C   0  0  0  0  0  0  0  0  0  0  0  0
   58.4480   31.7750   46.5180 C   0  0  0  0  0  0  0  0  0  0  0  0
   57.8090   31.1620   45.2810 C   0  0  0  0  0  0  0  0  0  0  0  0
   57.4950   29.7910   45.3430 C   0  0  0  0  0  0  0  0  0  0  0  0
   56.9930   29.1170   44.2280 C   0  0  0  0  0  0  0  0  0  0  0  0
   56.8160   29.7950   43.0240 C   0  0  0  0  0  0  0  0  0  0  0  0
   57.1300   31.1510   42.9340 C   0  0  0  0  0  0  0  0  0  0  0  0
   57.6120   31.8510   44.0520 C   0  0  0  0  0  0  0  0  0  0  0  0
   57.9010   33.2480   43.9040 N   0  0  0  0  0  0  0  0  0  0  0  0
   57.4670   34.2360   44.8920 C   0  0  0  0  0  0  0  0  0  0  0  0
   60.6270   28.1930   47.1510 O   0  0  0  0  0  0  0  0  0  0  0  0
   60.1280   26.9860   47.7240 C   0  0  0  0  0  0  0  0  0  0  0  0
   58.9940   26.4440   46.8980 C   0  0  0  0  0  0  0  0  0  0  0  0
   57.7040   26.9830   47.0360 C   0  0  0  0  0  0  0  0  0  0  0  0
   56.6410   26.4670   46.2900 C   0  0  0  0  0  0  0  0  0  0  0  0
   56.8570   25.4100   45.4020 C   0  0  0  0  0  0  0  0  0  0  0  0
   58.1360   24.8640   45.2620 C   0  0  0  0  0  0  0  0  0  0  0  0
   59.2020   25.3770   46.0070 C   0  0  0  0  0  0  0  0  0  0  0  0
   62.2870   30.2180   47.0310 H   0  0  0  0  0  0  0  0  0  0  0  0
   60.1800   31.9508   48.3675 H   0  0  0  0  0  0  0  0  0  0  0  0
   61.8895   31.9167   48.9747 H   0  0  0  0  0  0  0  0  0  0  0  0
   62.6203   33.2920   47.3632 H   0  0  0  0  0  0  0  0  0  0  0  0
   61.6290   32.4217   46.0904 H   0  0  0  0  0  0  0  0  0  0  0  0
   60.0002   34.0533   47.8922 H   0  0  0  0  0  0  0  0  0  0  0  0
   61.2566   34.9981   46.9493 H   0  0  0  0  0  0  0  0  0  0  0  0
   60.0281   34.9270   45.1098 H   0  0  0  0  0  0  0  0  0  0  0  0
   59.8945   33.1211   45.2315 H   0  0  0  0  0  0  0  0  0  0  0  0
   58.2275   33.3137   48.0212 H   0  0  0  0  0  0  0  0  0  0  0  0
   56.7743   33.0572   46.9946 H   0  0  0  0  0  0  0  0  0  0  0  0
   59.5147   31.9312   46.2994 H   0  0  0  0  0  0  0  0  0  0  0  0
   58.2448   31.0626   47.3312 H   0  0  0  0  0  0  0  0  0  0  0  0
   57.6475   29.2424   46.2842 H   0  0  0  0  0  0  0  0  0  0  0  0
   56.7370   28.0496   44.3004 H   0  0  0  0  0  0  0  0  0  0  0  0
   56.4285   29.2608   42.1440 H   0  0  0  0  0  0  0  0  0  0  0  0
   56.9987   31.6777   41.9772 H   0  0  0  0  0  0  0  0  0  0  0  0
   58.0580   33.6070   42.9350 H   0  0  0  0  0  0  0  0  0  0  0  0
   57.5266   35.2394   44.4453 H   0  0  0  0  0  0  0  0  0  0  0  0
   56.4333   34.0016   45.1863 H   0  0  0  0  0  0  0  0  0  0  0  0
   60.9368   26.2414   47.7624 H   0  0  0  0  0  0  0  0  0  0  0  0
   59.7610   27.1976   48.7392 H   0  0  0  0  0  0  0  0  0  0  0  0
   57.5299   27.8149   47.7344 H   0  0  0  0  0  0  0  0  0  0  0  0
   55.6332   26.8933   46.4019 H   0  0  0  0  0  0  0  0  0  0  0  0
   56.0199   25.0074   44.8128 H   0  0  0  0  0  0  0  0  0  0  0  0
   58.3040   24.0298   44.5649 H   0  0  0  0  0  0  0  0  0  0  0  0
   60.2071   24.9441   45.8955 H   0  0  0  0  0  0  0  0  0  0  0  0
  1  2  2  0
  2  3  1  0
  3  4  1  0
  4  5  1  0
  5  6  1  0
  6  7  1  0
  7  8  1  0
  8  9  1  0
  9 10  1  0
 10 11  1  0
 11 12  2  0
 12 13  1  0
 13 14  2  0
 14 15  1  0
 15 16  2  0
 16 17  1  0
 17 18  1  0
  2 19  1  0
 19 20  1  0
 20 21  1  0
 21 22  2  0
 22 23  1  0
 23 24  2  0
 24 25  1  0
 25 26  2  0
 18  8  1  0
 26 21  1  0
 16 11  1  0
  3 27  1  0
  4 28  1  0
  4 29  1  0
  5 30  1  0
  5 31  1  0
  6 32  1  0
  6 33  1  0
  7 34  1  0
  7 35  1  0
  9 36  1  0
  9 37  1  0
 10 38  1  0
 10 39  1  0
 12 40  1  0
 13 41  1  0
 14 42  1  0
 15 43  1  0
 17 44  1  0
 18 45  1  0
 18 46  1  0
 20 47  1  0
 20 48  1  0
 22 49  1  0
 23 50  1  0
 24 51  1  0
 25 52  1  0
 26 53  1  0
M  END
>  <UniqueID>  (19) 
16

>  <SMILES>  (19) 
O=C(NCCCCN1CCc2ccccc2NC1)OCc1ccccc1

>  <Energy>  (19) 
60.325171073606725

>  <Genealogy>  (19) 
O=C(NCCCCN1CCc2ccccc2NC1)OCc1ccccc1 (3D coordinates assigned)
O=C(NCCCCN1CCc2ccccc2NC1)OCc1ccccc1 (nonaromatic ring conformer: 60.325171073606725 kcal/mol)

>  <smiles>  (19) 
O=C(NCCCCN1CCc2ccccc2NC1)OCc1ccccc1

>  <score_type>  (19) 
oracle

>  <origin>  (19) 
adg

>  <m_score__min__energy>  (19) 
-6.2800000000000002

>  <m_primary>  (19) 
energy

$$$$
19:0
     RDKit          3D

 36 38  0  0  1  0  0  0  0  0999 V2000
   64.3880   33.0780   49.2560 C   0  0  0  0  0  0  0  0  0  0  0  0
   63.0600   34.1700   49.8220 S   0  0  0  0  0  0  0  0  0  0  0  0
   61.7150   34.1880   48.6250 C   0  0  0  0  0  0  0  0  0  0  0  0
   60.4280   34.5310   48.9770 C   0  0  0  0  0  0  0  0  0  0  0  0
   59.4060   34.5340   48.0220 C   0  0  0  0  0  0  0  0  0  0  0  0
   59.7710   34.1780   46.7390 C   0  0  0  0  0  0  0  0  0  0  0  0
   58.7730   34.1290   45.7520 N   0  0  0  0  0  0  0  0  0  0  0  0
   58.5310   33.1760   44.9770 C   0  0  0  0  0  0  0  0  0  0  0  0
   58.3930   33.4140   43.6580 N   0  0  0  0  0  0  0  0  0  0  0  0
   58.1320   32.4430   42.7590 C   0  0  0  0  0  0  0  0  0  0  0  0
   58.0090   31.1980   43.2080 N   0  0  0  0  0  0  0  0  0  0  0  0
   58.1380   30.9110   44.5160 C   0  0  0  0  0  0  0  0  0  0  0  0
   57.9870   29.5460   44.8940 N   0  0  0  0  0  0  0  0  0  0  0  0
   59.0340   28.5770   45.2230 C   0  0  0  0  0  0  0  0  0  0  0  0
   58.4020   27.2930   44.7220 C   0  0  0  0  0  0  0  0  0  0  0  0
   57.0050   27.4520   44.9330 O   0  0  0  0  0  0  0  0  0  0  0  0
   56.7630   28.8300   45.0330 C   0  0  0  0  0  0  0  0  0  0  0  0
   55.6260   29.3400   45.2190 O   0  0  0  0  0  0  0  0  0  0  0  0
   58.4090   31.9090   45.4620 C   0  0  0  0  0  0  0  0  0  0  0  0
   58.5250   31.4980   46.8050 C   0  0  0  0  0  0  0  0  0  0  0  0
   58.6410   31.1570   47.9010 N   0  0  0  0  0  0  0  0  0  0  0  0
   61.0590   33.8320   46.3770 C   0  0  0  0  0  0  0  0  0  0  0  0
   62.0550   33.8330   47.3290 C   0  0  0  0  0  0  0  0  0  0  0  0
   64.9075   32.6508   50.1264 H   0  0  0  0  0  0  0  0  0  0  0  0
   63.9613   32.2660   48.6488 H   0  0  0  0  0  0  0  0  0  0  0  0
   65.1022   33.6535   48.6488 H   0  0  0  0  0  0  0  0  0  0  0  0
   60.2021   34.8049   50.0181 H   0  0  0  0  0  0  0  0  0  0  0  0
   58.3711   34.8044   48.2784 H   0  0  0  0  0  0  0  0  0  0  0  0
   58.0244   32.6739   41.6889 H   0  0  0  0  0  0  0  0  0  0  0  0
   57.8040   30.4450   42.5000 H   0  0  0  0  0  0  0  0  0  0  0  0
   59.9722   28.7996   44.6936 H   0  0  0  0  0  0  0  0  0  0  0  0
   59.3200   28.5591   46.2850 H   0  0  0  0  0  0  0  0  0  0  0  0
   58.6159   27.1507   43.6524 H   0  0  0  0  0  0  0  0  0  0  0  0
   58.7971   26.4108   45.2470 H   0  0  0  0  0  0  0  0  0  0  0  0
   61.2874   33.5578   45.3365 H   0  0  0  0  0  0  0  0  0  0  0  0
   63.0884   33.5604   47.0685 H   0  0  0  0  0  0  0  0  0  0  0  0
  1  2  1  0
  2  3  1  0
  3  4  2  0
  4  5  1  0
  5  6  2  0
  6  7  1  0
  7  8  2  0
  8  9  1  0
  9 10  2  0
 10 11  1  0
 11 12  1  0
 12 13  1  0
 13 14  1  0
 14 15  1  0
 15 16  1  0
 16 17  1  0
 17 18  2  0
 12 19  2  0
 19 20  1  0
 20 21  3  0
  6 22  1  0
 22 23  2  0
 23  3  1  0
 19  8  1  0
 17 13  1  0
  1 24  1  0
  1 25  1  0
  1 26  1  0
  4 27  1  0
  5 28  1  0
 10 29  1  0
 11 30  1  0
 14 31  1  0
 14 32  1  0
 15 33  1  0
 15 34  1  0
 22 35  1  0
 23 36  1  0
M  END
>  <smiles>  (20) 
CSc1ccc(N=c2nc[nH]c(N3CCOC3=O)c2C#N)cc1

>  <score_type>  (20) 
oracle

>  <origin>  (20) 
adg

>  <m_score__min__energy>  (20) 
-7.5700000000000003

>  <m_primary>  (20) 
energy

$$$$
20:0
     RDKit          3D

 42 44  0  0  0  0  0  0  0  0999 V2000
   63.0600   31.8520   49.1130 C   0  0  0  0  0  0  0  0  0  0  0  0
   63.4290   33.1780   48.5880 N   0  0  0  0  0  0  0  0  0  0  0  0
   62.5400   34.2410   49.1060 C   0  0  0  0  0  0  0  0  0  0  0  0
   61.1070   34.1040   48.5640 C   0  0  0  0  0  0  0  0  0  0  0  0
   61.1220   33.6650   47.1640 N   0  0  0  0  0  0  0  0  0  0  0  0
   59.9520   33.0530   46.5860 C   0  0  0  0  0  0  0  0  0  0  0  0
   59.2980   33.6540   45.4970 C   0  0  0  0  0  0  0  0  0  0  0  0
   58.1770   33.0500   44.9230 C   0  0  0  0  0  0  0  0  0  0  0  0
   57.7030   31.8220   45.4170 C   0  0  0  0  0  0  0  0  0  0  0  0
   56.5490   31.1790   44.8560 N   0  0  0  0  0  0  0  0  0  0  0  0
   56.3150   29.7650   44.7960 C   0  0  0  0  0  0  0  0  0  0  0  0
   55.1370   29.3570   44.6110 O   0  0  0  0  0  0  0  0  0  0  0  0
   57.3990   28.7760   44.9940 C   0  0  0  0  0  0  0  0  0  0  0  0
   57.3190   27.8200   46.0220 C   0  0  0  0  0  0  0  0  0  0  0  0
   58.3520   26.8960   46.1850 C   0  0  0  0  0  0  0  0  0  0  0  0
   59.4460   26.9190   45.3220 C   0  0  0  0  0  0  0  0  0  0  0  0
   59.4910   27.8680   44.3010 C   0  0  0  0  0  0  0  0  0  0  0  0
   58.4770   28.7660   44.1530 N   0  0  0  0  0  0  0  0  0  0  0  0
   58.3440   31.2300   46.5110 C   0  0  0  0  0  0  0  0  0  0  0  0
   59.4660   31.8340   47.0850 C   0  0  0  0  0  0  0  0  0  0  0  0
   62.3520   33.8450   46.3880 C   0  0  0  0  0  0  0  0  0  0  0  0
   63.5390   33.1740   47.1050 C   0  0  0  0  0  0  0  0  0  0  0  0
   63.0672   31.8780   50.2127 H   0  0  0  0  0  0  0  0  0  0  0  0
   62.0533   31.5847   48.7592 H   0  0  0  0  0  0  0  0  0  0  0  0
   63.7839   31.1031   48.7592 H   0  0  0  0  0  0  0  0  0  0  0  0
   62.5126   34.1782   50.2039 H   0  0  0  0  0  0  0  0  0  0  0  0
   62.9389   35.2110   48.7744 H   0  0  0  0  0  0  0  0  0  0  0  0
   60.5614   33.3645   49.1685 H   0  0  0  0  0  0  0  0  0  0  0  0
   60.6116   35.0844   48.6220 H   0  0  0  0  0  0  0  0  0  0  0  0
   59.6715   34.6068   45.0938 H   0  0  0  0  0  0  0  0  0  0  0  0
   57.6630   33.5370   44.0812 H   0  0  0  0  0  0  0  0  0  0  0  0
   56.4478   27.8006   46.6933 H   0  0  0  0  0  0  0  0  0  0  0  0
   58.3029   26.1511   46.9929 H   0  0  0  0  0  0  0  0  0  0  0  0
   60.2658   26.1959   45.4449 H   0  0  0  0  0  0  0  0  0  0  0  0
   60.3485   27.8916   43.6125 H   0  0  0  0  0  0  0  0  0  0  0  0
   58.5450   29.4660   43.3810 H   0  0  0  0  0  0  0  0  0  0  0  0
   57.9625   30.2835   46.9217 H   0  0  0  0  0  0  0  0  0  0  0  0
   59.9720   31.3509   47.9339 H   0  0  0  0  0  0  0  0  0  0  0  0
   62.2241   33.3905   45.3945 H   0  0  0  0  0  0  0  0  0  0  0  0
   62.5570   34.9209   46.2864 H   0  0  0  0  0  0  0  0  0  0  0  0
   63.6029   32.1297   46.7655 H   0  0  0  0  0  0  0  0  0  0  0  0
   64.4362   33.7572   46.8503 H   0  0  0  0  0  0  0  0  0  0  0  0
  1  2  1  0
  2  3  1  0
  3  4  1  0
  4  5  1  0
  5  6  1  0
  6  7  2  0
  7  8  1  0
  8  9  2  0
  9 10  1  0
 10 11  1  0
 11 12  2  0
 11 13  1  0
 13 14  2  0
 14 15  1  0
 15 16  2  0
 16 17  1  0
 17 18  2  0
  9 19  1  0
 19 20  2  0
  5 21  1  0
 21 22  1  0
 22  2  1  0
 20  6  1  0
 18 13  1  0
  1 23  1  0
  1 24  1  0
  1 25  1  0
  3 26  1  0
  3 27  1  0
  4 28  1  0
  4 29  1  0
  7 30  1  0
  8 31  1  0
 14 32  1  0
 15 33  1  0
 16 34  1  0
 17 35  1  0
 18 36  1  0
 19 37  1  0
 20 38  1  0
 21 39  1  0
 21 40  1  0
 22 41  1  0
 22 42  1  0
M  CHG  2  10  -1  18   1
M  END
>  <UniqueID>  (21) 
17

>  <SMILES>  (21) 
CN1CCN(c2ccc([N-]C(=O)c3cccc[nH+]3)cc2)CC1

>  <Energy>  (21) 
61.438596650605774

>  <Genealogy>  (21) 
CN1CCN(c2ccc([N-]C(=O)c3cccc[nH+]3)cc2)CC1 (protonated)
CN1CCN(c2ccc([N-]C(=O)c3cccc[nH+]3)cc2)CC1 (3D coordinates assigned)
CN1CCN(c2ccc([N-]C(=O)c3cccc[nH+]3)cc2)CC1 (nonaromatic ring conformer: 61.438596650605774 kcal/mol)

>  <smiles>  (21) 
CN1CCN(c2ccc(NC(=O)c3ccccn3)cc2)CC1

>  <score_type>  (21) 
oracle

>  <origin>  (21) 
adg

>  <m_score__min__energy>  (21) 
-7.8399999999999999

>  <m_primary>  (21) 
energy

$$$$
21:0
     RDKit          3D

 36 37  0  0  1  0  0  0  0  0999 V2000
   56.0900   23.7500   43.6320 C   0  0  0  0  0  0  0  0  0  0  0  0
   55.6500   23.5810   45.0710 C   0  0  0  0  0  0  0  0  0  0  0  0
   55.1110   24.8640   45.6330 C   0  0  0  0  0  0  0  0  0  0  0  0
   55.9990   25.6970   46.3380 N   0  0  0  0  0  0  0  0  0  0  0  0
   56.7230   26.6290   45.8530 C   0  0  0  0  0  0  0  0  0  0  0  0
   56.1550   27.8280   45.6140 N   0  0  0  0  0  0  0  0  0  0  0  0
   56.9300   28.8040   45.1020 C   0  0  0  0  0  0  0  0  0  0  0  0
   56.3770   29.9490   44.8750 N   0  0  0  0  0  0  0  0  0  0  0  0
   57.1080   31.1340   44.5750 C   0  0  0  0  0  0  0  0  0  0  0  0
   57.4360   31.4960   43.2780 C   0  0  0  0  0  0  0  0  0  0  0  0
   58.1430   32.6380   42.9800 C   0  0  0  0  0  0  0  0  0  0  0  0
   58.5530   33.4790   44.0010 C   0  0  0  0  0  0  0  0  0  0  0  0
   58.2340   33.1370   45.3160 C   0  0  0  0  0  0  0  0  0  0  0  0
   58.6950   34.0680   46.3770 C   0  0  0  0  0  0  0  0  0  0  0  0
   57.5240   31.9820   45.5780 C   0  0  0  0  0  0  0  0  0  0  0  0
   58.2330   28.6460   44.8210 N   0  0  0  0  0  0  0  0  0  0  0  0
   58.7870   27.4300   45.0700 C   0  0  0  0  0  0  0  0  0  0  0  0
   58.0530   26.4070   45.5850 C   0  0  0  0  0  0  0  0  0  0  0  0
   58.8580   24.7190   45.9230 Br  0  0  0  0  0  0  0  0  0  0  0  0
   57.1166   24.1443   43.6064 H   0  0  0  0  0  0  0  0  0  0  0  0
   56.0586   22.7758   43.1221 H   0  0  0  0  0  0  0  0  0  0  0  0
   55.4145   24.4527   43.1221 H   0  0  0  0  0  0  0  0  0  0  0  0
   54.8647   22.8122   45.1172 H   0  0  0  0  0  0  0  0  0  0  0  0
   56.5245   23.2820   45.6676 H   0  0  0  0  0  0  0  0  0  0  0  0
   54.7117   25.4485   44.7910 H   0  0  0  0  0  0  0  0  0  0  0  0
   54.3728   24.5479   46.3847 H   0  0  0  0  0  0  0  0  0  0  0  0
   55.1470   27.9900   45.8180 H   0  0  0  0  0  0  0  0  0  0  0  0
   57.1177   30.8428   42.4522 H   0  0  0  0  0  0  0  0  0  0  0  0
   58.3818   32.8822   41.9344 H   0  0  0  0  0  0  0  0  0  0  0  0
   59.1179   34.3967   43.7803 H   0  0  0  0  0  0  0  0  0  0  0  0
   58.4800   33.6338   47.3646 H   0  0  0  0  0  0  0  0  0  0  0  0
   59.7781   34.2314   46.2762 H   0  0  0  0  0  0  0  0  0  0  0  0
   58.1684   35.0285   46.2762 H   0  0  0  0  0  0  0  0  0  0  0  0
   57.2827   31.7308   46.6214 H   0  0  0  0  0  0  0  0  0  0  0  0
   58.7990   29.4290   44.4250 H   0  0  0  0  0  0  0  0  0  0  0  0
   59.8528   27.2696   44.8501 H   0  0  0  0  0  0  0  0  0  0  0  0
  1  2  1  0
  2  3  1  0
  3  4  1  0
  4  5  2  0
  5  6  1  0
  6  7  1  0
  7  8  2  0
  8  9  1  0
  9 10  2  0
 10 11  1  0
 11 12  2  0
 12 13  1  0
 13 14  1  0
 13 15  2  0
  7 16  1  0
 16 17  1  0
 17 18  2  0
 18 19  1  0
 18  5  1  0
 15  9  1  0
  1 20  1  0
  1 21  1  0
  1 22  1  0
  2 23  1  0
  2 24  1  0
  3 25  1  0
  3 26  1  0
  6 27  1  0
 10 28  1  0
 11 29  1  0
 12 30  1  0
 14 31  1  0
 14 32  1  0
 14 33  1  0
 15 34  1  0
 16 35  1  0
 17 36  1  0
M  END
>  <smiles>  (22) 
CCCN=c1[nH]c(=Nc2cccc(C)c2)[nH]cc1Br

>  <score_type>  (22) 
oracle

>  <origin>  (22) 
adg

>  <m_score__min__energy>  (22) 
-7.29

>  <m_primary>  (22) 
energy

$$$$
22:0
     RDKit          3D

 32 32  0  0  0  0  0  0  0  0999 V2000
   62.3650   33.5600   49.6590 C   0  0  0  0  0  0  0  0  0  0  0  0
   63.8450   33.1910   49.5260 C   0  0  0  0  0  0  0  0  0  0  0  0
   64.1490   32.5400   48.2390 N   0  0  0  0  0  0  0  0  0  0  0  0
   63.0050   32.5120   47.3630 C   0  0  0  0  0  0  0  0  0  0  0  0
   62.7270   33.7820   46.3520 S   0  0  0  0  0  0  0  0  0  0  0  0
   62.2100   31.3140   47.2740 N   0  0  0  0  0  0  0  0  0  0  0  0
   60.8760   31.2550   46.7390 C   0  0  0  0  0  0  0  0  0  0  0  0
   60.4510   30.0970   46.0770 C   0  0  0  0  0  0  0  0  0  0  0  0
   59.1500   30.0060   45.5770 C   0  0  0  0  0  0  0  0  0  0  0  0
   58.2450   31.0600   45.7470 C   0  0  0  0  0  0  0  0  0  0  0  0
   56.9520   30.9130   45.2200 O   0  0  0  0  0  0  0  0  0  0  0  0
   56.6390   30.5070   43.8870 C   0  0  0  0  0  0  0  0  0  0  0  0
   57.3990   31.3550   42.8710 C   0  0  0  0  0  0  0  0  0  0  0  0
   58.6640   32.2170   46.4320 C   0  0  0  0  0  0  0  0  0  0  0  0
   59.9660   32.3070   46.9320 C   0  0  0  0  0  0  0  0  0  0  0  0
   62.0980   33.6266   50.7240 H   0  0  0  0  0  0  0  0  0  0  0  0
   62.1841   34.5307   49.1743 H   0  0  0  0  0  0  0  0  0  0  0  0
   61.7496   32.7878   49.1743 H   0  0  0  0  0  0  0  0  0  0  0  0
   64.4464   34.1083   49.6085 H   0  0  0  0  0  0  0  0  0  0  0  0
   64.0858   32.4773   50.3277 H   0  0  0  0  0  0  0  0  0  0  0  0
   64.5140   31.5720   48.3990 H   0  0  0  0  0  0  0  0  0  0  0  0
   64.9060   33.0840   47.7640 H   0  0  0  0  0  0  0  0  0  0  0  0
   62.6370   30.4210   47.6040 H   0  0  0  0  0  0  0  0  0  0  0  0
   61.1458   29.2537   45.9499 H   0  0  0  0  0  0  0  0  0  0  0  0
   58.8336   29.0970   45.0444 H   0  0  0  0  0  0  0  0  0  0  0  0
   56.9181   29.4510   43.7565 H   0  0  0  0  0  0  0  0  0  0  0  0
   55.5597   30.6404   43.7215 H   0  0  0  0  0  0  0  0  0  0  0  0
   58.0424   32.0729   43.4007 H   0  0  0  0  0  0  0  0  0  0  0  0
   58.0200   30.7022   42.2400 H   0  0  0  0  0  0  0  0  0  0  0  0
   56.6824   31.9011   42.2400 H   0  0  0  0  0  0  0  0  0  0  0  0
   57.9637   33.0533   46.5741 H   0  0  0  0  0  0  0  0  0  0  0  0
   60.2799   33.2075   47.4802 H   0  0  0  0  0  0  0  0  0  0  0  0
  1  2  1  0
  2  3  1  0
  3  4  1  0
  4  5  2  0
  4  6  1  0
  6  7  1  0
  7  8  2  0
  8  9  1  0
  9 10  2  0
 10 11  1  0
 11 12  1  0
 12 13  1  0
 10 14  1  0
 14 15  2  0
 15  7  1  0
  1 16  1  0
  1 17  1  0
  1 18  1  0
  2 19  1  0
  2 20  1  0
  3 21  1  0
  3 22  1  0
  6 23  1  0
  8 24  1  0
  9 25  1  0
 12 26  1  0
 12 27  1  0
 13 28  1  0
 13 29  1  0
 13 30  1  0
 14 31  1  0
 15 32  1  0
M  CHG  1   3   1
M  END
>  <UniqueID>  (23) 
18

>  <SMILES>  (23) 
CC[NH2+]C(=S)Nc1ccc(OCC)cc1

>  <Energy>  (23) 
31.167743514325213

>  <Genealogy>  (23) 
CC[NH2+]C(=S)Nc1ccc(OCC)cc1 (protonated)
CC[NH2+]C(=S)Nc1ccc(OCC)cc1 (3D coordinates assigned)
CC[NH2+]C(=S)Nc1ccc(OCC)cc1 (optimized conformer: 31.167743514325213 kcal/mol)

>  <smiles>  (23) 
CCNC(=S)Nc1ccc(OCC)cc1

>  <score_type>  (23) 
oracle

>  <origin>  (23) 
adg

>  <m_score__min__energy>  (23) 
-3.9399999999999999

>  <m_primary>  (23) 
energy

$$$$
23:0
     RDKit          3D

 40 43  0  0  0  0  0  0  0  0999 V2000
   59.7720   29.0540   48.8010 C   0  0  0  0  0  0  0  0  0  0  0  0
   59.3310   28.3370   47.5590 C   0  0  0  0  0  0  0  0  0  0  0  0
   59.8090   27.0300   47.2860 C   0  0  0  0  0  0  0  0  0  0  0  0
   59.4550   26.3720   46.0940 C   0  0  0  0  0  0  0  0  0  0  0  0
   58.6210   27.0450   45.2090 C   0  0  0  0  0  0  0  0  0  0  0  0
   58.1490   26.7070   43.9580 C   0  0  0  0  0  0  0  0  0  0  0  0
   57.4130   27.7480   43.5050 N   0  0  0  0  0  0  0  0  0  0  0  0
   57.3940   28.7110   44.4200 N   0  0  0  0  0  0  0  0  0  0  0  0
   56.6790   29.9450   44.2590 C   0  0  0  0  0  0  0  0  0  0  0  0
   55.5570   30.0770   44.8190 O   0  0  0  0  0  0  0  0  0  0  0  0
   57.3110   31.1310   43.5770 C   0  0  0  0  0  0  0  0  0  0  0  0
   57.8320   32.1540   44.5580 C   0  0  0  0  0  0  0  0  0  0  0  0
   57.3950   33.4910   44.4950 C   0  0  0  0  0  0  0  0  0  0  0  0
   57.8840   34.4410   45.3970 C   0  0  0  0  0  0  0  0  0  0  0  0
   58.8260   34.0680   46.3580 C   0  0  0  0  0  0  0  0  0  0  0  0
   59.3090   32.7540   46.3940 C   0  0  0  0  0  0  0  0  0  0  0  0
   58.8120   31.7980   45.5050 C   0  0  0  0  0  0  0  0  0  0  0  0
   60.2940   32.4180   47.3280 O   0  0  0  0  0  0  0  0  0  0  0  0
   61.0030   33.4290   48.0500 C   0  0  0  0  0  0  0  0  0  0  0  0
   60.0550   34.5730   48.4310 C   0  0  0  0  0  0  0  0  0  0  0  0
   59.3040   34.9950   47.2900 O   0  0  0  0  0  0  0  0  0  0  0  0
   58.1400   28.3010   45.4670 C   0  0  0  0  0  0  0  0  0  0  0  0
   58.5030   28.9950   46.6230 C   0  0  0  0  0  0  0  0  0  0  0  0
   59.4300   28.4980   49.6864 H   0  0  0  0  0  0  0  0  0  0  0  0
   60.8697   29.1243   48.8136 H   0  0  0  0  0  0  0  0  0  0  0  0
   59.3396   30.0654   48.8136 H   0  0  0  0  0  0  0  0  0  0  0  0
   60.4627   26.5260   48.0131 H   0  0  0  0  0  0  0  0  0  0  0  0
   59.8252   25.3606   45.8703 H   0  0  0  0  0  0  0  0  0  0  0  0
   58.3367   25.7630   43.4255 H   0  0  0  0  0  0  0  0  0  0  0  0
   56.9200   27.7910   42.5850 H   0  0  0  0  0  0  0  0  0  0  0  0
   58.1490   30.7768   42.9587 H   0  0  0  0  0  0  0  0  0  0  0  0
   56.5353   31.6179   42.9676 H   0  0  0  0  0  0  0  0  0  0  0  0
   56.6632   33.7905   43.7303 H   0  0  0  0  0  0  0  0  0  0  0  0
   57.5272   35.4805   45.3497 H   0  0  0  0  0  0  0  0  0  0  0  0
   59.1869   30.7646   45.5446 H   0  0  0  0  0  0  0  0  0  0  0  0
   61.4292   32.9908   48.9645 H   0  0  0  0  0  0  0  0  0  0  0  0
   61.8070   33.8268   47.4134 H   0  0  0  0  0  0  0  0  0  0  0  0
   59.3633   34.2261   49.2128 H   0  0  0  0  0  0  0  0  0  0  0  0
   60.6486   35.4212   48.8028 H   0  0  0  0  0  0  0  0  0  0  0  0
   58.1545   30.0233   46.7994 H   0  0  0  0  0  0  0  0  0  0  0  0
  1  2  1  0
  2  3  2  0
  3  4  1  0
  4  5  2  0
  5  6  1  0
  6  7  2  0
  7  8  1  0
  8  9  1  0
  9 10  2  0
  9 11  1  0
 11 12  1  0
 12 13  2  0
 13 14  1  0
 14 15  2  0
 15 16  1  0
 16 17  2  0
 16 18  1  0
 18 19  1  0
 19 20  1  0
 20 21  1  0
  8 22  1  0
 22 23  2  0
 23  2  1  0
 22  5  1  0
 17 12  1  0
 21 15  1  0
  1 24  1  0
  1 25  1  0
  1 26  1  0
  3 27  1  0
  4 28  1  0
  6 29  1  0
  7 30  1  0
 11 31  1  0
 11 32  1  0
 13 33  1  0
 14 34  1  0
 17 35  1  0
 19 36  1  0
 19 37  1  0
 20 38  1  0
 20 39  1  0
 23 40  1  0
M  CHG  1   7   1
M  END
>  <UniqueID>  (24) 
19

>  <SMILES>  (24) 
Cc1ccc2c[nH+]n(C(=O)Cc3ccc4c(c3)OCCO4)c2c1

>  <Energy>  (24) 
87.73816395416624

>  <Genealogy>  (24) 
Cc1ccc2c[nH+]n(C(=O)Cc3ccc4c(c3)OCCO4)c2c1 (protonated)
Cc1ccc2c[nH+]n(C(=O)Cc3ccc4c(c3)OCCO4)c2c1 (3D coordinates assigned)
Cc1ccc2c[nH+]n(C(=O)Cc3ccc4c(c3)OCCO4)c2c1 (nonaromatic ring conformer: 87.73816395416624 kcal/mol)

>  <smiles>  (24) 
Cc1ccc2cnn(C(=O)Cc3ccc4c(c3)OCCO4)c2c1

>  <score_type>  (24) 
oracle

>  <origin>  (24) 
adg

>  <m_score__min__energy>  (24) 
-6.9299999999999997

>  <m_primary>  (24) 
energy

$$$$
24:0
     RDKit          3D

 43 46  0  0  0  0  0  0  0  0999 V2000
   55.4600   24.4920   46.4030 O   0  0  0  0  0  0  0  0  0  0  0  0
   56.1400   25.5190   46.1410 C   0  0  0  0  0  0  0  0  0  0  0  0
   55.5690   26.7100   45.8270 N   0  0  0  0  0  0  0  0  0  0  0  0
   56.6400   27.5100   45.6540 C   0  0  0  0  0  0  0  0  0  0  0  0
   56.6370   28.8610   45.3210 C   0  0  0  0  0  0  0  0  0  0  0  0
   57.8830   29.5220   45.1960 C   0  0  0  0  0  0  0  0  0  0  0  0
   57.9360   30.9620   44.8390 C   0  0  0  0  0  0  0  0  0  0  0  0
   58.1290   31.9430   45.8280 C   0  0  0  0  0  0  0  0  0  0  0  0
   58.1770   33.2930   45.4780 C   0  0  0  0  0  0  0  0  0  0  0  0
   58.0280   33.6580   44.1400 C   0  0  0  0  0  0  0  0  0  0  0  0
   57.8400   32.7040   43.1910 N   0  0  0  0  0  0  0  0  0  0  0  0
   57.7920   31.3820   43.5060 C   0  0  0  0  0  0  0  0  0  0  0  0
   59.0840   28.7920   45.4180 C   0  0  0  0  0  0  0  0  0  0  0  0
   59.0470   27.4270   45.7560 C   0  0  0  0  0  0  0  0  0  0  0  0
   57.7970   26.8180   45.8580 C   0  0  0  0  0  0  0  0  0  0  0  0
   57.4970   25.5410   46.1550 N   0  0  0  0  0  0  0  0  0  0  0  0
   58.4160   24.4450   46.4750 C   0  0  0  0  0  0  0  0  0  0  0  0
   58.6280   23.4590   45.2970 C   0  0  0  0  0  0  0  0  0  0  0  0
   57.4210   22.8890   44.6390 N   0  0  0  0  0  0  0  0  0  0  0  0
   56.9670   23.5650   43.4130 C   0  0  0  0  0  0  0  0  0  0  0  0
   56.1980   22.5270   42.6190 C   0  0  0  0  0  0  0  0  0  0  0  0
   56.8700   21.2170   42.9740 C   0  0  0  0  0  0  0  0  0  0  0  0
   57.4950   21.4450   44.3470 C   0  0  0  0  0  0  0  0  0  0  0  0
   55.6924   29.4009   45.1592 H   0  0  0  0  0  0  0  0  0  0  0  0
   58.2425   31.6452   46.8808 H   0  0  0  0  0  0  0  0  0  0  0  0
   58.3308   34.0617   46.2496 H   0  0  0  0  0  0  0  0  0  0  0  0
   58.0627   34.7193   43.8529 H   0  0  0  0  0  0  0  0  0  0  0  0
   57.6394   30.6364   42.7118 H   0  0  0  0  0  0  0  0  0  0  0  0
   60.0542   29.3018   45.3241 H   0  0  0  0  0  0  0  0  0  0  0  0
   59.9725   26.8596   45.9337 H   0  0  0  0  0  0  0  0  0  0  0  0
   59.3903   24.8753   46.7499 H   0  0  0  0  0  0  0  0  0  0  0  0
   57.9672   23.8741   47.3012 H   0  0  0  0  0  0  0  0  0  0  0  0
   59.2018   23.9911   44.5239 H   0  0  0  0  0  0  0  0  0  0  0  0
   59.1298   22.5916   45.7508 H   0  0  0  0  0  0  0  0  0  0  0  0
   56.6430   23.0050   45.3340 H   0  0  0  0  0  0  0  0  0  0  0  0
   56.3139   24.4136   43.6647 H   0  0  0  0  0  0  0  0  0  0  0  0
   57.8151   23.9636   42.8369 H   0  0  0  0  0  0  0  0  0  0  0  0
   55.1387   22.5151   42.9150 H   0  0  0  0  0  0  0  0  0  0  0  0
   56.2108   22.7283   41.5377 H   0  0  0  0  0  0  0  0  0  0  0  0
   56.1305   20.4038   43.0174 H   0  0  0  0  0  0  0  0  0  0  0  0
   57.6206   20.9246   42.2249 H   0  0  0  0  0  0  0  0  0  0  0  0
   56.9399   20.8795   45.1099 H   0  0  0  0  0  0  0  0  0  0  0  0
   58.5405   21.1031   44.3561 H   0  0  0  0  0  0  0  0  0  0  0  0
  1  2  2  0
  2  3  1  0
  3  4  1  0
  4  5  2  0
  5  6  1  0
  6  7  1  0
  7  8  2  0
  8  9  1  0
  9 10  2  0
 10 11  1  0
 11 12  2  0
  6 13  2  0
 13 14  1  0
 14 15  2  0
 15 16  1  0
 16 17  1  0
 17 18  1  0
 18 19  1  0
 19 20  1  0
 20 21  1  0
 21 22  1  0
 22 23  1  0
 16  2  1  0
 23 19  1  0
 15  4  1  0
 12  7  1  0
  5 24  1  0
  8 25  1  0
  9 26  1  0
 10 27  1  0
 12 28  1  0
 13 29  1  0
 14 30  1  0
 17 31  1  0
 17 32  1  0
 18 33  1  0
 18 34  1  0
 19 35  1  0
 20 36  1  0
 20 37  1  0
 21 38  1  0
 21 39  1  0
 22 40  1  0
 22 41  1  0
 23 42  1  0
 23 43  1  0
M  CHG  2   3  -1  19   1
M  END
>  <UniqueID>  (25) 
20

>  <SMILES>  (25) 
O=c1[n-]c2cc(-c3cccnc3)ccc2n1CC[NH+]1CCCC1

>  <Energy>  (25) 
99.0286678179465

>  <Genealogy>  (25) 
O=c1[n-]c2cc(-c3cccnc3)ccc2n1CC[NH+]1CCCC1 (protonated)
O=c1[n-]c2cc(-c3cccnc3)ccc2n1CC[NH+]1CCCC1 (3D coordinates assigned)
O=c1[n-]c2cc(-c3cccnc3)ccc2n1CC[NH+]1CCCC1 (nonaromatic ring conformer: 99.0286678179465 kcal/mol)

>  <smiles>  (25) 
O=c1[nH]c2cc(-c3cccnc3)ccc2n1CCN1CCCC1

>  <score_type>  (25) 
oracle

>  <origin>  (25) 
adg

>  <m_score__min__energy>  (25) 
-7.4100000000000001

>  <m_primary>  (25) 
energy

$$$$
25:0
     RDKit          3D

 48 51  0  0  0  0  0  0  0  0999 V2000
   59.0640   26.9340   48.4590 H   0  0  0  0  0  0  0  0  0  0  0  0
   59.8700   27.3120   48.9410 O   0  0  0  0  0  0  0  0  0  0  0  0
   60.0350   28.6840   49.1220 C   0  0  0  0  0  0  0  0  0  0  0  0
   59.3780   29.3240   50.1730 C   0  0  0  0  0  0  0  0  0  0  0  0
   58.7445   28.7424   50.8589 H   0  0  0  0  0  0  0  0  0  0  0  0
   59.5220   30.7000   50.3570 C   0  0  0  0  0  0  0  0  0  0  0  0
   59.0085   31.1944   51.1948 H   0  0  0  0  0  0  0  0  0  0  0  0
   60.3140   31.4570   49.4850 C   0  0  0  0  0  0  0  0  0  0  0  0
   60.3840   32.8750   49.6960 N   0  0  0  0  0  0  0  0  0  0  0  0
   59.6970   33.8750   48.9290 C   0  0  0  0  0  0  0  0  0  0  0  0
   59.4490   34.9840   49.4700 O   0  0  0  0  0  0  0  0  0  0  0  0
   59.2560   33.6340   47.5350 C   0  0  0  0  0  0  0  0  0  0  0  0
   58.0770   32.9190   47.2610 C   0  0  0  0  0  0  0  0  0  0  0  0
   57.4555   32.5511   48.0907 H   0  0  0  0  0  0  0  0  0  0  0  0
   57.6900   32.6730   45.9420 C   0  0  0  0  0  0  0  0  0  0  0  0
   56.7772   32.0937   45.7392 H   0  0  0  0  0  0  0  0  0  0  0  0
   58.4580   33.1600   44.8740 C   0  0  0  0  0  0  0  0  0  0  0  0
   58.0770   32.8330   43.4600 C   0  0  0  0  0  0  0  0  0  0  0  0
   57.0547   33.1876   43.2620 H   0  0  0  0  0  0  0  0  0  0  0  0
   58.7713   33.3268   42.7642 H   0  0  0  0  0  0  0  0  0  0  0  0
   58.1380   31.3850   43.2740 N   0  0  0  0  0  0  0  0  0  0  0  0
   57.4030   30.4890   43.8760 C   0  0  0  0  0  0  0  0  0  0  0  0
   55.9940   30.5450   43.8460 C   0  0  0  0  0  0  0  0  0  0  0  0
   55.4868   31.3575   43.3051 H   0  0  0  0  0  0  0  0  0  0  0  0
   55.2440   29.5690   44.5030 C   0  0  0  0  0  0  0  0  0  0  0  0
   54.1452   29.6143   44.4786 H   0  0  0  0  0  0  0  0  0  0  0  0
   55.8640   28.5640   45.1720 N   0  0  0  0  0  0  0  0  0  0  0  0
   57.2180   28.4680   45.2290 C   0  0  0  0  0  0  0  0  0  0  0  0
   57.8090   27.4120   45.9310 C   0  0  0  0  0  0  0  0  0  0  0  0
   57.1764   26.6653   46.4333 H   0  0  0  0  0  0  0  0  0  0  0  0
   59.2000   27.3030   45.9960 C   0  0  0  0  0  0  0  0  0  0  0  0
   59.6605   26.4710   46.5489 H   0  0  0  0  0  0  0  0  0  0  0  0
   60.0070   28.2490   45.3600 C   0  0  0  0  0  0  0  0  0  0  0  0
   61.1020   28.1595   45.4147 H   0  0  0  0  0  0  0  0  0  0  0  0
   59.4310   29.3080   44.6550 C   0  0  0  0  0  0  0  0  0  0  0  0
   60.0743   30.0481   44.1566 H   0  0  0  0  0  0  0  0  0  0  0  0
   58.0270   29.4330   44.5790 C   0  0  0  0  0  0  0  0  0  0  0  0
   59.6270   33.8860   45.1430 C   0  0  0  0  0  0  0  0  0  0  0  0
   60.2414   34.2628   44.3120 H   0  0  0  0  0  0  0  0  0  0  0  0
   60.0150   34.1330   46.4640 C   0  0  0  0  0  0  0  0  0  0  0  0
   60.9215   34.7226   46.6655 H   0  0  0  0  0  0  0  0  0  0  0  0
   61.0330   30.8050   48.4520 C   0  0  0  0  0  0  0  0  0  0  0  0
   61.9830   31.5410   47.5450 C   0  0  0  0  0  0  0  0  0  0  0  0
   62.7082   32.1029   48.1519 H   0  0  0  0  0  0  0  0  0  0  0  0
   62.5175   30.8189   46.9102 H   0  0  0  0  0  0  0  0  0  0  0  0
   61.4174   32.2389   46.9102 H   0  0  0  0  0  0  0  0  0  0  0  0
   60.8610   29.4220   48.2650 C   0  0  0  0  0  0  0  0  0  0  0  0
   61.3799   28.9152   47.4381 H   0  0  0  0  0  0  0  0  0  0  0  0
  1  2  1  0
  2  3  1  0
  3  4  2  0
  4  5  1  0
  4  6  1  0
  6  7  1  0
  6  8  2  0
  8  9  1  0
  9 10  1  0
 10 11  2  0
 10 12  1  0
 12 13  2  0
 13 14  1  0
 13 15  1  0
 15 16  1  0
 15 17  2  0
 17 18  1  0
 18 19  1  0
 18 20  1  0
 18 21  1  0
 21 22  2  0
 22 23  1  0
 23 24  1  0
 23 25  2  0
 25 26  1  0
 25 27  1  0
 27 28  1  0
 28 29  2  0
 29 30  1  0
 29 31  1  0
 31 32  1  0
 31 33  2  0
 33 34  1  0
 33 35  1  0
 35 36  1  0
 35 37  2  0
 17 38  1  0
 38 39  1  0
 38 40  2  0
 40 41  1  0
  8 42  1  0
 42 43  1  0
 43 44  1  0
 43 45  1  0
 43 46  1  0
 42 47  2  0
 47 48  1  0
 47  3  1  0
 40 12  1  0
 37 22  1  0
 37 28  1  0
M  CHG  2   9  -1  27  -1
M  END
>  <UniqueID>  (26) 
21

>  <SMILES>  (26) 
Cc1cc(O)ccc1[N-]C(=O)c1ccc(C/N=c2\cc[n-]c3ccccc23)cc1

>  <Energy>  (26) 
67.26581904297072

>  <Genealogy>  (26) 
Cc1cc(O)ccc1[N-]C(=O)c1ccc(CN=c2cc[n-]c3ccccc23)cc1 (protonated)
Cc1cc(O)ccc1[N-]C(=O)c1ccc(C/N=c2\cc[n-]c3ccccc23)cc1 (cis-trans isomerization)
Cc1cc(O)ccc1[N-]C(=O)c1ccc(C/N=c2\cc[n-]c3ccccc23)cc1 (3D coordinates assigned)
Cc1cc(O)ccc1[N-]C(=O)c1ccc(C/N=c2\cc[n-]c3ccccc23)cc1 (optimized conformer: 67.26581904297072 kcal/mol)

>  <smiles>  (26) 
Cc1cc(O)ccc1NC(=O)c1ccc(CN=c2cc[nH]c3ccccc23)cc1

>  <score_type>  (26) 
oracle

>  <origin>  (26) 
adg

>  <m_score__min__energy>  (26) 
-11.449999999999999

>  <m_primary>  (26) 
energy

$$$$
26:0
     RDKit          3D

 42 44  0  0  0  0  0  0  0  0999 V2000
   56.2850   22.1280   42.6270 C   0  0  0  0  0  0  0  0  0  0  0  0
   57.1310   22.6790   43.7360 C   0  0  0  0  0  0  0  0  0  0  0  0
   58.3110   22.0230   44.1190 C   0  0  0  0  0  0  0  0  0  0  0  0
   59.0800   22.5190   45.1760 C   0  0  0  0  0  0  0  0  0  0  0  0
   58.6710   23.6630   45.8650 C   0  0  0  0  0  0  0  0  0  0  0  0
   57.4830   24.3130   45.5070 C   0  0  0  0  0  0  0  0  0  0  0  0
   56.9510   25.7480   46.3790 S   0  0  0  0  0  0  0  0  0  0  0  0
   57.0590   25.4830   47.8540 O   0  0  0  0  0  0  0  0  0  0  0  0
   55.5190   26.0550   46.0330 O   0  0  0  0  0  0  0  0  0  0  0  0
   57.9560   27.1090   45.9410 N   0  0  0  0  0  0  0  0  0  0  0  0
   57.4200   27.8040   44.7420 C   0  0  0  0  0  0  0  0  0  0  0  0
   56.8750   29.2100   45.0330 C   0  0  0  0  0  0  0  0  0  0  0  0
   57.8790   30.0030   45.7530 N   0  0  0  0  0  0  0  0  0  0  0  0
   57.9540   31.4360   45.5810 C   0  0  0  0  0  0  0  0  0  0  0  0
   57.8180   32.0150   44.3030 C   0  0  0  0  0  0  0  0  0  0  0  0
   57.8880   33.4020   44.1420 C   0  0  0  0  0  0  0  0  0  0  0  0
   58.0930   34.2270   45.2500 C   0  0  0  0  0  0  0  0  0  0  0  0
   58.2260   33.6660   46.5220 C   0  0  0  0  0  0  0  0  0  0  0  0
   58.1560   32.2800   46.6890 C   0  0  0  0  0  0  0  0  0  0  0  0
   58.7490   29.3300   46.7270 C   0  0  0  0  0  0  0  0  0  0  0  0
   58.1590   27.9730   47.1220 C   0  0  0  0  0  0  0  0  0  0  0  0
   56.7150   23.8180   44.4430 C   0  0  0  0  0  0  0  0  0  0  0  0
   55.4356   21.5748   43.0540 H   0  0  0  0  0  0  0  0  0  0  0  0
   55.9093   22.9552   42.0068 H   0  0  0  0  0  0  0  0  0  0  0  0
   56.8896   21.4500   42.0068 H   0  0  0  0  0  0  0  0  0  0  0  0
   58.6318   21.1158   43.5860 H   0  0  0  0  0  0  0  0  0  0  0  0
   60.0095   22.0070   45.4657 H   0  0  0  0  0  0  0  0  0  0  0  0
   59.2833   24.0545   46.6907 H   0  0  0  0  0  0  0  0  0  0  0  0
   58.2287   27.8918   44.0015 H   0  0  0  0  0  0  0  0  0  0  0  0
   56.5757   27.2028   44.3737 H   0  0  0  0  0  0  0  0  0  0  0  0
   56.6304   29.7087   44.0836 H   0  0  0  0  0  0  0  0  0  0  0  0
   55.9718   29.1236   45.6549 H   0  0  0  0  0  0  0  0  0  0  0  0
   57.6556   31.3710   43.4262 H   0  0  0  0  0  0  0  0  0  0  0  0
   57.7814   33.8444   43.1405 H   0  0  0  0  0  0  0  0  0  0  0  0
   58.1497   35.3179   45.1209 H   0  0  0  0  0  0  0  0  0  0  0  0
   58.3862   34.3164   47.3945 H   0  0  0  0  0  0  0  0  0  0  0  0
   58.2596   31.8455   47.6942 H   0  0  0  0  0  0  0  0  0  0  0  0
   59.7426   29.1770   46.2805 H   0  0  0  0  0  0  0  0  0  0  0  0
   58.8312   29.9586   47.6260 H   0  0  0  0  0  0  0  0  0  0  0  0
   58.8482   27.4720   47.8177 H   0  0  0  0  0  0  0  0  0  0  0  0
   57.1818   28.1454   47.5968 H   0  0  0  0  0  0  0  0  0  0  0  0
   55.7808   24.3255   44.1608 H   0  0  0  0  0  0  0  0  0  0  0  0
  1  2  1  0
  2  3  2  0
  3  4  1  0
  4  5  2  0
  5  6  1  0
  6  7  1  0
  7  8  2  0
  7  9  2  0
  7 10  1  0
 10 11  1  0
 11 12  1  0
 12 13  1  0
 13 14  1  0
 14 15  2  0
 15 16  1  0
 16 17  2  0
 17 18  1  0
 18 19  2  0
 13 20  1  0
 20 21  1  0
  6 22  2  0
 22  2  1  0
 21 10  1  0
 19 14  1  0
  1 23  1  0
  1 24  1  0
  1 25  1  0
  3 26  1  0
  4 27  1  0
  5 28  1  0
 11 29  1  0
 11 30  1  0
 12 31  1  0
 12 32  1  0
 15 33  1  0
 16 34  1  0
 17 35  1  0
 18 36  1  0
 19 37  1  0
 20 38  1  0
 20 39  1  0
 21 40  1  0
 21 41  1  0
 22 42  1  0
M  END
>  <UniqueID>  (27) 
22

>  <SMILES>  (27) 
Cc1cccc(S(=O)(=O)N2CCN(c3ccccc3)CC2)c1

>  <Energy>  (27) 
50.86443599503997

>  <Genealogy>  (27) 
Cc1cccc(S(=O)(=O)N2CCN(c3ccccc3)CC2)c1 (3D coordinates assigned)
Cc1cccc(S(=O)(=O)N2CCN(c3ccccc3)CC2)c1 (nonaromatic ring conformer: 50.86443599503997 kcal/mol)

>  <smiles>  (27) 
Cc1cccc(S(=O)(=O)N2CCN(c3ccccc3)CC2)c1

>  <score_type>  (27) 
oracle

>  <origin>  (27) 
adg

>  <m_score__min__energy>  (27) 
-8.1199999999999992

>  <m_primary>  (27) 
energy

$$$$
27:0
     RDKit          3D

 45 48  0  0  0  0  0  0  0  0999 V2000
   55.4771   26.5780   45.9982 H   0  0  0  0  0  0  0  0  0  0  0  0
   56.5400   26.5600   46.2810 C   0  0  0  0  0  0  0  0  0  0  0  0
   57.1400   27.6870   46.7340 N   0  0  0  0  0  0  0  0  0  0  0  0
   58.4510   27.7430   47.1040 C   0  0  0  0  0  0  0  0  0  0  0  0
   58.8910   28.9180   47.4710 N   0  0  0  0  0  0  0  0  0  0  0  0
   60.1940   29.5740   47.3660 C   0  0  0  0  0  0  0  0  0  0  0  0
   60.2374   30.4083   48.0816 H   0  0  0  0  0  0  0  0  0  0  0  0
   60.9803   28.8384   47.5907 H   0  0  0  0  0  0  0  0  0  0  0  0
   60.4140   30.1150   45.9470 C   0  0  0  0  0  0  0  0  0  0  0  0
   60.3280   31.2115   45.9607 H   0  0  0  0  0  0  0  0  0  0  0  0
   61.4159   29.8164   45.6048 H   0  0  0  0  0  0  0  0  0  0  0  0
   59.4180   29.5660   45.0270 N   0  0  0  0  0  0  0  0  0  0  0  0
   59.5380   28.3480   44.5000 N   0  0  0  0  0  0  0  0  0  0  0  0
   58.4140   28.0700   43.8000 C   0  0  0  0  0  0  0  0  0  0  0  0
   58.1340   26.7650   43.1330 C   0  0  0  0  0  0  0  0  0  0  0  0
   57.9679   25.9910   43.8968 H   0  0  0  0  0  0  0  0  0  0  0  0
   57.2357   26.8594   42.5052 H   0  0  0  0  0  0  0  0  0  0  0  0
   58.9920   26.4825   42.5052 H   0  0  0  0  0  0  0  0  0  0  0  0
   57.5590   29.1390   43.9290 C   0  0  0  0  0  0  0  0  0  0  0  0
   58.2010   30.0620   44.6870 C   0  0  0  0  0  0  0  0  0  0  0  0
   57.5360   31.2500   45.0200 C   0  0  0  0  0  0  0  0  0  0  0  0
   58.1420   32.3460   45.7850 C   0  0  0  0  0  0  0  0  0  0  0  0
   58.1830   32.2890   47.1850 C   0  0  0  0  0  0  0  0  0  0  0  0
   57.7791   31.4115   47.7111 H   0  0  0  0  0  0  0  0  0  0  0  0
   58.7370   33.3470   47.9140 C   0  0  0  0  0  0  0  0  0  0  0  0
   58.7827   33.2935   49.0117 H   0  0  0  0  0  0  0  0  0  0  0  0
   59.2320   34.4710   47.2490 C   0  0  0  0  0  0  0  0  0  0  0  0
   59.6737   35.2986   47.8234 H   0  0  0  0  0  0  0  0  0  0  0  0
   59.1670   34.5460   45.8540 C   0  0  0  0  0  0  0  0  0  0  0  0
   59.5497   35.4355   45.3321 H   0  0  0  0  0  0  0  0  0  0  0  0
   58.6150   33.4890   45.1230 C   0  0  0  0  0  0  0  0  0  0  0  0
   58.5516   33.5540   44.0268 H   0  0  0  0  0  0  0  0  0  0  0  0
   56.2570   31.3940   44.5620 N   0  0  0  0  0  0  0  0  0  0  0  0
   55.6580   30.4450   43.8260 N   0  0  0  0  0  0  0  0  0  0  0  0
   56.2910   29.3130   43.4990 N   0  0  0  0  0  0  0  0  0  0  0  0
   55.8030   28.5830   42.9350 H   0  0  0  0  0  0  0  0  0  0  0  0
   59.2270   26.5380   47.0480 C   0  0  0  0  0  0  0  0  0  0  0  0
   60.6280   26.3820   47.5860 C   0  0  0  0  0  0  0  0  0  0  0  0
   60.6009   26.3850   48.6857 H   0  0  0  0  0  0  0  0  0  0  0  0
   61.0528   25.4310   47.2323 H   0  0  0  0  0  0  0  0  0  0  0  0
   61.2516   27.2163   47.2323 H   0  0  0  0  0  0  0  0  0  0  0  0
   58.6030   25.3730   46.5620 C   0  0  0  0  0  0  0  0  0  0  0  0
   59.1811   24.4401   46.4879 H   0  0  0  0  0  0  0  0  0  0  0  0
   57.2670   25.3830   46.1740 C   0  0  0  0  0  0  0  0  0  0  0  0
   56.7928   24.4690   45.7871 H   0  0  0  0  0  0  0  0  0  0  0  0
  1  2  1  0
  2  3  1  0
  3  4  1  0
  4  5  2  0
  5  6  1  0
  6  7  1  0
  6  8  1  0
  6  9  1  0
  9 10  1  0
  9 11  1  0
  9 12  1  0
 12 13  1  0
 13 14  2  0
 14 15  1  0
 15 16  1  0
 15 17  1  0
 15 18  1  0
 14 19  1  0
 19 20  2  0
 20 21  1  0
 21 22  1  0
 22 23  2  0
 23 24  1  0
 23 25  1  0
 25 26  1  0
 25 27  2  0
 27 28  1  0
 27 29  1  0
 29 30  1  0
 29 31  2  0
 31 32  1  0
 21 33  2  0
 33 34  1  0
 34 35  2  0
 35 36  1  0
  4 37  1  0
 37 38  1  0
 38 39  1  0
 38 40  1  0
 38 41  1  0
 37 42  2  0
 42 43  1  0
 42 44  1  0
 44 45  1  0
 44  2  2  0
 20 12  1  0
 31 22  1  0
 35 19  1  0
M  CHG  2   3  -1  35   1
M  END
>  <UniqueID>  (28) 
23

>  <SMILES>  (28) 
Cc1ccc[n-]/c1=N/CCn1nc(C)c2[nH+]nnc(-c3ccccc3)c21

>  <Energy>  (28) 
111.51551908498946

>  <Genealogy>  (28) 
Cc1ccc[n-]c1=NCCn1nc(C)c2[nH+]nnc(-c3ccccc3)c21 (protonated)
Cc1ccc[n-]/c1=N/CCn1nc(C)c2[nH+]nnc(-c3ccccc3)c21 (cis-trans isomerization)
Cc1ccc[n-]/c1=N/CCn1nc(C)c2[nH+]nnc(-c3ccccc3)c21 (3D coordinates assigned)
Cc1ccc[n-]/c1=N/CCn1nc(C)c2[nH+]nnc(-c3ccccc3)c21 (optimized conformer: 111.51551908498946 kcal/mol)

>  <smiles>  (28) 
Cc1ccc[nH]c1=NCCn1nc(C)c2nnnc(-c3ccccc3)c21

>  <score_type>  (28) 
oracle

>  <origin>  (28) 
adg

>  <m_score__min__energy>  (28) 
-8.3900000000000006

>  <m_primary>  (28) 
energy

$$$$
28:0
     RDKit          3D

 24 25  0  0  0  0  0  0  0  0999 V2000
   54.5290   29.3580   43.4630 O   0  0  0  0  0  0  0  0  0  0  0  0
   55.5580   29.5700   44.1380 N   0  0  0  0  0  0  0  0  0  0  0  0
   55.8130   28.7670   45.2270 O   0  0  0  0  0  0  0  0  0  0  0  0
   56.4610   30.6340   43.7870 C   0  0  0  0  0  0  0  0  0  0  0  0
   56.7670   30.8900   42.4400 C   0  0  0  0  0  0  0  0  0  0  0  0
   57.6400   31.9240   42.0960 C   0  0  0  0  0  0  0  0  0  0  0  0
   58.2170   32.7160   43.0890 C   0  0  0  0  0  0  0  0  0  0  0  0
   57.9290   32.4810   44.4440 C   0  0  0  0  0  0  0  0  0  0  0  0
   58.5450   33.3230   45.5030 C   0  0  0  0  0  0  0  0  0  0  0  0
   58.6230   32.8600   46.8310 C   0  0  0  0  0  0  0  0  0  0  0  0
   59.2030   33.6540   47.8240 C   0  0  0  0  0  0  0  0  0  0  0  0
   59.7090   34.9160   47.5060 C   0  0  0  0  0  0  0  0  0  0  0  0
   59.6370   35.3870   46.1940 C   0  0  0  0  0  0  0  0  0  0  0  0
   59.0580   34.5980   45.1950 C   0  0  0  0  0  0  0  0  0  0  0  0
   57.0480   31.4370   44.7840 C   0  0  0  0  0  0  0  0  0  0  0  0
   56.3155   30.2713   41.6505 H   0  0  0  0  0  0  0  0  0  0  0  0
   57.8736   32.1148   41.0382 H   0  0  0  0  0  0  0  0  0  0  0  0
   58.9020   33.5299   42.8093 H   0  0  0  0  0  0  0  0  0  0  0  0
   58.2249   31.8673   47.0880 H   0  0  0  0  0  0  0  0  0  0  0  0
   59.2611   33.2841   48.8583 H   0  0  0  0  0  0  0  0  0  0  0  0
   60.1645   35.5392   48.2897 H   0  0  0  0  0  0  0  0  0  0  0  0
   60.0367   36.3812   45.9452 H   0  0  0  0  0  0  0  0  0  0  0  0
   59.0029   34.9752   44.1632 H   0  0  0  0  0  0  0  0  0  0  0  0
   56.8151   31.2460   45.8420 H   0  0  0  0  0  0  0  0  0  0  0  0
  1  2  2  0
  2  3  1  0
  2  4  1  0
  4  5  2  0
  5  6  1  0
  6  7  2  0
  7  8  1  0
  8  9  1  0
  9 10  2  0
 10 11  1  0
 11 12  2  0
 12 13  1  0
 13 14  2  0
  8 15  2  0
 15  4  1  0
 14  9  1  0
  5 16  1  0
  6 17  1  0
  7 18  1  0
 10 19  1  0
 11 20  1  0
 12 21  1  0
 13 22  1  0
 14 23  1  0
 15 24  1  0
M  CHG  2   2   1   3  -1
M  END
>  <UniqueID>  (29) 
24

>  <SMILES>  (29) 
O=[N+]([O-])c1cccc(-c2ccccc2)c1

>  <Energy>  (29) 
31.389430685064156

>  <Genealogy>  (29) 
O=[N+]([O-])c1cccc(-c2ccccc2)c1 (3D coordinates assigned)
O=[N+]([O-])c1cccc(-c2ccccc2)c1 (optimized conformer: 31.389430685064156 kcal/mol)

>  <smiles>  (29) 
O=[N+]([O-])c1cccc(-c2ccccc2)c1

>  <score_type>  (29) 
oracle

>  <origin>  (29) 
adg

>  <m_score__min__energy>  (29) 
-7.1200000000000001

>  <m_primary>  (29) 
energy

$$$$
29:0
     RDKit          3D

 39 42  0  0  0  0  0  0  0  0999 V2000
   60.7600   33.4470   51.2900 C   0  0  0  0  0  0  0  0  0  0  0  0
   60.7730   33.6610   49.8470 N   0  0  0  0  0  0  0  0  0  0  0  0
   59.7600   34.1640   49.1030 C   0  0  0  0  0  0  0  0  0  0  0  0
   60.1520   34.2780   47.7730 C   0  0  0  0  0  0  0  0  0  0  0  0
   59.3510   34.8790   46.6600 C   0  0  0  0  0  0  0  0  0  0  0  0
   58.5280   33.8220   45.9950 C   0  0  0  0  0  0  0  0  0  0  0  0
   57.1680   33.8590   45.7760 C   0  0  0  0  0  0  0  0  0  0  0  0
   56.8220   32.7100   45.2450 O   0  0  0  0  0  0  0  0  0  0  0  0
   57.9080   31.9720   45.1390 C   0  0  0  0  0  0  0  0  0  0  0  0
   57.9080   30.5980   44.5880 C   0  0  0  0  0  0  0  0  0  0  0  0
   58.8030   29.6140   45.0530 C   0  0  0  0  0  0  0  0  0  0  0  0
   58.7810   28.3250   44.5130 C   0  0  0  0  0  0  0  0  0  0  0  0
   57.8680   28.0010   43.5060 C   0  0  0  0  0  0  0  0  0  0  0  0
   57.8490   26.7490   42.9850 F   0  0  0  0  0  0  0  0  0  0  0  0
   56.9760   28.9670   43.0360 C   0  0  0  0  0  0  0  0  0  0  0  0
   56.9940   30.2580   43.5730 C   0  0  0  0  0  0  0  0  0  0  0  0
   58.9960   32.6250   45.6030 N   0  0  0  0  0  0  0  0  0  0  0  0
   61.4670   33.8500   47.7290 C   0  0  0  0  0  0  0  0  0  0  0  0
   62.3760   33.7880   46.6730 C   0  0  0  0  0  0  0  0  0  0  0  0
   63.6740   33.3240   46.9510 C   0  0  0  0  0  0  0  0  0  0  0  0
   64.0320   32.9410   48.2620 C   0  0  0  0  0  0  0  0  0  0  0  0
   63.0960   33.0210   49.3100 C   0  0  0  0  0  0  0  0  0  0  0  0
   61.8120   33.4800   49.0060 C   0  0  0  0  0  0  0  0  0  0  0  0
   60.8189   34.4172   51.8051 H   0  0  0  0  0  0  0  0  0  0  0  0
   59.8291   32.9357   51.5765 H   0  0  0  0  0  0  0  0  0  0  0  0
   61.6221   32.8268   51.5765 H   0  0  0  0  0  0  0  0  0  0  0  0
   58.7701   34.4423   49.4936 H   0  0  0  0  0  0  0  0  0  0  0  0
   58.6869   35.6557   47.0670 H   0  0  0  0  0  0  0  0  0  0  0  0
   60.0346   35.3230   45.9214 H   0  0  0  0  0  0  0  0  0  0  0  0
   56.4951   34.6986   46.0046 H   0  0  0  0  0  0  0  0  0  0  0  0
   59.5237   29.8619   45.8462 H   0  0  0  0  0  0  0  0  0  0  0  0
   59.4842   27.5637   44.8817 H   0  0  0  0  0  0  0  0  0  0  0  0
   56.2583   28.7121   42.2423 H   0  0  0  0  0  0  0  0  0  0  0  0
   56.2880   31.0141   43.1991 H   0  0  0  0  0  0  0  0  0  0  0  0
   59.9830   32.2920   45.6680 H   0  0  0  0  0  0  0  0  0  0  0  0
   62.0871   34.0921   45.6561 H   0  0  0  0  0  0  0  0  0  0  0  0
   64.4158   33.2590   46.1413 H   0  0  0  0  0  0  0  0  0  0  0  0
   65.0500   32.5774   48.4658 H   0  0  0  0  0  0  0  0  0  0  0  0
   63.3669   32.7313   50.3360 H   0  0  0  0  0  0  0  0  0  0  0  0
  1  2  1  0
  2  3  1  0
  3  4  2  0
  4  5  1  0
  5  6  1  0
  6  7  2  0
  7  8  1  0
  8  9  1  0
  9 10  1  0
 10 11  2  0
 11 12  1  0
 12 13  2  0
 13 14  1  0
 13 15  1  0
 15 16  2  0
  9 17  2  0
  4 18  1  0
 18 19  2  0
 19 20  1  0
 20 21  2  0
 21 22  1  0
 22 23  2  0
 23  2  1  0
 17  6  1  0
 23 18  1  0
 16 10  1  0
  1 24  1  0
  1 25  1  0
  1 26  1  0
  3 27  1  0
  5 28  1  0
  5 29  1  0
  7 30  1  0
 11 31  1  0
 12 32  1  0
 15 33  1  0
 16 34  1  0
 17 35  1  0
 19 36  1  0
 20 37  1  0
 21 38  1  0
 22 39  1  0
M  CHG  1  17   1
M  END
>  <UniqueID>  (30) 
25

>  <SMILES>  (30) 
Cn1cc(Cc2coc(-c3ccc(F)cc3)[nH+]2)c2ccccc21

>  <Energy>  (30) 
105.62775242526078

>  <Genealogy>  (30) 
Cn1cc(Cc2coc(-c3ccc(F)cc3)[nH+]2)c2ccccc21 (protonated)
Cn1cc(Cc2coc(-c3ccc(F)cc3)[nH+]2)c2ccccc21 (3D coordinates assigned)
Cn1cc(Cc2coc(-c3ccc(F)cc3)[nH+]2)c2ccccc21 (optimized conformer: 105.62775242526078 kcal/mol)

>  <smiles>  (30) 
Cn1cc(Cc2coc(-c3ccc(F)cc3)n2)c2ccccc21

>  <score_type>  (30) 
oracle

>  <origin>  (30) 
adg

>  <m_score__min__energy>  (30) 
-6.3200000000000003

>  <m_primary>  (30) 
energy

$$$$
30:0
     RDKit          3D

 38 39  0  0  0  0  0  0  0  0999 V2000
   58.9040   34.2580   45.5310 C   0  0  0  0  0  0  0  0  0  0  0  0
   58.8690   34.4890   47.0370 C   0  0  0  0  0  0  0  0  0  0  0  0
   60.2710   34.3930   47.6420 C   0  0  0  0  0  0  0  0  0  0  0  0
   61.4850   33.8380   46.3930 S   0  0  0  0  0  0  0  0  0  0  0  0
   62.3640   32.7180   47.4960 C   0  0  0  0  0  0  0  0  0  0  0  0
   63.5780   33.3140   48.4160 S   0  0  0  0  0  0  0  0  0  0  0  0
   62.0880   31.3090   47.5160 N   0  0  0  0  0  0  0  0  0  0  0  0
   60.9010   30.7170   46.9670 C   0  0  0  0  0  0  0  0  0  0  0  0
   59.6260   31.0830   47.4310 C   0  0  0  0  0  0  0  0  0  0  0  0
   58.4830   30.4780   46.9010 C   0  0  0  0  0  0  0  0  0  0  0  0
   58.6010   29.4900   45.9140 C   0  0  0  0  0  0  0  0  0  0  0  0
   57.1650   28.7190   45.2470 S   0  0  0  0  0  0  0  0  0  0  0  0
   57.4950   28.1790   43.8840 O   0  0  0  0  0  0  0  0  0  0  0  0
   56.0410   29.7080   45.1200 O   0  0  0  0  0  0  0  0  0  0  0  0
   56.6580   27.4070   46.2670 N   0  0  0  0  0  0  0  0  0  0  0  0
   56.1730   26.2630   45.8740 C   0  0  0  0  0  0  0  0  0  0  0  0
   56.9730   25.2410   45.3230 C   0  0  0  0  0  0  0  0  0  0  0  0
   56.3930   24.0770   44.9310 N   0  0  0  0  0  0  0  0  0  0  0  0
   55.0570   23.8750   45.0580 C   0  0  0  0  0  0  0  0  0  0  0  0
   54.2610   24.8800   45.6040 C   0  0  0  0  0  0  0  0  0  0  0  0
   54.8360   26.0460   45.9970 N   0  0  0  0  0  0  0  0  0  0  0  0
   59.8720   29.1100   45.4640 C   0  0  0  0  0  0  0  0  0  0  0  0
   61.0160   29.7140   45.9960 C   0  0  0  0  0  0  0  0  0  0  0  0
   59.0659   33.1892   45.3277 H   0  0  0  0  0  0  0  0  0  0  0  0
   57.9476   34.5745   45.0892 H   0  0  0  0  0  0  0  0  0  0  0  0
   59.7237   34.8436   45.0892 H   0  0  0  0  0  0  0  0  0  0  0  0
   58.4590   35.4899   47.2375 H   0  0  0  0  0  0  0  0  0  0  0  0
   58.2373   33.7135   47.4947 H   0  0  0  0  0  0  0  0  0  0  0  0
   60.5690   35.3826   48.0188 H   0  0  0  0  0  0  0  0  0  0  0  0
   60.2502   33.6596   48.4616 H   0  0  0  0  0  0  0  0  0  0  0  0
   62.8370   30.6680   47.8640 H   0  0  0  0  0  0  0  0  0  0  0  0
   59.5272   31.8487   48.2145 H   0  0  0  0  0  0  0  0  0  0  0  0
   57.4874   30.7783   47.2597 H   0  0  0  0  0  0  0  0  0  0  0  0
   58.0578   25.3851   45.2115 H   0  0  0  0  0  0  0  0  0  0  0  0
   54.6062   22.9258   44.7326 H   0  0  0  0  0  0  0  0  0  0  0  0
   53.1770   24.7304   45.7157 H   0  0  0  0  0  0  0  0  0  0  0  0
   59.9707   28.3345   44.6901 H   0  0  0  0  0  0  0  0  0  0  0  0
   62.0116   29.3995   45.6499 H   0  0  0  0  0  0  0  0  0  0  0  0
  1  2  1  0
  2  3  1  0
  3  4  1  0
  4  5  1  0
  5  6  2  0
  5  7  1  0
  7  8  1  0
  8  9  2  0
  9 10  1  0
 10 11  2  0
 11 12  1  0
 12 13  2  0
 12 14  2  0
 12 15  1  0
 15 16  2  3
 16 17  1  0
 17 18  2  0
 18 19  1  0
 19 20  2  0
 20 21  1  0
 11 22  1  0
 22 23  2  0
 23  8  1  0
 21 16  1  0
  1 24  1  0
  1 25  1  0
  1 26  1  0
  2 27  1  0
  2 28  1  0
  3 29  1  0
  3 30  1  0
  7 31  1  0
  9 32  1  0
 10 33  1  0
 17 34  1  0
 19 35  1  0
 20 36  1  0
 22 37  1  0
 23 38  1  0
M  CHG  1  21  -1
M  END
>  <UniqueID>  (31) 
26

>  <SMILES>  (31) 
CCCSC(=S)Nc1ccc(S(=O)(=O)N=c2cncc[n-]2)cc1

>  <Energy>  (31) 
41.08914505499654

>  <Genealogy>  (31) 
CCCSC(=S)Nc1ccc(S(=O)(=O)N=c2cncc[n-]2)cc1 (protonated)
CCCSC(=S)Nc1ccc(S(=O)(=O)N=c2cncc[n-]2)cc1 (3D coordinates assigned)
CCCSC(=S)Nc1ccc(S(=O)(=O)N=c2cncc[n-]2)cc1 (optimized conformer: 41.08914505499654 kcal/mol)

>  <smiles>  (31) 
CCCSC(=S)Nc1ccc(S(=O)(=O)N=c2cncc[nH]2)cc1

>  <score_type>  (31) 
oracle

>  <origin>  (31) 
adg

>  <m_score__min__energy>  (31) 
-9.5800000000000001

>  <m_primary>  (31) 
energy

$$$$
31:0
     RDKit          3D

 34 35  0  0  0  0  0  0  0  0999 V2000
   55.4860   27.5040   45.2430 H   0  0  0  0  0  0  0  0  0  0  0  0
   55.2470   26.6980   45.8630 N   0  0  0  0  0  0  0  0  0  0  0  0
   56.7340   25.9150   46.2720 S   0  0  0  0  0  0  0  0  0  0  0  0
   56.5220   25.0790   47.5020 O   0  0  0  0  0  0  0  0  0  0  0  0
   57.1430   25.0300   45.1280 O   0  0  0  0  0  0  0  0  0  0  0  0
   58.0060   27.1020   46.5860 C   0  0  0  0  0  0  0  0  0  0  0  0
   58.7680   27.0140   47.7620 C   0  0  0  0  0  0  0  0  0  0  0  0
   58.5741   26.2033   48.4797 H   0  0  0  0  0  0  0  0  0  0  0  0
   59.7710   27.9500   48.0260 C   0  0  0  0  0  0  0  0  0  0  0  0
   60.7120   27.8340   49.5010 Cl  0  0  0  0  0  0  0  0  0  0  0  0
   60.0250   28.9770   47.1160 C   0  0  0  0  0  0  0  0  0  0  0  0
   60.8126   29.7153   47.3270 H   0  0  0  0  0  0  0  0  0  0  0  0
   59.2810   29.0690   45.9380 C   0  0  0  0  0  0  0  0  0  0  0  0
   59.4911   29.8765   45.2212 H   0  0  0  0  0  0  0  0  0  0  0  0
   58.2640   28.1360   45.6610 C   0  0  0  0  0  0  0  0  0  0  0  0
   57.4880   28.2110   44.4550 N   0  0  0  0  0  0  0  0  0  0  0  0
   56.5070   29.5570   43.9730 S   0  0  0  0  0  0  0  0  0  0  0  0
   55.3200   29.6570   44.8890 O   0  0  0  0  0  0  0  0  0  0  0  0
   56.0260   29.3440   42.5650 O   0  0  0  0  0  0  0  0  0  0  0  0
   57.4300   31.0470   44.0730 C   0  0  0  0  0  0  0  0  0  0  0  0
   58.3293   31.1743   43.4524 H   0  0  0  0  0  0  0  0  0  0  0  0
   57.0490   32.0280   44.8970 C   0  0  0  0  0  0  0  0  0  0  0  0
   55.9806   32.1134   45.1446 H   0  0  0  0  0  0  0  0  0  0  0  0
   57.9880   33.0080   45.4960 C   0  0  0  0  0  0  0  0  0  0  0  0
   58.3760   34.1810   44.8180 C   0  0  0  0  0  0  0  0  0  0  0  0
   57.9848   34.3844   43.8102 H   0  0  0  0  0  0  0  0  0  0  0  0
   59.2550   35.0880   45.4180 C   0  0  0  0  0  0  0  0  0  0  0  0
   59.5565   35.9982   44.8790 H   0  0  0  0  0  0  0  0  0  0  0  0
   59.7510   34.8410   46.7000 C   0  0  0  0  0  0  0  0  0  0  0  0
   60.4472   35.5528   47.1675 H   0  0  0  0  0  0  0  0  0  0  0  0
   59.3620   33.6890   47.3880 C   0  0  0  0  0  0  0  0  0  0  0  0
   59.7483   33.4984   48.4002 H   0  0  0  0  0  0  0  0  0  0  0  0
   58.4840   32.7780   46.7950 C   0  0  0  0  0  0  0  0  0  0  0  0
   58.1290   31.6630   47.4830 F   0  0  0  0  0  0  0  0  0  0  0  0
  1  2  1  0
  2  3  1  0
  3  4  2  0
  3  5  2  0
  3  6  1  0
  6  7  2  0
  7  8  1  0
  7  9  1  0
  9 10  1  0
  9 11  2  0
 11 12  1  0
 11 13  1  0
 13 14  1  0
 13 15  2  0
 15 16  1  0
 16 17  1  0
 17 18  2  0
 17 19  2  0
 17 20  1  0
 20 21  1  0
 20 22  2  0
 22 23  1  0
 22 24  1  0
 24 25  2  0
 25 26  1  0
 25 27  1  0
 27 28  1  0
 27 29  2  0
 29 30  1  0
 29 31  1  0
 31 32  1  0
 31 33  2  0
 33 34  1  0
 15  6  1  0
 33 24  1  0
M  CHG  2   2  -1  16  -1
M  END
>  <UniqueID>  (32) 
27

>  <SMILES>  (32) 
[NH-]S(=O)(=O)c1cc(Cl)ccc1[N-]S(=O)(=O)/C=C/c1ccccc1F

>  <Energy>  (32) 
40.218295098315146

>  <Genealogy>  (32) 
[NH-]S(=O)(=O)c1cc(Cl)ccc1[N-]S(=O)(=O)C=Cc1ccccc1F (protonated)
[NH-]S(=O)(=O)c1cc(Cl)ccc1[N-]S(=O)(=O)/C=C/c1ccccc1F (cis-trans isomerization)
[NH-]S(=O)(=O)c1cc(Cl)ccc1[N-]S(=O)(=O)/C=C/c1ccccc1F (3D coordinates assigned)
[NH-]S(=O)(=O)c1cc(Cl)ccc1[N-]S(=O)(=O)/C=C/c1ccccc1F (optimized conformer: 40.218295098315146 kcal/mol)

>  <smiles>  (32) 
NS(=O)(=O)c1cc(Cl)ccc1NS(=O)(=O)C=Cc1ccccc1F

>  <score_type>  (32) 
oracle

>  <origin>  (32) 
adg

>  <m_score__min__energy>  (32) 
-13.31

>  <m_primary>  (32) 
energy

$$$$
32:0
     RDKit          3D

 46 47  0  0  0  0  0  0  0  0999 V2000
   57.8090   32.3300   43.2150 C   0  0  0  0  0  0  0  0  0  0  0  0
   58.0650   32.7730   44.6300 C   0  0  0  0  0  0  0  0  0  0  0  0
   58.0880   34.1460   44.9160 C   0  0  0  0  0  0  0  0  0  0  0  0
   58.3640   34.5980   46.2070 C   0  0  0  0  0  0  0  0  0  0  0  0
   58.6210   33.6850   47.2290 C   0  0  0  0  0  0  0  0  0  0  0  0
   58.5810   32.3050   46.9750 C   0  0  0  0  0  0  0  0  0  0  0  0
   58.8510   31.3300   48.0870 C   0  0  0  0  0  0  0  0  0  0  0  0
   58.2730   31.8420   45.6790 C   0  0  0  0  0  0  0  0  0  0  0  0
   58.2200   30.4290   45.4410 N   0  0  0  0  0  0  0  0  0  0  0  0
   57.1750   29.7810   44.7070 C   0  0  0  0  0  0  0  0  0  0  0  0
   55.9660   30.0590   44.9330 O   0  0  0  0  0  0  0  0  0  0  0  0
   57.5200   28.6970   43.7380 C   0  0  0  0  0  0  0  0  0  0  0  0
   57.5360   27.3370   44.4500 C   0  0  0  0  0  0  0  0  0  0  0  0
   58.7430   27.1860   45.3920 C   0  0  0  0  0  0  0  0  0  0  0  0
   58.6000   26.0210   46.3930 C   0  0  0  0  0  0  0  0  0  0  0  0
   59.3860   24.7630   45.9870 C   0  0  0  0  0  0  0  0  0  0  0  0
   58.5580   23.8230   45.2120 N   0  0  0  0  0  0  0  0  0  0  0  0
   57.3610   24.2450   44.7050 C   0  0  0  0  0  0  0  0  0  0  0  0
   56.5500   23.3720   43.9840 C   0  0  0  0  0  0  0  0  0  0  0  0
   56.9870   22.0660   43.7870 C   0  0  0  0  0  0  0  0  0  0  0  0
   56.2740   21.2560   43.1350 O   0  0  0  0  0  0  0  0  0  0  0  0
   58.1830   21.6680   44.2960 N   0  0  0  0  0  0  0  0  0  0  0  0
   58.9660   22.5280   45.0040 C   0  0  0  0  0  0  0  0  0  0  0  0
   60.0680   22.1210   45.4640 O   0  0  0  0  0  0  0  0  0  0  0  0
   57.2586   31.3776   43.2228 H   0  0  0  0  0  0  0  0  0  0  0  0
   57.2130   33.0936   42.6939 H   0  0  0  0  0  0  0  0  0  0  0  0
   58.7682   32.1949   42.6939 H   0  0  0  0  0  0  0  0  0  0  0  0
   57.8867   34.8730   44.1154 H   0  0  0  0  0  0  0  0  0  0  0  0
   58.3789   35.6773   46.4189 H   0  0  0  0  0  0  0  0  0  0  0  0
   58.8565   34.0482   48.2402 H   0  0  0  0  0  0  0  0  0  0  0  0
   58.7121   31.8315   49.0561 H   0  0  0  0  0  0  0  0  0  0  0  0
   58.1536   30.4829   48.0093 H   0  0  0  0  0  0  0  0  0  0  0  0
   59.8848   30.9622   48.0093 H   0  0  0  0  0  0  0  0  0  0  0  0
   56.7709   28.6771   42.9328 H   0  0  0  0  0  0  0  0  0  0  0  0
   58.5171   28.8945   43.3175 H   0  0  0  0  0  0  0  0  0  0  0  0
   56.6126   27.2350   45.0389 H   0  0  0  0  0  0  0  0  0  0  0  0
   57.6096   26.5547   43.6802 H   0  0  0  0  0  0  0  0  0  0  0  0
   59.6415   27.0124   44.7816 H   0  0  0  0  0  0  0  0  0  0  0  0
   58.8117   28.1124   45.9812 H   0  0  0  0  0  0  0  0  0  0  0  0
   58.9654   26.3582   47.3742 H   0  0  0  0  0  0  0  0  0  0  0  0
   57.5358   25.7438   46.4168 H   0  0  0  0  0  0  0  0  0  0  0  0
   60.2485   25.0650   45.3747 H   0  0  0  0  0  0  0  0  0  0  0  0
   59.7105   24.2530   46.9060 H   0  0  0  0  0  0  0  0  0  0  0  0
   57.0354   25.2830   44.8678 H   0  0  0  0  0  0  0  0  0  0  0  0
   55.5842   23.7081   43.5788 H   0  0  0  0  0  0  0  0  0  0  0  0
   58.5040   20.6860   44.1420 H   0  0  0  0  0  0  0  0  0  0  0  0
  1  2  1  0
  2  3  2  0
  3  4  1  0
  4  5  2  0
  5  6  1  0
  6  7  1  0
  6  8  2  0
  8  9  1  0
  9 10  1  0
 10 11  2  0
 10 12  1  0
 12 13  1  0
 13 14  1  0
 14 15  1  0
 15 16  1  0
 16 17  1  0
 17 18  1  0
 18 19  2  0
 19 20  1  0
 20 21  2  0
 20 22  1  0
 22 23  1  0
 23 24  2  0
  8  2  1  0
 23 17  1  0
  1 25  1  0
  1 26  1  0
  1 27  1  0
  3 28  1  0
  4 29  1  0
  5 30  1  0
  7 31  1  0
  7 32  1  0
  7 33  1  0
 12 34  1  0
 12 35  1  0
 13 36  1  0
 13 37  1  0
 14 38  1  0
 14 39  1  0
 15 40  1  0
 15 41  1  0
 16 42  1  0
 16 43  1  0
 18 44  1  0
 19 45  1  0
 22 46  1  0
M  CHG  1   9  -1
M  END
>  <UniqueID>  (33) 
28

>  <SMILES>  (33) 
Cc1cccc(C)c1[N-]C(=O)CCCCCn1ccc(=O)[nH]c1=O

>  <Energy>  (33) 
46.247179630012006

>  <Genealogy>  (33) 
Cc1cccc(C)c1[N-]C(=O)CCCCCn1ccc(=O)[nH]c1=O (protonated)
Cc1cccc(C)c1[N-]C(=O)CCCCCn1ccc(=O)[nH]c1=O (3D coordinates assigned)
Cc1cccc(C)c1[N-]C(=O)CCCCCn1ccc(=O)[nH]c1=O (optimized conformer: 46.247179630012006 kcal/mol)

>  <smiles>  (33) 
Cc1cccc(C)c1NC(=O)CCCCCn1ccc(=O)[nH]c1=O

>  <score_type>  (33) 
oracle

>  <origin>  (33) 
adg

>  <m_score__min__energy>  (33) 
-9.8100000000000005

>  <m_primary>  (33) 
energy

$$$$
33:0
     RDKit          3D

 72 75  0  0  0  0  0  0  0  0999 V2000
   65.2300   35.4850   52.7660 C   0  0  0  0  0  0  0  0  0  0  0  0
   66.1210   34.2510   52.6300 C   0  0  0  0  0  0  0  0  0  0  0  0
   66.8260   34.2310   51.3300 N   0  0  0  0  0  0  0  0  0  0  0  0
   68.0600   35.0500   51.2480 C   0  0  0  0  0  0  0  0  0  0  0  0
   69.0430   34.6050   50.1620 C   0  0  0  0  0  0  0  0  0  0  0  0
   66.9170   32.8990   50.6800 C   0  0  0  0  0  0  0  0  0  0  0  0
   65.7200   32.5470   49.7670 C   0  0  0  0  0  0  0  0  0  0  0  0
   64.6060   33.4630   50.0090 N   0  0  0  0  0  0  0  0  0  0  0  0
   63.4560   33.5290   49.1500 C   0  0  0  0  0  0  0  0  0  0  0  0
   63.6520   33.6960   47.7780 C   0  0  0  0  0  0  0  0  0  0  0  0
   62.5760   33.7130   46.9010 C   0  0  0  0  0  0  0  0  0  0  0  0
   61.2690   33.5240   47.3660 C   0  0  0  0  0  0  0  0  0  0  0  0
   60.1630   33.5430   46.4460 N   0  0  0  0  0  0  0  0  0  0  0  0
   59.4810   34.6880   45.9200 C   0  0  0  0  0  0  0  0  0  0  0  0
   60.0060   35.8350   45.9700 O   0  0  0  0  0  0  0  0  0  0  0  0
   58.1510   34.5090   45.2550 C   0  0  0  0  0  0  0  0  0  0  0  0
   57.2920   33.4720   46.0110 C   0  0  0  0  0  0  0  0  0  0  0  0
   57.2210   32.1470   45.3550 N   0  0  0  0  0  0  0  0  0  0  0  0
   57.4040   32.2190   43.8900 C   0  0  0  0  0  0  0  0  0  0  0  0
   57.6600   30.8270   43.2690 C   0  0  0  0  0  0  0  0  0  0  0  0
   57.1120   29.7320   44.0960 N   0  0  0  0  0  0  0  0  0  0  0  0
   55.6380   29.7200   44.0880 C   0  0  0  0  0  0  0  0  0  0  0  0
   57.6660   29.7270   45.4740 C   0  0  0  0  0  0  0  0  0  0  0  0
   58.0790   31.1250   45.9730 C   0  0  0  0  0  0  0  0  0  0  0  0
   61.0350   33.3810   48.7610 C   0  0  0  0  0  0  0  0  0  0  0  0
   62.1360   33.3970   49.6630 C   0  0  0  0  0  0  0  0  0  0  0  0
   61.8740   33.3290   51.1320 C   0  0  0  0  0  0  0  0  0  0  0  0
   62.8020   33.5330   51.9600 O   0  0  0  0  0  0  0  0  0  0  0  0
   60.5120   33.0650   51.6420 C   0  0  0  0  0  0  0  0  0  0  0  0
   60.2860   32.8850   53.0210 C   0  0  0  0  0  0  0  0  0  0  0  0
   58.9970   32.6450   53.5020 C   0  0  0  0  0  0  0  0  0  0  0  0
   57.9220   32.5850   52.6170 C   0  0  0  0  0  0  0  0  0  0  0  0
   58.1320   32.7650   51.2480 C   0  0  0  0  0  0  0  0  0  0  0  0
   59.4270   33.0050   50.7500 C   0  0  0  0  0  0  0  0  0  0  0  0
   59.6520   33.2010   49.3010 C   0  0  0  0  0  0  0  0  0  0  0  0
   58.6550   33.2100   48.5270 O   0  0  0  0  0  0  0  0  0  0  0  0
   65.0702   35.7063   53.8316 H   0  0  0  0  0  0  0  0  0  0  0  0
   65.7174   36.3443   52.2821 H   0  0  0  0  0  0  0  0  0  0  0  0
   64.2610   35.2927   52.2821 H   0  0  0  0  0  0  0  0  0  0  0  0
   66.8652   34.2567   53.4400 H   0  0  0  0  0  0  0  0  0  0  0  0
   65.4831   33.3569   52.6900 H   0  0  0  0  0  0  0  0  0  0  0  0
   67.7692   36.0909   51.0433 H   0  0  0  0  0  0  0  0  0  0  0  0
   68.5801   34.9315   52.2100 H   0  0  0  0  0  0  0  0  0  0  0  0
   69.9486   34.1950   50.6329 H   0  0  0  0  0  0  0  0  0  0  0  0
   68.5729   33.8319   49.5364 H   0  0  0  0  0  0  0  0  0  0  0  0
   69.3137   35.4683   49.5364 H   0  0  0  0  0  0  0  0  0  0  0  0
   67.8323   32.8762   50.0703 H   0  0  0  0  0  0  0  0  0  0  0  0
   66.9209   32.1554   51.4906 H   0  0  0  0  0  0  0  0  0  0  0  0
   66.0315   32.6255   48.7150 H   0  0  0  0  0  0  0  0  0  0  0  0
   65.3921   31.5208   49.9892 H   0  0  0  0  0  0  0  0  0  0  0  0
   64.6560   34.0980   50.8390 H   0  0  0  0  0  0  0  0  0  0  0  0
   64.6730   33.8158   47.3865 H   0  0  0  0  0  0  0  0  0  0  0  0
   62.7524   33.8770   45.8277 H   0  0  0  0  0  0  0  0  0  0  0  0
   57.6223   35.4735   45.2416 H   0  0  0  0  0  0  0  0  0  0  0  0
   58.3167   34.1474   44.2294 H   0  0  0  0  0  0  0  0  0  0  0  0
   57.7195   33.3369   47.0155 H   0  0  0  0  0  0  0  0  0  0  0  0
   56.2661   33.8683   46.0334 H   0  0  0  0  0  0  0  0  0  0  0  0
   56.4965   32.6474   43.4394 H   0  0  0  0  0  0  0  0  0  0  0  0
   58.2836   32.8479   43.6881 H   0  0  0  0  0  0  0  0  0  0  0  0
   57.1873   30.7906   42.2764 H   0  0  0  0  0  0  0  0  0  0  0  0
   58.7487   30.6845   43.2024 H   0  0  0  0  0  0  0  0  0  0  0  0
   55.2657   29.7170   45.1231 H   0  0  0  0  0  0  0  0  0  0  0  0
   55.2669   30.6152   43.5675 H   0  0  0  0  0  0  0  0  0  0  0  0
   55.2815   28.8189   43.5675 H   0  0  0  0  0  0  0  0  0  0  0  0
   56.9017   29.3253   46.1555 H   0  0  0  0  0  0  0  0  0  0  0  0
   58.5746   29.1072   45.4562 H   0  0  0  0  0  0  0  0  0  0  0  0
   57.9703   31.1694   47.0667 H   0  0  0  0  0  0  0  0  0  0  0  0
   59.1268   31.3147   45.6972 H   0  0  0  0  0  0  0  0  0  0  0  0
   61.1308   32.9338   53.7238 H   0  0  0  0  0  0  0  0  0  0  0  0
   58.8301   32.5032   54.5800 H   0  0  0  0  0  0  0  0  0  0  0  0
   56.9072   32.3957   52.9971 H   0  0  0  0  0  0  0  0  0  0  0  0
   57.2798   32.7190   50.5540 H   0  0  0  0  0  0  0  0  0  0  0  0
  1  2  1  0
  2  3  1  0
  3  4  1  0
  4  5  1  0
  3  6  1  0
  6  7  1  0
  7  8  1  0
  8  9  1  0
  9 10  2  0
 10 11  1  0
 11 12  2  0
 12 13  1  0
 13 14  1  0
 14 15  2  0
 14 16  1  0
 16 17  1  0
 17 18  1  0
 18 19  1  0
 19 20  1  0
 20 21  1  0
 21 22  1  0
 21 23  1  0
 23 24  1  0
 12 25  1  0
 25 26  2  0
 26 27  1  0
 27 28  2  0
 27 29  1  0
 29 30  2  0
 30 31  1  0
 31 32  2  0
 32 33  1  0
 33 34  2  0
 34 35  1  0
 35 36  2  0
 26  9  1  0
 34 29  1  0
 24 18  1  0
 35 25  1  0
  1 37  1  0
  1 38  1  0
  1 39  1  0
  2 40  1  0
  2 41  1  0
  4 42  1  0
  4 43  1  0
  5 44  1  0
  5 45  1  0
  5 46  1  0
  6 47  1  0
  6 48  1  0
  7 49  1  0
  7 50  1  0
  8 51  1  0
 10 52  1  0
 11 53  1  0
 16 54  1  0
 16 55  1  0
 17 56  1  0
 17 57  1  0
 19 58  1  0
 19 59  1  0
 20 60  1  0
 20 61  1  0
 22 62  1  0
 22 63  1  0
 22 64  1  0
 23 65  1  0
 23 66  1  0
 24 67  1  0
 24 68  1  0
 30 69  1  0
 31 70  1  0
 32 71  1  0
 33 72  1  0
M  CHG  1  13  -1
M  END
>  <UniqueID>  (34) 
29

>  <SMILES>  (34) 
CCN(CC)CCNc1ccc([N-]C(=O)CCN2CCN(C)CC2)c2c1C(=O)c1ccccc1C2=O

>  <Energy>  (34) 
107.48914698469169

>  <Genealogy>  (34) 
CCN(CC)CCNc1ccc([N-]C(=O)CCN2CCN(C)CC2)c2c1C(=O)c1ccccc1C2=O (protonated)
CCN(CC)CCNc1ccc([N-]C(=O)CCN2CCN(C)CC2)c2c1C(=O)c1ccccc1C2=O (3D coordinates assigned)
CCN(CC)CCNc1ccc([N-]C(=O)CCN2CCN(C)CC2)c2c1C(=O)c1ccccc1C2=O (nonaromatic ring conformer: 107.48914698469169 kcal/mol)

>  <smiles>  (34) 
CCN(CC)CCNc1ccc(NC(=O)CCN2CCN(C)CC2)c2c1C(=O)c1ccccc1C2=O

>  <score_type>  (34) 
oracle

>  <origin>  (34) 
adg

>  <m_score__min__energy>  (34) 
-11.24

>  <m_primary>  (34) 
energy

$$$$
34:0
     RDKit          3D

 51 53  0  0  0  0  0  0  0  0999 V2000
   63.6570   33.4110   47.3160 C   0  0  0  0  0  0  0  0  0  0  0  0
   62.4500   33.5780   46.7740 C   0  0  0  0  0  0  0  0  0  0  0  0
   61.2480   33.8980   47.6140 C   0  0  0  0  0  0  0  0  0  0  0  0
   59.9910   33.3840   46.9660 C   0  0  0  0  0  0  0  0  0  0  0  0
   59.2550   34.2110   46.1060 C   0  0  0  0  0  0  0  0  0  0  0  0
   58.1150   33.7230   45.4630 C   0  0  0  0  0  0  0  0  0  0  0  0
   57.7050   32.3910   45.6580 C   0  0  0  0  0  0  0  0  0  0  0  0
   56.6050   31.8360   44.9860 O   0  0  0  0  0  0  0  0  0  0  0  0
   56.6740   31.1540   43.7340 C   0  0  0  0  0  0  0  0  0  0  0  0
   56.6580   29.6710   43.9480 C   0  0  0  0  0  0  0  0  0  0  0  0
   56.8220   28.8950   42.9690 O   0  0  0  0  0  0  0  0  0  0  0  0
   56.4390   29.1410   45.2610 N   0  0  0  0  0  0  0  0  0  0  0  0
   57.0540   27.9280   45.7180 C   0  0  0  0  0  0  0  0  0  0  0  0
   58.4120   27.6370   45.7520 C   0  0  0  0  0  0  0  0  0  0  0  0
   59.5390   28.5970   45.5130 C   0  0  0  0  0  0  0  0  0  0  0  0
   58.5650   26.3410   46.1160 N   0  0  0  0  0  0  0  0  0  0  0  0
   59.8420   25.6500   46.3230 C   0  0  0  0  0  0  0  0  0  0  0  0
   57.3620   25.7890   46.2570 N   0  0  0  0  0  0  0  0  0  0  0  0
   57.0940   24.4010   46.5250 C   0  0  0  0  0  0  0  0  0  0  0  0
   57.3220   23.4300   45.5380 C   0  0  0  0  0  0  0  0  0  0  0  0
   57.0260   22.0890   45.7890 C   0  0  0  0  0  0  0  0  0  0  0  0
   56.4920   21.7090   47.0230 C   0  0  0  0  0  0  0  0  0  0  0  0
   56.2550   22.6710   48.0080 C   0  0  0  0  0  0  0  0  0  0  0  0
   56.5500   24.0140   47.7600 C   0  0  0  0  0  0  0  0  0  0  0  0
   56.4310   26.7350   46.0240 C   0  0  0  0  0  0  0  0  0  0  0  0
   55.1880   26.5250   46.0240 O   0  0  0  0  0  0  0  0  0  0  0  0
   58.4260   31.5770   46.5380 C   0  0  0  0  0  0  0  0  0  0  0  0
   59.5680   32.0630   47.1800 C   0  0  0  0  0  0  0  0  0  0  0  0
   64.5200   33.1771   46.6753 H   0  0  0  0  0  0  0  0  0  0  0  0
   63.7896   33.5072   48.4037 H   0  0  0  0  0  0  0  0  0  0  0  0
   62.3325   33.4788   45.6848 H   0  0  0  0  0  0  0  0  0  0  0  0
   61.3628   33.4277   48.6018 H   0  0  0  0  0  0  0  0  0  0  0  0
   61.1704   34.9904   47.7167 H   0  0  0  0  0  0  0  0  0  0  0  0
   59.5768   35.2492   45.9367 H   0  0  0  0  0  0  0  0  0  0  0  0
   57.5350   34.3830   44.8011 H   0  0  0  0  0  0  0  0  0  0  0  0
   55.8101   31.4408   43.1164 H   0  0  0  0  0  0  0  0  0  0  0  0
   57.6093   31.4321   43.2261 H   0  0  0  0  0  0  0  0  0  0  0  0
   55.8970   29.7170   45.9430 H   0  0  0  0  0  0  0  0  0  0  0  0
   59.9404   28.9389   46.4784 H   0  0  0  0  0  0  0  0  0  0  0  0
   60.3341   28.0944   44.9426 H   0  0  0  0  0  0  0  0  0  0  0  0
   59.1692   29.4619   44.9426 H   0  0  0  0  0  0  0  0  0  0  0  0
   60.0325   25.5469   47.4015 H   0  0  0  0  0  0  0  0  0  0  0  0
   59.7982   24.6525   45.8614 H   0  0  0  0  0  0  0  0  0  0  0  0
   60.6531   26.2323   45.8614 H   0  0  0  0  0  0  0  0  0  0  0  0
   57.7355   23.7266   44.5628 H   0  0  0  0  0  0  0  0  0  0  0  0
   57.2134   21.3307   45.0145 H   0  0  0  0  0  0  0  0  0  0  0  0
   56.2582   20.6522   47.2190 H   0  0  0  0  0  0  0  0  0  0  0  0
   55.8358   22.3708   48.9797 H   0  0  0  0  0  0  0  0  0  0  0  0
   56.3554   24.7703   48.5347 H   0  0  0  0  0  0  0  0  0  0  0  0
   58.0913   30.5462   46.7261 H   0  0  0  0  0  0  0  0  0  0  0  0
   60.1375   31.4079   47.8556 H   0  0  0  0  0  0  0  0  0  0  0  0
  1  2  2  0
  2  3  1  0
  3  4  1  0
  4  5  2  0
  5  6  1  0
  6  7  2  0
  7  8  1  0
  8  9  1  0
  9 10  1  0
 10 11  2  0
 10 12  1  0
 12 13  1  0
 13 14  2  0
 14 15  1  0
 14 16  1  0
 16 17  1  0
 16 18  1  0
 18 19  1  0
 19 20  2  0
 20 21  1  0
 21 22  2  0
 22 23  1  0
 23 24  2  0
 18 25  1  0
 25 26  2  0
  7 27  1  0
 27 28  2  0
 28  4  1  0
 25 13  1  0
 24 19  1  0
  1 29  1  0
  1 30  1  0
  2 31  1  0
  3 32  1  0
  3 33  1  0
  5 34  1  0
  6 35  1  0
  9 36  1  0
  9 37  1  0
 12 38  1  0
 15 39  1  0
 15 40  1  0
 15 41  1  0
 17 42  1  0
 17 43  1  0
 17 44  1  0
 20 45  1  0
 21 46  1  0
 22 47  1  0
 23 48  1  0
 24 49  1  0
 27 50  1  0
 28 51  1  0
M  END
>  <UniqueID>  (35) 
30

>  <SMILES>  (35) 
C=CCc1ccc(OCC(=O)Nc2c(C)n(C)n(-c3ccccc3)c2=O)cc1

>  <Energy>  (35) 
90.78461714111894

>  <Genealogy>  (35) 
C=CCc1ccc(OCC(=O)Nc2c(C)n(C)n(-c3ccccc3)c2=O)cc1 (3D coordinates assigned)
C=CCc1ccc(OCC(=O)Nc2c(C)n(C)n(-c3ccccc3)c2=O)cc1 (optimized conformer: 90.78461714111894 kcal/mol)

>  <smiles>  (35) 
C=CCc1ccc(OCC(=O)Nc2c(C)n(C)n(-c3ccccc3)c2=O)cc1

>  <score_type>  (35) 
oracle

>  <origin>  (35) 
adg

>  <m_score__min__energy>  (35) 
-8.7699999999999996

>  <m_primary>  (35) 
energy

$$$$
35:0
     RDKit          3D

 20 22  0  0  0  0  0  0  0  0999 V2000
   57.7780   33.2010   45.4750 N   0  0  0  0  0  0  0  0  0  0  0  0
   58.1730   32.0130   45.5720 C   0  0  0  0  0  0  0  0  0  0  0  0
   57.3300   31.0090   45.0830 C   0  0  0  0  0  0  0  0  0  0  0  0
   56.1180   31.0340   44.4980 N   0  0  0  0  0  0  0  0  0  0  0  0
   55.7420   29.7810   44.2170 N   0  0  0  0  0  0  0  0  0  0  0  0
   56.6690   28.9290   44.5970 N   0  0  0  0  0  0  0  0  0  0  0  0
   57.6720   29.6740   45.1420 C   0  0  0  0  0  0  0  0  0  0  0  0
   58.8500   29.3100   45.6830 N   0  0  0  0  0  0  0  0  0  0  0  0
   59.6710   30.2740   46.1580 C   0  0  0  0  0  0  0  0  0  0  0  0
   60.8790   29.9040   46.7130 C   0  0  0  0  0  0  0  0  0  0  0  0
   61.7730   30.8250   47.2200 C   0  0  0  0  0  0  0  0  0  0  0  0
   61.3910   32.1620   47.1410 C   0  0  0  0  0  0  0  0  0  0  0  0
   62.5890   33.5040   47.8280 Br  0  0  0  0  0  0  0  0  0  0  0  0
   60.1830   32.5090   46.5840 C   0  0  0  0  0  0  0  0  0  0  0  0
   59.3340   31.5900   46.1000 N   0  0  0  0  0  0  0  0  0  0  0  0
   56.9640   33.6250   45.0410 H   0  0  0  0  0  0  0  0  0  0  0  0
   56.6450   27.8750   44.5010 H   0  0  0  0  0  0  0  0  0  0  0  0
   61.1389   28.8359   46.7528 H   0  0  0  0  0  0  0  0  0  0  0  0
   62.7333   30.5203   47.6617 H   0  0  0  0  0  0  0  0  0  0  0  0
   59.9043   33.5719   46.5337 H   0  0  0  0  0  0  0  0  0  0  0  0
  1  2  2  3
  2  3  1  0
  3  4  1  0
  4  5  2  0
  5  6  1  0
  6  7  1  0
  7  8  1  0
  8  9  2  0
  9 10  1  0
 10 11  2  0
 11 12  1  0
 12 13  1  0
 12 14  2  0
 14 15  1  0
 15  2  1  0
  7  3  2  0
 15  9  1  0
  1 16  1  0
  6 17  1  0
 10 18  1  0
 11 19  1  0
 14 20  1  0
M  END
>  <smiles>  (36) 
N=c1c2nn[nH]c2nc2ccc(Br)cn12

>  <score_type>  (36) 
oracle

>  <origin>  (36) 
adg

>  <m_score__min__energy>  (36) 
-5.8200000000000003

>  <m_primary>  (36) 
energy

$$$$
36:0
     RDKit          3D

 27 29  0  0  0  0  0  0  0  0999 V2000
   58.5520   32.1220   47.9210 C   0  0  0  0  0  0  0  0  0  0  0  0
   58.7990   33.1400   46.8400 C   0  0  0  0  0  0  0  0  0  0  0  0
   59.4150   34.3560   47.1870 C   0  0  0  0  0  0  0  0  0  0  0  0
   59.6370   35.3400   46.2230 C   0  0  0  0  0  0  0  0  0  0  0  0
   59.2560   35.1230   44.9000 C   0  0  0  0  0  0  0  0  0  0  0  0
   58.6600   33.9150   44.5330 C   0  0  0  0  0  0  0  0  0  0  0  0
   58.4370   32.9070   45.4870 C   0  0  0  0  0  0  0  0  0  0  0  0
   57.8340   31.6310   45.0390 C   0  0  0  0  0  0  0  0  0  0  0  0
   56.5690   31.4360   44.4960 C   0  0  0  0  0  0  0  0  0  0  0  0
   56.3610   30.1150   44.2610 N   0  0  0  0  0  0  0  0  0  0  0  0
   57.5090   29.5390   44.6720 C   0  0  0  0  0  0  0  0  0  0  0  0
   57.8150   28.1830   44.6390 C   0  0  0  0  0  0  0  0  0  0  0  0
   59.0790   27.7980   45.1130 C   0  0  0  0  0  0  0  0  0  0  0  0
   59.9740   28.7740   45.5920 C   0  0  0  0  0  0  0  0  0  0  0  0
   59.6060   30.0870   45.5950 N   0  0  0  0  0  0  0  0  0  0  0  0
   58.3970   30.4200   45.1460 N   0  0  0  0  0  0  0  0  0  0  0  0
   58.6674   32.5978   48.9060 H   0  0  0  0  0  0  0  0  0  0  0  0
   57.5312   31.7239   47.8235 H   0  0  0  0  0  0  0  0  0  0  0  0
   59.2768   31.3004   47.8235 H   0  0  0  0  0  0  0  0  0  0  0  0
   59.7245   34.5328   48.2277 H   0  0  0  0  0  0  0  0  0  0  0  0
   60.1139   36.2894   46.5079 H   0  0  0  0  0  0  0  0  0  0  0  0
   59.4250   35.9042   44.1443 H   0  0  0  0  0  0  0  0  0  0  0  0
   58.3620   33.7504   43.4870 H   0  0  0  0  0  0  0  0  0  0  0  0
   55.8427   32.2353   44.2872 H   0  0  0  0  0  0  0  0  0  0  0  0
   57.0965   27.4427   44.2573 H   0  0  0  0  0  0  0  0  0  0  0  0
   59.3695   26.7371   45.1103 H   0  0  0  0  0  0  0  0  0  0  0  0
   60.9666   28.4782   45.9625 H   0  0  0  0  0  0  0  0  0  0  0  0
  1  2  1  0
  2  3  2  0
  3  4  1  0
  4  5  2  0
  5  6  1  0
  6  7  2  0
  7  8  1  0
  8  9  2  0
  9 10  1  0
 10 11  2  0
 11 12  1  0
 12 13  2  0
 13 14  1  0
 14 15  2  0
 15 16  1  0
  7  2  1  0
 16  8  1  0
 16 11  1  0
  1 17  1  0
  1 18  1  0
  1 19  1  0
  3 20  1  0
  4 21  1  0
  5 22  1  0
  6 23  1  0
  9 24  1  0
 12 25  1  0
 13 26  1  0
 14 27  1  0
M  END
>  <UniqueID>  (37) 
31

>  <SMILES>  (37) 
Cc1ccccc1-c1cnc2cccnn12

>  <Energy>  (37) 
72.7510872158024

>  <Genealogy>  (37) 
Cc1ccccc1-c1cnc2cccnn12 (3D coordinates assigned)
Cc1ccccc1-c1cnc2cccnn12 (optimized conformer: 72.7510872158024 kcal/mol)

>  <smiles>  (37) 
Cc1ccccc1-c1cnc2cccnn12

>  <score_type>  (37) 
oracle

>  <origin>  (37) 
adg

>  <m_score__min__energy>  (37) 
-6.1699999999999999

>  <m_primary>  (37) 
energy

$$$$
37:0
     RDKit          3D

 27 29  0  0  0  0  0  0  0  0999 V2000
   64.6950   32.8130   49.4130 C   0  0  0  0  0  0  0  0  0  0  0  0
   63.7000   33.7840   48.7900 C   0  0  0  0  0  0  0  0  0  0  0  0
   62.6310   33.0530   48.1010 C   0  0  0  0  0  0  0  0  0  0  0  0
   61.7540   32.4510   47.5340 C   0  0  0  0  0  0  0  0  0  0  0  0
   60.7060   31.7330   46.8580 C   0  0  0  0  0  0  0  0  0  0  0  0
   60.6930   30.3190   46.8790 C   0  0  0  0  0  0  0  0  0  0  0  0
   59.6710   29.6080   46.2270 C   0  0  0  0  0  0  0  0  0  0  0  0
   58.6920   30.3390   45.5600 C   0  0  0  0  0  0  0  0  0  0  0  0
   58.6920   31.7180   45.5380 C   0  0  0  0  0  0  0  0  0  0  0  0
   59.6920   32.4440   46.1850 C   0  0  0  0  0  0  0  0  0  0  0  0
   57.4700   32.2230   44.8120 C   0  0  0  0  0  0  0  0  0  0  0  0
   56.8340   30.9000   44.4830 C   0  0  0  0  0  0  0  0  0  0  0  0
   55.5150   30.6150   44.4930 N   0  0  0  0  0  0  0  0  0  0  0  0
   55.4060   29.3440   44.8710 N   0  0  0  0  0  0  0  0  0  0  0  0
   56.6560   28.9160   45.1400 C   0  0  0  0  0  0  0  0  0  0  0  0
   56.9220   27.8000   45.6610 O   0  0  0  0  0  0  0  0  0  0  0  0
   57.5680   29.8550   44.8570 N   0  0  0  0  0  0  0  0  0  0  0  0
   64.6309   32.8755   50.5094 H   0  0  0  0  0  0  0  0  0  0  0  0
   64.4589   31.7884   49.0897 H   0  0  0  0  0  0  0  0  0  0  0  0
   65.7135   33.0740   49.0897 H   0  0  0  0  0  0  0  0  0  0  0  0
   63.2597   34.4084   49.5814 H   0  0  0  0  0  0  0  0  0  0  0  0
   64.2280   34.4142   48.0593 H   0  0  0  0  0  0  0  0  0  0  0  0
   61.4873   29.7726   47.4086 H   0  0  0  0  0  0  0  0  0  0  0  0
   59.6455   28.5084   46.2432 H   0  0  0  0  0  0  0  0  0  0  0  0
   59.6893   33.5439   46.1704 H   0  0  0  0  0  0  0  0  0  0  0  0
   56.8297   32.8395   45.4600 H   0  0  0  0  0  0  0  0  0  0  0  0
   57.6663   32.8820   43.9534 H   0  0  0  0  0  0  0  0  0  0  0  0
  1  2  1  0
  2  3  1  0
  3  4  3  0
  4  5  1  0
  5  6  2  0
  6  7  1  0
  7  8  2  0
  8  9  1  0
  9 10  2  0
  9 11  1  0
 11 12  1  0
 12 13  2  0
 13 14  1  0
 14 15  1  0
 15 16  2  0
 15 17  1  0
 10  5  1  0
 17 12  1  0
 17  8  1  0
  1 18  1  0
  1 19  1  0
  1 20  1  0
  2 21  1  0
  2 22  1  0
  6 23  1  0
  7 24  1  0
 10 25  1  0
 11 26  1  0
 11 27  1  0
M  CHG  1  14  -1
M  END
>  <UniqueID>  (38) 
32

>  <SMILES>  (38) 
CCC#Cc1ccc2c(c1)Cc1n[n-]c(=O)n1-2

>  <Energy>  (38) 
101.30082002769412

>  <Genealogy>  (38) 
CCC#Cc1ccc2c(c1)Cc1n[n-]c(=O)n1-2 (protonated)
CCC#Cc1ccc2c(c1)Cc1n[n-]c(=O)n1-2 (3D coordinates assigned)
CCC#Cc1ccc2c(c1)Cc1n[n-]c(=O)n1-2 (nonaromatic ring conformer: 101.30082002769412 kcal/mol)

>  <smiles>  (38) 
CCC#Cc1ccc2c(c1)Cc1n[nH]c(=O)n1-2

>  <score_type>  (38) 
oracle

>  <origin>  (38) 
adg

>  <m_score__min__energy>  (38) 
-7.7699999999999996

>  <m_primary>  (38) 
energy

$$$$
38:0
     RDKit          3D

 35 37  0  0  0  0  0  0  0  0999 V2000
   61.3499   28.8804   47.1377 H   0  0  0  0  0  0  0  0  0  0  0  0
   60.3580   28.5330   46.8130 C   0  0  0  0  0  0  0  0  0  0  0  0
   59.7900   29.0490   45.6910 N   0  0  0  0  0  0  0  0  0  0  0  0
   58.5630   28.6470   45.2520 C   0  0  0  0  0  0  0  0  0  0  0  0
   58.0490   29.1410   44.1660 N   0  0  0  0  0  0  0  0  0  0  0  0
   56.9630   30.4950   44.1380 S   0  0  0  0  0  0  0  0  0  0  0  0
   56.6550   30.8470   42.7110 O   0  0  0  0  0  0  0  0  0  0  0  0
   55.6910   30.1140   44.8410 O   0  0  0  0  0  0  0  0  0  0  0  0
   57.7000   31.8900   44.9230 C   0  0  0  0  0  0  0  0  0  0  0  0
   57.0150   33.1090   44.9800 C   0  0  0  0  0  0  0  0  0  0  0  0
   56.0211   33.2018   44.5179 H   0  0  0  0  0  0  0  0  0  0  0  0
   57.5900   34.2080   45.6220 C   0  0  0  0  0  0  0  0  0  0  0  0
   57.0474   35.1640   45.6621 H   0  0  0  0  0  0  0  0  0  0  0  0
   58.8520   34.0990   46.2140 C   0  0  0  0  0  0  0  0  0  0  0  0
   59.3630   35.1680   46.8750 F   0  0  0  0  0  0  0  0  0  0  0  0
   59.5560   32.8810   46.1580 C   0  0  0  0  0  0  0  0  0  0  0  0
   60.8890   32.7430   46.7920 C   0  0  0  0  0  0  0  0  0  0  0  0
   61.5790   33.8830   47.2400 C   0  0  0  0  0  0  0  0  0  0  0  0
   61.1324   34.8816   47.1246 H   0  0  0  0  0  0  0  0  0  0  0  0
   62.8340   33.7390   47.8320 C   0  0  0  0  0  0  0  0  0  0  0  0
   63.3831   34.6255   48.1822 H   0  0  0  0  0  0  0  0  0  0  0  0
   63.3910   32.4690   47.9790 C   0  0  0  0  0  0  0  0  0  0  0  0
   64.3801   32.3458   48.4443 H   0  0  0  0  0  0  0  0  0  0  0  0
   62.6790   31.3560   47.5290 C   0  0  0  0  0  0  0  0  0  0  0  0
   63.1084   30.3495   47.6412 H   0  0  0  0  0  0  0  0  0  0  0  0
   61.4560   31.5100   46.9520 N   0  0  0  0  0  0  0  0  0  0  0  0
   60.9420   30.6530   46.6500 H   0  0  0  0  0  0  0  0  0  0  0  0
   58.9730   31.7830   45.5010 C   0  0  0  0  0  0  0  0  0  0  0  0
   59.5208   30.8311   45.4399 H   0  0  0  0  0  0  0  0  0  0  0  0
   57.8560   27.6780   45.9720 C   0  0  0  0  0  0  0  0  0  0  0  0
   56.8641   27.3473   45.6304 H   0  0  0  0  0  0  0  0  0  0  0  0
   58.4200   27.1340   47.1280 C   0  0  0  0  0  0  0  0  0  0  0  0
   57.8729   26.3715   47.7019 H   0  0  0  0  0  0  0  0  0  0  0  0
   59.6800   27.5600   47.5540 C   0  0  0  0  0  0  0  0  0  0  0  0
   60.4030   26.8840   49.0010 Cl  0  0  0  0  0  0  0  0  0  0  0  0
  1  2  1  0
  2  3  1  0
  3  4  1  0
  4  5  2  0
  5  6  1  0
  6  7  2  0
  6  8  2  0
  6  9  1  0
  9 10  2  0
 10 11  1  0
 10 12  1  0
 12 13  1  0
 12 14  2  0
 14 15  1  0
 14 16  1  0
 16 17  1  0
 17 18  2  0
 18 19  1  0
 18 20  1  0
 20 21  1  0
 20 22  2  0
 22 23  1  0
 22 24  1  0
 24 25  1  0
 24 26  2  0
 26 27  1  0
 16 28  2  0
 28 29  1  0
  4 30  1  0
 30 31  1  0
 30 32  2  0
 32 33  1  0
 32 34  1  0
 34 35  1  0
 34  2  2  0
 28  9  1  0
 26 17  1  0
M  CHG  2   3  -1  26   1
M  END
>  <UniqueID>  (39) 
33

>  <SMILES>  (39) 
O=S(=O)(/N=c1/ccc(Cl)c[n-]1)c1ccc(F)c(-c2cccc[nH+]2)c1

>  <Energy>  (39) 
46.875434143482

>  <Genealogy>  (39) 
O=S(=O)(N=c1ccc(Cl)c[n-]1)c1ccc(F)c(-c2cccc[nH+]2)c1 (protonated)
O=S(=O)(/N=c1/ccc(Cl)c[n-]1)c1ccc(F)c(-c2cccc[nH+]2)c1 (cis-trans isomerization)
O=S(=O)(/N=c1/ccc(Cl)c[n-]1)c1ccc(F)c(-c2cccc[nH+]2)c1 (3D coordinates assigned)
O=S(=O)(/N=c1/ccc(Cl)c[n-]1)c1ccc(F)c(-c2cccc[nH+]2)c1 (optimized conformer: 46.875434143482 kcal/mol)

>  <smiles>  (39) 
O=S(=O)(N=c1ccc(Cl)c[nH]1)c1ccc(F)c(-c2ccccn2)c1

>  <score_type>  (39) 
oracle

>  <origin>  (39) 
adg

>  <m_score__min__energy>  (39) 
-9.0099999999999998

>  <m_primary>  (39) 
energy

$$$$
39:0
     RDKit          3D

 45 48  0  0  1  0  0  0  0  0999 V2000
   56.6640   20.7880   43.0220 C   0  0  0  0  0  0  0  0  0  0  0  0
   55.9410   21.9580   43.2420 O   0  0  0  0  0  0  0  0  0  0  0  0
   56.2520   22.9610   44.1440 C   0  0  0  0  0  0  0  0  0  0  0  0
   55.3130   23.7960   44.7100 C   0  0  0  0  0  0  0  0  0  0  0  0
   55.7200   24.7680   45.5990 C   0  0  0  0  0  0  0  0  0  0  0  0
   57.0430   24.9560   45.9630 C   0  0  0  0  0  0  0  0  0  0  0  0
   57.4510   26.0300   46.9380 C   0  0  0  0  0  0  0  0  0  0  0  0
   58.2960   27.0010   46.3430 N   0  0  0  0  0  0  0  0  0  0  0  0
   57.9990   28.1780   45.9590 C   0  0  0  0  0  0  0  0  0  0  0  0
   57.2290   28.3420   44.8700 N   0  0  0  0  0  0  0  0  0  0  0  0
   56.9060   29.5880   44.4510 C   0  0  0  0  0  0  0  0  0  0  0  0
   55.9050   29.7450   43.0340 Cl  0  0  0  0  0  0  0  0  0  0  0  0
   57.3750   30.6370   45.1520 N   0  0  0  0  0  0  0  0  0  0  0  0
   58.1450   30.5050   46.2430 C   0  0  0  0  0  0  0  0  0  0  0  0
   58.4750   29.2390   46.6700 C   0  0  0  0  0  0  0  0  0  0  0  0
   59.2300   29.3620   47.7490 N   0  0  0  0  0  0  0  0  0  0  0  0
   59.3760   30.6670   47.9990 C   0  0  0  0  0  0  0  0  0  0  0  0
   58.7190   31.3850   47.0880 N   0  0  0  0  0  0  0  0  0  0  0  0
   58.5980   32.8130   46.9630 C   0  0  0  0  0  0  0  0  0  0  0  0
   59.6650   33.5590   47.7160 C   0  0  0  0  0  0  0  0  0  0  0  0
   59.6090   34.9450   47.1000 C   0  0  0  0  0  0  0  0  0  0  0  0
   59.1330   34.7060   45.6810 C   0  0  0  0  0  0  0  0  0  0  0  0
   58.8560   33.2400   45.5330 C   0  0  0  0  0  0  0  0  0  0  0  0
   57.9610   24.1080   45.3830 C   0  0  0  0  0  0  0  0  0  0  0  0
   57.5810   23.1160   44.4800 C   0  0  0  0  0  0  0  0  0  0  0  0
   56.9404   20.3407   43.9882 H   0  0  0  0  0  0  0  0  0  0  0  0
   56.0472   20.0775   42.4520 H   0  0  0  0  0  0  0  0  0  0  0  0
   57.5753   21.0218   42.4520 H   0  0  0  0  0  0  0  0  0  0  0  0
   54.2485   23.6879   44.4548 H   0  0  0  0  0  0  0  0  0  0  0  0
   54.9571   25.4260   46.0405 H   0  0  0  0  0  0  0  0  0  0  0  0
   56.5460   26.5302   47.3131 H   0  0  0  0  0  0  0  0  0  0  0  0
   58.0108   25.5500   47.7542 H   0  0  0  0  0  0  0  0  0  0  0  0
   56.8890   27.4800   44.3570 H   0  0  0  0  0  0  0  0  0  0  0  0
   59.9543   31.0874   48.8350 H   0  0  0  0  0  0  0  0  0  0  0  0
   57.5881   33.0379   47.3366 H   0  0  0  0  0  0  0  0  0  0  0  0
   59.4386   33.5947   48.7919 H   0  0  0  0  0  0  0  0  0  0  0  0
   60.6574   33.0904   47.6415 H   0  0  0  0  0  0  0  0  0  0  0  0
   58.9006   35.5855   47.6458 H   0  0  0  0  0  0  0  0  0  0  0  0
   60.5803   35.4601   47.1360 H   0  0  0  0  0  0  0  0  0  0  0  0
   58.2148   35.2815   45.4921 H   0  0  0  0  0  0  0  0  0  0  0  0
   59.8979   35.0280   44.9591 H   0  0  0  0  0  0  0  0  0  0  0  0
   57.9743   33.0634   44.8995 H   0  0  0  0  0  0  0  0  0  0  0  0
   59.6726   32.6847   45.0485 H   0  0  0  0  0  0  0  0  0  0  0  0
   59.0250   24.2168   45.6399 H   0  0  0  0  0  0  0  0  0  0  0  0
   58.3411   22.4568   44.0354 H   0  0  0  0  0  0  0  0  0  0  0  0
  1  2  1  0
  2  3  1  0
  3  4  2  0
  4  5  1  0
  5  6  2  0
  6  7  1  0
  7  8  1  0
  8  9  2  0
  9 10  1  0
 10 11  1  0
 11 12  1  0
 11 13  2  0
 13 14  1  0
 14 15  2  0
 15 16  1  0
 16 17  2  0
 17 18  1  0
 18 19  1  0
 19 20  1  0
 20 21  1  0
 21 22  1  0
 22 23  1  0
  6 24  1  0
 24 25  2  0
 25  3  1  0
 15  9  1  0
 23 19  1  0
 18 14  1  0
  1 26  1  0
  1 27  1  0
  1 28  1  0
  4 29  1  0
  5 30  1  0
  7 31  1  0
  7 32  1  0
 10 33  1  0
 17 34  1  0
 19 35  1  0
 20 36  1  0
 20 37  1  0
 21 38  1  0
 21 39  1  0
 22 40  1  0
 22 41  1  0
 23 42  1  0
 23 43  1  0
 24 44  1  0
 25 45  1  0
M  END
>  <smiles>  (40) 
COc1ccc(CN=c2[nH]c(Cl)nc3c2ncn3C2CCCC2)cc1

>  <score_type>  (40) 
oracle

>  <origin>  (40) 
adg

>  <m_score__min__energy>  (40) 
-8.3399999999999999

>  <m_primary>  (40) 
energy

$$$$
40:0
     RDKit          3D

 46 47  0  0  0  0  0  0  0  0999 V2000
   58.1090   32.4980   43.4290 C   0  0  0  0  0  0  0  0  0  0  0  0
   57.3670   31.2140   43.7830 C   0  0  0  0  0  0  0  0  0  0  0  0
   57.1730   31.1180   45.1920 O   0  0  0  0  0  0  0  0  0  0  0  0
   58.1360   30.6110   46.0760 C   0  0  0  0  0  0  0  0  0  0  0  0
   58.4020   29.2740   46.1170 N   0  0  0  0  0  0  0  0  0  0  0  0
   59.3470   28.7530   46.9410 C   0  0  0  0  0  0  0  0  0  0  0  0
   60.0920   29.5930   47.7700 C   0  0  0  0  0  0  0  0  0  0  0  0
   59.8450   30.9660   47.7490 C   0  0  0  0  0  0  0  0  0  0  0  0
   58.8470   31.4870   46.9150 C   0  0  0  0  0  0  0  0  0  0  0  0
   58.5680   32.9360   46.9280 C   0  0  0  0  0  0  0  0  0  0  0  0
   57.3890   33.3180   47.1590 O   0  0  0  0  0  0  0  0  0  0  0  0
   59.5970   33.9120   46.6470 N   0  0  0  0  0  0  0  0  0  0  0  0
   59.2670   35.3340   46.7780 C   0  0  0  0  0  0  0  0  0  0  0  0
   60.9290   33.5090   46.1610 C   0  0  0  0  0  0  0  0  0  0  0  0
   61.9270   33.4760   47.2900 C   0  0  0  0  0  0  0  0  0  0  0  0
   63.1920   32.9010   47.1060 C   0  0  0  0  0  0  0  0  0  0  0  0
   64.1280   32.9050   48.1430 C   0  0  0  0  0  0  0  0  0  0  0  0
   63.8180   33.4770   49.3950 C   0  0  0  0  0  0  0  0  0  0  0  0
   64.7920   33.4880   50.4720 N   0  0  0  0  0  0  0  0  0  0  0  0
   66.0850   32.8090   50.3170 C   0  0  0  0  0  0  0  0  0  0  0  0
   64.5040   34.1840   51.7320 C   0  0  0  0  0  0  0  0  0  0  0  0
   62.5350   34.0390   49.5720 C   0  0  0  0  0  0  0  0  0  0  0  0
   61.6030   34.0360   48.5320 C   0  0  0  0  0  0  0  0  0  0  0  0
   58.4079   33.0153   44.3526 H   0  0  0  0  0  0  0  0  0  0  0  0
   59.0048   32.2532   42.8395 H   0  0  0  0  0  0  0  0  0  0  0  0
   57.4496   33.1519   42.8395 H   0  0  0  0  0  0  0  0  0  0  0  0
   56.3875   31.2129   43.2824 H   0  0  0  0  0  0  0  0  0  0  0  0
   57.9666   30.3546   43.4485 H   0  0  0  0  0  0  0  0  0  0  0  0
   59.5256   27.6677   46.9552 H   0  0  0  0  0  0  0  0  0  0  0  0
   60.8653   29.1772   48.4326 H   0  0  0  0  0  0  0  0  0  0  0  0
   60.4344   31.6401   48.3879 H   0  0  0  0  0  0  0  0  0  0  0  0
   59.2054   35.5994   47.8437 H   0  0  0  0  0  0  0  0  0  0  0  0
   60.0489   35.9379   46.2943 H   0  0  0  0  0  0  0  0  0  0  0  0
   58.2991   35.5319   46.2943 H   0  0  0  0  0  0  0  0  0  0  0  0
   60.8604   32.5073   45.7118 H   0  0  0  0  0  0  0  0  0  0  0  0
   61.2673   34.2429   45.4147 H   0  0  0  0  0  0  0  0  0  0  0  0
   63.4493   32.4438   46.1391 H   0  0  0  0  0  0  0  0  0  0  0  0
   65.1193   32.4565   47.9814 H   0  0  0  0  0  0  0  0  0  0  0  0
   66.5047   32.5886   51.3096 H   0  0  0  0  0  0  0  0  0  0  0  0
   65.9418   31.8697   49.7627 H   0  0  0  0  0  0  0  0  0  0  0  0
   66.7769   33.4601   49.7627 H   0  0  0  0  0  0  0  0  0  0  0  0
   64.7724   33.5353   52.5789 H   0  0  0  0  0  0  0  0  0  0  0  0
   65.0918   35.1125   51.7806 H   0  0  0  0  0  0  0  0  0  0  0  0
   63.4320   34.4257   51.7806 H   0  0  0  0  0  0  0  0  0  0  0  0
   62.2662   34.4847   50.5410 H   0  0  0  0  0  0  0  0  0  0  0  0
   60.6075   34.4766   48.6895 H   0  0  0  0  0  0  0  0  0  0  0  0
  1  2  1  0
  2  3  1  0
  3  4  1  0
  4  5  2  0
  5  6  1  0
  6  7  2  0
  7  8  1  0
  8  9  2  0
  9 10  1  0
 10 11  2  0
 10 12  1  0
 12 13  1  0
 12 14  1  0
 14 15  1  0
 15 16  2  0
 16 17  1  0
 17 18  2  0
 18 19  1  0
 19 20  1  0
 19 21  1  0
 18 22  1  0
 22 23  2  0
  9  4  1  0
 23 15  1  0
  1 24  1  0
  1 25  1  0
  1 26  1  0
  2 27  1  0
  2 28  1  0
  6 29  1  0
  7 30  1  0
  8 31  1  0
 13 32  1  0
 13 33  1  0
 13 34  1  0
 14 35  1  0
 14 36  1  0
 16 37  1  0
 17 38  1  0
 20 39  1  0
 20 40  1  0
 20 41  1  0
 21 42  1  0
 21 43  1  0
 21 44  1  0
 22 45  1  0
 23 46  1  0
M  END
>  <UniqueID>  (41) 
34

>  <SMILES>  (41) 
CCOc1ncccc1C(=O)N(C)Cc1ccc(N(C)C)cc1

>  <Energy>  (41) 
45.51013156502057

>  <Genealogy>  (41) 
CCOc1ncccc1C(=O)N(C)Cc1ccc(N(C)C)cc1 (3D coordinates assigned)
CCOc1ncccc1C(=O)N(C)Cc1ccc(N(C)C)cc1 (optimized conformer: 45.51013156502057 kcal/mol)

>  <smiles>  (41) 
CCOc1ncccc1C(=O)N(C)Cc1ccc(N(C)C)cc1

>  <score_type>  (41) 
oracle

>  <origin>  (41) 
adg

>  <m_score__min__energy>  (41) 
-7.0300000000000002

>  <m_primary>  (41) 
energy

$$$$
41:0
     RDKit          3D

 36 37  0  0  0  0  0  0  0  0999 V2000
   54.9010   29.6680   43.4520 O   0  0  0  0  0  0  0  0  0  0  0  0
   55.7670   29.7260   44.3660 C   0  0  0  0  0  0  0  0  0  0  0  0
   56.5430   30.9150   44.5180 N   0  0  0  0  0  0  0  0  0  0  0  0
   57.3280   31.4970   43.4360 C   0  0  0  0  0  0  0  0  0  0  0  0
   57.7780   32.9120   43.8010 C   0  0  0  0  0  0  0  0  0  0  0  0
   57.3230   33.3200   45.5240 S   0  0  0  0  0  0  0  0  0  0  0  0
   58.9920   33.1920   46.1740 C   0  0  0  0  0  0  0  0  0  0  0  0
   59.4560   31.9720   46.6830 C   0  0  0  0  0  0  0  0  0  0  0  0
   60.7600   31.8710   47.1790 C   0  0  0  0  0  0  0  0  0  0  0  0
   61.6050   32.9850   47.1610 C   0  0  0  0  0  0  0  0  0  0  0  0
   63.3850   32.8460   47.8380 Br  0  0  0  0  0  0  0  0  0  0  0  0
   61.1460   34.2010   46.6420 C   0  0  0  0  0  0  0  0  0  0  0  0
   59.8430   34.3040   46.1460 C   0  0  0  0  0  0  0  0  0  0  0  0
   55.9680   28.6420   45.2280 O   0  0  0  0  0  0  0  0  0  0  0  0
   57.0280   27.6970   45.0710 C   0  0  0  0  0  0  0  0  0  0  0  0
   58.0470   28.2440   44.0860 C   0  0  0  0  0  0  0  0  0  0  0  0
   59.0100   29.0880   44.9110 C   0  0  0  0  0  0  0  0  0  0  0  0
   58.8740   28.6220   46.3590 C   0  0  0  0  0  0  0  0  0  0  0  0
   57.8000   27.5400   46.3740 C   0  0  0  0  0  0  0  0  0  0  0  0
   58.2141   30.8710   43.2546 H   0  0  0  0  0  0  0  0  0  0  0  0
   56.7050   31.5446   42.5307 H   0  0  0  0  0  0  0  0  0  0  0  0
   58.8703   32.9817   43.6912 H   0  0  0  0  0  0  0  0  0  0  0  0
   57.2770   33.6236   43.1283 H   0  0  0  0  0  0  0  0  0  0  0  0
   58.7946   31.0931   46.6926 H   0  0  0  0  0  0  0  0  0  0  0  0
   61.1212   30.9141   47.5837 H   0  0  0  0  0  0  0  0  0  0  0  0
   61.8113   35.0768   46.6243 H   0  0  0  0  0  0  0  0  0  0  0  0
   59.4859   35.2591   45.7334 H   0  0  0  0  0  0  0  0  0  0  0  0
   56.5778   26.7484   44.7433 H   0  0  0  0  0  0  0  0  0  0  0  0
   58.5847   27.4201   43.5939 H   0  0  0  0  0  0  0  0  0  0  0  0
   57.5665   28.8363   43.2934 H   0  0  0  0  0  0  0  0  0  0  0  0
   60.0416   28.9379   44.5600 H   0  0  0  0  0  0  0  0  0  0  0  0
   58.7770   30.1589   44.8170 H   0  0  0  0  0  0  0  0  0  0  0  0
   59.8300   28.2117   46.7162 H   0  0  0  0  0  0  0  0  0  0  0  0
   58.6010   29.4585   47.0191 H   0  0  0  0  0  0  0  0  0  0  0  0
   58.2623   26.5433   46.4266 H   0  0  0  0  0  0  0  0  0  0  0  0
   57.1397   27.6398   47.2481 H   0  0  0  0  0  0  0  0  0  0  0  0
  1  2  2  0
  2  3  1  0
  3  4  1  0
  4  5  1  0
  5  6  1  0
  6  7  1  0
  7  8  2  0
  8  9  1  0
  9 10  2  0
 10 11  1  0
 10 12  1  0
 12 13  2  0
  2 14  1  0
 14 15  1  0
 15 16  1  0
 16 17  1  0
 17 18  1  0
 18 19  1  0
 13  7  1  0
 19 15  1  0
  4 20  1  0
  4 21  1  0
  5 22  1  0
  5 23  1  0
  8 24  1  0
  9 25  1  0
 12 26  1  0
 13 27  1  0
 15 28  1  0
 16 29  1  0
 16 30  1  0
 17 31  1  0
 17 32  1  0
 18 33  1  0
 18 34  1  0
 19 35  1  0
 19 36  1  0
M  CHG  1   3  -1
M  END
>  <UniqueID>  (42) 
35

>  <SMILES>  (42) 
O=C([N-]CCSc1ccc(Br)cc1)OC1CCCC1

>  <Energy>  (42) 
24.876115192932097

>  <Genealogy>  (42) 
O=C([N-]CCSc1ccc(Br)cc1)OC1CCCC1 (protonated)
O=C([N-]CCSc1ccc(Br)cc1)OC1CCCC1 (3D coordinates assigned)
O=C([N-]CCSc1ccc(Br)cc1)OC1CCCC1 (nonaromatic ring conformer: 24.876115192932097 kcal/mol)

>  <smiles>  (42) 
O=C(NCCSc1ccc(Br)cc1)OC1CCCC1

>  <score_type>  (42) 
oracle

>  <origin>  (42) 
adg

>  <m_score__min__energy>  (42) 
-9.0399999999999991

>  <m_primary>  (42) 
energy

$$$$
42:0
     RDKit          3D

 59 60  0  0  0  0  0  0  0  0999 V2000
   58.1900   32.9620   47.8820 C   0  0  0  0  0  0  0  0  0  0  0  0
   57.7780   33.4700   46.5000 C   0  0  0  0  0  0  0  0  0  0  0  0
   58.8450   33.2560   45.4950 N   0  0  0  0  0  0  0  0  0  0  0  0
   59.5470   34.5100   45.1460 C   0  0  0  0  0  0  0  0  0  0  0  0
   59.6440   35.4050   46.3760 C   0  0  0  0  0  0  0  0  0  0  0  0
   58.4670   32.4250   44.3220 C   0  0  0  0  0  0  0  0  0  0  0  0
   57.0950   31.7160   44.4050 C   0  0  0  0  0  0  0  0  0  0  0  0
   56.7890   30.8180   43.1940 C   0  0  0  0  0  0  0  0  0  0  0  0
   56.5640   29.3450   43.5870 C   0  0  0  0  0  0  0  0  0  0  0  0
   57.8330   28.6240   44.0820 C   0  0  0  0  0  0  0  0  0  0  0  0
   58.0760   28.8270   45.5880 C   0  0  0  0  0  0  0  0  0  0  0  0
   59.5080   29.2900   45.8890 C   0  0  0  0  0  0  0  0  0  0  0  0
   59.5190   30.4620   46.7640 N   0  0  0  0  0  0  0  0  0  0  0  0
   60.5140   30.6130   47.7840 C   0  0  0  0  0  0  0  0  0  0  0  0
   60.5560   29.6790   48.8310 C   0  0  0  0  0  0  0  0  0  0  0  0
   61.4880   29.8090   49.8770 C   0  0  0  0  0  0  0  0  0  0  0  0
   61.5490   28.9030   50.9470 O   0  0  0  0  0  0  0  0  0  0  0  0
   61.1170   27.5480   50.8800 C   0  0  0  0  0  0  0  0  0  0  0  0
   62.3890   30.8760   49.8610 C   0  0  0  0  0  0  0  0  0  0  0  0
   62.3790   31.8040   48.8120 C   0  0  0  0  0  0  0  0  0  0  0  0
   63.2970   32.8610   48.7870 C   0  0  0  0  0  0  0  0  0  0  0  0
   63.2920   33.7600   47.7230 C   0  0  0  0  0  0  0  0  0  0  0  0
   62.3780   33.5880   46.6830 C   0  0  0  0  0  0  0  0  0  0  0  0
   61.4900   32.5560   46.7090 N   0  0  0  0  0  0  0  0  0  0  0  0
   61.4480   31.6720   47.7530 C   0  0  0  0  0  0  0  0  0  0  0  0
   57.6983   33.5682   48.6571 H   0  0  0  0  0  0  0  0  0  0  0  0
   57.8865   31.9104   47.9916 H   0  0  0  0  0  0  0  0  0  0  0  0
   59.2816   33.0419   47.9916 H   0  0  0  0  0  0  0  0  0  0  0  0
   56.8732   32.9334   46.1785 H   0  0  0  0  0  0  0  0  0  0  0  0
   57.5906   34.5513   46.5749 H   0  0  0  0  0  0  0  0  0  0  0  0
   60.5589   34.2741   44.7850 H   0  0  0  0  0  0  0  0  0  0  0  0
   58.9860   35.0339   44.3581 H   0  0  0  0  0  0  0  0  0  0  0  0
   59.5772   34.7883   47.2844 H   0  0  0  0  0  0  0  0  0  0  0  0
   60.6053   35.9395   46.3656 H   0  0  0  0  0  0  0  0  0  0  0  0
   58.8195   36.1331   46.3656 H   0  0  0  0  0  0  0  0  0  0  0  0
   58.4548   33.0783   43.4371 H   0  0  0  0  0  0  0  0  0  0  0  0
   59.2142   31.6190   44.2775 H   0  0  0  0  0  0  0  0  0  0  0  0
   57.0801   31.0934   45.3117 H   0  0  0  0  0  0  0  0  0  0  0  0
   56.3269   32.5032   44.4239 H   0  0  0  0  0  0  0  0  0  0  0  0
   55.8811   31.1926   42.6987 H   0  0  0  0  0  0  0  0  0  0  0  0
   57.6617   30.8536   42.5253 H   0  0  0  0  0  0  0  0  0  0  0  0
   55.8131   29.3128   44.3902 H   0  0  0  0  0  0  0  0  0  0  0  0
   56.2364   28.8208   42.6771 H   0  0  0  0  0  0  0  0  0  0  0  0
   57.7271   27.5472   43.8837 H   0  0  0  0  0  0  0  0  0  0  0  0
   58.6919   29.0515   43.5440 H   0  0  0  0  0  0  0  0  0  0  0  0
   57.3729   29.5864   45.9607 H   0  0  0  0  0  0  0  0  0  0  0  0
   57.9230   27.8589   46.0874 H   0  0  0  0  0  0  0  0  0  0  0  0
   60.0525   28.4709   46.3816 H   0  0  0  0  0  0  0  0  0  0  0  0
   59.9894   29.5640   44.9386 H   0  0  0  0  0  0  0  0  0  0  0  0
   59.0540   31.3280   46.4090 H   0  0  0  0  0  0  0  0  0  0  0  0
   59.8511   28.8345   48.8338 H   0  0  0  0  0  0  0  0  0  0  0  0
   60.9909   27.1526   51.8987 H   0  0  0  0  0  0  0  0  0  0  0  0
   60.1575   27.4951   50.3448 H   0  0  0  0  0  0  0  0  0  0  0  0
   61.8689   26.9495   50.3448 H   0  0  0  0  0  0  0  0  0  0  0  0
   63.1139   30.9887   50.6806 H   0  0  0  0  0  0  0  0  0  0  0  0
   64.0210   32.9813   49.6063 H   0  0  0  0  0  0  0  0  0  0  0  0
   64.0031   34.5990   47.7029 H   0  0  0  0  0  0  0  0  0  0  0  0
   62.3747   34.2906   45.8366 H   0  0  0  0  0  0  0  0  0  0  0  0
   60.8530   32.4500   45.8890 H   0  0  0  0  0  0  0  0  0  0  0  0
  1  2  1  0
  2  3  1  0
  3  4  1  0
  4  5  1  0
  3  6  1  0
  6  7  1  0
  7  8  1  0
  8  9  1  0
  9 10  1  0
 10 11  1  0
 11 12  1  0
 12 13  1  0
 13 14  1  0
 14 15  2  0
 15 16  1  0
 16 17  1  0
 17 18  1  0
 16 19  2  0
 19 20  1  0
 20 21  2  0
 21 22  1  0
 22 23  2  0
 23 24  1  0
 24 25  2  0
 25 14  1  0
 25 20  1  0
  1 26  1  0
  1 27  1  0
  1 28  1  0
  2 29  1  0
  2 30  1  0
  4 31  1  0
  4 32  1  0
  5 33  1  0
  5 34  1  0
  5 35  1  0
  6 36  1  0
  6 37  1  0
  7 38  1  0
  7 39  1  0
  8 40  1  0
  8 41  1  0
  9 42  1  0
  9 43  1  0
 10 44  1  0
 10 45  1  0
 11 46  1  0
 11 47  1  0
 12 48  1  0
 12 49  1  0
 13 50  1  0
 15 51  1  0
 18 52  1  0
 18 53  1  0
 18 54  1  0
 19 55  1  0
 21 56  1  0
 22 57  1  0
 23 58  1  0
 24 59  1  0
M  CHG  1  24   1
M  END
>  <UniqueID>  (43) 
36

>  <SMILES>  (43) 
CCN(CC)CCCCCCCNc1cc(OC)cc2ccc[nH+]c12

>  <Energy>  (43) 
60.37437476466768

>  <Genealogy>  (43) 
CCN(CC)CCCCCCCNc1cc(OC)cc2ccc[nH+]c12 (protonated)
CCN(CC)CCCCCCCNc1cc(OC)cc2ccc[nH+]c12 (3D coordinates assigned)
CCN(CC)CCCCCCCNc1cc(OC)cc2ccc[nH+]c12 (optimized conformer: 60.37437476466768 kcal/mol)

>  <smiles>  (43) 
CCN(CC)CCCCCCCNc1cc(OC)cc2cccnc12

>  <score_type>  (43) 
oracle

>  <origin>  (43) 
adg

>  <m_score__min__energy>  (43) 
-5.7599999999999998

>  <m_primary>  (43) 
energy

$$$$
43:0
     RDKit          3D

 19 20  0  0  0  0  0  0  0  0999 V2000
   55.8820   27.9860   44.5750 H   0  0  0  0  0  0  0  0  0  0  0  0
   55.5910   28.9890   44.6030 N   0  0  0  0  0  0  0  0  0  0  0  0
   56.4390   29.9240   44.8790 C   0  0  0  0  0  0  0  0  0  0  0  0
   56.2610   31.2150   44.5080 N   0  0  0  0  0  0  0  0  0  0  0  0
   57.3040   31.9740   44.9300 C   0  0  0  0  0  0  0  0  0  0  0  0
   57.4220   33.3450   44.7070 C   0  0  0  0  0  0  0  0  0  0  0  0
   56.6420   33.8921   44.1573 H   0  0  0  0  0  0  0  0  0  0  0  0
   58.5550   34.0150   45.1970 C   0  0  0  0  0  0  0  0  0  0  0  0
   58.6599   35.0969   45.0280 H   0  0  0  0  0  0  0  0  0  0  0  0
   59.5610   33.3210   45.9030 C   0  0  0  0  0  0  0  0  0  0  0  0
   60.6670   34.0450   46.3670 O   0  0  0  0  0  0  0  0  0  0  0  0
   61.9000   33.4580   46.7700 C   0  0  0  0  0  0  0  0  0  0  0  0
   61.9525   33.4330   47.8685 H   0  0  0  0  0  0  0  0  0  0  0  0
   61.9640   32.4328   46.3764 H   0  0  0  0  0  0  0  0  0  0  0  0
   62.7361   34.0547   46.3764 H   0  0  0  0  0  0  0  0  0  0  0  0
   59.4240   31.9300   46.1190 C   0  0  0  0  0  0  0  0  0  0  0  0
   60.1942   31.3667   46.6662 H   0  0  0  0  0  0  0  0  0  0  0  0
   58.2920   31.2910   45.6230 C   0  0  0  0  0  0  0  0  0  0  0  0
   57.8750   29.6660   45.7330 S   0  0  0  0  0  0  0  0  0  0  0  0
  1  2  1  0
  2  3  2  0
  3  4  1  0
  4  5  1  0
  5  6  2  0
  6  7  1  0
  6  8  1  0
  8  9  1  0
  8 10  2  0
 10 11  1  0
 11 12  1  0
 12 13  1  0
 12 14  1  0
 12 15  1  0
 10 16  1  0
 16 17  1  0
 16 18  2  0
 18 19  1  0
 19  3  1  0
 18  5  1  0
M  CHG  1   4  -1
M  END
>  <UniqueID>  (44) 
37

>  <SMILES>  (44) 
[H]/N=c1\[n-]c2ccc(OC)cc2s1

>  <Energy>  (44) 
53.33663162889496

>  <Genealogy>  (44) 
COc1ccc2[n-]c(=N)sc2c1 (protonated)
[H]/N=c1\[n-]c2ccc(OC)cc2s1 (cis-trans isomerization)
[H]/N=c1\[n-]c2ccc(OC)cc2s1 (3D coordinates assigned)
[H]/N=c1\[n-]c2ccc(OC)cc2s1 (optimized conformer: 53.33663162889496 kcal/mol)

>  <smiles>  (44) 
COc1ccc2[nH]c(=N)sc2c1

>  <score_type>  (44) 
oracle

>  <origin>  (44) 
adg

>  <m_score__min__energy>  (44) 
-7.3899999999999997

>  <m_primary>  (44) 
energy

$$$$
44:0
     RDKit          3D

 27 28  0  0  0  0  0  0  0  0999 V2000
   55.8960   29.5710   42.4160 N   0  0  0  0  0  0  0  0  0  0  0  0
   56.7010   30.5010   42.7660 C   0  0  0  0  0  0  0  0  0  0  0  0
   57.0930   31.3390   41.7590 N   0  0  0  0  0  0  0  0  0  0  0  0
   57.9390   32.3510   41.9920 C   0  0  0  0  0  0  0  0  0  0  0  0
   58.4020   32.5340   43.2250 N   0  0  0  0  0  0  0  0  0  0  0  0
   58.0580   31.7390   44.2840 C   0  0  0  0  0  0  0  0  0  0  0  0
   58.6480   31.9840   45.6000 C   0  0  0  0  0  0  0  0  0  0  0  0
   59.5610   31.1580   46.1980 C   0  0  0  0  0  0  0  0  0  0  0  0
   60.0260   31.5250   47.4620 C   0  0  0  0  0  0  0  0  0  0  0  0
   59.5930   32.6650   48.0990 C   0  0  0  0  0  0  0  0  0  0  0  0
   58.6650   33.4850   47.4750 C   0  0  0  0  0  0  0  0  0  0  0  0
   58.1860   33.1550   46.2290 C   0  0  0  0  0  0  0  0  0  0  0  0
   57.0220   34.2040   45.4520 Cl  0  0  0  0  0  0  0  0  0  0  0  0
   57.1730   30.6760   44.0570 C   0  0  0  0  0  0  0  0  0  0  0  0
   56.7630   29.7470   45.1350 C   0  0  0  0  0  0  0  0  0  0  0  0
   55.5320   29.0330   44.8640 N   0  0  0  0  0  0  0  0  0  0  0  0
   55.9920   28.6130   42.7880 H   0  0  0  0  0  0  0  0  0  0  0  0
   56.7490   31.2240   40.7850 H   0  0  0  0  0  0  0  0  0  0  0  0
   58.2462   33.0209   41.1754 H   0  0  0  0  0  0  0  0  0  0  0  0
   59.9142   30.2417   45.7024 H   0  0  0  0  0  0  0  0  0  0  0  0
   60.7628   30.8816   47.9652 H   0  0  0  0  0  0  0  0  0  0  0  0
   59.9799   32.9240   49.0956 H   0  0  0  0  0  0  0  0  0  0  0  0
   58.3124   34.3985   47.9762 H   0  0  0  0  0  0  0  0  0  0  0  0
   57.5659   29.0090   45.2789 H   0  0  0  0  0  0  0  0  0  0  0  0
   56.5837   30.3598   46.0307 H   0  0  0  0  0  0  0  0  0  0  0  0
   54.8200   29.7020   44.5390 H   0  0  0  0  0  0  0  0  0  0  0  0
   55.6640   28.2580   44.2050 H   0  0  0  0  0  0  0  0  0  0  0  0
  1  2  2  3
  2  3  1  0
  3  4  1  0
  4  5  2  0
  5  6  1  0
  6  7  1  0
  7  8  2  0
  8  9  1  0
  9 10  2  0
 10 11  1  0
 11 12  2  0
 12 13  1  0
  6 14  2  0
 14 15  1  0
 15 16  1  0
 14  2  1  0
 12  7  1  0
  1 17  1  0
  3 18  1  0
  4 19  1  0
  8 20  1  0
  9 21  1  0
 10 22  1  0
 11 23  1  0
 15 24  1  0
 15 25  1  0
 16 26  1  0
 16 27  1  0
M  END
>  <smiles>  (45) 
N=c1[nH]cnc(-c2ccccc2Cl)c1CN

>  <score_type>  (45) 
oracle

>  <origin>  (45) 
adg

>  <m_score__min__energy>  (45) 
-6.0199999999999996

>  <m_primary>  (45) 
energy

$$$$
45:0
     RDKit          3D

 39 41  0  0  0  0  0  0  0  0999 V2000
   57.8580   21.5920   45.9400 C   0  0  0  0  0  0  0  0  0  0  0  0
   57.7670   22.6720   46.8620 O   0  0  0  0  0  0  0  0  0  0  0  0
   57.2820   23.9480   46.5410 C   0  0  0  0  0  0  0  0  0  0  0  0
   58.0700   25.0600   46.8580 C   0  0  0  0  0  0  0  0  0  0  0  0
   57.6320   26.3530   46.5560 C   0  0  0  0  0  0  0  0  0  0  0  0
   56.3960   26.5500   45.9150 C   0  0  0  0  0  0  0  0  0  0  0  0
   55.8960   27.8590   45.6100 N   0  0  0  0  0  0  0  0  0  0  0  0
   56.5970   28.9050   44.9260 C   0  0  0  0  0  0  0  0  0  0  0  0
   55.9740   29.9120   44.4940 O   0  0  0  0  0  0  0  0  0  0  0  0
   58.0610   28.8170   44.7520 C   0  0  0  0  0  0  0  0  0  0  0  0
   59.0460   29.6770   45.2290 C   0  0  0  0  0  0  0  0  0  0  0  0
   58.8940   30.8130   46.1620 C   0  0  0  0  0  0  0  0  0  0  0  0
   58.3770   32.0430   45.7200 C   0  0  0  0  0  0  0  0  0  0  0  0
   58.2120   33.1020   46.6180 C   0  0  0  0  0  0  0  0  0  0  0  0
   58.5480   32.9370   47.9640 C   0  0  0  0  0  0  0  0  0  0  0  0
   59.0440   31.7120   48.4170 C   0  0  0  0  0  0  0  0  0  0  0  0
   59.2090   30.6500   47.5210 C   0  0  0  0  0  0  0  0  0  0  0  0
   60.2330   29.2770   44.7350 N   0  0  0  0  0  0  0  0  0  0  0  0
   60.0400   28.2260   43.9980 O   0  0  0  0  0  0  0  0  0  0  0  0
   58.7660   27.9080   43.9700 C   0  0  0  0  0  0  0  0  0  0  0  0
   58.2150   26.7590   43.1900 C   0  0  0  0  0  0  0  0  0  0  0  0
   55.5950   25.4410   45.6210 C   0  0  0  0  0  0  0  0  0  0  0  0
   56.0340   24.1470   45.9210 C   0  0  0  0  0  0  0  0  0  0  0  0
   57.9379   20.6441   46.4924 H   0  0  0  0  0  0  0  0  0  0  0  0
   56.9583   21.5731   45.3074 H   0  0  0  0  0  0  0  0  0  0  0  0
   58.7482   21.7239   45.3074 H   0  0  0  0  0  0  0  0  0  0  0  0
   59.0434   24.9155   47.3495 H   0  0  0  0  0  0  0  0  0  0  0  0
   58.2564   27.2191   46.8207 H   0  0  0  0  0  0  0  0  0  0  0  0
   58.1010   32.1731   44.6632 H   0  0  0  0  0  0  0  0  0  0  0  0
   57.8173   34.0659   46.2643 H   0  0  0  0  0  0  0  0  0  0  0  0
   58.4219   33.7727   48.6680 H   0  0  0  0  0  0  0  0  0  0  0  0
   59.3047   31.5824   49.4778 H   0  0  0  0  0  0  0  0  0  0  0  0
   59.5873   29.6826   47.8828 H   0  0  0  0  0  0  0  0  0  0  0  0
   61.1660   29.7070   44.9200 H   0  0  0  0  0  0  0  0  0  0  0  0
   57.8457   25.9888   43.8831 H   0  0  0  0  0  0  0  0  0  0  0  0
   57.3870   27.1095   42.5563 H   0  0  0  0  0  0  0  0  0  0  0  0
   59.0067   26.3328   42.5563 H   0  0  0  0  0  0  0  0  0  0  0  0
   54.6118   25.5879   45.1500 H   0  0  0  0  0  0  0  0  0  0  0  0
   55.4018   23.2821   45.6715 H   0  0  0  0  0  0  0  0  0  0  0  0
  1  2  1  0
  2  3  1  0
  3  4  2  0
  4  5  1  0
  5  6  2  0
  6  7  1  0
  7  8  1  0
  8  9  2  0
  8 10  1  0
 10 11  1  0
 11 12  1  0
 12 13  2  0
 13 14  1  0
 14 15  2  0
 15 16  1  0
 16 17  2  0
 11 18  2  0
 18 19  1  0
 19 20  1  0
 20 21  1  0
  6 22  1  0
 22 23  2  0
 23  3  1  0
 20 10  2  0
 17 12  1  0
  1 24  1  0
  1 25  1  0
  1 26  1  0
  4 27  1  0
  5 28  1  0
 13 29  1  0
 14 30  1  0
 15 31  1  0
 16 32  1  0
 17 33  1  0
 18 34  1  0
 21 35  1  0
 21 36  1  0
 21 37  1  0
 22 38  1  0
 23 39  1  0
M  CHG  2   7  -1  18   1
M  END
>  <UniqueID>  (46) 
38

>  <SMILES>  (46) 
COc1ccc([N-]C(=O)c2c(-c3ccccc3)[nH+]oc2C)cc1

>  <Energy>  (46) 
80.6950229444675

>  <Genealogy>  (46) 
COc1ccc([N-]C(=O)c2c(-c3ccccc3)[nH+]oc2C)cc1 (protonated)
COc1ccc([N-]C(=O)c2c(-c3ccccc3)[nH+]oc2C)cc1 (3D coordinates assigned)
COc1ccc([N-]C(=O)c2c(-c3ccccc3)[nH+]oc2C)cc1 (optimized conformer: 80.6950229444675 kcal/mol)

>  <smiles>  (46) 
COc1ccc(NC(=O)c2c(-c3ccccc3)noc2C)cc1

>  <score_type>  (46) 
oracle

>  <origin>  (46) 
adg

>  <m_score__min__energy>  (46) 
-7.9699999999999998

>  <m_primary>  (46) 
energy

$$$$
46:0
     RDKit          3D

 20 20  0  0  0  0  0  0  0  0999 V2000
   57.4600   33.2830   46.1970 C   0  0  0  0  0  0  0  0  0  0  0  0
   58.1450   31.9640   45.8500 C   0  0  0  0  0  0  0  0  0  0  0  0
   57.6340   31.4390   44.5690 N   0  0  0  0  0  0  0  0  0  0  0  0
   56.8860   30.2920   44.5420 C   0  0  0  0  0  0  0  0  0  0  0  0
   56.6330   29.6560   45.6020 O   0  0  0  0  0  0  0  0  0  0  0  0
   56.3910   29.8170   43.3330 C   0  0  0  0  0  0  0  0  0  0  0  0
   56.6490   30.5080   42.2000 N   0  0  0  0  0  0  0  0  0  0  0  0
   57.3620   31.6350   42.2180 N   0  0  0  0  0  0  0  0  0  0  0  0
   57.5950   32.3400   40.9580 C   0  0  0  0  0  0  0  0  0  0  0  0
   57.8580   32.1210   43.3990 C   0  0  0  0  0  0  0  0  0  0  0  0
   58.5180   33.1990   43.4070 O   0  0  0  0  0  0  0  0  0  0  0  0
   57.4041   33.3906   47.2903 H   0  0  0  0  0  0  0  0  0  0  0  0
   58.0382   34.1185   45.7754 H   0  0  0  0  0  0  0  0  0  0  0  0
   56.4440   33.2906   45.7754 H   0  0  0  0  0  0  0  0  0  0  0  0
   59.2292   32.1298   45.7668 H   0  0  0  0  0  0  0  0  0  0  0  0
   57.9337   31.2330   46.6443 H   0  0  0  0  0  0  0  0  0  0  0  0
   55.7975   28.8915   43.2986 H   0  0  0  0  0  0  0  0  0  0  0  0
   57.9338   33.3651   41.1686 H   0  0  0  0  0  0  0  0  0  0  0  0
   58.3660   31.8107   40.3788 H   0  0  0  0  0  0  0  0  0  0  0  0
   56.6604   32.3744   40.3788 H   0  0  0  0  0  0  0  0  0  0  0  0
  1  2  1  0
  2  3  1  0
  3  4  1  0
  4  5  2  0
  4  6  1  0
  6  7  2  0
  7  8  1  0
  8  9  1  0
  8 10  1  0
 10 11  2  0
 10  3  1  0
  1 12  1  0
  1 13  1  0
  1 14  1  0
  2 15  1  0
  2 16  1  0
  6 17  1  0
  9 18  1  0
  9 19  1  0
  9 20  1  0
M  END
>  <UniqueID>  (47) 
39

>  <SMILES>  (47) 
CCn1c(=O)cnn(C)c1=O

>  <Energy>  (47) 
20.255688825919755

>  <Genealogy>  (47) 
CCn1c(=O)cnn(C)c1=O (3D coordinates assigned)
CCn1c(=O)cnn(C)c1=O (optimized conformer: 20.255688825919755 kcal/mol)

>  <smiles>  (47) 
CCn1c(=O)cnn(C)c1=O

>  <score_type>  (47) 
oracle

>  <origin>  (47) 
adg

>  <m_score__min__energy>  (47) 
-4.3499999999999996

>  <m_primary>  (47) 
energy

$$$$
47:0
     RDKit          3D

 41 43  0  0  0  0  0  0  0  0999 V2000
   56.9580   27.0170   45.6900 C   0  0  0  0  0  0  0  0  0  0  0  0
   57.2710   28.4280   45.2920 C   0  0  0  0  0  0  0  0  0  0  0  0
   58.5970   28.8790   45.2510 C   0  0  0  0  0  0  0  0  0  0  0  0
   58.8770   30.1840   44.8400 C   0  0  0  0  0  0  0  0  0  0  0  0
   57.8260   31.0280   44.4610 C   0  0  0  0  0  0  0  0  0  0  0  0
   58.1010   32.4300   44.0000 C   0  0  0  0  0  0  0  0  0  0  0  0
   57.4950   33.4060   44.9330 N   0  0  0  0  0  0  0  0  0  0  0  0
   58.1670   34.7220   44.8690 C   0  0  0  0  0  0  0  0  0  0  0  0
   59.6170   34.6400   45.3770 C   0  0  0  0  0  0  0  0  0  0  0  0
   59.7130   33.7200   46.5160 N   0  0  0  0  0  0  0  0  0  0  0  0
   60.9790   33.1260   46.8650 C   0  0  0  0  0  0  0  0  0  0  0  0
   62.1740   33.8470   46.6920 C   0  0  0  0  0  0  0  0  0  0  0  0
   63.4030   33.2630   47.0150 C   0  0  0  0  0  0  0  0  0  0  0  0
   63.4520   31.9560   47.5040 C   0  0  0  0  0  0  0  0  0  0  0  0
   62.2710   31.2280   47.6690 C   0  0  0  0  0  0  0  0  0  0  0  0
   61.0390   31.8070   47.3490 C   0  0  0  0  0  0  0  0  0  0  0  0
   58.4940   33.4090   47.2690 C   0  0  0  0  0  0  0  0  0  0  0  0
   57.3980   32.8790   46.3220 C   0  0  0  0  0  0  0  0  0  0  0  0
   56.5470   30.5640   44.4880 N   0  0  0  0  0  0  0  0  0  0  0  0
   56.2490   29.2980   44.8850 C   0  0  0  0  0  0  0  0  0  0  0  0
   56.9411   26.9407   46.7872 H   0  0  0  0  0  0  0  0  0  0  0  0
   55.9748   26.7320   45.2874 H   0  0  0  0  0  0  0  0  0  0  0  0
   57.7285   26.3430   45.2874 H   0  0  0  0  0  0  0  0  0  0  0  0
   59.4167   28.2058   45.5423 H   0  0  0  0  0  0  0  0  0  0  0  0
   59.9154   30.5461   44.8142 H   0  0  0  0  0  0  0  0  0  0  0  0
   59.1882   32.5924   43.9608 H   0  0  0  0  0  0  0  0  0  0  0  0
   57.6626   32.5705   43.0010 H   0  0  0  0  0  0  0  0  0  0  0  0
   58.1730   35.0699   43.8255 H   0  0  0  0  0  0  0  0  0  0  0  0
   57.6150   35.4230   45.5123 H   0  0  0  0  0  0  0  0  0  0  0  0
   60.2649   34.2788   44.5647 H   0  0  0  0  0  0  0  0  0  0  0  0
   59.9367   35.6413   45.7015 H   0  0  0  0  0  0  0  0  0  0  0  0
   62.1419   34.8747   46.3010 H   0  0  0  0  0  0  0  0  0  0  0  0
   64.3335   33.8348   46.8835 H   0  0  0  0  0  0  0  0  0  0  0  0
   64.4199   31.4998   47.7592 H   0  0  0  0  0  0  0  0  0  0  0  0
   62.3104   30.1974   48.0514 H   0  0  0  0  0  0  0  0  0  0  0  0
   60.1124   31.2280   47.4765 H   0  0  0  0  0  0  0  0  0  0  0  0
   58.7207   32.6434   48.0256 H   0  0  0  0  0  0  0  0  0  0  0  0
   58.1317   34.3262   47.7564 H   0  0  0  0  0  0  0  0  0  0  0  0
   57.4748   31.7824   46.2826 H   0  0  0  0  0  0  0  0  0  0  0  0
   56.4337   33.2203   46.7266 H   0  0  0  0  0  0  0  0  0  0  0  0
   55.2037   28.9554   44.8869 H   0  0  0  0  0  0  0  0  0  0  0  0
  1  2  1  0
  2  3  2  0
  3  4  1  0
  4  5  2  0
  5  6  1  0
  6  7  1  0
  7  8  1  0
  8  9  1  0
  9 10  1  0
 10 11  1  0
 11 12  2  0
 12 13  1  0
 13 14  2  0
 14 15  1  0
 15 16  2  0
 10 17  1  0
 17 18  1  0
  5 19  1  0
 19 20  2  0
 20  2  1  0
 18  7  1  0
 16 11  1  0
  1 21  1  0
  1 22  1  0
  1 23  1  0
  3 24  1  0
  4 25  1  0
  6 26  1  0
  6 27  1  0
  8 28  1  0
  8 29  1  0
  9 30  1  0
  9 31  1  0
 12 32  1  0
 13 33  1  0
 14 34  1  0
 15 35  1  0
 16 36  1  0
 17 37  1  0
 17 38  1  0
 18 39  1  0
 18 40  1  0
 20 41  1  0
M  END
>  <UniqueID>  (48) 
40

>  <SMILES>  (48) 
Cc1ccc(CN2CCN(c3ccccc3)CC2)nc1

>  <Energy>  (48) 
53.460681589847866

>  <Genealogy>  (48) 
Cc1ccc(CN2CCN(c3ccccc3)CC2)nc1 (3D coordinates assigned)
Cc1ccc(CN2CCN(c3ccccc3)CC2)nc1 (nonaromatic ring conformer: 53.460681589847866 kcal/mol)

>  <smiles>  (48) 
Cc1ccc(CN2CCN(c3ccccc3)CC2)nc1

>  <score_type>  (48) 
oracle

>  <origin>  (48) 
adg

>  <m_score__min__energy>  (48) 
-7.5499999999999998

>  <m_primary>  (48) 
energy

$$$$
48:0
     RDKit          3D

 37 39  0  0  0  0  0  0  0  0999 V2000
   60.5324   29.5083   47.6420 H   0  0  0  0  0  0  0  0  0  0  0  0
   59.8510   29.1440   46.8590 C   0  0  0  0  0  0  0  0  0  0  0  0
   58.5220   29.4350   46.8570 N   0  0  0  0  0  0  0  0  0  0  0  0
   57.8880   28.8850   45.8000 C   0  0  0  0  0  0  0  0  0  0  0  0
   56.6150   29.0570   45.5990 N   0  0  0  0  0  0  0  0  0  0  0  0
   55.9870   29.7200   44.4920 C   0  0  0  0  0  0  0  0  0  0  0  0
   54.8320   29.3940   44.1090 O   0  0  0  0  0  0  0  0  0  0  0  0
   56.7290   30.7800   43.7810 C   0  0  0  0  0  0  0  0  0  0  0  0
   56.6390   30.8200   42.3790 C   0  0  0  0  0  0  0  0  0  0  0  0
   56.0148   30.0828   41.8527 H   0  0  0  0  0  0  0  0  0  0  0  0
   57.3330   31.7850   41.6470 C   0  0  0  0  0  0  0  0  0  0  0  0
   57.2415   31.8147   40.5512 H   0  0  0  0  0  0  0  0  0  0  0  0
   58.1410   32.7100   42.3030 C   0  0  0  0  0  0  0  0  0  0  0  0
   58.6900   33.4665   41.7231 H   0  0  0  0  0  0  0  0  0  0  0  0
   58.2570   32.6810   43.6930 C   0  0  0  0  0  0  0  0  0  0  0  0
   58.9056   33.4107   44.1998 H   0  0  0  0  0  0  0  0  0  0  0  0
   57.5530   31.7280   44.4550 C   0  0  0  0  0  0  0  0  0  0  0  0
   57.7660   31.6750   45.8870 N   0  0  0  0  0  0  0  0  0  0  0  0
   57.0340   31.0750   46.3360 H   0  0  0  0  0  0  0  0  0  0  0  0
   58.6780   31.2160   46.1010 H   0  0  0  0  0  0  0  0  0  0  0  0
   57.6890   33.0230   46.4750 C   0  0  0  0  0  0  0  0  0  0  0  0
   57.4090   33.7444   45.6932 H   0  0  0  0  0  0  0  0  0  0  0  0
   56.9338   33.0218   47.2748 H   0  0  0  0  0  0  0  0  0  0  0  0
   59.0220   33.4160   47.0600 C   0  0  0  0  0  0  0  0  0  0  0  0
   59.1580   33.6180   48.4440 C   0  0  0  0  0  0  0  0  0  0  0  0
   58.2808   33.5187   49.1002 H   0  0  0  0  0  0  0  0  0  0  0  0
   60.4040   33.9450   48.9920 C   0  0  0  0  0  0  0  0  0  0  0  0
   60.5032   34.1037   50.0760 H   0  0  0  0  0  0  0  0  0  0  0  0
   61.5230   34.0700   48.1620 C   0  0  0  0  0  0  0  0  0  0  0  0
   62.5001   34.3363   48.5914 H   0  0  0  0  0  0  0  0  0  0  0  0
   61.3980   33.8560   46.7860 C   0  0  0  0  0  0  0  0  0  0  0  0
   62.2789   33.9504   46.1339 H   0  0  0  0  0  0  0  0  0  0  0  0
   60.1550   33.5220   46.2360 C   0  0  0  0  0  0  0  0  0  0  0  0
   60.0649   33.3418   45.1546 H   0  0  0  0  0  0  0  0  0  0  0  0
   58.9560   28.0040   44.8350 S   0  0  0  0  0  0  0  0  0  0  0  0
   60.2870   28.3540   45.8020 C   0  0  0  0  0  0  0  0  0  0  0  0
   61.3197   28.0172   45.6285 H   0  0  0  0  0  0  0  0  0  0  0  0
  1  2  1  0
  2  3  1  0
  3  4  1  0
  4  5  2  0
  5  6  1  0
  6  7  2  0
  6  8  1  0
  8  9  2  0
  9 10  1  0
  9 11  1  0
 11 12  1  0
 11 13  2  0
 13 14  1  0
 13 15  1  0
 15 16  1  0
 15 17  2  0
 17 18  1  0
 18 19  1  0
 18 20  1  0
 18 21  1  0
 21 22  1  0
 21 23  1  0
 21 24  1  0
 24 25  2  0
 25 26  1  0
 25 27  1  0
 27 28  1  0
 27 29  2  0
 29 30  1  0
 29 31  1  0
 31 32  1  0
 31 33  2  0
 33 34  1  0
  4 35  1  0
 35 36  1  0
 36 37  1  0
 36  2  2  0
 17  8  1  0
 33 24  1  0
M  CHG  2   3  -1  18   1
M  END
>  <UniqueID>  (49) 
41

>  <SMILES>  (49) 
O=C(/N=c1/[n-]ccs1)c1ccccc1[NH2+]Cc1ccccc1

>  <Energy>  (49) 
79.94860098342579

>  <Genealogy>  (49) 
O=C(N=c1[n-]ccs1)c1ccccc1[NH2+]Cc1ccccc1 (protonated)
O=C(/N=c1/[n-]ccs1)c1ccccc1[NH2+]Cc1ccccc1 (cis-trans isomerization)
O=C(/N=c1/[n-]ccs1)c1ccccc1[NH2+]Cc1ccccc1 (3D coordinates assigned)
O=C(/N=c1/[n-]ccs1)c1ccccc1[NH2+]Cc1ccccc1 (optimized conformer: 79.94860098342579 kcal/mol)

>  <smiles>  (49) 
O=C(N=c1[nH]ccs1)c1ccccc1NCc1ccccc1

>  <score_type>  (49) 
oracle

>  <origin>  (49) 
adg

>  <m_score__min__energy>  (49) 
-7.1600000000000001

>  <m_primary>  (49) 
energy

$$$$
49:0
     RDKit          3D

 24 25  0  0  0  0  0  0  0  0999 V2000
   60.0960   34.2370   48.4780 C   0  0  0  0  0  0  0  0  0  0  0  0
   58.8920   34.4530   47.7500 O   0  0  0  0  0  0  0  0  0  0  0  0
   58.5690   33.8160   46.5420 C   0  0  0  0  0  0  0  0  0  0  0  0
   57.7480   32.6750   46.4890 C   0  0  0  0  0  0  0  0  0  0  0  0
   57.4510   32.0690   45.2640 C   0  0  0  0  0  0  0  0  0  0  0  0
   56.6720   30.9920   45.2410 O   0  0  0  0  0  0  0  0  0  0  0  0
   56.3480   30.3650   44.1170 C   0  0  0  0  0  0  0  0  0  0  0  0
   55.6070   29.3500   44.1630 O   0  0  0  0  0  0  0  0  0  0  0  0
   56.8240   30.8240   42.8880 C   0  0  0  0  0  0  0  0  0  0  0  0
   57.6510   31.9560   42.8470 C   0  0  0  0  0  0  0  0  0  0  0  0
   58.1620   32.4490   41.5180 C   0  0  0  0  0  0  0  0  0  0  0  0
   57.9760   32.6010   44.0620 C   0  0  0  0  0  0  0  0  0  0  0  0
   58.7980   33.7430   44.1230 C   0  0  0  0  0  0  0  0  0  0  0  0
   59.0890   34.3410   45.3520 C   0  0  0  0  0  0  0  0  0  0  0  0
   59.8820   35.4400   45.3880 F   0  0  0  0  0  0  0  0  0  0  0  0
   59.8841   34.2750   49.5567 H   0  0  0  0  0  0  0  0  0  0  0  0
   60.5086   33.2505   48.2199 H   0  0  0  0  0  0  0  0  0  0  0  0
   60.8258   35.0186   48.2199 H   0  0  0  0  0  0  0  0  0  0  0  0
   57.3361   32.2558   47.4189 H   0  0  0  0  0  0  0  0  0  0  0  0
   56.5526   30.3019   41.9586 H   0  0  0  0  0  0  0  0  0  0  0  0
   58.9446   33.2041   41.6833 H   0  0  0  0  0  0  0  0  0  0  0  0
   58.5808   31.6051   40.9502 H   0  0  0  0  0  0  0  0  0  0  0  0
   57.3336   32.8978   40.9502 H   0  0  0  0  0  0  0  0  0  0  0  0
   59.2137   34.1670   43.1970 H   0  0  0  0  0  0  0  0  0  0  0  0
  1  2  1  0
  2  3  1  0
  3  4  2  0
  4  5  1  0
  5  6  1  0
  6  7  1  0
  7  8  2  0
  7  9  1  0
  9 10  2  0
 10 11  1  0
 10 12  1  0
 12 13  1  0
 13 14  2  0
 14 15  1  0
 14  3  1  0
 12  5  2  0
  1 16  1  0
  1 17  1  0
  1 18  1  0
  4 19  1  0
  9 20  1  0
 11 21  1  0
 11 22  1  0
 11 23  1  0
 13 24  1  0
M  END
>  <UniqueID>  (50) 
42

>  <SMILES>  (50) 
COc1cc2oc(=O)cc(C)c2cc1F

>  <Energy>  (50) 
29.364408247460972

>  <Genealogy>  (50) 
COc1cc2oc(=O)cc(C)c2cc1F (3D coordinates assigned)
COc1cc2oc(=O)cc(C)c2cc1F (optimized conformer: 29.364408247460972 kcal/mol)

>  <smiles>  (50) 
COc1cc2oc(=O)cc(C)c2cc1F

>  <score_type>  (50) 
oracle

>  <origin>  (50) 
adg

>  <m_score__min__energy>  (50) 
-6.2699999999999996

>  <m_primary>  (50) 
energy

$$$$
50:0
     RDKit          3D

 36 37  0  0  0  0  0  0  0  0999 V2000
   61.4005   29.2655   45.4251 H   0  0  0  0  0  0  0  0  0  0  0  0
   60.6340   29.7040   46.0810 C   0  0  0  0  0  0  0  0  0  0  0  0
   60.9970   30.3980   47.1150 N   0  0  0  0  0  0  0  0  0  0  0  0
   61.2790   31.8030   47.0820 C   0  0  0  0  0  0  0  0  0  0  0  0
   62.3730   32.2520   47.5240 O   0  0  0  0  0  0  0  0  0  0  0  0
   60.2150   32.7590   46.6250 C   0  0  0  0  0  0  0  0  0  0  0  0
   60.4342   32.5703   45.5637 H   0  0  0  0  0  0  0  0  0  0  0  0
   58.9240   32.8690   47.4680 C   0  0  0  0  0  0  0  0  0  0  0  0
   57.6290   33.0880   46.6660 C   0  0  0  0  0  0  0  0  0  0  0  0
   56.7875   33.2303   47.3600 H   0  0  0  0  0  0  0  0  0  0  0  0
   57.7367   33.9807   46.0324 H   0  0  0  0  0  0  0  0  0  0  0  0
   57.4371   32.2095   46.0324 H   0  0  0  0  0  0  0  0  0  0  0  0
   58.7630   32.0180   48.7450 C   0  0  0  0  0  0  0  0  0  0  0  0
   58.8843   32.6591   49.6306 H   0  0  0  0  0  0  0  0  0  0  0  0
   57.7625   31.5611   48.7574 H   0  0  0  0  0  0  0  0  0  0  0  0
   59.5275   31.2271   48.7574 H   0  0  0  0  0  0  0  0  0  0  0  0
   59.9620   34.0200   47.4840 C   0  0  0  0  0  0  0  0  0  0  0  0
   60.7720   34.2490   48.7770 C   0  0  0  0  0  0  0  0  0  0  0  0
   60.1281   34.0670   49.6501 H   0  0  0  0  0  0  0  0  0  0  0  0
   61.6270   33.5574   48.8014 H   0  0  0  0  0  0  0  0  0  0  0  0
   61.1383   35.2859   48.8014 H   0  0  0  0  0  0  0  0  0  0  0  0
   59.6270   35.2980   46.6950 C   0  0  0  0  0  0  0  0  0  0  0  0
   59.4123   36.1169   47.3974 H   0  0  0  0  0  0  0  0  0  0  0  0
   60.4834   35.5731   46.0618 H   0  0  0  0  0  0  0  0  0  0  0  0
   58.7458   35.1176   46.0618 H   0  0  0  0  0  0  0  0  0  0  0  0
   59.2050   29.4950   45.7730 C   0  0  0  0  0  0  0  0  0  0  0  0
   58.5160   30.4530   45.0110 C   0  0  0  0  0  0  0  0  0  0  0  0
   59.0441   31.3472   44.6485 H   0  0  0  0  0  0  0  0  0  0  0  0
   57.1610   30.2750   44.7110 C   0  0  0  0  0  0  0  0  0  0  0  0
   56.6279   31.0297   44.1141 H   0  0  0  0  0  0  0  0  0  0  0  0
   56.4830   29.1420   45.1670 C   0  0  0  0  0  0  0  0  0  0  0  0
   55.1380   28.9680   44.8670 O   0  0  0  0  0  0  0  0  0  0  0  0
   57.1610   28.1830   45.9260 C   0  0  0  0  0  0  0  0  0  0  0  0
   56.6279   27.2902   46.2849 H   0  0  0  0  0  0  0  0  0  0  0  0
   58.5150   28.3560   46.2300 C   0  0  0  0  0  0  0  0  0  0  0  0
   59.0431   27.5991   46.8286 H   0  0  0  0  0  0  0  0  0  0  0  0
  1  2  1  0
  2  3  2  0
  3  4  1  0
  4  5  2  0
  4  6  1  0
  6  7  1  0
  6  8  1  0
  8  9  1  0
  9 10  1  0
  9 11  1  0
  9 12  1  0
  8 13  1  0
 13 14  1  0
 13 15  1  0
 13 16  1  0
  8 17  1  0
 17 18  1  0
 18 19  1  0
 18 20  1  0
 18 21  1  0
 17 22  1  0
 22 23  1  0
 22 24  1  0
 22 25  1  0
  2 26  1  0
 26 27  2  0
 27 28  1  0
 27 29  1  0
 29 30  1  0
 29 31  2  0
 31 32  1  0
 31 33  1  0
 33 34  1  0
 33 35  2  0
 35 36  1  0
 17  6  1  0
 35 26  1  0
M  CHG  1  32  -1
M  END
>  <UniqueID>  (51) 
43

>  <SMILES>  (51) 
CC1(C)C(C(=O)/N=C/c2ccc([O-])cc2)C1(C)C

>  <Energy>  (51) 
312.4755677903666

>  <Genealogy>  (51) 
CC1(C)C(C(=O)N=Cc2ccc([O-])cc2)C1(C)C (protonated)
CC1(C)C(C(=O)/N=C/c2ccc([O-])cc2)C1(C)C (cis-trans isomerization)
CC1(C)C(C(=O)/N=C/c2ccc([O-])cc2)C1(C)C (3D coordinates assigned)
CC1(C)C(C(=O)/N=C/c2ccc([O-])cc2)C1(C)C (nonaromatic ring conformer: 312.4755677903666 kcal/mol)

>  <smiles>  (51) 
CC1(C)C(C(=O)N=Cc2ccc(O)cc2)C1(C)C

>  <score_type>  (51) 
oracle

>  <origin>  (51) 
adg

>  <m_score__min__energy>  (51) 
-10.380000000000001

>  <m_primary>  (51) 
energy

$$$$
51:0
     RDKit          3D

 34 35  0  0  0  0  0  0  0  0999 V2000
   58.2330   26.0020   47.3080 C   0  0  0  0  0  0  0  0  0  0  0  0
   57.2880   26.5530   46.2350 C   0  0  0  0  0  0  0  0  0  0  0  0
   57.3170   25.6650   44.9890 C   0  0  0  0  0  0  0  0  0  0  0  0
   57.6620   27.9270   45.8830 N   0  0  0  0  0  0  0  0  0  0  0  0
   56.7240   28.8560   45.3120 C   0  0  0  0  0  0  0  0  0  0  0  0
   55.5220   28.5120   45.1650 O   0  0  0  0  0  0  0  0  0  0  0  0
   57.1840   30.1980   44.8720 C   0  0  0  0  0  0  0  0  0  0  0  0
   57.7610   31.0090   45.8010 N   0  0  0  0  0  0  0  0  0  0  0  0
   58.2360   32.2510   45.5180 C   0  0  0  0  0  0  0  0  0  0  0  0
   58.8460   33.0590   46.6060 C   0  0  0  0  0  0  0  0  0  0  0  0
   59.4670   34.2970   46.3460 C   0  0  0  0  0  0  0  0  0  0  0  0
   60.0410   35.0350   47.3850 C   0  0  0  0  0  0  0  0  0  0  0  0
   60.0100   34.5470   48.6930 C   0  0  0  0  0  0  0  0  0  0  0  0
   59.4080   33.3160   48.9630 C   0  0  0  0  0  0  0  0  0  0  0  0
   58.8330   32.5740   47.9280 C   0  0  0  0  0  0  0  0  0  0  0  0
   58.1190   32.7410   44.2090 C   0  0  0  0  0  0  0  0  0  0  0  0
   57.5290   31.9460   43.2260 C   0  0  0  0  0  0  0  0  0  0  0  0
   57.4190   32.3940   42.0530 O   0  0  0  0  0  0  0  0  0  0  0  0
   57.0550   30.6630   43.5420 C   0  0  0  0  0  0  0  0  0  0  0  0
   56.2660   29.7200   42.2740 Cl  0  0  0  0  0  0  0  0  0  0  0  0
   57.8318   26.2360   48.3051 H   0  0  0  0  0  0  0  0  0  0  0  0
   58.3204   24.9114   47.1946 H   0  0  0  0  0  0  0  0  0  0  0  0
   59.2252   26.4631   47.1946 H   0  0  0  0  0  0  0  0  0  0  0  0
   56.2658   26.5566   46.6412 H   0  0  0  0  0  0  0  0  0  0  0  0
   57.3515   24.6083   45.2926 H   0  0  0  0  0  0  0  0  0  0  0  0
   56.4125   25.8449   44.3894 H   0  0  0  0  0  0  0  0  0  0  0  0
   58.2078   25.9035   44.3894 H   0  0  0  0  0  0  0  0  0  0  0  0
   58.6330   28.2560   46.0910 H   0  0  0  0  0  0  0  0  0  0  0  0
   59.5003   34.6855   45.3174 H   0  0  0  0  0  0  0  0  0  0  0  0
   60.5184   36.0028   47.1718 H   0  0  0  0  0  0  0  0  0  0  0  0
   60.4591   35.1313   49.5096 H   0  0  0  0  0  0  0  0  0  0  0  0
   59.3865   32.9297   49.9927 H   0  0  0  0  0  0  0  0  0  0  0  0
   58.3661   31.6026   48.1478 H   0  0  0  0  0  0  0  0  0  0  0  0
   58.4901   33.7459   43.9590 H   0  0  0  0  0  0  0  0  0  0  0  0
  1  2  1  0
  2  3  1  0
  2  4  1  0
  4  5  1  0
  5  6  2  0
  5  7  1  0
  7  8  1  0
  8  9  1  0
  9 10  1  0
 10 11  2  0
 11 12  1  0
 12 13  2  0
 13 14  1  0
 14 15  2  0
  9 16  2  0
 16 17  1  0
 17 18  2  0
 17 19  1  0
 19 20  1  0
 19  7  2  0
 15 10  1  0
  1 21  1  0
  1 22  1  0
  1 23  1  0
  2 24  1  0
  3 25  1  0
  3 26  1  0
  3 27  1  0
  4 28  1  0
 11 29  1  0
 12 30  1  0
 13 31  1  0
 14 32  1  0
 15 33  1  0
 16 34  1  0
M  CHG  1   8  -1
M  END
>  <UniqueID>  (52) 
44

>  <SMILES>  (52) 
CC(C)NC(=O)c1[n-]c(-c2ccccc2)cc(=O)c1Cl

>  <Energy>  (52) 
37.40727720945823

>  <Genealogy>  (52) 
CC(C)NC(=O)c1[n-]c(-c2ccccc2)cc(=O)c1Cl (protonated)
CC(C)NC(=O)c1[n-]c(-c2ccccc2)cc(=O)c1Cl (3D coordinates assigned)
CC(C)NC(=O)c1[n-]c(-c2ccccc2)cc(=O)c1Cl (optimized conformer: 37.40727720945823 kcal/mol)

>  <smiles>  (52) 
CC(C)NC(=O)c1[nH]c(-c2ccccc2)cc(=O)c1Cl

>  <score_type>  (52) 
oracle

>  <origin>  (52) 
adg

>  <m_score__min__energy>  (52) 
-8.1999999999999993

>  <m_primary>  (52) 
energy

$$$$
52:0
     RDKit          3D

 40 42  0  0  0  0  0  0  0  0999 V2000
   59.6390   34.8000   46.2060 C   0  0  0  0  0  0  0  0  0  0  0  0
   58.9050   33.7050   45.4920 C   0  0  0  0  0  0  0  0  0  0  0  0
   58.6300   33.7650   44.1270 C   0  0  0  0  0  0  0  0  0  0  0  0
   57.7740   32.3850   43.6920 S   0  0  0  0  0  0  0  0  0  0  0  0
   57.7660   31.6890   45.2210 C   0  0  0  0  0  0  0  0  0  0  0  0
   57.0190   30.5250   45.5950 N   0  0  0  0  0  0  0  0  0  0  0  0
   56.4490   29.5650   44.6990 C   0  0  0  0  0  0  0  0  0  0  0  0
   55.2100   29.3440   44.7640 O   0  0  0  0  0  0  0  0  0  0  0  0
   57.3020   28.6990   43.8110 C   0  0  0  0  0  0  0  0  0  0  0  0
   58.4640   28.1150   44.5720 C   0  0  0  0  0  0  0  0  0  0  0  0
   59.6860   28.8090   44.6380 C   0  0  0  0  0  0  0  0  0  0  0  0
   60.7570   28.2830   45.3660 C   0  0  0  0  0  0  0  0  0  0  0  0
   60.6170   27.0650   46.0360 C   0  0  0  0  0  0  0  0  0  0  0  0
   59.4050   26.3720   45.9820 C   0  0  0  0  0  0  0  0  0  0  0  0
   58.3300   26.8960   45.2550 C   0  0  0  0  0  0  0  0  0  0  0  0
   58.4060   32.5420   46.1190 C   0  0  0  0  0  0  0  0  0  0  0  0
   58.5230   32.2620   47.5690 C   0  0  0  0  0  0  0  0  0  0  0  0
   57.9540   33.0340   48.3870 O   0  0  0  0  0  0  0  0  0  0  0  0
   59.2820   31.0940   48.0830 C   0  0  0  0  0  0  0  0  0  0  0  0
   58.7020   29.8110   48.1190 C   0  0  0  0  0  0  0  0  0  0  0  0
   59.4280   28.7200   48.6070 C   0  0  0  0  0  0  0  0  0  0  0  0
   60.7400   28.8940   49.0520 C   0  0  0  0  0  0  0  0  0  0  0  0
   61.3300   30.1580   49.0060 C   0  0  0  0  0  0  0  0  0  0  0  0
   60.6090   31.2530   48.5210 C   0  0  0  0  0  0  0  0  0  0  0  0
   59.5435   34.6575   47.2925 H   0  0  0  0  0  0  0  0  0  0  0  0
   60.7021   34.7729   45.9247 H   0  0  0  0  0  0  0  0  0  0  0  0
   59.2100   35.7730   45.9247 H   0  0  0  0  0  0  0  0  0  0  0  0
   58.9238   34.5790   43.4480 H   0  0  0  0  0  0  0  0  0  0  0  0
   56.6868   27.8794   43.4112 H   0  0  0  0  0  0  0  0  0  0  0  0
   57.6979   29.3210   42.9947 H   0  0  0  0  0  0  0  0  0  0  0  0
   59.7991   29.7698   44.1144 H   0  0  0  0  0  0  0  0  0  0  0  0
   61.7111   28.8286   45.4115 H   0  0  0  0  0  0  0  0  0  0  0  0
   61.4617   26.6513   46.6065 H   0  0  0  0  0  0  0  0  0  0  0  0
   59.2956   25.4139   46.5112 H   0  0  0  0  0  0  0  0  0  0  0  0
   57.3757   26.3501   45.2187 H   0  0  0  0  0  0  0  0  0  0  0  0
   57.6719   29.6663   47.7612 H   0  0  0  0  0  0  0  0  0  0  0  0
   58.9647   27.7229   48.6404 H   0  0  0  0  0  0  0  0  0  0  0  0
   61.3083   28.0352   49.4387 H   0  0  0  0  0  0  0  0  0  0  0  0
   62.3653   30.2929   49.3524 H   0  0  0  0  0  0  0  0  0  0  0  0
   61.0824   32.2451   48.4817 H   0  0  0  0  0  0  0  0  0  0  0  0
  1  2  1  0
  2  3  2  0
  3  4  1  0
  4  5  1  0
  5  6  1  0
  6  7  1  0
  7  8  2  0
  7  9  1  0
  9 10  1  0
 10 11  2  0
 11 12  1  0
 12 13  2  0
 13 14  1  0
 14 15  2  0
  5 16  2  0
 16 17  1  0
 17 18  2  0
 17 19  1  0
 19 20  2  0
 20 21  1  0
 21 22  2  0
 22 23  1  0
 23 24  2  0
 16  2  1  0
 24 19  1  0
 15 10  1  0
  1 25  1  0
  1 26  1  0
  1 27  1  0
  3 28  1  0
  9 29  1  0
  9 30  1  0
 11 31  1  0
 12 32  1  0
 13 33  1  0
 14 34  1  0
 15 35  1  0
 20 36  1  0
 21 37  1  0
 22 38  1  0
 23 39  1  0
 24 40  1  0
M  CHG  1   6  -1
M  END
>  <UniqueID>  (53) 
45

>  <SMILES>  (53) 
Cc1csc([N-]C(=O)Cc2ccccc2)c1C(=O)c1ccccc1

>  <Energy>  (53) 
77.6847543125355

>  <Genealogy>  (53) 
Cc1csc([N-]C(=O)Cc2ccccc2)c1C(=O)c1ccccc1 (protonated)
Cc1csc([N-]C(=O)Cc2ccccc2)c1C(=O)c1ccccc1 (3D coordinates assigned)
Cc1csc([N-]C(=O)Cc2ccccc2)c1C(=O)c1ccccc1 (optimized conformer: 77.6847543125355 kcal/mol)

>  <smiles>  (53) 
Cc1csc(NC(=O)Cc2ccccc2)c1C(=O)c1ccccc1

>  <score_type>  (53) 
oracle

>  <origin>  (53) 
adg

>  <m_score__min__energy>  (53) 
-10.49

>  <m_primary>  (53) 
energy

$$$$
53:0
     RDKit          3D

 49 52  0  0  0  0  0  0  0  0999 V2000
   61.8090   30.7830   47.3660 C   0  0  0  0  0  0  0  0  0  0  0  0
   61.2670   31.6690   48.4180 N   0  0  0  0  0  0  0  0  0  0  0  0
   61.2110   30.9600   49.7190 C   0  0  0  0  0  0  0  0  0  0  0  0
   62.6100   30.6800   50.2780 C   0  0  0  0  0  0  0  0  0  0  0  0
   63.4270   31.8820   50.2500 N   0  0  0  0  0  0  0  0  0  0  0  0
   63.2250   32.9310   49.3010 C   0  0  0  0  0  0  0  0  0  0  0  0
   64.0880   33.8460   49.2170 O   0  0  0  0  0  0  0  0  0  0  0  0
   61.9300   33.0160   48.5060 C   0  0  0  0  0  0  0  0  0  0  0  0
   60.9800   34.0200   49.2150 C   0  0  0  0  0  0  0  0  0  0  0  0
   59.6680   34.2420   48.4250 C   0  0  0  0  0  0  0  0  0  0  0  0
   59.6940   33.5770   47.1060 N   0  0  0  0  0  0  0  0  0  0  0  0
   58.4550   33.8550   46.3540 C   0  0  0  0  0  0  0  0  0  0  0  0
   58.3120   32.8780   45.2240 C   0  0  0  0  0  0  0  0  0  0  0  0
   57.9600   33.1880   43.9120 C   0  0  0  0  0  0  0  0  0  0  0  0
   57.8290   32.0550   43.1820 N   0  0  0  0  0  0  0  0  0  0  0  0
   57.4100   31.9660   41.7870 C   0  0  0  0  0  0  0  0  0  0  0  0
   58.0710   31.0370   44.0300 C   0  0  0  0  0  0  0  0  0  0  0  0
   58.0030   29.7080   43.7470 N   0  0  0  0  0  0  0  0  0  0  0  0
   58.2460   28.8040   44.7440 C   0  0  0  0  0  0  0  0  0  0  0  0
   58.5540   29.2420   46.0520 C   0  0  0  0  0  0  0  0  0  0  0  0
   58.6130   30.6170   46.3330 C   0  0  0  0  0  0  0  0  0  0  0  0
   58.3680   31.4980   45.2830 C   0  0  0  0  0  0  0  0  0  0  0  0
   60.8930   33.9750   46.3370 C   0  0  0  0  0  0  0  0  0  0  0  0
   62.1970   33.6390   47.0980 C   0  0  0  0  0  0  0  0  0  0  0  0
   62.3285   29.9337   47.8337 H   0  0  0  0  0  0  0  0  0  0  0  0
   60.9847   30.4093   46.7408 H   0  0  0  0  0  0  0  0  0  0  0  0
   62.5170   31.3467   46.7408 H   0  0  0  0  0  0  0  0  0  0  0  0
   60.6581   31.5812   50.4390 H   0  0  0  0  0  0  0  0  0  0  0  0
   60.7081   29.9947   49.5598 H   0  0  0  0  0  0  0  0  0  0  0  0
   62.5198   30.3293   51.3167 H   0  0  0  0  0  0  0  0  0  0  0  0
   63.0914   29.9118   49.6550 H   0  0  0  0  0  0  0  0  0  0  0  0
   60.7309   33.6281   50.2122 H   0  0  0  0  0  0  0  0  0  0  0  0
   61.5006   34.9866   49.2829 H   0  0  0  0  0  0  0  0  0  0  0  0
   58.8290   33.8371   49.0099 H   0  0  0  0  0  0  0  0  0  0  0  0
   59.5526   35.3230   48.2571 H   0  0  0  0  0  0  0  0  0  0  0  0
   57.5908   33.7618   47.0281 H   0  0  0  0  0  0  0  0  0  0  0  0
   58.5007   34.8756   45.9461 H   0  0  0  0  0  0  0  0  0  0  0  0
   57.8101   34.2066   43.5248 H   0  0  0  0  0  0  0  0  0  0  0  0
   56.3350   31.7376   41.7409 H   0  0  0  0  0  0  0  0  0  0  0  0
   57.6030   32.9252   41.2843 H   0  0  0  0  0  0  0  0  0  0  0  0
   57.9762   31.1681   41.2843 H   0  0  0  0  0  0  0  0  0  0  0  0
   57.7640   29.3740   42.7880 H   0  0  0  0  0  0  0  0  0  0  0  0
   58.2014   27.7267   44.5261 H   0  0  0  0  0  0  0  0  0  0  0  0
   58.7471   28.5078   46.8481 H   0  0  0  0  0  0  0  0  0  0  0  0
   58.8439   30.9838   47.3440 H   0  0  0  0  0  0  0  0  0  0  0  0
   60.8935   33.4409   45.3754 H   0  0  0  0  0  0  0  0  0  0  0  0
   60.8562   35.0635   46.1827 H   0  0  0  0  0  0  0  0  0  0  0  0
   62.7784   32.9216   46.5003 H   0  0  0  0  0  0  0  0  0  0  0  0
   62.7452   34.5805   47.2498 H   0  0  0  0  0  0  0  0  0  0  0  0
  1  2  1  0
  2  3  1  0
  3  4  1  0
  4  5  1  0
  5  6  1  0
  6  7  2  0
  6  8  1  0
  8  9  1  0
  9 10  1  0
 10 11  1  0
 11 12  1  0
 12 13  1  0
 13 14  2  0
 14 15  1  0
 15 16  1  0
 15 17  1  0
 17 18  2  0
 18 19  1  0
 19 20  2  0
 20 21  1  0
 21 22  2  0
 11 23  1  0
 23 24  1  0
  8  2  1  0
 22 13  1  0
 24  8  1  0
 22 17  1  0
  1 25  1  0
  1 26  1  0
  1 27  1  0
  3 28  1  0
  3 29  1  0
  4 30  1  0
  4 31  1  0
  9 32  1  0
  9 33  1  0
 10 34  1  0
 10 35  1  0
 12 36  1  0
 12 37  1  0
 14 38  1  0
 16 39  1  0
 16 40  1  0
 16 41  1  0
 18 42  1  0
 19 43  1  0
 20 44  1  0
 21 45  1  0
 23 46  1  0
 23 47  1  0
 24 48  1  0
 24 49  1  0
M  CHG  2   5  -1  18   1
M  END
>  <UniqueID>  (54) 
46

>  <SMILES>  (54) 
CN1CC[N-]C(=O)C12CCN(Cc1cn(C)c3[nH+]cccc13)CC2

>  <Energy>  (54) 
103.8417160696398

>  <Genealogy>  (54) 
CN1CC[N-]C(=O)C12CCN(Cc1cn(C)c3[nH+]cccc13)CC2 (protonated)
CN1CC[N-]C(=O)C12CCN(Cc1cn(C)c3[nH+]cccc13)CC2 (3D coordinates assigned)
CN1CC[N-]C(=O)C12CCN(Cc1cn(C)c3[nH+]cccc13)CC2 (nonaromatic ring conformer: 103.8417160696398 kcal/mol)

>  <smiles>  (54) 
CN1CCNC(=O)C12CCN(Cc1cn(C)c3ncccc13)CC2

>  <score_type>  (54) 
oracle

>  <origin>  (54) 
adg

>  <m_score__min__energy>  (54) 
-7.1200000000000001

>  <m_primary>  (54) 
energy

$$$$
54:0
     RDKit          3D

 28 30  0  0  1  0  0  0  0  0999 V2000
   57.4760   25.6630   44.8940 Br  0  0  0  0  0  0  0  0  0  0  0  0
   57.8110   27.5270   45.0140 C   0  0  0  0  0  0  0  0  0  0  0  0
   59.0900   28.0640   44.8760 C   0  0  0  0  0  0  0  0  0  0  0  0
   59.2450   29.4310   44.9780 C   0  0  0  0  0  0  0  0  0  0  0  0
   58.1770   30.2790   45.2100 C   0  0  0  0  0  0  0  0  0  0  0  0
   58.3040   31.7160   45.3220 C   0  0  0  0  0  0  0  0  0  0  0  0
   58.0260   32.5150   44.2770 C   0  0  0  0  0  0  0  0  0  0  0  0
   57.7890   33.9580   44.5620 C   0  0  2  0  0  0  0  0  0  0  0  0
   59.1220   34.5850   44.8870 C   0  0  0  0  0  0  0  0  0  0  0  0
   59.0010   34.8600   46.3800 C   0  0  0  0  0  0  0  0  0  0  0  0
   58.0750   33.7220   46.7810 C   0  0  2  0  0  0  0  0  0  0  0  0
   58.7370   32.3830   46.5600 C   0  0  0  0  0  0  0  0  0  0  0  0
   57.0120   33.9480   45.8110 N   0  0  0  0  0  0  0  0  0  0  0  0
   56.9530   29.7150   45.3370 N   0  0  0  0  0  0  0  0  0  0  0  0
   56.7570   28.3860   45.2450 C   0  0  0  0  0  0  0  0  0  0  0  0
   59.9564   27.4122   44.6899 H   0  0  0  0  0  0  0  0  0  0  0  0
   60.2518   29.8612   44.8713 H   0  0  0  0  0  0  0  0  0  0  0  0
   57.9755   32.1189   43.2520 H   0  0  0  0  0  0  0  0  0  0  0  0
   57.3002   34.4898   43.7324 H   0  0  0  0  0  0  0  0  0  0  0  0
   59.9495   33.8916   44.6762 H   0  0  0  0  0  0  0  0  0  0  0  0
   59.3409   35.4837   44.2917 H   0  0  0  0  0  0  0  0  0  0  0  0
   59.9743   34.7932   46.8881 H   0  0  0  0  0  0  0  0  0  0  0  0
   58.6395   35.8661   46.6391 H   0  0  0  0  0  0  0  0  0  0  0  0
   57.7637   33.7057   47.8359 H   0  0  0  0  0  0  0  0  0  0  0  0
   59.8253   32.5355   46.5120 H   0  0  0  0  0  0  0  0  0  0  0  0
   58.4456   31.7335   47.3986 H   0  0  0  0  0  0  0  0  0  0  0  0
   56.5970   34.8780   45.9860 H   0  0  0  0  0  0  0  0  0  0  0  0
   55.7410   27.9793   45.3557 H   0  0  0  0  0  0  0  0  0  0  0  0
  1  2  1  0
  2  3  2  0
  3  4  1  0
  4  5  2  0
  5  6  1  0
  6  7  2  0
  7  8  1  0
  8  9  1  0
  9 10  1  0
 10 11  1  0
 11 12  1  0
 11 13  1  0
  5 14  1  0
 14 15  2  0
 15  2  1  0
 12  6  1  0
 13  8  1  0
  3 16  1  0
  4 17  1  0
  7 18  1  0
  8 19  1  6
  9 20  1  0
  9 21  1  0
 10 22  1  0
 10 23  1  0
 11 24  1  1
 12 25  1  0
 12 26  1  0
 13 27  1  0
 15 28  1  0
M  END
>  <smiles>  (55) 
Brc1ccc(C2=CC3CCC(C2)N3)nc1

>  <score_type>  (55) 
oracle

>  <origin>  (55) 
adg

>  <m_score__min__energy>  (55) 
-6.9500000000000002

>  <m_primary>  (55) 
energy

$$$$
55:0
     RDKit          3D

 40 44  0  0  0  0  0  0  0  0999 V2000
   52.1522   29.8635   51.4409 H   0  0  0  0  0  0  0  0  0  0  0  0
   52.3160   30.3710   52.4030 C   0  0  0  0  0  0  0  0  0  0  0  0
   51.5550   31.6030   52.6740 C   0  0  0  0  0  0  0  0  0  0  0  0
   51.2050   31.9950   53.9110 N   0  0  0  0  0  0  0  0  0  0  0  0
   50.4690   33.1050   53.6920 C   0  0  0  0  0  0  0  0  0  0  0  0
   49.9640   33.7790   54.6280 O   0  0  0  0  0  0  0  0  0  0  0  0
   50.3070   33.4320   52.3930 N   0  0  0  0  0  0  0  0  0  0  0  0
   50.9900   32.4650   51.7590 C   0  0  0  0  0  0  0  0  0  0  0  0
   51.0490   32.3480   50.3760 O   0  0  0  0  0  0  0  0  0  0  0  0
   53.1960   29.8310   53.2580 C   0  0  0  0  0  0  0  0  0  0  0  0
   52.9610   29.1540   54.4600 C   0  0  0  0  0  0  0  0  0  0  0  0
   51.9740   28.9860   54.9157 H   0  0  0  0  0  0  0  0  0  0  0  0
   54.1440   28.7390   54.9720 N   0  0  0  0  0  0  0  0  0  0  0  0
   54.2840   28.1950   55.8530 H   0  0  0  0  0  0  0  0  0  0  0  0
   55.1010   29.1210   54.1440 N   0  0  0  0  0  0  0  0  0  0  0  0
   56.4370   28.9130   54.2370 C   0  0  0  0  0  0  0  0  0  0  0  0
   56.9420   28.2730   55.2480 N   0  0  0  0  0  0  0  0  0  0  0  0
   57.4230   26.8970   55.1620 C   0  0  0  0  0  0  0  0  0  0  0  0
   57.8675   26.8324   56.1661 H   0  0  0  0  0  0  0  0  0  0  0  0
   57.8650   26.4920   53.7680 C   0  0  0  0  0  0  0  0  0  0  0  0
   57.8921   27.2385   52.9606 H   0  0  0  0  0  0  0  0  0  0  0  0
   58.7546   26.0027   53.3446 H   0  0  0  0  0  0  0  0  0  0  0  0
   56.5290   26.0110   54.3160 C   0  0  0  0  0  0  0  0  0  0  0  0
   55.5899   26.4096   53.9046 H   0  0  0  0  0  0  0  0  0  0  0  0
   56.0520   25.0293   54.4530 H   0  0  0  0  0  0  0  0  0  0  0  0
   57.2280   29.3930   53.2350 N   0  0  0  0  0  0  0  0  0  0  0  0
   56.6860   30.0720   52.1740 C   0  0  0  0  0  0  0  0  0  0  0  0
   57.4350   30.5100   51.2040 N   0  0  0  0  0  0  0  0  0  0  0  0
   58.1460   31.7590   51.1590 C   0  0  0  0  0  0  0  0  0  0  0  0
   58.7340   32.1550   49.9530 C   0  0  0  0  0  0  0  0  0  0  0  0
   58.6661   31.5072   49.0666 H   0  0  0  0  0  0  0  0  0  0  0  0
   59.4080   33.3770   49.8790 C   0  0  0  0  0  0  0  0  0  0  0  0
   59.8886   33.6836   48.9383 H   0  0  0  0  0  0  0  0  0  0  0  0
   59.4700   34.1870   50.9690 N   0  0  0  0  0  0  0  0  0  0  0  0
   58.8850   33.8440   52.1460 C   0  0  0  0  0  0  0  0  0  0  0  0
   58.9489   34.5231   53.0090 H   0  0  0  0  0  0  0  0  0  0  0  0
   58.2020   32.6300   52.2630 C   0  0  0  0  0  0  0  0  0  0  0  0
   57.7125   32.3578   53.2098 H   0  0  0  0  0  0  0  0  0  0  0  0
   55.3350   30.2560   52.1030 N   0  0  0  0  0  0  0  0  0  0  0  0
   54.5670   29.7710   53.1080 C   0  0  0  0  0  0  0  0  0  0  0  0
  1  2  1  0
  2  3  1  0
  3  4  1  0
  4  5  1  0
  5  6  2  0
  5  7  1  0
  7  8  1  0
  8  9  1  0
  2 10  2  3
 10 11  1  0
 11 12  1  0
 11 13  2  0
 13 14  1  0
 13 15  1  0
 15 16  1  0
 16 17  2  0
 17 18  1  0
 18 19  1  0
 18 20  1  0
 20 21  1  0
 20 22  1  0
 20 23  1  0
 23 24  1  0
 23 25  1  0
 16 26  1  0
 26 27  1  0
 27 28  2  3
 28 29  1  0
 29 30  2  0
 30 31  1  0
 30 32  1  0
 32 33  1  0
 32 34  2  0
 34 35  1  0
 35 36  1  0
 35 37  2  0
 37 38  1  0
 27 39  1  0
 39 40  2  0
  8  3  2  0
 40 10  1  0
 40 15  1  0
 23 18  1  0
 37 29  1  0
M  CHG  5   4  -1   7  -1   9  -1  13   1  26  -1
M  END
>  <UniqueID>  (56) 
47

>  <SMILES>  (56) 
O=c1[n-]c([O-])c(C=c2c[nH+]n3/c(=N/C4CC4)[n-]c(=Nc4ccncc4)nc23)[n-]1

>  <Energy>  (56) 
391.1357353275183

>  <Genealogy>  (56) 
O=c1[n-]c([O-])c(C=c2c[nH+]n3c(=NC4CC4)[n-]c(=Nc4ccncc4)nc23)[n-]1 (protonated)
O=c1[n-]c([O-])c(C=c2c[nH+]n3/c(=N/C4CC4)[n-]c(=Nc4ccncc4)nc23)[n-]1 (cis-trans isomerization)
O=c1[n-]c([O-])c(C=c2c[nH+]n3/c(=N/C4CC4)[n-]c(=Nc4ccncc4)nc23)[n-]1 (3D coordinates assigned)
O=c1[n-]c([O-])c(C=c2c[nH+]n3/c(=N/C4CC4)[n-]c(=Nc4ccncc4)nc23)[n-]1 (nonaromatic ring conformer: 391.1357353275183 kcal/mol)

>  <smiles>  (56) 
O=c1[nH]c(O)c(C=c2cnn3c(=NC4CC4)[nH]c(=Nc4ccncc4)nc23)[nH]1

>  <score_type>  (56) 
oracle

>  <origin>  (56) 
adg

>  <m_score__min__energy>  (56) 
-15.92

>  <m_primary>  (56) 
energy

$$$$
56:0
     RDKit          3D

 28 29  0  0  0  0  0  0  0  0999 V2000
   53.7520   24.8960   45.7370 O   0  0  0  0  0  0  0  0  0  0  0  0
   54.9580   25.2430   45.6260 C   0  0  0  0  0  0  0  0  0  0  0  0
   55.3270   26.5830   45.9800 N   0  0  0  0  0  0  0  0  0  0  0  0
   56.6910   27.0590   46.2010 C   0  0  0  0  0  0  0  0  0  0  0  0
   56.9820   28.2750   45.3520 C   0  0  0  0  0  0  0  0  0  0  0  0
   55.9160   29.0440   44.8530 C   0  0  0  0  0  0  0  0  0  0  0  0
   56.1620   30.1940   44.1010 C   0  0  0  0  0  0  0  0  0  0  0  0
   57.4740   30.5860   43.8280 C   0  0  0  0  0  0  0  0  0  0  0  0
   57.7800   32.0330   42.8850 Cl  0  0  0  0  0  0  0  0  0  0  0  0
   58.5430   29.8240   44.3080 C   0  0  0  0  0  0  0  0  0  0  0  0
   58.3070   28.6700   45.0650 C   0  0  0  0  0  0  0  0  0  0  0  0
   59.6920   27.7480   45.6380 Cl  0  0  0  0  0  0  0  0  0  0  0  0
   55.9360   24.2720   45.1040 C   0  0  0  0  0  0  0  0  0  0  0  0
   55.7620   23.6930   43.8360 C   0  0  0  0  0  0  0  0  0  0  0  0
   56.6890   22.7610   43.3570 C   0  0  0  0  0  0  0  0  0  0  0  0
   57.7950   22.4100   44.1350 C   0  0  0  0  0  0  0  0  0  0  0  0
   57.9840   22.9990   45.3890 C   0  0  0  0  0  0  0  0  0  0  0  0
   57.0610   23.9330   45.8700 C   0  0  0  0  0  0  0  0  0  0  0  0
   56.8129   27.3229   47.2619 H   0  0  0  0  0  0  0  0  0  0  0  0
   57.3921   26.2590   45.9211 H   0  0  0  0  0  0  0  0  0  0  0  0
   54.8796   28.7369   45.0569 H   0  0  0  0  0  0  0  0  0  0  0  0
   55.3204   30.7927   43.7226 H   0  0  0  0  0  0  0  0  0  0  0  0
   59.5759   30.1328   44.0897 H   0  0  0  0  0  0  0  0  0  0  0  0
   54.8956   23.9728   43.2187 H   0  0  0  0  0  0  0  0  0  0  0  0
   56.5468   22.3040   42.3666 H   0  0  0  0  0  0  0  0  0  0  0  0
   58.5176   21.6698   43.7608 H   0  0  0  0  0  0  0  0  0  0  0  0
   58.8592   22.7275   45.9975 H   0  0  0  0  0  0  0  0  0  0  0  0
   57.2177   24.4032   46.8520 H   0  0  0  0  0  0  0  0  0  0  0  0
  1  2  2  0
  2  3  1  0
  3  4  1  0
  4  5  1  0
  5  6  2  0
  6  7  1  0
  7  8  2  0
  8  9  1  0
  8 10  1  0
 10 11  2  0
 11 12  1  0
  2 13  1  0
 13 14  2  0
 14 15  1  0
 15 16  2  0
 16 17  1  0
 17 18  2  0
 11  5  1  0
 18 13  1  0
  4 19  1  0
  4 20  1  0
  6 21  1  0
  7 22  1  0
 10 23  1  0
 14 24  1  0
 15 25  1  0
 16 26  1  0
 17 27  1  0
 18 28  1  0
M  CHG  1   3  -1
M  END
>  <UniqueID>  (57) 
48

>  <SMILES>  (57) 
O=C([N-]Cc1ccc(Cl)cc1Cl)c1ccccc1

>  <Energy>  (57) 
31.923440067101232

>  <Genealogy>  (57) 
O=C([N-]Cc1ccc(Cl)cc1Cl)c1ccccc1 (protonated)
O=C([N-]Cc1ccc(Cl)cc1Cl)c1ccccc1 (3D coordinates assigned)
O=C([N-]Cc1ccc(Cl)cc1Cl)c1ccccc1 (optimized conformer: 31.923440067101232 kcal/mol)

>  <smiles>  (57) 
O=C(NCc1ccc(Cl)cc1Cl)c1ccccc1

>  <score_type>  (57) 
oracle

>  <origin>  (57) 
adg

>  <m_score__min__energy>  (57) 
-9.1600000000000001

>  <m_primary>  (57) 
energy

$$$$
57:0
     RDKit          3D

 24 26  0  0  0  0  0  0  0  0999 V2000
   58.5635   30.9662   43.1984 H   0  0  0  0  0  0  0  0  0  0  0  0
   58.1000   31.0100   44.1950 C   0  0  0  0  0  0  0  0  0  0  0  0
   57.5100   29.8950   44.6550 C   0  0  0  0  0  0  0  0  0  0  0  0
   56.0860   29.5260   44.7100 C   0  0  0  0  0  0  0  0  0  0  0  0
   55.1320   30.2150   44.2660 O   0  0  0  0  0  0  0  0  0  0  0  0
   55.8990   28.2160   45.2440 N   0  0  0  0  0  0  0  0  0  0  0  0
   57.2270   27.7660   45.4940 C   0  0  0  0  0  0  0  0  0  0  0  0
   57.5810   26.5230   46.0140 C   0  0  0  0  0  0  0  0  0  0  0  0
   56.8109   25.7828   46.2767 H   0  0  0  0  0  0  0  0  0  0  0  0
   58.9440   26.2370   46.1950 C   0  0  0  0  0  0  0  0  0  0  0  0
   59.2481   25.2623   46.6042 H   0  0  0  0  0  0  0  0  0  0  0  0
   59.9240   27.1900   45.8560 C   0  0  0  0  0  0  0  0  0  0  0  0
   60.9887   26.9555   46.0021 H   0  0  0  0  0  0  0  0  0  0  0  0
   59.5490   28.4390   45.3320 C   0  0  0  0  0  0  0  0  0  0  0  0
   60.3074   29.1902   45.0664 H   0  0  0  0  0  0  0  0  0  0  0  0
   58.1870   28.7020   45.1570 C   0  0  0  0  0  0  0  0  0  0  0  0
   58.1730   32.2860   44.9240 C   0  0  0  0  0  0  0  0  0  0  0  0
   58.1320   32.4890   46.5960 S   0  0  0  0  0  0  0  0  0  0  0  0
   58.4840   34.1330   46.5980 C   0  0  0  0  0  0  0  0  0  0  0  0
   58.5527   34.7778   47.4866 H   0  0  0  0  0  0  0  0  0  0  0  0
   58.6730   34.5350   45.2820 C   0  0  0  0  0  0  0  0  0  0  0  0
   58.9198   35.5688   44.9984 H   0  0  0  0  0  0  0  0  0  0  0  0
   58.5200   33.5010   44.3500 C   0  0  0  0  0  0  0  0  0  0  0  0
   58.6612   33.6385   43.2678 H   0  0  0  0  0  0  0  0  0  0  0  0
  1  2  1  0
  2  3  2  0
  3  4  1  0
  4  5  2  0
  4  6  1  0
  6  7  1  0
  7  8  2  0
  8  9  1  0
  8 10  1  0
 10 11  1  0
 10 12  2  0
 12 13  1  0
 12 14  1  0
 14 15  1  0
 14 16  2  0
  2 17  1  0
 17 18  1  0
 18 19  1  0
 19 20  1  0
 19 21  2  0
 21 22  1  0
 21 23  1  0
 23 24  1  0
 16  3  1  0
 23 17  2  0
 16  7  1  0
M  CHG  1   6  -1
M  END
>  <UniqueID>  (58) 
49

>  <SMILES>  (58) 
O=C1[N-]c2ccccc2/C1=C/c1cccs1

>  <Energy>  (58) 
87.54771033885851

>  <Genealogy>  (58) 
O=C1[N-]c2ccccc2C1=Cc1cccs1 (protonated)
O=C1[N-]c2ccccc2/C1=C/c1cccs1 (cis-trans isomerization)
O=C1[N-]c2ccccc2/C1=C/c1cccs1 (3D coordinates assigned)
O=C1[N-]c2ccccc2/C1=C/c1cccs1 (nonaromatic ring conformer: 87.54771033885851 kcal/mol)

>  <smiles>  (58) 
O=C1Nc2ccccc2C1=Cc1cccs1

>  <score_type>  (58) 
oracle

>  <origin>  (58) 
adg

>  <m_score__min__energy>  (58) 
-9.0899999999999999

>  <m_primary>  (58) 
energy

$$$$
58:0
     RDKit          3D

 23 25  0  0  0  0  0  0  0  0999 V2000
   56.2700   30.0930   42.5650 C   0  0  0  0  0  0  0  0  0  0  0  0
   57.0770   31.1910   42.2630 C   0  0  0  0  0  0  0  0  0  0  0  0
   57.6930   31.9060   43.2910 C   0  0  0  0  0  0  0  0  0  0  0  0
   57.4930   31.5100   44.6230 C   0  0  0  0  0  0  0  0  0  0  0  0
   58.1260   32.2390   45.7360 C   0  0  0  0  0  0  0  0  0  0  0  0
   58.1780   31.7700   47.0080 N   0  0  0  0  0  0  0  0  0  0  0  0
   58.8180   32.6440   47.8260 C   0  0  0  0  0  0  0  0  0  0  0  0
   59.0280   32.4380   49.1910 C   0  0  0  0  0  0  0  0  0  0  0  0
   59.7070   33.4250   49.9260 C   0  0  0  0  0  0  0  0  0  0  0  0
   60.1660   34.5980   49.2930 C   0  0  0  0  0  0  0  0  0  0  0  0
   59.9480   34.7940   47.9200 C   0  0  0  0  0  0  0  0  0  0  0  0
   59.2730   33.8000   47.2160 C   0  0  0  0  0  0  0  0  0  0  0  0
   58.8730   33.7550   45.5880 S   0  0  0  0  0  0  0  0  0  0  0  0
   56.6990   30.4340   44.8890 N   0  0  0  0  0  0  0  0  0  0  0  0
   56.0910   29.7260   43.9000 C   0  0  0  0  0  0  0  0  0  0  0  0
   55.7809   29.5237   41.7608 H   0  0  0  0  0  0  0  0  0  0  0  0
   57.2273   31.4924   41.2158 H   0  0  0  0  0  0  0  0  0  0  0  0
   58.3299   32.7725   43.0596 H   0  0  0  0  0  0  0  0  0  0  0  0
   58.6690   31.5212   49.6815 H   0  0  0  0  0  0  0  0  0  0  0  0
   59.8814   33.2812   51.0025 H   0  0  0  0  0  0  0  0  0  0  0  0
   60.6975   35.3634   49.8776 H   0  0  0  0  0  0  0  0  0  0  0  0
   60.3000   35.7058   47.4153 H   0  0  0  0  0  0  0  0  0  0  0  0
   55.4573   28.8630   44.1522 H   0  0  0  0  0  0  0  0  0  0  0  0
  1  2  2  0
  2  3  1  0
  3  4  2  0
  4  5  1  0
  5  6  2  0
  6  7  1  0
  7  8  2  0
  8  9  1  0
  9 10  2  0
 10 11  1  0
 11 12  2  0
 12 13  1  0
  4 14  1  0
 14 15  2  0
 15  1  1  0
 13  5  1  0
 12  7  1  0
  1 16  1  0
  2 17  1  0
  3 18  1  0
  8 19  1  0
  9 20  1  0
 10 21  1  0
 11 22  1  0
 15 23  1  0
M  END
>  <UniqueID>  (59) 
50

>  <SMILES>  (59) 
c1ccc(-c2nc3ccccc3s2)nc1

>  <Energy>  (59) 
60.862991817974404

>  <Genealogy>  (59) 
c1ccc(-c2nc3ccccc3s2)nc1 (3D coordinates assigned)
c1ccc(-c2nc3ccccc3s2)nc1 (optimized conformer: 60.862991817974404 kcal/mol)

>  <smiles>  (59) 
c1ccc(-c2nc3ccccc3s2)nc1

>  <score_type>  (59) 
oracle

>  <origin>  (59) 
adg

>  <m_score__min__energy>  (59) 
-6.2699999999999996

>  <m_primary>  (59) 
energy

$$$$
59:0
     RDKit          3D

 41 43  0  0  0  0  0  0  0  0999 V2000
   67.9540   34.1420   50.8580 C   0  0  0  0  0  0  0  0  0  0  0  0
   67.5310   32.7170   50.4990 C   0  0  0  0  0  0  0  0  0  0  0  0
   66.0450   32.4450   50.8020 C   0  0  0  0  0  0  0  0  0  0  0  0
   65.1550   33.6980   50.7230 C   0  0  0  0  0  0  0  0  0  0  0  0
   63.7590   33.3840   50.2250 C   0  0  0  0  0  0  0  0  0  0  0  0
   62.7350   33.4900   51.1250 N   0  0  0  0  0  0  0  0  0  0  0  0
   61.4630   33.2980   50.7180 C   0  0  0  0  0  0  0  0  0  0  0  0
   60.0810   33.4290   51.6590 S   0  0  0  0  0  0  0  0  0  0  0  0
   59.0170   33.0860   50.3930 C   0  0  0  0  0  0  0  0  0  0  0  0
   59.7470   32.8560   49.2220 C   0  0  0  0  0  0  0  0  0  0  0  0
   59.0870   32.4780   47.9570 C   0  0  0  0  0  0  0  0  0  0  0  0
   59.1410   31.1560   47.4940 C   0  0  0  0  0  0  0  0  0  0  0  0
   58.4880   30.7940   46.3120 C   0  0  0  0  0  0  0  0  0  0  0  0
   57.7590   31.7460   45.5790 C   0  0  0  0  0  0  0  0  0  0  0  0
   57.0880   31.3720   44.3610 N   0  0  0  0  0  0  0  0  0  0  0  0
   57.5150   31.7580   43.2540 O   0  0  0  0  0  0  0  0  0  0  0  0
   55.9640   30.5790   44.3980 O   0  0  0  0  0  0  0  0  0  0  0  0
   57.6910   33.0680   46.0590 C   0  0  0  0  0  0  0  0  0  0  0  0
   58.3450   33.4270   47.2410 C   0  0  0  0  0  0  0  0  0  0  0  0
   61.1410   32.9960   49.4170 C   0  0  0  0  0  0  0  0  0  0  0  0
   62.1810   32.9210   48.4830 C   0  0  0  0  0  0  0  0  0  0  0  0
   61.9250   32.7060   47.2670 O   0  0  0  0  0  0  0  0  0  0  0  0
   63.4810   33.0970   48.8970 N   0  0  0  0  0  0  0  0  0  0  0  0
   64.5110   33.0050   47.9340 N   0  0  0  0  0  0  0  0  0  0  0  0
   67.9861   34.2503   51.9522 H   0  0  0  0  0  0  0  0  0  0  0  0
   68.9511   34.3448   50.4400 H   0  0  0  0  0  0  0  0  0  0  0  0
   67.2291   34.8560   50.4400 H   0  0  0  0  0  0  0  0  0  0  0  0
   67.7062   32.5577   49.4248 H   0  0  0  0  0  0  0  0  0  0  0  0
   68.1277   32.0277   51.1145 H   0  0  0  0  0  0  0  0  0  0  0  0
   65.6721   31.7085   50.0750 H   0  0  0  0  0  0  0  0  0  0  0  0
   65.9913   32.0789   51.8379 H   0  0  0  0  0  0  0  0  0  0  0  0
   65.0805   34.1423   51.7265 H   0  0  0  0  0  0  0  0  0  0  0  0
   65.6178   34.3938   50.0077 H   0  0  0  0  0  0  0  0  0  0  0  0
   62.9230   33.7350   52.1240 H   0  0  0  0  0  0  0  0  0  0  0  0
   57.9208   33.0492   50.4763 H   0  0  0  0  0  0  0  0  0  0  0  0
   59.7002   30.3993   48.0638 H   0  0  0  0  0  0  0  0  0  0  0  0
   58.5453   29.7558   45.9529 H   0  0  0  0  0  0  0  0  0  0  0  0
   57.1193   33.8234   45.4999 H   0  0  0  0  0  0  0  0  0  0  0  0
   58.2768   34.4605   47.6114 H   0  0  0  0  0  0  0  0  0  0  0  0
   65.5180   33.0940   48.1820 H   0  0  0  0  0  0  0  0  0  0  0  0
   64.3080   32.7010   46.9560 H   0  0  0  0  0  0  0  0  0  0  0  0
  1  2  1  0
  2  3  1  0
  3  4  1  0
  4  5  1  0
  5  6  2  0
  6  7  1  0
  7  8  1  0
  8  9  1  0
  9 10  2  0
 10 11  1  0
 11 12  2  0
 12 13  1  0
 13 14  2  0
 14 15  1  0
 15 16  2  0
 15 17  1  0
 14 18  1  0
 18 19  2  0
 10 20  1  0
 20 21  1  0
 21 22  2  0
 21 23  1  0
 23 24  1  0
 23  5  1  0
 20  7  2  0
 19 11  1  0
  1 25  1  0
  1 26  1  0
  1 27  1  0
  2 28  1  0
  2 29  1  0
  3 30  1  0
  3 31  1  0
  4 32  1  0
  4 33  1  0
  6 34  1  0
  9 35  1  0
 12 36  1  0
 13 37  1  0
 18 38  1  0
 19 39  1  0
 24 40  1  0
 24 41  1  0
M  CHG  3   6   1  15   1  17  -1
M  END
>  <UniqueID>  (60) 
51

>  <SMILES>  (60) 
CCCCc1[nH+]c2scc(-c3ccc([N+](=O)[O-])cc3)c2c(=O)n1N

>  <Energy>  (60) 
85.62977397062821

>  <Genealogy>  (60) 
CCCCc1[nH+]c2scc(-c3ccc([N+](=O)[O-])cc3)c2c(=O)n1N (protonated)
CCCCc1[nH+]c2scc(-c3ccc([N+](=O)[O-])cc3)c2c(=O)n1N (3D coordinates assigned)
CCCCc1[nH+]c2scc(-c3ccc([N+](=O)[O-])cc3)c2c(=O)n1N (optimized conformer: 85.62977397062821 kcal/mol)

>  <smiles>  (60) 
CCCCc1nc2scc(-c3ccc([N+](=O)[O-])cc3)c2c(=O)n1N

>  <score_type>  (60) 
oracle

>  <origin>  (60) 
adg

>  <m_score__min__energy>  (60) 
-5.9199999999999999

>  <m_primary>  (60) 
energy

$$$$
60:0
     RDKit          3D

 32 34  0  0  0  0  0  0  0  0999 V2000
   57.6640   32.8190   47.8570 O   0  0  0  0  0  0  0  0  0  0  0  0
   58.8720   33.0600   48.1320 C   0  0  0  0  0  0  0  0  0  0  0  0
   59.3360   32.9120   49.4870 N   0  0  0  0  0  0  0  0  0  0  0  0
   58.6350   32.1670   50.4970 C   0  0  0  0  0  0  0  0  0  0  0  0
   58.1160   32.7860   51.6460 C   0  0  0  0  0  0  0  0  0  0  0  0
   57.4180   32.0320   52.5910 C   0  0  0  0  0  0  0  0  0  0  0  0
   57.2330   30.6660   52.3760 C   0  0  0  0  0  0  0  0  0  0  0  0
   57.7230   30.0820   51.2490 N   0  0  0  0  0  0  0  0  0  0  0  0
   58.4040   30.7960   50.3130 C   0  0  0  0  0  0  0  0  0  0  0  0
   59.7980   33.5820   47.0430 C   0  0  0  0  0  0  0  0  0  0  0  0
   61.2400   33.1610   47.2540 C   0  0  0  0  0  0  0  0  0  0  0  0
   62.3660   33.8420   46.7990 C   0  0  0  0  0  0  0  0  0  0  0  0
   63.5620   33.1430   47.0020 C   0  0  0  0  0  0  0  0  0  0  0  0
   63.3880   31.8970   47.5880 C   0  0  0  0  0  0  0  0  0  0  0  0
   61.7440   31.6650   47.8440 S   0  0  0  0  0  0  0  0  0  0  0  0
   59.6480   35.0900   46.7740 C   0  0  0  0  0  0  0  0  0  0  0  0
   59.1090   34.7910   45.3810 C   0  0  0  0  0  0  0  0  0  0  0  0
   59.2790   33.2970   45.6250 C   0  0  0  0  0  0  0  0  0  0  0  0
   60.1920   33.4340   49.7780 H   0  0  0  0  0  0  0  0  0  0  0  0
   58.2596   33.8655   51.8013 H   0  0  0  0  0  0  0  0  0  0  0  0
   57.0175   32.5105   53.4969 H   0  0  0  0  0  0  0  0  0  0  0  0
   56.6909   30.0610   53.1177 H   0  0  0  0  0  0  0  0  0  0  0  0
   58.7756   30.2954   49.4067 H   0  0  0  0  0  0  0  0  0  0  0  0
   62.3203   34.8338   46.3256 H   0  0  0  0  0  0  0  0  0  0  0  0
   64.5476   33.5440   46.7231 H   0  0  0  0  0  0  0  0  0  0  0  0
   64.1876   31.1851   47.8409 H   0  0  0  0  0  0  0  0  0  0  0  0
   58.9277   35.5942   47.4351 H   0  0  0  0  0  0  0  0  0  0  0  0
   60.5060   35.7658   46.9046 H   0  0  0  0  0  0  0  0  0  0  0  0
   58.0655   35.1037   45.2282 H   0  0  0  0  0  0  0  0  0  0  0  0
   59.5649   35.2629   44.4981 H   0  0  0  0  0  0  0  0  0  0  0  0
   58.3377   32.7284   45.5980 H   0  0  0  0  0  0  0  0  0  0  0  0
   59.8722   32.6851   44.9295 H   0  0  0  0  0  0  0  0  0  0  0  0
  1  2  2  0
  2  3  1  0
  3  4  1  0
  4  5  2  0
  5  6  1  0
  6  7  2  0
  7  8  1  0
  8  9  2  0
  2 10  1  0
 10 11  1  0
 11 12  2  0
 12 13  1  0
 13 14  2  0
 14 15  1  0
 10 16  1  0
 16 17  1  0
 17 18  1  0
  9  4  1  0
 18 10  1  0
 15 11  1  0
  3 19  1  0
  5 20  1  0
  6 21  1  0
  7 22  1  0
  9 23  1  0
 12 24  1  0
 13 25  1  0
 14 26  1  0
 16 27  1  0
 16 28  1  0
 17 29  1  0
 17 30  1  0
 18 31  1  0
 18 32  1  0
M  END
>  <UniqueID>  (61) 
52

>  <SMILES>  (61) 
O=C(Nc1cccnc1)C1(c2cccs2)CCC1

>  <Energy>  (61) 
126.30066980249705

>  <Genealogy>  (61) 
O=C(Nc1cccnc1)C1(c2cccs2)CCC1 (3D coordinates assigned)
O=C(Nc1cccnc1)C1(c2cccs2)CCC1 (nonaromatic ring conformer: 126.30066980249705 kcal/mol)

>  <smiles>  (61) 
O=C(Nc1cccnc1)C1(c2cccs2)CCC1

>  <score_type>  (61) 
oracle

>  <origin>  (61) 
adg

>  <m_score__min__energy>  (61) 
-6.5099999999999998

>  <m_primary>  (61) 
energy

$$$$
61:0
     RDKit          3D

 35 38  0  0  0  0  0  0  0  0999 V2000
   59.6530   33.8470   50.4160 C   0  0  0  0  0  0  0  0  0  0  0  0
   59.3170   34.3590   49.1300 O   0  0  0  0  0  0  0  0  0  0  0  0
   58.9830   33.5640   48.0240 C   0  0  0  0  0  0  0  0  0  0  0  0
   59.0720   32.1730   48.1530 C   0  0  0  0  0  0  0  0  0  0  0  0
   58.7500   31.3370   47.0810 C   0  0  0  0  0  0  0  0  0  0  0  0
   58.3350   31.8810   45.8550 C   0  0  0  0  0  0  0  0  0  0  0  0
   57.9670   30.9700   44.7080 C   0  0  2  0  0  0  0  0  0  0  0  0
   56.5220   31.0320   44.4390 N   0  0  0  0  0  0  0  0  0  0  0  0
   55.9970   29.7190   44.6080 C   0  0  0  0  0  0  0  0  0  0  0  0
   54.7850   29.4210   44.4510 O   0  0  0  0  0  0  0  0  0  0  0  0
   57.0440   28.8100   44.9800 C   0  0  0  0  0  0  0  0  0  0  0  0
   56.9740   27.5110   45.2290 O   0  0  0  0  0  0  0  0  0  0  0  0
   58.0720   26.8270   45.5600 C   0  0  0  0  0  0  0  0  0  0  0  0
   57.9830   25.4550   45.8220 C   0  0  0  0  0  0  0  0  0  0  0  0
   59.1260   24.7300   46.1670 C   0  0  0  0  0  0  0  0  0  0  0  0
   60.3670   25.3680   46.2540 C   0  0  0  0  0  0  0  0  0  0  0  0
   60.4770   26.7380   45.9970 C   0  0  0  0  0  0  0  0  0  0  0  0
   59.3370   27.4830   45.6480 C   0  0  0  0  0  0  0  0  0  0  0  0
   59.3990   28.8690   45.3800 C   0  0  0  0  0  0  0  0  0  0  0  0
   60.4870   29.5050   45.4330 O   0  0  0  0  0  0  0  0  0  0  0  0
   58.2120   29.5220   45.0490 C   0  0  0  0  0  0  0  0  0  0  0  0
   58.2380   33.2780   45.7250 C   0  0  0  0  0  0  0  0  0  0  0  0
   58.5620   34.1140   46.7980 C   0  0  0  0  0  0  0  0  0  0  0  0
   59.2258   34.4980   51.1929 H   0  0  0  0  0  0  0  0  0  0  0  0
   59.2455   32.8310   50.5241 H   0  0  0  0  0  0  0  0  0  0  0  0
   60.7473   33.8166   50.5241 H   0  0  0  0  0  0  0  0  0  0  0  0
   59.3985   31.7341   49.1073 H   0  0  0  0  0  0  0  0  0  0  0  0
   58.8221   30.2456   47.1982 H   0  0  0  0  0  0  0  0  0  0  0  0
   58.5780   31.3042   43.8565 H   0  0  0  0  0  0  0  0  0  0  0  0
   57.0100   24.9461   45.7560 H   0  0  0  0  0  0  0  0  0  0  0  0
   59.0493   23.6518   46.3712 H   0  0  0  0  0  0  0  0  0  0  0  0
   61.2618   24.7890   46.5261 H   0  0  0  0  0  0  0  0  0  0  0  0
   61.4566   27.2334   46.0680 H   0  0  0  0  0  0  0  0  0  0  0  0
   57.9049   33.7161   44.7726 H   0  0  0  0  0  0  0  0  0  0  0  0
   58.4877   35.2055   46.6839 H   0  0  0  0  0  0  0  0  0  0  0  0
  1  2  1  0
  2  3  1  0
  3  4  2  0
  4  5  1  0
  5  6  2  0
  6  7  1  0
  7  8  1  0
  8  9  1  0
  9 10  2  0
  9 11  1  0
 11 12  1  0
 12 13  1  0
 13 14  2  0
 14 15  1  0
 15 16  2  0
 16 17  1  0
 17 18  2  0
 18 19  1  0
 19 20  2  0
 19 21  1  0
  6 22  1  0
 22 23  2  0
 23  3  1  0
 21  7  1  0
 21 11  2  0
 18 13  1  0
  1 24  1  0
  1 25  1  0
  1 26  1  0
  4 27  1  0
  5 28  1  0
  7 29  1  6
 14 30  1  0
 15 31  1  0
 16 32  1  0
 17 33  1  0
 22 34  1  0
 23 35  1  0
M  CHG  1   8  -1
M  END
>  <UniqueID>  (62) 
53

>  <SMILES>  (62) 
COc1ccc([C@@H]2[N-]C(=O)c3oc4ccccc4c(=O)c32)cc1

>  <Energy>  (62) 
67.55837989487254

>  <Genealogy>  (62) 
COc1ccc(C2[N-]C(=O)c3oc4ccccc4c(=O)c32)cc1 (protonated)
COc1ccc([C@@H]2[N-]C(=O)c3oc4ccccc4c(=O)c32)cc1 (chirality)
COc1ccc([C@@H]2[N-]C(=O)c3oc4ccccc4c(=O)c32)cc1 (3D coordinates assigned)
COc1ccc([C@@H]2[N-]C(=O)c3oc4ccccc4c(=O)c32)cc1 (nonaromatic ring conformer: 67.55837989487254 kcal/mol)

>  <smiles>  (62) 
COc1ccc(C2NC(=O)c3oc4ccccc4c(=O)c32)cc1

>  <score_type>  (62) 
oracle

>  <origin>  (62) 
adg

>  <m_score__min__energy>  (62) 
-8.5500000000000007

>  <m_primary>  (62) 
energy

$$$$
62:0
     RDKit          3D

 31 33  0  0  0  0  0  0  0  0999 V2000
   56.3300   30.3910   44.6500 O   0  0  0  0  0  0  0  0  0  0  0  0
   56.6620   29.2360   45.0230 C   0  0  0  0  0  0  0  0  0  0  0  0
   55.6870   28.3190   45.2360 N   0  0  0  0  0  0  0  0  0  0  0  0
   55.9500   27.0490   45.6330 C   0  0  0  0  0  0  0  0  0  0  0  0
   54.8920   26.1640   45.8330 O   0  0  0  0  0  0  0  0  0  0  0  0
   57.2760   26.6420   45.8360 C   0  0  0  0  0  0  0  0  0  0  0  0
   57.5680   25.3260   46.2420 C   0  0  0  0  0  0  0  0  0  0  0  0
   58.8890   24.9260   46.4390 C   0  0  0  0  0  0  0  0  0  0  0  0
   59.9300   25.8280   46.2350 C   0  0  0  0  0  0  0  0  0  0  0  0
   59.6590   27.1380   45.8330 C   0  0  0  0  0  0  0  0  0  0  0  0
   58.3310   27.5710   45.6250 C   0  0  0  0  0  0  0  0  0  0  0  0
   58.0180   28.8960   45.2120 C   0  0  0  0  0  0  0  0  0  0  0  0
   59.2950   30.1050   44.9100 S   0  0  0  0  0  0  0  0  0  0  0  0
   58.8870   30.9500   43.7360 O   0  0  0  0  0  0  0  0  0  0  0  0
   60.6130   29.4580   44.5880 O   0  0  0  0  0  0  0  0  0  0  0  0
   59.5160   31.1030   46.3450 C   0  0  0  0  0  0  0  0  0  0  0  0
   60.6740   30.9800   47.1280 C   0  0  0  0  0  0  0  0  0  0  0  0
   60.8450   31.7820   48.2600 C   0  0  0  0  0  0  0  0  0  0  0  0
   59.8600   32.7090   48.6170 C   0  0  0  0  0  0  0  0  0  0  0  0
   60.0960   33.8060   50.1630 Br  0  0  0  0  0  0  0  0  0  0  0  0
   58.7020   32.8300   47.8430 C   0  0  0  0  0  0  0  0  0  0  0  0
   58.5290   32.0280   46.7110 C   0  0  0  0  0  0  0  0  0  0  0  0
   54.2070   26.3290   46.5610 H   0  0  0  0  0  0  0  0  0  0  0  0
   56.7494   24.6094   46.4047 H   0  0  0  0  0  0  0  0  0  0  0  0
   59.1093   23.8960   46.7562 H   0  0  0  0  0  0  0  0  0  0  0  0
   60.9706   25.5075   46.3911 H   0  0  0  0  0  0  0  0  0  0  0  0
   60.4904   27.8411   45.6765 H   0  0  0  0  0  0  0  0  0  0  0  0
   61.4491   30.2506   46.8502 H   0  0  0  0  0  0  0  0  0  0  0  0
   61.7548   31.6841   48.8706 H   0  0  0  0  0  0  0  0  0  0  0  0
   57.9262   33.5570   48.1250 H   0  0  0  0  0  0  0  0  0  0  0  0
   57.6154   32.1234   46.1058 H   0  0  0  0  0  0  0  0  0  0  0  0
  1  2  2  0
  2  3  1  0
  3  4  1  0
  4  5  1  0
  4  6  2  0
  6  7  1  0
  7  8  2  0
  8  9  1  0
  9 10  2  0
 10 11  1  0
 11 12  2  0
 12 13  1  0
 13 14  2  0
 13 15  2  0
 13 16  1  0
 16 17  2  0
 17 18  1  0
 18 19  2  0
 19 20  1  0
 19 21  1  0
 21 22  2  0
 12  2  1  0
 22 16  1  0
 11  6  1  0
  5 23  1  0
  7 24  1  0
  8 25  1  0
  9 26  1  0
 10 27  1  0
 17 28  1  0
 18 29  1  0
 21 30  1  0
 22 31  1  0
M  CHG  1   3  -1
M  END
>  <UniqueID>  (63) 
54

>  <SMILES>  (63) 
O=c1[n-]c(O)c2ccccc2c1S(=O)(=O)c1ccc(Br)cc1

>  <Energy>  (63) 
44.59834862810936

>  <Genealogy>  (63) 
O=c1[n-]c(O)c2ccccc2c1S(=O)(=O)c1ccc(Br)cc1 (protonated)
O=c1[n-]c(O)c2ccccc2c1S(=O)(=O)c1ccc(Br)cc1 (3D coordinates assigned)
O=c1[n-]c(O)c2ccccc2c1S(=O)(=O)c1ccc(Br)cc1 (optimized conformer: 44.59834862810936 kcal/mol)

>  <smiles>  (63) 
O=c1[nH]c(O)c2ccccc2c1S(=O)(=O)c1ccc(Br)cc1

>  <score_type>  (63) 
oracle

>  <origin>  (63) 
adg

>  <m_score__min__energy>  (63) 
-10.34

>  <m_primary>  (63) 
energy

$$$$
63:0
     RDKit          3D

 21 22  0  0  0  0  0  0  0  0999 V2000
   57.5360   27.6320   46.2850 F   0  0  0  0  0  0  0  0  0  0  0  0
   57.0130   28.3520   45.2280 C   0  0  0  0  0  0  0  0  0  0  0  0
   55.6340   28.2510   45.2430 F   0  0  0  0  0  0  0  0  0  0  0  0
   57.4170   29.7840   45.3540 C   0  0  0  0  0  0  0  0  0  0  0  0
   56.6980   30.8060   44.8170 N   0  0  0  0  0  0  0  0  0  0  0  0
   57.3860   31.8920   45.2150 C   0  0  0  0  0  0  0  0  0  0  0  0
   57.1070   33.2250   44.9360 C   0  0  0  0  0  0  0  0  0  0  0  0
   57.9750   34.2010   45.4620 C   0  0  0  0  0  0  0  0  0  0  0  0
   59.0870   33.8290   46.2670 C   0  0  0  0  0  0  0  0  0  0  0  0
   60.0350   34.8800   46.7810 C   0  0  0  0  0  0  0  0  0  0  0  0
   61.3250   34.5510   46.4100 F   0  0  0  0  0  0  0  0  0  0  0  0
   59.7180   36.1210   46.2560 F   0  0  0  0  0  0  0  0  0  0  0  0
   59.9710   34.9660   48.1610 F   0  0  0  0  0  0  0  0  0  0  0  0
   59.3440   32.4580   46.5050 C   0  0  0  0  0  0  0  0  0  0  0  0
   58.4620   31.5260   45.9650 C   0  0  0  0  0  0  0  0  0  0  0  0
   58.4960   30.1920   46.0690 N   0  0  0  0  0  0  0  0  0  0  0  0
   57.3971   27.9495   44.2791 H   0  0  0  0  0  0  0  0  0  0  0  0
   56.2373   33.5078   44.3248 H   0  0  0  0  0  0  0  0  0  0  0  0
   57.7908   35.2641   45.2477 H   0  0  0  0  0  0  0  0  0  0  0  0
   60.2136   32.1386   47.0982 H   0  0  0  0  0  0  0  0  0  0  0  0
   59.1880   29.6050   46.5850 H   0  0  0  0  0  0  0  0  0  0  0  0
  1  2  1  0
  2  3  1  0
  2  4  1  0
  4  5  2  0
  5  6  1  0
  6  7  2  0
  7  8  1  0
  8  9  2  0
  9 10  1  0
 10 11  1  0
 10 12  1  0
 10 13  1  0
  9 14  1  0
 14 15  2  0
 15 16  1  0
 16  4  1  0
 15  6  1  0
  2 17  1  0
  7 18  1  0
  8 19  1  0
 14 20  1  0
 16 21  1  0
M  END
>  <UniqueID>  (64) 
55

>  <SMILES>  (64) 
FC(F)c1nc2ccc(C(F)(F)F)cc2[nH]1

>  <Energy>  (64) 
56.65194879894192

>  <Genealogy>  (64) 
FC(F)c1nc2ccc(C(F)(F)F)cc2[nH]1 (3D coordinates assigned)
FC(F)c1nc2ccc(C(F)(F)F)cc2[nH]1 (optimized conformer: 56.65194879894192 kcal/mol)

>  <smiles>  (64) 
FC(F)c1nc2ccc(C(F)(F)F)cc2[nH]1

>  <score_type>  (64) 
oracle

>  <origin>  (64) 
adg

>  <m_score__min__energy>  (64) 
-4.7300000000000004

>  <m_primary>  (64) 
energy

$$$$
64:0
     RDKit          3D

 29 30  0  0  0  0  0  0  0  0999 V2000
   56.6720   24.0240   47.0010 C   0  0  0  0  0  0  0  0  0  0  0  0
   57.1860   25.3250   46.4580 C   0  0  0  0  0  0  0  0  0  0  0  0
   58.5670   25.5500   46.3530 C   0  0  0  0  0  0  0  0  0  0  0  0
   59.0440   26.7670   45.8620 C   0  0  0  0  0  0  0  0  0  0  0  0
   58.1490   27.7740   45.4940 C   0  0  0  0  0  0  0  0  0  0  0  0
   56.7690   27.5840   45.6350 C   0  0  0  0  0  0  0  0  0  0  0  0
   55.8860   28.6420   45.2370 N   0  0  0  0  0  0  0  0  0  0  0  0
   56.1810   29.7130   44.3290 C   0  0  0  0  0  0  0  0  0  0  0  0
   56.4220   29.4750   43.1160 O   0  0  0  0  0  0  0  0  0  0  0  0
   56.2120   31.0680   44.7870 N   0  0  0  0  0  0  0  0  0  0  0  0
   57.3700   31.7820   45.2450 C   0  0  0  0  0  0  0  0  0  0  0  0
   58.4120   31.1420   45.9400 C   0  0  0  0  0  0  0  0  0  0  0  0
   59.5130   31.8770   46.3910 C   0  0  0  0  0  0  0  0  0  0  0  0
   59.5750   33.2560   46.1680 C   0  0  0  0  0  0  0  0  0  0  0  0
   60.9550   34.1780   46.7380 Cl  0  0  0  0  0  0  0  0  0  0  0  0
   58.5290   33.9020   45.5030 C   0  0  0  0  0  0  0  0  0  0  0  0
   57.4270   33.1690   45.0500 C   0  0  0  0  0  0  0  0  0  0  0  0
   56.2900   26.3470   46.1060 C   0  0  0  0  0  0  0  0  0  0  0  0
   56.6843   24.0551   48.1005 H   0  0  0  0  0  0  0  0  0  0  0  0
   55.6421   23.8616   46.6503 H   0  0  0  0  0  0  0  0  0  0  0  0
   57.3128   23.2016   46.6503 H   0  0  0  0  0  0  0  0  0  0  0  0
   59.2755   24.7658   46.6582 H   0  0  0  0  0  0  0  0  0  0  0  0
   60.1271   26.9330   45.7648 H   0  0  0  0  0  0  0  0  0  0  0  0
   58.5310   28.7233   45.0904 H   0  0  0  0  0  0  0  0  0  0  0  0
   58.3607   30.0596   46.1294 H   0  0  0  0  0  0  0  0  0  0  0  0
   60.3317   31.3694   46.9221 H   0  0  0  0  0  0  0  0  0  0  0  0
   58.5724   34.9883   45.3356 H   0  0  0  0  0  0  0  0  0  0  0  0
   56.6007   33.6838   44.5380 H   0  0  0  0  0  0  0  0  0  0  0  0
   55.2067   26.1800   46.1989 H   0  0  0  0  0  0  0  0  0  0  0  0
  1  2  1  0
  2  3  2  0
  3  4  1  0
  4  5  2  0
  5  6  1  0
  6  7  1  0
  7  8  1  0
  8  9  2  0
  8 10  1  0
 10 11  1  0
 11 12  2  0
 12 13  1  0
 13 14  2  0
 14 15  1  0
 14 16  1  0
 16 17  2  0
  6 18  2  0
 18  2  1  0
 17 11  1  0
  1 19  1  0
  1 20  1  0
  1 21  1  0
  3 22  1  0
  4 23  1  0
  5 24  1  0
 12 25  1  0
 13 26  1  0
 16 27  1  0
 17 28  1  0
 18 29  1  0
M  CHG  2   7  -1  10  -1
M  END
>  <UniqueID>  (65) 
56

>  <SMILES>  (65) 
Cc1cccc([N-]C(=O)[N-]c2ccc(Cl)cc2)c1

>  <Energy>  (65) 
35.658189203254786

>  <Genealogy>  (65) 
Cc1cccc([N-]C(=O)[N-]c2ccc(Cl)cc2)c1 (protonated)
Cc1cccc([N-]C(=O)[N-]c2ccc(Cl)cc2)c1 (3D coordinates assigned)
Cc1cccc([N-]C(=O)[N-]c2ccc(Cl)cc2)c1 (optimized conformer: 35.658189203254786 kcal/mol)

>  <smiles>  (65) 
Cc1cccc(NC(=O)Nc2ccc(Cl)cc2)c1

>  <score_type>  (65) 
oracle

>  <origin>  (65) 
adg

>  <m_score__min__energy>  (65) 
-10.31

>  <m_primary>  (65) 
energy

$$$$
65:0
     RDKit          3D

 36 37  0  0  0  0  0  0  0  0999 V2000
   61.5040   26.8691   48.6074 H   0  0  0  0  0  0  0  0  0  0  0  0
   60.6360   27.0210   47.9490 C   0  0  0  0  0  0  0  0  0  0  0  0
   60.4230   26.1820   46.9010 N   0  0  0  0  0  0  0  0  0  0  0  0
   59.3680   26.3440   46.0570 C   0  0  0  0  0  0  0  0  0  0  0  0
   59.2212   25.6442   45.2211 H   0  0  0  0  0  0  0  0  0  0  0  0
   58.4670   27.4020   46.2510 C   0  0  0  0  0  0  0  0  0  0  0  0
   57.3020   27.5870   45.3580 C   0  0  0  0  0  0  0  0  0  0  0  0
   57.4230   28.0410   44.1430 N   0  0  0  0  0  0  0  0  0  0  0  0
   57.3930   29.4500   43.7550 C   0  0  0  0  0  0  0  0  0  0  0  0
   57.2966   29.5258   42.6619 H   0  0  0  0  0  0  0  0  0  0  0  0
   58.3249   29.9361   44.0793 H   0  0  0  0  0  0  0  0  0  0  0  0
   56.2250   30.1320   44.4070 C   0  0  0  0  0  0  0  0  0  0  0  0
   55.1620   29.4840   44.6000 O   0  0  0  0  0  0  0  0  0  0  0  0
   56.2710   31.5140   44.7920 N   0  0  0  0  0  0  0  0  0  0  0  0
   57.4220   32.2300   45.2600 C   0  0  0  0  0  0  0  0  0  0  0  0
   58.3470   31.5690   46.0750 C   0  0  0  0  0  0  0  0  0  0  0  0
   58.1724   30.5211   46.3605 H   0  0  0  0  0  0  0  0  0  0  0  0
   59.4910   32.2300   46.5290 C   0  0  0  0  0  0  0  0  0  0  0  0
   60.2025   31.7035   47.1821 H   0  0  0  0  0  0  0  0  0  0  0  0
   59.7390   33.5580   46.1590 C   0  0  0  0  0  0  0  0  0  0  0  0
   60.8990   34.1800   46.6440 O   0  0  0  0  0  0  0  0  0  0  0  0
   62.1510   33.5260   46.8130 C   0  0  0  0  0  0  0  0  0  0  0  0
   62.3645   33.4145   47.8863 H   0  0  0  0  0  0  0  0  0  0  0  0
   62.1125   32.5328   46.3417 H   0  0  0  0  0  0  0  0  0  0  0  0
   62.9441   34.1250   46.3417 H   0  0  0  0  0  0  0  0  0  0  0  0
   58.8240   34.2160   45.3150 C   0  0  0  0  0  0  0  0  0  0  0  0
   59.0102   35.2567   45.0114 H   0  0  0  0  0  0  0  0  0  0  0  0
   57.6800   33.5530   44.8610 C   0  0  0  0  0  0  0  0  0  0  0  0
   56.9787   34.0688   44.1886 H   0  0  0  0  0  0  0  0  0  0  0  0
   55.9940   27.3150   45.8650 N   0  0  0  0  0  0  0  0  0  0  0  0
   55.8630   26.9560   46.8370 H   0  0  0  0  0  0  0  0  0  0  0  0
   55.1520   27.4620   45.2650 H   0  0  0  0  0  0  0  0  0  0  0  0
   58.6600   28.2620   47.3400 C   0  0  0  0  0  0  0  0  0  0  0  0
   57.9517   29.0829   47.5256 H   0  0  0  0  0  0  0  0  0  0  0  0
   59.7530   28.0760   48.1900 C   0  0  0  0  0  0  0  0  0  0  0  0
   59.9166   28.7538   49.0408 H   0  0  0  0  0  0  0  0  0  0  0  0
  1  2  1  0
  2  3  2  0
  3  4  1  0
  4  5  1  0
  4  6  2  0
  6  7  1  0
  7  8  2  0
  8  9  1  0
  9 10  1  0
  9 11  1  0
  9 12  1  0
 12 13  2  0
 12 14  1  0
 14 15  1  0
 15 16  2  0
 16 17  1  0
 16 18  1  0
 18 19  1  0
 18 20  2  0
 20 21  1  0
 21 22  1  0
 22 23  1  0
 22 24  1  0
 22 25  1  0
 20 26  1  0
 26 27  1  0
 26 28  2  0
 28 29  1  0
  7 30  1  0
 30 31  1  0
 30 32  1  0
  6 33  1  0
 33 34  1  0
 33 35  2  0
 35 36  1  0
 35  2  1  0
 28 15  1  0
M  CHG  1  14  -1
M  END
>  <UniqueID>  (66) 
57

>  <SMILES>  (66) 
COc1ccc([N-]C(=O)C/N=C(/N)c2cccnc2)cc1

>  <Energy>  (66) 
45.004570611928024

>  <Genealogy>  (66) 
COc1ccc([N-]C(=O)CN=C(N)c2cccnc2)cc1 (protonated)
COc1ccc([N-]C(=O)C/N=C(/N)c2cccnc2)cc1 (cis-trans isomerization)
COc1ccc([N-]C(=O)C/N=C(/N)c2cccnc2)cc1 (3D coordinates assigned)
COc1ccc([N-]C(=O)C/N=C(/N)c2cccnc2)cc1 (optimized conformer: 45.004570611928024 kcal/mol)

>  <smiles>  (66) 
COc1ccc(NC(=O)CN=C(N)c2cccnc2)cc1

>  <score_type>  (66) 
oracle

>  <origin>  (66) 
adg

>  <m_score__min__energy>  (66) 
-8.7899999999999991

>  <m_primary>  (66) 
energy

$$$$
66:0
     RDKit          3D

 33 34  0  0  0  0  0  0  0  0999 V2000
   60.7160   33.7980   50.3320 C   0  0  0  0  0  0  0  0  0  0  0  0
   59.9320   33.7040   49.0550 C   0  0  0  0  0  0  0  0  0  0  0  0
   60.2530   34.5230   47.9630 C   0  0  0  0  0  0  0  0  0  0  0  0
   59.5380   34.4190   46.7670 C   0  0  0  0  0  0  0  0  0  0  0  0
   58.4940   33.4860   46.6360 C   0  0  0  0  0  0  0  0  0  0  0  0
   57.7380   33.3750   45.3670 C   0  0  0  0  0  0  0  0  0  0  0  0
   56.8540   34.2300   45.0860 O   0  0  0  0  0  0  0  0  0  0  0  0
   57.9730   32.2680   44.4850 N   0  0  0  0  0  0  0  0  0  0  0  0
   58.1580   30.8960   44.8600 C   0  0  0  0  0  0  0  0  0  0  0  0
   59.4140   30.3900   45.2390 C   0  0  0  0  0  0  0  0  0  0  0  0
   59.5480   29.0500   45.6090 C   0  0  0  0  0  0  0  0  0  0  0  0
   58.4320   28.2110   45.6290 C   0  0  0  0  0  0  0  0  0  0  0  0
   57.1620   28.7140   45.2990 C   0  0  0  0  0  0  0  0  0  0  0  0
   55.9970   27.8710   45.2980 N   0  0  0  0  0  0  0  0  0  0  0  0
   55.8890   26.6390   46.0250 C   0  0  0  0  0  0  0  0  0  0  0  0
   54.7630   25.7920   45.8130 N   0  0  0  0  0  0  0  0  0  0  0  0
   56.7590   26.3130   46.8780 O   0  0  0  0  0  0  0  0  0  0  0  0
   57.0390   30.0550   44.9050 C   0  0  0  0  0  0  0  0  0  0  0  0
   58.1850   32.6560   47.7300 C   0  0  0  0  0  0  0  0  0  0  0  0
   58.9000   32.7600   48.9270 C   0  0  0  0  0  0  0  0  0  0  0  0
   58.5860   31.9390   49.9610 F   0  0  0  0  0  0  0  0  0  0  0  0
   60.0317   33.7159   51.1893 H   0  0  0  0  0  0  0  0  0  0  0  0
   61.4523   32.9817   50.3712 H   0  0  0  0  0  0  0  0  0  0  0  0
   61.2384   34.7652   50.3712 H   0  0  0  0  0  0  0  0  0  0  0  0
   61.0726   35.2517   48.0484 H   0  0  0  0  0  0  0  0  0  0  0  0
   59.7941   35.0728   45.9203 H   0  0  0  0  0  0  0  0  0  0  0  0
   60.2931   31.0512   45.2441 H   0  0  0  0  0  0  0  0  0  0  0  0
   60.5363   28.6541   45.8857 H   0  0  0  0  0  0  0  0  0  0  0  0
   58.5474   27.1522   45.9041 H   0  0  0  0  0  0  0  0  0  0  0  0
   55.1390   28.2140   44.8080 H   0  0  0  0  0  0  0  0  0  0  0  0
   53.9410   26.1210   45.2600 H   0  0  0  0  0  0  0  0  0  0  0  0
   56.0509   30.4509   44.6279 H   0  0  0  0  0  0  0  0  0  0  0  0
   57.3734   31.9187   47.6424 H   0  0  0  0  0  0  0  0  0  0  0  0
  1  2  1  0
  2  3  2  0
  3  4  1  0
  4  5  2  0
  5  6  1  0
  6  7  2  0
  6  8  1  0
  8  9  1  0
  9 10  2  0
 10 11  1  0
 11 12  2  0
 12 13  1  0
 13 14  1  0
 14 15  1  0
 15 16  1  0
 15 17  2  0
 13 18  2  0
  5 19  1  0
 19 20  2  0
 20 21  1  0
 20  2  1  0
 18  9  1  0
  1 22  1  0
  1 23  1  0
  1 24  1  0
  3 25  1  0
  4 26  1  0
 10 27  1  0
 11 28  1  0
 12 29  1  0
 14 30  1  0
 16 31  1  0
 18 32  1  0
 19 33  1  0
M  CHG  2   8  -1  16  -1
M  END
>  <UniqueID>  (67) 
58

>  <SMILES>  (67) 
Cc1ccc(C(=O)[N-]c2cccc(NC([NH-])=O)c2)cc1F

>  <Energy>  (67) 
40.04094491088393

>  <Genealogy>  (67) 
Cc1ccc(C(=O)[N-]c2cccc(NC([NH-])=O)c2)cc1F (protonated)
Cc1ccc(C(=O)[N-]c2cccc(NC([NH-])=O)c2)cc1F (3D coordinates assigned)
Cc1ccc(C(=O)[N-]c2cccc(NC([NH-])=O)c2)cc1F (optimized conformer: 40.04094491088393 kcal/mol)

>  <smiles>  (67) 
Cc1ccc(C(=O)Nc2cccc(NC(N)=O)c2)cc1F

>  <score_type>  (67) 
oracle

>  <origin>  (67) 
adg

>  <m_score__min__energy>  (67) 
-10.57

>  <m_primary>  (67) 
energy

$$$$
67:0
     RDKit          3D

 23 25  0  0  0  0  0  0  0  0999 V2000
   59.0740   34.4160   46.1200 F   0  0  0  0  0  0  0  0  0  0  0  0
   58.6100   33.1880   45.7790 C   0  0  0  0  0  0  0  0  0  0  0  0
   58.6660   32.1420   46.6950 C   0  0  0  0  0  0  0  0  0  0  0  0
   58.1910   30.8720   46.3520 C   0  0  0  0  0  0  0  0  0  0  0  0
   57.6440   30.6230   45.0690 C   0  0  0  0  0  0  0  0  0  0  0  0
   57.1320   29.3600   44.6260 C   0  0  0  0  0  0  0  0  0  0  0  0
   57.0980   28.1080   45.4500 C   0  0  0  0  0  0  0  0  0  0  0  0
   58.1520   27.5650   46.0940 N   0  0  0  0  0  0  0  0  0  0  0  0
   57.6600   26.4680   46.6920 C   0  0  0  0  0  0  0  0  0  0  0  0
   56.3240   26.3620   46.4040 C   0  0  0  0  0  0  0  0  0  0  0  0
   55.9620   27.3920   45.6210 N   0  0  0  0  0  0  0  0  0  0  0  0
   56.6340   29.2740   43.3530 N   0  0  0  0  0  0  0  0  0  0  0  0
   56.6100   30.3350   42.5110 C   0  0  0  0  0  0  0  0  0  0  0  0
   57.0860   31.5340   42.9100 N   0  0  0  0  0  0  0  0  0  0  0  0
   57.5980   31.7080   44.1520 C   0  0  0  0  0  0  0  0  0  0  0  0
   58.0780   32.9720   44.5110 C   0  0  0  0  0  0  0  0  0  0  0  0
   59.0870   32.3153   47.6964 H   0  0  0  0  0  0  0  0  0  0  0  0
   58.2428   30.0560   47.0878 H   0  0  0  0  0  0  0  0  0  0  0  0
   58.2365   25.7669   47.3133 H   0  0  0  0  0  0  0  0  0  0  0  0
   55.6560   25.5625   46.7570 H   0  0  0  0  0  0  0  0  0  0  0  0
   56.2510   28.3730   42.9880 H   0  0  0  0  0  0  0  0  0  0  0  0
   56.2005   30.2191   41.4967 H   0  0  0  0  0  0  0  0  0  0  0  0
   58.0348   33.7995   43.7875 H   0  0  0  0  0  0  0  0  0  0  0  0
  1  2  1  0
  2  3  2  0
  3  4  1  0
  4  5  2  0
  5  6  1  0
  6  7  1  0
  7  8  2  0
  8  9  1  0
  9 10  2  0
 10 11  1  0
  6 12  2  0
 12 13  1  0
 13 14  2  0
 14 15  1  0
 15 16  2  0
 16  2  1  0
 15  5  1  0
 11  7  1  0
  3 17  1  0
  4 18  1  0
  9 19  1  0
 10 20  1  0
 12 21  1  0
 13 22  1  0
 16 23  1  0
M  CHG  2  11  -1  12   1
M  END
>  <UniqueID>  (68) 
59

>  <SMILES>  (68) 
Fc1ccc2c(-c3ncc[n-]3)[nH+]cnc2c1

>  <Energy>  (68) 
65.0358781511895

>  <Genealogy>  (68) 
Fc1ccc2c(-c3ncc[n-]3)[nH+]cnc2c1 (protonated)
Fc1ccc2c(-c3ncc[n-]3)[nH+]cnc2c1 (3D coordinates assigned)
Fc1ccc2c(-c3ncc[n-]3)[nH+]cnc2c1 (optimized conformer: 65.0358781511895 kcal/mol)

>  <smiles>  (68) 
Fc1ccc2c(-c3ncc[nH]3)ncnc2c1

>  <score_type>  (68) 
oracle

>  <origin>  (68) 
adg

>  <m_score__min__energy>  (68) 
-6.1100000000000003

>  <m_primary>  (68) 
energy

$$$$
68:0
     RDKit          3D

 33 35  0  0  0  0  0  0  0  0999 V2000
   57.3920   33.7130   44.9800 C   0  0  0  0  0  0  0  0  0  0  0  0
   57.8940   32.5980   44.2510 O   0  0  0  0  0  0  0  0  0  0  0  0
   57.6430   31.2570   44.5790 C   0  0  0  0  0  0  0  0  0  0  0  0
   56.4560   30.6720   44.1250 C   0  0  0  0  0  0  0  0  0  0  0  0
   56.1590   29.3400   44.4250 C   0  0  0  0  0  0  0  0  0  0  0  0
   57.0510   28.5680   45.1880 C   0  0  0  0  0  0  0  0  0  0  0  0
   56.7450   27.1600   45.5100 C   0  0  0  0  0  0  0  0  0  0  0  0
   57.6840   26.1930   45.6180 N   0  0  0  0  0  0  0  0  0  0  0  0
   56.9590   25.0970   45.9080 C   0  0  0  0  0  0  0  0  0  0  0  0
   57.5510   23.7560   46.2020 C   0  0  0  0  0  0  0  0  0  0  0  0
   57.4500   22.9010   45.0240 N   0  0  0  0  0  0  0  0  0  0  0  0
   56.9620   23.2420   43.8170 C   0  0  0  0  0  0  0  0  0  0  0  0
   56.9670   22.1160   43.0190 C   0  0  0  0  0  0  0  0  0  0  0  0
   57.4460   21.0840   43.7370 N   0  0  0  0  0  0  0  0  0  0  0  0
   57.7260   21.5830   44.9550 C   0  0  0  0  0  0  0  0  0  0  0  0
   55.6260   25.4290   45.9880 C   0  0  0  0  0  0  0  0  0  0  0  0
   55.5280   26.7080   45.7300 O   0  0  0  0  0  0  0  0  0  0  0  0
   58.2430   29.1540   45.6450 C   0  0  0  0  0  0  0  0  0  0  0  0
   58.5380   30.4860   45.3440 C   0  0  0  0  0  0  0  0  0  0  0  0
   57.4807   33.5159   46.0586 H   0  0  0  0  0  0  0  0  0  0  0  0
   57.9727   34.6110   44.7224 H   0  0  0  0  0  0  0  0  0  0  0  0
   56.3347   33.8736   44.7224 H   0  0  0  0  0  0  0  0  0  0  0  0
   55.7499   31.2662   43.5263 H   0  0  0  0  0  0  0  0  0  0  0  0
   55.2217   28.8934   44.0618 H   0  0  0  0  0  0  0  0  0  0  0  0
   58.6095   23.8764   46.4759 H   0  0  0  0  0  0  0  0  0  0  0  0
   57.0025   23.2921   47.0350 H   0  0  0  0  0  0  0  0  0  0  0  0
   56.6189   24.2436   43.5185 H   0  0  0  0  0  0  0  0  0  0  0  0
   56.6349   22.0700   41.9713 H   0  0  0  0  0  0  0  0  0  0  0  0
   57.5630   20.0960   43.4190 H   0  0  0  0  0  0  0  0  0  0  0  0
   58.1293   20.9903   45.7893 H   0  0  0  0  0  0  0  0  0  0  0  0
   54.7969   24.7460   46.2248 H   0  0  0  0  0  0  0  0  0  0  0  0
   58.9490   28.5601   46.2440 H   0  0  0  0  0  0  0  0  0  0  0  0
   59.4746   30.9345   45.7068 H   0  0  0  0  0  0  0  0  0  0  0  0
  1  2  1  0
  2  3  1  0
  3  4  2  0
  4  5  1  0
  5  6  2  0
  6  7  1  0
  7  8  2  0
  8  9  1  0
  9 10  1  0
 10 11  1  0
 11 12  1  0
 12 13  2  0
 13 14  1  0
 14 15  2  0
  9 16  2  0
 16 17  1  0
  6 18  1  0
 18 19  2  0
 19  3  1  0
 17  7  1  0
 15 11  1  0
  1 20  1  0
  1 21  1  0
  1 22  1  0
  4 23  1  0
  5 24  1  0
 10 25  1  0
 10 26  1  0
 12 27  1  0
 13 28  1  0
 14 29  1  0
 15 30  1  0
 16 31  1  0
 18 32  1  0
 19 33  1  0
M  CHG  1  14   1
M  END
>  <UniqueID>  (69) 
60

>  <SMILES>  (69) 
COc1ccc(-c2nc(Cn3cc[nH+]c3)co2)cc1

>  <Energy>  (69) 
92.0877191721873

>  <Genealogy>  (69) 
COc1ccc(-c2nc(Cn3cc[nH+]c3)co2)cc1 (protonated)
COc1ccc(-c2nc(Cn3cc[nH+]c3)co2)cc1 (3D coordinates assigned)
COc1ccc(-c2nc(Cn3cc[nH+]c3)co2)cc1 (optimized conformer: 92.0877191721873 kcal/mol)

>  <smiles>  (69) 
COc1ccc(-c2nc(Cn3ccnc3)co2)cc1

>  <score_type>  (69) 
oracle

>  <origin>  (69) 
adg

>  <m_score__min__energy>  (69) 
-4.54

>  <m_primary>  (69) 
energy

$$$$
69:0
     RDKit          3D

 30 32  0  0  0  0  0  0  0  0999 V2000
   58.2690   25.6270   46.3430 O   0  0  0  0  0  0  0  0  0  0  0  0
   57.1540   26.1670   46.1100 C   0  0  0  0  0  0  0  0  0  0  0  0
   57.0460   27.5990   46.0300 N   0  0  0  0  0  0  0  0  0  0  0  0
   58.1200   28.4930   46.3730 C   0  0  0  0  0  0  0  0  0  0  0  0
   59.0960   28.0750   47.0550 O   0  0  0  0  0  0  0  0  0  0  0  0
   58.0720   29.9230   45.9830 C   0  0  0  0  0  0  0  0  0  0  0  0
   59.1050   30.7860   46.3780 C   0  0  0  0  0  0  0  0  0  0  0  0
   59.0610   32.1350   46.0210 C   0  0  0  0  0  0  0  0  0  0  0  0
   60.0690   33.0310   46.4100 C   0  0  0  0  0  0  0  0  0  0  0  0
   59.9870   34.3760   46.0350 C   0  0  0  0  0  0  0  0  0  0  0  0
   58.9050   34.8300   45.2740 C   0  0  0  0  0  0  0  0  0  0  0  0
   57.8980   33.9400   44.8820 C   0  0  0  0  0  0  0  0  0  0  0  0
   57.9710   32.5920   45.2530 C   0  0  0  0  0  0  0  0  0  0  0  0
   57.0170   31.7480   44.8760 O   0  0  0  0  0  0  0  0  0  0  0  0
   57.0270   30.4570   45.1990 C   0  0  0  0  0  0  0  0  0  0  0  0
   56.1010   29.7180   44.7690 O   0  0  0  0  0  0  0  0  0  0  0  0
   55.9810   25.2990   45.9050 C   0  0  0  0  0  0  0  0  0  0  0  0
   55.9730   23.9210   45.7860 C   0  0  0  0  0  0  0  0  0  0  0  0
   54.6520   23.5700   45.6070 C   0  0  0  0  0  0  0  0  0  0  0  0
   53.9350   24.7480   45.6280 C   0  0  0  0  0  0  0  0  0  0  0  0
   54.7550   25.7590   45.8060 O   0  0  0  0  0  0  0  0  0  0  0  0
   56.1390   28.0210   45.7340 H   0  0  0  0  0  0  0  0  0  0  0  0
   59.9490   30.4001   46.9685 H   0  0  0  0  0  0  0  0  0  0  0  0
   60.9212   32.6763   47.0082 H   0  0  0  0  0  0  0  0  0  0  0  0
   60.7762   35.0791   46.3397 H   0  0  0  0  0  0  0  0  0  0  0  0
   58.8451   35.8890   44.9827 H   0  0  0  0  0  0  0  0  0  0  0  0
   57.0490   34.2999   44.2822 H   0  0  0  0  0  0  0  0  0  0  0  0
   56.8404   23.2456   45.8259 H   0  0  0  0  0  0  0  0  0  0  0  0
   54.2505   22.5546   45.4741 H   0  0  0  0  0  0  0  0  0  0  0  0
   52.8440   24.8287   45.5133 H   0  0  0  0  0  0  0  0  0  0  0  0
  1  2  2  0
  2  3  1  0
  3  4  1  0
  4  5  2  0
  4  6  1  0
  6  7  2  0
  7  8  1  0
  8  9  2  0
  9 10  1  0
 10 11  2  0
 11 12  1  0
 12 13  2  0
 13 14  1  0
 14 15  1  0
 15 16  2  0
  2 17  1  0
 17 18  2  0
 18 19  1  0
 19 20  2  0
 20 21  1  0
 15  6  1  0
 21 17  1  0
 13  8  1  0
  3 22  1  0
  7 23  1  0
  9 24  1  0
 10 25  1  0
 11 26  1  0
 12 27  1  0
 18 28  1  0
 19 29  1  0
 20 30  1  0
M  END
>  <UniqueID>  (70) 
61

>  <SMILES>  (70) 
O=C(NC(=O)c1cc2ccccc2oc1=O)c1ccco1

>  <Energy>  (70) 
67.26436881778707

>  <Genealogy>  (70) 
O=C(NC(=O)c1cc2ccccc2oc1=O)c1ccco1 (3D coordinates assigned)
O=C(NC(=O)c1cc2ccccc2oc1=O)c1ccco1 (optimized conformer: 67.26436881778707 kcal/mol)

>  <smiles>  (70) 
O=C(NC(=O)c1cc2ccccc2oc1=O)c1ccco1

>  <score_type>  (70) 
oracle

>  <origin>  (70) 
adg

>  <m_score__min__energy>  (70) 
-7.3200000000000003

>  <m_primary>  (70) 
energy

$$$$
70:0
     RDKit          3D

 38 40  0  0  0  0  0  0  0  0999 V2000
   57.0463   34.6255   45.8561 H   0  0  0  0  0  0  0  0  0  0  0  0
   57.8250   33.9180   46.1770 C   0  0  0  0  0  0  0  0  0  0  0  0
   58.8880   34.3670   46.9650 C   0  0  0  0  0  0  0  0  0  0  0  0
   58.9292   35.4204   47.2790 H   0  0  0  0  0  0  0  0  0  0  0  0
   59.9030   33.4820   47.3580 C   0  0  0  0  0  0  0  0  0  0  0  0
   61.0160   33.9610   48.2050 C   0  0  0  0  0  0  0  0  0  0  0  0
   60.7440   34.5420   49.2910 O   0  0  0  0  0  0  0  0  0  0  0  0
   62.3940   33.7910   47.8160 N   0  0  0  0  0  0  0  0  0  0  0  0
   63.4270   33.7620   48.8540 C   0  0  0  0  0  0  0  0  0  0  0  0
   62.9509   33.7754   49.8456 H   0  0  0  0  0  0  0  0  0  0  0  0
   64.0277   32.8466   48.7480 H   0  0  0  0  0  0  0  0  0  0  0  0
   64.0781   34.6422   48.7480 H   0  0  0  0  0  0  0  0  0  0  0  0
   62.7740   33.8100   46.3990 C   0  0  0  0  0  0  0  0  0  0  0  0
   63.8693   33.8648   46.3138 H   0  0  0  0  0  0  0  0  0  0  0  0
   62.4136   32.8927   45.9104 H   0  0  0  0  0  0  0  0  0  0  0  0
   62.3239   34.6868   45.9104 H   0  0  0  0  0  0  0  0  0  0  0  0
   59.8250   32.1350   46.9710 C   0  0  0  0  0  0  0  0  0  0  0  0
   60.6055   31.4285   47.2900 H   0  0  0  0  0  0  0  0  0  0  0  0
   58.7620   31.6860   46.1830 C   0  0  0  0  0  0  0  0  0  0  0  0
   58.7214   30.6333   45.8664 H   0  0  0  0  0  0  0  0  0  0  0  0
   57.7440   32.5740   45.7930 C   0  0  0  0  0  0  0  0  0  0  0  0
   56.6470   32.1610   44.9630 N   0  0  0  0  0  0  0  0  0  0  0  0
   56.5210   30.9180   44.2610 C   0  0  0  0  0  0  0  0  0  0  0  0
   56.9410   30.8160   43.0780 O   0  0  0  0  0  0  0  0  0  0  0  0
   55.9850   29.7490   44.9000 N   0  0  0  0  0  0  0  0  0  0  0  0
   56.5970   28.6370   45.1930 C   0  0  0  0  0  0  0  0  0  0  0  0
   55.9150   27.5480   45.6210 N   0  0  0  0  0  0  0  0  0  0  0  0
   56.7550   26.5130   45.8750 C   0  0  0  0  0  0  0  0  0  0  0  0
   56.3470   25.2580   46.3290 C   0  0  0  0  0  0  0  0  0  0  0  0
   55.2827   25.0450   46.5074 H   0  0  0  0  0  0  0  0  0  0  0  0
   57.3230   24.2710   46.5540 C   0  0  0  0  0  0  0  0  0  0  0  0
   57.0204   23.2757   46.9116 H   0  0  0  0  0  0  0  0  0  0  0  0
   58.6850   24.5470   46.3250 C   0  0  0  0  0  0  0  0  0  0  0  0
   59.4396   23.7671   46.5045 H   0  0  0  0  0  0  0  0  0  0  0  0
   59.0840   25.8150   45.8680 C   0  0  0  0  0  0  0  0  0  0  0  0
   60.1446   26.0426   45.6856 H   0  0  0  0  0  0  0  0  0  0  0  0
   58.0990   26.7740   45.6530 C   0  0  0  0  0  0  0  0  0  0  0  0
   58.2720   28.3540   45.1180 S   0  0  0  0  0  0  0  0  0  0  0  0
  1  2  1  0
  2  3  2  0
  3  4  1  0
  3  5  1  0
  5  6  1  0
  6  7  2  0
  6  8  1  0
  8  9  1  0
  9 10  1  0
  9 11  1  0
  9 12  1  0
  8 13  1  0
 13 14  1  0
 13 15  1  0
 13 16  1  0
  5 17  2  0
 17 18  1  0
 17 19  1  0
 19 20  1  0
 19 21  2  0
 21 22  1  0
 22 23  1  0
 23 24  2  0
 23 25  1  0
 25 26  2  0
 26 27  1  0
 27 28  1  0
 28 29  2  0
 29 30  1  0
 29 31  1  0
 31 32  1  0
 31 33  2  0
 33 34  1  0
 33 35  1  0
 35 36  1  0
 35 37  2  0
 37 38  1  0
 21  2  1  0
 38 26  1  0
 37 28  1  0
M  CHG  2  22  -1  27  -1
M  END
>  <UniqueID>  (71) 
62

>  <SMILES>  (71) 
CN(C)C(=O)c1ccc([N-]C(=O)/N=c2/[n-]c3ccccc3s2)cc1

>  <Energy>  (71) 
85.49393998504567

>  <Genealogy>  (71) 
CN(C)C(=O)c1ccc([N-]C(=O)N=c2[n-]c3ccccc3s2)cc1 (protonated)
CN(C)C(=O)c1ccc([N-]C(=O)/N=c2/[n-]c3ccccc3s2)cc1 (cis-trans isomerization)
CN(C)C(=O)c1ccc([N-]C(=O)/N=c2/[n-]c3ccccc3s2)cc1 (3D coordinates assigned)
CN(C)C(=O)c1ccc([N-]C(=O)/N=c2/[n-]c3ccccc3s2)cc1 (optimized conformer: 85.49393998504567 kcal/mol)

>  <smiles>  (71) 
CN(C)C(=O)c1ccc(NC(=O)N=c2[nH]c3ccccc3s2)cc1

>  <score_type>  (71) 
oracle

>  <origin>  (71) 
adg

>  <m_score__min__energy>  (71) 
-10.380000000000001

>  <m_primary>  (71) 
energy

$$$$
71:0
     RDKit          3D

 44 45  0  0  0  0  0  0  0  0999 V2000
   55.8810   29.3950   44.5270 C   0  0  0  0  0  0  0  0  0  0  0  0
   57.1140   29.6300   43.6550 C   0  0  0  0  0  0  0  0  0  0  0  0
   57.3200   31.0680   43.4130 N   0  0  0  0  0  0  0  0  0  0  0  0
   57.0390   31.5730   42.0580 C   0  0  0  0  0  0  0  0  0  0  0  0
   58.2390   32.3340   41.4990 C   0  0  0  0  0  0  0  0  0  0  0  0
   57.7830   31.9570   44.4720 C   0  0  0  0  0  0  0  0  0  0  0  0
   58.4930   31.4580   45.5850 C   0  0  0  0  0  0  0  0  0  0  0  0
   58.9350   32.3110   46.6000 C   0  0  0  0  0  0  0  0  0  0  0  0
   58.6680   33.6860   46.5430 C   0  0  0  0  0  0  0  0  0  0  0  0
   59.1700   34.6350   47.6090 C   0  0  0  0  0  0  0  0  0  0  0  0
   60.1130   33.9800   48.5300 N   0  0  0  0  0  0  0  0  0  0  0  0
   59.6540   33.6550   49.8850 C   0  0  0  0  0  0  0  0  0  0  0  0
   61.4710   33.6720   48.1260 C   0  0  0  0  0  0  0  0  0  0  0  0
   61.8790   33.8460   46.7870 C   0  0  0  0  0  0  0  0  0  0  0  0
   63.1900   33.5560   46.3990 C   0  0  0  0  0  0  0  0  0  0  0  0
   64.1140   33.0920   47.3370 C   0  0  0  0  0  0  0  0  0  0  0  0
   63.7280   32.9190   48.6670 C   0  0  0  0  0  0  0  0  0  0  0  0
   62.4180   33.2070   49.0620 C   0  0  0  0  0  0  0  0  0  0  0  0
   57.9790   34.1960   45.4340 C   0  0  0  0  0  0  0  0  0  0  0  0
   57.5380   33.3460   44.4170 C   0  0  0  0  0  0  0  0  0  0  0  0
   56.1664   29.4494   45.5879 H   0  0  0  0  0  0  0  0  0  0  0  0
   55.1264   30.1655   44.3103 H   0  0  0  0  0  0  0  0  0  0  0  0
   55.4627   28.4010   44.3103 H   0  0  0  0  0  0  0  0  0  0  0  0
   57.9987   29.2201   44.1642 H   0  0  0  0  0  0  0  0  0  0  0  0
   56.9611   29.1291   42.6877 H   0  0  0  0  0  0  0  0  0  0  0  0
   56.8120   30.7234   41.3972 H   0  0  0  0  0  0  0  0  0  0  0  0
   56.1813   32.2598   42.1103 H   0  0  0  0  0  0  0  0  0  0  0  0
   58.8478   32.7201   42.3299 H   0  0  0  0  0  0  0  0  0  0  0  0
   58.8478   31.6566   40.8822 H   0  0  0  0  0  0  0  0  0  0  0  0
   57.8858   33.1736   40.8822 H   0  0  0  0  0  0  0  0  0  0  0  0
   58.7019   30.3803   45.6547 H   0  0  0  0  0  0  0  0  0  0  0  0
   59.4974   31.8998   47.4512 H   0  0  0  0  0  0  0  0  0  0  0  0
   59.6785   35.4799   47.1215 H   0  0  0  0  0  0  0  0  0  0  0  0
   58.3041   34.9766   48.1952 H   0  0  0  0  0  0  0  0  0  0  0  0
   60.3210   34.1273   50.6212 H   0  0  0  0  0  0  0  0  0  0  0  0
   58.6294   34.0300   50.0249 H   0  0  0  0  0  0  0  0  0  0  0  0
   59.6674   32.5640   50.0249 H   0  0  0  0  0  0  0  0  0  0  0  0
   61.1587   34.2134   46.0412 H   0  0  0  0  0  0  0  0  0  0  0  0
   63.4948   33.6938   45.3511 H   0  0  0  0  0  0  0  0  0  0  0  0
   65.1447   32.8631   47.0283 H   0  0  0  0  0  0  0  0  0  0  0  0
   64.4564   32.5551   49.4066 H   0  0  0  0  0  0  0  0  0  0  0  0
   62.1232   33.0696   50.1128 H   0  0  0  0  0  0  0  0  0  0  0  0
   57.7836   35.2762   45.3638 H   0  0  0  0  0  0  0  0  0  0  0  0
   56.9912   33.7657   43.5598 H   0  0  0  0  0  0  0  0  0  0  0  0
  1  2  1  0
  2  3  1  0
  3  4  1  0
  4  5  1  0
  3  6  1  0
  6  7  2  0
  7  8  1  0
  8  9  2  0
  9 10  1  0
 10 11  1  0
 11 12  1  0
 11 13  1  0
 13 14  2  0
 14 15  1  0
 15 16  2  0
 16 17  1  0
 17 18  2  0
  9 19  1  0
 19 20  2  0
 20  6  1  0
 18 13  1  0
  1 21  1  0
  1 22  1  0
  1 23  1  0
  2 24  1  0
  2 25  1  0
  4 26  1  0
  4 27  1  0
  5 28  1  0
  5 29  1  0
  5 30  1  0
  7 31  1  0
  8 32  1  0
 10 33  1  0
 10 34  1  0
 12 35  1  0
 12 36  1  0
 12 37  1  0
 14 38  1  0
 15 39  1  0
 16 40  1  0
 17 41  1  0
 18 42  1  0
 19 43  1  0
 20 44  1  0
M  END
>  <UniqueID>  (72) 
63

>  <SMILES>  (72) 
CCN(CC)c1ccc(CN(C)c2ccccc2)cc1

>  <Energy>  (72) 
45.69819997995829

>  <Genealogy>  (72) 
CCN(CC)c1ccc(CN(C)c2ccccc2)cc1 (3D coordinates assigned)
CCN(CC)c1ccc(CN(C)c2ccccc2)cc1 (optimized conformer: 45.69819997995829 kcal/mol)

>  <smiles>  (72) 
CCN(CC)c1ccc(CN(C)c2ccccc2)cc1

>  <score_type>  (72) 
oracle

>  <origin>  (72) 
adg

>  <m_score__min__energy>  (72) 
-6.7999999999999998

>  <m_primary>  (72) 
energy

$$$$
72:0
     RDKit          3D

 38 41  0  0  0  0  0  0  0  0999 V2000
   57.7690   22.3910   48.2290 H   0  0  0  0  0  0  0  0  0  0  0  0
   57.1490   23.1700   48.0340 O   0  0  0  0  0  0  0  0  0  0  0  0
   57.1110   23.7750   46.7810 C   0  0  0  0  0  0  0  0  0  0  0  0
   56.9910   23.0020   45.6180 C   0  0  0  0  0  0  0  0  0  0  0  0
   56.9353   21.9058   45.6905 H   0  0  0  0  0  0  0  0  0  0  0  0
   56.9420   23.6220   44.3660 C   0  0  0  0  0  0  0  0  0  0  0  0
   56.8419   23.0134   43.4552 H   0  0  0  0  0  0  0  0  0  0  0  0
   57.0200   25.0140   44.2700 C   0  0  0  0  0  0  0  0  0  0  0  0
   56.9698   25.4986   43.2838 H   0  0  0  0  0  0  0  0  0  0  0  0
   57.1620   25.7960   45.4260 C   0  0  0  0  0  0  0  0  0  0  0  0
   57.2070   27.2700   45.3160 C   0  0  0  0  0  0  0  0  0  0  0  0
   56.0260   27.9320   45.2660 N   0  0  0  0  0  0  0  0  0  0  0  0
   55.9610   29.2560   45.1720 N   0  0  0  0  0  0  0  0  0  0  0  0
   57.0630   30.0460   45.1270 C   0  0  0  0  0  0  0  0  0  0  0  0
   56.8610   31.3130   44.8780 N   0  0  0  0  0  0  0  0  0  0  0  0
   57.5670   32.4740   45.3380 C   0  0  0  0  0  0  0  0  0  0  0  0
   57.7720   32.6970   46.7110 C   0  0  0  0  0  0  0  0  0  0  0  0
   57.3486   31.9999   47.4491 H   0  0  0  0  0  0  0  0  0  0  0  0
   58.5130   33.8030   47.1410 C   0  0  0  0  0  0  0  0  0  0  0  0
   58.6536   33.9867   48.2164 H   0  0  0  0  0  0  0  0  0  0  0  0
   59.0750   34.6750   46.2030 C   0  0  0  0  0  0  0  0  0  0  0  0
   59.6509   35.5491   46.5409 H   0  0  0  0  0  0  0  0  0  0  0  0
   58.9050   34.4360   44.8360 C   0  0  0  0  0  0  0  0  0  0  0  0
   59.3546   35.1179   44.0992 H   0  0  0  0  0  0  0  0  0  0  0  0
   58.1640   33.3310   44.4040 C   0  0  0  0  0  0  0  0  0  0  0  0
   58.0496   33.1343   43.3278 H   0  0  0  0  0  0  0  0  0  0  0  0
   58.3410   29.4330   45.3020 C   0  0  0  0  0  0  0  0  0  0  0  0
   59.5290   30.1580   45.5620 C   0  0  0  0  0  0  0  0  0  0  0  0
   59.4798   31.2480   45.7013 H   0  0  0  0  0  0  0  0  0  0  0  0
   60.7610   29.5090   45.6440 C   0  0  0  0  0  0  0  0  0  0  0  0
   61.6775   30.0927   45.8153 H   0  0  0  0  0  0  0  0  0  0  0  0
   60.8350   28.1270   45.5100 C   0  0  0  0  0  0  0  0  0  0  0  0
   61.8140   27.6256   45.5185 H   0  0  0  0  0  0  0  0  0  0  0  0
   59.6700   27.3770   45.3650 C   0  0  0  0  0  0  0  0  0  0  0  0
   59.7326   26.2819   45.2826 H   0  0  0  0  0  0  0  0  0  0  0  0
   58.4090   28.0120   45.3230 C   0  0  0  0  0  0  0  0  0  0  0  0
   57.1890   25.1690   46.6840 C   0  0  0  0  0  0  0  0  0  0  0  0
   57.2719   25.7772   47.5968 H   0  0  0  0  0  0  0  0  0  0  0  0
  1  2  1  0
  2  3  1  0
  3  4  2  0
  4  5  1  0
  4  6  1  0
  6  7  1  0
  6  8  2  0
  8  9  1  0
  8 10  1  0
 10 11  1  0
 11 12  2  0
 12 13  1  0
 13 14  1  0
 14 15  2  0
 15 16  1  0
 16 17  2  0
 17 18  1  0
 17 19  1  0
 19 20  1  0
 19 21  2  0
 21 22  1  0
 21 23  1  0
 23 24  1  0
 23 25  2  0
 25 26  1  0
 14 27  1  0
 27 28  2  0
 28 29  1  0
 28 30  1  0
 30 31  1  0
 30 32  2  0
 32 33  1  0
 32 34  1  0
 34 35  1  0
 34 36  2  0
 10 37  2  0
 37 38  1  0
 37  3  1  0
 36 11  1  0
 25 16  1  0
 36 27  1  0
M  CHG  1  13  -1
M  END
>  <UniqueID>  (73) 
64

>  <SMILES>  (73) 
Oc1cccc(-c2n[n-]/c(=N/c3ccccc3)c3ccccc23)c1

>  <Energy>  (73) 
76.1773109657453

>  <Genealogy>  (73) 
Oc1cccc(-c2n[n-]c(=Nc3ccccc3)c3ccccc23)c1 (protonated)
Oc1cccc(-c2n[n-]/c(=N/c3ccccc3)c3ccccc23)c1 (cis-trans isomerization)
Oc1cccc(-c2n[n-]/c(=N/c3ccccc3)c3ccccc23)c1 (3D coordinates assigned)
Oc1cccc(-c2n[n-]/c(=N/c3ccccc3)c3ccccc23)c1 (optimized conformer: 76.1773109657453 kcal/mol)

>  <smiles>  (73) 
Oc1cccc(-c2n[nH]c(=Nc3ccccc3)c3ccccc23)c1

>  <score_type>  (73) 
oracle

>  <origin>  (73) 
adg

>  <m_score__min__energy>  (73) 
-10.44

>  <m_primary>  (73) 
energy

$$$$
73:0
     RDKit          3D

 51 54  0  0  0  0  0  0  0  0999 V2000
   55.1450   26.6980   45.9720 O   0  0  0  0  0  0  0  0  0  0  0  0
   55.8580   25.6750   46.1550 C   0  0  0  0  0  0  0  0  0  0  0  0
   55.2750   24.5070   46.6300 O   0  0  0  0  0  0  0  0  0  0  0  0
   57.3120   25.6980   45.8040 C   0  0  0  0  0  0  0  0  0  0  0  0
   57.5610   26.6360   44.6160 C   0  0  0  0  0  0  0  0  0  0  0  0
   58.5740   27.7450   44.9440 C   0  0  0  0  0  0  0  0  0  0  0  0
   58.2890   28.4560   46.2450 C   0  0  0  0  0  0  0  0  0  0  0  0
   57.7480   27.8260   47.1950 O   0  0  0  0  0  0  0  0  0  0  0  0
   58.5830   29.8600   46.3990 N   0  0  0  0  0  0  0  0  0  0  0  0
   57.7600   30.8420   45.7430 C   0  0  0  0  0  0  0  0  0  0  0  0
   56.7000   30.4740   45.1650 O   0  0  0  0  0  0  0  0  0  0  0  0
   58.1470   32.2710   45.7130 C   0  0  0  0  0  0  0  0  0  0  0  0
   58.4880   32.8910   44.4980 C   0  0  0  0  0  0  0  0  0  0  0  0
   58.8590   34.2400   44.4740 C   0  0  0  0  0  0  0  0  0  0  0  0
   58.9020   34.9760   45.6610 C   0  0  0  0  0  0  0  0  0  0  0  0
   58.5790   34.3650   46.8740 C   0  0  0  0  0  0  0  0  0  0  0  0
   58.2110   33.0170   46.9030 C   0  0  0  0  0  0  0  0  0  0  0  0
   59.7520   30.2990   47.1210 C   0  0  0  0  0  0  0  0  0  0  0  0
   59.7930   30.2360   48.5230 C   0  0  0  0  0  0  0  0  0  0  0  0
   60.9270   30.6650   49.2180 C   0  0  0  0  0  0  0  0  0  0  0  0
   62.0470   31.1590   48.5240 C   0  0  0  0  0  0  0  0  0  0  0  0
   63.2530   31.6180   49.2500 C   0  0  0  0  0  0  0  0  0  0  0  0
   63.7610   30.9680   50.3300 N   0  0  0  0  0  0  0  0  0  0  0  0
   64.8690   31.5920   50.8080 C   0  0  0  0  0  0  0  0  0  0  0  0
   65.6010   31.1590   51.9140 C   0  0  0  0  0  0  0  0  0  0  0  0
   66.7290   31.8990   52.3070 C   0  0  0  0  0  0  0  0  0  0  0  0
   67.1090   33.0560   51.5960 C   0  0  0  0  0  0  0  0  0  0  0  0
   66.3620   33.4830   50.4860 C   0  0  0  0  0  0  0  0  0  0  0  0
   65.2490   32.7310   50.1180 C   0  0  0  0  0  0  0  0  0  0  0  0
   64.1740   32.9910   48.8590 S   0  0  0  0  0  0  0  0  0  0  0  0
   62.0060   31.2090   47.1190 C   0  0  0  0  0  0  0  0  0  0  0  0
   60.8700   30.7810   46.4260 C   0  0  0  0  0  0  0  0  0  0  0  0
   57.8887   26.0511   46.6716 H   0  0  0  0  0  0  0  0  0  0  0  0
   57.6284   24.6813   45.5280 H   0  0  0  0  0  0  0  0  0  0  0  0
   57.9471   26.0434   43.7735 H   0  0  0  0  0  0  0  0  0  0  0  0
   56.6052   27.1196   44.3658 H   0  0  0  0  0  0  0  0  0  0  0  0
   59.5756   27.2944   45.0057 H   0  0  0  0  0  0  0  0  0  0  0  0
   58.5025   28.4955   44.1430 H   0  0  0  0  0  0  0  0  0  0  0  0
   58.4630   32.3131   43.5623 H   0  0  0  0  0  0  0  0  0  0  0  0
   59.1172   34.7217   43.5194 H   0  0  0  0  0  0  0  0  0  0  0  0
   59.1905   36.0373   45.6397 H   0  0  0  0  0  0  0  0  0  0  0  0
   58.6142   34.9451   47.8079 H   0  0  0  0  0  0  0  0  0  0  0  0
   57.9699   32.5367   47.8628 H   0  0  0  0  0  0  0  0  0  0  0  0
   58.9269   29.8464   49.0780 H   0  0  0  0  0  0  0  0  0  0  0  0
   60.9442   30.6161   50.3168 H   0  0  0  0  0  0  0  0  0  0  0  0
   65.3012   30.2567   52.4671 H   0  0  0  0  0  0  0  0  0  0  0  0
   67.3200   31.5734   53.1757 H   0  0  0  0  0  0  0  0  0  0  0  0
   67.9946   33.6267   51.9122 H   0  0  0  0  0  0  0  0  0  0  0  0
   66.6475   34.3845   49.9240 H   0  0  0  0  0  0  0  0  0  0  0  0
   62.8749   31.5880   46.5610 H   0  0  0  0  0  0  0  0  0  0  0  0
   60.8532   30.8227   45.3269 H   0  0  0  0  0  0  0  0  0  0  0  0
  1  2  2  0
  2  3  1  0
  2  4  1  0
  4  5  1  0
  5  6  1  0
  6  7  1  0
  7  8  2  0
  7  9  1  0
  9 10  1  0
 10 11  2  0
 10 12  1  0
 12 13  2  0
 13 14  1  0
 14 15  2  0
 15 16  1  0
 16 17  2  0
  9 18  1  0
 18 19  2  0
 19 20  1  0
 20 21  2  0
 21 22  1  0
 22 23  2  0
 23 24  1  0
 24 25  2  0
 25 26  1  0
 26 27  2  0
 27 28  1  0
 28 29  2  0
 29 30  1  0
 21 31  1  0
 31 32  2  0
 17 12  1  0
 32 18  1  0
 30 22  1  0
 29 24  1  0
  4 33  1  0
  4 34  1  0
  5 35  1  0
  5 36  1  0
  6 37  1  0
  6 38  1  0
 13 39  1  0
 14 40  1  0
 15 41  1  0
 16 42  1  0
 17 43  1  0
 19 44  1  0
 20 45  1  0
 25 46  1  0
 26 47  1  0
 27 48  1  0
 28 49  1  0
 31 50  1  0
 32 51  1  0
M  CHG  1   3  -1
M  END
>  <UniqueID>  (74) 
65

>  <SMILES>  (74) 
O=C([O-])CCCC(=O)N(C(=O)c1ccccc1)c1ccc(-c2nc3ccccc3s2)cc1

>  <Energy>  (74) 
97.40850171816525

>  <Genealogy>  (74) 
O=C([O-])CCCC(=O)N(C(=O)c1ccccc1)c1ccc(-c2nc3ccccc3s2)cc1 (protonated)
O=C([O-])CCCC(=O)N(C(=O)c1ccccc1)c1ccc(-c2nc3ccccc3s2)cc1 (3D coordinates assigned)
O=C([O-])CCCC(=O)N(C(=O)c1ccccc1)c1ccc(-c2nc3ccccc3s2)cc1 (optimized conformer: 97.40850171816525 kcal/mol)

>  <smiles>  (74) 
O=C(O)CCCC(=O)N(C(=O)c1ccccc1)c1ccc(-c2nc3ccccc3s2)cc1

>  <score_type>  (74) 
oracle

>  <origin>  (74) 
adg

>  <m_score__min__energy>  (74) 
-12.02

>  <m_primary>  (74) 
energy

$$$$
74:0
     RDKit          3D

 33 34  0  0  0  0  0  0  0  0999 V2000
   65.2770   32.7680   49.6870 C   0  0  0  0  0  0  0  0  0  0  0  0
   64.5670   33.3390   48.5920 O   0  0  0  0  0  0  0  0  0  0  0  0
   63.2400   33.0270   48.2600 C   0  0  0  0  0  0  0  0  0  0  0  0
   62.2340   33.9230   48.6320 C   0  0  0  0  0  0  0  0  0  0  0  0
   60.8950   33.6590   48.3270 C   0  0  0  0  0  0  0  0  0  0  0  0
   60.5360   32.4820   47.6420 C   0  0  0  0  0  0  0  0  0  0  0  0
   59.1190   32.1840   47.3060 C   0  0  0  0  0  0  0  0  0  0  0  0
   58.7830   30.9930   47.0580 O   0  0  0  0  0  0  0  0  0  0  0  0
   58.0890   33.2780   47.1970 C   0  0  0  0  0  0  0  0  0  0  0  0
   58.2640   34.2220   45.6420 S   0  0  0  0  0  0  0  0  0  0  0  0
   57.7030   32.8610   44.6210 C   0  0  0  0  0  0  0  0  0  0  0  0
   57.9080   32.9000   43.2780 N   0  0  0  0  0  0  0  0  0  0  0  0
   57.4910   31.8860   42.4780 C   0  0  0  0  0  0  0  0  0  0  0  0
   57.6900   31.9440   41.2360 O   0  0  0  0  0  0  0  0  0  0  0  0
   56.8430   30.7830   43.0340 C   0  0  0  0  0  0  0  0  0  0  0  0
   56.6400   30.7550   44.4170 C   0  0  0  0  0  0  0  0  0  0  0  0
   55.9790   29.6410   45.0240 N   0  0  0  0  0  0  0  0  0  0  0  0
   57.0750   31.7930   45.1850 N   0  0  0  0  0  0  0  0  0  0  0  0
   61.5520   31.5860   47.2630 C   0  0  0  0  0  0  0  0  0  0  0  0
   62.8900   31.8520   47.5700 C   0  0  0  0  0  0  0  0  0  0  0  0
   64.8385   33.1206   50.6322 H   0  0  0  0  0  0  0  0  0  0  0  0
   65.2075   31.6713   49.6372 H   0  0  0  0  0  0  0  0  0  0  0  0
   66.3332   33.0711   49.6372 H   0  0  0  0  0  0  0  0  0  0  0  0
   62.4981   34.8453   49.1702 H   0  0  0  0  0  0  0  0  0  0  0  0
   60.1160   34.3764   48.6245 H   0  0  0  0  0  0  0  0  0  0  0  0
   57.0861   32.8273   47.2290 H   0  0  0  0  0  0  0  0  0  0  0  0
   58.2373   33.9723   48.0372 H   0  0  0  0  0  0  0  0  0  0  0  0
   56.4993   29.9536   42.3984 H   0  0  0  0  0  0  0  0  0  0  0  0
   55.8860   28.7350   44.5130 H   0  0  0  0  0  0  0  0  0  0  0  0
   55.5820   29.7150   45.9870 H   0  0  0  0  0  0  0  0  0  0  0  0
   56.9230   31.7740   46.2180 H   0  0  0  0  0  0  0  0  0  0  0  0
   61.2911   30.6661   46.7192 H   0  0  0  0  0  0  0  0  0  0  0  0
   63.6725   31.1392   47.2706 H   0  0  0  0  0  0  0  0  0  0  0  0
  1  2  1  0
  2  3  1  0
  3  4  2  0
  4  5  1  0
  5  6  2  0
  6  7  1  0
  7  8  2  0
  7  9  1  0
  9 10  1  0
 10 11  1  0
 11 12  2  0
 12 13  1  0
 13 14  2  0
 13 15  1  0
 15 16  2  0
 16 17  1  0
 16 18  1  0
  6 19  1  0
 19 20  2  0
 20  3  1  0
 18 11  1  0
  1 21  1  0
  1 22  1  0
  1 23  1  0
  4 24  1  0
  5 25  1  0
  9 26  1  0
  9 27  1  0
 15 28  1  0
 17 29  1  0
 17 30  1  0
 18 31  1  0
 19 32  1  0
 20 33  1  0
M  END
>  <UniqueID>  (75) 
66

>  <SMILES>  (75) 
COc1ccc(C(=O)CSc2nc(=O)cc(N)[nH]2)cc1

>  <Energy>  (75) 
30.72691224982242

>  <Genealogy>  (75) 
COc1ccc(C(=O)CSc2nc(=O)cc(N)[nH]2)cc1 (3D coordinates assigned)
COc1ccc(C(=O)CSc2nc(=O)cc(N)[nH]2)cc1 (optimized conformer: 30.72691224982242 kcal/mol)

>  <smiles>  (75) 
COc1ccc(C(=O)CSc2nc(=O)cc(N)[nH]2)cc1

>  <score_type>  (75) 
oracle

>  <origin>  (75) 
adg

>  <m_score__min__energy>  (75) 
-6.6299999999999999

>  <m_primary>  (75) 
energy

$$$$
75:0
     RDKit          3D

 25 27  0  0  0  0  0  0  0  0999 V2000
   59.6410   35.6710   46.3120 O   0  0  0  0  0  0  0  0  0  0  0  0
   59.1730   34.5160   46.5040 C   0  0  0  0  0  0  0  0  0  0  0  0
   58.6150   33.8130   45.4320 C   0  0  0  0  0  0  0  0  0  0  0  0
   58.0890   32.5200   45.6350 C   0  0  0  0  0  0  0  0  0  0  0  0
   57.4780   31.7080   44.5470 C   0  0  0  0  0  0  0  0  0  0  0  0
   57.6270   32.0100   43.1770 C   0  0  0  0  0  0  0  0  0  0  0  0
   57.0190   31.1930   42.2200 C   0  0  0  0  0  0  0  0  0  0  0  0
   56.2710   30.0870   42.6210 C   0  0  0  0  0  0  0  0  0  0  0  0
   56.1410   29.8110   43.9810 C   0  0  0  0  0  0  0  0  0  0  0  0
   56.7380   30.6170   44.8990 N   0  0  0  0  0  0  0  0  0  0  0  0
   58.1370   31.9800   46.8850 N   0  0  0  0  0  0  0  0  0  0  0  0
   58.6720   32.6370   47.9480 C   0  0  0  0  0  0  0  0  0  0  0  0
   58.6940   32.0320   49.2070 C   0  0  0  0  0  0  0  0  0  0  0  0
   59.2480   32.7210   50.2870 C   0  0  0  0  0  0  0  0  0  0  0  0
   59.7600   33.9690   50.1110 N   0  0  0  0  0  0  0  0  0  0  0  0
   59.7530   34.5840   48.8980 C   0  0  0  0  0  0  0  0  0  0  0  0
   59.2070   33.9300   47.7810 C   0  0  0  0  0  0  0  0  0  0  0  0
   58.5862   34.2679   44.4309 H   0  0  0  0  0  0  0  0  0  0  0  0
   58.2182   32.8832   42.8640 H   0  0  0  0  0  0  0  0  0  0  0  0
   57.1307   31.4227   41.1501 H   0  0  0  0  0  0  0  0  0  0  0  0
   55.7892   29.4400   41.8731 H   0  0  0  0  0  0  0  0  0  0  0  0
   55.5552   28.9407   44.3118 H   0  0  0  0  0  0  0  0  0  0  0  0
   58.2789   31.0228   49.3458 H   0  0  0  0  0  0  0  0  0  0  0  0
   59.2707   32.2539   51.2826 H   0  0  0  0  0  0  0  0  0  0  0  0
   60.1751   35.5942   48.7915 H   0  0  0  0  0  0  0  0  0  0  0  0
  1  2  2  0
  2  3  1  0
  3  4  2  0
  4  5  1  0
  5  6  2  0
  6  7  1  0
  7  8  2  0
  8  9  1  0
  9 10  2  0
  4 11  1  0
 11 12  1  0
 12 13  2  0
 13 14  1  0
 14 15  2  0
 15 16  1  0
 16 17  2  0
 17  2  1  0
 10  5  1  0
 17 12  1  0
  3 18  1  0
  6 19  1  0
  7 20  1  0
  8 21  1  0
  9 22  1  0
 13 23  1  0
 14 24  1  0
 16 25  1  0
M  CHG  1  11  -1
M  END
>  <UniqueID>  (76) 
67

>  <SMILES>  (76) 
O=c1cc(-c2ccccn2)[n-]c2ccncc12

>  <Energy>  (76) 
37.509197467497835

>  <Genealogy>  (76) 
O=c1cc(-c2ccccn2)[n-]c2ccncc12 (protonated)
O=c1cc(-c2ccccn2)[n-]c2ccncc12 (3D coordinates assigned)
O=c1cc(-c2ccccn2)[n-]c2ccncc12 (optimized conformer: 37.509197467497835 kcal/mol)

>  <smiles>  (76) 
O=c1cc(-c2ccccn2)[nH]c2ccncc12

>  <score_type>  (76) 
oracle

>  <origin>  (76) 
adg

>  <m_score__min__energy>  (76) 
-8.0299999999999994

>  <m_primary>  (76) 
energy

$$$$
76:0
     RDKit          3D

 32 34  0  0  0  0  0  0  0  0999 V2000
   60.7880   34.5700   46.8090 C   0  0  0  0  0  0  0  0  0  0  0  0
   59.5880   33.8090   46.3290 C   0  0  0  0  0  0  0  0  0  0  0  0
   58.9230   34.2020   45.1580 C   0  0  0  0  0  0  0  0  0  0  0  0
   57.8260   33.4710   44.6920 C   0  0  0  0  0  0  0  0  0  0  0  0
   57.3870   32.3320   45.3780 C   0  0  0  0  0  0  0  0  0  0  0  0
   56.2520   31.6190   44.8670 N   0  0  0  0  0  0  0  0  0  0  0  0
   56.3210   30.1070   44.0210 S   0  0  0  0  0  0  0  0  0  0  0  0
   55.0560   29.3410   44.2820 O   0  0  0  0  0  0  0  0  0  0  0  0
   56.4390   30.3740   42.5470 O   0  0  0  0  0  0  0  0  0  0  0  0
   57.6890   29.1560   44.5900 C   0  0  0  0  0  0  0  0  0  0  0  0
   59.0000   29.6760   44.5040 C   0  0  0  0  0  0  0  0  0  0  0  0
   60.0970   28.9300   44.9680 C   0  0  0  0  0  0  0  0  0  0  0  0
   59.8660   27.6650   45.5120 C   0  0  0  0  0  0  0  0  0  0  0  0
   60.8300   26.8410   45.9980 N   0  0  0  0  0  0  0  0  0  0  0  0
   60.3140   25.6770   46.4630 C   0  0  0  0  0  0  0  0  0  0  0  0
   58.6300   25.6340   46.2840 S   0  0  0  0  0  0  0  0  0  0  0  0
   58.5790   27.1610   45.5870 C   0  0  0  0  0  0  0  0  0  0  0  0
   57.4750   27.8770   45.1350 C   0  0  0  0  0  0  0  0  0  0  0  0
   58.0680   31.9240   46.5390 C   0  0  0  0  0  0  0  0  0  0  0  0
   59.1640   32.6560   47.0060 C   0  0  0  0  0  0  0  0  0  0  0  0
   60.8011   34.5783   47.9089 H   0  0  0  0  0  0  0  0  0  0  0  0
   61.7025   34.0864   46.4351 H   0  0  0  0  0  0  0  0  0  0  0  0
   60.7405   35.6034   46.4351 H   0  0  0  0  0  0  0  0  0  0  0  0
   59.2659   35.0885   44.6044 H   0  0  0  0  0  0  0  0  0  0  0  0
   57.3036   33.7933   43.7792 H   0  0  0  0  0  0  0  0  0  0  0  0
   59.1634   30.6735   44.0701 H   0  0  0  0  0  0  0  0  0  0  0  0
   61.1178   29.3349   44.9038 H   0  0  0  0  0  0  0  0  0  0  0  0
   61.8480   27.0700   46.0150 H   0  0  0  0  0  0  0  0  0  0  0  0
   60.9123   24.8642   46.9006 H   0  0  0  0  0  0  0  0  0  0  0  0
   56.4617   27.4541   45.2020 H   0  0  0  0  0  0  0  0  0  0  0  0
   57.7373   31.0260   47.0815 H   0  0  0  0  0  0  0  0  0  0  0  0
   59.6970   32.3257   47.9098 H   0  0  0  0  0  0  0  0  0  0  0  0
  1  2  1  0
  2  3  2  0
  3  4  1  0
  4  5  2  0
  5  6  1  0
  6  7  1  0
  7  8  2  0
  7  9  2  0
  7 10  1  0
 10 11  2  0
 11 12  1  0
 12 13  2  0
 13 14  1  0
 14 15  2  0
 15 16  1  0
 16 17  1  0
 17 18  2  0
  5 19  1  0
 19 20  2  0
 20  2  1  0
 18 10  1  0
 17 13  1  0
  1 21  1  0
  1 22  1  0
  1 23  1  0
  3 24  1  0
  4 25  1  0
 11 26  1  0
 12 27  1  0
 14 28  1  0
 15 29  1  0
 18 30  1  0
 19 31  1  0
 20 32  1  0
M  CHG  2   6  -1  14   1
M  END
>  <UniqueID>  (77) 
68

>  <SMILES>  (77) 
Cc1ccc([N-]S(=O)(=O)c2ccc3[nH+]csc3c2)cc1

>  <Energy>  (77) 
70.57398762188872

>  <Genealogy>  (77) 
Cc1ccc([N-]S(=O)(=O)c2ccc3[nH+]csc3c2)cc1 (protonated)
Cc1ccc([N-]S(=O)(=O)c2ccc3[nH+]csc3c2)cc1 (3D coordinates assigned)
Cc1ccc([N-]S(=O)(=O)c2ccc3[nH+]csc3c2)cc1 (optimized conformer: 70.57398762188872 kcal/mol)

>  <smiles>  (77) 
Cc1ccc(NS(=O)(=O)c2ccc3ncsc3c2)cc1

>  <score_type>  (77) 
oracle

>  <origin>  (77) 
adg

>  <m_score__min__energy>  (77) 
-8.1300000000000008

>  <m_primary>  (77) 
energy

$$$$
77:0
     RDKit          3D

 29 31  0  0  0  0  0  0  0  0999 V2000
   54.9070   28.9120   42.5970 H   0  0  0  0  0  0  0  0  0  0  0  0
   54.8740   29.3450   43.5470 N   0  0  0  0  0  0  0  0  0  0  0  0
   55.9490   29.6990   44.1790 C   0  0  0  0  0  0  0  0  0  0  0  0
   56.2150   31.0520   44.3950 C   0  0  0  0  0  0  0  0  0  0  0  0
   55.5153   31.8193   44.0321 H   0  0  0  0  0  0  0  0  0  0  0  0
   57.3450   31.4140   45.0570 N   0  0  0  0  0  0  0  0  0  0  0  0
   58.2350   30.4910   45.5160 C   0  0  0  0  0  0  0  0  0  0  0  0
   59.4520   30.9450   46.2380 C   0  0  0  0  0  0  0  0  0  0  0  0
   59.7120   32.3190   46.3740 C   0  0  0  0  0  0  0  0  0  0  0  0
   59.0101   33.0512   45.9483 H   0  0  0  0  0  0  0  0  0  0  0  0
   60.8540   32.7640   47.0450 C   0  0  0  0  0  0  0  0  0  0  0  0
   61.0363   33.8439   47.1480 H   0  0  0  0  0  0  0  0  0  0  0  0
   61.7710   31.8530   47.5890 C   0  0  0  0  0  0  0  0  0  0  0  0
   62.9890   32.4160   48.3030 C   0  0  0  0  0  0  0  0  0  0  0  0
   63.2296   31.4565   48.7840 H   0  0  0  0  0  0  0  0  0  0  0  0
   63.7910   33.4870   47.5750 C   0  0  0  0  0  0  0  0  0  0  0  0
   64.8869   33.5113   47.6671 H   0  0  0  0  0  0  0  0  0  0  0  0
   63.8714   33.8234   46.5308 H   0  0  0  0  0  0  0  0  0  0  0  0
   62.9170   33.8660   48.7660 C   0  0  0  0  0  0  0  0  0  0  0  0
   63.3823   34.1635   49.7173 H   0  0  0  0  0  0  0  0  0  0  0  0
   62.1057   34.5889   48.9370 H   0  0  0  0  0  0  0  0  0  0  0  0
   61.5190   30.4730   47.4390 C   0  0  0  0  0  0  0  0  0  0  0  0
   62.2289   29.7413   47.8521 H   0  0  0  0  0  0  0  0  0  0  0  0
   60.3750   30.0270   46.7700 C   0  0  0  0  0  0  0  0  0  0  0  0
   60.1952   28.9475   46.6588 H   0  0  0  0  0  0  0  0  0  0  0  0
   57.9580   29.1290   45.3060 C   0  0  0  0  0  0  0  0  0  0  0  0
   58.6522   28.3608   45.6774 H   0  0  0  0  0  0  0  0  0  0  0  0
   56.8270   28.7640   44.6410 N   0  0  0  0  0  0  0  0  0  0  0  0
   56.6390   27.7460   44.4960 H   0  0  0  0  0  0  0  0  0  0  0  0
  1  2  1  0
  2  3  2  0
  3  4  1  0
  4  5  1  0
  4  6  2  0
  6  7  1  0
  7  8  1  0
  8  9  2  0
  9 10  1  0
  9 11  1  0
 11 12  1  0
 11 13  2  0
 13 14  1  0
 14 15  1  0
 14 16  1  0
 16 17  1  0
 16 18  1  0
 16 19  1  0
 19 20  1  0
 19 21  1  0
 13 22  1  0
 22 23  1  0
 22 24  2  0
 24 25  1  0
  7 26  2  0
 26 27  1  0
 26 28  1  0
 28 29  1  0
 28  3  1  0
 24  8  1  0
 19 14  1  0
M  END
>  <UniqueID>  (78) 
69

>  <SMILES>  (78) 
[H]/N=c1/cnc(-c2ccc(C3CC3)cc2)c[nH]1

>  <Energy>  (78) 
303.6659738890758

>  <Genealogy>  (78) 
[H]/N=c1/cnc(-c2ccc(C3CC3)cc2)c[nH]1 (cis-trans isomerization)
[H]/N=c1/cnc(-c2ccc(C3CC3)cc2)c[nH]1 (3D coordinates assigned)
[H]/N=c1/cnc(-c2ccc(C3CC3)cc2)c[nH]1 (nonaromatic ring conformer: 303.6659738890758 kcal/mol)

>  <smiles>  (78) 
N=c1cnc(-c2ccc(C3CC3)cc2)c[nH]1

>  <score_type>  (78) 
oracle

>  <origin>  (78) 
adg

>  <m_score__min__energy>  (78) 
-5.96

>  <m_primary>  (78) 
energy

$$$$
78:0
     RDKit          3D

 38 39  0  0  0  0  0  0  0  0999 V2000
   54.4080   26.6840   45.0940 H   0  0  0  0  0  0  0  0  0  0  0  0
   54.7820   26.3100   45.9940 N   0  0  0  0  0  0  0  0  0  0  0  0
   56.0330   26.3450   46.3370 C   0  0  0  0  0  0  0  0  0  0  0  0
   56.5190   25.3560   47.1320 N   0  0  0  0  0  0  0  0  0  0  0  0
   57.8210   25.3170   47.5130 C   0  0  0  0  0  0  0  0  0  0  0  0
   58.1836   24.5110   48.1678 H   0  0  0  0  0  0  0  0  0  0  0  0
   58.6970   26.3100   47.0660 C   0  0  0  0  0  0  0  0  0  0  0  0
   60.1320   26.3140   47.4870 C   0  0  0  0  0  0  0  0  0  0  0  0
   60.1919   26.3142   48.5854 H   0  0  0  0  0  0  0  0  0  0  0  0
   60.6323   25.4172   47.0926 H   0  0  0  0  0  0  0  0  0  0  0  0
   60.6273   27.2135   47.0926 H   0  0  0  0  0  0  0  0  0  0  0  0
   58.2160   27.3120   46.2870 N   0  0  0  0  0  0  0  0  0  0  0  0
   56.9080   27.3740   45.9090 C   0  0  0  0  0  0  0  0  0  0  0  0
   56.4410   28.5130   45.0310 C   0  0  0  0  0  0  0  0  0  0  0  0
   56.1446   28.1103   44.0512 H   0  0  0  0  0  0  0  0  0  0  0  0
   55.5908   29.0040   45.5271 H   0  0  0  0  0  0  0  0  0  0  0  0
   57.4950   29.5090   44.8360 N   0  0  0  0  0  0  0  0  0  0  0  0
   58.4920   29.1960   44.8380 H   0  0  0  0  0  0  0  0  0  0  0  0
   57.2090   30.9000   44.6450 C   0  0  0  0  0  0  0  0  0  0  0  0
   56.0140   31.3000   44.5770 O   0  0  0  0  0  0  0  0  0  0  0  0
   58.2890   31.8290   44.5160 N   0  0  0  0  0  0  0  0  0  0  0  0
   58.7810   32.6330   45.5980 C   0  0  0  0  0  0  0  0  0  0  0  0
   58.3330   33.9650   45.7830 C   0  0  0  0  0  0  0  0  0  0  0  0
   57.2930   34.5850   44.8870 C   0  0  0  0  0  0  0  0  0  0  0  0
   56.5099   35.0518   45.5025 H   0  0  0  0  0  0  0  0  0  0  0  0
   57.7647   35.3494   44.2521 H   0  0  0  0  0  0  0  0  0  0  0  0
   56.8449   33.8065   44.2521 H   0  0  0  0  0  0  0  0  0  0  0  0
   58.8710   34.7340   46.8280 C   0  0  0  0  0  0  0  0  0  0  0  0
   58.5555   35.7801   46.9545 H   0  0  0  0  0  0  0  0  0  0  0  0
   59.8020   34.1810   47.7060 C   0  0  0  0  0  0  0  0  0  0  0  0
   60.2197   34.7934   48.5187 H   0  0  0  0  0  0  0  0  0  0  0  0
   60.2060   32.8540   47.5580 C   0  0  0  0  0  0  0  0  0  0  0  0
   60.9314   32.4213   48.2626 H   0  0  0  0  0  0  0  0  0  0  0  0
   59.6920   32.0680   46.5150 C   0  0  0  0  0  0  0  0  0  0  0  0
   60.1580   30.6470   46.3510 C   0  0  0  0  0  0  0  0  0  0  0  0
   60.3068   30.1932   47.3419 H   0  0  0  0  0  0  0  0  0  0  0  0
   59.4005   30.0745   45.7956 H   0  0  0  0  0  0  0  0  0  0  0  0
   61.1074   30.6342   45.7956 H   0  0  0  0  0  0  0  0  0  0  0  0
  1  2  1  0
  2  3  2  0
  3  4  1  0
  4  5  1  0
  5  6  1  0
  5  7  2  0
  7  8  1  0
  8  9  1  0
  8 10  1  0
  8 11  1  0
  7 12  1  0
 12 13  2  0
 13 14  1  0
 14 15  1  0
 14 16  1  0
 14 17  1  0
 17 18  1  0
 17 19  1  0
 19 20  2  0
 19 21  1  0
 21 22  1  0
 22 23  2  0
 23 24  1  0
 24 25  1  0
 24 26  1  0
 24 27  1  0
 23 28  1  0
 28 29  1  0
 28 30  2  0
 30 31  1  0
 30 32  1  0
 32 33  1  0
 32 34  2  0
 34 35  1  0
 35 36  1  0
 35 37  1  0
 35 38  1  0
 13  3  1  0
 34 22  1  0
M  CHG  2   4  -1  21  -1
M  END
>  <UniqueID>  (79) 
70

>  <SMILES>  (79) 
[H]/N=c1/[n-]cc(C)nc1CNC(=O)[N-]c1c(C)cccc1C

>  <Energy>  (79) 
44.070120569165766

>  <Genealogy>  (79) 
Cc1c[n-]c(=N)c(CNC(=O)[N-]c2c(C)cccc2C)n1 (protonated)
[H]/N=c1/[n-]cc(C)nc1CNC(=O)[N-]c1c(C)cccc1C (cis-trans isomerization)
[H]/N=c1/[n-]cc(C)nc1CNC(=O)[N-]c1c(C)cccc1C (3D coordinates assigned)
[H]/N=c1/[n-]cc(C)nc1CNC(=O)[N-]c1c(C)cccc1C (optimized conformer: 44.070120569165766 kcal/mol)

>  <smiles>  (79) 
Cc1c[nH]c(=N)c(CNC(=O)Nc2c(C)cccc2C)n1

>  <score_type>  (79) 
oracle

>  <origin>  (79) 
adg

>  <m_score__min__energy>  (79) 
-11.4

>  <m_primary>  (79) 
energy

$$$$
79:0
     RDKit          3D

 35 37  0  0  1  0  0  0  0  0999 V2000
   63.5680   33.4610   48.3110 C   0  0  0  0  0  0  0  0  0  0  0  0
   62.4600   33.6360   49.1070 C   0  0  0  0  0  0  0  0  0  0  0  0
   61.1820   33.8090   48.6120 C   0  0  0  0  0  0  0  0  0  0  0  0
   61.0550   33.7990   47.2350 C   0  0  0  0  0  0  0  0  0  0  0  0
   59.8000   33.9050   46.5220 C   0  0  0  0  0  0  0  0  0  0  0  0
   59.6690   35.0100   45.6890 C   0  0  0  0  0  0  0  0  0  0  0  0
   58.5760   35.1860   44.9120 N   0  0  0  0  0  0  0  0  0  0  0  0
   57.5630   34.2770   44.9240 C   0  0  0  0  0  0  0  0  0  0  0  0
   57.7060   33.2200   45.7340 N   0  0  0  0  0  0  0  0  0  0  0  0
   58.7810   33.0100   46.5250 C   0  0  0  0  0  0  0  0  0  0  0  0
   58.7720   32.0290   47.2890 N   0  0  0  0  0  0  0  0  0  0  0  0
   59.2440   30.7320   47.0600 C   0  0  0  0  0  0  0  0  0  0  0  0
   59.1600   30.2680   45.6300 C   0  0  0  0  0  0  0  0  0  0  0  0
   57.7910   30.0000   45.1680 C   0  0  0  0  0  0  0  0  0  0  0  0
   56.8930   30.7320   44.4370 C   0  0  0  0  0  0  0  0  0  0  0  0
   55.7480   30.0220   44.2600 N   0  0  0  0  0  0  0  0  0  0  0  0
   55.9030   28.8370   44.8730 N   0  0  0  0  0  0  0  0  0  0  0  0
   57.1350   28.7960   45.4340 C   0  0  0  0  0  0  0  0  0  0  0  0
   62.1940   33.6190   46.4140 C   0  0  0  0  0  0  0  0  0  0  0  0
   63.4420   33.4510   46.9430 C   0  0  0  0  0  0  0  0  0  0  0  0
   64.5583   33.3286   48.7713 H   0  0  0  0  0  0  0  0  0  0  0  0
   62.5993   33.6383   50.1981 H   0  0  0  0  0  0  0  0  0  0  0  0
   60.3152   33.9468   49.2750 H   0  0  0  0  0  0  0  0  0  0  0  0
   60.4737   35.7594   45.6610 H   0  0  0  0  0  0  0  0  0  0  0  0
   56.6681   34.4046   44.2973 H   0  0  0  0  0  0  0  0  0  0  0  0
   56.8990   32.5280   45.7210 H   0  0  0  0  0  0  0  0  0  0  0  0
   60.2986   30.6928   47.3702 H   0  0  0  0  0  0  0  0  0  0  0  0
   58.5933   30.0610   47.6399 H   0  0  0  0  0  0  0  0  0  0  0  0
   59.5956   31.0473   44.9874 H   0  0  0  0  0  0  0  0  0  0  0  0
   59.7077   29.3158   45.5717 H   0  0  0  0  0  0  0  0  0  0  0  0
   57.0725   31.7459   44.0500 H   0  0  0  0  0  0  0  0  0  0  0  0
   55.1600   28.1000   44.8860 H   0  0  0  0  0  0  0  0  0  0  0  0
   57.5507   27.9529   46.0053 H   0  0  0  0  0  0  0  0  0  0  0  0
   62.0707   33.6143   45.3209 H   0  0  0  0  0  0  0  0  0  0  0  0
   64.3190   33.3120   46.2938 H   0  0  0  0  0  0  0  0  0  0  0  0
  1  2  2  0
  2  3  1  0
  3  4  2  0
  4  5  1  0
  5  6  2  0
  6  7  1  0
  7  8  2  0
  8  9  1  0
  9 10  1  0
 10 11  2  0
 11 12  1  0
 12 13  1  0
 13 14  1  0
 14 15  1  0
 15 16  2  0
 16 17  1  0
 17 18  1  0
  4 19  1  0
 19 20  2  0
 20  1  1  0
 10  5  1  0
 18 14  2  0
  1 21  1  0
  2 22  1  0
  3 23  1  0
  6 24  1  0
  8 25  1  0
  9 26  1  0
 12 27  1  0
 12 28  1  0
 13 29  1  0
 13 30  1  0
 15 31  1  0
 17 32  1  0
 18 33  1  0
 19 34  1  0
 20 35  1  0
M  END
>  <smiles>  (80) 
c1ccc(-c2cnc[nH]c2=NCCc2cn[nH]c2)cc1

>  <score_type>  (80) 
oracle

>  <origin>  (80) 
adg

>  <m_score__min__energy>  (80) 
-7.3799999999999999

>  <m_primary>  (80) 
energy

$$$$
80:0
     RDKit          3D

 34 35  0  0  0  0  0  0  0  0999 V2000
   60.3570   29.0400   47.3500 C   0  0  0  0  0  0  0  0  0  0  0  0
   59.6240   28.1210   46.4180 C   0  0  0  0  0  0  0  0  0  0  0  0
   59.6230   26.7410   46.6450 C   0  0  0  0  0  0  0  0  0  0  0  0
   58.9090   25.8890   45.8020 C   0  0  0  0  0  0  0  0  0  0  0  0
   58.1780   26.3980   44.7150 C   0  0  0  0  0  0  0  0  0  0  0  0
   57.3990   25.4360   43.8560 C   0  0  0  0  0  0  0  0  0  0  0  0
   58.1650   27.8000   44.4800 C   0  0  0  0  0  0  0  0  0  0  0  0
   57.4500   28.3920   43.3650 N   0  0  0  0  0  0  0  0  0  0  0  0
   56.4920   29.4190   43.8130 C   0  0  0  0  0  0  0  0  0  0  0  0
   57.1260   30.7870   43.8870 C   0  0  0  0  0  0  0  0  0  0  0  0
   57.4940   31.4610   42.7100 C   0  0  0  0  0  0  0  0  0  0  0  0
   58.1190   32.7090   42.7800 C   0  0  0  0  0  0  0  0  0  0  0  0
   58.3850   33.2910   44.0230 C   0  0  0  0  0  0  0  0  0  0  0  0
   58.0280   32.6240   45.1970 C   0  0  0  0  0  0  0  0  0  0  0  0
   57.4010   31.3760   45.1320 C   0  0  0  0  0  0  0  0  0  0  0  0
   58.8820   28.6440   45.3520 C   0  0  0  0  0  0  0  0  0  0  0  0
   60.1344   28.7609   48.3905 H   0  0  0  0  0  0  0  0  0  0  0  0
   61.4392   28.9564   47.1715 H   0  0  0  0  0  0  0  0  0  0  0  0
   60.0349   30.0765   47.1715 H   0  0  0  0  0  0  0  0  0  0  0  0
   60.1879   26.3253   47.4924 H   0  0  0  0  0  0  0  0  0  0  0  0
   58.9183   24.8053   45.9905 H   0  0  0  0  0  0  0  0  0  0  0  0
   56.8373   24.7424   44.4990 H   0  0  0  0  0  0  0  0  0  0  0  0
   56.6975   25.9969   43.2209 H   0  0  0  0  0  0  0  0  0  0  0  0
   58.0935   24.8664   43.2209 H   0  0  0  0  0  0  0  0  0  0  0  0
   58.0930   28.7980   42.6490 H   0  0  0  0  0  0  0  0  0  0  0  0
   56.9140   27.6350   42.8810 H   0  0  0  0  0  0  0  0  0  0  0  0
   55.6516   29.4545   43.1042 H   0  0  0  0  0  0  0  0  0  0  0  0
   56.1488   29.1476   44.8222 H   0  0  0  0  0  0  0  0  0  0  0  0
   57.2894   31.0047   41.7303 H   0  0  0  0  0  0  0  0  0  0  0  0
   58.4020   33.2341   41.8558 H   0  0  0  0  0  0  0  0  0  0  0  0
   58.8754   34.2742   44.0764 H   0  0  0  0  0  0  0  0  0  0  0  0
   58.2405   33.0814   46.1746 H   0  0  0  0  0  0  0  0  0  0  0  0
   57.1222   30.8537   46.0591 H   0  0  0  0  0  0  0  0  0  0  0  0
   58.8582   29.7321   45.1923 H   0  0  0  0  0  0  0  0  0  0  0  0
  1  2  1  0
  2  3  2  0
  3  4  1  0
  4  5  2  0
  5  6  1  0
  5  7  1  0
  7  8  1  0
  8  9  1  0
  9 10  1  0
 10 11  2  0
 11 12  1  0
 12 13  2  0
 13 14  1  0
 14 15  2  0
  7 16  2  0
 16  2  1  0
 15 10  1  0
  1 17  1  0
  1 18  1  0
  1 19  1  0
  3 20  1  0
  4 21  1  0
  6 22  1  0
  6 23  1  0
  6 24  1  0
  8 25  1  0
  8 26  1  0
  9 27  1  0
  9 28  1  0
 11 29  1  0
 12 30  1  0
 13 31  1  0
 14 32  1  0
 15 33  1  0
 16 34  1  0
M  CHG  1   8   1
M  END
>  <UniqueID>  (81) 
71

>  <SMILES>  (81) 
Cc1ccc(C)c([NH2+]Cc2ccccc2)c1

>  <Energy>  (81) 
34.68439660510148

>  <Genealogy>  (81) 
Cc1ccc(C)c([NH2+]Cc2ccccc2)c1 (protonated)
Cc1ccc(C)c([NH2+]Cc2ccccc2)c1 (3D coordinates assigned)
Cc1ccc(C)c([NH2+]Cc2ccccc2)c1 (optimized conformer: 34.68439660510148 kcal/mol)

>  <smiles>  (81) 
Cc1ccc(C)c(NCc2ccccc2)c1

>  <score_type>  (81) 
oracle

>  <origin>  (81) 
adg

>  <m_score__min__energy>  (81) 
-4.9199999999999999

>  <m_primary>  (81) 
energy

$$$$
81:0
     RDKit          3D

 50 52  0  0  0  0  0  0  0  0999 V2000
   55.9230   25.6270   45.9180 C   0  0  0  0  0  0  0  0  0  0  0  0
   56.3520   26.9720   46.1060 O   0  0  0  0  0  0  0  0  0  0  0  0
   57.6960   27.3800   46.1600 C   0  0  0  0  0  0  0  0  0  0  0  0
   58.4920   27.1790   47.3060 C   0  0  0  0  0  0  0  0  0  0  0  0
   59.8350   27.5730   47.3110 C   0  0  0  0  0  0  0  0  0  0  0  0
   60.3960   28.1640   46.1770 C   0  0  0  0  0  0  0  0  0  0  0  0
   59.6160   28.3700   45.0360 C   0  0  0  0  0  0  0  0  0  0  0  0
   58.2660   27.9920   45.0250 C   0  0  0  0  0  0  0  0  0  0  0  0
   57.4940   28.1790   43.8310 N   0  0  0  0  0  0  0  0  0  0  0  0
   57.8220   27.4270   42.6240 C   0  0  0  0  0  0  0  0  0  0  0  0
   56.5070   29.6020   43.7120 S   0  0  0  0  0  0  0  0  0  0  0  0
   56.3100   29.9770   42.2700 O   0  0  0  0  0  0  0  0  0  0  0  0
   55.1630   29.3390   44.3270 O   0  0  0  0  0  0  0  0  0  0  0  0
   57.3280   30.9140   44.5490 C   0  0  0  0  0  0  0  0  0  0  0  0
   57.6770   32.0730   43.8480 C   0  0  0  0  0  0  0  0  0  0  0  0
   58.4570   33.0590   44.4580 C   0  0  0  0  0  0  0  0  0  0  0  0
   58.8980   32.9000   45.7860 C   0  0  0  0  0  0  0  0  0  0  0  0
   59.7950   33.8990   46.4170 C   0  0  0  0  0  0  0  0  0  0  0  0
   59.5950   35.1290   46.2200 O   0  0  0  0  0  0  0  0  0  0  0  0
   60.8750   33.4890   47.2700 N   0  0  0  0  0  0  0  0  0  0  0  0
   61.3940   34.3560   48.3270 C   0  0  0  0  0  0  0  0  0  0  0  0
   62.5520   33.6890   49.0140 C   0  0  0  0  0  0  0  0  0  0  0  0
   63.1080   34.2440   50.1770 C   0  0  0  0  0  0  0  0  0  0  0  0
   64.2170   33.6310   50.7680 C   0  0  0  0  0  0  0  0  0  0  0  0
   64.7590   32.4780   50.1980 C   0  0  0  0  0  0  0  0  0  0  0  0
   64.1830   31.9560   49.0360 C   0  0  0  0  0  0  0  0  0  0  0  0
   63.1060   32.5690   48.4720 N   0  0  0  0  0  0  0  0  0  0  0  0
   58.5350   31.7330   46.4870 C   0  0  0  0  0  0  0  0  0  0  0  0
   57.7590   30.7480   45.8710 C   0  0  0  0  0  0  0  0  0  0  0  0
   55.7710   25.1503   46.8976 H   0  0  0  0  0  0  0  0  0  0  0  0
   54.9777   25.6189   45.3556 H   0  0  0  0  0  0  0  0  0  0  0  0
   56.6890   25.0730   45.3556 H   0  0  0  0  0  0  0  0  0  0  0  0
   58.0556   26.7104   48.2004 H   0  0  0  0  0  0  0  0  0  0  0  0
   60.4497   27.4168   48.2098 H   0  0  0  0  0  0  0  0  0  0  0  0
   61.4532   28.4678   46.1819 H   0  0  0  0  0  0  0  0  0  0  0  0
   60.0631   28.8307   44.1427 H   0  0  0  0  0  0  0  0  0  0  0  0
   58.2473   26.4519   42.9038 H   0  0  0  0  0  0  0  0  0  0  0  0
   56.9097   27.2721   42.0293 H   0  0  0  0  0  0  0  0  0  0  0  0
   58.5562   27.9902   42.0293 H   0  0  0  0  0  0  0  0  0  0  0  0
   57.3357   32.2090   42.8112 H   0  0  0  0  0  0  0  0  0  0  0  0
   58.7284   33.9655   43.8971 H   0  0  0  0  0  0  0  0  0  0  0  0
   61.2920   32.5370   47.1590 H   0  0  0  0  0  0  0  0  0  0  0  0
   61.7296   35.3066   47.8869 H   0  0  0  0  0  0  0  0  0  0  0  0
   60.5982   34.5466   49.0621 H   0  0  0  0  0  0  0  0  0  0  0  0
   62.6751   35.1532   50.6196 H   0  0  0  0  0  0  0  0  0  0  0  0
   64.6612   34.0564   51.6800 H   0  0  0  0  0  0  0  0  0  0  0  0
   65.6289   31.9859   50.6575 H   0  0  0  0  0  0  0  0  0  0  0  0
   64.6008   31.0481   48.5764 H   0  0  0  0  0  0  0  0  0  0  0  0
   58.8651   31.5964   47.5274 H   0  0  0  0  0  0  0  0  0  0  0  0
   57.4856   29.8388   46.4265 H   0  0  0  0  0  0  0  0  0  0  0  0
  1  2  1  0
  2  3  1  0
  3  4  2  0
  4  5  1  0
  5  6  2  0
  6  7  1  0
  7  8  2  0
  8  9  1  0
  9 10  1  0
  9 11  1  0
 11 12  2  0
 11 13  2  0
 11 14  1  0
 14 15  2  0
 15 16  1  0
 16 17  2  0
 17 18  1  0
 18 19  2  0
 18 20  1  0
 20 21  1  0
 21 22  1  0
 22 23  2  0
 23 24  1  0
 24 25  2  0
 25 26  1  0
 26 27  2  0
 17 28  1  0
 28 29  2  0
  8  3  1  0
 29 14  1  0
 27 22  1  0
  1 30  1  0
  1 31  1  0
  1 32  1  0
  4 33  1  0
  5 34  1  0
  6 35  1  0
  7 36  1  0
 10 37  1  0
 10 38  1  0
 10 39  1  0
 15 40  1  0
 16 41  1  0
 20 42  1  0
 21 43  1  0
 21 44  1  0
 23 45  1  0
 24 46  1  0
 25 47  1  0
 26 48  1  0
 28 49  1  0
 29 50  1  0
M  END
>  <UniqueID>  (82) 
72

>  <SMILES>  (82) 
COc1ccccc1N(C)S(=O)(=O)c1ccc(C(=O)NCc2ccccn2)cc1

>  <Energy>  (82) 
55.98163634979701

>  <Genealogy>  (82) 
COc1ccccc1N(C)S(=O)(=O)c1ccc(C(=O)NCc2ccccn2)cc1 (3D coordinates assigned)
COc1ccccc1N(C)S(=O)(=O)c1ccc(C(=O)NCc2ccccn2)cc1 (optimized conformer: 55.98163634979701 kcal/mol)

>  <smiles>  (82) 
COc1ccccc1N(C)S(=O)(=O)c1ccc(C(=O)NCc2ccccn2)cc1

>  <score_type>  (82) 
oracle

>  <origin>  (82) 
adg

>  <m_score__min__energy>  (82) 
-8.9800000000000004

>  <m_primary>  (82) 
energy

$$$$
82:0
     RDKit          3D

 51 53  0  0  0  0  0  0  0  0999 V2000
   56.6120   30.3200   52.6790 C   0  0  0  0  0  0  0  0  0  0  0  0
   57.5160   29.6990   51.7690 O   0  0  0  0  0  0  0  0  0  0  0  0
   58.1550   30.3610   50.7120 C   0  0  0  0  0  0  0  0  0  0  0  0
   58.8340   29.5940   49.7600 C   0  0  0  0  0  0  0  0  0  0  0  0
   59.4890   30.2060   48.6880 C   0  0  0  0  0  0  0  0  0  0  0  0
   59.4800   31.6040   48.5560 C   0  0  0  0  0  0  0  0  0  0  0  0
   60.1790   32.2660   47.3930 C   0  0  0  0  0  0  0  0  0  0  0  0
   59.2080   32.5800   46.2660 C   0  0  0  0  0  0  0  0  0  0  0  0
   58.7690   33.9010   46.0150 C   0  0  0  0  0  0  0  0  0  0  0  0
   59.2310   35.0740   46.8420 C   0  0  0  0  0  0  0  0  0  0  0  0
   57.8580   34.1190   44.9790 C   0  0  0  0  0  0  0  0  0  0  0  0
   57.4140   33.0790   44.2340 N   0  0  0  0  0  0  0  0  0  0  0  0
   57.8060   31.8240   44.4580 N   0  0  0  0  0  0  0  0  0  0  0  0
   57.2860   30.7730   43.5780 C   0  0  0  0  0  0  0  0  0  0  0  0
   56.2730   29.9490   44.3070 C   0  0  0  0  0  0  0  0  0  0  0  0
   55.1390   29.7580   43.7910 O   0  0  0  0  0  0  0  0  0  0  0  0
   56.6420   29.2990   45.5300 N   0  0  0  0  0  0  0  0  0  0  0  0
   57.0010   27.9190   45.6900 C   0  0  0  0  0  0  0  0  0  0  0  0
   58.3520   27.5630   45.5990 C   0  0  0  0  0  0  0  0  0  0  0  0
   58.7470   26.2340   45.7640 C   0  0  0  0  0  0  0  0  0  0  0  0
   57.7940   25.2500   46.0370 C   0  0  0  0  0  0  0  0  0  0  0  0
   56.4410   25.5860   46.1580 C   0  0  0  0  0  0  0  0  0  0  0  0
   55.5260   24.5640   46.4500 O   0  0  0  0  0  0  0  0  0  0  0  0
   54.5280   24.0940   45.5500 C   0  0  0  0  0  0  0  0  0  0  0  0
   56.0460   26.9290   45.9920 C   0  0  0  0  0  0  0  0  0  0  0  0
   58.7030   31.5410   45.4560 C   0  0  0  0  0  0  0  0  0  0  0  0
   59.0760   30.3500   45.6490 O   0  0  0  0  0  0  0  0  0  0  0  0
   58.7880   32.3760   49.5020 C   0  0  0  0  0  0  0  0  0  0  0  0
   58.1330   31.7620   50.5750 C   0  0  0  0  0  0  0  0  0  0  0  0
   56.9253   30.1048   53.7113 H   0  0  0  0  0  0  0  0  0  0  0  0
   56.6150   31.4076   52.5141 H   0  0  0  0  0  0  0  0  0  0  0  0
   55.5979   29.9270   52.5141 H   0  0  0  0  0  0  0  0  0  0  0  0
   58.8527   28.4984   49.8559 H   0  0  0  0  0  0  0  0  0  0  0  0
   60.0143   29.5895   47.9437 H   0  0  0  0  0  0  0  0  0  0  0  0
   60.6401   33.2028   47.7391 H   0  0  0  0  0  0  0  0  0  0  0  0
   60.9420   31.5731   47.0087 H   0  0  0  0  0  0  0  0  0  0  0  0
   59.1349   34.8300   47.9103 H   0  0  0  0  0  0  0  0  0  0  0  0
   60.2832   35.2948   46.6095 H   0  0  0  0  0  0  0  0  0  0  0  0
   58.6119   35.9530   46.6095 H   0  0  0  0  0  0  0  0  0  0  0  0
   57.5004   35.1376   44.7678 H   0  0  0  0  0  0  0  0  0  0  0  0
   56.8145   31.2351   42.6982 H   0  0  0  0  0  0  0  0  0  0  0  0
   58.1163   30.1254   43.2599 H   0  0  0  0  0  0  0  0  0  0  0  0
   59.1078   28.3360   45.3960 H   0  0  0  0  0  0  0  0  0  0  0  0
   59.8094   25.9617   45.6789 H   0  0  0  0  0  0  0  0  0  0  0  0
   58.1094   24.2031   46.1578 H   0  0  0  0  0  0  0  0  0  0  0  0
   53.6778   23.6936   46.1218 H   0  0  0  0  0  0  0  0  0  0  0  0
   54.1849   24.9252   44.9164 H   0  0  0  0  0  0  0  0  0  0  0  0
   54.9502   23.3001   44.9164 H   0  0  0  0  0  0  0  0  0  0  0  0
   54.9866   27.2051   46.0989 H   0  0  0  0  0  0  0  0  0  0  0  0
   58.7604   33.4708   49.3991 H   0  0  0  0  0  0  0  0  0  0  0  0
   57.5987   32.3764   51.3146 H   0  0  0  0  0  0  0  0  0  0  0  0
  1  2  1  0
  2  3  1  0
  3  4  2  0
  4  5  1  0
  5  6  2  0
  6  7  1  0
  7  8  1  0
  8  9  2  0
  9 10  1  0
  9 11  1  0
 11 12  2  0
 12 13  1  0
 13 14  1  0
 14 15  1  0
 15 16  2  0
 15 17  1  0
 17 18  1  0
 18 19  2  0
 19 20  1  0
 20 21  2  0
 21 22  1  0
 22 23  1  0
 23 24  1  0
 22 25  2  0
 13 26  1  0
 26 27  2  0
  6 28  1  0
 28 29  2  0
 29  3  1  0
 26  8  1  0
 25 18  1  0
  1 30  1  0
  1 31  1  0
  1 32  1  0
  4 33  1  0
  5 34  1  0
  7 35  1  0
  7 36  1  0
 10 37  1  0
 10 38  1  0
 10 39  1  0
 11 40  1  0
 14 41  1  0
 14 42  1  0
 19 43  1  0
 20 44  1  0
 21 45  1  0
 24 46  1  0
 24 47  1  0
 24 48  1  0
 25 49  1  0
 28 50  1  0
 29 51  1  0
M  CHG  1  17  -1
M  END
>  <UniqueID>  (83) 
73

>  <SMILES>  (83) 
COc1ccc(Cc2c(C)cnn(CC(=O)[N-]c3cccc(OC)c3)c2=O)cc1

>  <Energy>  (83) 
57.10564085770466

>  <Genealogy>  (83) 
COc1ccc(Cc2c(C)cnn(CC(=O)[N-]c3cccc(OC)c3)c2=O)cc1 (protonated)
COc1ccc(Cc2c(C)cnn(CC(=O)[N-]c3cccc(OC)c3)c2=O)cc1 (3D coordinates assigned)
COc1ccc(Cc2c(C)cnn(CC(=O)[N-]c3cccc(OC)c3)c2=O)cc1 (optimized conformer: 57.10564085770466 kcal/mol)

>  <smiles>  (83) 
COc1ccc(Cc2c(C)cnn(CC(=O)Nc3cccc(OC)c3)c2=O)cc1

>  <score_type>  (83) 
oracle

>  <origin>  (83) 
adg

>  <m_score__min__energy>  (83) 
-10.25

>  <m_primary>  (83) 
energy

$$$$
83:0
     RDKit          3D

 41 44  0  0  0  0  0  0  0  0999 V2000
   59.2670   33.5000   50.8580 C   0  0  0  0  0  0  0  0  0  0  0  0
   59.1720   32.4820   49.7240 C   0  0  0  0  0  0  0  0  0  0  0  0
   59.8420   32.9890   48.5170 N   0  0  0  0  0  0  0  0  0  0  0  0
   59.1900   33.3750   47.3880 C   0  0  0  0  0  0  0  0  0  0  0  0
   57.8070   33.4040   47.1550 C   0  0  0  0  0  0  0  0  0  0  0  0
   57.3520   33.8380   45.8970 C   0  0  0  0  0  0  0  0  0  0  0  0
   58.2680   34.2320   44.9000 C   0  0  0  0  0  0  0  0  0  0  0  0
   59.6490   34.2000   45.1510 C   0  0  0  0  0  0  0  0  0  0  0  0
   60.0710   33.7670   46.4090 C   0  0  0  0  0  0  0  0  0  0  0  0
   61.3270   33.6340   46.9450 C   0  0  0  0  0  0  0  0  0  0  0  0
   62.5630   33.8730   46.3630 C   0  0  0  0  0  0  0  0  0  0  0  0
   63.7050   33.6250   47.1230 C   0  0  0  0  0  0  0  0  0  0  0  0
   63.6060   33.1620   48.4540 C   0  0  0  0  0  0  0  0  0  0  0  0
   62.3290   32.9720   49.0640 C   0  0  0  0  0  0  0  0  0  0  0  0
   61.1770   33.1740   48.2470 C   0  0  0  0  0  0  0  0  0  0  0  0
   62.2560   32.5060   50.5090 C   0  0  0  0  0  0  0  0  0  0  0  0
   63.5060   32.7230   51.2710 N   0  0  2  0  0  0  0  0  0  0  0  0
   63.6640   34.1330   51.6790 C   0  0  0  0  0  0  0  0  0  0  0  0
   64.6760   32.2130   50.5340 C   0  0  0  0  0  0  0  0  0  0  0  0
   64.8900   32.9530   49.2120 C   0  0  0  0  0  0  0  0  0  0  0  0
   59.2182   32.9775   51.8248 H   0  0  0  0  0  0  0  0  0  0  0  0
   60.2199   34.0445   50.7831 H   0  0  0  0  0  0  0  0  0  0  0  0
   58.4313   34.2114   50.7831 H   0  0  0  0  0  0  0  0  0  0  0  0
   59.6538   31.5444   50.0383 H   0  0  0  0  0  0  0  0  0  0  0  0
   58.1110   32.3054   49.4934 H   0  0  0  0  0  0  0  0  0  0  0  0
   57.0967   33.0952   47.9361 H   0  0  0  0  0  0  0  0  0  0  0  0
   56.2723   33.8704   45.6890 H   0  0  0  0  0  0  0  0  0  0  0  0
   57.8983   34.5665   43.9195 H   0  0  0  0  0  0  0  0  0  0  0  0
   60.3739   34.5058   44.3822 H   0  0  0  0  0  0  0  0  0  0  0  0
   62.6399   34.2474   45.3315 H   0  0  0  0  0  0  0  0  0  0  0  0
   64.6978   33.7923   46.6798 H   0  0  0  0  0  0  0  0  0  0  0  0
   61.4449   33.0550   51.0098 H   0  0  0  0  0  0  0  0  0  0  0  0
   62.0790   31.4206   50.4868 H   0  0  0  0  0  0  0  0  0  0  0  0
   63.4330   32.1620   52.1530 H   0  0  0  0  0  0  0  0  0  0  0  0
   63.6713   34.1984   52.7770 H   0  0  0  0  0  0  0  0  0  0  0  0
   64.6118   34.5256   51.2820 H   0  0  0  0  0  0  0  0  0  0  0  0
   62.8266   34.7256   51.2820 H   0  0  0  0  0  0  0  0  0  0  0  0
   65.5719   32.3384   51.1599 H   0  0  0  0  0  0  0  0  0  0  0  0
   64.4957   31.1526   50.3036 H   0  0  0  0  0  0  0  0  0  0  0  0
   65.3373   33.9349   49.4258 H   0  0  0  0  0  0  0  0  0  0  0  0
   65.5508   32.3352   48.5862 H   0  0  0  0  0  0  0  0  0  0  0  0
  1  2  1  0
  2  3  1  0
  3  4  1  0
  4  5  2  0
  5  6  1  0
  6  7  2  0
  7  8  1  0
  8  9  2  0
  9 10  1  0
 10 11  2  0
 11 12  1  0
 12 13  2  0
 13 14  1  0
 14 15  2  0
 14 16  1  0
 16 17  1  0
 17 18  1  0
 17 19  1  0
 19 20  1  0
 15  3  1  0
  9  4  1  0
 15 10  1  0
 20 13  1  0
  1 21  1  0
  1 22  1  0
  1 23  1  0
  2 24  1  0
  2 25  1  0
  5 26  1  0
  6 27  1  0
  7 28  1  0
  8 29  1  0
 11 30  1  0
 12 31  1  0
 16 32  1  0
 16 33  1  0
 17 34  1  1
 18 35  1  0
 18 36  1  0
 18 37  1  0
 19 38  1  0
 19 39  1  0
 20 40  1  0
 20 41  1  0
M  CHG  1  17   1
M  END
>  <UniqueID>  (84) 
74

>  <SMILES>  (84) 
CCn1c2ccccc2c2ccc3c(c21)C[N@H+](C)CC3

>  <Energy>  (84) 
94.80634985796677

>  <Genealogy>  (84) 
CCn1c2ccccc2c2ccc3c(c21)C[NH+](C)CC3 (protonated)
CCn1c2ccccc2c2ccc3c(c21)C[N@H+](C)CC3 (chirality)
CCn1c2ccccc2c2ccc3c(c21)C[N@H+](C)CC3 (3D coordinates assigned)
CCn1c2ccccc2c2ccc3c(c21)C[N@H+](C)CC3 (nonaromatic ring conformer: 94.80634985796677 kcal/mol)

>  <smiles>  (84) 
CCn1c2ccccc2c2ccc3c(c21)CN(C)CC3

>  <score_type>  (84) 
oracle

>  <origin>  (84) 
adg

>  <m_score__min__energy>  (84) 
-6.0999999999999996

>  <m_primary>  (84) 
energy

$$$$
84:0
     RDKit          3D

 36 37  0  0  0  0  0  0  0  0999 V2000
   58.5510   33.9550   44.1190 N   0  0  0  0  0  0  0  0  0  0  0  0
   58.1600   32.8970   44.3730 C   0  0  0  0  0  0  0  0  0  0  0  0
   57.6710   31.5750   44.6910 C   0  0  0  0  0  0  0  0  0  0  0  0
   56.7570   30.9750   43.8160 C   0  0  0  0  0  0  0  0  0  0  0  0
   56.2580   29.6990   44.0790 C   0  0  0  0  0  0  0  0  0  0  0  0
   56.6530   29.0070   45.2330 C   0  0  0  0  0  0  0  0  0  0  0  0
   56.1700   27.6820   45.5140 N   0  0  0  0  0  0  0  0  0  0  0  0
   57.0200   26.5660   45.8240 C   0  0  0  0  0  0  0  0  0  0  0  0
   58.2630   26.6360   45.6190 O   0  0  0  0  0  0  0  0  0  0  0  0
   56.4500   25.3140   46.3430 C   0  0  0  0  0  0  0  0  0  0  0  0
   57.2060   24.4210   46.8130 O   0  0  0  0  0  0  0  0  0  0  0  0
   55.0320   25.1110   46.3070 N   0  0  0  0  0  0  0  0  0  0  0  0
   54.3430   24.4180   45.2260 C   0  0  0  0  0  0  0  0  0  0  0  0
   55.2290   23.3540   44.6380 C   0  0  0  0  0  0  0  0  0  0  0  0
   55.8060   23.5240   43.3680 C   0  0  0  0  0  0  0  0  0  0  0  0
   56.6470   22.5390   42.8400 C   0  0  0  0  0  0  0  0  0  0  0  0
   56.9190   21.3810   43.5740 C   0  0  0  0  0  0  0  0  0  0  0  0
   56.3520   21.2070   44.8410 C   0  0  0  0  0  0  0  0  0  0  0  0
   55.5110   22.1900   45.3730 C   0  0  0  0  0  0  0  0  0  0  0  0
   57.5870   29.5950   46.0990 C   0  0  0  0  0  0  0  0  0  0  0  0
   58.1010   30.8830   45.8490 C   0  0  0  0  0  0  0  0  0  0  0  0
   59.0980   31.5100   46.8030 C   0  0  0  0  0  0  0  0  0  0  0  0
   58.5940   32.7070   47.2810 F   0  0  0  0  0  0  0  0  0  0  0  0
   59.3640   30.6890   47.8860 F   0  0  0  0  0  0  0  0  0  0  0  0
   60.2870   31.7520   46.1390 F   0  0  0  0  0  0  0  0  0  0  0  0
   56.4300   31.5139   42.9145 H   0  0  0  0  0  0  0  0  0  0  0  0
   55.5507   29.2331   43.3772 H   0  0  0  0  0  0  0  0  0  0  0  0
   55.1460   27.5030   45.3950 H   0  0  0  0  0  0  0  0  0  0  0  0
   53.4280   23.9513   45.6196 H   0  0  0  0  0  0  0  0  0  0  0  0
   54.0882   25.1449   44.4407 H   0  0  0  0  0  0  0  0  0  0  0  0
   55.5956   24.4343   42.7875 H   0  0  0  0  0  0  0  0  0  0  0  0
   57.0953   22.6760   41.8449 H   0  0  0  0  0  0  0  0  0  0  0  0
   57.5787   20.6067   43.1555 H   0  0  0  0  0  0  0  0  0  0  0  0
   56.5677   20.2965   45.4193 H   0  0  0  0  0  0  0  0  0  0  0  0
   55.0687   22.0513   46.3706 H   0  0  0  0  0  0  0  0  0  0  0  0
   57.9237   29.0414   46.9879 H   0  0  0  0  0  0  0  0  0  0  0  0
  1  2  3  0
  2  3  1  0
  3  4  2  0
  4  5  1  0
  5  6  2  0
  6  7  1  0
  7  8  1  0
  8  9  2  0
  8 10  1  0
 10 11  2  0
 10 12  1  0
 12 13  1  0
 13 14  1  0
 14 15  2  0
 15 16  1  0
 16 17  2  0
 17 18  1  0
 18 19  2  0
  6 20  1  0
 20 21  2  0
 21 22  1  0
 22 23  1  0
 22 24  1  0
 22 25  1  0
 21  3  1  0
 19 14  1  0
  4 26  1  0
  5 27  1  0
  7 28  1  0
 13 29  1  0
 13 30  1  0
 15 31  1  0
 16 32  1  0
 17 33  1  0
 18 34  1  0
 19 35  1  0
 20 36  1  0
M  CHG  1  12  -1
M  END
>  <UniqueID>  (85) 
75

>  <SMILES>  (85) 
N#Cc1ccc(NC(=O)C(=O)[N-]Cc2ccccc2)cc1C(F)(F)F

>  <Energy>  (85) 
38.526889671539635

>  <Genealogy>  (85) 
N#Cc1ccc(NC(=O)C(=O)[N-]Cc2ccccc2)cc1C(F)(F)F (protonated)
N#Cc1ccc(NC(=O)C(=O)[N-]Cc2ccccc2)cc1C(F)(F)F (3D coordinates assigned)
N#Cc1ccc(NC(=O)C(=O)[N-]Cc2ccccc2)cc1C(F)(F)F (optimized conformer: 38.526889671539635 kcal/mol)

>  <smiles>  (85) 
N#Cc1ccc(NC(=O)C(=O)NCc2ccccc2)cc1C(F)(F)F

>  <score_type>  (85) 
oracle

>  <origin>  (85) 
adg

>  <m_score__min__energy>  (85) 
-8.9399999999999995

>  <m_primary>  (85) 
energy

$$$$
85:0
     RDKit          3D

 39 42  0  0  0  0  0  0  0  0999 V2000
   55.5009   23.2906   48.4086 H   0  0  0  0  0  0  0  0  0  0  0  0
   55.8780   24.0040   47.6610 C   0  0  0  0  0  0  0  0  0  0  0  0
   55.1310   24.2950   46.5650 N   0  0  0  0  0  0  0  0  0  0  0  0
   55.5560   25.1820   45.6280 C   0  0  0  0  0  0  0  0  0  0  0  0
   54.9324   25.3844   44.7447 H   0  0  0  0  0  0  0  0  0  0  0  0
   56.7820   25.8400   45.7790 C   0  0  0  0  0  0  0  0  0  0  0  0
   57.1790   26.7890   44.7780 N   0  0  0  0  0  0  0  0  0  0  0  0
   57.1020   28.0780   44.9090 C   0  0  0  0  0  0  0  0  0  0  0  0
   55.9480   28.7550   45.1000 N   0  0  0  0  0  0  0  0  0  0  0  0
   56.1300   30.0720   45.1940 N   0  0  0  0  0  0  0  0  0  0  0  0
   57.4240   30.4430   45.0720 C   0  0  0  0  0  0  0  0  0  0  0  0
   57.8750   31.8380   45.1440 C   0  0  0  0  0  0  0  0  0  0  0  0
   57.7780   32.8070   44.1620 C   0  0  0  0  0  0  0  0  0  0  0  0
   57.3455   32.6608   43.1612 H   0  0  0  0  0  0  0  0  0  0  0  0
   58.2990   33.9600   44.6290 N   0  0  0  0  0  0  0  0  0  0  0  0
   58.7300   33.7350   45.8610 N   0  0  0  0  0  0  0  0  0  0  0  0
   59.2990   34.7610   46.7230 C   0  0  0  0  0  0  0  0  0  0  0  0
   59.1445   34.4824   47.7759 H   0  0  0  0  0  0  0  0  0  0  0  0
   60.3767   34.8523   46.5222 H   0  0  0  0  0  0  0  0  0  0  0  0
   58.8058   35.7235   46.5222 H   0  0  0  0  0  0  0  0  0  0  0  0
   58.4790   32.4610   46.2150 C   0  0  0  0  0  0  0  0  0  0  0  0
   58.7139   31.9995   47.1855 H   0  0  0  0  0  0  0  0  0  0  0  0
   58.4290   29.1070   44.8300 S   0  0  0  0  0  0  0  0  0  0  0  0
   57.5960   25.5270   46.8930 C   0  0  0  0  0  0  0  0  0  0  0  0
   58.9180   26.0760   47.0350 N   0  0  0  0  0  0  0  0  0  0  0  0
   59.2190   27.2110   47.8910 C   0  0  0  0  0  0  0  0  0  0  0  0
   58.6803   28.1063   47.5471 H   0  0  0  0  0  0  0  0  0  0  0  0
   58.9096   27.0329   48.9314 H   0  0  0  0  0  0  0  0  0  0  0  0
   60.7220   27.4160   47.7740 C   0  0  0  0  0  0  0  0  0  0  0  0
   60.9594   28.4888   47.7220 H   0  0  0  0  0  0  0  0  0  0  0  0
   61.2553   27.0081   48.6453 H   0  0  0  0  0  0  0  0  0  0  0  0
   61.1380   26.7160   46.4820 C   0  0  2  0  0  0  0  0  0  0  0  0
   62.1217   26.2328   46.5766 H   0  0  0  0  0  0  0  0  0  0  0  0
   61.2140   27.6410   45.4540 F   0  0  0  0  0  0  0  0  0  0  0  0
   60.0380   25.7010   46.1860 C   0  0  0  0  0  0  0  0  0  0  0  0
   59.7482   25.7476   45.1259 H   0  0  0  0  0  0  0  0  0  0  0  0
   60.3712   24.6716   46.3844 H   0  0  0  0  0  0  0  0  0  0  0  0
   57.1230   24.6080   47.8410 C   0  0  0  0  0  0  0  0  0  0  0  0
   57.7318   24.3640   48.7241 H   0  0  0  0  0  0  0  0  0  0  0  0
  1  2  1  0
  2  3  2  0
  3  4  1  0
  4  5  1  0
  4  6  2  0
  6  7  1  0
  7  8  2  0
  8  9  1  0
  9 10  1  0
 10 11  2  0
 11 12  1  0
 12 13  1  0
 13 14  1  0
 13 15  2  0
 15 16  1  0
 16 17  1  0
 17 18  1  0
 17 19  1  0
 17 20  1  0
 16 21  1  0
 21 22  1  0
 11 23  1  0
  6 24  1  0
 24 25  1  0
 25 26  1  0
 26 27  1  0
 26 28  1  0
 26 29  1  0
 29 30  1  0
 29 31  1  0
 29 32  1  0
 32 33  1  1
 32 34  1  0
 32 35  1  0
 35 36  1  0
 35 37  1  0
 24 38  2  0
 38 39  1  0
 38  2  1  0
 23  8  1  0
 35 25  1  0
 21 12  2  0
M  CHG  1   9  -1
M  END
>  <UniqueID>  (86) 
76

>  <SMILES>  (86) 
Cn1cc(-c2n[n-]/c(=N\c3cnccc3N3CC[C@H](F)C3)s2)cn1

>  <Energy>  (86) 
117.57174822249029

>  <Genealogy>  (86) 
Cn1cc(-c2n[n-]c(=Nc3cnccc3N3CCC(F)C3)s2)cn1 (protonated)
Cn1cc(-c2n[n-]c(=Nc3cnccc3N3CC[C@H](F)C3)s2)cn1 (chirality)
Cn1cc(-c2n[n-]/c(=N\c3cnccc3N3CC[C@H](F)C3)s2)cn1 (cis-trans isomerization)
Cn1cc(-c2n[n-]/c(=N\c3cnccc3N3CC[C@H](F)C3)s2)cn1 (3D coordinates assigned)
Cn1cc(-c2n[n-]/c(=N\c3cnccc3N3CC[C@H](F)C3)s2)cn1 (nonaromatic ring conformer: 117.57174822249029 kcal/mol)

>  <smiles>  (86) 
Cn1cc(-c2n[nH]c(=Nc3cnccc3N3CCC(F)C3)s2)cn1

>  <score_type>  (86) 
oracle

>  <origin>  (86) 
adg

>  <m_score__min__energy>  (86) 
-9.2699999999999996

>  <m_primary>  (86) 
energy

$$$$
86:0
     RDKit          3D

 29 30  0  0  0  0  0  0  0  0999 V2000
   54.6840   24.9210   45.6190 C   0  0  0  0  0  0  0  0  0  0  0  0
   55.1180   26.2140   45.9800 O   0  0  0  0  0  0  0  0  0  0  0  0
   56.4780   26.1630   46.3550 C   0  0  0  0  0  0  0  0  0  0  0  0
   57.3430   26.6580   45.1980 C   0  0  0  0  0  0  0  0  0  0  0  0
   57.8220   28.0160   45.4490 N   0  0  0  0  0  0  0  0  0  0  0  0
   57.0030   29.1760   45.2320 C   0  0  0  0  0  0  0  0  0  0  0  0
   55.7820   29.0400   44.9530 O   0  0  0  0  0  0  0  0  0  0  0  0
   57.5540   30.5340   45.3750 C   0  0  0  0  0  0  0  0  0  0  0  0
   57.3540   31.7480   44.2120 S   0  0  0  0  0  0  0  0  0  0  0  0
   58.2360   32.9070   45.0400 C   0  0  0  0  0  0  0  0  0  0  0  0
   58.5060   34.2190   44.6560 C   0  0  0  0  0  0  0  0  0  0  0  0
   59.2900   35.0120   45.5070 C   0  0  0  0  0  0  0  0  0  0  0  0
   59.7870   34.4820   46.7120 C   0  0  0  0  0  0  0  0  0  0  0  0
   59.5050   33.1540   47.0780 C   0  0  0  0  0  0  0  0  0  0  0  0
   58.7160   32.3700   46.2260 C   0  0  0  0  0  0  0  0  0  0  0  0
   58.3420   31.0300   46.4240 C   0  0  0  0  0  0  0  0  0  0  0  0
   58.9220   30.0660   47.7790 Cl  0  0  0  0  0  0  0  0  0  0  0  0
   54.4868   24.3334   46.5277 H   0  0  0  0  0  0  0  0  0  0  0  0
   53.7620   24.9965   45.0239 H   0  0  0  0  0  0  0  0  0  0  0  0
   55.4649   24.4249   45.0239 H   0  0  0  0  0  0  0  0  0  0  0  0
   56.6403   26.8034   47.2345 H   0  0  0  0  0  0  0  0  0  0  0  0
   56.7523   25.1266   46.6011 H   0  0  0  0  0  0  0  0  0  0  0  0
   58.2069   25.9871   45.0815 H   0  0  0  0  0  0  0  0  0  0  0  0
   56.7346   26.6636   44.2816 H   0  0  0  0  0  0  0  0  0  0  0  0
   58.7800   28.1300   45.8470 H   0  0  0  0  0  0  0  0  0  0  0  0
   58.1146   34.6223   43.7104 H   0  0  0  0  0  0  0  0  0  0  0  0
   59.5172   36.0524   45.2312 H   0  0  0  0  0  0  0  0  0  0  0  0
   60.4010   35.1115   47.3729 H   0  0  0  0  0  0  0  0  0  0  0  0
   59.8973   32.7376   48.0175 H   0  0  0  0  0  0  0  0  0  0  0  0
  1  2  1  0
  2  3  1  0
  3  4  1  0
  4  5  1  0
  5  6  1  0
  6  7  2  0
  6  8  1  0
  8  9  1  0
  9 10  1  0
 10 11  2  0
 11 12  1  0
 12 13  2  0
 13 14  1  0
 14 15  2  0
 15 16  1  0
 16 17  1  0
 16  8  2  0
 15 10  1  0
  1 18  1  0
  1 19  1  0
  1 20  1  0
  3 21  1  0
  3 22  1  0
  4 23  1  0
  4 24  1  0
  5 25  1  0
 11 26  1  0
 12 27  1  0
 13 28  1  0
 14 29  1  0
M  END
>  <UniqueID>  (87) 
77

>  <SMILES>  (87) 
COCCNC(=O)c1sc2ccccc2c1Cl

>  <Energy>  (87) 
60.21413157719999

>  <Genealogy>  (87) 
COCCNC(=O)c1sc2ccccc2c1Cl (3D coordinates assigned)
COCCNC(=O)c1sc2ccccc2c1Cl (optimized conformer: 60.21413157719999 kcal/mol)

>  <smiles>  (87) 
COCCNC(=O)c1sc2ccccc2c1Cl

>  <score_type>  (87) 
oracle

>  <origin>  (87) 
adg

>  <m_score__min__energy>  (87) 
-7.0700000000000003

>  <m_primary>  (87) 
energy

$$$$
87:0
     RDKit          3D

 30 32  0  0  0  0  0  0  0  0999 V2000
   55.7620   29.0230   45.2220 O   0  0  0  0  0  0  0  0  0  0  0  0
   56.9930   29.2920   45.1820 C   0  0  0  0  0  0  0  0  0  0  0  0
   57.9870   28.2590   45.5750 C   0  0  0  0  0  0  0  0  0  0  0  0
   59.3520   28.6010   45.6010 C   0  0  0  0  0  0  0  0  0  0  0  0
   60.3160   27.6570   45.9550 C   0  0  0  0  0  0  0  0  0  0  0  0
   59.9350   26.3600   46.2900 C   0  0  0  0  0  0  0  0  0  0  0  0
   58.5850   25.9960   46.2790 C   0  0  0  0  0  0  0  0  0  0  0  0
   58.1580   24.3500   46.7270 Cl  0  0  0  0  0  0  0  0  0  0  0  0
   57.6020   26.9410   45.9250 C   0  0  0  0  0  0  0  0  0  0  0  0
   55.9000   26.4720   45.9950 Cl  0  0  0  0  0  0  0  0  0  0  0  0
   57.4140   30.6090   44.6480 C   0  0  0  0  0  0  0  0  0  0  0  0
   57.2200   30.8540   43.2790 C   0  0  0  0  0  0  0  0  0  0  0  0
   57.6550   32.0440   42.6960 C   0  0  0  0  0  0  0  0  0  0  0  0
   57.3990   32.3390   40.8270 Br  0  0  0  0  0  0  0  0  0  0  0  0
   58.2880   33.0150   43.4730 C   0  0  0  0  0  0  0  0  0  0  0  0
   58.4720   32.8110   44.8470 C   0  0  0  0  0  0  0  0  0  0  0  0
   59.0900   33.8040   45.6250 C   0  0  0  0  0  0  0  0  0  0  0  0
   59.2490   33.6230   46.9990 C   0  0  0  0  0  0  0  0  0  0  0  0
   58.7860   32.4590   47.6100 C   0  0  0  0  0  0  0  0  0  0  0  0
   58.1700   31.4610   46.8510 C   0  0  0  0  0  0  0  0  0  0  0  0
   58.0220   31.6080   45.4550 C   0  0  0  0  0  0  0  0  0  0  0  0
   59.6619   29.6235   45.3394 H   0  0  0  0  0  0  0  0  0  0  0  0
   61.3795   27.9376   45.9696 H   0  0  0  0  0  0  0  0  0  0  0  0
   60.6997   25.6185   46.5645 H   0  0  0  0  0  0  0  0  0  0  0  0
   56.7182   30.0972   42.6581 H   0  0  0  0  0  0  0  0  0  0  0  0
   58.6441   33.9445   43.0048 H   0  0  0  0  0  0  0  0  0  0  0  0
   59.4500   34.7280   45.1489 H   0  0  0  0  0  0  0  0  0  0  0  0
   59.7409   34.4007   47.6016 H   0  0  0  0  0  0  0  0  0  0  0  0
   58.9062   32.3255   48.6952 H   0  0  0  0  0  0  0  0  0  0  0  0
   57.7968   30.5522   47.3458 H   0  0  0  0  0  0  0  0  0  0  0  0
  1  2  2  0
  2  3  1  0
  3  4  2  0
  4  5  1  0
  5  6  2  0
  6  7  1  0
  7  8  1  0
  7  9  2  0
  9 10  1  0
  2 11  1  0
 11 12  2  0
 12 13  1  0
 13 14  1  0
 13 15  2  0
 15 16  1  0
 16 17  2  0
 17 18  1  0
 18 19  2  0
 19 20  1  0
 20 21  2  0
  9  3  1  0
 21 11  1  0
 21 16  1  0
  4 22  1  0
  5 23  1  0
  6 24  1  0
 12 25  1  0
 15 26  1  0
 17 27  1  0
 18 28  1  0
 19 29  1  0
 20 30  1  0
M  END
>  <UniqueID>  (88) 
78

>  <SMILES>  (88) 
O=C(c1cccc(Cl)c1Cl)c1cc(Br)cc2ccccc12

>  <Energy>  (88) 
49.47866597971537

>  <Genealogy>  (88) 
O=C(c1cccc(Cl)c1Cl)c1cc(Br)cc2ccccc12 (3D coordinates assigned)
O=C(c1cccc(Cl)c1Cl)c1cc(Br)cc2ccccc12 (optimized conformer: 49.47866597971537 kcal/mol)

>  <smiles>  (88) 
O=C(c1cccc(Cl)c1Cl)c1cc(Br)cc2ccccc12

>  <score_type>  (88) 
oracle

>  <origin>  (88) 
adg

>  <m_score__min__energy>  (88) 
-8.75

>  <m_primary>  (88) 
energy

$$$$
88:0
     RDKit          3D

 22 23  0  0  0  0  0  0  0  0999 V2000
   56.8271   23.8983   46.7491 H   0  0  0  0  0  0  0  0  0  0  0  0
   56.7980   24.9530   46.4380 C   0  0  0  0  0  0  0  0  0  0  0  0
   58.0930   26.0310   46.4690 S   0  0  0  0  0  0  0  0  0  0  0  0
   57.1820   27.3140   45.8600 C   0  0  0  0  0  0  0  0  0  0  0  0
   57.5980   28.5250   45.6210 N   0  0  0  0  0  0  0  0  0  0  0  0
   56.8280   29.6420   45.1420 C   0  0  0  0  0  0  0  0  0  0  0  0
   55.6080   29.5070   44.8560 O   0  0  0  0  0  0  0  0  0  0  0  0
   57.4770   30.9650   44.9810 C   0  0  0  0  0  0  0  0  0  0  0  0
   57.4530   31.6300   43.7400 C   0  0  0  0  0  0  0  0  0  0  0  0
   56.9489   31.1639   42.8806 H   0  0  0  0  0  0  0  0  0  0  0  0
   58.0650   32.8780   43.5920 C   0  0  0  0  0  0  0  0  0  0  0  0
   58.0396   33.3897   42.6186 H   0  0  0  0  0  0  0  0  0  0  0  0
   58.7090   33.4770   44.6780 C   0  0  0  0  0  0  0  0  0  0  0  0
   59.3020   34.6870   44.5320 F   0  0  0  0  0  0  0  0  0  0  0  0
   58.7390   32.8280   45.9140 C   0  0  0  0  0  0  0  0  0  0  0  0
   59.2446   33.3003   46.7692 H   0  0  0  0  0  0  0  0  0  0  0  0
   58.1280   31.5790   46.0680 C   0  0  0  0  0  0  0  0  0  0  0  0
   58.1563   31.0734   47.0445 H   0  0  0  0  0  0  0  0  0  0  0  0
   55.9060   26.9350   45.6330 N   0  0  0  0  0  0  0  0  0  0  0  0
   55.1660   27.5680   45.2560 H   0  0  0  0  0  0  0  0  0  0  0  0
   55.6860   25.6310   45.9500 C   0  0  0  0  0  0  0  0  0  0  0  0
   54.7043   25.1496   45.8297 H   0  0  0  0  0  0  0  0  0  0  0  0
  1  2  1  0
  2  3  1  0
  3  4  1  0
  4  5  2  0
  5  6  1  0
  6  7  2  0
  6  8  1  0
  8  9  2  0
  9 10  1  0
  9 11  1  0
 11 12  1  0
 11 13  2  0
 13 14  1  0
 13 15  1  0
 15 16  1  0
 15 17  2  0
 17 18  1  0
  4 19  1  0
 19 20  1  0
 19 21  1  0
 21 22  1  0
 21  2  2  0
 17  8  1  0
M  END
>  <UniqueID>  (89) 
79

>  <SMILES>  (89) 
O=C(/N=c1/[nH]ccs1)c1ccc(F)cc1

>  <Energy>  (89) 
56.82687059534011

>  <Genealogy>  (89) 
O=C(/N=c1/[nH]ccs1)c1ccc(F)cc1 (cis-trans isomerization)
O=C(/N=c1/[nH]ccs1)c1ccc(F)cc1 (3D coordinates assigned)
O=C(/N=c1/[nH]ccs1)c1ccc(F)cc1 (optimized conformer: 56.82687059534011 kcal/mol)

>  <smiles>  (89) 
O=C(N=c1[nH]ccs1)c1ccc(F)cc1

>  <score_type>  (89) 
oracle

>  <origin>  (89) 
adg

>  <m_score__min__energy>  (89) 
-6.2599999999999998

>  <m_primary>  (89) 
energy

$$$$
89:0
     RDKit          3D

 22 23  0  0  0  0  0  0  0  0999 V2000
   55.1450   29.8160   44.8230 O   0  0  0  0  0  0  0  0  0  0  0  0
   56.3230   29.3820   44.7060 C   0  0  0  0  0  0  0  0  0  0  0  0
   57.3270   30.1650   44.1190 O   0  0  0  0  0  0  0  0  0  0  0  0
   57.8740   31.3330   44.6710 C   0  0  0  0  0  0  0  0  0  0  0  0
   58.1480   31.4510   46.0470 C   0  0  0  0  0  0  0  0  0  0  0  0
   58.6820   32.6360   46.5620 C   0  0  0  0  0  0  0  0  0  0  0  0
   58.9380   33.7170   45.7140 C   0  0  0  0  0  0  0  0  0  0  0  0
   59.6070   35.2030   46.3630 Cl  0  0  0  0  0  0  0  0  0  0  0  0
   58.6520   33.6150   44.3490 C   0  0  0  0  0  0  0  0  0  0  0  0
   58.1160   32.4310   43.8290 C   0  0  0  0  0  0  0  0  0  0  0  0
   57.7630   32.3310   42.1110 Cl  0  0  0  0  0  0  0  0  0  0  0  0
   56.6610   28.0610   45.2450 C   0  0  0  0  0  0  0  0  0  0  0  0
   57.9350   27.5550   45.4030 C   0  0  0  0  0  0  0  0  0  0  0  0
   57.7680   26.2960   45.9380 C   0  0  0  0  0  0  0  0  0  0  0  0
   56.4070   26.1130   46.0730 C   0  0  0  0  0  0  0  0  0  0  0  0
   55.7720   27.1840   45.6510 O   0  0  0  0  0  0  0  0  0  0  0  0
   57.9408   30.6063   46.7204 H   0  0  0  0  0  0  0  0  0  0  0  0
   58.9011   32.7177   47.6369 H   0  0  0  0  0  0  0  0  0  0  0  0
   58.8487   34.4674   43.6821 H   0  0  0  0  0  0  0  0  0  0  0  0
   58.8843   28.0520   45.1542 H   0  0  0  0  0  0  0  0  0  0  0  0
   58.5603   25.5808   46.2039 H   0  0  0  0  0  0  0  0  0  0  0  0
   55.9262   25.2081   46.4731 H   0  0  0  0  0  0  0  0  0  0  0  0
  1  2  2  0
  2  3  1  0
  3  4  1  0
  4  5  2  0
  5  6  1  0
  6  7  2  0
  7  8  1  0
  7  9  1  0
  9 10  2  0
 10 11  1  0
  2 12  1  0
 12 13  2  0
 13 14  1  0
 14 15  2  0
 15 16  1  0
 10  4  1  0
 16 12  1  0
  5 17  1  0
  6 18  1  0
  9 19  1  0
 13 20  1  0
 14 21  1  0
 15 22  1  0
M  END
>  <UniqueID>  (90) 
80

>  <SMILES>  (90) 
O=C(Oc1ccc(Cl)cc1Cl)c1ccco1

>  <Energy>  (90) 
51.95900985294025

>  <Genealogy>  (90) 
O=C(Oc1ccc(Cl)cc1Cl)c1ccco1 (3D coordinates assigned)
O=C(Oc1ccc(Cl)cc1Cl)c1ccco1 (optimized conformer: 51.95900985294025 kcal/mol)

>  <smiles>  (90) 
O=C(Oc1ccc(Cl)cc1Cl)c1ccco1

>  <score_type>  (90) 
oracle

>  <origin>  (90) 
adg

>  <m_score__min__energy>  (90) 
-6.54

>  <m_primary>  (90) 
energy

$$$$
90:0
     RDKit          3D

 29 30  0  0  0  0  0  0  0  0999 V2000
   57.4320   25.9720   46.3600 C   0  0  0  0  0  0  0  0  0  0  0  0
   56.0730   26.4630   45.9920 C   0  0  0  0  0  0  0  0  0  0  0  0
   55.0990   25.6630   45.9900 O   0  0  0  0  0  0  0  0  0  0  0  0
   55.8970   27.8250   45.5910 N   0  0  0  0  0  0  0  0  0  0  0  0
   56.8860   28.5780   44.8250 C   0  0  0  0  0  0  0  0  0  0  0  0
   57.6410   29.5690   45.7160 C   0  0  0  0  0  0  0  0  0  0  0  0
   57.7910   30.9040   45.0450 C   0  0  0  0  0  0  0  0  0  0  0  0
   57.3800   31.2300   43.7570 C   0  0  0  0  0  0  0  0  0  0  0  0
   57.5860   32.5440   43.5120 N   0  0  0  0  0  0  0  0  0  0  0  0
   58.1140   33.0520   44.6390 C   0  0  0  0  0  0  0  0  0  0  0  0
   58.4730   34.3780   44.8790 C   0  0  0  0  0  0  0  0  0  0  0  0
   58.9870   34.7010   46.1480 C   0  0  0  0  0  0  0  0  0  0  0  0
   59.1300   33.7040   47.1400 C   0  0  0  0  0  0  0  0  0  0  0  0
   59.6510   34.0490   48.4360 C   0  0  0  0  0  0  0  0  0  0  0  0
   60.0720   34.3270   49.4790 N   0  0  0  0  0  0  0  0  0  0  0  0
   58.7610   32.3720   46.8660 C   0  0  0  0  0  0  0  0  0  0  0  0
   58.2520   32.0840   45.5990 C   0  0  0  0  0  0  0  0  0  0  0  0
   57.5255   25.9382   47.4555 H   0  0  0  0  0  0  0  0  0  0  0  0
   57.5814   24.9631   45.9480 H   0  0  0  0  0  0  0  0  0  0  0  0
   58.1917   26.6525   45.9480 H   0  0  0  0  0  0  0  0  0  0  0  0
   57.6059   27.8753   44.3802 H   0  0  0  0  0  0  0  0  0  0  0  0
   56.3614   29.1445   44.0415 H   0  0  0  0  0  0  0  0  0  0  0  0
   57.0848   29.7012   46.6557 H   0  0  0  0  0  0  0  0  0  0  0  0
   58.6452   29.1644   45.9107 H   0  0  0  0  0  0  0  0  0  0  0  0
   56.9478   30.5185   43.0380 H   0  0  0  0  0  0  0  0  0  0  0  0
   57.3630   33.0590   42.6320 H   0  0  0  0  0  0  0  0  0  0  0  0
   58.3579   35.1469   44.1008 H   0  0  0  0  0  0  0  0  0  0  0  0
   59.2800   35.7377   46.3702 H   0  0  0  0  0  0  0  0  0  0  0  0
   58.8706   31.5846   47.6263 H   0  0  0  0  0  0  0  0  0  0  0  0
  1  2  1  0
  2  3  2  0
  2  4  1  0
  4  5  1  0
  5  6  1  0
  6  7  1  0
  7  8  2  0
  8  9  1  0
  9 10  1  0
 10 11  2  0
 11 12  1  0
 12 13  2  0
 13 14  1  0
 14 15  3  0
 13 16  1  0
 16 17  2  0
 17  7  1  0
 17 10  1  0
  1 18  1  0
  1 19  1  0
  1 20  1  0
  5 21  1  0
  5 22  1  0
  6 23  1  0
  6 24  1  0
  8 25  1  0
  9 26  1  0
 11 27  1  0
 12 28  1  0
 16 29  1  0
M  CHG  1   4  -1
M  END
>  <UniqueID>  (91) 
81

>  <SMILES>  (91) 
CC(=O)[N-]CCc1c[nH]c2ccc(C#N)cc12

>  <Energy>  (91) 
53.52090597746948

>  <Genealogy>  (91) 
CC(=O)[N-]CCc1c[nH]c2ccc(C#N)cc12 (protonated)
CC(=O)[N-]CCc1c[nH]c2ccc(C#N)cc12 (3D coordinates assigned)
CC(=O)[N-]CCc1c[nH]c2ccc(C#N)cc12 (optimized conformer: 53.52090597746948 kcal/mol)

>  <smiles>  (91) 
CC(=O)NCCc1c[nH]c2ccc(C#N)cc12

>  <score_type>  (91) 
oracle

>  <origin>  (91) 
adg

>  <m_score__min__energy>  (91) 
-8.5199999999999996

>  <m_primary>  (91) 
energy

$$$$
91:0
     RDKit          3D

 35 38  0  0  0  0  0  0  0  0999 V2000
   54.3140   25.8120   45.6230 O   0  0  0  0  0  0  0  0  0  0  0  0
   55.3740   25.1710   45.8490 C   0  0  0  0  0  0  0  0  0  0  0  0
   56.2810   25.6750   46.8400 N   0  0  0  0  0  0  0  0  0  0  0  0
   57.5210   26.3520   46.5880 C   0  0  0  0  0  0  0  0  0  0  0  0
   58.7380   25.6540   46.5110 C   0  0  0  0  0  0  0  0  0  0  0  0
   59.9290   26.3460   46.2790 C   0  0  0  0  0  0  0  0  0  0  0  0
   59.9180   27.7350   46.1370 C   0  0  0  0  0  0  0  0  0  0  0  0
   58.7140   28.4530   46.2350 C   0  0  0  0  0  0  0  0  0  0  0  0
   58.7140   29.9280   46.0920 C   0  0  0  0  0  0  0  0  0  0  0  0
   57.6510   30.6250   45.6100 N   0  0  0  0  0  0  0  0  0  0  0  0
   57.9080   31.9560   45.5830 C   0  0  0  0  0  0  0  0  0  0  0  0
   57.0210   32.9370   45.1420 C   0  0  0  0  0  0  0  0  0  0  0  0
   57.4410   34.2770   45.1780 C   0  0  0  0  0  0  0  0  0  0  0  0
   58.7310   34.5950   45.6520 C   0  0  0  0  0  0  0  0  0  0  0  0
   59.5740   33.6100   46.0770 N   0  0  0  0  0  0  0  0  0  0  0  0
   59.1590   32.3200   46.0370 C   0  0  0  0  0  0  0  0  0  0  0  0
   60.0090   30.9560   46.5010 S   0  0  0  0  0  0  0  0  0  0  0  0
   57.5180   27.7470   46.4680 C   0  0  0  0  0  0  0  0  0  0  0  0
   55.6810   23.9620   45.0470 C   0  0  0  0  0  0  0  0  0  0  0  0
   56.0080   24.0770   43.6860 C   0  0  0  0  0  0  0  0  0  0  0  0
   56.2870   22.9290   42.9420 C   0  0  0  0  0  0  0  0  0  0  0  0
   56.2370   21.7050   43.5290 N   0  0  0  0  0  0  0  0  0  0  0  0
   55.9140   21.5590   44.8420 C   0  0  0  0  0  0  0  0  0  0  0  0
   55.6260   22.6810   45.6250 C   0  0  0  0  0  0  0  0  0  0  0  0
   55.3230   22.5150   46.9370 F   0  0  0  0  0  0  0  0  0  0  0  0
   58.7529   24.5610   46.6336 H   0  0  0  0  0  0  0  0  0  0  0  0
   60.8784   25.7950   46.2080 H   0  0  0  0  0  0  0  0  0  0  0  0
   60.8593   28.2715   45.9469 H   0  0  0  0  0  0  0  0  0  0  0  0
   56.0190   32.6689   44.7756 H   0  0  0  0  0  0  0  0  0  0  0  0
   56.7659   35.0760   44.8376 H   0  0  0  0  0  0  0  0  0  0  0  0
   59.0596   35.6444   45.6792 H   0  0  0  0  0  0  0  0  0  0  0  0
   56.5701   28.2981   46.5568 H   0  0  0  0  0  0  0  0  0  0  0  0
   56.0441   25.0672   43.2083 H   0  0  0  0  0  0  0  0  0  0  0  0
   56.5482   23.0160   41.8770 H   0  0  0  0  0  0  0  0  0  0  0  0
   55.8792   20.5547   45.2895 H   0  0  0  0  0  0  0  0  0  0  0  0
  1  2  2  0
  2  3  1  0
  3  4  1  0
  4  5  2  0
  5  6  1  0
  6  7  2  0
  7  8  1  0
  8  9  1  0
  9 10  2  0
 10 11  1  0
 11 12  2  0
 12 13  1  0
 13 14  2  0
 14 15  1  0
 15 16  2  0
 16 17  1  0
  8 18  2  0
  2 19  1  0
 19 20  2  0
 20 21  1  0
 21 22  2  0
 22 23  1  0
 23 24  2  0
 24 25  1  0
 18  4  1  0
 24 19  1  0
 17  9  1  0
 16 11  1  0
  5 26  1  0
  6 27  1  0
  7 28  1  0
 12 29  1  0
 13 30  1  0
 14 31  1  0
 18 32  1  0
 20 33  1  0
 21 34  1  0
 23 35  1  0
M  CHG  1   3  -1
M  END
>  <UniqueID>  (92) 
82

>  <SMILES>  (92) 
O=C([N-]c1cccc(-c2nc3cccnc3s2)c1)c1ccncc1F

>  <Energy>  (92) 
86.24361292851397

>  <Genealogy>  (92) 
O=C([N-]c1cccc(-c2nc3cccnc3s2)c1)c1ccncc1F (protonated)
O=C([N-]c1cccc(-c2nc3cccnc3s2)c1)c1ccncc1F (3D coordinates assigned)
O=C([N-]c1cccc(-c2nc3cccnc3s2)c1)c1ccncc1F (optimized conformer: 86.24361292851397 kcal/mol)

>  <smiles>  (92) 
O=C(Nc1cccc(-c2nc3cccnc3s2)c1)c1ccncc1F

>  <score_type>  (92) 
oracle

>  <origin>  (92) 
adg

>  <m_score__min__energy>  (92) 
-10.050000000000001

>  <m_primary>  (92) 
energy

$$$$
92:0
     RDKit          3D

 31 32  0  0  0  0  0  0  0  0999 V2000
   60.0130   28.0650   48.1330 C   0  0  0  0  0  0  0  0  0  0  0  0
   58.9410   27.4060   47.3170 C   0  0  0  0  0  0  0  0  0  0  0  0
   58.9410   26.0170   47.1300 C   0  0  0  0  0  0  0  0  0  0  0  0
   57.9880   25.4340   46.3570 N   0  0  0  0  0  0  0  0  0  0  0  0
   57.0210   26.1600   45.7370 C   0  0  0  0  0  0  0  0  0  0  0  0
   56.9880   27.5580   45.8790 C   0  0  0  0  0  0  0  0  0  0  0  0
   55.9990   28.3770   45.2410 N   0  0  0  0  0  0  0  0  0  0  0  0
   56.3240   29.7230   44.1970 S   0  0  0  0  0  0  0  0  0  0  0  0
   56.1160   29.2870   42.7740 O   0  0  0  0  0  0  0  0  0  0  0  0
   55.3730   30.8460   44.5010 O   0  0  0  0  0  0  0  0  0  0  0  0
   58.0170   30.2520   44.4010 C   0  0  0  0  0  0  0  0  0  0  0  0
   58.0670   31.6150   45.0310 C   0  0  0  0  0  0  0  0  0  0  0  0
   58.3420   31.7500   46.4030 C   0  0  0  0  0  0  0  0  0  0  0  0
   58.3570   33.0160   46.9950 C   0  0  0  0  0  0  0  0  0  0  0  0
   58.0920   34.1540   46.2270 C   0  0  0  0  0  0  0  0  0  0  0  0
   57.8060   34.0260   44.8650 C   0  0  0  0  0  0  0  0  0  0  0  0
   57.7900   32.7610   44.2680 C   0  0  0  0  0  0  0  0  0  0  0  0
   57.9650   28.1740   46.6700 C   0  0  0  0  0  0  0  0  0  0  0  0
   59.7944   27.9306   49.2026 H   0  0  0  0  0  0  0  0  0  0  0  0
   60.9858   27.6087   47.8974 H   0  0  0  0  0  0  0  0  0  0  0  0
   60.0451   29.1390   47.8974 H   0  0  0  0  0  0  0  0  0  0  0  0
   59.7136   25.3981   47.6097 H   0  0  0  0  0  0  0  0  0  0  0  0
   56.2625   25.6526   45.1228 H   0  0  0  0  0  0  0  0  0  0  0  0
   58.5457   29.5348   45.0461 H   0  0  0  0  0  0  0  0  0  0  0  0
   58.4984   30.2975   43.4130 H   0  0  0  0  0  0  0  0  0  0  0  0
   58.5459   30.8570   47.0121 H   0  0  0  0  0  0  0  0  0  0  0  0
   58.5778   33.1174   48.0678 H   0  0  0  0  0  0  0  0  0  0  0  0
   58.1086   35.1495   46.6946 H   0  0  0  0  0  0  0  0  0  0  0  0
   57.5933   34.9209   44.2618 H   0  0  0  0  0  0  0  0  0  0  0  0
   57.5596   32.6635   43.1968 H   0  0  0  0  0  0  0  0  0  0  0  0
   57.9661   29.2681   46.7840 H   0  0  0  0  0  0  0  0  0  0  0  0
  1  2  1  0
  2  3  2  0
  3  4  1  0
  4  5  2  0
  5  6  1  0
  6  7  1  0
  7  8  1  0
  8  9  2  0
  8 10  2  0
  8 11  1  0
 11 12  1  0
 12 13  2  0
 13 14  1  0
 14 15  2  0
 15 16  1  0
 16 17  2  0
  6 18  2  0
 18  2  1  0
 17 12  1  0
  1 19  1  0
  1 20  1  0
  1 21  1  0
  3 22  1  0
  5 23  1  0
 11 24  1  0
 11 25  1  0
 13 26  1  0
 14 27  1  0
 15 28  1  0
 16 29  1  0
 17 30  1  0
 18 31  1  0
M  CHG  1   7  -1
M  END
>  <UniqueID>  (93) 
83

>  <SMILES>  (93) 
Cc1cncc([N-]S(=O)(=O)Cc2ccccc2)c1

>  <Energy>  (93) 
29.818984738132418

>  <Genealogy>  (93) 
Cc1cncc([N-]S(=O)(=O)Cc2ccccc2)c1 (protonated)
Cc1cncc([N-]S(=O)(=O)Cc2ccccc2)c1 (3D coordinates assigned)
Cc1cncc([N-]S(=O)(=O)Cc2ccccc2)c1 (optimized conformer: 29.818984738132418 kcal/mol)

>  <smiles>  (93) 
Cc1cncc(NS(=O)(=O)Cc2ccccc2)c1

>  <score_type>  (93) 
oracle

>  <origin>  (93) 
adg

>  <m_score__min__energy>  (93) 
-8.6999999999999993

>  <m_primary>  (93) 
energy

$$$$
93:0
     RDKit          3D

 36 37  0  0  0  0  0  0  0  0999 V2000
   59.1046   34.4498   43.4072 H   0  0  0  0  0  0  0  0  0  0  0  0
   58.7210   33.7040   44.1190 C   0  0  0  0  0  0  0  0  0  0  0  0
   58.8430   33.9380   45.4960 C   0  0  0  0  0  0  0  0  0  0  0  0
   59.4880   35.2030   45.9910 C   0  0  0  0  0  0  0  0  0  0  0  0
   59.4902   35.2073   47.0910 H   0  0  0  0  0  0  0  0  0  0  0  0
   60.5229   35.2555   45.6221 H   0  0  0  0  0  0  0  0  0  0  0  0
   58.9227   36.0715   45.6221 H   0  0  0  0  0  0  0  0  0  0  0  0
   58.3620   32.9880   46.4110 C   0  0  0  0  0  0  0  0  0  0  0  0
   58.4900   33.2470   47.7870 O   0  0  0  0  0  0  0  0  0  0  0  0
   59.6240   32.8970   48.5750 C   0  0  0  0  0  0  0  0  0  0  0  0
   59.3677   32.9761   49.6418 H   0  0  0  0  0  0  0  0  0  0  0  0
   59.9251   31.8641   48.3458 H   0  0  0  0  0  0  0  0  0  0  0  0
   60.4548   33.5805   48.3458 H   0  0  0  0  0  0  0  0  0  0  0  0
   57.7670   31.8060   45.9310 C   0  0  0  0  0  0  0  0  0  0  0  0
   57.3895   31.0605   46.6464 H   0  0  0  0  0  0  0  0  0  0  0  0
   57.6480   31.5640   44.5530 C   0  0  0  0  0  0  0  0  0  0  0  0
   56.9010   30.0500   44.0120 S   0  0  0  0  0  0  0  0  0  0  0  0
   56.4510   30.2090   42.5870 O   0  0  0  0  0  0  0  0  0  0  0  0
   55.7150   29.7250   44.8770 O   0  0  0  0  0  0  0  0  0  0  0  0
   58.0600   28.7640   44.1400 N   0  0  0  0  0  0  0  0  0  0  0  0
   58.0260   27.7750   44.9870 C   0  0  0  0  0  0  0  0  0  0  0  0
   59.2390   27.2900   45.4950 C   0  0  0  0  0  0  0  0  0  0  0  0
   60.1908   27.7421   45.1793 H   0  0  0  0  0  0  0  0  0  0  0  0
   59.2330   26.2310   46.4030 C   0  0  0  0  0  0  0  0  0  0  0  0
   60.1809   25.8444   46.8054 H   0  0  0  0  0  0  0  0  0  0  0  0
   58.0230   25.6640   46.7990 C   0  0  0  0  0  0  0  0  0  0  0  0
   58.0082   24.8285   47.5143 H   0  0  0  0  0  0  0  0  0  0  0  0
   56.8300   26.1680   46.2780 C   0  0  0  0  0  0  0  0  0  0  0  0
   55.8698   25.7274   46.5843 H   0  0  0  0  0  0  0  0  0  0  0  0
   56.8490   27.2030   45.3920 N   0  0  0  0  0  0  0  0  0  0  0  0
   55.9280   27.5390   45.0370 H   0  0  0  0  0  0  0  0  0  0  0  0
   58.1170   32.5330   43.6340 C   0  0  0  0  0  0  0  0  0  0  0  0
   58.0310   32.3260   42.1440 C   0  0  0  0  0  0  0  0  0  0  0  0
   57.6166   31.3286   41.9357 H   0  0  0  0  0  0  0  0  0  0  0  0
   57.3774   33.0938   41.7043 H   0  0  0  0  0  0  0  0  0  0  0  0
   59.0362   32.4046   41.7043 H   0  0  0  0  0  0  0  0  0  0  0  0
  1  2  1  0
  2  3  2  0
  3  4  1  0
  4  5  1  0
  4  6  1  0
  4  7  1  0
  3  8  1  0
  8  9  1  0
  9 10  1  0
 10 11  1  0
 10 12  1  0
 10 13  1  0
  8 14  2  0
 14 15  1  0
 14 16  1  0
 16 17  1  0
 17 18  2  0
 17 19  2  0
 17 20  1  0
 20 21  2  0
 21 22  1  0
 22 23  1  0
 22 24  2  0
 24 25  1  0
 24 26  1  0
 26 27  1  0
 26 28  2  0
 28 29  1  0
 28 30  1  0
 30 31  1  0
 16 32  2  0
 32 33  1  0
 33 34  1  0
 33 35  1  0
 33 36  1  0
 32  2  1  0
 30 21  1  0
M  END
>  <UniqueID>  (94) 
84

>  <SMILES>  (94) 
COc1cc(S(=O)(=O)/N=c2/cccc[nH]2)c(C)cc1C

>  <Energy>  (94) 
42.91906071612692

>  <Genealogy>  (94) 
COc1cc(S(=O)(=O)/N=c2/cccc[nH]2)c(C)cc1C (cis-trans isomerization)
COc1cc(S(=O)(=O)/N=c2/cccc[nH]2)c(C)cc1C (3D coordinates assigned)
COc1cc(S(=O)(=O)/N=c2/cccc[nH]2)c(C)cc1C (optimized conformer: 42.91906071612692 kcal/mol)

>  <smiles>  (94) 
COc1cc(S(=O)(=O)N=c2cccc[nH]2)c(C)cc1C

>  <score_type>  (94) 
oracle

>  <origin>  (94) 
adg

>  <m_score__min__energy>  (94) 
-7.5899999999999999

>  <m_primary>  (94) 
energy

$$$$
94:0
     RDKit          3D

 38 39  0  0  0  0  0  0  0  0999 V2000
   55.4420   23.4790   44.1720 C   0  0  0  0  0  0  0  0  0  0  0  0
   54.4660   23.7400   45.3180 C   0  0  0  0  0  0  0  0  0  0  0  0
   55.1810   24.0480   46.6410 C   0  0  0  0  0  0  0  0  0  0  0  0
   56.3560   24.9230   46.4340 N   0  0  0  0  0  0  0  0  0  0  0  0
   56.1820   26.2260   46.0280 C   0  0  0  0  0  0  0  0  0  0  0  0
   54.8920   26.7110   45.8170 O   0  0  0  0  0  0  0  0  0  0  0  0
   57.2990   27.0700   45.8130 C   0  0  0  0  0  0  0  0  0  0  0  0
   57.1660   28.4270   45.4140 C   0  0  0  0  0  0  0  0  0  0  0  0
   55.8910   28.9860   45.2420 O   0  0  0  0  0  0  0  0  0  0  0  0
   55.5460   29.8650   44.1680 C   0  0  0  0  0  0  0  0  0  0  0  0
   56.2520   29.4490   42.8820 C   0  0  0  0  0  0  0  0  0  0  0  0
   58.3160   29.2070   45.1700 C   0  0  0  0  0  0  0  0  0  0  0  0
   58.1590   30.5170   44.6880 O   0  0  0  0  0  0  0  0  0  0  0  0
   58.3910   31.6960   45.4510 C   0  0  0  0  0  0  0  0  0  0  0  0
   59.5890   28.6540   45.3870 C   0  0  0  0  0  0  0  0  0  0  0  0
   59.7230   27.3350   45.8110 C   0  0  0  0  0  0  0  0  0  0  0  0
   58.5920   26.5390   46.0170 C   0  0  0  0  0  0  0  0  0  0  0  0
   58.7410   25.2130   46.4240 C   0  0  0  0  0  0  0  0  0  0  0  0
   57.6170   24.4160   46.6290 C   0  0  0  0  0  0  0  0  0  0  0  0
   57.7820   23.2210   46.9970 O   0  0  0  0  0  0  0  0  0  0  0  0
   56.4278   23.2154   44.5828 H   0  0  0  0  0  0  0  0  0  0  0  0
   55.0685   22.6492   43.5540 H   0  0  0  0  0  0  0  0  0  0  0  0
   55.5325   24.3845   43.5540 H   0  0  0  0  0  0  0  0  0  0  0  0
   53.8312   24.5981   45.0521 H   0  0  0  0  0  0  0  0  0  0  0  0
   53.8710   22.8265   45.4646 H   0  0  0  0  0  0  0  0  0  0  0  0
   54.4761   24.5513   47.3190 H   0  0  0  0  0  0  0  0  0  0  0  0
   55.5307   23.0985   47.0723 H   0  0  0  0  0  0  0  0  0  0  0  0
   54.4580   29.8316   44.0095 H   0  0  0  0  0  0  0  0  0  0  0  0
   55.8626   30.8851   44.4308 H   0  0  0  0  0  0  0  0  0  0  0  0
   57.1753   28.9050   43.1301 H   0  0  0  0  0  0  0  0  0  0  0  0
   55.5890   28.7972   42.2941 H   0  0  0  0  0  0  0  0  0  0  0  0
   56.5009   30.3448   42.2941 H   0  0  0  0  0  0  0  0  0  0  0  0
   58.3434   31.4542   46.5230 H   0  0  0  0  0  0  0  0  0  0  0  0
   59.3857   32.0990   45.2098 H   0  0  0  0  0  0  0  0  0  0  0  0
   57.6232   32.4459   45.2098 H   0  0  0  0  0  0  0  0  0  0  0  0
   60.4865   29.2678   45.2206 H   0  0  0  0  0  0  0  0  0  0  0  0
   60.7251   26.9161   45.9851 H   0  0  0  0  0  0  0  0  0  0  0  0
   59.7466   24.7965   46.5831 H   0  0  0  0  0  0  0  0  0  0  0  0
  1  2  1  0
  2  3  1  0
  3  4  1  0
  4  5  1  0
  5  6  1  0
  5  7  2  0
  7  8  1  0
  8  9  1  0
  9 10  1  0
 10 11  1  0
  8 12  2  0
 12 13  1  0
 13 14  1  0
 12 15  1  0
 15 16  2  0
 16 17  1  0
 17 18  2  0
 18 19  1  0
 19 20  2  0
 19  4  1  0
 17  7  1  0
  1 21  1  0
  1 22  1  0
  1 23  1  0
  2 24  1  0
  2 25  1  0
  3 26  1  0
  3 27  1  0
 10 28  1  0
 10 29  1  0
 11 30  1  0
 11 31  1  0
 11 32  1  0
 14 33  1  0
 14 34  1  0
 14 35  1  0
 15 36  1  0
 16 37  1  0
 18 38  1  0
M  CHG  1   6  -1
M  END
>  <UniqueID>  (95) 
85

>  <SMILES>  (95) 
CCCn1c([O-])c2c(OCC)c(OC)ccc2cc1=O

>  <Energy>  (95) 
45.495533682627304

>  <Genealogy>  (95) 
CCCn1c([O-])c2c(OCC)c(OC)ccc2cc1=O (protonated)
CCCn1c([O-])c2c(OCC)c(OC)ccc2cc1=O (3D coordinates assigned)
CCCn1c([O-])c2c(OCC)c(OC)ccc2cc1=O (optimized conformer: 45.495533682627304 kcal/mol)

>  <smiles>  (95) 
CCCn1c(O)c2c(OCC)c(OC)ccc2cc1=O

>  <score_type>  (95) 
oracle

>  <origin>  (95) 
adg

>  <m_score__min__energy>  (95) 
-9.8300000000000001

>  <m_primary>  (95) 
energy

$$$$
95:0
     RDKit          3D

 40 41  0  0  0  0  0  0  0  0999 V2000
   64.2620   33.4340   48.7040 C   0  0  0  0  0  0  0  0  0  0  0  0
   63.7090   32.8000   47.4990 N   0  0  0  0  0  0  0  0  0  0  0  0
   63.4050   33.8100   46.4760 C   0  0  0  0  0  0  0  0  0  0  0  0
   62.2640   31.9100   47.9040 S   0  0  0  0  0  0  0  0  0  0  0  0
   62.5310   31.0280   49.0910 O   0  0  0  0  0  0  0  0  0  0  0  0
   61.8540   31.0390   46.7490 O   0  0  0  0  0  0  0  0  0  0  0  0
   60.9840   33.0230   48.2910 N   0  0  0  0  0  0  0  0  0  0  0  0
   60.7830   33.4810   49.6680 C   0  0  0  0  0  0  0  0  0  0  0  0
   59.7070   32.6610   50.3230 C   0  0  0  0  0  0  0  0  0  0  0  0
   59.4790   31.3360   49.9200 C   0  0  0  0  0  0  0  0  0  0  0  0
   58.4430   30.5920   50.4920 C   0  0  0  0  0  0  0  0  0  0  0  0
   57.6190   31.1690   51.4670 C   0  0  0  0  0  0  0  0  0  0  0  0
   56.5510   30.4040   52.0540 C   0  0  0  0  0  0  0  0  0  0  0  0
   55.6920   29.7890   52.5260 N   0  0  0  0  0  0  0  0  0  0  0  0
   57.8340   32.4950   51.8620 C   0  0  0  0  0  0  0  0  0  0  0  0
   58.8690   33.2410   51.2890 C   0  0  0  0  0  0  0  0  0  0  0  0
   60.0590   33.4080   47.2650 C   0  0  0  0  0  0  0  0  0  0  0  0
   59.0040   32.5530   46.9130 C   0  0  0  0  0  0  0  0  0  0  0  0
   58.1110   32.9190   45.9010 C   0  0  0  0  0  0  0  0  0  0  0  0
   58.2690   34.1380   45.2350 C   0  0  0  0  0  0  0  0  0  0  0  0
   59.3210   34.9920   45.5800 C   0  0  0  0  0  0  0  0  0  0  0  0
   60.2160   34.6280   46.5910 C   0  0  0  0  0  0  0  0  0  0  0  0
   63.8410   32.9513   49.5983 H   0  0  0  0  0  0  0  0  0  0  0  0
   65.3563   33.3222   48.7078 H   0  0  0  0  0  0  0  0  0  0  0  0
   64.0026   34.5030   48.7078 H   0  0  0  0  0  0  0  0  0  0  0  0
   64.4130   32.1280   47.1150 H   0  0  0  0  0  0  0  0  0  0  0  0
   63.1210   34.7534   46.9652 H   0  0  0  0  0  0  0  0  0  0  0  0
   64.2932   33.9752   45.8485 H   0  0  0  0  0  0  0  0  0  0  0  0
   62.5732   33.4575   45.8485 H   0  0  0  0  0  0  0  0  0  0  0  0
   61.7214   33.3695   50.2310 H   0  0  0  0  0  0  0  0  0  0  0  0
   60.4806   34.5386   49.6595 H   0  0  0  0  0  0  0  0  0  0  0  0
   60.1190   30.8806   49.1499 H   0  0  0  0  0  0  0  0  0  0  0  0
   58.2745   29.5519   50.1761 H   0  0  0  0  0  0  0  0  0  0  0  0
   57.1868   32.9514   52.6254 H   0  0  0  0  0  0  0  0  0  0  0  0
   59.0271   34.2854   51.5960 H   0  0  0  0  0  0  0  0  0  0  0  0
   58.8789   31.5925   47.4342 H   0  0  0  0  0  0  0  0  0  0  0  0
   57.2836   32.2472   45.6288 H   0  0  0  0  0  0  0  0  0  0  0  0
   57.5657   34.4253   44.4395 H   0  0  0  0  0  0  0  0  0  0  0  0
   59.4447   35.9511   45.0557 H   0  0  0  0  0  0  0  0  0  0  0  0
   61.0449   35.2999   46.8582 H   0  0  0  0  0  0  0  0  0  0  0  0
  1  2  1  0
  2  3  1  0
  2  4  1  0
  4  5  2  0
  4  6  2  0
  4  7  1  0
  7  8  1  0
  8  9  1  0
  9 10  2  0
 10 11  1  0
 11 12  2  0
 12 13  1  0
 13 14  3  0
 12 15  1  0
 15 16  2  0
  7 17  1  0
 17 18  2  0
 18 19  1  0
 19 20  2  0
 20 21  1  0
 21 22  2  0
 16  9  1  0
 22 17  1  0
  1 23  1  0
  1 24  1  0
  1 25  1  0
  2 26  1  0
  3 27  1  0
  3 28  1  0
  3 29  1  0
  8 30  1  0
  8 31  1  0
 10 32  1  0
 11 33  1  0
 15 34  1  0
 16 35  1  0
 18 36  1  0
 19 37  1  0
 20 38  1  0
 21 39  1  0
 22 40  1  0
M  CHG  1   2   1
M  END
>  <UniqueID>  (96) 
86

>  <SMILES>  (96) 
C[NH+](C)S(=O)(=O)N(Cc1ccc(C#N)cc1)c1ccccc1

>  <Energy>  (96) 
38.76930413478042

>  <Genealogy>  (96) 
C[NH+](C)S(=O)(=O)N(Cc1ccc(C#N)cc1)c1ccccc1 (protonated)
C[NH+](C)S(=O)(=O)N(Cc1ccc(C#N)cc1)c1ccccc1 (3D coordinates assigned)
C[NH+](C)S(=O)(=O)N(Cc1ccc(C#N)cc1)c1ccccc1 (optimized conformer: 38.76930413478042 kcal/mol)

>  <smiles>  (96) 
CN(C)S(=O)(=O)N(Cc1ccc(C#N)cc1)c1ccccc1

>  <score_type>  (96) 
oracle

>  <origin>  (96) 
adg

>  <m_score__min__energy>  (96) 
-6.4000000000000004

>  <m_primary>  (96) 
energy

$$$$
