0:0
     RDKit          3D

 36 38  0  0  0  0  0  0  0  0999 V2000
   67.0939   33.1812   52.4884 H   0  0  0  0  0  0  0  0  0  0  0  0
   66.2690   33.2690   51.7660 C   0  0  0  0  0  0  0  0  0  0  0  0
   65.1830   34.0290   52.0640 N   0  0  0  0  0  0  0  0  0  0  0  0
   64.1440   34.1660   51.1980 C   0  0  0  0  0  0  0  0  0  0  0  0
   63.2823   34.7923   51.4722 H   0  0  0  0  0  0  0  0  0  0  0  0
   64.1650   33.5110   49.9530 C   0  0  0  0  0  0  0  0  0  0  0  0
   63.0360   33.6510   48.9980 C   0  0  0  0  0  0  0  0  0  0  0  0
   61.7680   34.0690   49.4360 C   0  0  0  0  0  0  0  0  0  0  0  0
   61.6040   34.2962   50.4997 H   0  0  0  0  0  0  0  0  0  0  0  0
   60.7430   34.1940   48.5520 N   0  0  0  0  0  0  0  0  0  0  0  0
   60.8890   33.9150   47.2270 C   0  0  0  0  0  0  0  0  0  0  0  0
   59.9020   34.0610   46.3910 N   0  0  0  0  0  0  0  0  0  0  0  0
   59.0730   33.0210   45.8440 C   0  0  0  0  0  0  0  0  0  0  0  0
   58.8830   31.7920   46.5040 C   0  0  0  0  0  0  0  0  0  0  0  0
   59.3557   31.6164   47.4816 H   0  0  0  0  0  0  0  0  0  0  0  0
   58.0960   30.7940   45.9220 C   0  0  0  0  0  0  0  0  0  0  0  0
   57.9353   29.8438   46.4523 H   0  0  0  0  0  0  0  0  0  0  0  0
   57.5110   31.0000   44.6650 C   0  0  0  0  0  0  0  0  0  0  0  0
   56.5110   29.7450   43.9420 S   0  0  0  0  0  0  0  0  0  0  0  0
   55.9240   30.2450   42.6500 O   0  0  0  0  0  0  0  0  0  0  0  0
   55.3880   29.3870   44.8750 O   0  0  0  0  0  0  0  0  0  0  0  0
   57.4760   28.3440   43.6380 N   0  0  0  0  0  0  0  0  0  0  0  0
   58.2360   28.6340   42.9820 H   0  0  0  0  0  0  0  0  0  0  0  0
   56.8750   27.6640   43.1210 H   0  0  0  0  0  0  0  0  0  0  0  0
   57.7190   32.2120   43.9960 C   0  0  0  0  0  0  0  0  0  0  0  0
   57.2615   32.3793   43.0098 H   0  0  0  0  0  0  0  0  0  0  0  0
   58.5060   33.2100   44.5770 C   0  0  0  0  0  0  0  0  0  0  0  0
   58.6816   34.1511   44.0353 H   0  0  0  0  0  0  0  0  0  0  0  0
   62.1370   33.5080   46.7460 C   0  0  0  0  0  0  0  0  0  0  0  0
   62.2749   33.2961   45.6754 H   0  0  0  0  0  0  0  0  0  0  0  0
   63.2070   33.3720   47.6320 C   0  0  0  0  0  0  0  0  0  0  0  0
   64.1887   33.0448   47.2588 H   0  0  0  0  0  0  0  0  0  0  0  0
   65.2840   32.7210   49.6370 C   0  0  0  0  0  0  0  0  0  0  0  0
   65.3291   32.1962   48.6713 H   0  0  0  0  0  0  0  0  0  0  0  0
   66.3380   32.6000   50.5440 C   0  0  0  0  0  0  0  0  0  0  0  0
   67.2146   31.9830   50.2975 H   0  0  0  0  0  0  0  0  0  0  0  0
  1  2  1  0
  2  3  2  0
  3  4  1  0
  4  5  1  0
  4  6  2  0
  6  7  1  0
  7  8  2  0
  8  9  1  0
  8 10  1  0
 10 11  1  0
 11 12  2  0
 12 13  1  0
 13 14  2  0
 14 15  1  0
 14 16  1  0
 16 17  1  0
 16 18  2  0
 18 19  1  0
 19 20  2  0
 19 21  2  0
 19 22  1  0
 22 23  1  0
 22 24  1  0
 18 25  1  0
 25 26  1  0
 25 27  2  0
 27 28  1  0
 11 29  1  0
 29 30  1  0
 29 31  2  0
 31 32  1  0
  6 33  1  0
 33 34  1  0
 33 35  2  0
 35 36  1  0
 35  2  1  0
 31  7  1  0
 27 13  1  0
M  CHG  1  10  -1
M  END
>  <UniqueID>  (1) 
1

>  <SMILES>  (1) 
NS(=O)(=O)c1ccc(/N=c2/ccc(-c3cccnc3)c[n-]2)cc1

>  <Energy>  (1) 
50.7761988643076

>  <Genealogy>  (1) 
NS(=O)(=O)c1ccc(N=c2ccc(-c3cccnc3)c[n-]2)cc1 (protonated)
NS(=O)(=O)c1ccc(/N=c2/ccc(-c3cccnc3)c[n-]2)cc1 (cis-trans isomerization)
NS(=O)(=O)c1ccc(/N=c2/ccc(-c3cccnc3)c[n-]2)cc1 (3D coordinates assigned)
NS(=O)(=O)c1ccc(/N=c2/ccc(-c3cccnc3)c[n-]2)cc1 (optimized conformer: 50.7761988643076 kcal/mol)

>  <smiles>  (1) 
NS(=O)(=O)c1ccc(N=c2ccc(-c3cccnc3)c[nH]2)cc1

>  <score_type>  (1) 
oracle

>  <origin>  (1) 
adg

>  <m_score__min__energy>  (1) 
-9.4800000000000004

>  <m_primary>  (1) 
energy

$$$$
1:0
     RDKit          3D

 50 52  0  0  0  0  0  0  0  0999 V2000
   59.2100   30.3230   52.2820 O   0  0  0  0  0  0  0  0  0  0  0  0
   58.2080   30.8640   51.7460 C   0  0  0  0  0  0  0  0  0  0  0  0
   57.0960   30.0930   51.4330 O   0  0  0  0  0  0  0  0  0  0  0  0
   58.2320   32.3200   51.3920 C   0  0  0  0  0  0  0  0  0  0  0  0
   59.5130   32.6980   50.6390 C   0  0  0  0  0  0  0  0  0  0  0  0
   59.2560   32.9020   49.1670 C   0  0  0  0  0  0  0  0  0  0  0  0
   60.0990   33.7330   48.4120 C   0  0  0  0  0  0  0  0  0  0  0  0
   59.8370   33.9580   47.0570 C   0  0  0  0  0  0  0  0  0  0  0  0
   58.7200   33.3710   46.4460 C   0  0  0  0  0  0  0  0  0  0  0  0
   58.4150   33.6610   44.7370 S   0  0  0  0  0  0  0  0  0  0  0  0
   59.5210   34.5170   44.1870 O   0  0  0  0  0  0  0  0  0  0  0  0
   57.1090   34.3760   44.5290 O   0  0  0  0  0  0  0  0  0  0  0  0
   58.4090   32.1430   43.9010 N   0  0  0  0  0  0  0  0  0  0  0  0
   57.6620   30.9910   44.3080 C   0  0  0  0  0  0  0  0  0  0  0  0
   56.2770   30.8860   44.0910 C   0  0  0  0  0  0  0  0  0  0  0  0
   55.5850   29.7480   44.5160 C   0  0  0  0  0  0  0  0  0  0  0  0
   56.2580   28.7170   45.1770 C   0  0  0  0  0  0  0  0  0  0  0  0
   55.5440   27.6090   45.6190 O   0  0  0  0  0  0  0  0  0  0  0  0
   57.6450   28.8120   45.3990 C   0  0  0  0  0  0  0  0  0  0  0  0
   58.3700   27.7830   46.2340 C   0  0  0  0  0  0  0  0  0  0  0  0
   58.3420   28.1390   47.7300 C   0  0  0  0  0  0  0  0  0  0  0  0
   59.5610   28.9260   48.1500 C   0  0  0  0  0  0  0  0  0  0  0  0
   59.9830   28.9170   49.4910 C   0  0  0  0  0  0  0  0  0  0  0  0
   61.0600   29.7100   49.8960 C   0  0  0  0  0  0  0  0  0  0  0  0
   61.7210   30.5210   48.9700 C   0  0  0  0  0  0  0  0  0  0  0  0
   61.3050   30.5390   47.6360 C   0  0  0  0  0  0  0  0  0  0  0  0
   60.2280   29.7470   47.2250 C   0  0  0  0  0  0  0  0  0  0  0  0
   58.3380   29.9470   44.9450 C   0  0  0  0  0  0  0  0  0  0  0  0
   57.8760   32.5410   47.1960 C   0  0  0  0  0  0  0  0  0  0  0  0
   58.1420   32.3090   48.5500 C   0  0  0  0  0  0  0  0  0  0  0  0
   57.3640   32.5467   50.7555 H   0  0  0  0  0  0  0  0  0  0  0  0
   58.1980   32.9011   52.3254 H   0  0  0  0  0  0  0  0  0  0  0  0
   59.9138   33.6304   51.0633 H   0  0  0  0  0  0  0  0  0  0  0  0
   60.2319   31.8729   50.7501 H   0  0  0  0  0  0  0  0  0  0  0  0
   60.9689   34.2089   48.8882 H   0  0  0  0  0  0  0  0  0  0  0  0
   60.5101   34.5983   46.4680 H   0  0  0  0  0  0  0  0  0  0  0  0
   55.7369   31.7005   43.5860 H   0  0  0  0  0  0  0  0  0  0  0  0
   54.5043   29.6637   44.3290 H   0  0  0  0  0  0  0  0  0  0  0  0
   57.8874   26.8048   46.0917 H   0  0  0  0  0  0  0  0  0  0  0  0
   59.4204   27.7568   45.9083 H   0  0  0  0  0  0  0  0  0  0  0  0
   57.4439   28.7402   47.9347 H   0  0  0  0  0  0  0  0  0  0  0  0
   58.3322   27.1992   48.3016 H   0  0  0  0  0  0  0  0  0  0  0  0
   59.4633   28.2831   50.2245 H   0  0  0  0  0  0  0  0  0  0  0  0
   61.3880   29.6957   50.9459 H   0  0  0  0  0  0  0  0  0  0  0  0
   62.5683   31.1449   49.2908 H   0  0  0  0  0  0  0  0  0  0  0  0
   61.8259   31.1776   46.9074 H   0  0  0  0  0  0  0  0  0  0  0  0
   59.9021   29.7668   46.1746 H   0  0  0  0  0  0  0  0  0  0  0  0
   59.4259   30.0145   45.0929 H   0  0  0  0  0  0  0  0  0  0  0  0
   57.0030   32.0711   46.7195 H   0  0  0  0  0  0  0  0  0  0  0  0
   57.4749   31.6585   49.1347 H   0  0  0  0  0  0  0  0  0  0  0  0
  1  2  2  0
  2  3  1  0
  2  4  1  0
  4  5  1  0
  5  6  1  0
  6  7  2  0
  7  8  1  0
  8  9  2  0
  9 10  1  0
 10 11  2  0
 10 12  2  0
 10 13  1  0
 13 14  1  0
 14 15  2  0
 15 16  1  0
 16 17  2  0
 17 18  1  0
 17 19  1  0
 19 20  1  0
 20 21  1  0
 21 22  1  0
 22 23  2  0
 23 24  1  0
 24 25  2  0
 25 26  1  0
 26 27  2  0
 19 28  2  0
  9 29  1  0
 29 30  2  0
 30  6  1  0
 28 14  1  0
 27 22  1  0
  4 31  1  0
  4 32  1  0
  5 33  1  0
  5 34  1  0
  7 35  1  0
  8 36  1  0
 15 37  1  0
 16 38  1  0
 20 39  1  0
 20 40  1  0
 21 41  1  0
 21 42  1  0
 23 43  1  0
 24 44  1  0
 25 45  1  0
 26 46  1  0
 27 47  1  0
 28 48  1  0
 29 49  1  0
 30 50  1  0
M  CHG  3   3  -1  13  -1  18  -1
M  END
>  <UniqueID>  (2) 
2

>  <SMILES>  (2) 
O=C([O-])CCc1ccc(S(=O)(=O)[N-]c2ccc([O-])c(CCc3ccccc3)c2)cc1

>  <Energy>  (2) 
47.50551484542018

>  <Genealogy>  (2) 
O=C([O-])CCc1ccc(S(=O)(=O)[N-]c2ccc([O-])c(CCc3ccccc3)c2)cc1 (protonated)
O=C([O-])CCc1ccc(S(=O)(=O)[N-]c2ccc([O-])c(CCc3ccccc3)c2)cc1 (3D coordinates assigned)
O=C([O-])CCc1ccc(S(=O)(=O)[N-]c2ccc([O-])c(CCc3ccccc3)c2)cc1 (optimized conformer: 47.50551484542018 kcal/mol)

>  <smiles>  (2) 
O=C(O)CCc1ccc(S(=O)(=O)Nc2ccc(O)c(CCc3ccccc3)c2)cc1

>  <score_type>  (2) 
oracle

>  <origin>  (2) 
adg

>  <m_score__min__energy>  (2) 
-13.66

>  <m_primary>  (2) 
energy

$$$$
2:0
     RDKit          3D

 49 52  0  0  0  0  0  0  0  0999 V2000
   63.3290   26.9630   54.2410 C   0  0  0  0  0  0  0  0  0  0  0  0
   63.9990   27.2650   53.0200 O   0  0  0  0  0  0  0  0  0  0  0  0
   63.9910   28.5260   52.4060 C   0  0  0  0  0  0  0  0  0  0  0  0
   62.7470   29.1680   52.2130 C   0  0  0  0  0  0  0  0  0  0  0  0
   62.6710   30.4310   51.6040 C   0  0  0  0  0  0  0  0  0  0  0  0
   63.8560   31.0400   51.1850 C   0  0  0  0  0  0  0  0  0  0  0  0
   65.0760   30.4170   51.3790 C   0  0  0  0  0  0  0  0  0  0  0  0
   65.1790   29.1650   51.9800 C   0  0  0  0  0  0  0  0  0  0  0  0
   66.1080   31.2880   50.8430 C   0  0  0  0  0  0  0  0  0  0  0  0
   67.3490   31.0770   50.8210 O   0  0  0  0  0  0  0  0  0  0  0  0
   65.4050   32.4510   50.3240 C   0  0  0  0  0  0  0  0  0  0  0  0
   65.9420   33.4340   49.7480 O   0  0  0  0  0  0  0  0  0  0  0  0
   63.9990   32.3160   50.5460 N   0  0  0  0  0  0  0  0  0  0  0  0
   62.9520   33.0710   49.8580 C   0  0  0  0  0  0  0  0  0  0  0  0
   61.9630   32.1310   49.2210 C   0  0  0  0  0  0  0  0  0  0  0  0
   60.6870   31.9560   49.7770 C   0  0  0  0  0  0  0  0  0  0  0  0
   59.7870   31.0500   49.2110 C   0  0  0  0  0  0  0  0  0  0  0  0
   60.1490   30.2960   48.0800 C   0  0  0  0  0  0  0  0  0  0  0  0
   59.1940   29.3290   47.4800 C   0  0  0  0  0  0  0  0  0  0  0  0
   59.0750   28.0330   47.9990 C   0  0  0  0  0  0  0  0  0  0  0  0
   58.1710   27.1280   47.4440 C   0  0  0  0  0  0  0  0  0  0  0  0
   57.3570   27.4900   46.3550 C   0  0  0  0  0  0  0  0  0  0  0  0
   56.3870   26.4900   45.8410 C   0  0  0  0  0  0  0  0  0  0  0  0
   55.1490   26.6860   45.9750 O   0  0  0  0  0  0  0  0  0  0  0  0
   56.8140   25.3550   45.1640 O   0  0  0  0  0  0  0  0  0  0  0  0
   57.4950   28.7910   45.8000 C   0  0  0  0  0  0  0  0  0  0  0  0
   56.7050   29.2540   44.5980 C   0  0  0  0  0  0  0  0  0  0  0  0
   55.3310   29.1320   44.8430 O   0  0  0  0  0  0  0  0  0  0  0  0
   58.3990   29.6980   46.3830 C   0  0  0  0  0  0  0  0  0  0  0  0
   61.4300   30.4710   47.5280 C   0  0  0  0  0  0  0  0  0  0  0  0
   62.3300   31.3780   48.0960 C   0  0  0  0  0  0  0  0  0  0  0  0
   63.9667   27.2504   55.0900 H   0  0  0  0  0  0  0  0  0  0  0  0
   62.3825   27.5215   54.2877 H   0  0  0  0  0  0  0  0  0  0  0  0
   63.1207   25.8839   54.2877 H   0  0  0  0  0  0  0  0  0  0  0  0
   61.8238   28.6706   52.5450 H   0  0  0  0  0  0  0  0  0  0  0  0
   61.7008   30.9291   51.4603 H   0  0  0  0  0  0  0  0  0  0  0  0
   66.1589   28.6853   52.1199 H   0  0  0  0  0  0  0  0  0  0  0  0
   62.4290   33.7106   50.5842 H   0  0  0  0  0  0  0  0  0  0  0  0
   63.4133   33.6901   49.0744 H   0  0  0  0  0  0  0  0  0  0  0  0
   60.3933   32.5359   50.6644 H   0  0  0  0  0  0  0  0  0  0  0  0
   58.7875   30.9252   49.6531 H   0  0  0  0  0  0  0  0  0  0  0  0
   59.6997   27.7270   48.8511 H   0  0  0  0  0  0  0  0  0  0  0  0
   58.0930   26.1145   47.8644 H   0  0  0  0  0  0  0  0  0  0  0  0
   56.9444   30.3073   44.3901 H   0  0  0  0  0  0  0  0  0  0  0  0
   56.9711   28.6293   43.7326 H   0  0  0  0  0  0  0  0  0  0  0  0
   55.1440   28.1610   44.9390 H   0  0  0  0  0  0  0  0  0  0  0  0
   58.4845   30.7147   45.9719 H   0  0  0  0  0  0  0  0  0  0  0  0
   61.7267   29.8899   46.6424 H   0  0  0  0  0  0  0  0  0  0  0  0
   63.3315   31.5017   47.6581 H   0  0  0  0  0  0  0  0  0  0  0  0
  1  2  1  0
  2  3  1  0
  3  4  2  0
  4  5  1  0
  5  6  2  0
  6  7  1  0
  7  8  2  0
  7  9  1  0
  9 10  2  0
  9 11  1  0
 11 12  2  0
 11 13  1  0
 13 14  1  0
 14 15  1  0
 15 16  2  0
 16 17  1  0
 17 18  2  0
 18 19  1  0
 19 20  2  0
 20 21  1  0
 21 22  2  0
 22 23  1  0
 23 24  2  0
 23 25  1  0
 22 26  1  0
 26 27  1  0
 27 28  1  0
 26 29  2  0
 18 30  1  0
 30 31  2  0
  8  3  1  0
 31 15  1  0
 13  6  1  0
 29 19  1  0
  1 32  1  0
  1 33  1  0
  1 34  1  0
  4 35  1  0
  5 36  1  0
  8 37  1  0
 14 38  1  0
 14 39  1  0
 16 40  1  0
 17 41  1  0
 20 42  1  0
 21 43  1  0
 27 44  1  0
 27 45  1  0
 28 46  1  0
 29 47  1  0
 30 48  1  0
 31 49  1  0
M  CHG  1  25  -1
M  END
>  <UniqueID>  (3) 
3

>  <SMILES>  (3) 
COc1ccc2c(c1)C(=O)C(=O)N2Cc1ccc(-c2ccc(C(=O)[O-])c(CO)c2)cc1

>  <Energy>  (3) 
93.32353246714591

>  <Genealogy>  (3) 
COc1ccc2c(c1)C(=O)C(=O)N2Cc1ccc(-c2ccc(C(=O)[O-])c(CO)c2)cc1 (protonated)
COc1ccc2c(c1)C(=O)C(=O)N2Cc1ccc(-c2ccc(C(=O)[O-])c(CO)c2)cc1 (3D coordinates assigned)
COc1ccc2c(c1)C(=O)C(=O)N2Cc1ccc(-c2ccc(C(=O)[O-])c(CO)c2)cc1 (nonaromatic ring conformer: 93.32353246714591 kcal/mol)

>  <smiles>  (3) 
COc1ccc2c(c1)C(=O)C(=O)N2Cc1ccc(-c2ccc(C(=O)O)c(CO)c2)cc1

>  <score_type>  (3) 
oracle

>  <origin>  (3) 
adg

>  <m_score__min__energy>  (3) 
-10.800000000000001

>  <m_primary>  (3) 
energy

$$$$
3:0
     RDKit          3D

 33 34  0  0  0  0  0  0  0  0999 V2000
   62.4762   30.7643   47.7878 H   0  0  0  0  0  0  0  0  0  0  0  0
   61.7300   31.4500   47.3600 C   0  0  0  0  0  0  0  0  0  0  0  0
   61.9740   32.8290   47.3490 C   0  0  0  0  0  0  0  0  0  0  0  0
   63.6030   33.5140   48.0760 Br  0  0  0  0  0  0  0  0  0  0  0  0
   61.0280   33.7060   46.8060 C   0  0  0  0  0  0  0  0  0  0  0  0
   61.2208   34.7889   46.7982 H   0  0  0  0  0  0  0  0  0  0  0  0
   59.8340   33.2010   46.2720 C   0  0  0  0  0  0  0  0  0  0  0  0
   58.8600   34.0380   45.7210 C   0  0  0  0  0  0  0  0  0  0  0  0
   59.0170   35.1265   45.6972 H   0  0  0  0  0  0  0  0  0  0  0  0
   57.7190   33.5030   45.2150 N   0  0  0  0  0  0  0  0  0  0  0  0
   57.4970   32.1580   45.2310 C   0  0  0  0  0  0  0  0  0  0  0  0
   56.4010   31.6550   44.7470 N   0  0  0  0  0  0  0  0  0  0  0  0
   56.3300   30.4950   43.8590 C   0  0  0  0  0  0  0  0  0  0  0  0
   57.3489   30.1360   43.6519 H   0  0  0  0  0  0  0  0  0  0  0  0
   55.8335   30.7952   42.9244 H   0  0  0  0  0  0  0  0  0  0  0  0
   55.5230   29.3690   44.5040 C   0  0  0  0  0  0  0  0  0  0  0  0
   55.1882   28.6665   43.7265 H   0  0  0  0  0  0  0  0  0  0  0  0
   54.6478   29.7939   45.0173 H   0  0  0  0  0  0  0  0  0  0  0  0
   56.3560   28.6630   45.4700 N   0  0  0  0  0  0  0  0  0  0  0  0
   56.3200   27.2480   45.6790 C   0  0  0  0  0  0  0  0  0  0  0  0
   55.2200   26.7040   45.9640 O   0  0  0  0  0  0  0  0  0  0  0  0
   57.5510   26.3960   45.5030 C   0  0  0  0  0  0  0  0  0  0  0  0
   58.1564   26.8058   44.6811 H   0  0  0  0  0  0  0  0  0  0  0  0
   57.2332   25.3678   45.2755 H   0  0  0  0  0  0  0  0  0  0  0  0
   58.3310   26.3730   46.6840 O   0  0  0  0  0  0  0  0  0  0  0  0
   58.9490   27.6270   46.8840 C   0  0  0  0  0  0  0  0  0  0  0  0
   59.0445   27.8208   47.9626 H   0  0  0  0  0  0  0  0  0  0  0  0
   59.9475   27.6214   46.4226 H   0  0  0  0  0  0  0  0  0  0  0  0
   58.3363   28.4155   46.4226 H   0  0  0  0  0  0  0  0  0  0  0  0
   58.4310   31.3270   45.7650 N   0  0  0  0  0  0  0  0  0  0  0  0
   59.5890   31.8120   46.2830 C   0  0  0  0  0  0  0  0  0  0  0  0
   60.5390   30.9420   46.8280 C   0  0  0  0  0  0  0  0  0  0  0  0
   60.3502   29.8584   46.8386 H   0  0  0  0  0  0  0  0  0  0  0  0
  1  2  1  0
  2  3  1  0
  3  4  1  0
  3  5  2  0
  5  6  1  0
  5  7  1  0
  7  8  2  0
  8  9  1  0
  8 10  1  0
 10 11  1  0
 11 12  2  0
 12 13  1  0
 13 14  1  0
 13 15  1  0
 13 16  1  0
 16 17  1  0
 16 18  1  0
 16 19  1  0
 19 20  1  0
 20 21  2  0
 20 22  1  0
 22 23  1  0
 22 24  1  0
 22 25  1  0
 25 26  1  0
 26 27  1  0
 26 28  1  0
 26 29  1  0
 11 30  1  0
 30 31  2  0
 31 32  1  0
 32 33  1  0
 32  2  2  0
 31  7  1  0
M  CHG  2  10  -1  19  -1
M  END
>  <UniqueID>  (4) 
4

>  <SMILES>  (4) 
COCC(=O)[N-]CC/N=c1/nc2ccc(Br)cc2c[n-]1

>  <Energy>  (4) 
33.714669022018256

>  <Genealogy>  (4) 
COCC(=O)[N-]CCN=c1nc2ccc(Br)cc2c[n-]1 (protonated)
COCC(=O)[N-]CC/N=c1/nc2ccc(Br)cc2c[n-]1 (cis-trans isomerization)
COCC(=O)[N-]CC/N=c1/nc2ccc(Br)cc2c[n-]1 (3D coordinates assigned)
COCC(=O)[N-]CC/N=c1/nc2ccc(Br)cc2c[n-]1 (optimized conformer: 33.714669022018256 kcal/mol)

>  <smiles>  (4) 
COCC(=O)NCCN=c1nc2ccc(Br)cc2c[nH]1

>  <score_type>  (4) 
oracle

>  <origin>  (4) 
adg

>  <m_score__min__energy>  (4) 
-10.51

>  <m_primary>  (4) 
energy

$$$$
4:0
     RDKit          3D

 56 60  0  0  0  0  0  0  0  0999 V2000
   55.5940   30.0850   53.0370 C   0  0  0  0  0  0  0  0  0  0  0  0
   56.6550   30.9310   53.4710 O   0  0  0  0  0  0  0  0  0  0  0  0
   57.4400   31.7190   52.6170 C   0  0  0  0  0  0  0  0  0  0  0  0
   58.1070   32.8240   53.1610 C   0  0  0  0  0  0  0  0  0  0  0  0
   58.9000   33.6470   52.3540 C   0  0  0  0  0  0  0  0  0  0  0  0
   59.0350   33.3690   50.9910 C   0  0  0  0  0  0  0  0  0  0  0  0
   59.7950   34.1730   50.2030 N   0  0  0  0  0  0  0  0  0  0  0  0
   59.9600   33.9370   48.8740 C   0  0  0  0  0  0  0  0  0  0  0  0
   60.6520   34.7370   48.1920 O   0  0  0  0  0  0  0  0  0  0  0  0
   59.3470   32.8180   48.2700 C   0  0  0  0  0  0  0  0  0  0  0  0
   59.5240   32.5140   46.7890 C   0  0  0  0  0  0  0  0  0  0  0  0
   59.5630   31.0660   46.4640 N   0  0  0  0  0  0  0  0  0  0  0  0
   60.9320   30.5100   46.4850 C   0  0  0  0  0  0  0  0  0  0  0  0
   61.7780   31.2290   47.5040 C   0  0  0  0  0  0  0  0  0  0  0  0
   62.6190   32.2860   47.1180 C   0  0  0  0  0  0  0  0  0  0  0  0
   63.4150   32.9350   48.0690 C   0  0  0  0  0  0  0  0  0  0  0  0
   63.3750   32.5330   49.4060 C   0  0  0  0  0  0  0  0  0  0  0  0
   62.5410   31.4820   49.7970 C   0  0  0  0  0  0  0  0  0  0  0  0
   61.7450   30.8320   48.8500 C   0  0  0  0  0  0  0  0  0  0  0  0
   58.8390   30.7200   45.2190 C   0  0  0  0  0  0  0  0  0  0  0  0
   58.0230   29.4600   45.3930 C   0  0  0  0  0  0  0  0  0  0  0  0
   58.6140   28.3160   45.9720 C   0  0  0  0  0  0  0  0  0  0  0  0
   57.8360   27.1770   46.1380 C   0  0  0  0  0  0  0  0  0  0  0  0
   56.5180   27.1850   45.7600 C   0  0  0  0  0  0  0  0  0  0  0  0
   55.9150   28.2760   45.2350 N   0  0  0  0  0  0  0  0  0  0  0  0
   56.6400   29.4190   45.0500 C   0  0  0  0  0  0  0  0  0  0  0  0
   56.0670   30.4370   44.5770 O   0  0  0  0  0  0  0  0  0  0  0  0
   55.9630   25.8930   46.0550 C   0  0  0  0  0  0  0  0  0  0  0  0
   54.7740   25.5310   45.8530 O   0  0  0  0  0  0  0  0  0  0  0  0
   56.9700   25.0680   46.6260 N   0  0  0  0  0  0  0  0  0  0  0  0
   58.2150   25.8410   46.7120 C   0  0  0  0  0  0  0  0  0  0  0  0
   58.5270   31.9970   49.0630 C   0  0  0  0  0  0  0  0  0  0  0  0
   58.3730   32.2590   50.4310 C   0  0  0  0  0  0  0  0  0  0  0  0
   57.5750   31.4370   51.2420 C   0  0  0  0  0  0  0  0  0  0  0  0
   55.0739   29.6703   53.9131 H   0  0  0  0  0  0  0  0  0  0  0  0
   54.8845   30.6680   52.4314 H   0  0  0  0  0  0  0  0  0  0  0  0
   56.0044   29.2635   52.4314 H   0  0  0  0  0  0  0  0  0  0  0  0
   58.0063   33.0470   54.2334 H   0  0  0  0  0  0  0  0  0  0  0  0
   59.4174   34.5131   52.7924 H   0  0  0  0  0  0  0  0  0  0  0  0
   58.6849   32.9677   46.2413 H   0  0  0  0  0  0  0  0  0  0  0  0
   60.4995   32.9294   46.4961 H   0  0  0  0  0  0  0  0  0  0  0  0
   60.8849   29.4416   46.7426 H   0  0  0  0  0  0  0  0  0  0  0  0
   61.3844   30.6408   45.4909 H   0  0  0  0  0  0  0  0  0  0  0  0
   62.6521   32.6045   46.0656 H   0  0  0  0  0  0  0  0  0  0  0  0
   64.0725   33.7622   47.7632 H   0  0  0  0  0  0  0  0  0  0  0  0
   64.0008   33.0444   50.1522 H   0  0  0  0  0  0  0  0  0  0  0  0
   62.5111   31.1663   50.8503 H   0  0  0  0  0  0  0  0  0  0  0  0
   61.0894   30.0052   49.1609 H   0  0  0  0  0  0  0  0  0  0  0  0
   58.1666   31.5489   44.9529 H   0  0  0  0  0  0  0  0  0  0  0  0
   59.5782   30.5488   44.4226 H   0  0  0  0  0  0  0  0  0  0  0  0
   59.6684   28.3263   46.2851 H   0  0  0  0  0  0  0  0  0  0  0  0
   56.8420   24.0810   46.9430 H   0  0  0  0  0  0  0  0  0  0  0  0
   58.5450   25.9407   47.7566 H   0  0  0  0  0  0  0  0  0  0  0  0
   59.0525   25.3668   46.1793 H   0  0  0  0  0  0  0  0  0  0  0  0
   58.0031   31.1439   48.6072 H   0  0  0  0  0  0  0  0  0  0  0  0
   57.0546   30.5722   50.8046 H   0  0  0  0  0  0  0  0  0  0  0  0
  1  2  1  0
  2  3  1  0
  3  4  2  0
  4  5  1  0
  5  6  2  0
  6  7  1  0
  7  8  1  0
  8  9  2  0
  8 10  1  0
 10 11  1  0
 11 12  1  0
 12 13  1  0
 13 14  1  0
 14 15  2  0
 15 16  1  0
 16 17  2  0
 17 18  1  0
 18 19  2  0
 12 20  1  0
 20 21  1  0
 21 22  2  0
 22 23  1  0
 23 24  2  0
 24 25  1  0
 25 26  1  0
 26 27  2  0
 24 28  1  0
 28 29  2  0
 28 30  1  0
 30 31  1  0
 10 32  2  0
 32 33  1  0
 33 34  2  0
 34  3  1  0
 33  6  1  0
 19 14  1  0
 26 21  1  0
 31 23  1  0
  1 35  1  0
  1 36  1  0
  1 37  1  0
  4 38  1  0
  5 39  1  0
 11 40  1  0
 11 41  1  0
 13 42  1  0
 13 43  1  0
 15 44  1  0
 16 45  1  0
 17 46  1  0
 18 47  1  0
 19 48  1  0
 20 49  1  0
 20 50  1  0
 22 51  1  0
 30 52  1  0
 31 53  1  0
 31 54  1  0
 32 55  1  0
 34 56  1  0
M  CHG  2   7  -1  25  -1
M  END
>  <UniqueID>  (5) 
5

>  <SMILES>  (5) 
COc1ccc2[n-]c(=O)c(CN(Cc3ccccc3)Cc3cc4c([n-]c3=O)C(=O)NC4)cc2c1

>  <Energy>  (5) 
94.24334409350787

>  <Genealogy>  (5) 
COc1ccc2[n-]c(=O)c(CN(Cc3ccccc3)Cc3cc4c([n-]c3=O)C(=O)NC4)cc2c1 (protonated)
COc1ccc2[n-]c(=O)c(CN(Cc3ccccc3)Cc3cc4c([n-]c3=O)C(=O)NC4)cc2c1 (3D coordinates assigned)
COc1ccc2[n-]c(=O)c(CN(Cc3ccccc3)Cc3cc4c([n-]c3=O)C(=O)NC4)cc2c1 (nonaromatic ring conformer: 94.24334409350787 kcal/mol)

>  <smiles>  (5) 
COc1ccc2[nH]c(=O)c(CN(Cc3ccccc3)Cc3cc4c([nH]c3=O)C(=O)NC4)cc2c1

>  <score_type>  (5) 
oracle

>  <origin>  (5) 
adg

>  <m_score__min__energy>  (5) 
-13.31

>  <m_primary>  (5) 
energy

$$$$
5:0
     RDKit          3D

 35 37  0  0  0  0  0  0  0  0999 V2000
   59.7029   35.5579   49.1211 H   0  0  0  0  0  0  0  0  0  0  0  0
   59.7230   34.5910   48.5970 C   0  0  0  0  0  0  0  0  0  0  0  0
   60.3070   33.5730   49.1540 N   0  0  0  0  0  0  0  0  0  0  0  0
   60.4860   32.3090   48.5060 C   0  0  0  0  0  0  0  0  0  0  0  0
   59.5780   31.7490   47.6800 N   0  0  0  0  0  0  0  0  0  0  0  0
   60.1650   30.5900   47.3180 C   0  0  0  0  0  0  0  0  0  0  0  0
   59.5440   29.6030   46.3980 C   0  0  0  0  0  0  0  0  0  0  0  0
   60.1350   28.3480   46.1700 C   0  0  0  0  0  0  0  0  0  0  0  0
   61.0692   28.0818   46.6862 H   0  0  0  0  0  0  0  0  0  0  0  0
   59.5440   27.4380   45.2930 C   0  0  0  0  0  0  0  0  0  0  0  0
   60.0173   26.4608   45.1170 H   0  0  0  0  0  0  0  0  0  0  0  0
   58.3550   27.7620   44.6380 C   0  0  0  0  0  0  0  0  0  0  0  0
   57.8994   27.0403   43.9441 H   0  0  0  0  0  0  0  0  0  0  0  0
   57.7360   29.0040   44.8590 C   0  0  0  0  0  0  0  0  0  0  0  0
   56.4750   29.3340   44.1530 C   0  0  0  0  0  0  0  0  0  0  0  0
   55.3980   29.4180   44.8060 O   0  0  0  0  0  0  0  0  0  0  0  0
   56.4480   29.5790   42.7440 N   0  0  0  0  0  0  0  0  0  0  0  0
   57.3230   29.6820   42.1870 H   0  0  0  0  0  0  0  0  0  0  0  0
   55.5360   29.7500   42.2640 H   0  0  0  0  0  0  0  0  0  0  0  0
   58.3450   29.9220   45.7340 C   0  0  0  0  0  0  0  0  0  0  0  0
   57.8772   30.9034   45.9015 H   0  0  0  0  0  0  0  0  0  0  0  0
   61.4000   30.4980   47.9380 C   0  0  0  0  0  0  0  0  0  0  0  0
   62.1156   29.6683   47.8399 H   0  0  0  0  0  0  0  0  0  0  0  0
   61.5620   31.5770   48.6620 O   0  0  0  0  0  0  0  0  0  0  0  0
   59.0860   34.4690   47.2710 C   0  0  0  0  0  0  0  0  0  0  0  0
   57.8210   33.8720   47.1140 C   0  0  0  0  0  0  0  0  0  0  0  0
   57.2856   33.4841   47.9931 H   0  0  0  0  0  0  0  0  0  0  0  0
   57.2420   33.7700   45.8450 C   0  0  0  0  0  0  0  0  0  0  0  0
   56.2537   33.3013   45.7288 H   0  0  0  0  0  0  0  0  0  0  0  0
   57.9160   34.2620   44.7250 C   0  0  0  0  0  0  0  0  0  0  0  0
   57.4584   34.1808   43.7280 H   0  0  0  0  0  0  0  0  0  0  0  0
   59.1710   34.8570   44.8710 C   0  0  0  0  0  0  0  0  0  0  0  0
   59.7006   35.2447   43.9882 H   0  0  0  0  0  0  0  0  0  0  0  0
   59.7560   34.9610   46.1370 C   0  0  0  0  0  0  0  0  0  0  0  0
   60.7450   35.4299   46.2461 H   0  0  0  0  0  0  0  0  0  0  0  0
  1  2  1  0
  2  3  2  0
  3  4  1  0
  4  5  2  0
  5  6  1  0
  6  7  1  0
  7  8  2  0
  8  9  1  0
  8 10  1  0
 10 11  1  0
 10 12  2  0
 12 13  1  0
 12 14  1  0
 14 15  1  0
 15 16  2  0
 15 17  1  0
 17 18  1  0
 17 19  1  0
 14 20  2  0
 20 21  1  0
  6 22  2  0
 22 23  1  0
 22 24  1  0
  2 25  1  0
 25 26  2  0
 26 27  1  0
 26 28  1  0
 28 29  1  0
 28 30  2  0
 30 31  1  0
 30 32  1  0
 32 33  1  0
 32 34  2  0
 34 35  1  0
 24  4  1  0
 34 25  1  0
 20  7  1  0
M  END
>  <UniqueID>  (6) 
6

>  <SMILES>  (6) 
NC(=O)c1cccc(-c2coc(/N=C/c3ccccc3)n2)c1

>  <Energy>  (6) 
70.07618549545721

>  <Genealogy>  (6) 
NC(=O)c1cccc(-c2coc(/N=C/c3ccccc3)n2)c1 (cis-trans isomerization)
NC(=O)c1cccc(-c2coc(/N=C/c3ccccc3)n2)c1 (3D coordinates assigned)
NC(=O)c1cccc(-c2coc(/N=C/c3ccccc3)n2)c1 (optimized conformer: 70.07618549545721 kcal/mol)

>  <smiles>  (6) 
NC(=O)c1cccc(-c2coc(N=Cc3ccccc3)n2)c1

>  <score_type>  (6) 
oracle

>  <origin>  (6) 
adg

>  <m_score__min__energy>  (6) 
-8.1500000000000004

>  <m_primary>  (6) 
energy

$$$$
6:0
     RDKit          3D

 32 33  0  0  0  0  0  0  0  0999 V2000
   56.9520   27.1800   45.6650 C   0  0  0  0  0  0  0  0  0  0  0  0
   56.0850   28.2250   45.2410 O   0  0  0  0  0  0  0  0  0  0  0  0
   56.5540   29.4620   44.7920 C   0  0  0  0  0  0  0  0  0  0  0  0
   56.5390   29.7490   43.4260 C   0  0  0  0  0  0  0  0  0  0  0  0
   57.0130   30.9880   42.9960 C   0  0  0  0  0  0  0  0  0  0  0  0
   57.0030   31.2970   41.6330 O   0  0  0  0  0  0  0  0  0  0  0  0
   57.7810   32.3510   41.0790 C   0  0  0  0  0  0  0  0  0  0  0  0
   57.4780   31.8830   43.9090 N   0  0  0  0  0  0  0  0  0  0  0  0
   57.4800   31.5960   45.2390 C   0  0  0  0  0  0  0  0  0  0  0  0
   57.9650   32.5200   46.1730 O   0  0  0  0  0  0  0  0  0  0  0  0
   59.3020   32.5800   46.5880 C   0  0  0  0  0  0  0  0  0  0  0  0
   59.7910   31.5550   47.4040 C   0  0  0  0  0  0  0  0  0  0  0  0
   61.1190   31.5630   47.8360 C   0  0  0  0  0  0  0  0  0  0  0  0
   61.9820   32.6080   47.4700 C   0  0  0  0  0  0  0  0  0  0  0  0
   63.3510   32.6120   47.9150 N   0  0  0  0  0  0  0  0  0  0  0  0
   63.7280   31.8470   48.8260 O   0  0  0  0  0  0  0  0  0  0  0  0
   64.2700   33.4640   47.3440 O   0  0  0  0  0  0  0  0  0  0  0  0
   61.4840   33.6550   46.6730 C   0  0  0  0  0  0  0  0  0  0  0  0
   60.1520   33.6510   46.2370 C   0  0  0  0  0  0  0  0  0  0  0  0
   59.6610   34.7810   45.4860 C   0  0  0  0  0  0  0  0  0  0  0  0
   59.2660   35.6870   44.8840 N   0  0  0  0  0  0  0  0  0  0  0  0
   57.0250   30.3910   45.6690 N   0  0  0  0  0  0  0  0  0  0  0  0
   56.9781   27.1485   46.7642 H   0  0  0  0  0  0  0  0  0  0  0  0
   56.5830   26.2182   45.2793 H   0  0  0  0  0  0  0  0  0  0  0  0
   57.9654   27.3652   45.2793 H   0  0  0  0  0  0  0  0  0  0  0  0
   56.1605   29.0119   42.7025 H   0  0  0  0  0  0  0  0  0  0  0  0
   58.2214   32.9477   41.8914 H   0  0  0  0  0  0  0  0  0  0  0  0
   58.5842   31.9268   40.4586 H   0  0  0  0  0  0  0  0  0  0  0  0
   57.1390   32.9936   40.4586 H   0  0  0  0  0  0  0  0  0  0  0  0
   59.1237   30.7352   47.7083 H   0  0  0  0  0  0  0  0  0  0  0  0
   61.4919   30.7437   48.4683 H   0  0  0  0  0  0  0  0  0  0  0  0
   62.1471   34.4855   46.3891 H   0  0  0  0  0  0  0  0  0  0  0  0
  1  2  1  0
  2  3  1  0
  3  4  2  0
  4  5  1  0
  5  6  1  0
  6  7  1  0
  5  8  2  0
  8  9  1  0
  9 10  1  0
 10 11  1  0
 11 12  2  0
 12 13  1  0
 13 14  2  0
 14 15  1  0
 15 16  2  0
 15 17  1  0
 14 18  1  0
 18 19  2  0
 19 20  1  0
 20 21  3  0
  9 22  2  0
 22  3  1  0
 19 11  1  0
  1 23  1  0
  1 24  1  0
  1 25  1  0
  4 26  1  0
  7 27  1  0
  7 28  1  0
  7 29  1  0
 12 30  1  0
 13 31  1  0
 18 32  1  0
M  CHG  2  15   1  17  -1
M  END
>  <UniqueID>  (7) 
7

>  <SMILES>  (7) 
COc1cc(OC)nc(Oc2ccc([N+](=O)[O-])cc2C#N)n1

>  <Energy>  (7) 
36.39827144832851

>  <Genealogy>  (7) 
COc1cc(OC)nc(Oc2ccc([N+](=O)[O-])cc2C#N)n1 (3D coordinates assigned)
COc1cc(OC)nc(Oc2ccc([N+](=O)[O-])cc2C#N)n1 (optimized conformer: 36.39827144832851 kcal/mol)

>  <smiles>  (7) 
COc1cc(OC)nc(Oc2ccc([N+](=O)[O-])cc2C#N)n1

>  <score_type>  (7) 
oracle

>  <origin>  (7) 
adg

>  <m_score__min__energy>  (7) 
-6.7300000000000004

>  <m_primary>  (7) 
energy

$$$$
7:0
     RDKit          3D

 32 34  0  0  0  0  0  0  0  0999 V2000
   55.2440   26.1750   46.0560 O   0  0  0  0  0  0  0  0  0  0  0  0
   56.1150   27.0820   45.9880 C   0  0  0  0  0  0  0  0  0  0  0  0
   55.8810   28.1910   45.2440 N   0  0  0  0  0  0  0  0  0  0  0  0
   56.8030   29.1870   45.1500 C   0  0  0  0  0  0  0  0  0  0  0  0
   58.0130   29.0810   45.8580 C   0  0  0  0  0  0  0  0  0  0  0  0
   58.2380   27.9120   46.6060 C   0  0  0  0  0  0  0  0  0  0  0  0
   59.3190   27.7480   47.2340 O   0  0  0  0  0  0  0  0  0  0  0  0
   57.2870   26.9460   46.6590 N   0  0  0  0  0  0  0  0  0  0  0  0
   59.0650   30.1580   45.7590 C   0  0  0  0  0  0  0  0  0  0  0  0
   58.4990   31.4660   45.3830 N   0  0  0  0  0  0  0  0  0  0  0  0
   58.0680   32.3380   46.5000 C   0  0  0  0  0  0  0  0  0  0  0  0
   59.2040   32.9010   47.3230 C   0  0  0  0  0  0  0  0  0  0  0  0
   58.9660   33.3900   48.6180 C   0  0  0  0  0  0  0  0  0  0  0  0
   60.0190   33.8940   49.3870 C   0  0  0  0  0  0  0  0  0  0  0  0
   61.3170   33.9250   48.8670 C   0  0  0  0  0  0  0  0  0  0  0  0
   62.3330   34.4060   49.6250 F   0  0  0  0  0  0  0  0  0  0  0  0
   61.5580   33.4680   47.5660 C   0  0  0  0  0  0  0  0  0  0  0  0
   63.3260   33.5020   46.8390 Br  0  0  0  0  0  0  0  0  0  0  0  0
   60.5030   32.9740   46.7920 C   0  0  0  0  0  0  0  0  0  0  0  0
   57.6110   31.4170   44.2060 C   0  0  0  0  0  0  0  0  0  0  0  0
   56.4570   30.4080   44.3460 C   0  0  0  0  0  0  0  0  0  0  0  0
   59.5625   30.2562   46.7352 H   0  0  0  0  0  0  0  0  0  0  0  0
   59.7742   29.8616   44.9721 H   0  0  0  0  0  0  0  0  0  0  0  0
   57.4969   33.1791   46.0800 H   0  0  0  0  0  0  0  0  0  0  0  0
   57.4692   31.7107   47.1767 H   0  0  0  0  0  0  0  0  0  0  0  0
   57.9458   33.3763   49.0292 H   0  0  0  0  0  0  0  0  0  0  0  0
   59.8262   34.2672   50.4037 H   0  0  0  0  0  0  0  0  0  0  0  0
   60.6913   32.6404   45.7609 H   0  0  0  0  0  0  0  0  0  0  0  0
   57.1811   32.4179   44.0529 H   0  0  0  0  0  0  0  0  0  0  0  0
   58.2238   31.0898   43.3531 H   0  0  0  0  0  0  0  0  0  0  0  0
   55.6122   30.9153   44.8348 H   0  0  0  0  0  0  0  0  0  0  0  0
   56.2148   30.0607   43.3307 H   0  0  0  0  0  0  0  0  0  0  0  0
  1  2  2  0
  2  3  1  0
  3  4  1  0
  4  5  2  0
  5  6  1  0
  6  7  2  0
  6  8  1  0
  5  9  1  0
  9 10  1  0
 10 11  1  0
 11 12  1  0
 12 13  2  0
 13 14  1  0
 14 15  2  0
 15 16  1  0
 15 17  1  0
 17 18  1  0
 17 19  2  0
 10 20  1  0
 20 21  1  0
  8  2  1  0
 19 12  1  0
 21  4  1  0
  9 22  1  0
  9 23  1  0
 11 24  1  0
 11 25  1  0
 13 26  1  0
 14 27  1  0
 19 28  1  0
 20 29  1  0
 20 30  1  0
 21 31  1  0
 21 32  1  0
M  CHG  2   3  -1   8  -1
M  END
>  <UniqueID>  (8) 
8

>  <SMILES>  (8) 
O=c1[n-]c2c(c(=O)[n-]1)CN(Cc1ccc(F)c(Br)c1)CC2

>  <Energy>  (8) 
45.137329216263865

>  <Genealogy>  (8) 
O=c1[n-]c2c(c(=O)[n-]1)CN(Cc1ccc(F)c(Br)c1)CC2 (protonated)
O=c1[n-]c2c(c(=O)[n-]1)CN(Cc1ccc(F)c(Br)c1)CC2 (3D coordinates assigned)
O=c1[n-]c2c(c(=O)[n-]1)CN(Cc1ccc(F)c(Br)c1)CC2 (nonaromatic ring conformer: 45.137329216263865 kcal/mol)

>  <smiles>  (8) 
O=c1[nH]c2c(c(=O)[nH]1)CN(Cc1ccc(F)c(Br)c1)CC2

>  <score_type>  (8) 
oracle

>  <origin>  (8) 
adg

>  <m_score__min__energy>  (8) 
-11.609999999999999

>  <m_primary>  (8) 
energy

$$$$
8:0
     RDKit          3D

 43 47  0  0  0  0  0  0  0  0999 V2000
   58.0039   29.2737   43.0939 H   0  0  0  0  0  0  0  0  0  0  0  0
   57.9730   29.6890   44.1120 C   0  0  0  0  0  0  0  0  0  0  0  0
   57.5300   30.8650   44.4280 N   0  0  0  0  0  0  0  0  0  0  0  0
   57.6790   30.9960   45.8120 N   0  0  0  0  0  0  0  0  0  0  0  0
   58.0720   32.0960   46.4660 C   0  0  0  0  0  0  0  0  0  0  0  0
   57.7760   33.3010   46.0870 N   0  0  0  0  0  0  0  0  0  0  0  0
   58.6300   34.4500   46.3650 C   0  0  0  0  0  0  0  0  0  0  0  0
   58.0733   34.8436   47.2282 H   0  0  0  0  0  0  0  0  0  0  0  0
   59.2510   35.0630   45.1240 C   0  0  0  0  0  0  0  0  0  0  0  0
   58.9655   34.6960   44.1271 H   0  0  0  0  0  0  0  0  0  0  0  0
   59.3425   36.0827   44.7218 H   0  0  0  0  0  0  0  0  0  0  0  0
   60.0900   34.1890   46.0460 C   0  0  0  0  0  0  0  0  0  0  0  0
   60.4111   33.1901   45.7157 H   0  0  0  0  0  0  0  0  0  0  0  0
   61.0396   34.3149   46.5868 H   0  0  0  0  0  0  0  0  0  0  0  0
   58.9180   31.8020   47.4770 N   0  0  0  0  0  0  0  0  0  0  0  0
   59.0390   30.4560   47.3630 C   0  0  0  0  0  0  0  0  0  0  0  0
   59.9070   29.8000   48.0790 N   0  0  0  0  0  0  0  0  0  0  0  0
   60.0180   29.7200   49.5260 C   0  0  0  0  0  0  0  0  0  0  0  0
   60.9412   29.1863   49.7961 H   0  0  0  0  0  0  0  0  0  0  0  0
   59.1538   29.1765   49.9355 H   0  0  0  0  0  0  0  0  0  0  0  0
   60.0570   31.1180   50.0940 C   0  0  0  0  0  0  0  0  0  0  0  0
   61.1120   31.9770   49.7390 C   0  0  0  0  0  0  0  0  0  0  0  0
   61.9060   31.6175   49.0679 H   0  0  0  0  0  0  0  0  0  0  0  0
   61.1600   33.2840   50.2320 C   0  0  0  0  0  0  0  0  0  0  0  0
   62.4870   34.3420   49.7860 Cl  0  0  0  0  0  0  0  0  0  0  0  0
   60.1500   33.7510   51.0770 C   0  0  0  0  0  0  0  0  0  0  0  0
   60.1913   34.7788   51.4668 H   0  0  0  0  0  0  0  0  0  0  0  0
   59.0890   32.9150   51.4270 C   0  0  0  0  0  0  0  0  0  0  0  0
   58.2945   33.2879   52.0901 H   0  0  0  0  0  0  0  0  0  0  0  0
   59.0300   31.6020   50.9380 C   0  0  0  0  0  0  0  0  0  0  0  0
   57.9050   30.7750   51.3080 C   0  0  0  0  0  0  0  0  0  0  0  0
   57.0060   30.1110   51.6060 N   0  0  0  0  0  0  0  0  0  0  0  0
   58.2400   29.9530   46.3760 N   0  0  0  0  0  0  0  0  0  0  0  0
   58.4300   28.9930   45.3320 C   0  0  0  0  0  0  0  0  0  0  0  0
   58.4310   27.6630   45.5020 C   0  0  0  0  0  0  0  0  0  0  0  0
   59.3957   27.1375   45.4447 H   0  0  0  0  0  0  0  0  0  0  0  0
   57.2210   26.8590   45.7610 C   0  0  0  0  0  0  0  0  0  0  0  0
   57.2090   25.5940   46.2220 N   0  0  0  0  0  0  0  0  0  0  0  0
   55.8930   25.3210   46.3530 C   0  0  0  0  0  0  0  0  0  0  0  0
   55.4700   24.2080   46.7600 O   0  0  0  0  0  0  0  0  0  0  0  0
   55.0680   26.3340   46.0170 N   0  0  0  0  0  0  0  0  0  0  0  0
   55.9240   27.3010   45.6520 C   0  0  0  0  0  0  0  0  0  0  0  0
   55.5290   28.5640   45.2290 O   0  0  0  0  0  0  0  0  0  0  0  0
  1  2  1  0
  2  3  2  0
  3  4  1  0
  4  5  1  0
  5  6  2  0
  6  7  1  0
  7  8  1  0
  7  9  1  0
  9 10  1  0
  9 11  1  0
  9 12  1  0
 12 13  1  0
 12 14  1  0
  5 15  1  0
 15 16  1  0
 16 17  2  3
 17 18  1  0
 18 19  1  0
 18 20  1  0
 18 21  1  0
 21 22  2  0
 22 23  1  0
 22 24  1  0
 24 25  1  0
 24 26  2  0
 26 27  1  0
 26 28  1  0
 28 29  1  0
 28 30  2  0
 30 31  1  0
 31 32  3  0
 16 33  1  0
 33 34  1  0
 34 35  2  3
 35 36  1  0
 35 37  1  0
 37 38  1  0
 38 39  1  0
 39 40  2  0
 39 41  1  0
 41 42  1  0
 42 43  1  0
 34  2  1  0
 42 37  2  0
 33  4  1  0
 12  7  1  0
 30 21  1  0
M  CHG  4  15  -1  38  -1  41  -1  43  -1
M  END
>  <UniqueID>  (9) 
9

>  <SMILES>  (9) 
N#Cc1ccc(Cl)cc1CN=c1[n-]/c(=N\C2CC2)n2n1C(=Cc1[n-]c(=O)[n-]c1[O-])C=N2

>  <Energy>  (9) 
446.6166680933209

>  <Genealogy>  (9) 
N#Cc1ccc(Cl)cc1CN=c1[n-]c(=NC2CC2)n2n1C(=Cc1[n-]c(=O)[n-]c1[O-])C=N2 (protonated)
N#Cc1ccc(Cl)cc1CN=c1[n-]/c(=N\C2CC2)n2n1C(=Cc1[n-]c(=O)[n-]c1[O-])C=N2 (cis-trans isomerization)
N#Cc1ccc(Cl)cc1CN=c1[n-]/c(=N\C2CC2)n2n1C(=Cc1[n-]c(=O)[n-]c1[O-])C=N2 (3D coordinates assigned)
N#Cc1ccc(Cl)cc1CN=c1[n-]/c(=N\C2CC2)n2n1C(=Cc1[n-]c(=O)[n-]c1[O-])C=N2 (nonaromatic ring conformer: 446.6166680933209 kcal/mol)

>  <smiles>  (9) 
N#Cc1ccc(Cl)cc1CN=c1[nH]c(=NC2CC2)n2n1C(=Cc1[nH]c(=O)[nH]c1O)C=N2

>  <score_type>  (9) 
oracle

>  <origin>  (9) 
adg

>  <m_score__min__energy>  (9) 
-17.149999999999999

>  <m_primary>  (9) 
energy

$$$$
9:0
     RDKit          3D

 38 40  0  0  0  0  0  0  0  0999 V2000
   64.6690   32.3680   46.8490 H   0  0  0  0  0  0  0  0  0  0  0  0
   63.7310   32.1630   47.1020 O   0  0  0  0  0  0  0  0  0  0  0  0
   63.0310   33.3760   47.0600 C   0  0  0  0  0  0  0  0  0  0  0  0
   63.0043   33.7454   46.0242 H   0  0  0  0  0  0  0  0  0  0  0  0
   63.5391   34.1084   47.7045 H   0  0  0  0  0  0  0  0  0  0  0  0
   61.6240   33.1760   47.5540 C   0  0  0  0  0  0  0  0  0  0  0  0
   61.1450   33.9200   48.6430 C   0  0  0  0  0  0  0  0  0  0  0  0
   61.7870   34.6797   49.1129 H   0  0  0  0  0  0  0  0  0  0  0  0
   59.8560   33.6990   49.1320 C   0  0  0  0  0  0  0  0  0  0  0  0
   59.4837   34.2879   49.9832 H   0  0  0  0  0  0  0  0  0  0  0  0
   59.0380   32.7320   48.5430 C   0  0  0  0  0  0  0  0  0  0  0  0
   58.0264   32.5582   48.9385 H   0  0  0  0  0  0  0  0  0  0  0  0
   59.4970   31.9810   47.4510 C   0  0  0  0  0  0  0  0  0  0  0  0
   58.6510   30.9660   46.8850 N   0  0  0  0  0  0  0  0  0  0  0  0
   57.6990   31.2440   46.5540 H   0  0  0  0  0  0  0  0  0  0  0  0
   59.0350   29.5880   46.7360 C   0  0  0  0  0  0  0  0  0  0  0  0
   59.8620   28.9830   47.6990 C   0  0  0  0  0  0  0  0  0  0  0  0
   60.1339   29.5368   48.6097 H   0  0  0  0  0  0  0  0  0  0  0  0
   60.3410   27.6850   47.5090 C   0  0  0  0  0  0  0  0  0  0  0  0
   60.9713   27.2133   48.2772 H   0  0  0  0  0  0  0  0  0  0  0  0
   60.0200   26.9870   46.3450 C   0  0  0  0  0  0  0  0  0  0  0  0
   60.4079   25.9694   46.1902 H   0  0  0  0  0  0  0  0  0  0  0  0
   59.2070   27.5780   45.3760 C   0  0  0  0  0  0  0  0  0  0  0  0
   58.9697   27.0278   44.4535 H   0  0  0  0  0  0  0  0  0  0  0  0
   58.6910   28.8660   45.5690 C   0  0  0  0  0  0  0  0  0  0  0  0
   57.8400   29.4190   44.5550 N   0  0  0  0  0  0  0  0  0  0  0  0
   56.4800   29.8150   44.7580 C   0  0  0  0  0  0  0  0  0  0  0  0
   55.5770   28.9400   44.8700 O   0  0  0  0  0  0  0  0  0  0  0  0
   56.1620   31.2130   44.7910 N   0  0  0  0  0  0  0  0  0  0  0  0
   57.0180   32.1920   44.7590 C   0  0  0  0  0  0  0  0  0  0  0  0
   57.1210   33.1480   45.7080 N   0  0  0  0  0  0  0  0  0  0  0  0
   58.1080   34.0360   45.4140 C   0  0  0  0  0  0  0  0  0  0  0  0
   58.3486   34.8889   46.0657 H   0  0  0  0  0  0  0  0  0  0  0  0
   58.7910   33.7860   44.2280 C   0  0  0  0  0  0  0  0  0  0  0  0
   59.6162   34.3880   43.8197 H   0  0  0  0  0  0  0  0  0  0  0  0
   58.1370   32.4040   43.5260 S   0  0  0  0  0  0  0  0  0  0  0  0
   60.8040   32.1950   46.9730 C   0  0  0  0  0  0  0  0  0  0  0  0
   61.1858   31.5891   46.1380 H   0  0  0  0  0  0  0  0  0  0  0  0
  1  2  1  0
  2  3  1  0
  3  4  1  0
  3  5  1  0
  3  6  1  0
  6  7  2  0
  7  8  1  0
  7  9  1  0
  9 10  1  0
  9 11  2  0
 11 12  1  0
 11 13  1  0
 13 14  1  0
 14 15  1  0
 14 16  1  0
 16 17  2  0
 17 18  1  0
 17 19  1  0
 19 20  1  0
 19 21  2  0
 21 22  1  0
 21 23  1  0
 23 24  1  0
 23 25  2  0
 25 26  1  0
 26 27  1  0
 27 28  2  0
 27 29  1  0
 29 30  2  0
 30 31  1  0
 31 32  1  0
 32 33  1  0
 32 34  2  0
 34 35  1  0
 34 36  1  0
 13 37  2  0
 37 38  1  0
 37  6  1  0
 25 16  1  0
 36 30  1  0
M  CHG  2  26  -1  31  -1
M  END
>  <UniqueID>  (10) 
10

>  <SMILES>  (10) 
O=C(/N=c1\[n-]ccs1)[N-]c1ccccc1Nc1cccc(CO)c1

>  <Energy>  (10) 
82.36616878608886

>  <Genealogy>  (10) 
O=C(N=c1[n-]ccs1)[N-]c1ccccc1Nc1cccc(CO)c1 (protonated)
O=C(/N=c1\[n-]ccs1)[N-]c1ccccc1Nc1cccc(CO)c1 (cis-trans isomerization)
O=C(/N=c1\[n-]ccs1)[N-]c1ccccc1Nc1cccc(CO)c1 (3D coordinates assigned)
O=C(/N=c1\[n-]ccs1)[N-]c1ccccc1Nc1cccc(CO)c1 (optimized conformer: 82.36616878608886 kcal/mol)

>  <smiles>  (10) 
O=C(N=c1[nH]ccs1)Nc1ccccc1Nc1cccc(CO)c1

>  <score_type>  (10) 
oracle

>  <origin>  (10) 
adg

>  <m_score__min__energy>  (10) 
-10.15

>  <m_primary>  (10) 
energy

$$$$
10:0
     RDKit          3D

 44 46  0  0  0  0  0  0  0  0999 V2000
   60.2900   30.9310   49.6950 C   0  0  0  0  0  0  0  0  0  0  0  0
   59.6370   31.9790   48.4100 S   0  0  0  0  0  0  0  0  0  0  0  0
   58.1380   32.0000   48.5410 O   0  0  0  0  0  0  0  0  0  0  0  0
   60.0050   31.4100   47.0670 O   0  0  0  0  0  0  0  0  0  0  0  0
   60.2820   33.5990   48.5780 N   0  0  0  0  0  0  0  0  0  0  0  0
   61.5530   33.7030   47.8370 C   0  0  0  0  0  0  0  0  0  0  0  0
   62.7160   33.6020   48.7820 C   0  0  0  0  0  0  0  0  0  0  0  0
   63.8190   32.7930   48.4690 C   0  0  0  0  0  0  0  0  0  0  0  0
   64.8820   32.7080   49.3700 C   0  0  0  0  0  0  0  0  0  0  0  0
   64.8370   33.4240   50.5670 C   0  0  0  0  0  0  0  0  0  0  0  0
   63.7240   34.2190   50.8460 C   0  0  0  0  0  0  0  0  0  0  0  0
   62.6960   34.2890   49.9570 N   0  0  0  0  0  0  0  0  0  0  0  0
   59.3030   34.5880   48.0880 C   0  0  0  0  0  0  0  0  0  0  0  0
   59.1140   34.4340   46.6130 C   0  0  0  0  0  0  0  0  0  0  0  0
   58.5630   33.3620   46.0200 N   0  0  0  0  0  0  0  0  0  0  0  0
   58.6200   33.6890   44.7150 C   0  0  0  0  0  0  0  0  0  0  0  0
   58.1570   32.8000   43.6050 C   0  0  0  0  0  0  0  0  0  0  0  0
   57.8320   31.4330   44.1400 C   0  0  0  0  0  0  0  0  0  0  0  0
   58.8510   30.6050   44.6410 C   0  0  0  0  0  0  0  0  0  0  0  0
   58.5510   29.3210   45.1060 C   0  0  0  0  0  0  0  0  0  0  0  0
   57.2350   28.8510   45.0650 C   0  0  0  0  0  0  0  0  0  0  0  0
   56.2170   29.6630   44.5570 C   0  0  0  0  0  0  0  0  0  0  0  0
   54.9430   29.2030   44.5110 F   0  0  0  0  0  0  0  0  0  0  0  0
   56.5140   30.9490   44.0900 C   0  0  0  0  0  0  0  0  0  0  0  0
   59.1880   34.8970   44.5270 N   0  0  0  0  0  0  0  0  0  0  0  0
   59.4770   35.3260   45.7220 O   0  0  0  0  0  0  0  0  0  0  0  0
   60.0289   31.3501   50.6780 H   0  0  0  0  0  0  0  0  0  0  0  0
   59.8598   29.9231   49.6001 H   0  0  0  0  0  0  0  0  0  0  0  0
   61.3844   30.8730   49.6001 H   0  0  0  0  0  0  0  0  0  0  0  0
   61.6117   32.8879   47.1007 H   0  0  0  0  0  0  0  0  0  0  0  0
   61.5907   34.6760   47.3252 H   0  0  0  0  0  0  0  0  0  0  0  0
   63.8458   32.2316   47.5234 H   0  0  0  0  0  0  0  0  0  0  0  0
   65.7531   32.0781   49.1369 H   0  0  0  0  0  0  0  0  0  0  0  0
   65.6697   33.3626   51.2831 H   0  0  0  0  0  0  0  0  0  0  0  0
   63.6778   34.7895   51.7854 H   0  0  0  0  0  0  0  0  0  0  0  0
   58.3406   34.4306   48.5968 H   0  0  0  0  0  0  0  0  0  0  0  0
   59.6763   35.6008   48.3001 H   0  0  0  0  0  0  0  0  0  0  0  0
   58.1880   32.4910   46.4600 H   0  0  0  0  0  0  0  0  0  0  0  0
   57.2577   33.2332   43.1428 H   0  0  0  0  0  0  0  0  0  0  0  0
   58.9575   32.7126   42.8556 H   0  0  0  0  0  0  0  0  0  0  0  0
   59.8889   30.9685   44.6674 H   0  0  0  0  0  0  0  0  0  0  0  0
   59.3512   28.6800   45.5045 H   0  0  0  0  0  0  0  0  0  0  0  0
   57.0004   27.8412   45.4329 H   0  0  0  0  0  0  0  0  0  0  0  0
   55.7126   31.5827   43.6825 H   0  0  0  0  0  0  0  0  0  0  0  0
  1  2  1  0
  2  3  2  0
  2  4  2  0
  2  5  1  0
  5  6  1  0
  6  7  1  0
  7  8  2  0
  8  9  1  0
  9 10  2  0
 10 11  1  0
 11 12  2  0
  5 13  1  0
 13 14  1  0
 14 15  2  0
 15 16  1  0
 16 17  1  0
 17 18  1  0
 18 19  2  0
 19 20  1  0
 20 21  2  0
 21 22  1  0
 22 23  1  0
 22 24  2  0
 16 25  2  0
 25 26  1  0
 12  7  1  0
 26 14  1  0
 24 18  1  0
  1 27  1  0
  1 28  1  0
  1 29  1  0
  6 30  1  0
  6 31  1  0
  8 32  1  0
  9 33  1  0
 10 34  1  0
 11 35  1  0
 13 36  1  0
 13 37  1  0
 15 38  1  0
 17 39  1  0
 17 40  1  0
 19 41  1  0
 20 42  1  0
 21 43  1  0
 24 44  1  0
M  CHG  1  15   1
M  END
>  <UniqueID>  (11) 
11

>  <SMILES>  (11) 
CS(=O)(=O)N(Cc1ccccn1)Cc1[nH+]c(Cc2cccc(F)c2)no1

>  <Energy>  (11) 
73.77624450578101

>  <Genealogy>  (11) 
CS(=O)(=O)N(Cc1ccccn1)Cc1[nH+]c(Cc2cccc(F)c2)no1 (protonated)
CS(=O)(=O)N(Cc1ccccn1)Cc1[nH+]c(Cc2cccc(F)c2)no1 (3D coordinates assigned)
CS(=O)(=O)N(Cc1ccccn1)Cc1[nH+]c(Cc2cccc(F)c2)no1 (optimized conformer: 73.77624450578101 kcal/mol)

>  <smiles>  (11) 
CS(=O)(=O)N(Cc1ccccn1)Cc1nc(Cc2cccc(F)c2)no1

>  <score_type>  (11) 
oracle

>  <origin>  (11) 
adg

>  <m_score__min__energy>  (11) 
-8.3599999999999994

>  <m_primary>  (11) 
energy

$$$$
11:0
     RDKit          3D

 31 33  0  0  0  0  0  0  0  0999 V2000
   57.7750   27.3480   42.8020 C   0  0  0  0  0  0  0  0  0  0  0  0
   57.8260   28.2260   44.0160 C   0  0  0  0  0  0  0  0  0  0  0  0
   58.0340   29.5690   43.9120 N   0  0  0  0  0  0  0  0  0  0  0  0
   58.0280   30.2050   45.1090 C   0  0  0  0  0  0  0  0  0  0  0  0
   58.2210   31.6660   45.2920 C   0  0  0  0  0  0  0  0  0  0  0  0
   57.7760   32.5820   44.3200 C   0  0  0  0  0  0  0  0  0  0  0  0
   57.9630   33.9550   44.5030 C   0  0  0  0  0  0  0  0  0  0  0  0
   58.5980   34.4310   45.6500 C   0  0  0  0  0  0  0  0  0  0  0  0
   59.0510   33.5330   46.6210 C   0  0  0  0  0  0  0  0  0  0  0  0
   59.8500   34.1320   48.0640 Cl  0  0  0  0  0  0  0  0  0  0  0  0
   58.8650   32.1580   46.4430 C   0  0  0  0  0  0  0  0  0  0  0  0
   57.7670   29.0990   46.3540 S   0  0  0  0  0  0  0  0  0  0  0  0
   57.6660   27.7670   45.3290 C   0  0  0  0  0  0  0  0  0  0  0  0
   57.4660   26.3720   45.7790 C   0  0  0  0  0  0  0  0  0  0  0  0
   58.5660   25.5080   45.9050 C   0  0  0  0  0  0  0  0  0  0  0  0
   58.3700   24.2000   46.3500 C   0  0  0  0  0  0  0  0  0  0  0  0
   57.1220   23.7650   46.6650 N   0  0  0  0  0  0  0  0  0  0  0  0
   56.0360   24.5760   46.5610 C   0  0  0  0  0  0  0  0  0  0  0  0
   54.8970   24.1330   46.8640 O   0  0  0  0  0  0  0  0  0  0  0  0
   56.1850   25.8970   46.1170 C   0  0  0  0  0  0  0  0  0  0  0  0
   55.0670   26.7170   45.9980 O   0  0  0  0  0  0  0  0  0  0  0  0
   57.7138   26.2948   43.1135 H   0  0  0  0  0  0  0  0  0  0  0  0
   56.8902   27.6046   42.2008 H   0  0  0  0  0  0  0  0  0  0  0  0
   58.6835   27.5004   42.2008 H   0  0  0  0  0  0  0  0  0  0  0  0
   58.1520   30.0500   42.9930 H   0  0  0  0  0  0  0  0  0  0  0  0
   57.2779   32.2148   43.4106 H   0  0  0  0  0  0  0  0  0  0  0  0
   57.6080   34.6629   43.7395 H   0  0  0  0  0  0  0  0  0  0  0  0
   58.7423   35.5124   45.7905 H   0  0  0  0  0  0  0  0  0  0  0  0
   59.2250   31.4553   47.2089 H   0  0  0  0  0  0  0  0  0  0  0  0
   59.5773   25.8607   45.6541 H   0  0  0  0  0  0  0  0  0  0  0  0
   59.2285   23.5190   46.4460 H   0  0  0  0  0  0  0  0  0  0  0  0
  1  2  1  0
  2  3  1  0
  3  4  2  0
  4  5  1  0
  5  6  2  0
  6  7  1  0
  7  8  2  0
  8  9  1  0
  9 10  1  0
  9 11  2  0
  4 12  1  0
 12 13  1  0
 13 14  1  0
 14 15  1  0
 15 16  2  0
 16 17  1  0
 17 18  1  0
 18 19  2  0
 18 20  1  0
 20 21  1  0
 13  2  2  0
 20 14  2  0
 11  5  1  0
  1 22  1  0
  1 23  1  0
  1 24  1  0
  3 25  1  0
  6 26  1  0
  7 27  1  0
  8 28  1  0
 11 29  1  0
 15 30  1  0
 16 31  1  0
M  CHG  3   3   1  17  -1  21  -1
M  END
>  <UniqueID>  (12) 
12

>  <SMILES>  (12) 
Cc1[nH+]c(-c2cccc(Cl)c2)sc1-c1cc[n-]c(=O)c1[O-]

>  <Energy>  (12) 
71.85596571901448

>  <Genealogy>  (12) 
Cc1[nH+]c(-c2cccc(Cl)c2)sc1-c1cc[n-]c(=O)c1[O-] (protonated)
Cc1[nH+]c(-c2cccc(Cl)c2)sc1-c1cc[n-]c(=O)c1[O-] (3D coordinates assigned)
Cc1[nH+]c(-c2cccc(Cl)c2)sc1-c1cc[n-]c(=O)c1[O-] (optimized conformer: 71.85596571901448 kcal/mol)

>  <smiles>  (12) 
Cc1nc(-c2cccc(Cl)c2)sc1-c1cc[nH]c(=O)c1O

>  <score_type>  (12) 
oracle

>  <origin>  (12) 
adg

>  <m_score__min__energy>  (12) 
-12.44

>  <m_primary>  (12) 
energy

$$$$
12:0
     RDKit          3D

 50 54  0  0  0  0  0  0  0  0999 V2000
   56.8840   29.6740   42.9090 O   0  0  0  0  0  0  0  0  0  0  0  0
   56.6910   29.9960   44.3650 S   0  0  0  0  0  0  0  0  0  0  0  0
   55.4270   29.3340   44.8330 O   0  0  0  0  0  0  0  0  0  0  0  0
   56.5330   31.7120   44.5450 N   0  0  0  0  0  0  0  0  0  0  0  0
   57.5520   32.5370   45.1190 C   0  0  0  0  0  0  0  0  0  0  0  0
   58.3060   33.4170   44.3320 C   0  0  0  0  0  0  0  0  0  0  0  0
   59.2990   34.2040   44.9160 C   0  0  0  0  0  0  0  0  0  0  0  0
   59.5370   34.1300   46.2910 C   0  0  0  0  0  0  0  0  0  0  0  0
   58.7730   33.2690   47.0980 C   0  0  0  0  0  0  0  0  0  0  0  0
   59.0260   33.1800   48.5550 C   0  0  0  0  0  0  0  0  0  0  0  0
   58.2410   32.4540   49.3980 N   0  0  0  0  0  0  0  0  0  0  0  0
   58.8260   32.6490   50.5880 C   0  0  0  0  0  0  0  0  0  0  0  0
   58.4350   32.1430   51.8250 C   0  0  0  0  0  0  0  0  0  0  0  0
   59.2040   32.4980   52.9490 C   0  0  0  0  0  0  0  0  0  0  0  0
   60.3340   33.3370   52.8060 C   0  0  0  0  0  0  0  0  0  0  0  0
   60.6990   33.8290   51.5390 C   0  0  0  0  0  0  0  0  0  0  0  0
   59.9110   33.4600   50.4510 C   0  0  0  0  0  0  0  0  0  0  0  0
   60.0640   33.8150   49.1670 N   0  0  0  0  0  0  0  0  0  0  0  0
   57.7730   32.4810   46.5000 C   0  0  0  0  0  0  0  0  0  0  0  0
   58.0670   29.3790   45.2680 C   0  0  0  0  0  0  0  0  0  0  0  0
   59.0740   28.6550   44.6160 C   0  0  0  0  0  0  0  0  0  0  0  0
   60.1320   28.1130   45.3480 C   0  0  0  0  0  0  0  0  0  0  0  0
   60.1810   28.2740   46.7340 C   0  0  0  0  0  0  0  0  0  0  0  0
   59.1680   28.9850   47.4020 C   0  0  0  0  0  0  0  0  0  0  0  0
   59.1720   29.1250   48.8300 N   0  0  0  0  0  0  0  0  0  0  0  0
   60.6300   29.3740   49.7350 S   0  0  0  0  0  0  0  0  0  0  0  0
   61.4380   28.1080   49.7410 O   0  0  0  0  0  0  0  0  0  0  0  0
   60.2870   29.7440   51.1500 O   0  0  0  0  0  0  0  0  0  0  0  0
   61.5760   30.6450   48.9800 C   0  0  0  0  0  0  0  0  0  0  0  0
   62.5090   31.4530   49.6110 C   0  0  0  0  0  0  0  0  0  0  0  0
   63.0560   32.4220   48.7610 C   0  0  0  0  0  0  0  0  0  0  0  0
   62.5530   32.3750   47.4660 C   0  0  0  0  0  0  0  0  0  0  0  0
   61.4240   31.1300   47.3790 S   0  0  0  0  0  0  0  0  0  0  0  0
   58.1250   29.5520   46.6560 C   0  0  0  0  0  0  0  0  0  0  0  0
   58.1147   33.4877   43.2511 H   0  0  0  0  0  0  0  0  0  0  0  0
   59.8965   34.8850   44.2921 H   0  0  0  0  0  0  0  0  0  0  0  0
   60.3259   34.7484   46.7440 H   0  0  0  0  0  0  0  0  0  0  0  0
   57.5559   31.4887   51.9203 H   0  0  0  0  0  0  0  0  0  0  0  0
   58.9249   32.1211   53.9440 H   0  0  0  0  0  0  0  0  0  0  0  0
   60.9307   33.6063   53.6900 H   0  0  0  0  0  0  0  0  0  0  0  0
   61.5753   34.4817   51.4123 H   0  0  0  0  0  0  0  0  0  0  0  0
   57.1589   31.8145   47.1235 H   0  0  0  0  0  0  0  0  0  0  0  0
   59.0309   28.5135   43.5260 H   0  0  0  0  0  0  0  0  0  0  0  0
   60.9289   27.5578   44.8316 H   0  0  0  0  0  0  0  0  0  0  0  0
   61.0157   27.8428   47.3061 H   0  0  0  0  0  0  0  0  0  0  0  0
   58.3200   28.8590   49.3700 H   0  0  0  0  0  0  0  0  0  0  0  0
   62.7903   31.3443   50.6689 H   0  0  0  0  0  0  0  0  0  0  0  0
   63.8121   33.1513   49.0871 H   0  0  0  0  0  0  0  0  0  0  0  0
   62.8436   33.0389   46.6385 H   0  0  0  0  0  0  0  0  0  0  0  0
   57.3457   30.1377   47.1656 H   0  0  0  0  0  0  0  0  0  0  0  0
  1  2  2  0
  2  3  2  0
  2  4  1  0
  4  5  1  0
  5  6  2  0
  6  7  1  0
  7  8  2  0
  8  9  1  0
  9 10  1  0
 10 11  2  0
 11 12  1  0
 12 13  2  0
 13 14  1  0
 14 15  2  0
 15 16  1  0
 16 17  2  0
 17 18  1  0
  9 19  2  0
  2 20  1  0
 20 21  2  0
 21 22  1  0
 22 23  2  0
 23 24  1  0
 24 25  1  0
 25 26  1  0
 26 27  2  0
 26 28  2  0
 26 29  1  0
 29 30  2  0
 30 31  1  0
 31 32  2  0
 32 33  1  0
 24 34  2  0
 19  5  1  0
 34 20  1  0
 18 10  1  0
 33 29  1  0
 17 12  1  0
  6 35  1  0
  7 36  1  0
  8 37  1  0
 13 38  1  0
 14 39  1  0
 15 40  1  0
 16 41  1  0
 19 42  1  0
 21 43  1  0
 22 44  1  0
 23 45  1  0
 25 46  1  0
 30 47  1  0
 31 48  1  0
 32 49  1  0
 34 50  1  0
M  CHG  2   4  -1  18  -1
M  END
>  <UniqueID>  (13) 
13

>  <SMILES>  (13) 
O=S(=O)([N-]c1cccc(-c2nc3ccccc3[n-]2)c1)c1cccc(NS(=O)(=O)c2cccs2)c1

>  <Energy>  (13) 
128.5069483939791

>  <Genealogy>  (13) 
O=S(=O)([N-]c1cccc(-c2nc3ccccc3[n-]2)c1)c1cccc(NS(=O)(=O)c2cccs2)c1 (protonated)
O=S(=O)([N-]c1cccc(-c2nc3ccccc3[n-]2)c1)c1cccc(NS(=O)(=O)c2cccs2)c1 (3D coordinates assigned)
O=S(=O)([N-]c1cccc(-c2nc3ccccc3[n-]2)c1)c1cccc(NS(=O)(=O)c2cccs2)c1 (optimized conformer: 128.5069483939791 kcal/mol)

>  <smiles>  (13) 
O=S(=O)(Nc1cccc(-c2nc3ccccc3[nH]2)c1)c1cccc(NS(=O)(=O)c2cccs2)c1

>  <score_type>  (13) 
oracle

>  <origin>  (13) 
adg

>  <m_score__min__energy>  (13) 
-12.970000000000001

>  <m_primary>  (13) 
energy

$$$$
13:0
     RDKit          3D

 49 50  0  0  0  0  0  0  0  0999 V2000
   57.9750   26.6760   44.8950 C   0  0  0  0  0  0  0  0  0  0  0  0
   57.4150   27.9540   45.5110 C   0  0  0  0  0  0  0  0  0  0  0  0
   57.8220   29.1340   44.7300 N   0  0  0  0  0  0  0  0  0  0  0  0
   59.2600   29.4180   44.5950 C   0  0  0  0  0  0  0  0  0  0  0  0
   59.8730   29.6640   45.9420 C   0  0  0  0  0  0  0  0  0  0  0  0
   59.9590   28.7140   46.7660 O   0  0  0  0  0  0  0  0  0  0  0  0
   60.3450   30.9740   46.2870 N   0  0  0  0  0  0  0  0  0  0  0  0
   61.3120   31.2460   47.3180 C   0  0  0  0  0  0  0  0  0  0  0  0
   62.3540   32.1750   47.1280 C   0  0  0  0  0  0  0  0  0  0  0  0
   63.2430   32.4600   48.1700 C   0  0  0  0  0  0  0  0  0  0  0  0
   63.0990   31.8300   49.4070 C   0  0  0  0  0  0  0  0  0  0  0  0
   63.9600   32.1100   50.4170 F   0  0  0  0  0  0  0  0  0  0  0  0
   62.0590   30.9200   49.6100 C   0  0  0  0  0  0  0  0  0  0  0  0
   61.1660   30.6330   48.5720 C   0  0  0  0  0  0  0  0  0  0  0  0
   56.8070   30.0480   44.2470 C   0  0  0  0  0  0  0  0  0  0  0  0
   55.7150   30.1450   44.8710 O   0  0  0  0  0  0  0  0  0  0  0  0
   57.0410   30.9360   43.0500 C   0  0  0  0  0  0  0  0  0  0  0  0
   58.2960   32.2300   43.3890 S   0  0  0  0  0  0  0  0  0  0  0  0
   57.3340   33.1720   44.6290 C   0  0  0  0  0  0  0  0  0  0  0  0
   58.1290   33.4300   45.8800 C   0  0  0  0  0  0  0  0  0  0  0  0
   59.1250   34.4190   45.8980 C   0  0  0  0  0  0  0  0  0  0  0  0
   59.8430   34.6790   47.0690 C   0  0  0  0  0  0  0  0  0  0  0  0
   59.5590   33.9700   48.2440 C   0  0  0  0  0  0  0  0  0  0  0  0
   60.3610   34.2140   49.4890 C   0  0  0  0  0  0  0  0  0  0  0  0
   58.5690   32.9780   48.2280 C   0  0  0  0  0  0  0  0  0  0  0  0
   57.8550   32.7140   47.0560 C   0  0  0  0  0  0  0  0  0  0  0  0
   58.2777   25.9851   45.6957 H   0  0  0  0  0  0  0  0  0  0  0  0
   57.2029   26.2001   44.2725 H   0  0  0  0  0  0  0  0  0  0  0  0
   58.8482   26.9211   44.2725 H   0  0  0  0  0  0  0  0  0  0  0  0
   56.3167   27.8946   45.5284 H   0  0  0  0  0  0  0  0  0  0  0  0
   57.8097   28.0547   46.5328 H   0  0  0  0  0  0  0  0  0  0  0  0
   59.7566   28.5577   44.1224 H   0  0  0  0  0  0  0  0  0  0  0  0
   59.3895   30.3169   43.9744 H   0  0  0  0  0  0  0  0  0  0  0  0
   59.9250   31.7860   45.7840 H   0  0  0  0  0  0  0  0  0  0  0  0
   62.4690   32.6782   46.1566 H   0  0  0  0  0  0  0  0  0  0  0  0
   64.0576   33.1825   48.0139 H   0  0  0  0  0  0  0  0  0  0  0  0
   61.9420   30.4285   50.5871 H   0  0  0  0  0  0  0  0  0  0  0  0
   60.3437   29.9219   48.7399 H   0  0  0  0  0  0  0  0  0  0  0  0
   57.3881   30.3160   42.2103 H   0  0  0  0  0  0  0  0  0  0  0  0
   56.0923   31.4378   42.8087 H   0  0  0  0  0  0  0  0  0  0  0  0
   57.0377   34.1366   44.1910 H   0  0  0  0  0  0  0  0  0  0  0  0
   56.4531   32.5729   44.9031 H   0  0  0  0  0  0  0  0  0  0  0  0
   59.3419   34.9930   44.9850 H   0  0  0  0  0  0  0  0  0  0  0  0
   60.6341   35.4433   47.0681 H   0  0  0  0  0  0  0  0  0  0  0  0
   59.7339   34.0232   50.3724 H   0  0  0  0  0  0  0  0  0  0  0  0
   61.2298   33.5395   49.5035 H   0  0  0  0  0  0  0  0  0  0  0  0
   60.7070   35.2581   49.5035 H   0  0  0  0  0  0  0  0  0  0  0  0
   58.3531   32.4049   49.1417 H   0  0  0  0  0  0  0  0  0  0  0  0
   57.0732   31.9401   47.0550 H   0  0  0  0  0  0  0  0  0  0  0  0
  1  2  1  0
  2  3  1  0
  3  4  1  0
  4  5  1  0
  5  6  2  0
  5  7  1  0
  7  8  1  0
  8  9  2  0
  9 10  1  0
 10 11  2  0
 11 12  1  0
 11 13  1  0
 13 14  2  0
  3 15  1  0
 15 16  2  0
 15 17  1  0
 17 18  1  0
 18 19  1  0
 19 20  1  0
 20 21  2  0
 21 22  1  0
 22 23  2  0
 23 24  1  0
 23 25  1  0
 25 26  2  0
 14  8  1  0
 26 20  1  0
  1 27  1  0
  1 28  1  0
  1 29  1  0
  2 30  1  0
  2 31  1  0
  4 32  1  0
  4 33  1  0
  7 34  1  0
  9 35  1  0
 10 36  1  0
 13 37  1  0
 14 38  1  0
 17 39  1  0
 17 40  1  0
 19 41  1  0
 19 42  1  0
 21 43  1  0
 22 44  1  0
 24 45  1  0
 24 46  1  0
 24 47  1  0
 25 48  1  0
 26 49  1  0
M  END
>  <UniqueID>  (14) 
14

>  <SMILES>  (14) 
CCN(CC(=O)Nc1ccc(F)cc1)C(=O)CSCc1ccc(C)cc1

>  <Energy>  (14) 
38.376059715904354

>  <Genealogy>  (14) 
CCN(CC(=O)Nc1ccc(F)cc1)C(=O)CSCc1ccc(C)cc1 (3D coordinates assigned)
CCN(CC(=O)Nc1ccc(F)cc1)C(=O)CSCc1ccc(C)cc1 (optimized conformer: 38.376059715904354 kcal/mol)

>  <smiles>  (14) 
CCN(CC(=O)Nc1ccc(F)cc1)C(=O)CSCc1ccc(C)cc1

>  <score_type>  (14) 
oracle

>  <origin>  (14) 
adg

>  <m_score__min__energy>  (14) 
-8.8499999999999996

>  <m_primary>  (14) 
energy

$$$$
14:0
     RDKit          3D

 44 47  0  0  0  0  0  0  0  0999 V2000
   63.5594   34.1982   46.3903 H   0  0  0  0  0  0  0  0  0  0  0  0
   63.3710   33.4560   47.1800 C   0  0  0  0  0  0  0  0  0  0  0  0
   62.3880   32.5310   47.0220 N   0  0  0  0  0  0  0  0  0  0  0  0
   62.1120   31.5980   47.9770 C   0  0  0  0  0  0  0  0  0  0  0  0
   61.0390   30.6130   47.7330 C   0  0  0  0  0  0  0  0  0  0  0  0
   61.1250   29.4730   48.2620 O   0  0  0  0  0  0  0  0  0  0  0  0
   59.8800   30.9200   46.9490 N   0  0  0  0  0  0  0  0  0  0  0  0
   59.4420   32.2420   46.6100 C   0  0  0  0  0  0  0  0  0  0  0  0
   58.4940   32.5610   45.6530 C   0  0  0  0  0  0  0  0  0  0  0  0
   57.7340   31.6150   44.8010 C   0  0  0  0  0  0  0  0  0  0  0  0
   57.1390   30.5260   45.3600 N   0  0  0  0  0  0  0  0  0  0  0  0
   56.4680   29.6120   44.6000 C   0  0  0  0  0  0  0  0  0  0  0  0
   55.9410   28.5480   45.1310 N   0  0  0  0  0  0  0  0  0  0  0  0
   56.6580   27.4370   45.6900 C   0  0  0  0  0  0  0  0  0  0  0  0
   58.0490   27.4950   45.8900 C   0  0  0  0  0  0  0  0  0  0  0  0
   58.6084   28.3943   45.5928 H   0  0  0  0  0  0  0  0  0  0  0  0
   58.7230   26.4140   46.4650 C   0  0  0  0  0  0  0  0  0  0  0  0
   59.8134   26.4573   46.6037 H   0  0  0  0  0  0  0  0  0  0  0  0
   58.0130   25.2780   46.8640 C   0  0  0  0  0  0  0  0  0  0  0  0
   58.5455   24.4233   47.3066 H   0  0  0  0  0  0  0  0  0  0  0  0
   56.6250   25.2290   46.7000 C   0  0  0  0  0  0  0  0  0  0  0  0
   56.0648   24.3397   47.0245 H   0  0  0  0  0  0  0  0  0  0  0  0
   55.9480   26.3090   46.1240 C   0  0  0  0  0  0  0  0  0  0  0  0
   54.6010   26.2520   45.9750 F   0  0  0  0  0  0  0  0  0  0  0  0
   56.3920   29.7860   43.2560 N   0  0  0  0  0  0  0  0  0  0  0  0
   56.9550   30.8650   42.6550 C   0  0  0  0  0  0  0  0  0  0  0  0
   56.8695   30.9948   41.5660 H   0  0  0  0  0  0  0  0  0  0  0  0
   57.6410   31.8080   43.4170 C   0  0  0  0  0  0  0  0  0  0  0  0
   58.1005   32.6868   42.9411 H   0  0  0  0  0  0  0  0  0  0  0  0
   58.3430   33.9050   45.6700 N   0  0  0  0  0  0  0  0  0  0  0  0
   57.4400   34.7220   44.8670 C   0  0  0  0  0  0  0  0  0  0  0  0
   56.7897   35.3104   45.5310 H   0  0  0  0  0  0  0  0  0  0  0  0
   58.0273   35.4019   44.2322 H   0  0  0  0  0  0  0  0  0  0  0  0
   56.8221   34.0698   44.2322 H   0  0  0  0  0  0  0  0  0  0  0  0
   59.1900   34.3650   46.6150 C   0  0  0  0  0  0  0  0  0  0  0  0
   59.3017   35.4278   46.8756 H   0  0  0  0  0  0  0  0  0  0  0  0
   59.8820   33.3700   47.2010 N   0  0  0  0  0  0  0  0  0  0  0  0
   60.6040   33.4660   47.9490 H   0  0  0  0  0  0  0  0  0  0  0  0
   62.8840   31.5670   49.1520 C   0  0  0  0  0  0  0  0  0  0  0  0
   62.6919   30.8052   49.9219 H   0  0  0  0  0  0  0  0  0  0  0  0
   63.8960   32.5110   49.3330 C   0  0  0  0  0  0  0  0  0  0  0  0
   64.4986   32.5033   50.2532 H   0  0  0  0  0  0  0  0  0  0  0  0
   64.1420   33.4650   48.3440 C   0  0  0  0  0  0  0  0  0  0  0  0
   64.9345   34.2156   48.4802 H   0  0  0  0  0  0  0  0  0  0  0  0
  1  2  1  0
  2  3  2  0
  3  4  1  0
  4  5  1  0
  5  6  2  0
  5  7  1  0
  7  8  1  0
  8  9  2  0
  9 10  1  0
 10 11  2  0
 11 12  1  0
 12 13  2  0
 13 14  1  0
 14 15  2  0
 15 16  1  0
 15 17  1  0
 17 18  1  0
 17 19  2  0
 19 20  1  0
 19 21  1  0
 21 22  1  0
 21 23  2  0
 23 24  1  0
 12 25  1  0
 25 26  1  0
 26 27  1  0
 26 28  2  0
 28 29  1  0
  9 30  1  0
 30 31  1  0
 31 32  1  0
 31 33  1  0
 31 34  1  0
 30 35  1  0
 35 36  1  0
 35 37  2  0
 37 38  1  0
  4 39  2  0
 39 40  1  0
 39 41  1  0
 41 42  1  0
 41 43  2  0
 43 44  1  0
 43  2  1  0
 37  8  1  0
 28 10  1  0
 23 14  1  0
M  CHG  3   7  -1  25  -1  37   1
M  END
>  <UniqueID>  (15) 
15

>  <SMILES>  (15) 
Cn1c[nH+]c([N-]C(=O)c2ccccn2)c1-c1cc[n-]/c(=N/c2ccccc2F)n1

>  <Energy>  (15) 
96.14475864693102

>  <Genealogy>  (15) 
Cn1c[nH+]c([N-]C(=O)c2ccccn2)c1-c1cc[n-]c(=Nc2ccccc2F)n1 (protonated)
Cn1c[nH+]c([N-]C(=O)c2ccccn2)c1-c1cc[n-]/c(=N/c2ccccc2F)n1 (cis-trans isomerization)
Cn1c[nH+]c([N-]C(=O)c2ccccn2)c1-c1cc[n-]/c(=N/c2ccccc2F)n1 (3D coordinates assigned)
Cn1c[nH+]c([N-]C(=O)c2ccccn2)c1-c1cc[n-]/c(=N/c2ccccc2F)n1 (optimized conformer: 96.14475864693102 kcal/mol)

>  <smiles>  (15) 
Cn1cnc(NC(=O)c2ccccn2)c1-c1cc[nH]c(=Nc2ccccc2F)n1

>  <score_type>  (15) 
oracle

>  <origin>  (15) 
adg

>  <m_score__min__energy>  (15) 
-10.33

>  <m_primary>  (15) 
energy

$$$$
15:0
     RDKit          3D

 42 45  0  0  0  0  0  0  0  0999 V2000
   58.1710   32.3490   42.7850 O   0  0  0  0  0  0  0  0  0  0  0  0
   58.1820   32.1380   44.0290 C   0  0  0  0  0  0  0  0  0  0  0  0
   58.6620   33.2110   44.9370 C   0  0  0  0  0  0  0  0  0  0  0  0
   59.1250   34.4270   44.4070 C   0  0  0  0  0  0  0  0  0  0  0  0
   59.5580   35.4490   45.2550 C   0  0  0  0  0  0  0  0  0  0  0  0
   59.5140   35.2780   46.6400 C   0  0  0  0  0  0  0  0  0  0  0  0
   59.0210   34.0910   47.1900 C   0  0  0  0  0  0  0  0  0  0  0  0
   58.9930   33.9490   48.6180 N   0  0  0  0  0  0  0  0  0  0  0  0
   60.1050   33.6310   49.4670 C   0  0  0  0  0  0  0  0  0  0  0  0
   59.9450   33.6910   50.7150 O   0  0  0  0  0  0  0  0  0  0  0  0
   61.3960   33.1650   48.9110 C   0  0  0  0  0  0  0  0  0  0  0  0
   61.4120   32.0690   48.1000 N   0  0  0  0  0  0  0  0  0  0  0  0
   62.5580   31.5930   47.5470 C   0  0  0  0  0  0  0  0  0  0  0  0
   63.7750   32.2250   47.8080 C   0  0  0  0  0  0  0  0  0  0  0  0
   63.7960   33.3460   48.6380 C   0  0  0  0  0  0  0  0  0  0  0  0
   62.6080   33.8240   49.1970 C   0  0  0  0  0  0  0  0  0  0  0  0
   62.6430   34.9540   50.0090 O   0  0  0  0  0  0  0  0  0  0  0  0
   58.6160   33.0510   46.3340 C   0  0  0  0  0  0  0  0  0  0  0  0
   57.6950   30.8320   44.5320 C   0  0  0  0  0  0  0  0  0  0  0  0
   56.3430   30.4730   44.4100 C   0  0  0  0  0  0  0  0  0  0  0  0
   55.8890   29.2410   44.8840 C   0  0  0  0  0  0  0  0  0  0  0  0
   56.7780   28.3460   45.5040 C   0  0  0  0  0  0  0  0  0  0  0  0
   56.3390   27.0970   45.9880 C   0  0  0  0  0  0  0  0  0  0  0  0
   55.0070   26.7130   45.8580 O   0  0  0  0  0  0  0  0  0  0  0  0
   57.2460   26.2270   46.6040 C   0  0  0  0  0  0  0  0  0  0  0  0
   56.8160   24.9940   47.0820 O   0  0  0  0  0  0  0  0  0  0  0  0
   58.5880   26.5920   46.7440 C   0  0  0  0  0  0  0  0  0  0  0  0
   59.0350   27.8270   46.2690 C   0  0  0  0  0  0  0  0  0  0  0  0
   58.1390   28.7110   45.6480 C   0  0  0  0  0  0  0  0  0  0  0  0
   58.5850   29.9520   45.1670 C   0  0  0  0  0  0  0  0  0  0  0  0
   59.1467   34.5752   43.3172 H   0  0  0  0  0  0  0  0  0  0  0  0
   59.9347   36.3912   44.8304 H   0  0  0  0  0  0  0  0  0  0  0  0
   59.8691   36.0815   47.3020 H   0  0  0  0  0  0  0  0  0  0  0  0
   62.5269   30.7090   46.8931 H   0  0  0  0  0  0  0  0  0  0  0  0
   64.7065   31.8435   47.3644 H   0  0  0  0  0  0  0  0  0  0  0  0
   64.7480   33.8537   48.8524 H   0  0  0  0  0  0  0  0  0  0  0  0
   58.2594   32.1022   46.7615 H   0  0  0  0  0  0  0  0  0  0  0  0
   55.6350   31.1691   43.9365 H   0  0  0  0  0  0  0  0  0  0  0  0
   54.8291   28.9689   44.7716 H   0  0  0  0  0  0  0  0  0  0  0  0
   59.2950   25.9037   47.2303 H   0  0  0  0  0  0  0  0  0  0  0  0
   60.0926   28.1077   46.3819 H   0  0  0  0  0  0  0  0  0  0  0  0
   59.6404   30.2370   45.2887 H   0  0  0  0  0  0  0  0  0  0  0  0
  1  2  2  0
  2  3  1  0
  3  4  2  0
  4  5  1  0
  5  6  2  0
  6  7  1  0
  7  8  1  0
  8  9  1  0
  9 10  2  0
  9 11  1  0
 11 12  2  0
 12 13  1  0
 13 14  2  0
 14 15  1  0
 15 16  2  0
 16 17  1  0
  7 18  2  0
  2 19  1  0
 19 20  2  0
 20 21  1  0
 21 22  2  0
 22 23  1  0
 23 24  1  0
 23 25  2  0
 25 26  1  0
 25 27  1  0
 27 28  2  0
 28 29  1  0
 29 30  2  0
 18  3  1  0
 30 19  1  0
 16 11  1  0
 29 22  1  0
  4 31  1  0
  5 32  1  0
  6 33  1  0
 13 34  1  0
 14 35  1  0
 15 36  1  0
 18 37  1  0
 20 38  1  0
 21 39  1  0
 27 40  1  0
 28 41  1  0
 30 42  1  0
M  CHG  4   8  -1  17  -1  24  -1  26  -1
M  END
>  <UniqueID>  (16) 
16

>  <SMILES>  (16) 
O=C(c1cccc([N-]C(=O)c2ncccc2[O-])c1)c1ccc2c([O-])c([O-])ccc2c1

>  <Energy>  (16) 
64.65141331012205

>  <Genealogy>  (16) 
O=C(c1cccc([N-]C(=O)c2ncccc2[O-])c1)c1ccc2c([O-])c([O-])ccc2c1 (protonated)
O=C(c1cccc([N-]C(=O)c2ncccc2[O-])c1)c1ccc2c([O-])c([O-])ccc2c1 (3D coordinates assigned)
O=C(c1cccc([N-]C(=O)c2ncccc2[O-])c1)c1ccc2c([O-])c([O-])ccc2c1 (optimized conformer: 64.65141331012205 kcal/mol)

>  <smiles>  (16) 
O=C(c1cccc(NC(=O)c2ncccc2O)c1)c1ccc2c(O)c(O)ccc2c1

>  <score_type>  (16) 
oracle

>  <origin>  (16) 
adg

>  <m_score__min__energy>  (16) 
-16.550000000000001

>  <m_primary>  (16) 
energy

$$$$
16:0
     RDKit          3D

 32 33  0  0  0  0  0  0  0  0999 V2000
   57.5750   28.3880   43.7250 N   0  0  0  0  0  0  0  0  0  0  0  0
   56.4940   29.7230   43.9140 S   0  0  0  0  0  0  0  0  0  0  0  0
   55.9020   30.0820   42.5810 O   0  0  0  0  0  0  0  0  0  0  0  0
   55.3800   29.3370   44.8470 O   0  0  0  0  0  0  0  0  0  0  0  0
   57.3700   31.1040   44.5700 C   0  0  0  0  0  0  0  0  0  0  0  0
   58.0360   30.9970   45.7970 C   0  0  0  0  0  0  0  0  0  0  0  0
   58.7440   32.0860   46.3120 C   0  0  0  0  0  0  0  0  0  0  0  0
   58.8040   33.2990   45.5990 C   0  0  0  0  0  0  0  0  0  0  0  0
   59.5300   34.4400   46.0960 N   0  0  0  0  0  0  0  0  0  0  0  0
   59.7890   34.7040   47.5120 C   0  0  0  0  0  0  0  0  0  0  0  0
   61.1520   34.1980   47.9070 C   0  0  0  0  0  0  0  0  0  0  0  0
   62.0310   33.6810   46.9400 C   0  0  0  0  0  0  0  0  0  0  0  0
   63.2930   33.2080   47.3140 C   0  0  0  0  0  0  0  0  0  0  0  0
   64.1370   32.7170   46.3730 F   0  0  0  0  0  0  0  0  0  0  0  0
   63.6840   33.2410   48.6570 C   0  0  0  0  0  0  0  0  0  0  0  0
   64.9080   32.7840   49.0180 F   0  0  0  0  0  0  0  0  0  0  0  0
   62.8100   33.7440   49.6270 C   0  0  0  0  0  0  0  0  0  0  0  0
   63.1850   33.7730   50.9300 F   0  0  0  0  0  0  0  0  0  0  0  0
   61.5470   34.2180   49.2550 C   0  0  0  0  0  0  0  0  0  0  0  0
   58.1340   33.3970   44.3690 C   0  0  0  0  0  0  0  0  0  0  0  0
   57.4270   32.3060   43.8560 C   0  0  0  0  0  0  0  0  0  0  0  0
   57.0080   27.5840   43.3720 H   0  0  0  0  0  0  0  0  0  0  0  0
   58.2430   28.6410   42.9630 H   0  0  0  0  0  0  0  0  0  0  0  0
   58.0017   30.0514   46.3580 H   0  0  0  0  0  0  0  0  0  0  0  0
   59.2577   31.9953   47.2804 H   0  0  0  0  0  0  0  0  0  0  0  0
   59.9410   35.1080   45.4040 H   0  0  0  0  0  0  0  0  0  0  0  0
   59.7400   35.7880   47.6921 H   0  0  0  0  0  0  0  0  0  0  0  0
   59.0300   34.1827   48.1137 H   0  0  0  0  0  0  0  0  0  0  0  0
   61.7250   33.6482   45.8839 H   0  0  0  0  0  0  0  0  0  0  0  0
   60.8607   34.6078   50.0212 H   0  0  0  0  0  0  0  0  0  0  0  0
   58.1658   34.3405   43.8043 H   0  0  0  0  0  0  0  0  0  0  0  0
   56.9134   32.3926   42.8872 H   0  0  0  0  0  0  0  0  0  0  0  0
  1  2  1  0
  2  3  2  0
  2  4  2  0
  2  5  1  0
  5  6  2  0
  6  7  1  0
  7  8  2  0
  8  9  1  0
  9 10  1  0
 10 11  1  0
 11 12  2  0
 12 13  1  0
 13 14  1  0
 13 15  2  0
 15 16  1  0
 15 17  1  0
 17 18  1  0
 17 19  2  0
  8 20  1  0
 20 21  2  0
 21  5  1  0
 19 11  1  0
  1 22  1  0
  1 23  1  0
  6 24  1  0
  7 25  1  0
  9 26  1  0
 10 27  1  0
 10 28  1  0
 12 29  1  0
 19 30  1  0
 20 31  1  0
 21 32  1  0
M  END
>  <UniqueID>  (17) 
17

>  <SMILES>  (17) 
NS(=O)(=O)c1ccc(NCc2cc(F)c(F)c(F)c2)cc1

>  <Energy>  (17) 
30.51574911684453

>  <Genealogy>  (17) 
NS(=O)(=O)c1ccc(NCc2cc(F)c(F)c(F)c2)cc1 (3D coordinates assigned)
NS(=O)(=O)c1ccc(NCc2cc(F)c(F)c(F)c2)cc1 (optimized conformer: 30.51574911684453 kcal/mol)

>  <smiles>  (17) 
NS(=O)(=O)c1ccc(NCc2cc(F)c(F)c(F)c2)cc1

>  <score_type>  (17) 
oracle

>  <origin>  (17) 
adg

>  <m_score__min__energy>  (17) 
-7.7000000000000002

>  <m_primary>  (17) 
energy

$$$$
17:0
     RDKit          3D

 33 34  0  0  0  0  0  0  0  0999 V2000
   59.9132   26.1091   44.4889 H   0  0  0  0  0  0  0  0  0  0  0  0
   59.3260   26.6380   45.2540 C   0  0  0  0  0  0  0  0  0  0  0  0
   59.7250   27.8740   45.5910 C   0  0  0  0  0  0  0  0  0  0  0  0
   60.7479   27.9867   45.9797 H   0  0  0  0  0  0  0  0  0  0  0  0
   58.9000   29.0980   45.4820 C   0  0  0  0  0  0  0  0  0  0  0  0
   57.8760   29.2080   44.5260 C   0  0  0  0  0  0  0  0  0  0  0  0
   57.6629   28.3654   43.8517 H   0  0  0  0  0  0  0  0  0  0  0  0
   57.1280   30.3830   44.4290 C   0  0  0  0  0  0  0  0  0  0  0  0
   56.3154   30.4559   43.6912 H   0  0  0  0  0  0  0  0  0  0  0  0
   57.4080   31.4670   45.2660 C   0  0  0  0  0  0  0  0  0  0  0  0
   56.6520   32.6280   45.1580 O   0  0  0  0  0  0  0  0  0  0  0  0
   58.4450   31.3850   46.2060 C   0  0  0  0  0  0  0  0  0  0  0  0
   58.7100   32.5200   47.0440 N   0  0  0  0  0  0  0  0  0  0  0  0
   59.5070   33.9730   46.5370 S   0  0  0  0  0  0  0  0  0  0  0  0
   59.1050   35.1140   47.4300 O   0  0  0  0  0  0  0  0  0  0  0  0
   60.9960   33.7830   46.5850 O   0  0  0  0  0  0  0  0  0  0  0  0
   59.0210   34.3450   44.8680 C   0  0  0  0  0  0  0  0  0  0  0  0
   58.1476   35.0136   44.8808 H   0  0  0  0  0  0  0  0  0  0  0  0
   59.8533   34.8390   44.3452 H   0  0  0  0  0  0  0  0  0  0  0  0
   58.7614   33.4126   44.3452 H   0  0  0  0  0  0  0  0  0  0  0  0
   59.1960   30.1980   46.3010 C   0  0  0  0  0  0  0  0  0  0  0  0
   60.0224   30.1324   47.0240 H   0  0  0  0  0  0  0  0  0  0  0  0
   58.1610   25.9280   45.8270 C   0  0  0  0  0  0  0  0  0  0  0  0
   58.3030   24.6970   46.4920 C   0  0  0  0  0  0  0  0  0  0  0  0
   59.3016   24.2513   46.6114 H   0  0  0  0  0  0  0  0  0  0  0  0
   57.1810   24.0370   47.0020 C   0  0  0  0  0  0  0  0  0  0  0  0
   57.3300   22.8270   47.6710 O   0  0  0  0  0  0  0  0  0  0  0  0
   55.9080   24.5900   46.8360 C   0  0  0  0  0  0  0  0  0  0  0  0
   55.0269   24.0742   47.2455 H   0  0  0  0  0  0  0  0  0  0  0  0
   55.7540   25.7980   46.1500 C   0  0  0  0  0  0  0  0  0  0  0  0
   54.4880   26.3410   45.9730 O   0  0  0  0  0  0  0  0  0  0  0  0
   56.8760   26.4600   45.6380 C   0  0  0  0  0  0  0  0  0  0  0  0
   56.7500   27.4022   45.0845 H   0  0  0  0  0  0  0  0  0  0  0  0
  1  2  1  0
  2  3  2  0
  3  4  1  0
  3  5  1  0
  5  6  2  0
  6  7  1  0
  6  8  1  0
  8  9  1  0
  8 10  2  0
 10 11  1  0
 10 12  1  0
 12 13  1  0
 13 14  1  0
 14 15  2  0
 14 16  2  0
 14 17  1  0
 17 18  1  0
 17 19  1  0
 17 20  1  0
 12 21  2  0
 21 22  1  0
  2 23  1  0
 23 24  2  0
 24 25  1  0
 24 26  1  0
 26 27  1  0
 26 28  2  0
 28 29  1  0
 28 30  1  0
 30 31  1  0
 30 32  2  0
 32 33  1  0
 21  5  1  0
 32 23  1  0
M  CHG  4  11  -1  13  -1  27  -1  31  -1
M  END
>  <UniqueID>  (18) 
18

>  <SMILES>  (18) 
CS(=O)(=O)[N-]c1cc(/C=C\c2cc([O-])cc([O-])c2)ccc1[O-]

>  <Energy>  (18) 
42.46254495575379

>  <Genealogy>  (18) 
CS(=O)(=O)[N-]c1cc(C=Cc2cc([O-])cc([O-])c2)ccc1[O-] (protonated)
CS(=O)(=O)[N-]c1cc(/C=C\c2cc([O-])cc([O-])c2)ccc1[O-] (cis-trans isomerization)
CS(=O)(=O)[N-]c1cc(/C=C\c2cc([O-])cc([O-])c2)ccc1[O-] (3D coordinates assigned)
CS(=O)(=O)[N-]c1cc(/C=C\c2cc([O-])cc([O-])c2)ccc1[O-] (optimized conformer: 42.46254495575379 kcal/mol)

>  <smiles>  (18) 
CS(=O)(=O)Nc1cc(C=Cc2cc(O)cc(O)c2)ccc1O

>  <score_type>  (18) 
oracle

>  <origin>  (18) 
adg

>  <m_score__min__energy>  (18) 
-15.050000000000001

>  <m_primary>  (18) 
energy

$$$$
18:0
     RDKit          3D

 51 54  0  0  0  0  0  0  0  0999 V2000
   58.3121   33.9524   51.9922 H   0  0  0  0  0  0  0  0  0  0  0  0
   58.9170   33.2320   51.4220 C   0  0  0  0  0  0  0  0  0  0  0  0
   58.3900   32.3220   50.1110 S   0  0  0  0  0  0  0  0  0  0  0  0
   59.8450   31.5210   49.8360 C   0  0  0  0  0  0  0  0  0  0  0  0
   60.0900   30.5090   48.7930 C   0  0  0  0  0  0  0  0  0  0  0  0
   61.2680   30.1100   48.5850 O   0  0  0  0  0  0  0  0  0  0  0  0
   59.0060   29.9960   48.0020 N   0  0  0  0  0  0  0  0  0  0  0  0
   58.0780   30.4740   48.0420 H   0  0  0  0  0  0  0  0  0  0  0  0
   59.1490   28.8690   47.1210 C   0  0  0  0  0  0  0  0  0  0  0  0
   60.0100   27.8200   47.4840 C   0  0  0  0  0  0  0  0  0  0  0  0
   60.6292   27.9115   48.3885 H   0  0  0  0  0  0  0  0  0  0  0  0
   60.0870   26.6620   46.7070 C   0  0  0  0  0  0  0  0  0  0  0  0
   60.7683   25.8490   46.9983 H   0  0  0  0  0  0  0  0  0  0  0  0
   59.3020   26.5360   45.5640 C   0  0  0  0  0  0  0  0  0  0  0  0
   59.3611   25.6213   44.9558 H   0  0  0  0  0  0  0  0  0  0  0  0
   58.4400   27.5680   45.1880 C   0  0  0  0  0  0  0  0  0  0  0  0
   57.8211   27.4589   44.2852 H   0  0  0  0  0  0  0  0  0  0  0  0
   58.3550   28.7470   45.9530 C   0  0  0  0  0  0  0  0  0  0  0  0
   57.4670   29.8410   45.4840 C   0  0  0  0  0  0  0  0  0  0  0  0
   56.2150   29.6970   45.5070 O   0  0  0  0  0  0  0  0  0  0  0  0
   58.0390   31.0600   44.9890 N   0  0  0  0  0  0  0  0  0  0  0  0
   58.6230   32.1050   45.7790 C   0  0  0  0  0  0  0  0  0  0  0  0
   57.7960   33.1220   46.2700 C   0  0  0  0  0  0  0  0  0  0  0  0
   56.7174   33.1005   46.0551 H   0  0  0  0  0  0  0  0  0  0  0  0
   58.3310   34.1640   47.0310 C   0  0  0  0  0  0  0  0  0  0  0  0
   57.6725   34.9565   47.4161 H   0  0  0  0  0  0  0  0  0  0  0  0
   59.7000   34.2020   47.3040 C   0  0  0  0  0  0  0  0  0  0  0  0
   60.1162   35.0169   47.9145 H   0  0  0  0  0  0  0  0  0  0  0  0
   60.5440   33.2030   46.8010 C   0  0  0  0  0  0  0  0  0  0  0  0
   62.2740   33.2520   47.1210 S   0  0  0  0  0  0  0  0  0  0  0  0
   62.8440   31.8730   46.9460 O   0  0  0  0  0  0  0  0  0  0  0  0
   62.9380   34.2060   46.1680 O   0  0  0  0  0  0  0  0  0  0  0  0
   62.5300   33.8010   48.7460 N   0  0  0  0  0  0  0  0  0  0  0  0
   63.5410   33.4590   49.4840 C   0  0  0  0  0  0  0  0  0  0  0  0
   64.5570   32.5580   49.0820 N   0  0  0  0  0  0  0  0  0  0  0  0
   64.6480   32.1090   48.1440 H   0  0  0  0  0  0  0  0  0  0  0  0
   65.5160   32.3900   50.1540 C   0  0  0  0  0  0  0  0  0  0  0  0
   66.5004   32.7739   49.8483 H   0  0  0  0  0  0  0  0  0  0  0  0
   65.6431   31.3289   50.4147 H   0  0  0  0  0  0  0  0  0  0  0  0
   64.9750   33.1990   51.3470 C   0  0  0  0  0  0  0  0  0  0  0  0
   65.7449   33.8960   51.7096 H   0  0  0  0  0  0  0  0  0  0  0  0
   64.7008   32.5324   52.1780 H   0  0  0  0  0  0  0  0  0  0  0  0
   63.7500   33.9810   50.8490 C   0  0  0  0  0  0  0  0  0  0  0  0
   63.9543   35.0617   50.8299 H   0  0  0  0  0  0  0  0  0  0  0  0
   62.8691   33.8556   51.4957 H   0  0  0  0  0  0  0  0  0  0  0  0
   60.0080   32.1650   46.0260 C   0  0  0  0  0  0  0  0  0  0  0  0
   60.6724   31.3939   45.6089 H   0  0  0  0  0  0  0  0  0  0  0  0
   60.7700   31.9610   50.7770 C   0  0  0  0  0  0  0  0  0  0  0  0
   61.8065   31.5957   50.8232 H   0  0  0  0  0  0  0  0  0  0  0  0
   60.2490   32.9170   51.6610 C   0  0  0  0  0  0  0  0  0  0  0  0
   60.8397   33.3747   52.4682 H   0  0  0  0  0  0  0  0  0  0  0  0
  1  2  1  0
  2  3  1  0
  3  4  1  0
  4  5  1  0
  5  6  2  0
  5  7  1  0
  7  8  1  0
  7  9  1  0
  9 10  2  0
 10 11  1  0
 10 12  1  0
 12 13  1  0
 12 14  2  0
 14 15  1  0
 14 16  1  0
 16 17  1  0
 16 18  2  0
 18 19  1  0
 19 20  2  0
 19 21  1  0
 21 22  1  0
 22 23  2  0
 23 24  1  0
 23 25  1  0
 25 26  1  0
 25 27  2  0
 27 28  1  0
 27 29  1  0
 29 30  1  0
 30 31  2  0
 30 32  2  0
 30 33  1  0
 33 34  2  0
 34 35  1  0
 35 36  1  0
 35 37  1  0
 37 38  1  0
 37 39  1  0
 37 40  1  0
 40 41  1  0
 40 42  1  0
 40 43  1  0
 43 44  1  0
 43 45  1  0
 29 46  2  0
 46 47  1  0
  4 48  2  0
 48 49  1  0
 48 50  1  0
 50 51  1  0
 50  2  2  0
 18  9  1  0
 46 22  1  0
 43 34  1  0
M  CHG  1  21  -1
M  END
>  <UniqueID>  (19) 
19

>  <SMILES>  (19) 
O=C(Nc1ccccc1C(=O)[N-]c1cccc(S(=O)(=O)/N=C2/CCCN2)c1)c1cccs1

>  <Energy>  (19) 
100.50813316274599

>  <Genealogy>  (19) 
O=C(Nc1ccccc1C(=O)[N-]c1cccc(S(=O)(=O)N=C2CCCN2)c1)c1cccs1 (protonated)
O=C(Nc1ccccc1C(=O)[N-]c1cccc(S(=O)(=O)/N=C2/CCCN2)c1)c1cccs1 (cis-trans isomerization)
O=C(Nc1ccccc1C(=O)[N-]c1cccc(S(=O)(=O)/N=C2/CCCN2)c1)c1cccs1 (3D coordinates assigned)
O=C(Nc1ccccc1C(=O)[N-]c1cccc(S(=O)(=O)/N=C2/CCCN2)c1)c1cccs1 (nonaromatic ring conformer: 100.50813316274599 kcal/mol)

>  <smiles>  (19) 
O=C(Nc1ccccc1C(=O)Nc1cccc(S(=O)(=O)N=C2CCCN2)c1)c1cccs1

>  <score_type>  (19) 
oracle

>  <origin>  (19) 
adg

>  <m_score__min__energy>  (19) 
-11.59

>  <m_primary>  (19) 
energy

$$$$
19:0
     RDKit          3D

 38 39  0  0  0  0  0  0  0  0999 V2000
   51.4700   24.0500   44.0930 C   0  0  0  0  0  0  0  0  0  0  0  0
   52.6180   23.7870   45.0190 C   0  0  0  0  0  0  0  0  0  0  0  0
   52.8720   22.5990   45.3510 O   0  0  0  0  0  0  0  0  0  0  0  0
   53.3630   24.8540   45.6250 N   0  0  0  0  0  0  0  0  0  0  0  0
   54.6540   25.0330   45.6210 C   0  0  0  0  0  0  0  0  0  0  0  0
   55.5570   24.0730   45.1190 C   0  0  0  0  0  0  0  0  0  0  0  0
   56.9280   24.3300   45.1580 C   0  0  0  0  0  0  0  0  0  0  0  0
   57.4030   25.5380   45.6910 C   0  0  0  0  0  0  0  0  0  0  0  0
   58.8030   25.8410   45.7790 N   0  0  0  0  0  0  0  0  0  0  0  0
   59.3840   27.0920   46.1750 C   0  0  0  0  0  0  0  0  0  0  0  0
   60.2070   27.1270   47.1300 O   0  0  0  0  0  0  0  0  0  0  0  0
   59.0670   28.3020   45.4510 N   0  0  0  0  0  0  0  0  0  0  0  0
   58.2390   28.2510   44.2380 C   0  0  0  0  0  0  0  0  0  0  0  0
   57.3180   29.4690   44.1710 C   0  0  0  0  0  0  0  0  0  0  0  0
   58.0770   30.7010   44.4150 N   0  0  0  0  0  0  0  0  0  0  0  0
   57.7430   31.8980   43.6860 C   0  0  0  0  0  0  0  0  0  0  0  0
   57.7910   33.1830   44.3110 N   0  0  0  0  0  0  0  0  0  0  0  0
   57.3940   31.8200   42.4780 O   0  0  0  0  0  0  0  0  0  0  0  0
   58.9190   30.7600   45.6160 C   0  0  0  0  0  0  0  0  0  0  0  0
   59.8310   29.5330   45.6940 C   0  0  0  0  0  0  0  0  0  0  0  0
   56.4800   26.4430   46.2200 C   0  0  0  0  0  0  0  0  0  0  0  0
   55.1490   26.1750   46.1700 N   0  0  0  0  0  0  0  0  0  0  0  0
   50.5642   24.2575   44.6816 H   0  0  0  0  0  0  0  0  0  0  0  0
   51.7020   24.9183   43.4587 H   0  0  0  0  0  0  0  0  0  0  0  0
   51.3009   23.1673   43.4587 H   0  0  0  0  0  0  0  0  0  0  0  0
   55.1829   23.1275   44.6993 H   0  0  0  0  0  0  0  0  0  0  0  0
   57.6376   23.5843   44.7702 H   0  0  0  0  0  0  0  0  0  0  0  0
   58.8924   28.2413   43.3531 H   0  0  0  0  0  0  0  0  0  0  0  0
   57.6241   27.3392   44.2633 H   0  0  0  0  0  0  0  0  0  0  0  0
   56.8566   29.5196   43.1737 H   0  0  0  0  0  0  0  0  0  0  0  0
   56.5412   29.3707   44.9436 H   0  0  0  0  0  0  0  0  0  0  0  0
   57.5970   34.0430   43.7520 H   0  0  0  0  0  0  0  0  0  0  0  0
   57.9360   33.2850   45.3400 H   0  0  0  0  0  0  0  0  0  0  0  0
   59.5377   31.6688   45.5797 H   0  0  0  0  0  0  0  0  0  0  0  0
   58.2702   30.7772   46.5041 H   0  0  0  0  0  0  0  0  0  0  0  0
   60.6224   29.6225   44.9353 H   0  0  0  0  0  0  0  0  0  0  0  0
   60.2714   29.4830   46.7008 H   0  0  0  0  0  0  0  0  0  0  0  0
   56.8327   27.3780   46.6797 H   0  0  0  0  0  0  0  0  0  0  0  0
  1  2  1  0
  2  3  2  0
  2  4  1  0
  4  5  2  3
  5  6  1  0
  6  7  2  0
  7  8  1  0
  8  9  1  0
  9 10  1  0
 10 11  2  0
 10 12  1  0
 12 13  1  0
 13 14  1  0
 14 15  1  0
 15 16  1  0
 16 17  1  0
 16 18  2  0
 15 19  1  0
 19 20  1  0
  8 21  2  0
 21 22  1  0
 22  5  1  0
 20 12  1  0
  1 23  1  0
  1 24  1  0
  1 25  1  0
  6 26  1  0
  7 27  1  0
 13 28  1  0
 13 29  1  0
 14 30  1  0
 14 31  1  0
 17 32  1  0
 17 33  1  0
 19 34  1  0
 19 35  1  0
 20 36  1  0
 20 37  1  0
 21 38  1  0
M  CHG  2   9  -1  22  -1
M  END
>  <UniqueID>  (20) 
20

>  <SMILES>  (20) 
CC(=O)N=c1ccc([N-]C(=O)N2CCN(C(N)=O)CC2)c[n-]1

>  <Energy>  (20) 
49.53228722936357

>  <Genealogy>  (20) 
CC(=O)N=c1ccc([N-]C(=O)N2CCN(C(N)=O)CC2)c[n-]1 (protonated)
CC(=O)N=c1ccc([N-]C(=O)N2CCN(C(N)=O)CC2)c[n-]1 (3D coordinates assigned)
CC(=O)N=c1ccc([N-]C(=O)N2CCN(C(N)=O)CC2)c[n-]1 (nonaromatic ring conformer: 49.53228722936357 kcal/mol)

>  <smiles>  (20) 
CC(=O)N=c1ccc(NC(=O)N2CCN(C(N)=O)CC2)c[nH]1

>  <score_type>  (20) 
oracle

>  <origin>  (20) 
adg

>  <m_score__min__energy>  (20) 
-10.140000000000001

>  <m_primary>  (20) 
energy

$$$$
20:0
     RDKit          3D

 53 56  0  0  0  0  0  0  0  0999 V2000
   60.7052   25.8137   48.6098 H   0  0  0  0  0  0  0  0  0  0  0  0
   60.2160   26.7480   48.2970 C   0  0  0  0  0  0  0  0  0  0  0  0
   59.4730   26.7760   47.1670 N   0  0  0  0  0  0  0  0  0  0  0  0
   58.8930   27.9160   46.7150 C   0  0  0  0  0  0  0  0  0  0  0  0
   58.1740   27.8690   45.5160 C   0  0  0  0  0  0  0  0  0  0  0  0
   58.0292   26.9059   45.0046 H   0  0  0  0  0  0  0  0  0  0  0  0
   58.6810   33.8730   46.2240 C   0  0  0  0  0  0  0  0  0  0  0  0
   57.3070   34.2050   45.1840 Cl  0  0  0  0  0  0  0  0  0  0  0  0
   57.8580   30.2550   45.6040 C   0  0  0  0  0  0  0  0  0  0  0  0
   57.4643   31.1825   45.1626 H   0  0  0  0  0  0  0  0  0  0  0  0
   58.5740   30.3120   46.8030 C   0  0  0  0  0  0  0  0  0  0  0  0
   58.7736   31.2898   47.2656 H   0  0  0  0  0  0  0  0  0  0  0  0
   59.0460   29.1400   47.4320 C   0  0  0  0  0  0  0  0  0  0  0  0
   59.7310   29.0970   48.6950 C   0  0  0  0  0  0  0  0  0  0  0  0
   59.7750   30.0400   49.6050 N   0  0  0  0  0  0  0  0  0  0  0  0
   58.8170   30.7320   50.4720 C   0  0  0  0  0  0  0  0  0  0  0  0
   58.3759   31.5713   49.9143 H   0  0  0  0  0  0  0  0  0  0  0  0
   58.0483   30.0057   50.7746 H   0  0  0  0  0  0  0  0  0  0  0  0
   59.4810   31.2790   51.7490 C   0  0  0  0  0  0  0  0  0  0  0  0
   59.6374   32.3611   51.6282 H   0  0  0  0  0  0  0  0  0  0  0  0
   58.8115   31.0558   52.5928 H   0  0  0  0  0  0  0  0  0  0  0  0
   60.7780   30.6450   52.0320 N   0  0  0  0  0  0  0  0  0  0  0  0
   60.7240   30.1170   52.9320 H   0  0  0  0  0  0  0  0  0  0  0  0
   60.9950   29.9740   51.2590 H   0  0  0  0  0  0  0  0  0  0  0  0
   61.8750   31.6330   52.0870 C   0  0  0  0  0  0  0  0  0  0  0  0
   61.4497   32.6183   52.3284 H   0  0  0  0  0  0  0  0  0  0  0  0
   62.5862   31.2981   52.8564 H   0  0  0  0  0  0  0  0  0  0  0  0
   62.6420   31.7400   50.7600 C   0  0  0  0  0  0  0  0  0  0  0  0
   63.7112   31.8954   50.9664 H   0  0  0  0  0  0  0  0  0  0  0  0
   62.5097   30.8116   50.1851 H   0  0  0  0  0  0  0  0  0  0  0  0
   62.1280   32.8650   49.9890 N   0  0  0  0  0  0  0  0  0  0  0  0
   62.0820   33.1270   48.7070 C   0  0  0  0  0  0  0  0  0  0  0  0
   63.3320   33.2360   48.0820 C   0  0  0  0  0  0  0  0  0  0  0  0
   64.2458   33.0348   48.6604 H   0  0  0  0  0  0  0  0  0  0  0  0
   63.4350   33.5940   46.7440 C   0  0  0  0  0  0  0  0  0  0  0  0
   64.4249   33.6748   46.2712 H   0  0  0  0  0  0  0  0  0  0  0  0
   62.3200   33.8430   46.0230 N   0  0  0  0  0  0  0  0  0  0  0  0
   61.0760   33.7360   46.5550 C   0  0  0  0  0  0  0  0  0  0  0  0
   59.9760   34.0000   45.7320 C   0  0  0  0  0  0  0  0  0  0  0  0
   60.1361   34.3101   44.6888 H   0  0  0  0  0  0  0  0  0  0  0  0
   57.6360   29.0390   44.9600 C   0  0  0  0  0  0  0  0  0  0  0  0
   56.9010   29.0390   43.7660 O   0  0  0  0  0  0  0  0  0  0  0  0
   56.6230   30.2010   42.9920 C   0  0  0  0  0  0  0  0  0  0  0  0
   56.4202   31.0487   43.6631 H   0  0  0  0  0  0  0  0  0  0  0  0
   57.4905   30.4351   42.3574 H   0  0  0  0  0  0  0  0  0  0  0  0
   55.7435   30.0171   42.3574 H   0  0  0  0  0  0  0  0  0  0  0  0
   58.4770   33.4640   47.5390 C   0  0  0  0  0  0  0  0  0  0  0  0
   57.4524   33.3509   47.9230 H   0  0  0  0  0  0  0  0  0  0  0  0
   59.5650   33.1960   48.3750 C   0  0  0  0  0  0  0  0  0  0  0  0
   59.3831   32.8585   49.4060 H   0  0  0  0  0  0  0  0  0  0  0  0
   60.8980   33.3510   47.9190 C   0  0  0  0  0  0  0  0  0  0  0  0
   60.3620   27.8980   49.0630 C   0  0  0  0  0  0  0  0  0  0  0  0
   60.9814   27.8686   49.9716 H   0  0  0  0  0  0  0  0  0  0  0  0
  1  2  1  0
  2  3  1  0
  3  4  1  0
  4  5  2  0
  5  6  1  0
  5  7  1  0
  7  8  1  0
  7  9  2  0
  9 10  1  0
  9 11  1  0
 11 12  1  0
 11 13  2  0
 13 14  1  0
 14 15  2  0
 15 16  1  0
 16 17  1  0
 16 18  1  0
 16 19  1  0
 19 20  1  0
 19 21  1  0
 19 22  1  0
 22 23  1  0
 22 24  1  0
 22 25  1  0
 25 26  1  0
 25 27  1  0
 25 28  1  0
 28 29  1  0
 28 30  1  0
 28 31  1  0
 31 32  2  0
 32 33  1  0
 33 34  1  0
 33 35  2  0
 35 36  1  0
 35 37  1  0
 37 38  1  0
 38 39  2  0
 39 40  1  0
 39 41  1  0
 41 42  1  0
 42 43  1  0
 43 44  1  0
 43 45  1  0
 43 46  1  0
 41 47  2  0
 47 48  1  0
 47 49  1  0
 49 50  1  0
 49 51  2  0
 14 52  1  0
 52 53  1  0
 52  2  2  0
 13  4  1  0
 51 32  1  0
 51 38  1  0
M  CHG  3   3  -1  22   1  37  -1
M  END
>  <UniqueID>  (21) 
21

>  <SMILES>  (21) 
COc1ccc2/c(=N\CC[NH2+]CC/N=c3/cc[n-]c4cc(Cl)ccc34)cc[n-]c2c1

>  <Energy>  (21) 
97.15298606604617

>  <Genealogy>  (21) 
COc1ccc2c(=NCC[NH2+]CCN=c3cc[n-]c4cc(Cl)ccc34)cc[n-]c2c1 (protonated)
COc1ccc2/c(=N\CC[NH2+]CC/N=c3/cc[n-]c4cc(Cl)ccc34)cc[n-]c2c1 (cis-trans isomerization)
COc1ccc2/c(=N\CC[NH2+]CC/N=c3/cc[n-]c4cc(Cl)ccc34)cc[n-]c2c1 (3D coordinates assigned)
COc1ccc2/c(=N\CC[NH2+]CC/N=c3/cc[n-]c4cc(Cl)ccc34)cc[n-]c2c1 (optimized conformer: 97.15298606604617 kcal/mol)

>  <smiles>  (21) 
COc1ccc2c(=NCCNCCN=c3cc[nH]c4cc(Cl)ccc34)cc[nH]c2c1

>  <score_type>  (21) 
oracle

>  <origin>  (21) 
adg

>  <m_score__min__energy>  (21) 
-8.6400000000000006

>  <m_primary>  (21) 
energy

$$$$
21:0
     RDKit          3D

 47 48  0  0  0  0  0  0  0  0999 V2000
   59.9230   35.3770   45.9690 C   0  0  0  0  0  0  0  0  0  0  0  0
   58.9640   34.2740   45.6220 C   0  0  0  0  0  0  0  0  0  0  0  0
   58.7840   33.8830   44.2860 C   0  0  0  0  0  0  0  0  0  0  0  0
   57.9080   32.8420   43.9680 C   0  0  0  0  0  0  0  0  0  0  0  0
   57.1950   32.1820   44.9750 C   0  0  0  0  0  0  0  0  0  0  0  0
   56.3090   31.1130   44.6130 N   0  0  0  0  0  0  0  0  0  0  0  0
   56.5110   29.7180   44.8810 C   0  0  0  0  0  0  0  0  0  0  0  0
   55.5100   28.9530   44.8690 O   0  0  0  0  0  0  0  0  0  0  0  0
   57.8420   29.1670   45.2250 C   0  0  0  0  0  0  0  0  0  0  0  0
   58.7560   28.8480   44.2050 C   0  0  0  0  0  0  0  0  0  0  0  0
   60.0100   28.3230   44.5210 C   0  0  0  0  0  0  0  0  0  0  0  0
   60.3630   28.0960   45.8520 C   0  0  0  0  0  0  0  0  0  0  0  0
   59.4590   28.3930   46.8830 C   0  0  0  0  0  0  0  0  0  0  0  0
   59.8300   28.1090   48.3130 C   0  0  0  0  0  0  0  0  0  0  0  0
   60.7240   29.1520   48.8420 N   0  0  0  0  0  0  0  0  0  0  0  0
   60.0480   30.0670   49.7810 C   0  0  0  0  0  0  0  0  0  0  0  0
   59.7360   31.4190   49.1270 C   0  0  0  0  0  0  0  0  0  0  0  0
   60.1130   31.4130   47.7100 N   0  0  0  0  0  0  0  0  0  0  0  0
   61.7340   32.0150   47.5270 S   0  0  0  0  0  0  0  0  0  0  0  0
   62.3310   32.6850   49.0660 C   0  0  0  0  0  0  0  0  0  0  0  0
   61.7760   33.0790   46.4670 O   0  0  0  0  0  0  0  0  0  0  0  0
   62.6300   30.8810   47.1150 O   0  0  0  0  0  0  0  0  0  0  0  0
   58.2000   28.9250   46.5630 C   0  0  0  0  0  0  0  0  0  0  0  0
   57.4030   32.5460   46.3170 C   0  0  0  0  0  0  0  0  0  0  0  0
   58.2790   33.5890   46.6380 C   0  0  0  0  0  0  0  0  0  0  0  0
   58.4630   33.9230   47.9410 F   0  0  0  0  0  0  0  0  0  0  0  0
   59.9999   35.4654   47.0627 H   0  0  0  0  0  0  0  0  0  0  0  0
   60.9135   35.1473   45.5492 H   0  0  0  0  0  0  0  0  0  0  0  0
   59.5579   36.3259   45.5492 H   0  0  0  0  0  0  0  0  0  0  0  0
   59.3351   34.3985   43.4857 H   0  0  0  0  0  0  0  0  0  0  0  0
   57.7779   32.5391   42.9186 H   0  0  0  0  0  0  0  0  0  0  0  0
   58.4812   29.0131   43.1527 H   0  0  0  0  0  0  0  0  0  0  0  0
   60.7232   28.0871   43.7174 H   0  0  0  0  0  0  0  0  0  0  0  0
   61.3534   27.6828   46.0936 H   0  0  0  0  0  0  0  0  0  0  0  0
   58.9149   28.0762   48.9226 H   0  0  0  0  0  0  0  0  0  0  0  0
   60.3547   27.1431   48.3543 H   0  0  0  0  0  0  0  0  0  0  0  0
   61.0460   29.7210   48.0260 H   0  0  0  0  0  0  0  0  0  0  0  0
   59.1064   29.6056   50.1133 H   0  0  0  0  0  0  0  0  0  0  0  0
   60.7210   30.2443   50.6328 H   0  0  0  0  0  0  0  0  0  0  0  0
   58.6579   31.6203   49.2122 H   0  0  0  0  0  0  0  0  0  0  0  0
   60.3141   32.2006   49.6417 H   0  0  0  0  0  0  0  0  0  0  0  0
   60.1300   30.4220   47.3750 H   0  0  0  0  0  0  0  0  0  0  0  0
   61.8579   32.1540   49.9052 H   0  0  0  0  0  0  0  0  0  0  0  0
   63.4224   32.5598   49.1216 H   0  0  0  0  0  0  0  0  0  0  0  0
   62.0813   33.7548   49.1216 H   0  0  0  0  0  0  0  0  0  0  0  0
   57.4860   29.1550   47.3675 H   0  0  0  0  0  0  0  0  0  0  0  0
   56.8747   32.0085   47.1183 H   0  0  0  0  0  0  0  0  0  0  0  0
  1  2  1  0
  2  3  2  0
  3  4  1  0
  4  5  2  0
  5  6  1  0
  6  7  1  0
  7  8  2  0
  7  9  1  0
  9 10  2  0
 10 11  1  0
 11 12  2  0
 12 13  1  0
 13 14  1  0
 14 15  1  0
 15 16  1  0
 16 17  1  0
 17 18  1  0
 18 19  1  0
 19 20  1  0
 19 21  2  0
 19 22  2  0
 13 23  2  0
  5 24  1  0
 24 25  2  0
 25 26  1  0
 25  2  1  0
 23  9  1  0
  1 27  1  0
  1 28  1  0
  1 29  1  0
  3 30  1  0
  4 31  1  0
 10 32  1  0
 11 33  1  0
 12 34  1  0
 14 35  1  0
 14 36  1  0
 15 37  1  0
 16 38  1  0
 16 39  1  0
 17 40  1  0
 17 41  1  0
 18 42  1  0
 20 43  1  0
 20 44  1  0
 20 45  1  0
 23 46  1  0
 24 47  1  0
M  CHG  1   6  -1
M  END
>  <UniqueID>  (22) 
22

>  <SMILES>  (22) 
Cc1ccc([N-]C(=O)c2cccc(CNCCNS(C)(=O)=O)c2)cc1F

>  <Energy>  (22) 
42.51638516060022

>  <Genealogy>  (22) 
Cc1ccc([N-]C(=O)c2cccc(CNCCNS(C)(=O)=O)c2)cc1F (protonated)
Cc1ccc([N-]C(=O)c2cccc(CNCCNS(C)(=O)=O)c2)cc1F (3D coordinates assigned)
Cc1ccc([N-]C(=O)c2cccc(CNCCNS(C)(=O)=O)c2)cc1F (optimized conformer: 42.51638516060022 kcal/mol)

>  <smiles>  (22) 
Cc1ccc(NC(=O)c2cccc(CNCCNS(C)(=O)=O)c2)cc1F

>  <score_type>  (22) 
oracle

>  <origin>  (22) 
adg

>  <m_score__min__energy>  (22) 
-10.15

>  <m_primary>  (22) 
energy

$$$$
22:0
     RDKit          3D

 43 47  0  0  0  0  0  0  0  0999 V2000
   55.9230   29.9970   45.5710 H   0  0  0  0  0  0  0  0  0  0  0  0
   55.7290   29.1040   45.1380 O   0  0  0  0  0  0  0  0  0  0  0  0
   56.2690   27.9140   45.6220 C   0  0  0  0  0  0  0  0  0  0  0  0
   55.5270   26.8240   45.8760 N   0  0  0  0  0  0  0  0  0  0  0  0
   56.4410   25.9340   46.3130 C   0  0  0  0  0  0  0  0  0  0  0  0
   56.1360   24.7640   46.6610 O   0  0  0  0  0  0  0  0  0  0  0  0
   57.7080   26.3970   46.3500 N   0  0  0  0  0  0  0  0  0  0  0  0
   57.5980   27.6620   45.9020 C   0  0  0  0  0  0  0  0  0  0  0  0
   58.7160   28.6230   45.7840 C   0  0  0  0  0  0  0  0  0  0  0  0
   59.0515   28.8886   44.7706 H   0  0  0  0  0  0  0  0  0  0  0  0
   59.3540   29.1970   46.8180 C   0  0  0  0  0  0  0  0  0  0  0  0
   59.8410   28.6380   48.0020 C   0  0  0  0  0  0  0  0  0  0  0  0
   59.7523   27.5785   48.2842 H   0  0  0  0  0  0  0  0  0  0  0  0
   60.4390   29.5960   48.7510 N   0  0  0  0  0  0  0  0  0  0  0  0
   60.3440   30.7330   48.0790 N   0  0  0  0  0  0  0  0  0  0  0  0
   60.8060   31.9730   48.4150 C   0  0  0  0  0  0  0  0  0  0  0  0
   61.4390   32.2220   49.5260 N   0  0  0  0  0  0  0  0  0  0  0  0
   62.8690   32.4760   49.6740 C   0  0  0  0  0  0  0  0  0  0  0  0
   63.0068   31.9908   50.6515 H   0  0  0  0  0  0  0  0  0  0  0  0
   63.2930   33.7870   49.0410 C   0  0  0  0  0  0  0  0  0  0  0  0
   62.5384   34.4533   48.5975 H   0  0  0  0  0  0  0  0  0  0  0  0
   63.8689   34.6624   49.3756 H   0  0  0  0  0  0  0  0  0  0  0  0
   63.6350   32.4690   48.3650 C   0  0  0  0  0  0  0  0  0  0  0  0
   63.1279   32.1811   47.4323 H   0  0  0  0  0  0  0  0  0  0  0  0
   64.5609   31.9948   48.0075 H   0  0  0  0  0  0  0  0  0  0  0  0
   60.5930   32.9900   47.5340 N   0  0  0  0  0  0  0  0  0  0  0  0
   59.9380   32.7760   46.3540 C   0  0  0  0  0  0  0  0  0  0  0  0
   59.7600   33.7710   45.5370 N   0  0  0  0  0  0  0  0  0  0  0  0
   58.4710   34.1610   44.9660 C   0  0  0  0  0  0  0  0  0  0  0  0
   58.6440   34.7823   44.0749 H   0  0  0  0  0  0  0  0  0  0  0  0
   57.9060   34.7264   45.7217 H   0  0  0  0  0  0  0  0  0  0  0  0
   57.6770   32.9520   44.5760 C   0  0  0  0  0  0  0  0  0  0  0  0
   56.7210   32.3960   45.3450 N   0  0  0  0  0  0  0  0  0  0  0  0
   56.2820   31.3530   44.7030 O   0  0  0  0  0  0  0  0  0  0  0  0
   56.9130   31.2040   43.5610 C   0  0  0  0  0  0  0  0  0  0  0  0
   56.6460   30.1130   42.5800 C   0  0  0  0  0  0  0  0  0  0  0  0
   56.4182   29.1821   43.1199 H   0  0  0  0  0  0  0  0  0  0  0  0
   55.7890   30.3896   41.9482 H   0  0  0  0  0  0  0  0  0  0  0  0
   57.5338   29.9626   41.9482 H   0  0  0  0  0  0  0  0  0  0  0  0
   57.8360   32.2170   43.4200 C   0  0  0  0  0  0  0  0  0  0  0  0
   58.5315   32.3962   42.5869 H   0  0  0  0  0  0  0  0  0  0  0  0
   59.4840   31.5260   46.0440 N   0  0  0  0  0  0  0  0  0  0  0  0
   59.7040   30.5240   46.9260 C   0  0  0  0  0  0  0  0  0  0  0  0
  1  2  1  0
  2  3  1  0
  3  4  1  0
  4  5  1  0
  5  6  2  0
  5  7  1  0
  7  8  1  0
  8  9  1  0
  9 10  1  0
  9 11  2  0
 11 12  1  0
 12 13  1  0
 12 14  2  0
 14 15  1  0
 15 16  1  0
 16 17  2  3
 17 18  1  0
 18 19  1  0
 18 20  1  0
 20 21  1  0
 20 22  1  0
 20 23  1  0
 23 24  1  0
 23 25  1  0
 16 26  1  0
 26 27  1  0
 27 28  2  3
 28 29  1  0
 29 30  1  0
 29 31  1  0
 29 32  1  0
 32 33  2  0
 33 34  1  0
 34 35  1  0
 35 36  1  0
 36 37  1  0
 36 38  1  0
 36 39  1  0
 35 40  2  0
 40 41  1  0
 27 42  1  0
 42 43  2  0
  8  3  2  0
 43 11  1  0
 43 15  1  0
 23 18  1  0
 40 32  1  0
M  CHG  3   4  -1   7  -1  26  -1
M  END
>  <UniqueID>  (23) 
23

>  <SMILES>  (23) 
Cc1cc(CN=c2nc3/c(=C/c4[n-]c(=O)[n-]c4O)cnn3c(=NC3CC3)[n-]2)no1

>  <Energy>  (23) 
412.4337938062519

>  <Genealogy>  (23) 
Cc1cc(CN=c2nc3c(=Cc4[n-]c(=O)[n-]c4O)cnn3c(=NC3CC3)[n-]2)no1 (protonated)
Cc1cc(CN=c2nc3/c(=C/c4[n-]c(=O)[n-]c4O)cnn3c(=NC3CC3)[n-]2)no1 (cis-trans isomerization)
Cc1cc(CN=c2nc3/c(=C/c4[n-]c(=O)[n-]c4O)cnn3c(=NC3CC3)[n-]2)no1 (3D coordinates assigned)
Cc1cc(CN=c2nc3/c(=C/c4[n-]c(=O)[n-]c4O)cnn3c(=NC3CC3)[n-]2)no1 (nonaromatic ring conformer: 412.4337938062519 kcal/mol)

>  <smiles>  (23) 
Cc1cc(CN=c2nc3c(=Cc4[nH]c(=O)[nH]c4O)cnn3c(=NC3CC3)[nH]2)no1

>  <score_type>  (23) 
oracle

>  <origin>  (23) 
adg

>  <m_score__min__energy>  (23) 
-14.33

>  <m_primary>  (23) 
energy

$$$$
23:0
     RDKit          3D

 46 50  0  0  0  0  0  0  0  0999 V2000
   57.0225   28.3488   45.0797 H   0  0  0  0  0  0  0  0  0  0  0  0
   57.6610   27.8260   45.8070 C   0  0  0  0  0  0  0  0  0  0  0  0
   57.2270   26.5000   46.2750 C   0  0  0  0  0  0  0  0  0  0  0  0
   58.0600   25.5970   46.8210 N   0  0  0  0  0  0  0  0  0  0  0  0
   57.2350   24.5920   47.1850 C   0  0  0  0  0  0  0  0  0  0  0  0
   57.6520   23.5360   47.7290 O   0  0  0  0  0  0  0  0  0  0  0  0
   55.9270   24.8100   46.9310 N   0  0  0  0  0  0  0  0  0  0  0  0
   55.9370   26.0280   46.3670 C   0  0  0  0  0  0  0  0  0  0  0  0
   54.7880   26.7090   45.9840 O   0  0  0  0  0  0  0  0  0  0  0  0
   58.7830   28.4380   46.2090 C   0  0  0  0  0  0  0  0  0  0  0  0
   60.0640   27.8920   46.1920 C   0  0  0  0  0  0  0  0  0  0  0  0
   60.3101   26.8702   45.8673 H   0  0  0  0  0  0  0  0  0  0  0  0
   60.9620   28.8040   46.6340 N   0  0  0  0  0  0  0  0  0  0  0  0
   60.2900   29.9080   46.9200 N   0  0  0  0  0  0  0  0  0  0  0  0
   60.7630   31.1100   47.3580 C   0  0  0  0  0  0  0  0  0  0  0  0
   62.0210   31.3330   47.6140 N   0  0  0  0  0  0  0  0  0  0  0  0
   62.8330   32.4270   47.0920 C   0  0  0  0  0  0  0  0  0  0  0  0
   62.9227   32.0665   46.0566 H   0  0  0  0  0  0  0  0  0  0  0  0
   62.5380   33.7730   47.7290 C   0  0  0  0  0  0  0  0  0  0  0  0
   62.6359   34.6951   47.1373 H   0  0  0  0  0  0  0  0  0  0  0  0
   61.6831   34.2092   48.2665 H   0  0  0  0  0  0  0  0  0  0  0  0
   63.7800   32.9930   48.1340 C   0  0  0  0  0  0  0  0  0  0  0  0
   64.7763   33.3511   47.8353 H   0  0  0  0  0  0  0  0  0  0  0  0
   64.1957   32.6313   49.0860 H   0  0  0  0  0  0  0  0  0  0  0  0
   59.8690   32.1220   47.5220 N   0  0  0  0  0  0  0  0  0  0  0  0
   58.5390   31.9420   47.2470 C   0  0  0  0  0  0  0  0  0  0  0  0
   57.6910   32.9170   47.3890 N   0  0  0  0  0  0  0  0  0  0  0  0
   57.0180   33.6050   46.2870 C   0  0  0  0  0  0  0  0  0  0  0  0
   57.3791   34.6427   46.2341 H   0  0  0  0  0  0  0  0  0  0  0  0
   55.9331   33.5890   46.4681 H   0  0  0  0  0  0  0  0  0  0  0  0
   57.3030   32.9140   44.9790 C   0  0  0  0  0  0  0  0  0  0  0  0
   58.2270   33.4550   44.0720 C   0  0  0  0  0  0  0  0  0  0  0  0
   58.7398   34.3987   44.3094 H   0  0  0  0  0  0  0  0  0  0  0  0
   58.4980   32.7990   42.8680 C   0  0  0  0  0  0  0  0  0  0  0  0
   59.2194   33.2301   42.1583 H   0  0  0  0  0  0  0  0  0  0  0  0
   57.8540   31.5960   42.5640 C   0  0  0  0  0  0  0  0  0  0  0  0
   58.0611   31.0893   41.6099 H   0  0  0  0  0  0  0  0  0  0  0  0
   56.9450   31.0330   43.4710 C   0  0  0  0  0  0  0  0  0  0  0  0
   56.2280   29.7600   43.1300 C   0  0  0  0  0  0  0  0  0  0  0  0
   55.9371   29.2435   44.0566 H   0  0  0  0  0  0  0  0  0  0  0  0
   55.3281   29.9923   42.5417 H   0  0  0  0  0  0  0  0  0  0  0  0
   56.8932   29.1108   42.5417 H   0  0  0  0  0  0  0  0  0  0  0  0
   56.6610   31.7030   44.6720 C   0  0  0  0  0  0  0  0  0  0  0  0
   55.9315   31.2770   45.3765 H   0  0  0  0  0  0  0  0  0  0  0  0
   58.0940   30.7320   46.8100 N   0  0  0  0  0  0  0  0  0  0  0  0
   58.9870   29.7250   46.6730 C   0  0  0  0  0  0  0  0  0  0  0  0
  1  2  1  0
  2  3  1  0
  3  4  1  0
  4  5  1  0
  5  6  2  0
  5  7  1  0
  7  8  1  0
  8  9  1  0
  2 10  2  0
 10 11  1  0
 11 12  1  0
 11 13  2  0
 13 14  1  0
 14 15  1  0
 15 16  2  3
 16 17  1  0
 17 18  1  0
 17 19  1  0
 19 20  1  0
 19 21  1  0
 19 22  1  0
 22 23  1  0
 22 24  1  0
 15 25  1  0
 25 26  1  0
 26 27  2  0
 27 28  1  0
 28 29  1  0
 28 30  1  0
 28 31  1  0
 31 32  2  0
 32 33  1  0
 32 34  1  0
 34 35  1  0
 34 36  2  0
 36 37  1  0
 36 38  1  0
 38 39  1  0
 39 40  1  0
 39 41  1  0
 39 42  1  0
 38 43  2  0
 43 44  1  0
 26 45  1  0
 45 46  2  0
  8  3  2  0
 46 10  1  0
 46 14  1  0
 22 17  1  0
 43 31  1  0
M  CHG  4   4  -1   7  -1   9  -1  25  -1
M  END
>  <UniqueID>  (24) 
24

>  <SMILES>  (24) 
Cc1cccc(C/N=c2/nc3/c(=C\c4[n-]c(=O)[n-]c4[O-])cnn3c(=NC3CC3)[n-]2)c1

>  <Energy>  (24) 
391.3228320831756

>  <Genealogy>  (24) 
Cc1cccc(CN=c2nc3c(=Cc4[n-]c(=O)[n-]c4[O-])cnn3c(=NC3CC3)[n-]2)c1 (protonated)
Cc1cccc(C/N=c2/nc3/c(=C\c4[n-]c(=O)[n-]c4[O-])cnn3c(=NC3CC3)[n-]2)c1 (cis-trans isomerization)
Cc1cccc(C/N=c2/nc3/c(=C\c4[n-]c(=O)[n-]c4[O-])cnn3c(=NC3CC3)[n-]2)c1 (3D coordinates assigned)
Cc1cccc(C/N=c2/nc3/c(=C\c4[n-]c(=O)[n-]c4[O-])cnn3c(=NC3CC3)[n-]2)c1 (nonaromatic ring conformer: 391.3228320831756 kcal/mol)

>  <smiles>  (24) 
Cc1cccc(CN=c2nc3c(=Cc4[nH]c(=O)[nH]c4O)cnn3c(=NC3CC3)[nH]2)c1

>  <score_type>  (24) 
oracle

>  <origin>  (24) 
adg

>  <m_score__min__energy>  (24) 
-18.539999999999999

>  <m_primary>  (24) 
energy

$$$$
24:0
     RDKit          3D

 46 48  0  0  0  0  0  0  0  0999 V2000
   55.7280   20.5760   44.2840 N   0  0  0  0  0  0  0  0  0  0  0  0
   56.5990   21.7560   43.3860 S   0  0  0  0  0  0  0  0  0  0  0  0
   57.6520   21.0590   42.5700 O   0  0  0  0  0  0  0  0  0  0  0  0
   55.6580   22.4900   42.4710 O   0  0  0  0  0  0  0  0  0  0  0  0
   57.3420   22.8970   44.4940 C   0  0  0  0  0  0  0  0  0  0  0  0
   58.7200   22.8520   44.7410 C   0  0  0  0  0  0  0  0  0  0  0  0
   59.3010   23.7420   45.6500 C   0  0  0  0  0  0  0  0  0  0  0  0
   58.5050   24.6740   46.3410 C   0  0  0  0  0  0  0  0  0  0  0  0
   59.0550   25.5960   47.2930 N   0  0  0  0  0  0  0  0  0  0  0  0
   60.1490   26.8970   46.9450 S   0  0  0  0  0  0  0  0  0  0  0  0
   60.8070   27.3330   48.2240 O   0  0  0  0  0  0  0  0  0  0  0  0
   61.2230   26.4390   45.9990 O   0  0  0  0  0  0  0  0  0  0  0  0
   59.2510   28.2590   46.2780 C   0  0  0  0  0  0  0  0  0  0  0  0
   59.1110   28.4230   44.8940 C   0  0  0  0  0  0  0  0  0  0  0  0
   58.3530   29.4830   44.3850 C   0  0  0  0  0  0  0  0  0  0  0  0
   57.7510   30.4050   45.2500 C   0  0  0  0  0  0  0  0  0  0  0  0
   56.9660   31.4690   44.6970 N   0  0  0  0  0  0  0  0  0  0  0  0
   57.4810   32.5820   43.9540 C   0  0  0  0  0  0  0  0  0  0  0  0
   57.9620   32.4180   42.8020 O   0  0  0  0  0  0  0  0  0  0  0  0
   57.4400   33.9540   44.5460 C   0  0  0  0  0  0  0  0  0  0  0  0
   58.3670   34.0230   45.7280 C   0  0  0  0  0  0  0  0  0  0  0  0
   57.9840   33.4720   46.9640 C   0  0  0  0  0  0  0  0  0  0  0  0
   58.8670   33.4910   48.0440 C   0  0  0  0  0  0  0  0  0  0  0  0
   60.1420   34.0540   47.9030 C   0  0  0  0  0  0  0  0  0  0  0  0
   61.2530   34.0680   49.2550 Cl  0  0  0  0  0  0  0  0  0  0  0  0
   60.5320   34.5970   46.6700 C   0  0  0  0  0  0  0  0  0  0  0  0
   59.6510   34.5810   45.5860 C   0  0  0  0  0  0  0  0  0  0  0  0
   57.8800   30.2300   46.6360 C   0  0  0  0  0  0  0  0  0  0  0  0
   58.6300   29.1670   47.1440 C   0  0  0  0  0  0  0  0  0  0  0  0
   57.1260   24.7160   46.0840 C   0  0  0  0  0  0  0  0  0  0  0  0
   56.5500   23.8430   45.1590 C   0  0  0  0  0  0  0  0  0  0  0  0
   54.8320   21.0190   44.5860 H   0  0  0  0  0  0  0  0  0  0  0  0
   59.3470   22.1145   44.2185 H   0  0  0  0  0  0  0  0  0  0  0  0
   60.3865   23.7132   45.8257 H   0  0  0  0  0  0  0  0  0  0  0  0
   59.5982   27.7167   44.2057 H   0  0  0  0  0  0  0  0  0  0  0  0
   58.2290   29.5929   43.2975 H   0  0  0  0  0  0  0  0  0  0  0  0
   57.7558   34.6881   43.7901 H   0  0  0  0  0  0  0  0  0  0  0  0
   56.4143   34.1794   44.8734 H   0  0  0  0  0  0  0  0  0  0  0  0
   56.9856   33.0249   47.0795 H   0  0  0  0  0  0  0  0  0  0  0  0
   58.5609   33.0624   49.0097 H   0  0  0  0  0  0  0  0  0  0  0  0
   61.5340   35.0365   46.5563 H   0  0  0  0  0  0  0  0  0  0  0  0
   59.9615   35.0053   44.6198 H   0  0  0  0  0  0  0  0  0  0  0  0
   57.3886   30.9326   47.3251 H   0  0  0  0  0  0  0  0  0  0  0  0
   58.7335   29.0423   48.2320 H   0  0  0  0  0  0  0  0  0  0  0  0
   56.4938   25.4425   46.6155 H   0  0  0  0  0  0  0  0  0  0  0  0
   55.4711   23.8979   44.9515 H   0  0  0  0  0  0  0  0  0  0  0  0
  1  2  1  0
  2  3  2  0
  2  4  2  0
  2  5  1  0
  5  6  2  0
  6  7  1  0
  7  8  2  0
  8  9  1  0
  9 10  1  0
 10 11  2  0
 10 12  2  0
 10 13  1  0
 13 14  2  0
 14 15  1  0
 15 16  2  0
 16 17  1  0
 17 18  1  0
 18 19  2  0
 18 20  1  0
 20 21  1  0
 21 22  2  0
 22 23  1  0
 23 24  2  0
 24 25  1  0
 24 26  1  0
 26 27  2  0
 16 28  1  0
 28 29  2  0
  8 30  1  0
 30 31  2  0
 31  5  1  0
 29 13  1  0
 27 21  1  0
  1 32  1  0
  6 33  1  0
  7 34  1  0
 14 35  1  0
 15 36  1  0
 20 37  1  0
 20 38  1  0
 22 39  1  0
 23 40  1  0
 26 41  1  0
 27 42  1  0
 28 43  1  0
 29 44  1  0
 30 45  1  0
 31 46  1  0
M  CHG  3   1  -1   9  -1  17  -1
M  END
>  <UniqueID>  (25) 
25

>  <SMILES>  (25) 
[NH-]S(=O)(=O)c1ccc([N-]S(=O)(=O)c2ccc([N-]C(=O)Cc3ccc(Cl)cc3)cc2)cc1

>  <Energy>  (25) 
54.230953926655445

>  <Genealogy>  (25) 
[NH-]S(=O)(=O)c1ccc([N-]S(=O)(=O)c2ccc([N-]C(=O)Cc3ccc(Cl)cc3)cc2)cc1 (protonated)
[NH-]S(=O)(=O)c1ccc([N-]S(=O)(=O)c2ccc([N-]C(=O)Cc3ccc(Cl)cc3)cc2)cc1 (3D coordinates assigned)
[NH-]S(=O)(=O)c1ccc([N-]S(=O)(=O)c2ccc([N-]C(=O)Cc3ccc(Cl)cc3)cc2)cc1 (optimized conformer: 54.230953926655445 kcal/mol)

>  <smiles>  (25) 
NS(=O)(=O)c1ccc(NS(=O)(=O)c2ccc(NC(=O)Cc3ccc(Cl)cc3)cc2)cc1

>  <score_type>  (25) 
oracle

>  <origin>  (25) 
adg

>  <m_score__min__energy>  (25) 
-13.23

>  <m_primary>  (25) 
energy

$$$$
25:0
     RDKit          3D

 42 44  0  0  0  0  0  0  0  0999 V2000
   55.3180   26.6780   46.0000 N   0  0  0  0  0  0  0  0  0  0  0  0
   56.1250   25.6640   46.0690 C   0  0  0  0  0  0  0  0  0  0  0  0
   55.7190   24.5630   46.7580 N   0  0  0  0  0  0  0  0  0  0  0  0
   56.4940   23.4550   46.8800 C   0  0  0  0  0  0  0  0  0  0  0  0
   57.7540   23.4180   46.2890 C   0  0  0  0  0  0  0  0  0  0  0  0
   58.2060   24.5250   45.5740 C   0  0  0  0  0  0  0  0  0  0  0  0
   57.4010   25.6690   45.4510 C   0  0  0  0  0  0  0  0  0  0  0  0
   58.0090   27.0560   44.5320 S   0  0  0  0  0  0  0  0  0  0  0  0
   58.1870   26.6790   43.0870 O   0  0  0  0  0  0  0  0  0  0  0  0
   59.3350   27.4760   45.1030 O   0  0  0  0  0  0  0  0  0  0  0  0
   56.8670   28.3580   44.6420 N   0  0  0  0  0  0  0  0  0  0  0  0
   57.2330   29.7470   44.7350 C   0  0  0  0  0  0  0  0  0  0  0  0
   57.0580   30.5760   43.6170 C   0  0  0  0  0  0  0  0  0  0  0  0
   57.4120   31.9270   43.6700 C   0  0  0  0  0  0  0  0  0  0  0  0
   57.9620   32.4710   44.8400 C   0  0  0  0  0  0  0  0  0  0  0  0
   58.3490   33.9010   44.8840 C   0  0  0  0  0  0  0  0  0  0  0  0
   57.4750   34.7790   44.6570 O   0  0  0  0  0  0  0  0  0  0  0  0
   59.6790   34.3290   45.2220 N   0  0  0  0  0  0  0  0  0  0  0  0
   60.2730   34.1630   46.3690 C   0  0  0  0  0  0  0  0  0  0  0  0
   59.6090   34.5250   47.5460 C   0  0  0  0  0  0  0  0  0  0  0  0
   60.2530   34.3660   48.7750 C   0  0  0  0  0  0  0  0  0  0  0  0
   61.5490   33.8510   48.8210 C   0  0  0  0  0  0  0  0  0  0  0  0
   62.1890   33.4910   47.6250 C   0  0  0  0  0  0  0  0  0  0  0  0
   63.5920   32.9580   47.6350 C   0  0  0  0  0  0  0  0  0  0  0  0
   64.3580   33.6550   48.5520 F   0  0  0  0  0  0  0  0  0  0  0  0
   63.5950   31.6180   47.9820 F   0  0  0  0  0  0  0  0  0  0  0  0
   64.1460   33.0980   46.3770 F   0  0  0  0  0  0  0  0  0  0  0  0
   61.5430   33.6740   46.4410 N   0  0  0  0  0  0  0  0  0  0  0  0
   58.1190   31.6490   45.9680 C   0  0  0  0  0  0  0  0  0  0  0  0
   57.7660   30.2970   45.9150 C   0  0  0  0  0  0  0  0  0  0  0  0
   54.6800   26.9820   46.7660 H   0  0  0  0  0  0  0  0  0  0  0  0
   56.1263   22.5863   47.4459 H   0  0  0  0  0  0  0  0  0  0  0  0
   58.3866   22.5233   46.3857 H   0  0  0  0  0  0  0  0  0  0  0  0
   59.1997   24.5028   45.1028 H   0  0  0  0  0  0  0  0  0  0  0  0
   55.8550   28.0990   44.6710 H   0  0  0  0  0  0  0  0  0  0  0  0
   56.6382   30.1588   42.6898 H   0  0  0  0  0  0  0  0  0  0  0  0
   57.2584   32.5674   42.7890 H   0  0  0  0  0  0  0  0  0  0  0  0
   58.5878   34.9316   47.5038 H   0  0  0  0  0  0  0  0  0  0  0  0
   59.7389   34.6466   49.7061 H   0  0  0  0  0  0  0  0  0  0  0  0
   62.0640   33.7284   49.7852 H   0  0  0  0  0  0  0  0  0  0  0  0
   58.5226   32.0718   46.8998 H   0  0  0  0  0  0  0  0  0  0  0  0
   57.9058   29.6600   46.8008 H   0  0  0  0  0  0  0  0  0  0  0  0
  1  2  2  3
  2  3  1  0
  3  4  1  0
  4  5  2  0
  5  6  1  0
  6  7  2  0
  7  8  1  0
  8  9  2  0
  8 10  2  0
  8 11  1  0
 11 12  1  0
 12 13  2  0
 13 14  1  0
 14 15  2  0
 15 16  1  0
 16 17  2  0
 16 18  1  0
 18 19  2  3
 19 20  1  0
 20 21  2  0
 21 22  1  0
 22 23  2  0
 23 24  1  0
 24 25  1  0
 24 26  1  0
 24 27  1  0
 23 28  1  0
 15 29  1  0
 29 30  2  0
  7  2  1  0
 30 12  1  0
 28 19  1  0
  1 31  1  0
  4 32  1  0
  5 33  1  0
  6 34  1  0
 11 35  1  0
 13 36  1  0
 14 37  1  0
 20 38  1  0
 21 39  1  0
 22 40  1  0
 29 41  1  0
 30 42  1  0
M  CHG  2   3  -1  28  -1
M  END
>  <UniqueID>  (26) 
26

>  <SMILES>  (26) 
N=c1[n-]cccc1S(=O)(=O)Nc1ccc(C(=O)N=c2cccc(C(F)(F)F)[n-]2)cc1

>  <Energy>  (26) 
59.451051659664145

>  <Genealogy>  (26) 
N=c1[n-]cccc1S(=O)(=O)Nc1ccc(C(=O)N=c2cccc(C(F)(F)F)[n-]2)cc1 (protonated)
N=c1[n-]cccc1S(=O)(=O)Nc1ccc(C(=O)N=c2cccc(C(F)(F)F)[n-]2)cc1 (3D coordinates assigned)
N=c1[n-]cccc1S(=O)(=O)Nc1ccc(C(=O)N=c2cccc(C(F)(F)F)[n-]2)cc1 (optimized conformer: 59.451051659664145 kcal/mol)

>  <smiles>  (26) 
N=c1[nH]cccc1S(=O)(=O)Nc1ccc(C(=O)N=c2cccc(C(F)(F)F)[nH]2)cc1

>  <score_type>  (26) 
oracle

>  <origin>  (26) 
adg

>  <m_score__min__energy>  (26) 
-12.42

>  <m_primary>  (26) 
energy

$$$$
26:0
     RDKit          3D

 56 59  0  0  0  0  0  0  0  0999 V2000
   52.4080   23.4350   45.3840 C   0  0  0  0  0  0  0  0  0  0  0  0
   53.5900   23.0120   44.7110 O   0  0  0  0  0  0  0  0  0  0  0  0
   54.8450   23.6280   44.8280 C   0  0  0  0  0  0  0  0  0  0  0  0
   55.0190   24.7710   45.6340 C   0  0  0  0  0  0  0  0  0  0  0  0
   56.2700   25.3720   45.7610 C   0  0  0  0  0  0  0  0  0  0  0  0
   57.3820   24.8390   45.0950 C   0  0  0  0  0  0  0  0  0  0  0  0
   58.6980   25.3770   45.2780 N   0  0  0  0  0  0  0  0  0  0  0  0
   59.2200   26.1450   46.7430 S   0  0  0  0  0  0  0  0  0  0  0  0
   60.7060   25.9720   46.9000 O   0  0  0  0  0  0  0  0  0  0  0  0
   58.5200   25.5200   47.9160 O   0  0  0  0  0  0  0  0  0  0  0  0
   58.7850   27.8500   46.6530 C   0  0  0  0  0  0  0  0  0  0  0  0
   59.6350   28.8290   47.1720 C   0  0  0  0  0  0  0  0  0  0  0  0
   59.4070   30.1780   46.8950 C   0  0  0  0  0  0  0  0  0  0  0  0
   58.3250   30.5730   46.0830 C   0  0  0  0  0  0  0  0  0  0  0  0
   58.1420   31.9170   45.6730 C   0  0  0  0  0  0  0  0  0  0  0  0
   59.3100   33.2010   46.0480 S   0  0  0  0  0  0  0  0  0  0  0  0
   59.1930   34.2770   45.0050 O   0  0  0  0  0  0  0  0  0  0  0  0
   60.7080   32.6490   45.9980 O   0  0  0  0  0  0  0  0  0  0  0  0
   59.0570   33.9080   47.6230 N   0  0  0  0  0  0  0  0  0  0  0  0
   59.5070   33.0370   48.7150 C   0  0  0  0  0  0  0  0  0  0  0  0
   61.0120   32.8680   48.7360 C   0  0  0  0  0  0  0  0  0  0  0  0
   61.8210   33.9130   48.2540 C   0  0  0  0  0  0  0  0  0  0  0  0
   63.2140   33.8060   48.2870 C   0  0  0  0  0  0  0  0  0  0  0  0
   63.8160   32.6650   48.8200 C   0  0  0  0  0  0  0  0  0  0  0  0
   63.0280   31.6310   49.3280 C   0  0  0  0  0  0  0  0  0  0  0  0
   61.6300   31.7240   49.2950 C   0  0  0  0  0  0  0  0  0  0  0  0
   60.7090   30.3900   49.9840 Cl  0  0  0  0  0  0  0  0  0  0  0  0
   57.0200   32.2380   44.8960 C   0  0  0  0  0  0  0  0  0  0  0  0
   56.1460   31.2770   44.5110 N   0  0  0  0  0  0  0  0  0  0  0  0
   56.3140   29.9730   44.8430 C   0  0  0  0  0  0  0  0  0  0  0  0
   55.4760   29.1240   44.4340 O   0  0  0  0  0  0  0  0  0  0  0  0
   57.4180   29.5820   45.6250 C   0  0  0  0  0  0  0  0  0  0  0  0
   57.6610   28.2280   45.9140 C   0  0  0  0  0  0  0  0  0  0  0  0
   57.2130   23.7280   44.2650 C   0  0  0  0  0  0  0  0  0  0  0  0
   55.9650   23.1010   44.1340 C   0  0  0  0  0  0  0  0  0  0  0  0
   55.9160   21.9570   43.3160 O   0  0  0  0  0  0  0  0  0  0  0  0
   57.0030   21.0890   43.0160 C   0  0  0  0  0  0  0  0  0  0  0  0
   52.5651   23.3788   46.4713 H   0  0  0  0  0  0  0  0  0  0  0  0
   52.1757   24.4721   45.1002 H   0  0  0  0  0  0  0  0  0  0  0  0
   51.5704   22.7808   45.1002 H   0  0  0  0  0  0  0  0  0  0  0  0
   54.1564   25.1941   46.1697 H   0  0  0  0  0  0  0  0  0  0  0  0
   56.3852   26.2691   46.3870 H   0  0  0  0  0  0  0  0  0  0  0  0
   60.4879   28.5358   47.8018 H   0  0  0  0  0  0  0  0  0  0  0  0
   60.0790   30.9409   47.3150 H   0  0  0  0  0  0  0  0  0  0  0  0
   59.1875   33.4761   49.6716 H   0  0  0  0  0  0  0  0  0  0  0  0
   59.0602   32.0442   48.5579 H   0  0  0  0  0  0  0  0  0  0  0  0
   61.3533   34.8219   47.8477 H   0  0  0  0  0  0  0  0  0  0  0  0
   63.8370   34.6222   47.8923 H   0  0  0  0  0  0  0  0  0  0  0  0
   64.9126   32.5806   48.8397 H   0  0  0  0  0  0  0  0  0  0  0  0
   63.5069   30.7382   49.7566 H   0  0  0  0  0  0  0  0  0  0  0  0
   56.8473   33.2820   44.5955 H   0  0  0  0  0  0  0  0  0  0  0  0
   56.9604   27.4595   45.5554 H   0  0  0  0  0  0  0  0  0  0  0  0
   58.0747   23.3376   43.7037 H   0  0  0  0  0  0  0  0  0  0  0  0
   57.4539   20.7289   43.9525 H   0  0  0  0  0  0  0  0  0  0  0  0
   56.6372   20.2317   42.4318 H   0  0  0  0  0  0  0  0  0  0  0  0
   57.7581   21.6354   42.4318 H   0  0  0  0  0  0  0  0  0  0  0  0
  1  2  1  0
  2  3  1  0
  3  4  2  0
  4  5  1  0
  5  6  2  0
  6  7  1  0
  7  8  1  0
  8  9  2  0
  8 10  2  0
  8 11  1  0
 11 12  2  0
 12 13  1  0
 13 14  2  0
 14 15  1  0
 15 16  1  0
 16 17  2  0
 16 18  2  0
 16 19  1  0
 19 20  1  0
 20 21  1  0
 21 22  2  0
 22 23  1  0
 23 24  2  0
 24 25  1  0
 25 26  2  0
 26 27  1  0
 15 28  2  0
 28 29  1  0
 29 30  1  0
 30 31  2  0
 30 32  1  0
 32 33  2  0
  6 34  1  0
 34 35  2  0
 35 36  1  0
 36 37  1  0
 35  3  1  0
 33 11  1  0
 32 14  1  0
 26 21  1  0
  1 38  1  0
  1 39  1  0
  1 40  1  0
  4 41  1  0
  5 42  1  0
 12 43  1  0
 13 44  1  0
 20 45  1  0
 20 46  1  0
 22 47  1  0
 23 48  1  0
 24 49  1  0
 25 50  1  0
 28 51  1  0
 33 52  1  0
 34 53  1  0
 37 54  1  0
 37 55  1  0
 37 56  1  0
M  CHG  3   7  -1  19  -1  29  -1
M  END
>  <UniqueID>  (27) 
27

>  <SMILES>  (27) 
COc1ccc([N-]S(=O)(=O)c2ccc3c(S(=O)(=O)[N-]Cc4ccccc4Cl)c[n-]c(=O)c3c2)cc1OC

>  <Energy>  (27) 
71.6430105033812

>  <Genealogy>  (27) 
COc1ccc([N-]S(=O)(=O)c2ccc3c(S(=O)(=O)[N-]Cc4ccccc4Cl)c[n-]c(=O)c3c2)cc1OC (protonated)
COc1ccc([N-]S(=O)(=O)c2ccc3c(S(=O)(=O)[N-]Cc4ccccc4Cl)c[n-]c(=O)c3c2)cc1OC (3D coordinates assigned)
COc1ccc([N-]S(=O)(=O)c2ccc3c(S(=O)(=O)[N-]Cc4ccccc4Cl)c[n-]c(=O)c3c2)cc1OC (optimized conformer: 71.6430105033812 kcal/mol)

>  <smiles>  (27) 
COc1ccc(NS(=O)(=O)c2ccc3c(S(=O)(=O)NCc4ccccc4Cl)c[nH]c(=O)c3c2)cc1OC

>  <score_type>  (27) 
oracle

>  <origin>  (27) 
adg

>  <m_score__min__energy>  (27) 
-13.550000000000001

>  <m_primary>  (27) 
energy

$$$$
27:0
     RDKit          3D

 40 42  0  0  0  0  0  0  0  0999 V2000
   59.6570   26.6770   46.9400 C   0  0  0  0  0  0  0  0  0  0  0  0
   59.0430   27.9950   46.5540 C   0  0  0  0  0  0  0  0  0  0  0  0
   59.4810   29.1760   47.1620 C   0  0  0  0  0  0  0  0  0  0  0  0
   58.9280   30.4180   46.8040 C   0  0  0  0  0  0  0  0  0  0  0  0
   59.3460   31.6300   47.4010 C   0  0  0  0  0  0  0  0  0  0  0  0
   60.4310   31.6790   48.4470 C   0  0  0  0  0  0  0  0  0  0  0  0
   58.7310   32.8240   47.0030 C   0  0  0  0  0  0  0  0  0  0  0  0
   57.7280   32.7870   46.0360 C   0  0  0  0  0  0  0  0  0  0  0  0
   57.1650   33.8520   45.6730 O   0  0  0  0  0  0  0  0  0  0  0  0
   57.3620   31.6330   45.4920 O   0  0  0  0  0  0  0  0  0  0  0  0
   57.9080   30.4640   45.8210 C   0  0  0  0  0  0  0  0  0  0  0  0
   57.4620   29.2750   45.1960 C   0  0  0  0  0  0  0  0  0  0  0  0
   56.3480   29.3000   44.2150 C   0  0  0  0  0  0  0  0  0  0  0  0
   55.1430   29.3400   44.5800 O   0  0  0  0  0  0  0  0  0  0  0  0
   58.0580   28.0420   45.5510 C   0  0  0  0  0  0  0  0  0  0  0  0
   57.6840   26.8400   44.9330 O   0  0  0  0  0  0  0  0  0  0  0  0
   56.7420   25.9520   45.4680 C   0  0  0  0  0  0  0  0  0  0  0  0
   55.9340   26.3530   46.3520 O   0  0  0  0  0  0  0  0  0  0  0  0
   56.6370   24.5660   44.9470 C   0  0  0  0  0  0  0  0  0  0  0  0
   56.6410   24.3680   43.5520 C   0  0  0  0  0  0  0  0  0  0  0  0
   56.6440   23.0800   43.0130 C   0  0  0  0  0  0  0  0  0  0  0  0
   56.6500   21.9710   43.8550 C   0  0  0  0  0  0  0  0  0  0  0  0
   56.6310   22.1430   45.2380 C   0  0  0  0  0  0  0  0  0  0  0  0
   56.6030   23.4300   45.8000 C   0  0  0  0  0  0  0  0  0  0  0  0
   56.4960   23.5520   47.2260 N   0  0  0  0  0  0  0  0  0  0  0  0
   55.5360   24.1710   47.7290 O   0  0  0  0  0  0  0  0  0  0  0  0
   57.2790   22.7670   48.0410 O   0  0  0  0  0  0  0  0  0  0  0  0
   59.6943   26.5970   48.0365 H   0  0  0  0  0  0  0  0  0  0  0  0
   59.0487   25.8559   46.5329 H   0  0  0  0  0  0  0  0  0  0  0  0
   60.6770   26.6144   46.5329 H   0  0  0  0  0  0  0  0  0  0  0  0
   60.2677   29.1325   47.9296 H   0  0  0  0  0  0  0  0  0  0  0  0
   59.9762   31.6585   49.4483 H   0  0  0  0  0  0  0  0  0  0  0  0
   61.0947   30.8099   48.3279 H   0  0  0  0  0  0  0  0  0  0  0  0
   61.0137   32.6044   48.3279 H   0  0  0  0  0  0  0  0  0  0  0  0
   59.0368   33.7817   47.4494 H   0  0  0  0  0  0  0  0  0  0  0  0
   56.5812   29.2831   43.1401 H   0  0  0  0  0  0  0  0  0  0  0  0
   56.6418   25.2385   42.8795 H   0  0  0  0  0  0  0  0  0  0  0  0
   56.6416   22.9412   41.9218 H   0  0  0  0  0  0  0  0  0  0  0  0
   56.6698   20.9575   43.4280 H   0  0  0  0  0  0  0  0  0  0  0  0
   56.6380   21.2617   45.8962 H   0  0  0  0  0  0  0  0  0  0  0  0
  1  2  1  0
  2  3  2  0
  3  4  1  0
  4  5  1  0
  5  6  1  0
  5  7  2  0
  7  8  1  0
  8  9  2  0
  8 10  1  0
 10 11  1  0
 11 12  1  0
 12 13  1  0
 13 14  2  0
 12 15  2  0
 15 16  1  0
 16 17  1  0
 17 18  2  0
 17 19  1  0
 19 20  2  0
 20 21  1  0
 21 22  2  0
 22 23  1  0
 23 24  2  0
 24 25  1  0
 25 26  2  0
 25 27  1  0
 15  2  1  0
 24 19  1  0
 11  4  2  0
  1 28  1  0
  1 29  1  0
  1 30  1  0
  3 31  1  0
  6 32  1  0
  6 33  1  0
  6 34  1  0
  7 35  1  0
 13 36  1  0
 20 37  1  0
 21 38  1  0
 22 39  1  0
 23 40  1  0
M  CHG  2  25   1  27  -1
M  END
>  <UniqueID>  (28) 
28

>  <SMILES>  (28) 
Cc1cc2c(C)cc(=O)oc2c(C=O)c1OC(=O)c1ccccc1[N+](=O)[O-]

>  <Energy>  (28) 
66.34670614794918

>  <Genealogy>  (28) 
Cc1cc2c(C)cc(=O)oc2c(C=O)c1OC(=O)c1ccccc1[N+](=O)[O-] (3D coordinates assigned)
Cc1cc2c(C)cc(=O)oc2c(C=O)c1OC(=O)c1ccccc1[N+](=O)[O-] (optimized conformer: 66.34670614794918 kcal/mol)

>  <smiles>  (28) 
Cc1cc2c(C)cc(=O)oc2c(C=O)c1OC(=O)c1ccccc1[N+](=O)[O-]

>  <score_type>  (28) 
oracle

>  <origin>  (28) 
adg

>  <m_score__min__energy>  (28) 
-9.3000000000000007

>  <m_primary>  (28) 
energy

$$$$
28:0
     RDKit          3D

 38 41  0  0  0  0  0  0  0  0999 V2000
   60.6140   27.8900   45.6470 C   0  0  0  0  0  0  0  0  0  0  0  0
   59.1990   27.4240   45.8270 C   0  0  0  0  0  0  0  0  0  0  0  0
   58.9360   26.1320   46.3070 C   0  0  0  0  0  0  0  0  0  0  0  0
   57.6180   25.6850   46.4330 C   0  0  0  0  0  0  0  0  0  0  0  0
   56.5560   26.5210   46.0800 C   0  0  0  0  0  0  0  0  0  0  0  0
   56.8020   27.8150   45.6050 C   0  0  0  0  0  0  0  0  0  0  0  0
   55.6910   28.6440   45.2390 N   0  0  0  0  0  0  0  0  0  0  0  0
   55.7010   29.6830   44.2520 C   0  0  0  0  0  0  0  0  0  0  0  0
   54.7780   29.7140   43.3950 O   0  0  0  0  0  0  0  0  0  0  0  0
   56.7240   30.7460   44.2420 C   0  0  0  0  0  0  0  0  0  0  0  0
   57.4070   31.2530   45.3430 C   0  0  0  0  0  0  0  0  0  0  0  0
   58.3210   32.2710   45.0180 C   0  0  0  0  0  0  0  0  0  0  0  0
   59.1810   32.9550   46.0180 C   0  0  0  0  0  0  0  0  0  0  0  0
   58.9010   34.2900   46.4200 C   0  0  0  0  0  0  0  0  0  0  0  0
   59.7100   34.9380   47.3710 C   0  0  0  0  0  0  0  0  0  0  0  0
   60.7840   34.2330   47.9010 C   0  0  0  0  0  0  0  0  0  0  0  0
   61.0610   32.9610   47.5260 C   0  0  0  0  0  0  0  0  0  0  0  0
   60.2900   32.2820   46.5880 C   0  0  0  0  0  0  0  0  0  0  0  0
   62.1730   32.5110   48.2110 O   0  0  0  0  0  0  0  0  0  0  0  0
   62.6230   33.5690   49.0680 C   0  0  0  0  0  0  0  0  0  0  0  0
   61.7080   34.6490   48.8400 O   0  0  0  0  0  0  0  0  0  0  0  0
   58.3400   32.5720   43.6550 C   0  0  0  0  0  0  0  0  0  0  0  0
   57.2290   31.5810   42.8750 S   0  0  0  0  0  0  0  0  0  0  0  0
   58.1310   28.2520   45.4510 C   0  0  0  0  0  0  0  0  0  0  0  0
   61.0779   28.0428   46.6326 H   0  0  0  0  0  0  0  0  0  0  0  0
   61.1816   27.1313   45.0882 H   0  0  0  0  0  0  0  0  0  0  0  0
   60.6197   28.8375   45.0882 H   0  0  0  0  0  0  0  0  0  0  0  0
   59.7691   25.4696   46.5847 H   0  0  0  0  0  0  0  0  0  0  0  0
   57.4162   24.6720   46.8112 H   0  0  0  0  0  0  0  0  0  0  0  0
   55.5210   26.1609   46.1757 H   0  0  0  0  0  0  0  0  0  0  0  0
   57.2473   30.8920   46.3697 H   0  0  0  0  0  0  0  0  0  0  0  0
   58.0429   34.8215   45.9828 H   0  0  0  0  0  0  0  0  0  0  0  0
   59.4991   35.9708   47.6854 H   0  0  0  0  0  0  0  0  0  0  0  0
   60.5348   31.2500   46.2965 H   0  0  0  0  0  0  0  0  0  0  0  0
   62.5922   33.2525   50.1210 H   0  0  0  0  0  0  0  0  0  0  0  0
   63.6628   33.8578   48.8551 H   0  0  0  0  0  0  0  0  0  0  0  0
   58.9749   33.3299   43.1728 H   0  0  0  0  0  0  0  0  0  0  0  0
   58.3334   29.2492   45.0331 H   0  0  0  0  0  0  0  0  0  0  0  0
  1  2  1  0
  2  3  2  0
  3  4  1  0
  4  5  2  0
  5  6  1  0
  6  7  1  0
  7  8  1  0
  8  9  2  0
  8 10  1  0
 10 11  2  0
 11 12  1  0
 12 13  1  0
 13 14  2  0
 14 15  1  0
 15 16  2  0
 16 17  1  0
 17 18  2  0
 17 19  1  0
 19 20  1  0
 20 21  1  0
 12 22  2  0
 22 23  1  0
  6 24  2  0
 24  2  1  0
 23 10  1  0
 18 13  1  0
 21 16  1  0
  1 25  1  0
  1 26  1  0
  1 27  1  0
  3 28  1  0
  4 29  1  0
  5 30  1  0
 11 31  1  0
 14 32  1  0
 15 33  1  0
 18 34  1  0
 20 35  1  0
 20 36  1  0
 22 37  1  0
 24 38  1  0
M  CHG  1   7  -1
M  END
>  <UniqueID>  (29) 
29

>  <SMILES>  (29) 
Cc1cccc([N-]C(=O)c2cc(-c3ccc4c(c3)OCO4)cs2)c1

>  <Energy>  (29) 
103.08801225024895

>  <Genealogy>  (29) 
Cc1cccc([N-]C(=O)c2cc(-c3ccc4c(c3)OCO4)cs2)c1 (protonated)
Cc1cccc([N-]C(=O)c2cc(-c3ccc4c(c3)OCO4)cs2)c1 (3D coordinates assigned)
Cc1cccc([N-]C(=O)c2cc(-c3ccc4c(c3)OCO4)cs2)c1 (nonaromatic ring conformer: 103.08801225024895 kcal/mol)

>  <smiles>  (29) 
Cc1cccc(NC(=O)c2cc(-c3ccc4c(c3)OCO4)cs2)c1

>  <score_type>  (29) 
oracle

>  <origin>  (29) 
adg

>  <m_score__min__energy>  (29) 
-9.5999999999999996

>  <m_primary>  (29) 
energy

$$$$
29:0
     RDKit          3D

 42 44  0  0  0  0  0  0  0  0999 V2000
   55.3350   29.3890   45.1910 O   0  0  0  0  0  0  0  0  0  0  0  0
   56.4270   28.5630   44.8690 C   0  0  2  0  0  0  0  0  0  0  0  0
   56.6470   27.4900   45.9520 C   0  0  0  0  0  0  0  0  0  0  0  0
   55.5420   26.5870   46.0010 O   0  0  0  0  0  0  0  0  0  0  0  0
   55.5810   25.2280   45.6480 C   0  0  0  0  0  0  0  0  0  0  0  0
   54.3740   24.5180   45.6280 C   0  0  0  0  0  0  0  0  0  0  0  0
   54.3530   23.1620   45.2850 C   0  0  0  0  0  0  0  0  0  0  0  0
   55.5400   22.5030   44.9610 C   0  0  0  0  0  0  0  0  0  0  0  0
   55.5080   21.1870   44.6290 F   0  0  0  0  0  0  0  0  0  0  0  0
   56.7540   23.1990   44.9810 C   0  0  0  0  0  0  0  0  0  0  0  0
   58.2530   22.3780   44.5780 Cl  0  0  0  0  0  0  0  0  0  0  0  0
   56.7780   24.5560   45.3250 C   0  0  0  0  0  0  0  0  0  0  0  0
   57.6860   29.4030   44.5770 C   0  0  0  0  0  0  0  0  0  0  0  0
   57.8770   30.4820   45.5790 N   0  0  0  0  0  0  0  0  0  0  0  0
   58.5100   30.0010   46.8470 C   0  0  0  0  0  0  0  0  0  0  0  0
   59.7220   30.8260   47.3220 C   0  0  0  0  0  0  0  0  0  0  0  0
   59.4350   32.2890   47.1780 C   0  0  0  0  0  0  0  0  0  0  0  0
   59.8080   33.2230   48.1550 C   0  0  0  0  0  0  0  0  0  0  0  0
   59.5470   34.5820   47.9540 C   0  0  0  0  0  0  0  0  0  0  0  0
   58.9260   35.0110   46.7750 C   0  0  0  0  0  0  0  0  0  0  0  0
   58.5660   34.0810   45.7940 C   0  0  0  0  0  0  0  0  0  0  0  0
   58.8140   32.7170   46.0010 C   0  0  0  0  0  0  0  0  0  0  0  0
   58.4960   31.6780   44.9620 C   0  0  0  0  0  0  0  0  0  0  0  0
   55.6530   30.0780   45.8300 H   0  0  0  0  0  0  0  0  0  0  0  0
   56.1980   28.0186   43.9410 H   0  0  0  0  0  0  0  0  0  0  0  0
   57.5633   26.9269   45.7212 H   0  0  0  0  0  0  0  0  0  0  0  0
   56.7400   27.9877   46.9286 H   0  0  0  0  0  0  0  0  0  0  0  0
   53.4351   25.0307   45.8840 H   0  0  0  0  0  0  0  0  0  0  0  0
   53.3993   22.6141   45.2706 H   0  0  0  0  0  0  0  0  0  0  0  0
   57.7340   25.0999   45.3434 H   0  0  0  0  0  0  0  0  0  0  0  0
   58.5656   28.7427   44.5935 H   0  0  0  0  0  0  0  0  0  0  0  0
   57.5608   29.8727   43.5902 H   0  0  0  0  0  0  0  0  0  0  0  0
   57.7480   30.0259   47.6399 H   0  0  0  0  0  0  0  0  0  0  0  0
   58.8887   28.9896   46.6379 H   0  0  0  0  0  0  0  0  0  0  0  0
   59.9267   30.5973   48.3783 H   0  0  0  0  0  0  0  0  0  0  0  0
   60.5972   30.5679   46.7076 H   0  0  0  0  0  0  0  0  0  0  0  0
   60.3047   32.8875   49.0773 H   0  0  0  0  0  0  0  0  0  0  0  0
   59.8301   35.3152   48.7236 H   0  0  0  0  0  0  0  0  0  0  0  0
   58.7209   36.0805   46.6198 H   0  0  0  0  0  0  0  0  0  0  0  0
   58.0893   34.4194   44.8622 H   0  0  0  0  0  0  0  0  0  0  0  0
   57.7979   32.1058   44.2274 H   0  0  0  0  0  0  0  0  0  0  0  0
   59.4329   31.3743   44.4720 H   0  0  0  0  0  0  0  0  0  0  0  0
  1  2  1  0
  2  3  1  0
  3  4  1  0
  4  5  1  0
  5  6  2  0
  6  7  1  0
  7  8  2  0
  8  9  1  0
  8 10  1  0
 10 11  1  0
 10 12  2  0
  2 13  1  0
 13 14  1  0
 14 15  1  0
 15 16  1  0
 16 17  1  0
 17 18  2  0
 18 19  1  0
 19 20  2  0
 20 21  1  0
 21 22  2  0
 22 23  1  0
 12  5  1  0
 23 14  1  0
 22 17  1  0
  1 24  1  0
  2 25  1  6
  3 26  1  0
  3 27  1  0
  6 28  1  0
  7 29  1  0
 12 30  1  0
 13 31  1  0
 13 32  1  0
 15 33  1  0
 15 34  1  0
 16 35  1  0
 16 36  1  0
 18 37  1  0
 19 38  1  0
 20 39  1  0
 21 40  1  0
 23 41  1  0
 23 42  1  0
M  END
>  <UniqueID>  (30) 
30

>  <SMILES>  (30) 
O[C@H](COc1ccc(F)c(Cl)c1)CN1CCc2ccccc2C1

>  <Energy>  (30) 
56.13684808041151

>  <Genealogy>  (30) 
O[C@H](COc1ccc(F)c(Cl)c1)CN1CCc2ccccc2C1 (chirality)
O[C@H](COc1ccc(F)c(Cl)c1)CN1CCc2ccccc2C1 (3D coordinates assigned)
O[C@H](COc1ccc(F)c(Cl)c1)CN1CCc2ccccc2C1 (nonaromatic ring conformer: 56.13684808041151 kcal/mol)

>  <smiles>  (30) 
OC(COc1ccc(F)c(Cl)c1)CN1CCc2ccccc2C1

>  <score_type>  (30) 
oracle

>  <origin>  (30) 
adg

>  <m_score__min__energy>  (30) 
-7.9500000000000002

>  <m_primary>  (30) 
energy

$$$$
30:0
     RDKit          3D

 41 43  0  0  0  0  0  0  0  0999 V2000
   57.8950   28.3500   44.5960 O   0  0  0  0  0  0  0  0  0  0  0  0
   56.8500   28.1000   45.2510 C   0  0  0  0  0  0  0  0  0  0  0  0
   55.7140   28.9610   45.1120 N   0  0  0  0  0  0  0  0  0  0  0  0
   55.4460   29.7600   43.9190 C   0  0  0  0  0  0  0  0  0  0  0  0
   56.4830   30.8370   43.7390 C   0  0  0  0  0  0  0  0  0  0  0  0
   57.0210   31.1310   42.4720 C   0  0  0  0  0  0  0  0  0  0  0  0
   58.0170   32.1040   42.3360 C   0  0  0  0  0  0  0  0  0  0  0  0
   58.5040   32.7700   43.4630 C   0  0  0  0  0  0  0  0  0  0  0  0
   58.0020   32.4600   44.7290 C   0  0  0  0  0  0  0  0  0  0  0  0
   57.0000   31.4940   44.8690 C   0  0  0  0  0  0  0  0  0  0  0  0
   56.8350   26.9480   46.1660 C   0  0  0  0  0  0  0  0  0  0  0  0
   55.8770   26.0060   46.1460 N   0  0  0  0  0  0  0  0  0  0  0  0
   56.2930   25.1010   47.0560 C   0  0  0  0  0  0  0  0  0  0  0  0
   57.4610   25.4230   47.6510 N   0  0  0  0  0  0  0  0  0  0  0  0
   57.7980   26.5990   47.0930 C   0  0  0  0  0  0  0  0  0  0  0  0
   58.9820   27.3750   47.4980 C   0  0  0  0  0  0  0  0  0  0  0  0
   59.8000   26.8660   48.3120 O   0  0  0  0  0  0  0  0  0  0  0  0
   59.1830   28.7120   47.0160 N   0  0  0  0  0  0  0  0  0  0  0  0
   60.4170   29.4560   47.2480 C   0  0  0  0  0  0  0  0  0  0  0  0
   60.1190   30.9190   47.4110 C   0  0  0  0  0  0  0  0  0  0  0  0
   58.8590   31.3470   47.8630 C   0  0  0  0  0  0  0  0  0  0  0  0
   58.5820   32.7130   47.9810 C   0  0  0  0  0  0  0  0  0  0  0  0
   59.5610   33.6580   47.6590 C   0  0  0  0  0  0  0  0  0  0  0  0
   60.8260   33.2390   47.2390 C   0  0  0  0  0  0  0  0  0  0  0  0
   61.1060   31.8740   47.1160 C   0  0  0  0  0  0  0  0  0  0  0  0
   55.4554   29.1022   43.0374 H   0  0  0  0  0  0  0  0  0  0  0  0
   54.4630   30.2397   44.0354 H   0  0  0  0  0  0  0  0  0  0  0  0
   56.6565   30.5931   41.5844 H   0  0  0  0  0  0  0  0  0  0  0  0
   58.4171   32.3449   41.3401 H   0  0  0  0  0  0  0  0  0  0  0  0
   59.2831   33.5388   43.3535 H   0  0  0  0  0  0  0  0  0  0  0  0
   58.3951   32.9762   45.6172 H   0  0  0  0  0  0  0  0  0  0  0  0
   56.6144   31.2471   45.8692 H   0  0  0  0  0  0  0  0  0  0  0  0
   55.7318   24.1847   47.2915 H   0  0  0  0  0  0  0  0  0  0  0  0
   58.4050   29.2020   46.5210 H   0  0  0  0  0  0  0  0  0  0  0  0
   60.9014   29.0801   48.1613 H   0  0  0  0  0  0  0  0  0  0  0  0
   61.0851   29.3203   46.3847 H   0  0  0  0  0  0  0  0  0  0  0  0
   58.0890   30.6062   48.1245 H   0  0  0  0  0  0  0  0  0  0  0  0
   57.5921   33.0444   48.3278 H   0  0  0  0  0  0  0  0  0  0  0  0
   59.3352   34.7318   47.7364 H   0  0  0  0  0  0  0  0  0  0  0  0
   61.6020   33.9827   47.0050 H   0  0  0  0  0  0  0  0  0  0  0  0
   62.1034   31.5470   46.7869 H   0  0  0  0  0  0  0  0  0  0  0  0
  1  2  2  0
  2  3  1  0
  3  4  1  0
  4  5  1  0
  5  6  2  0
  6  7  1  0
  7  8  2  0
  8  9  1  0
  9 10  2  0
  2 11  1  0
 11 12  1  0
 12 13  2  0
 13 14  1  0
 14 15  1  0
 15 16  1  0
 16 17  2  0
 16 18  1  0
 18 19  1  0
 19 20  1  0
 20 21  2  0
 21 22  1  0
 22 23  2  0
 23 24  1  0
 24 25  2  0
 10  5  1  0
 15 11  2  0
 25 20  1  0
  4 26  1  0
  4 27  1  0
  6 28  1  0
  7 29  1  0
  8 30  1  0
  9 31  1  0
 10 32  1  0
 13 33  1  0
 18 34  1  0
 19 35  1  0
 19 36  1  0
 21 37  1  0
 22 38  1  0
 23 39  1  0
 24 40  1  0
 25 41  1  0
M  CHG  2   3  -1  14  -1
M  END
>  <UniqueID>  (31) 
31

>  <SMILES>  (31) 
O=C([N-]Cc1ccccc1)c1nc[n-]c1C(=O)NCc1ccccc1

>  <Energy>  (31) 
70.70054785314424

>  <Genealogy>  (31) 
O=C([N-]Cc1ccccc1)c1nc[n-]c1C(=O)NCc1ccccc1 (protonated)
O=C([N-]Cc1ccccc1)c1nc[n-]c1C(=O)NCc1ccccc1 (3D coordinates assigned)
O=C([N-]Cc1ccccc1)c1nc[n-]c1C(=O)NCc1ccccc1 (optimized conformer: 70.70054785314424 kcal/mol)

>  <smiles>  (31) 
O=C(NCc1ccccc1)c1nc[nH]c1C(=O)NCc1ccccc1

>  <score_type>  (31) 
oracle

>  <origin>  (31) 
adg

>  <m_score__min__energy>  (31) 
-11.08

>  <m_primary>  (31) 
energy

$$$$
31:0
     RDKit          3D

 35 37  0  0  0  0  0  0  0  0999 V2000
   56.6670   30.6970   45.0680 O   0  0  0  0  0  0  0  0  0  0  0  0
   57.8770   30.9090   45.3530 C   0  0  0  0  0  0  0  0  0  0  0  0
   58.7700   29.7980   45.5370 N   0  0  0  0  0  0  0  0  0  0  0  0
   58.3390   28.4830   45.9300 C   0  0  0  0  0  0  0  0  0  0  0  0
   59.2420   27.6270   46.5760 C   0  0  0  0  0  0  0  0  0  0  0  0
   58.8400   26.3520   46.9810 C   0  0  0  0  0  0  0  0  0  0  0  0
   57.5270   25.9290   46.7680 C   0  0  0  0  0  0  0  0  0  0  0  0
   56.5980   26.7850   46.1670 C   0  0  0  0  0  0  0  0  0  0  0  0
   55.2550   26.3210   45.9660 N   0  0  0  0  0  0  0  0  0  0  0  0
   54.8650   24.9800   45.6420 C   0  0  0  0  0  0  0  0  0  0  0  0
   53.7150   24.5860   45.9730 O   0  0  0  0  0  0  0  0  0  0  0  0
   55.7400   24.0670   44.8860 C   0  0  0  0  0  0  0  0  0  0  0  0
   55.6130   23.7150   43.5540 C   0  0  0  0  0  0  0  0  0  0  0  0
   56.6440   22.8360   43.3030 C   0  0  0  0  0  0  0  0  0  0  0  0
   57.3300   22.6990   44.4920 C   0  0  0  0  0  0  0  0  0  0  0  0
   56.7650   23.4410   45.4170 O   0  0  0  0  0  0  0  0  0  0  0  0
   57.0120   28.0570   45.7310 C   0  0  0  0  0  0  0  0  0  0  0  0
   58.3710   32.3050   45.4460 C   0  0  0  0  0  0  0  0  0  0  0  0
   59.5020   32.6270   46.2160 C   0  0  0  0  0  0  0  0  0  0  0  0
   59.9420   33.9490   46.2970 C   0  0  0  0  0  0  0  0  0  0  0  0
   59.2480   34.9450   45.6100 C   0  0  0  0  0  0  0  0  0  0  0  0
   58.1510   34.6250   44.8760 N   0  0  0  0  0  0  0  0  0  0  0  0
   57.7000   33.3460   44.7810 C   0  0  0  0  0  0  0  0  0  0  0  0
   59.7740   29.9270   45.2790 H   0  0  0  0  0  0  0  0  0  0  0  0
   60.2728   27.9613   46.7650 H   0  0  0  0  0  0  0  0  0  0  0  0
   59.5604   25.6793   47.4693 H   0  0  0  0  0  0  0  0  0  0  0  0
   57.2213   24.9177   47.0742 H   0  0  0  0  0  0  0  0  0  0  0  0
   54.8488   24.0639   42.8439 H   0  0  0  0  0  0  0  0  0  0  0  0
   56.8738   22.3428   42.3470 H   0  0  0  0  0  0  0  0  0  0  0  0
   58.2159   22.0645   44.6426 H   0  0  0  0  0  0  0  0  0  0  0  0
   56.2937   28.7234   45.2311 H   0  0  0  0  0  0  0  0  0  0  0  0
   60.0416   31.8351   46.7561 H   0  0  0  0  0  0  0  0  0  0  0  0
   60.8281   34.2032   46.8972 H   0  0  0  0  0  0  0  0  0  0  0  0
   59.5891   35.9894   45.6627 H   0  0  0  0  0  0  0  0  0  0  0  0
   56.8053   33.1246   44.1806 H   0  0  0  0  0  0  0  0  0  0  0  0
  1  2  2  0
  2  3  1  0
  3  4  1  0
  4  5  2  0
  5  6  1  0
  6  7  2  0
  7  8  1  0
  8  9  1  0
  9 10  1  0
 10 11  2  0
 10 12  1  0
 12 13  2  0
 13 14  1  0
 14 15  2  0
 15 16  1  0
  8 17  2  0
  2 18  1  0
 18 19  2  0
 19 20  1  0
 20 21  2  0
 21 22  1  0
 22 23  2  0
 17  4  1  0
 23 18  1  0
 16 12  1  0
  3 24  1  0
  5 25  1  0
  6 26  1  0
  7 27  1  0
 13 28  1  0
 14 29  1  0
 15 30  1  0
 17 31  1  0
 19 32  1  0
 20 33  1  0
 21 34  1  0
 23 35  1  0
M  CHG  1   9  -1
M  END
>  <UniqueID>  (32) 
32

>  <SMILES>  (32) 
O=C(Nc1cccc([N-]C(=O)c2ccco2)c1)c1cccnc1

>  <Energy>  (32) 
74.62626751866541

>  <Genealogy>  (32) 
O=C(Nc1cccc([N-]C(=O)c2ccco2)c1)c1cccnc1 (protonated)
O=C(Nc1cccc([N-]C(=O)c2ccco2)c1)c1cccnc1 (3D coordinates assigned)
O=C(Nc1cccc([N-]C(=O)c2ccco2)c1)c1cccnc1 (optimized conformer: 74.62626751866541 kcal/mol)

>  <smiles>  (32) 
O=C(Nc1cccc(NC(=O)c2ccco2)c1)c1cccnc1

>  <score_type>  (32) 
oracle

>  <origin>  (32) 
adg

>  <m_score__min__energy>  (32) 
-9.8800000000000008

>  <m_primary>  (32) 
energy

$$$$
32:0
     RDKit          3D

 41 43  0  0  0  0  0  0  0  0999 V2000
   57.3780   31.5160   42.7970 C   0  0  0  0  0  0  0  0  0  0  0  0
   57.2100   30.5100   44.2530 S   0  0  0  0  0  0  0  0  0  0  0  0
   55.7640   30.1430   44.4470 O   0  0  0  0  0  0  0  0  0  0  0  0
   58.0090   29.2470   44.0870 O   0  0  0  0  0  0  0  0  0  0  0  0
   57.7890   31.4050   45.6530 C   0  0  0  0  0  0  0  0  0  0  0  0
   58.5340   30.7550   46.6440 C   0  0  0  0  0  0  0  0  0  0  0  0
   58.9820   31.4600   47.7650 C   0  0  0  0  0  0  0  0  0  0  0  0
   58.6800   32.8280   47.9120 C   0  0  0  0  0  0  0  0  0  0  0  0
   59.0970   33.5840   49.0200 O   0  0  0  0  0  0  0  0  0  0  0  0
   60.1090   34.5910   48.9980 C   0  0  0  0  0  0  0  0  0  0  0  0
   61.3870   34.0490   48.4120 C   0  0  0  0  0  0  0  0  0  0  0  0
   61.5610   34.0200   47.0220 C   0  0  0  0  0  0  0  0  0  0  0  0
   62.7370   33.5120   46.4700 C   0  0  0  0  0  0  0  0  0  0  0  0
   63.7520   33.0300   47.3010 C   0  0  0  0  0  0  0  0  0  0  0  0
   63.6020   33.0540   48.7000 C   0  0  0  0  0  0  0  0  0  0  0  0
   64.6910   32.5390   49.5680 C   0  0  0  0  0  0  0  0  0  0  0  0
   64.4680   31.5290   50.5160 C   0  0  0  0  0  0  0  0  0  0  0  0
   65.5270   31.0890   51.3080 C   0  0  0  0  0  0  0  0  0  0  0  0
   66.7850   31.6670   51.1450 C   0  0  0  0  0  0  0  0  0  0  0  0
   67.7550   31.2830   51.8510 O   0  0  0  0  0  0  0  0  0  0  0  0
   66.9560   32.6500   50.2220 N   0  0  0  0  0  0  0  0  0  0  0  0
   65.9410   33.0710   49.4630 N   0  0  0  0  0  0  0  0  0  0  0  0
   62.4030   33.5530   49.2460 C   0  0  0  0  0  0  0  0  0  0  0  0
   57.9350   33.4710   46.9160 C   0  0  0  0  0  0  0  0  0  0  0  0
   57.4880   32.7650   45.7950 C   0  0  0  0  0  0  0  0  0  0  0  0
   57.5526   32.5613   43.0917 H   0  0  0  0  0  0  0  0  0  0  0  0
   58.2286   31.1567   42.1992 H   0  0  0  0  0  0  0  0  0  0  0  0
   56.4568   31.4525   42.1992 H   0  0  0  0  0  0  0  0  0  0  0  0
   58.7679   29.6852   46.5402 H   0  0  0  0  0  0  0  0  0  0  0  0
   59.5731   30.9440   48.5359 H   0  0  0  0  0  0  0  0  0  0  0  0
   59.7625   35.4379   48.3875 H   0  0  0  0  0  0  0  0  0  0  0  0
   60.3041   34.9189   50.0297 H   0  0  0  0  0  0  0  0  0  0  0  0
   60.7664   34.3997   46.3629 H   0  0  0  0  0  0  0  0  0  0  0  0
   62.8658   33.4907   45.3778 H   0  0  0  0  0  0  0  0  0  0  0  0
   64.6754   32.6287   46.8580 H   0  0  0  0  0  0  0  0  0  0  0  0
   63.4668   31.0886   50.6330 H   0  0  0  0  0  0  0  0  0  0  0  0
   65.3719   30.2948   52.0531 H   0  0  0  0  0  0  0  0  0  0  0  0
   67.8950   33.0900   50.0980 H   0  0  0  0  0  0  0  0  0  0  0  0
   62.2608   33.5543   50.3368 H   0  0  0  0  0  0  0  0  0  0  0  0
   57.6994   34.5408   47.0163 H   0  0  0  0  0  0  0  0  0  0  0  0
   56.8980   33.2796   45.0223 H   0  0  0  0  0  0  0  0  0  0  0  0
  1  2  1  0
  2  3  2  0
  2  4  2  0
  2  5  1  0
  5  6  2  0
  6  7  1  0
  7  8  2  0
  8  9  1  0
  9 10  1  0
 10 11  1  0
 11 12  2  0
 12 13  1  0
 13 14  2  0
 14 15  1  0
 15 16  1  0
 16 17  1  0
 17 18  2  0
 18 19  1  0
 19 20  2  0
 19 21  1  0
 21 22  1  0
 15 23  2  0
  8 24  1  0
 24 25  2  0
 25  5  1  0
 23 11  1  0
 22 16  2  0
  1 26  1  0
  1 27  1  0
  1 28  1  0
  6 29  1  0
  7 30  1  0
 10 31  1  0
 10 32  1  0
 12 33  1  0
 13 34  1  0
 14 35  1  0
 17 36  1  0
 18 37  1  0
 21 38  1  0
 23 39  1  0
 24 40  1  0
 25 41  1  0
M  END
>  <UniqueID>  (33) 
33

>  <SMILES>  (33) 
CS(=O)(=O)c1ccc(OCc2cccc(-c3ccc(=O)[nH]n3)c2)cc1

>  <Energy>  (33) 
45.052562300555344

>  <Genealogy>  (33) 
CS(=O)(=O)c1ccc(OCc2cccc(-c3ccc(=O)[nH]n3)c2)cc1 (3D coordinates assigned)
CS(=O)(=O)c1ccc(OCc2cccc(-c3ccc(=O)[nH]n3)c2)cc1 (optimized conformer: 45.052562300555344 kcal/mol)

>  <smiles>  (33) 
CS(=O)(=O)c1ccc(OCc2cccc(-c3ccc(=O)[nH]n3)c2)cc1

>  <score_type>  (33) 
oracle

>  <origin>  (33) 
adg

>  <m_score__min__energy>  (33) 
-8.8699999999999992

>  <m_primary>  (33) 
energy

$$$$
33:0
     RDKit          3D

 26 28  0  0  0  0  0  0  0  0999 V2000
   51.0180   32.3350   49.9650 O   0  0  0  0  0  0  0  0  0  0  0  0
   51.3330   32.3290   51.1860 C   0  0  0  0  0  0  0  0  0  0  0  0
   50.8820   33.3600   52.0030 O   0  0  0  0  0  0  0  0  0  0  0  0
   52.1700   31.2420   51.7420 C   0  0  0  0  0  0  0  0  0  0  0  0
   53.5600   31.2320   51.5380 C   0  0  0  0  0  0  0  0  0  0  0  0
   54.3460   30.2030   52.0660 C   0  0  0  0  0  0  0  0  0  0  0  0
   53.7600   29.1630   52.8060 C   0  0  0  0  0  0  0  0  0  0  0  0
   54.6020   28.0760   53.3600 C   0  0  0  0  0  0  0  0  0  0  0  0
   55.9450   28.1890   53.5220 N   0  0  0  0  0  0  0  0  0  0  0  0
   56.4790   27.0560   54.0480 C   0  0  0  0  0  0  0  0  0  0  0  0
   57.8370   26.8800   54.3240 C   0  0  0  0  0  0  0  0  0  0  0  0
   58.2610   25.6550   54.8690 C   0  0  0  0  0  0  0  0  0  0  0  0
   59.5730   25.4600   55.1460 F   0  0  0  0  0  0  0  0  0  0  0  0
   57.3300   24.6280   55.1290 C   0  0  0  0  0  0  0  0  0  0  0  0
   55.9680   24.8180   54.8460 C   0  0  0  0  0  0  0  0  0  0  0  0
   55.0640   23.8370   55.0910 F   0  0  0  0  0  0  0  0  0  0  0  0
   55.5740   26.0410   54.3060 C   0  0  0  0  0  0  0  0  0  0  0  0
   54.0390   26.5570   53.8700 S   0  0  0  0  0  0  0  0  0  0  0  0
   52.3680   29.1740   53.0080 C   0  0  0  0  0  0  0  0  0  0  0  0
   51.5820   30.2030   52.4820 C   0  0  0  0  0  0  0  0  0  0  0  0
   54.0331   32.0389   50.9591 H   0  0  0  0  0  0  0  0  0  0  0  0
   55.4334   30.2081   51.9002 H   0  0  0  0  0  0  0  0  0  0  0  0
   58.5600   27.6833   54.1192 H   0  0  0  0  0  0  0  0  0  0  0  0
   57.6726   23.6737   55.5555 H   0  0  0  0  0  0  0  0  0  0  0  0
   51.8941   28.3660   53.5847 H   0  0  0  0  0  0  0  0  0  0  0  0
   50.4947   30.1992   52.6488 H   0  0  0  0  0  0  0  0  0  0  0  0
  1  2  2  0
  2  3  1  0
  2  4  1  0
  4  5  2  0
  5  6  1  0
  6  7  2  0
  7  8  1  0
  8  9  2  0
  9 10  1  0
 10 11  2  0
 11 12  1  0
 12 13  1  0
 12 14  2  0
 14 15  1  0
 15 16  1  0
 15 17  2  0
 17 18  1  0
  7 19  1  0
 19 20  2  0
 20  4  1  0
 18  8  1  0
 17 10  1  0
  5 21  1  0
  6 22  1  0
 11 23  1  0
 14 24  1  0
 19 25  1  0
 20 26  1  0
M  CHG  1   3  -1
M  END
>  <UniqueID>  (34) 
34

>  <SMILES>  (34) 
O=C([O-])c1ccc(-c2nc3cc(F)cc(F)c3s2)cc1

>  <Energy>  (34) 
65.34558866608623

>  <Genealogy>  (34) 
O=C([O-])c1ccc(-c2nc3cc(F)cc(F)c3s2)cc1 (protonated)
O=C([O-])c1ccc(-c2nc3cc(F)cc(F)c3s2)cc1 (3D coordinates assigned)
O=C([O-])c1ccc(-c2nc3cc(F)cc(F)c3s2)cc1 (optimized conformer: 65.34558866608623 kcal/mol)

>  <smiles>  (34) 
O=C(O)c1ccc(-c2nc3cc(F)cc(F)c3s2)cc1

>  <score_type>  (34) 
oracle

>  <origin>  (34) 
adg

>  <m_score__min__energy>  (34) 
-9

>  <m_primary>  (34) 
energy

$$$$
34:0
     RDKit          3D

 40 42  0  0  0  0  0  0  0  0999 V2000
   65.1300   32.3640   50.1130 C   0  0  0  0  0  0  0  0  0  0  0  0
   64.8640   33.0950   48.9210 O   0  0  0  0  0  0  0  0  0  0  0  0
   63.5680   33.3830   48.4840 C   0  0  0  0  0  0  0  0  0  0  0  0
   63.2460   33.2150   47.1360 C   0  0  0  0  0  0  0  0  0  0  0  0
   61.9510   33.5020   46.6980 C   0  0  0  0  0  0  0  0  0  0  0  0
   60.9790   33.9440   47.6100 C   0  0  0  0  0  0  0  0  0  0  0  0
   59.6000   34.2570   47.1680 C   0  0  0  0  0  0  0  0  0  0  0  0
   58.9230   35.1030   47.8130 O   0  0  0  0  0  0  0  0  0  0  0  0
   59.0230   33.6700   45.9950 N   0  0  0  0  0  0  0  0  0  0  0  0
   58.5040   32.3360   45.8830 C   0  0  0  0  0  0  0  0  0  0  0  0
   58.9540   31.2920   46.7040 C   0  0  0  0  0  0  0  0  0  0  0  0
   58.4120   30.0110   46.5700 C   0  0  0  0  0  0  0  0  0  0  0  0
   57.3900   29.7840   45.6250 C   0  0  0  0  0  0  0  0  0  0  0  0
   56.8430   28.6150   45.4330 N   0  0  0  0  0  0  0  0  0  0  0  0
   57.4070   27.4360   44.8300 C   0  0  0  0  0  0  0  0  0  0  0  0
   58.1990   27.5430   43.8540 O   0  0  0  0  0  0  0  0  0  0  0  0
   57.1250   26.1000   45.4200 C   0  0  0  0  0  0  0  0  0  0  0  0
   58.1330   25.1150   45.4310 C   0  0  0  0  0  0  0  0  0  0  0  0
   57.8930   23.8530   45.9790 C   0  0  0  0  0  0  0  0  0  0  0  0
   56.6460   23.5530   46.5270 C   0  0  0  0  0  0  0  0  0  0  0  0
   55.6350   24.5150   46.5280 C   0  0  0  0  0  0  0  0  0  0  0  0
   55.8640   25.7830   45.9820 C   0  0  0  0  0  0  0  0  0  0  0  0
   54.8310   26.7140   46.0080 O   0  0  0  0  0  0  0  0  0  0  0  0
   56.9720   30.8210   44.8500 N   0  0  0  0  0  0  0  0  0  0  0  0
   57.4890   32.0730   44.9630 C   0  0  0  0  0  0  0  0  0  0  0  0
   61.3510   34.1130   48.9530 C   0  0  0  0  0  0  0  0  0  0  0  0
   62.6190   33.8280   49.3540 N   0  0  0  0  0  0  0  0  0  0  0  0
   64.9015   32.9918   50.9868 H   0  0  0  0  0  0  0  0  0  0  0  0
   64.5030   31.4605   50.1367 H   0  0  0  0  0  0  0  0  0  0  0  0
   66.1910   32.0747   50.1367 H   0  0  0  0  0  0  0  0  0  0  0  0
   64.0059   32.8595   46.4246 H   0  0  0  0  0  0  0  0  0  0  0  0
   61.6919   33.3814   45.6358 H   0  0  0  0  0  0  0  0  0  0  0  0
   59.7351   31.4818   47.4549 H   0  0  0  0  0  0  0  0  0  0  0  0
   58.7798   29.1855   47.1971 H   0  0  0  0  0  0  0  0  0  0  0  0
   59.1203   25.3429   45.0029 H   0  0  0  0  0  0  0  0  0  0  0  0
   58.6892   23.0940   45.9784 H   0  0  0  0  0  0  0  0  0  0  0  0
   56.4595   22.5584   46.9583 H   0  0  0  0  0  0  0  0  0  0  0  0
   54.6524   24.2752   46.9605 H   0  0  0  0  0  0  0  0  0  0  0  0
   57.1050   32.8831   44.3256 H   0  0  0  0  0  0  0  0  0  0  0  0
   60.6141   34.4773   49.6839 H   0  0  0  0  0  0  0  0  0  0  0  0
  1  2  1  0
  2  3  1  0
  3  4  2  0
  4  5  1  0
  5  6  2  0
  6  7  1  0
  7  8  2  0
  7  9  1  0
  9 10  1  0
 10 11  1  0
 11 12  2  0
 12 13  1  0
 13 14  2  3
 14 15  1  0
 15 16  2  0
 15 17  1  0
 17 18  2  0
 18 19  1  0
 19 20  2  0
 20 21  1  0
 21 22  2  0
 22 23  1  0
 13 24  1  0
 24 25  1  0
  6 26  1  0
 26 27  2  0
 27  3  1  0
 25 10  2  0
 22 17  1  0
  1 28  1  0
  1 29  1  0
  1 30  1  0
  4 31  1  0
  5 32  1  0
 11 33  1  0
 12 34  1  0
 18 35  1  0
 19 36  1  0
 20 37  1  0
 21 38  1  0
 25 39  1  0
 26 40  1  0
M  CHG  3   9  -1  23  -1  24  -1
M  END
>  <UniqueID>  (35) 
35

>  <SMILES>  (35) 
COc1ccc(C(=O)[N-]c2ccc(=NC(=O)c3ccccc3[O-])[n-]c2)cn1

>  <Energy>  (35) 
59.4469417255727

>  <Genealogy>  (35) 
COc1ccc(C(=O)[N-]c2ccc(=NC(=O)c3ccccc3[O-])[n-]c2)cn1 (protonated)
COc1ccc(C(=O)[N-]c2ccc(=NC(=O)c3ccccc3[O-])[n-]c2)cn1 (3D coordinates assigned)
COc1ccc(C(=O)[N-]c2ccc(=NC(=O)c3ccccc3[O-])[n-]c2)cn1 (optimized conformer: 59.4469417255727 kcal/mol)

>  <smiles>  (35) 
COc1ccc(C(=O)Nc2ccc(=NC(=O)c3ccccc3O)[nH]c2)cn1

>  <score_type>  (35) 
oracle

>  <origin>  (35) 
adg

>  <m_score__min__energy>  (35) 
-14.380000000000001

>  <m_primary>  (35) 
energy

$$$$
35:0
     RDKit          3D

 44 47  0  0  1  0  0  0  0  0999 V2000
   55.4810   29.8300   52.8280 C   0  0  0  0  0  0  0  0  0  0  0  0
   56.6700   29.6520   52.0850 O   0  0  0  0  0  0  0  0  0  0  0  0
   57.4210   30.7140   51.5990 C   0  0  0  0  0  0  0  0  0  0  0  0
   58.2100   30.5190   50.4620 C   0  0  0  0  0  0  0  0  0  0  0  0
   58.9810   31.5620   49.9410 C   0  0  0  0  0  0  0  0  0  0  0  0
   58.9700   32.8020   50.5470 C   0  0  0  0  0  0  0  0  0  0  0  0
   59.7330   33.9060   50.0660 N   0  0  0  0  0  0  0  0  0  0  0  0
   60.0820   33.9260   48.8470 C   0  0  0  0  0  0  0  0  0  0  0  0
   59.2610   34.1110   47.8010 N   0  0  0  0  0  0  0  0  0  0  0  0
   59.6890   34.1240   46.5260 C   0  0  0  0  0  0  0  0  0  0  0  0
   58.8970   34.3020   45.5190 N   0  0  0  0  0  0  0  0  0  0  0  0
   58.3630   33.1590   44.8620 C   0  0  0  0  0  0  0  0  0  0  0  0
   57.9870   32.0990   45.6780 C   0  0  0  0  0  0  0  0  0  0  0  0
   57.4580   30.9450   45.1290 C   0  0  0  0  0  0  0  0  0  0  0  0
   57.3110   30.8720   43.7480 C   0  0  0  0  0  0  0  0  0  0  0  0
   56.6370   29.3950   43.0860 Cl  0  0  0  0  0  0  0  0  0  0  0  0
   57.6900   31.9340   42.9460 C   0  0  0  0  0  0  0  0  0  0  0  0
   58.2220   33.0960   43.4860 C   0  0  0  0  0  0  0  0  0  0  0  0
   61.0040   33.9430   46.2810 N   0  0  0  0  0  0  0  0  0  0  0  0
   61.9050   33.7510   47.2610 C   0  0  0  0  0  0  0  0  0  0  0  0
   63.2450   33.5660   47.0120 C   0  0  0  0  0  0  0  0  0  0  0  0
   64.1310   33.3730   48.0520 C   0  0  0  0  0  0  0  0  0  0  0  0
   63.6790   33.3610   49.3710 C   0  0  0  0  0  0  0  0  0  0  0  0
   62.3290   33.5480   49.5920 C   0  0  0  0  0  0  0  0  0  0  0  0
   61.4380   33.7420   48.5670 C   0  0  0  0  0  0  0  0  0  0  0  0
   58.1910   32.9970   51.6690 C   0  0  0  0  0  0  0  0  0  0  0  0
   57.4290   31.9660   52.1830 C   0  0  0  0  0  0  0  0  0  0  0  0
   55.7117   29.7955   53.9030 H   0  0  0  0  0  0  0  0  0  0  0  0
   55.0359   30.8048   52.5797 H   0  0  0  0  0  0  0  0  0  0  0  0
   54.7699   29.0283   52.5797 H   0  0  0  0  0  0  0  0  0  0  0  0
   58.2244   29.5343   49.9719 H   0  0  0  0  0  0  0  0  0  0  0  0
   59.5980   31.3942   49.0459 H   0  0  0  0  0  0  0  0  0  0  0  0
   58.2530   34.2480   48.0170 H   0  0  0  0  0  0  0  0  0  0  0  0
   58.1109   32.1782   46.7681 H   0  0  0  0  0  0  0  0  0  0  0  0
   57.1599   30.1030   45.7710 H   0  0  0  0  0  0  0  0  0  0  0  0
   57.5667   31.8552   41.8558 H   0  0  0  0  0  0  0  0  0  0  0  0
   58.5212   33.9374   42.8438 H   0  0  0  0  0  0  0  0  0  0  0  0
   61.3960   33.9440   45.2990 H   0  0  0  0  0  0  0  0  0  0  0  0
   63.6133   33.5720   45.9755 H   0  0  0  0  0  0  0  0  0  0  0  0
   65.2004   33.2277   47.8393 H   0  0  0  0  0  0  0  0  0  0  0  0
   64.3755   33.2075   50.2085 H   0  0  0  0  0  0  0  0  0  0  0  0
   61.9547   33.5412   50.6263 H   0  0  0  0  0  0  0  0  0  0  0  0
   58.1767   33.9820   52.1584 H   0  0  0  0  0  0  0  0  0  0  0  0
   56.8146   32.1458   53.0775 H   0  0  0  0  0  0  0  0  0  0  0  0
  1  2  1  0
  2  3  1  0
  3  4  2  0
  4  5  1  0
  5  6  2  0
  6  7  1  0
  7  8  2  0
  8  9  1  0
  9 10  1  0
 10 11  2  0
 11 12  1  0
 12 13  2  0
 13 14  1  0
 14 15  2  0
 15 16  1  0
 15 17  1  0
 17 18  2  0
 10 19  1  0
 19 20  1  0
 20 21  2  0
 21 22  1  0
 22 23  2  0
 23 24  1  0
 24 25  2  0
  6 26  1  0
 26 27  2  0
 27  3  1  0
 25  8  1  0
 18 12  1  0
 25 20  1  0
  1 28  1  0
  1 29  1  0
  1 30  1  0
  4 31  1  0
  5 32  1  0
  9 33  1  0
 13 34  1  0
 14 35  1  0
 17 36  1  0
 18 37  1  0
 19 38  1  0
 21 39  1  0
 22 40  1  0
 23 41  1  0
 24 42  1  0
 26 43  1  0
 27 44  1  0
M  END
>  <smiles>  (36) 
COc1ccc(N=c2[nH]c(=Nc3ccc(Cl)cc3)[nH]c3ccccc23)cc1

>  <score_type>  (36) 
oracle

>  <origin>  (36) 
adg

>  <m_score__min__energy>  (36) 
-9.0099999999999998

>  <m_primary>  (36) 
energy

$$$$
36:0
     RDKit          3D

 42 44  0  0  0  0  0  0  0  0999 V2000
   60.0480   29.4530   51.1320 N   0  0  0  0  0  0  0  0  0  0  0  0
   58.7320   29.9700   50.1370 S   0  0  0  0  0  0  0  0  0  0  0  0
   58.4850   28.9550   49.0570 O   0  0  0  0  0  0  0  0  0  0  0  0
   57.4960   30.0920   50.9830 O   0  0  0  0  0  0  0  0  0  0  0  0
   59.1270   31.5210   49.4030 C   0  0  0  0  0  0  0  0  0  0  0  0
   59.4950   32.6190   50.1950 C   0  0  0  0  0  0  0  0  0  0  0  0
   59.7940   33.8450   49.5960 C   0  0  0  0  0  0  0  0  0  0  0  0
   59.7440   33.9780   48.2050 C   0  0  0  0  0  0  0  0  0  0  0  0
   59.4120   32.8790   47.4020 C   0  0  0  0  0  0  0  0  0  0  0  0
   59.3510   33.0500   45.9800 N   0  0  0  0  0  0  0  0  0  0  0  0
   58.1780   33.3020   45.1910 C   0  0  0  0  0  0  0  0  0  0  0  0
   58.2220   34.2140   44.3250 O   0  0  0  0  0  0  0  0  0  0  0  0
   56.9570   32.4200   45.2650 C   0  0  0  0  0  0  0  0  0  0  0  0
   57.0040   31.2610   44.2580 C   0  0  0  0  0  0  0  0  0  0  0  0
   57.3410   29.9950   44.9130 N   0  0  0  0  0  0  0  0  0  0  0  0
   56.4940   28.9730   45.1750 C   0  0  0  0  0  0  0  0  0  0  0  0
   55.1390   28.9800   44.8660 O   0  0  0  0  0  0  0  0  0  0  0  0
   57.1680   27.9330   45.7810 C   0  0  0  0  0  0  0  0  0  0  0  0
   58.4760   28.3270   45.8970 C   0  0  0  0  0  0  0  0  0  0  0  0
   58.5570   29.5960   45.3580 C   0  0  0  0  0  0  0  0  0  0  0  0
   59.7240   30.3550   45.2870 O   0  0  0  0  0  0  0  0  0  0  0  0
   59.5560   27.4860   46.4950 C   0  0  0  0  0  0  0  0  0  0  0  0
   59.0210   26.1580   46.9970 C   0  0  0  0  0  0  0  0  0  0  0  0
   57.7320   25.7690   46.8810 C   0  0  0  0  0  0  0  0  0  0  0  0
   56.6470   26.6070   46.2330 C   0  0  0  0  0  0  0  0  0  0  0  0
   59.0750   31.6590   48.0100 C   0  0  0  0  0  0  0  0  0  0  0  0
   60.2110   30.2040   51.8400 H   0  0  0  0  0  0  0  0  0  0  0  0
   59.5481   32.5144   51.2887 H   0  0  0  0  0  0  0  0  0  0  0  0
   60.0695   34.7079   50.2201 H   0  0  0  0  0  0  0  0  0  0  0  0
   59.9662   34.9495   47.7393 H   0  0  0  0  0  0  0  0  0  0  0  0
   56.8851   32.0022   46.2800 H   0  0  0  0  0  0  0  0  0  0  0  0
   56.0825   33.0401   45.0188 H   0  0  0  0  0  0  0  0  0  0  0  0
   56.0190   31.1642   43.7781 H   0  0  0  0  0  0  0  0  0  0  0  0
   57.7823   31.4822   43.5128 H   0  0  0  0  0  0  0  0  0  0  0  0
   59.7340   31.3380   45.5270 H   0  0  0  0  0  0  0  0  0  0  0  0
   60.3234   27.2949   45.7304 H   0  0  0  0  0  0  0  0  0  0  0  0
   59.9796   28.0306   47.3517 H   0  0  0  0  0  0  0  0  0  0  0  0
   59.7259   25.4692   47.4856 H   0  0  0  0  0  0  0  0  0  0  0  0
   57.4525   24.7833   47.2815 H   0  0  0  0  0  0  0  0  0  0  0  0
   56.2499   26.0645   45.3624 H   0  0  0  0  0  0  0  0  0  0  0  0
   55.8592   26.7848   46.9799 H   0  0  0  0  0  0  0  0  0  0  0  0
   58.7679   30.8054   47.3879 H   0  0  0  0  0  0  0  0  0  0  0  0
  1  2  1  0
  2  3  2  0
  2  4  2  0
  2  5  1  0
  5  6  2  0
  6  7  1  0
  7  8  2  0
  8  9  1  0
  9 10  1  0
 10 11  1  0
 11 12  2  0
 11 13  1  0
 13 14  1  0
 14 15  1  0
 15 16  1  0
 16 17  1  0
 16 18  2  0
 18 19  1  0
 19 20  2  0
 20 21  1  0
 19 22  1  0
 22 23  1  0
 23 24  2  0
 24 25  1  0
  9 26  2  0
 26  5  1  0
 20 15  1  0
 25 18  1  0
  1 27  1  0
  6 28  1  0
  7 29  1  0
  8 30  1  0
 13 31  1  0
 13 32  1  0
 14 33  1  0
 14 34  1  0
 21 35  1  0
 22 36  1  0
 22 37  1  0
 23 38  1  0
 24 39  1  0
 25 40  1  0
 25 41  1  0
 26 42  1  0
M  CHG  3   1  -1  10  -1  17  -1
M  END
>  <UniqueID>  (37) 
36

>  <SMILES>  (37) 
[NH-]S(=O)(=O)c1cccc([N-]C(=O)CCn2c([O-])c3c(c2O)CC=CC3)c1

>  <Energy>  (37) 
77.66521584715554

>  <Genealogy>  (37) 
[NH-]S(=O)(=O)c1cccc([N-]C(=O)CCn2c([O-])c3c(c2O)CC=CC3)c1 (protonated)
[NH-]S(=O)(=O)c1cccc([N-]C(=O)CCn2c([O-])c3c(c2O)CC=CC3)c1 (3D coordinates assigned)
[NH-]S(=O)(=O)c1cccc([N-]C(=O)CCn2c([O-])c3c(c2O)CC=CC3)c1 (nonaromatic ring conformer: 77.66521584715554 kcal/mol)

>  <smiles>  (37) 
NS(=O)(=O)c1cccc(NC(=O)CCn2c(O)c3c(c2O)CC=CC3)c1

>  <score_type>  (37) 
oracle

>  <origin>  (37) 
adg

>  <m_score__min__energy>  (37) 
-14.19

>  <m_primary>  (37) 
energy

$$$$
37:0
     RDKit          3D

 26 27  0  0  0  0  0  0  0  0999 V2000
   51.0240   32.3190   49.9580 O   0  0  0  0  0  0  0  0  0  0  0  0
   51.0810   32.0830   51.1950 C   0  0  0  0  0  0  0  0  0  0  0  0
   50.1960   32.7340   52.0470 O   0  0  0  0  0  0  0  0  0  0  0  0
   52.0750   31.1280   51.7340 C   0  0  0  0  0  0  0  0  0  0  0  0
   51.6750   30.1160   52.6230 C   0  0  0  0  0  0  0  0  0  0  0  0
   52.6110   29.2110   53.1340 C   0  0  0  0  0  0  0  0  0  0  0  0
   53.9650   29.2980   52.7670 C   0  0  0  0  0  0  0  0  0  0  0  0
   54.9590   28.3380   53.3110 C   0  0  0  0  0  0  0  0  0  0  0  0
   54.5510   27.0780   53.7830 C   0  0  0  0  0  0  0  0  0  0  0  0
   55.4850   26.1730   54.2940 C   0  0  0  0  0  0  0  0  0  0  0  0
   56.8500   26.5080   54.3450 C   0  0  0  0  0  0  0  0  0  0  0  0
   57.8160   25.5800   54.8710 N   0  0  0  0  0  0  0  0  0  0  0  0
   58.1990   25.6620   56.0560 O   0  0  0  0  0  0  0  0  0  0  0  0
   58.3350   24.5840   54.0740 O   0  0  0  0  0  0  0  0  0  0  0  0
   57.2580   27.7670   53.8730 C   0  0  0  0  0  0  0  0  0  0  0  0
   56.3230   28.6710   53.3610 C   0  0  0  0  0  0  0  0  0  0  0  0
   54.3620   30.3120   51.8770 C   0  0  0  0  0  0  0  0  0  0  0  0
   53.4270   31.2160   51.3660 C   0  0  0  0  0  0  0  0  0  0  0  0
   50.6187   30.0350   52.9190 H   0  0  0  0  0  0  0  0  0  0  0  0
   52.2845   28.4239   53.8295 H   0  0  0  0  0  0  0  0  0  0  0  0
   53.4867   26.8021   53.7497 H   0  0  0  0  0  0  0  0  0  0  0  0
   55.1501   25.1909   54.6592 H   0  0  0  0  0  0  0  0  0  0  0  0
   58.3222   28.0435   53.9067 H   0  0  0  0  0  0  0  0  0  0  0  0
   56.6582   29.6522   52.9938 H   0  0  0  0  0  0  0  0  0  0  0  0
   55.4181   30.3942   51.5805 H   0  0  0  0  0  0  0  0  0  0  0  0
   53.7529   32.0029   50.6698 H   0  0  0  0  0  0  0  0  0  0  0  0
  1  2  2  0
  2  3  1  0
  2  4  1  0
  4  5  2  0
  5  6  1  0
  6  7  2  0
  7  8  1  0
  8  9  2  0
  9 10  1  0
 10 11  2  0
 11 12  1  0
 12 13  2  0
 12 14  1  0
 11 15  1  0
 15 16  2  0
  7 17  1  0
 17 18  2  0
 18  4  1  0
 16  8  1  0
  5 19  1  0
  6 20  1  0
  9 21  1  0
 10 22  1  0
 15 23  1  0
 16 24  1  0
 17 25  1  0
 18 26  1  0
M  CHG  3   3  -1  12   1  14  -1
M  END
>  <UniqueID>  (38) 
37

>  <SMILES>  (38) 
O=C([O-])c1ccc(-c2ccc([N+](=O)[O-])cc2)cc1

>  <Energy>  (38) 
34.11637170696701

>  <Genealogy>  (38) 
O=C([O-])c1ccc(-c2ccc([N+](=O)[O-])cc2)cc1 (protonated)
O=C([O-])c1ccc(-c2ccc([N+](=O)[O-])cc2)cc1 (3D coordinates assigned)
O=C([O-])c1ccc(-c2ccc([N+](=O)[O-])cc2)cc1 (optimized conformer: 34.11637170696701 kcal/mol)

>  <smiles>  (38) 
O=C(O)c1ccc(-c2ccc([N+](=O)[O-])cc2)cc1

>  <score_type>  (38) 
oracle

>  <origin>  (38) 
adg

>  <m_score__min__energy>  (38) 
-8.6500000000000004

>  <m_primary>  (38) 
energy

$$$$
38:0
     RDKit          3D

 34 35  0  0  1  0  0  0  0  0999 V2000
   63.2860   33.5250   47.8860 C   0  0  0  0  0  0  0  0  0  0  0  0
   62.0510   33.8780   48.7250 C   0  0  0  0  0  0  0  0  0  0  0  0
   60.8640   33.8170   47.8360 C   0  0  0  0  0  0  0  0  0  0  0  0
   61.0450   34.0490   46.4890 C   0  0  0  0  0  0  0  0  0  0  0  0
   59.9650   34.0000   45.6140 C   0  0  0  0  0  0  0  0  0  0  0  0
   58.6860   33.7260   46.0340 C   0  0  0  0  0  0  0  0  0  0  0  0
   57.6200   33.6930   45.0700 C   0  0  0  0  0  0  0  0  0  0  0  0
   56.6460   34.4940   45.2450 O   0  0  0  0  0  0  0  0  0  0  0  0
   57.5590   32.8430   43.9340 N   0  0  0  0  0  0  0  0  0  0  0  0
   57.3230   31.5700   44.0690 C   0  0  0  0  0  0  0  0  0  0  0  0
   56.6520   30.8500   43.0830 C   0  0  0  0  0  0  0  0  0  0  0  0
   56.4050   29.5030   43.2260 C   0  0  0  0  0  0  0  0  0  0  0  0
   56.8100   28.8450   44.3250 N   0  0  0  0  0  0  0  0  0  0  0  0
   57.4600   29.5680   45.2680 C   0  0  0  0  0  0  0  0  0  0  0  0
   57.9860   28.6400   46.7260 S   0  0  0  0  0  0  0  0  0  0  0  0
   59.2920   29.5490   47.6250 C   0  0  0  0  0  0  0  0  0  0  0  0
   57.7090   30.8800   45.1490 N   0  0  0  0  0  0  0  0  0  0  0  0
   58.5070   33.4930   47.3980 C   0  0  0  0  0  0  0  0  0  0  0  0
   59.5900   33.5400   48.2800 C   0  0  0  0  0  0  0  0  0  0  0  0
   64.1265   33.2848   48.5538 H   0  0  0  0  0  0  0  0  0  0  0  0
   63.0617   32.6550   47.2513 H   0  0  0  0  0  0  0  0  0  0  0  0
   63.5553   34.3821   47.2513 H   0  0  0  0  0  0  0  0  0  0  0  0
   61.9393   33.1566   49.5479 H   0  0  0  0  0  0  0  0  0  0  0  0
   62.1555   34.8843   49.1568 H   0  0  0  0  0  0  0  0  0  0  0  0
   62.0504   34.2744   46.1038 H   0  0  0  0  0  0  0  0  0  0  0  0
   60.1417   34.1878   44.5447 H   0  0  0  0  0  0  0  0  0  0  0  0
   56.3132   31.3673   42.1732 H   0  0  0  0  0  0  0  0  0  0  0  0
   55.8707   28.9602   42.4324 H   0  0  0  0  0  0  0  0  0  0  0  0
   56.6350   27.8380   44.4480 H   0  0  0  0  0  0  0  0  0  0  0  0
   59.1353   29.4399   48.7083 H   0  0  0  0  0  0  0  0  0  0  0  0
   60.2765   29.1399   47.3539 H   0  0  0  0  0  0  0  0  0  0  0  0
   59.2503   30.6143   47.3539 H   0  0  0  0  0  0  0  0  0  0  0  0
   57.5014   33.2696   47.7837 H   0  0  0  0  0  0  0  0  0  0  0  0
   59.4215   33.3519   49.3506 H   0  0  0  0  0  0  0  0  0  0  0  0
  1  2  1  0
  2  3  1  0
  3  4  2  0
  4  5  1  0
  5  6  2  0
  6  7  1  0
  7  8  2  0
  7  9  1  0
  9 10  2  0
 10 11  1  0
 11 12  2  0
 12 13  1  0
 13 14  1  0
 14 15  1  0
 15 16  1  0
 14 17  2  0
  6 18  1  0
 18 19  2  0
 19  3  1  0
 17 10  1  0
  1 20  1  0
  1 21  1  0
  1 22  1  0
  2 23  1  0
  2 24  1  0
  4 25  1  0
  5 26  1  0
 11 27  1  0
 12 28  1  0
 13 29  1  0
 16 30  1  0
 16 31  1  0
 16 32  1  0
 18 33  1  0
 19 34  1  0
M  END
>  <smiles>  (39) 
CCc1ccc(C(=O)N=c2cc[nH]c(SC)n2)cc1

>  <score_type>  (39) 
oracle

>  <origin>  (39) 
adg

>  <m_score__min__energy>  (39) 
-7.2800000000000002

>  <m_primary>  (39) 
energy

$$$$
39:0
     RDKit          3D

 60 64  0  0  0  0  0  0  0  0999 V2000
   55.3750   26.0210   45.9970 O   0  0  0  0  0  0  0  0  0  0  0  0
   56.4990   25.9040   45.4370 C   0  0  0  0  0  0  0  0  0  0  0  0
   57.4910   26.9910   45.5780 C   0  0  0  0  0  0  0  0  0  0  0  0
   58.1320   27.5230   44.4470 C   0  0  0  0  0  0  0  0  0  0  0  0
   59.0640   28.5570   44.5800 C   0  0  0  0  0  0  0  0  0  0  0  0
   59.3620   29.0750   45.8480 C   0  0  0  0  0  0  0  0  0  0  0  0
   60.3010   30.0990   46.0130 C   0  0  0  0  0  0  0  0  0  0  0  0
   60.5930   30.5790   47.2950 C   0  0  0  0  0  0  0  0  0  0  0  0
   61.8430   31.8560   47.5090 S   0  0  0  0  0  0  0  0  0  0  0  0
   60.6700   33.1450   48.0680 C   0  0  0  0  0  0  0  0  0  0  0  0
   59.6710   33.4800   46.9930 C   0  0  0  0  0  0  0  0  0  0  0  0
   60.0750   34.1980   45.8520 C   0  0  0  0  0  0  0  0  0  0  0  0
   59.1430   34.5460   44.8720 C   0  0  0  0  0  0  0  0  0  0  0  0
   57.8020   34.1810   45.0180 C   0  0  0  0  0  0  0  0  0  0  0  0
   57.3910   33.4680   46.1470 C   0  0  0  0  0  0  0  0  0  0  0  0
   58.3180   33.1190   47.1350 C   0  0  0  0  0  0  0  0  0  0  0  0
   57.8980   32.4350   48.2290 F   0  0  0  0  0  0  0  0  0  0  0  0
   59.9110   30.0430   48.3990 C   0  0  0  0  0  0  0  0  0  0  0  0
   60.1430   30.4670   49.5620 O   0  0  0  0  0  0  0  0  0  0  0  0
   58.9980   29.0530   48.2190 N   0  0  0  0  0  0  0  0  0  0  0  0
   58.7100   28.5560   46.9860 C   0  0  0  0  0  0  0  0  0  0  0  0
   57.7740   27.5260   46.8470 C   0  0  0  0  0  0  0  0  0  0  0  0
   56.8020   24.7070   44.6960 N   0  0  0  0  0  0  0  0  0  0  0  0
   58.0870   24.0270   44.9060 C   0  0  0  0  0  0  0  0  0  0  0  0
   58.1430   22.6990   44.1360 C   0  0  0  0  0  0  0  0  0  0  0  0
   56.9550   21.8390   44.3780 N   0  0  0  0  0  0  0  0  0  0  0  0
   57.1380   20.9440   45.5400 C   0  0  0  0  0  0  0  0  0  0  0  0
   56.2950   21.3980   46.7040 C   0  0  0  0  0  0  0  0  0  0  0  0
   56.6730   22.5270   47.4470 C   0  0  0  0  0  0  0  0  0  0  0  0
   55.8920   22.9550   48.5240 C   0  0  0  0  0  0  0  0  0  0  0  0
   54.7280   22.2620   48.8660 C   0  0  0  0  0  0  0  0  0  0  0  0
   54.3420   21.1390   48.1290 C   0  0  0  0  0  0  0  0  0  0  0  0
   55.1220   20.7060   47.0520 C   0  0  0  0  0  0  0  0  0  0  0  0
   55.6610   22.5690   44.4560 C   0  0  0  0  0  0  0  0  0  0  0  0
   55.7520   24.0110   43.9480 C   0  0  0  0  0  0  0  0  0  0  0  0
   57.8991   27.1232   43.4491 H   0  0  0  0  0  0  0  0  0  0  0  0
   59.5638   28.9643   43.6887 H   0  0  0  0  0  0  0  0  0  0  0  0
   60.8093   30.5264   45.1361 H   0  0  0  0  0  0  0  0  0  0  0  0
   60.1323   32.7794   48.9553 H   0  0  0  0  0  0  0  0  0  0  0  0
   61.2415   34.0543   48.3059 H   0  0  0  0  0  0  0  0  0  0  0  0
   61.1297   34.4864   45.7316 H   0  0  0  0  0  0  0  0  0  0  0  0
   59.4651   35.1086   43.9833 H   0  0  0  0  0  0  0  0  0  0  0  0
   57.0700   34.4551   44.2440 H   0  0  0  0  0  0  0  0  0  0  0  0
   56.3353   33.1801   46.2594 H   0  0  0  0  0  0  0  0  0  0  0  0
   57.2569   27.1327   47.7347 H   0  0  0  0  0  0  0  0  0  0  0  0
   58.9002   24.6798   44.5558 H   0  0  0  0  0  0  0  0  0  0  0  0
   58.1975   23.8131   45.9793 H   0  0  0  0  0  0  0  0  0  0  0  0
   58.2032   22.9195   43.0600 H   0  0  0  0  0  0  0  0  0  0  0  0
   59.0266   22.1486   44.4914 H   0  0  0  0  0  0  0  0  0  0  0  0
   56.8432   19.9224   45.2582 H   0  0  0  0  0  0  0  0  0  0  0  0
   58.1959   20.9685   45.8404 H   0  0  0  0  0  0  0  0  0  0  0  0
   57.5875   23.0772   47.1806 H   0  0  0  0  0  0  0  0  0  0  0  0
   56.1944   23.8395   49.1038 H   0  0  0  0  0  0  0  0  0  0  0  0
   54.1157   22.6001   49.7150 H   0  0  0  0  0  0  0  0  0  0  0  0
   53.4239   20.5952   48.3963 H   0  0  0  0  0  0  0  0  0  0  0  0
   54.8165   19.8207   46.4751 H   0  0  0  0  0  0  0  0  0  0  0  0
   54.9183   22.0304   43.8491 H   0  0  0  0  0  0  0  0  0  0  0  0
   55.3731   22.6129   45.5167 H   0  0  0  0  0  0  0  0  0  0  0  0
   55.9991   24.0110   42.8761 H   0  0  0  0  0  0  0  0  0  0  0  0
   54.7881   24.5209   44.0925 H   0  0  0  0  0  0  0  0  0  0  0  0
  1  2  2  0
  2  3  1  0
  3  4  2  0
  4  5  1  0
  5  6  2  0
  6  7  1  0
  7  8  2  0
  8  9  1  0
  9 10  1  0
 10 11  1  0
 11 12  2  0
 12 13  1  0
 13 14  2  0
 14 15  1  0
 15 16  2  0
 16 17  1  0
  8 18  1  0
 18 19  2  0
 18 20  1  0
 20 21  1  0
 21 22  2  0
  2 23  1  0
 23 24  1  0
 24 25  1  0
 25 26  1  0
 26 27  1  0
 27 28  1  0
 28 29  2  0
 29 30  1  0
 30 31  2  0
 31 32  1  0
 32 33  2  0
 26 34  1  0
 34 35  1  0
 22  3  1  0
 35 23  1  0
 21  6  1  0
 33 28  1  0
 16 11  1  0
  4 36  1  0
  5 37  1  0
  7 38  1  0
 10 39  1  0
 10 40  1  0
 12 41  1  0
 13 42  1  0
 14 43  1  0
 15 44  1  0
 22 45  1  0
 24 46  1  0
 24 47  1  0
 25 48  1  0
 25 49  1  0
 27 50  1  0
 27 51  1  0
 29 52  1  0
 30 53  1  0
 31 54  1  0
 32 55  1  0
 33 56  1  0
 34 57  1  0
 34 58  1  0
 35 59  1  0
 35 60  1  0
M  CHG  1  20  -1
M  END
>  <UniqueID>  (40) 
38

>  <SMILES>  (40) 
O=C(c1ccc2cc(SCc3ccccc3F)c(=O)[n-]c2c1)N1CCN(Cc2ccccc2)CC1

>  <Energy>  (40) 
78.56244223906457

>  <Genealogy>  (40) 
O=C(c1ccc2cc(SCc3ccccc3F)c(=O)[n-]c2c1)N1CCN(Cc2ccccc2)CC1 (protonated)
O=C(c1ccc2cc(SCc3ccccc3F)c(=O)[n-]c2c1)N1CCN(Cc2ccccc2)CC1 (3D coordinates assigned)
O=C(c1ccc2cc(SCc3ccccc3F)c(=O)[n-]c2c1)N1CCN(Cc2ccccc2)CC1 (nonaromatic ring conformer: 78.56244223906457 kcal/mol)

>  <smiles>  (40) 
O=C(c1ccc2cc(SCc3ccccc3F)c(=O)[nH]c2c1)N1CCN(Cc2ccccc2)CC1

>  <score_type>  (40) 
oracle

>  <origin>  (40) 
adg

>  <m_score__min__energy>  (40) 
-12.140000000000001

>  <m_primary>  (40) 
energy

$$$$
40:0
     RDKit          3D

 95103  0  0  0  0  0  0  0  0999 V2000
   49.8637   25.3757   52.0708 H   0  0  0  0  0  0  0  0  0  0  0  0
   50.5270   24.6470   51.5820 C   0  0  0  0  0  0  0  0  0  0  0  0
   50.0530   23.8820   50.5130 C   0  0  0  0  0  0  0  0  0  0  0  0
   49.0201   24.0109   50.1575 H   0  0  0  0  0  0  0  0  0  0  0  0
   50.8970   22.9510   49.8960 C   0  0  0  0  0  0  0  0  0  0  0  0
   50.5271   22.3511   49.0515 H   0  0  0  0  0  0  0  0  0  0  0  0
   52.2180   22.7800   50.3530 C   0  0  0  0  0  0  0  0  0  0  0  0
   53.0950   21.8650   49.7510 O   0  0  0  0  0  0  0  0  0  0  0  0
   54.2110   22.2220   48.9750 C   0  0  0  0  0  0  0  0  0  0  0  0
   55.5130   22.2080   49.5040 C   0  0  0  0  0  0  0  0  0  0  0  0
   55.6768   21.9043   50.5485 H   0  0  0  0  0  0  0  0  0  0  0  0
   56.6020   22.5790   48.7070 C   0  0  0  0  0  0  0  0  0  0  0  0
   57.6186   22.5506   49.1263 H   0  0  0  0  0  0  0  0  0  0  0  0
   56.4100   22.9860   47.3810 C   0  0  0  0  0  0  0  0  0  0  0  0
   57.5670   23.2720   46.5820 N   0  0  0  0  0  0  0  0  0  0  0  0
   58.2040   24.5410   46.4160 C   0  0  0  0  0  0  0  0  0  0  0  0
   58.5990   24.8670   45.2640 O   0  0  0  0  0  0  0  0  0  0  0  0
   58.4260   25.4200   47.5330 N   0  0  0  0  0  0  0  0  0  0  0  0
   58.1280   25.1280   48.4930 H   0  0  0  0  0  0  0  0  0  0  0  0
   58.9760   26.7310   47.3550 C   0  0  0  0  0  0  0  0  0  0  0  0
   58.5490   27.5000   46.2650 C   0  0  0  0  0  0  0  0  0  0  0  0
   57.7463   27.1267   45.6121 H   0  0  0  0  0  0  0  0  0  0  0  0
   59.1380   28.7380   46.0040 C   0  0  0  0  0  0  0  0  0  0  0  0
   58.7977   29.3406   45.1489 H   0  0  0  0  0  0  0  0  0  0  0  0
   60.1650   29.2130   46.8340 C   0  0  0  0  0  0  0  0  0  0  0  0
   60.8510   30.4300   46.5210 N   0  0  0  0  0  0  0  0  0  0  0  0
   60.5930   31.6660   46.8790 C   0  0  0  0  0  0  0  0  0  0  0  0
   59.5020   32.4450   46.3680 C   0  0  0  0  0  0  0  0  0  0  0  0
   58.3850   31.8960   45.6900 C   0  0  0  0  0  0  0  0  0  0  0  0
   58.3149   30.8071   45.5504 H   0  0  0  0  0  0  0  0  0  0  0  0
   57.3720   32.7220   45.1970 C   0  0  0  0  0  0  0  0  0  0  0  0
   56.5323   32.2803   44.6404 H   0  0  0  0  0  0  0  0  0  0  0  0
   57.4140   34.1010   45.4030 C   0  0  0  0  0  0  0  0  0  0  0  0
   56.3730   34.9370   44.8880 N   0  0  0  0  0  0  0  0  0  0  0  0
   56.2290   35.0290   43.8540 H   0  0  0  0  0  0  0  0  0  0  0  0
   55.7580   35.4880   45.5270 H   0  0  0  0  0  0  0  0  0  0  0  0
   58.4580   34.6520   46.1500 C   0  0  0  0  0  0  0  0  0  0  0  0
   58.4771   35.7344   46.3449 H   0  0  0  0  0  0  0  0  0  0  0  0
   59.4790   33.8390   46.6520 C   0  0  0  0  0  0  0  0  0  0  0  0
   60.4080   34.3930   47.4660 N   0  0  0  0  0  0  0  0  0  0  0  0
   61.3780   33.6590   48.0600 C   0  0  0  0  0  0  0  0  0  0  0  0
   62.2810   34.2870   48.9230 C   0  0  0  0  0  0  0  0  0  0  0  0
   62.1832   35.3636   49.1261 H   0  0  0  0  0  0  0  0  0  0  0  0
   63.3060   33.5580   49.5290 C   0  0  0  0  0  0  0  0  0  0  0  0
   64.0144   34.0643   50.2011 H   0  0  0  0  0  0  0  0  0  0  0  0
   63.4370   32.1790   49.2840 C   0  0  0  0  0  0  0  0  0  0  0  0
   64.4580   31.4060   49.8600 O   0  0  0  0  0  0  0  0  0  0  0  0
   64.8610   31.4880   51.2220 C   0  0  0  0  0  0  0  0  0  0  0  0
   63.9920   31.3112   51.8728 H   0  0  0  0  0  0  0  0  0  0  0  0
   65.6304   30.7280   51.4231 H   0  0  0  0  0  0  0  0  0  0  0  0
   65.2722   32.4882   51.4231 H   0  0  0  0  0  0  0  0  0  0  0  0
   62.5280   31.5480   48.4260 C   0  0  0  0  0  0  0  0  0  0  0  0
   62.6243   30.4688   48.2360 H   0  0  0  0  0  0  0  0  0  0  0  0
   61.4860   32.2750   47.7980 C   0  0  0  0  0  0  0  0  0  0  0  0
   60.5840   28.4550   47.9300 C   0  0  0  0  0  0  0  0  0  0  0  0
   61.4033   28.8232   48.5650 H   0  0  0  0  0  0  0  0  0  0  0  0
   59.9680   27.2230   48.2310 C   0  0  0  0  0  0  0  0  0  0  0  0
   60.2560   26.5140   49.4590 N   0  0  0  0  0  0  0  0  0  0  0  0
   59.5540   25.7950   49.7300 H   0  0  0  0  0  0  0  0  0  0  0  0
   61.2290   26.9810   50.4640 C   0  0  0  0  0  0  0  0  0  0  0  0
   62.1720   27.0390   49.9007 H   0  0  0  0  0  0  0  0  0  0  0  0
   60.8950   28.3550   51.0220 C   0  0  0  0  0  0  0  0  0  0  0  0
   59.6390   28.9410   50.7390 C   0  0  0  0  0  0  0  0  0  0  0  0
   58.9067   28.3824   50.1376 H   0  0  0  0  0  0  0  0  0  0  0  0
   59.3110   30.2120   51.2070 C   0  0  0  0  0  0  0  0  0  0  0  0
   58.3351   30.6539   50.9575 H   0  0  0  0  0  0  0  0  0  0  0  0
   60.2130   30.9210   51.9870 C   0  0  0  0  0  0  0  0  0  0  0  0
   59.9526   31.9243   52.3552 H   0  0  0  0  0  0  0  0  0  0  0  0
   61.4470   30.3620   52.3030 C   0  0  0  0  0  0  0  0  0  0  0  0
   62.1561   30.9371   52.9165 H   0  0  0  0  0  0  0  0  0  0  0  0
   61.8100   29.0750   51.8550 C   0  0  0  0  0  0  0  0  0  0  0  0
   63.1840   28.5980   52.3290 C   0  0  0  0  0  0  0  0  0  0  0  0
   63.9260   29.2646   51.8653 H   0  0  0  0  0  0  0  0  0  0  0  0
   63.0884   28.6194   53.4246 H   0  0  0  0  0  0  0  0  0  0  0  0
   63.6490   27.1630   52.0520 C   0  0  0  0  0  0  0  0  0  0  0  0
   63.8882   27.0714   50.9822 H   0  0  0  0  0  0  0  0  0  0  0  0
   64.5283   26.9720   52.6847 H   0  0  0  0  0  0  0  0  0  0  0  0
   62.6060   26.1330   52.4020 C   0  0  0  0  0  0  0  0  0  0  0  0
   62.7910   25.3270   53.5390 C   0  0  0  0  0  0  0  0  0  0  0  0
   63.7180   25.4139   54.1247 H   0  0  0  0  0  0  0  0  0  0  0  0
   61.8100   24.4200   53.9290 C   0  0  0  0  0  0  0  0  0  0  0  0
   61.9652   23.7885   54.8162 H   0  0  0  0  0  0  0  0  0  0  0  0
   60.6310   24.3130   53.1940 C   0  0  0  0  0  0  0  0  0  0  0  0
   59.8551   23.5985   53.5064 H   0  0  0  0  0  0  0  0  0  0  0  0
   60.4280   25.1080   52.0620 C   0  0  0  0  0  0  0  0  0  0  0  0
   59.4842   25.0284   51.5026 H   0  0  0  0  0  0  0  0  0  0  0  0
   61.4250   26.0140   51.6290 C   0  0  0  0  0  0  0  0  0  0  0  0
   55.1060   22.9950   46.8480 C   0  0  0  0  0  0  0  0  0  0  0  0
   54.9442   23.2890   45.8004 H   0  0  0  0  0  0  0  0  0  0  0  0
   54.0150   22.6310   47.6470 C   0  0  0  0  0  0  0  0  0  0  0  0
   52.9974   22.6659   47.2308 H   0  0  0  0  0  0  0  0  0  0  0  0
   52.6840   23.5630   51.4150 C   0  0  0  0  0  0  0  0  0  0  0  0
   53.7202   23.4485   51.7660 H   0  0  0  0  0  0  0  0  0  0  0  0
   51.8390   24.4900   52.0320 C   0  0  0  0  0  0  0  0  0  0  0  0
   52.2081   25.0960   52.8725 H   0  0  0  0  0  0  0  0  0  0  0  0
  1  2  1  0
  2  3  2  0
  3  4  1  0
  3  5  1  0
  5  6  1  0
  5  7  2  0
  7  8  1  0
  8  9  1  0
  9 10  2  0
 10 11  1  0
 10 12  1  0
 12 13  1  0
 12 14  2  0
 14 15  1  0
 15 16  1  0
 16 17  2  0
 16 18  1  0
 18 19  1  0
 18 20  1  0
 20 21  2  0
 21 22  1  0
 21 23  1  0
 23 24  1  0
 23 25  2  0
 25 26  1  0
 26 27  2  0
 27 28  1  0
 28 29  2  0
 29 30  1  0
 29 31  1  0
 31 32  1  0
 31 33  2  0
 33 34  1  0
 34 35  1  0
 34 36  1  0
 33 37  1  0
 37 38  1  0
 37 39  2  0
 39 40  1  0
 40 41  1  0
 41 42  2  0
 42 43  1  0
 42 44  1  0
 44 45  1  0
 44 46  2  0
 46 47  1  0
 47 48  1  0
 48 49  1  0
 48 50  1  0
 48 51  1  0
 46 52  1  0
 52 53  1  0
 52 54  2  0
 25 55  1  0
 55 56  1  0
 55 57  2  0
 57 58  1  0
 58 59  1  0
 58 60  1  0
 60 61  1  0
 60 62  1  0
 62 63  2  0
 63 64  1  0
 63 65  1  0
 65 66  1  0
 65 67  2  0
 67 68  1  0
 67 69  1  0
 69 70  1  0
 69 71  2  0
 71 72  1  0
 72 73  1  0
 72 74  1  0
 72 75  1  0
 75 76  1  0
 75 77  1  0
 75 78  1  0
 78 79  2  0
 79 80  1  0
 79 81  1  0
 81 82  1  0
 81 83  2  0
 83 84  1  0
 83 85  1  0
 85 86  1  0
 85 87  2  0
 14 88  1  0
 88 89  1  0
 88 90  2  0
 90 91  1  0
  7 92  1  0
 92 93  1  0
 92 94  2  0
 94 95  1  0
 94  2  1  0
 90  9  1  0
 57 20  1  0
 87 60  1  0
 54 27  1  0
 71 62  1  0
 87 78  1  0
 39 28  1  0
 54 41  1  0
M  CHG  2  15  -1  40  -1
M  END
>  <UniqueID>  (41) 
39

>  <SMILES>  (41) 
COc1ccc2[n-]c3cc(N)ccc3/c(=N\c3ccc(NC(=O)[N-]c4ccc(Oc5ccccc5)cc4)c(NC4c5ccccc5CCc5ccccc54)c3)c2c1

>  <Energy>  (41) 
175.57558061462163

>  <Genealogy>  (41) 
COc1ccc2[n-]c3cc(N)ccc3c(=Nc3ccc(NC(=O)[N-]c4ccc(Oc5ccccc5)cc4)c(NC4c5ccccc5CCc5ccccc54)c3)c2c1 (protonated)
COc1ccc2[n-]c3cc(N)ccc3/c(=N\c3ccc(NC(=O)[N-]c4ccc(Oc5ccccc5)cc4)c(NC4c5ccccc5CCc5ccccc54)c3)c2c1 (cis-trans isomerization)
COc1ccc2[n-]c3cc(N)ccc3/c(=N\c3ccc(NC(=O)[N-]c4ccc(Oc5ccccc5)cc4)c(NC4c5ccccc5CCc5ccccc54)c3)c2c1 (3D coordinates assigned)
COc1ccc2[n-]c3cc(N)ccc3/c(=N\c3ccc(NC(=O)[N-]c4ccc(Oc5ccccc5)cc4)c(NC4c5ccccc5CCc5ccccc54)c3)c2c1 (nonaromatic ring conformer: 175.57558061462163 kcal/mol)

>  <smiles>  (41) 
COc1ccc2[nH]c3cc(N)ccc3c(=Nc3ccc(NC(=O)Nc4ccc(Oc5ccccc5)cc4)c(NC4c5ccccc5CCc5ccccc54)c3)c2c1

>  <score_type>  (41) 
oracle

>  <origin>  (41) 
adg

>  <m_score__min__energy>  (41) 
-11.460000000000001

>  <m_primary>  (41) 
energy

$$$$
41:0
     RDKit          3D

 52 55  0  0  0  0  0  0  0  0999 V2000
   55.5440   29.1190   44.8550 O   0  0  0  0  0  0  0  0  0  0  0  0
   56.7910   29.3200   44.8310 C   0  0  0  0  0  0  0  0  0  0  0  0
   57.6910   28.2670   45.2160 N   0  0  0  0  0  0  0  0  0  0  0  0
   57.3500   26.8730   45.1550 C   0  0  0  0  0  0  0  0  0  0  0  0
   56.6010   26.3000   46.1950 C   0  0  0  0  0  0  0  0  0  0  0  0
   56.2490   24.9500   46.1510 C   0  0  0  0  0  0  0  0  0  0  0  0
   56.6550   24.1510   45.0720 C   0  0  0  0  0  0  0  0  0  0  0  0
   56.1840   22.4570   44.9830 S   0  0  0  0  0  0  0  0  0  0  0  0
   55.9010   22.0580   43.5640 O   0  0  0  0  0  0  0  0  0  0  0  0
   57.3100   21.6080   45.5010 O   0  0  0  0  0  0  0  0  0  0  0  0
   54.7630   22.1840   45.9430 N   0  0  0  0  0  0  0  0  0  0  0  0
   53.5910   22.6420   45.6230 C   0  0  0  0  0  0  0  0  0  0  0  0
   52.4730   21.8800   45.7840 N   0  0  0  0  0  0  0  0  0  0  0  0
   51.2430   22.3800   45.5030 C   0  0  0  0  0  0  0  0  0  0  0  0
   51.1060   23.6920   45.0570 C   0  0  0  0  0  0  0  0  0  0  0  0
   52.2590   24.4560   44.8850 C   0  0  0  0  0  0  0  0  0  0  0  0
   53.4760   23.9210   45.1700 N   0  0  0  0  0  0  0  0  0  0  0  0
   57.4340   24.7090   44.0510 C   0  0  0  0  0  0  0  0  0  0  0  0
   57.7820   26.0610   44.0910 C   0  0  0  0  0  0  0  0  0  0  0  0
   57.3090   30.6560   44.4550 C   0  0  0  0  0  0  0  0  0  0  0  0
   57.2820   31.0780   43.1150 C   0  0  0  0  0  0  0  0  0  0  0  0
   57.7880   32.3310   42.7560 C   0  0  0  0  0  0  0  0  0  0  0  0
   58.3390   33.1700   43.7280 C   0  0  0  0  0  0  0  0  0  0  0  0
   58.3890   32.7560   45.0660 C   0  0  0  0  0  0  0  0  0  0  0  0
   59.1420   33.7720   46.2930 S   0  0  0  0  0  0  0  0  0  0  0  0
   60.0840   34.7510   45.6620 O   0  0  0  0  0  0  0  0  0  0  0  0
   58.0610   34.5210   47.0200 O   0  0  0  0  0  0  0  0  0  0  0  0
   60.0130   32.7940   47.4370 N   0  0  0  0  0  0  0  0  0  0  0  0
   61.3720   33.0280   47.8380 C   0  0  0  0  0  0  0  0  0  0  0  0
   62.4640   32.5160   47.1120 C   0  0  0  0  0  0  0  0  0  0  0  0
   63.7700   32.7290   47.5660 C   0  0  0  0  0  0  0  0  0  0  0  0
   63.9950   33.4550   48.7410 C   0  0  0  0  0  0  0  0  0  0  0  0
   62.9180   33.9790   49.4550 C   0  0  0  0  0  0  0  0  0  0  0  0
   61.6090   33.7730   49.0030 C   0  0  0  0  0  0  0  0  0  0  0  0
   60.5690   34.2730   49.7160 F   0  0  0  0  0  0  0  0  0  0  0  0
   57.8640   31.5080   45.4270 C   0  0  0  0  0  0  0  0  0  0  0  0
   58.5860   28.5360   45.6810 H   0  0  0  0  0  0  0  0  0  0  0  0
   56.2897   26.9186   47.0496 H   0  0  0  0  0  0  0  0  0  0  0  0
   55.6519   24.5118   46.9643 H   0  0  0  0  0  0  0  0  0  0  0  0
   50.3520   21.7472   45.6279 H   0  0  0  0  0  0  0  0  0  0  0  0
   50.1127   24.1149   44.8457 H   0  0  0  0  0  0  0  0  0  0  0  0
   52.1844   25.4907   44.5191 H   0  0  0  0  0  0  0  0  0  0  0  0
   57.7731   24.0803   43.2145 H   0  0  0  0  0  0  0  0  0  0  0  0
   58.3964   26.4925   43.2871 H   0  0  0  0  0  0  0  0  0  0  0  0
   56.8598   30.4179   42.3430 H   0  0  0  0  0  0  0  0  0  0  0  0
   57.7522   32.6570   41.7060 H   0  0  0  0  0  0  0  0  0  0  0  0
   58.7339   34.1563   43.4428 H   0  0  0  0  0  0  0  0  0  0  0  0
   62.2901   31.9476   46.1864 H   0  0  0  0  0  0  0  0  0  0  0  0
   64.6214   32.3252   46.9985 H   0  0  0  0  0  0  0  0  0  0  0  0
   65.0222   33.6124   49.1016 H   0  0  0  0  0  0  0  0  0  0  0  0
   63.0971   34.5551   50.3748 H   0  0  0  0  0  0  0  0  0  0  0  0
   57.8861   31.1916   46.4803 H   0  0  0  0  0  0  0  0  0  0  0  0
  1  2  2  0
  2  3  1  0
  3  4  1  0
  4  5  2  0
  5  6  1  0
  6  7  2  0
  7  8  1  0
  8  9  2  0
  8 10  2  0
  8 11  1  0
 11 12  2  3
 12 13  1  0
 13 14  2  0
 14 15  1  0
 15 16  2  0
 16 17  1  0
  7 18  1  0
 18 19  2  0
  2 20  1  0
 20 21  2  0
 21 22  1  0
 22 23  2  0
 23 24  1  0
 24 25  1  0
 25 26  2  0
 25 27  2  0
 25 28  1  0
 28 29  1  0
 29 30  2  0
 30 31  1  0
 31 32  2  0
 32 33  1  0
 33 34  2  0
 34 35  1  0
 24 36  2  0
 19  4  1  0
 36 20  1  0
 17 12  1  0
 34 29  1  0
  3 37  1  0
  5 38  1  0
  6 39  1  0
 14 40  1  0
 15 41  1  0
 16 42  1  0
 18 43  1  0
 19 44  1  0
 21 45  1  0
 22 46  1  0
 23 47  1  0
 30 48  1  0
 31 49  1  0
 32 50  1  0
 33 51  1  0
 36 52  1  0
M  CHG  2  17  -1  28  -1
M  END
>  <UniqueID>  (42) 
40

>  <SMILES>  (42) 
O=C(Nc1ccc(S(=O)(=O)N=c2nccc[n-]2)cc1)c1cccc(S(=O)(=O)[N-]c2ccccc2F)c1

>  <Energy>  (42) 
70.56284936903968

>  <Genealogy>  (42) 
O=C(Nc1ccc(S(=O)(=O)N=c2nccc[n-]2)cc1)c1cccc(S(=O)(=O)[N-]c2ccccc2F)c1 (protonated)
O=C(Nc1ccc(S(=O)(=O)N=c2nccc[n-]2)cc1)c1cccc(S(=O)(=O)[N-]c2ccccc2F)c1 (3D coordinates assigned)
O=C(Nc1ccc(S(=O)(=O)N=c2nccc[n-]2)cc1)c1cccc(S(=O)(=O)[N-]c2ccccc2F)c1 (optimized conformer: 70.56284936903968 kcal/mol)

>  <smiles>  (42) 
O=C(Nc1ccc(S(=O)(=O)N=c2nccc[nH]2)cc1)c1cccc(S(=O)(=O)Nc2ccccc2F)c1

>  <score_type>  (42) 
oracle

>  <origin>  (42) 
adg

>  <m_score__min__energy>  (42) 
-12.800000000000001

>  <m_primary>  (42) 
energy

$$$$
42:0
     RDKit          3D

 60 62  0  0  1  0  0  0  0  0999 V2000
   57.4840   21.2920   50.5540 C   0  0  0  0  0  0  0  0  0  0  0  0
   57.3790   21.7760   49.2710 O   0  0  0  0  0  0  0  0  0  0  0  0
   56.2740   22.5700   49.0410 C   0  0  0  0  0  0  0  0  0  0  0  0
   56.2750   23.2660   47.7480 C   0  0  0  0  0  0  0  0  0  0  0  0
   55.4250   24.0630   47.3300 O   0  0  0  0  0  0  0  0  0  0  0  0
   57.3840   22.9950   46.8730 N   0  0  0  0  0  0  0  0  0  0  0  0
   57.3850   23.6790   45.6040 C   0  0  0  0  0  0  0  0  0  0  0  0
   56.9640   22.9250   44.5250 C   0  0  0  0  0  0  0  0  0  0  0  0
   56.9450   23.5280   43.2930 C   0  0  0  0  0  0  0  0  0  0  0  0
   57.3380   24.8410   43.1570 C   0  0  0  0  0  0  0  0  0  0  0  0
   57.7640   25.6110   44.2320 C   0  0  0  0  0  0  0  0  0  0  0  0
   58.2570   27.2600   44.0510 S   0  0  0  0  0  0  0  0  0  0  0  0
   59.5170   27.4660   44.8490 O   0  0  0  0  0  0  0  0  0  0  0  0
   58.6530   27.4420   42.6000 O   0  0  0  0  0  0  0  0  0  0  0  0
   57.0170   28.3760   44.4630 N   0  0  0  0  0  0  0  0  0  0  0  0
   57.3600   29.7460   44.6310 C   0  0  0  0  0  0  0  0  0  0  0  0
   57.9930   30.1600   45.7840 C   0  0  0  0  0  0  0  0  0  0  0  0
   58.3280   31.5010   45.9510 C   0  0  0  0  0  0  0  0  0  0  0  0
   58.0600   32.4630   45.0110 C   0  0  0  0  0  0  0  0  0  0  0  0
   58.4680   34.1530   45.2070 S   0  0  0  0  0  0  0  0  0  0  0  0
   57.2040   34.9050   44.7740 O   0  0  0  0  0  0  0  0  0  0  0  0
   59.5190   34.6280   44.2590 O   0  0  0  0  0  0  0  0  0  0  0  0
   58.7040   34.5560   46.8340 N   0  0  0  0  0  0  0  0  0  0  0  0
   59.7420   34.2320   47.5080 C   0  0  0  0  0  0  0  0  0  0  0  0
   60.9650   34.0340   46.9090 C   0  0  0  0  0  0  0  0  0  0  0  0
   62.0970   33.6850   47.6100 C   0  0  0  0  0  0  0  0  0  0  0  0
   63.4030   33.4790   46.9310 C   0  0  0  0  0  0  0  0  0  0  0  0
   61.9730   33.5380   48.9410 N   0  0  0  0  0  0  0  0  0  0  0  0
   60.7680   33.7300   49.5540 C   0  0  0  0  0  0  0  0  0  0  0  0
   60.6560   33.5590   51.0370 C   0  0  0  0  0  0  0  0  0  0  0  0
   59.6700   34.0740   48.8330 N   0  0  0  0  0  0  0  0  0  0  0  0
   57.4160   32.0150   43.8500 C   0  0  0  0  0  0  0  0  0  0  0  0
   57.0770   30.6910   43.6690 C   0  0  0  0  0  0  0  0  0  0  0  0
   57.7810   24.9930   45.4850 C   0  0  0  0  0  0  0  0  0  0  0  0
   58.2240   25.7460   46.6890 C   0  0  0  0  0  0  0  0  0  0  0  0
   57.3069   22.1085   51.2695 H   0  0  0  0  0  0  0  0  0  0  0  0
   56.7368   20.4998   50.7093 H   0  0  0  0  0  0  0  0  0  0  0  0
   58.4923   20.8806   50.7093 H   0  0  0  0  0  0  0  0  0  0  0  0
   55.3789   21.9322   49.0858 H   0  0  0  0  0  0  0  0  0  0  0  0
   56.2881   23.3523   49.8141 H   0  0  0  0  0  0  0  0  0  0  0  0
   58.1480   22.3460   47.1210 H   0  0  0  0  0  0  0  0  0  0  0  0
   56.6546   21.8768   44.6499 H   0  0  0  0  0  0  0  0  0  0  0  0
   56.6146   22.9607   42.4104 H   0  0  0  0  0  0  0  0  0  0  0  0
   57.3136   25.2984   42.1569 H   0  0  0  0  0  0  0  0  0  0  0  0
   56.0040   28.0920   44.5980 H   0  0  0  0  0  0  0  0  0  0  0  0
   58.2333   29.4308   46.5718 H   0  0  0  0  0  0  0  0  0  0  0  0
   58.8316   31.8033   46.8811 H   0  0  0  0  0  0  0  0  0  0  0  0
   61.0415   34.1606   45.8190 H   0  0  0  0  0  0  0  0  0  0  0  0
   64.1932   33.3544   47.6860 H   0  0  0  0  0  0  0  0  0  0  0  0
   63.3513   32.5779   46.3022 H   0  0  0  0  0  0  0  0  0  0  0  0
   63.6311   34.3523   46.3022 H   0  0  0  0  0  0  0  0  0  0  0  0
   62.7800   33.2760   49.5470 H   0  0  0  0  0  0  0  0  0  0  0  0
   61.1915   34.3766   51.5418 H   0  0  0  0  0  0  0  0  0  0  0  0
   59.5958   33.5795   51.3294 H   0  0  0  0  0  0  0  0  0  0  0  0
   61.0984   32.5953   51.3294 H   0  0  0  0  0  0  0  0  0  0  0  0
   57.1738   32.7410   43.0598 H   0  0  0  0  0  0  0  0  0  0  0  0
   56.5722   30.3839   42.7412 H   0  0  0  0  0  0  0  0  0  0  0  0
   57.9076   25.2081   47.5948 H   0  0  0  0  0  0  0  0  0  0  0  0
   59.3201   25.8379   46.6812 H   0  0  0  0  0  0  0  0  0  0  0  0
   57.7719   26.7488   46.6812 H   0  0  0  0  0  0  0  0  0  0  0  0
  1  2  1  0
  2  3  1  0
  3  4  1  0
  4  5  2  0
  4  6  1  0
  6  7  1  0
  7  8  2  0
  8  9  1  0
  9 10  2  0
 10 11  1  0
 11 12  1  0
 12 13  2  0
 12 14  2  0
 12 15  1  0
 15 16  1  0
 16 17  2  0
 17 18  1  0
 18 19  2  0
 19 20  1  0
 20 21  2  0
 20 22  2  0
 20 23  1  0
 23 24  2  0
 24 25  1  0
 25 26  2  0
 26 27  1  0
 26 28  1  0
 28 29  1  0
 29 30  1  0
 29 31  2  0
 19 32  1  0
 32 33  2  0
 11 34  2  0
 34 35  1  0
 34  7  1  0
 33 16  1  0
 31 24  1  0
  1 36  1  0
  1 37  1  0
  1 38  1  0
  3 39  1  0
  3 40  1  0
  6 41  1  0
  8 42  1  0
  9 43  1  0
 10 44  1  0
 15 45  1  0
 17 46  1  0
 18 47  1  0
 25 48  1  0
 27 49  1  0
 27 50  1  0
 27 51  1  0
 28 52  1  0
 30 53  1  0
 30 54  1  0
 30 55  1  0
 32 56  1  0
 33 57  1  0
 35 58  1  0
 35 59  1  0
 35 60  1  0
M  END
>  <smiles>  (43) 
COCC(=O)Nc1cccc(S(=O)(=O)Nc2ccc(S(=O)(=O)N=c3cc(C)[nH]c(C)n3)cc2)c1C

>  <score_type>  (43) 
oracle

>  <origin>  (43) 
adg

>  <m_score__min__energy>  (43) 
-10.640000000000001

>  <m_primary>  (43) 
energy

$$$$
43:0
     RDKit          3D

 35 36  0  0  0  0  0  0  0  0999 V2000
   54.4200   22.8180   46.3750 C   0  0  0  0  0  0  0  0  0  0  0  0
   55.2670   24.0510   46.4520 C   0  0  0  0  0  0  0  0  0  0  0  0
   54.7900   25.2300   45.9730 N   0  0  0  0  0  0  0  0  0  0  0  0
   55.5220   26.3440   46.0280 N   0  0  0  0  0  0  0  0  0  0  0  0
   56.7680   26.3330   46.5640 C   0  0  0  0  0  0  0  0  0  0  0  0
   57.7290   27.8410   46.6340 S   0  0  0  0  0  0  0  0  0  0  0  0
   57.3960   28.3370   44.9050 C   0  0  0  0  0  0  0  0  0  0  0  0
   56.3660   29.4300   44.8340 C   0  0  0  0  0  0  0  0  0  0  0  0
   55.1460   29.1210   44.8650 O   0  0  0  0  0  0  0  0  0  0  0  0
   56.7240   30.8160   44.7820 N   0  0  0  0  0  0  0  0  0  0  0  0
   57.8740   31.3790   44.0790 C   0  0  0  0  0  0  0  0  0  0  0  0
   57.7580   32.9030   44.0290 C   0  0  0  0  0  0  0  0  0  0  0  0
   58.3060   33.5230   45.2890 C   0  0  0  0  0  0  0  0  0  0  0  0
   59.0890   34.6880   45.2200 C   0  0  0  0  0  0  0  0  0  0  0  0
   59.6550   35.2270   46.3790 C   0  0  0  0  0  0  0  0  0  0  0  0
   59.4490   34.6060   47.6140 C   0  0  0  0  0  0  0  0  0  0  0  0
   58.6770   33.4430   47.6900 C   0  0  0  0  0  0  0  0  0  0  0  0
   58.1110   32.9000   46.5340 C   0  0  0  0  0  0  0  0  0  0  0  0
   57.2760   25.1750   47.0580 N   0  0  0  0  0  0  0  0  0  0  0  0
   56.5510   24.0300   47.0130 C   0  0  0  0  0  0  0  0  0  0  0  0
   57.0380   22.9630   47.4750 O   0  0  0  0  0  0  0  0  0  0  0  0
   54.1825   22.4722   47.3919 H   0  0  0  0  0  0  0  0  0  0  0  0
   53.4875   23.0467   45.8383 H   0  0  0  0  0  0  0  0  0  0  0  0
   54.9681   22.0296   45.8383 H   0  0  0  0  0  0  0  0  0  0  0  0
   58.3307   28.6966   44.4499 H   0  0  0  0  0  0  0  0  0  0  0  0
   57.0082   27.4616   44.3634 H   0  0  0  0  0  0  0  0  0  0  0  0
   58.7972   31.1006   44.6083 H   0  0  0  0  0  0  0  0  0  0  0  0
   57.9003   30.9838   43.0528 H   0  0  0  0  0  0  0  0  0  0  0  0
   58.3255   33.2798   43.1653 H   0  0  0  0  0  0  0  0  0  0  0  0
   56.6957   33.1730   43.9363 H   0  0  0  0  0  0  0  0  0  0  0  0
   59.2572   35.1779   44.2496 H   0  0  0  0  0  0  0  0  0  0  0  0
   60.2635   36.1414   46.3189 H   0  0  0  0  0  0  0  0  0  0  0  0
   59.8939   35.0320   48.5254 H   0  0  0  0  0  0  0  0  0  0  0  0
   58.5149   32.9544   48.6621 H   0  0  0  0  0  0  0  0  0  0  0  0
   57.5101   31.9809   46.5982 H   0  0  0  0  0  0  0  0  0  0  0  0
  1  2  1  0
  2  3  2  0
  3  4  1  0
  4  5  1  0
  5  6  1  0
  6  7  1  0
  7  8  1  0
  8  9  2  0
  8 10  1  0
 10 11  1  0
 11 12  1  0
 12 13  1  0
 13 14  2  0
 14 15  1  0
 15 16  2  0
 16 17  1  0
 17 18  2  0
  5 19  2  0
 19 20  1  0
 20 21  2  0
 20  2  1  0
 18 13  1  0
  1 22  1  0
  1 23  1  0
  1 24  1  0
  7 25  1  0
  7 26  1  0
 11 27  1  0
 11 28  1  0
 12 29  1  0
 12 30  1  0
 14 31  1  0
 15 32  1  0
 16 33  1  0
 17 34  1  0
 18 35  1  0
M  CHG  2   4  -1  10  -1
M  END
>  <UniqueID>  (44) 
41

>  <SMILES>  (44) 
Cc1n[n-]c(SCC(=O)[N-]CCc2ccccc2)nc1=O

>  <Energy>  (44) 
27.69992814306418

>  <Genealogy>  (44) 
Cc1n[n-]c(SCC(=O)[N-]CCc2ccccc2)nc1=O (protonated)
Cc1n[n-]c(SCC(=O)[N-]CCc2ccccc2)nc1=O (3D coordinates assigned)
Cc1n[n-]c(SCC(=O)[N-]CCc2ccccc2)nc1=O (optimized conformer: 27.69992814306418 kcal/mol)

>  <smiles>  (44) 
Cc1n[nH]c(SCC(=O)NCCc2ccccc2)nc1=O

>  <score_type>  (44) 
oracle

>  <origin>  (44) 
adg

>  <m_score__min__energy>  (44) 
-12.109999999999999

>  <m_primary>  (44) 
energy

$$$$
44:0
     RDKit          3D

 45 48  0  0  0  0  0  0  0  0999 V2000
   57.8090   21.4940   43.7510 C   0  0  0  0  0  0  0  0  0  0  0  0
   56.8540   22.6570   43.9900 C   0  0  0  0  0  0  0  0  0  0  0  0
   57.5270   23.7310   44.7150 N   0  0  0  0  0  0  0  0  0  0  0  0
   57.6870   23.8250   46.1400 C   0  0  0  0  0  0  0  0  0  0  0  0
   57.5440   22.8630   46.9390 O   0  0  0  0  0  0  0  0  0  0  0  0
   58.0010   25.2040   46.5050 C   0  0  0  0  0  0  0  0  0  0  0  0
   58.2560   25.8470   47.7130 C   0  0  0  0  0  0  0  0  0  0  0  0
   58.5100   27.2360   47.6740 C   0  0  0  0  0  0  0  0  0  0  0  0
   58.4890   27.9470   46.4440 C   0  0  0  0  0  0  0  0  0  0  0  0
   58.2060   27.2670   45.2350 C   0  0  0  0  0  0  0  0  0  0  0  0
   58.1330   27.8460   43.9360 C   0  0  0  0  0  0  0  0  0  0  0  0
   58.3090   29.2630   43.7490 N   0  0  0  0  0  0  0  0  0  0  0  0
   57.0830   30.4370   44.1140 S   0  0  0  0  0  0  0  0  0  0  0  0
   55.9340   29.7500   44.7980 O   0  0  0  0  0  0  0  0  0  0  0  0
   56.5900   31.0480   42.8330 O   0  0  0  0  0  0  0  0  0  0  0  0
   57.7420   31.7040   45.1410 C   0  0  0  0  0  0  0  0  0  0  0  0
   58.3360   31.3810   46.3690 C   0  0  0  0  0  0  0  0  0  0  0  0
   58.8660   32.3860   47.1820 C   0  0  0  0  0  0  0  0  0  0  0  0
   58.8040   33.7340   46.7750 C   0  0  0  0  0  0  0  0  0  0  0  0
   59.3220   34.7800   47.5540 O   0  0  0  0  0  0  0  0  0  0  0  0
   60.0640   34.5950   48.7550 C   0  0  0  0  0  0  0  0  0  0  0  0
   58.2060   34.0500   45.5500 C   0  0  0  0  0  0  0  0  0  0  0  0
   57.6750   33.0430   44.7380 C   0  0  0  0  0  0  0  0  0  0  0  0
   57.8380   26.9970   42.8240 C   0  0  0  0  0  0  0  0  0  0  0  0
   57.6210   25.6110   42.9900 C   0  0  0  0  0  0  0  0  0  0  0  0
   57.7080   25.0830   44.2760 C   0  0  0  0  0  0  0  0  0  0  0  0
   57.9880   25.9000   45.3330 C   0  0  0  0  0  0  0  0  0  0  0  0
   58.1420   21.0884   44.7177 H   0  0  0  0  0  0  0  0  0  0  0  0
   57.2931   20.7070   43.1814 H   0  0  0  0  0  0  0  0  0  0  0  0
   58.6813   21.8470   43.1814 H   0  0  0  0  0  0  0  0  0  0  0  0
   56.5008   23.0402   43.0213 H   0  0  0  0  0  0  0  0  0  0  0  0
   56.0036   22.3013   44.5902 H   0  0  0  0  0  0  0  0  0  0  0  0
   58.2596   25.2935   48.6636 H   0  0  0  0  0  0  0  0  0  0  0  0
   58.7270   27.7744   48.6084 H   0  0  0  0  0  0  0  0  0  0  0  0
   58.6930   29.0278   46.4311 H   0  0  0  0  0  0  0  0  0  0  0  0
   59.2070   29.6370   43.3750 H   0  0  0  0  0  0  0  0  0  0  0  0
   58.3850   30.3313   46.6940 H   0  0  0  0  0  0  0  0  0  0  0  0
   59.3332   32.1244   48.1429 H   0  0  0  0  0  0  0  0  0  0  0  0
   59.4063   34.7590   49.6213 H   0  0  0  0  0  0  0  0  0  0  0  0
   60.4622   33.5701   48.7858 H   0  0  0  0  0  0  0  0  0  0  0  0
   60.8968   35.3130   48.7858 H   0  0  0  0  0  0  0  0  0  0  0  0
   58.1532   35.0990   45.2232 H   0  0  0  0  0  0  0  0  0  0  0  0
   57.2030   33.3039   43.7793 H   0  0  0  0  0  0  0  0  0  0  0  0
   57.7786   27.4332   41.8159 H   0  0  0  0  0  0  0  0  0  0  0  0
   57.3900   24.9673   42.1285 H   0  0  0  0  0  0  0  0  0  0  0  0
  1  2  1  0
  2  3  1  0
  3  4  1  0
  4  5  2  0
  4  6  1  0
  6  7  2  0
  7  8  1  0
  8  9  2  0
  9 10  1  0
 10 11  2  0
 11 12  1  0
 12 13  1  0
 13 14  2  0
 13 15  2  0
 13 16  1  0
 16 17  2  0
 17 18  1  0
 18 19  2  0
 19 20  1  0
 20 21  1  0
 19 22  1  0
 22 23  2  0
 11 24  1  0
 24 25  2  0
 25 26  1  0
 26 27  2  0
 26  3  1  0
 27  6  1  0
 27 10  1  0
 23 16  1  0
  1 28  1  0
  1 29  1  0
  1 30  1  0
  2 31  1  0
  2 32  1  0
  7 33  1  0
  8 34  1  0
  9 35  1  0
 12 36  1  0
 17 37  1  0
 18 38  1  0
 21 39  1  0
 21 40  1  0
 21 41  1  0
 22 42  1  0
 23 43  1  0
 24 44  1  0
 25 45  1  0
M  END
>  <UniqueID>  (45) 
42

>  <SMILES>  (45) 
CCN1C(=O)c2cccc3c(NS(=O)(=O)c4ccc(OC)cc4)ccc1c23

>  <Energy>  (45) 
92.60176722663327

>  <Genealogy>  (45) 
CCN1C(=O)c2cccc3c(NS(=O)(=O)c4ccc(OC)cc4)ccc1c23 (3D coordinates assigned)
CCN1C(=O)c2cccc3c(NS(=O)(=O)c4ccc(OC)cc4)ccc1c23 (nonaromatic ring conformer: 92.60176722663327 kcal/mol)

>  <smiles>  (45) 
CCN1C(=O)c2cccc3c(NS(=O)(=O)c4ccc(OC)cc4)ccc1c23

>  <score_type>  (45) 
oracle

>  <origin>  (45) 
adg

>  <m_score__min__energy>  (45) 
-8.7300000000000004

>  <m_primary>  (45) 
energy

$$$$
45:0
     RDKit          3D

 47 50  0  0  0  0  0  0  0  0999 V2000
   55.3400   29.3350   44.4140 O   0  0  0  0  0  0  0  0  0  0  0  0
   56.5270   29.7480   44.3440 C   0  0  0  0  0  0  0  0  0  0  0  0
   57.6350   28.7760   44.1420 C   0  0  0  0  0  0  0  0  0  0  0  0
   58.5140   28.6700   45.3210 N   0  0  2  0  0  0  0  0  0  0  0  0
   57.8510   28.1750   46.5590 C   0  0  0  0  0  0  0  0  0  0  0  0
   57.1700   26.8330   46.4230 C   0  0  0  0  0  0  0  0  0  0  0  0
   55.9090   26.5970   45.8780 C   0  0  0  0  0  0  0  0  0  0  0  0
   55.5120   25.2570   45.9550 C   0  0  0  0  0  0  0  0  0  0  0  0
   56.4430   24.4510   46.5920 C   0  0  0  0  0  0  0  0  0  0  0  0
   56.2830   22.7250   46.8760 S   0  0  0  0  0  0  0  0  0  0  0  0
   57.3640   22.2860   47.8250 O   0  0  0  0  0  0  0  0  0  0  0  0
   54.9560   22.4720   47.5340 O   0  0  0  0  0  0  0  0  0  0  0  0
   56.3790   21.7860   45.4000 N   0  0  0  0  0  0  0  0  0  0  0  0
   57.7250   21.2290   45.1710 C   0  0  0  0  0  0  0  0  0  0  0  0
   58.7070   22.2590   44.5670 C   0  0  0  0  0  0  0  0  0  0  0  0
   58.0730   23.4230   44.0690 O   0  0  0  0  0  0  0  0  0  0  0  0
   56.9400   23.0660   43.3120 C   0  0  0  0  0  0  0  0  0  0  0  0
   55.8380   22.5120   44.2300 C   0  0  0  0  0  0  0  0  0  0  0  0
   57.7600   25.3850   47.0510 S   0  0  0  0  0  0  0  0  0  0  0  0
   59.3690   29.8170   45.5560 C   0  0  0  0  0  0  0  0  0  0  0  0
   60.6170   29.6300   45.4920 O   0  0  0  0  0  0  0  0  0  0  0  0
   58.8910   31.2110   45.8430 C   0  0  0  0  0  0  0  0  0  0  0  0
   59.6820   31.9820   46.7260 C   0  0  0  0  0  0  0  0  0  0  0  0
   59.2680   33.2390   47.1660 C   0  0  0  0  0  0  0  0  0  0  0  0
   58.0470   33.7550   46.7460 C   0  0  0  0  0  0  0  0  0  0  0  0
   57.2520   33.0250   45.8680 C   0  0  0  0  0  0  0  0  0  0  0  0
   57.6630   31.7750   45.3850 C   0  0  0  0  0  0  0  0  0  0  0  0
   56.7850   31.1410   44.4490 N   0  0  0  0  0  0  0  0  0  0  0  0
   57.2026   27.7862   43.9340 H   0  0  0  0  0  0  0  0  0  0  0  0
   58.2457   29.1350   43.3005 H   0  0  0  0  0  0  0  0  0  0  0  0
   59.1810   27.9030   45.0580 H   0  0  0  0  0  0  0  0  0  0  0  0
   58.6150   28.0923   47.3460 H   0  0  0  0  0  0  0  0  0  0  0  0
   57.0587   28.9004   46.7957 H   0  0  0  0  0  0  0  0  0  0  0  0
   55.2868   27.3865   45.4312 H   0  0  0  0  0  0  0  0  0  0  0  0
   54.5597   24.8821   45.5518 H   0  0  0  0  0  0  0  0  0  0  0  0
   58.1292   20.8808   46.1330 H   0  0  0  0  0  0  0  0  0  0  0  0
   57.6234   20.4062   44.4481 H   0  0  0  0  0  0  0  0  0  0  0  0
   59.4204   22.5591   45.3487 H   0  0  0  0  0  0  0  0  0  0  0  0
   59.2014   21.7712   43.7140 H   0  0  0  0  0  0  0  0  0  0  0  0
   56.5610   23.9541   42.7852 H   0  0  0  0  0  0  0  0  0  0  0  0
   57.2246   22.2902   42.5860 H   0  0  0  0  0  0  0  0  0  0  0  0
   55.2250   23.3515   44.5898 H   0  0  0  0  0  0  0  0  0  0  0  0
   55.2445   21.7969   43.6414 H   0  0  0  0  0  0  0  0  0  0  0  0
   60.6456   31.5812   47.0737 H   0  0  0  0  0  0  0  0  0  0  0  0
   59.9073   33.8221   47.8452 H   0  0  0  0  0  0  0  0  0  0  0  0
   57.7104   34.7380   47.1070 H   0  0  0  0  0  0  0  0  0  0  0  0
   56.2835   33.4362   45.5471 H   0  0  0  0  0  0  0  0  0  0  0  0
  1  2  2  0
  2  3  1  0
  3  4  1  0
  4  5  1  0
  5  6  1  0
  6  7  2  0
  7  8  1  0
  8  9  2  0
  9 10  1  0
 10 11  2  0
 10 12  2  0
 10 13  1  0
 13 14  1  0
 14 15  1  0
 15 16  1  0
 16 17  1  0
 17 18  1  0
  9 19  1  0
  4 20  1  0
 20 21  2  0
 20 22  1  0
 22 23  2  0
 23 24  1  0
 24 25  2  0
 25 26  1  0
 26 27  2  0
 27 28  1  0
 28  2  1  0
 19  6  1  0
 27 22  1  0
 18 13  1  0
  3 29  1  0
  3 30  1  0
  4 31  1  6
  5 32  1  0
  5 33  1  0
  7 34  1  0
  8 35  1  0
 14 36  1  0
 14 37  1  0
 15 38  1  0
 15 39  1  0
 17 40  1  0
 17 41  1  0
 18 42  1  0
 18 43  1  0
 23 44  1  0
 24 45  1  0
 25 46  1  0
 26 47  1  0
M  CHG  2   4   1  28  -1
M  END
>  <UniqueID>  (46) 
43

>  <SMILES>  (46) 
O=C1C[N@H+](Cc2ccc(S(=O)(=O)N3CCOCC3)s2)C(=O)c2ccccc2[N-]1

>  <Energy>  (46) 
108.93712446810889

>  <Genealogy>  (46) 
O=C1C[NH+](Cc2ccc(S(=O)(=O)N3CCOCC3)s2)C(=O)c2ccccc2[N-]1 (protonated)
O=C1C[N@H+](Cc2ccc(S(=O)(=O)N3CCOCC3)s2)C(=O)c2ccccc2[N-]1 (chirality)
O=C1C[N@H+](Cc2ccc(S(=O)(=O)N3CCOCC3)s2)C(=O)c2ccccc2[N-]1 (3D coordinates assigned)
O=C1C[N@H+](Cc2ccc(S(=O)(=O)N3CCOCC3)s2)C(=O)c2ccccc2[N-]1 (nonaromatic ring conformer: 108.93712446810889 kcal/mol)

>  <smiles>  (46) 
O=C1CN(Cc2ccc(S(=O)(=O)N3CCOCC3)s2)C(=O)c2ccccc2N1

>  <score_type>  (46) 
oracle

>  <origin>  (46) 
adg

>  <m_score__min__energy>  (46) 
-7.3899999999999997

>  <m_primary>  (46) 
energy

$$$$
46:0
     RDKit          3D

 68 72  0  0  0  0  0  0  0  0999 V2000
   59.0580   34.5970   52.7870 O   0  0  0  0  0  0  0  0  0  0  0  0
   59.2400   33.6790   51.9390 C   0  0  0  0  0  0  0  0  0  0  0  0
   60.0850   33.8900   50.8400 O   0  0  0  0  0  0  0  0  0  0  0  0
   61.4300   33.5020   50.7620 C   0  0  0  0  0  0  0  0  0  0  0  0
   62.0820   32.8700   51.8360 C   0  0  0  0  0  0  0  0  0  0  0  0
   63.4100   32.4550   51.7080 C   0  0  0  0  0  0  0  0  0  0  0  0
   64.0970   32.6660   50.5120 C   0  0  0  0  0  0  0  0  0  0  0  0
   63.4580   33.2890   49.4410 C   0  0  0  0  0  0  0  0  0  0  0  0
   62.1200   33.7080   49.5540 C   0  0  0  0  0  0  0  0  0  0  0  0
   61.4650   34.3890   48.5160 O   0  0  0  0  0  0  0  0  0  0  0  0
   61.1830   33.8550   47.2560 C   0  0  0  0  0  0  0  0  0  0  0  0
   62.0590   33.2350   46.6000 O   0  0  0  0  0  0  0  0  0  0  0  0
   59.8290   34.0020   46.6950 C   0  0  0  0  0  0  0  0  0  0  0  0
   59.6800   34.7020   45.4890 C   0  0  0  0  0  0  0  0  0  0  0  0
   58.4370   34.7590   44.8610 C   0  0  0  0  0  0  0  0  0  0  0  0
   57.3280   34.1390   45.4400 C   0  0  0  0  0  0  0  0  0  0  0  0
   57.4560   33.4690   46.6600 C   0  0  0  0  0  0  0  0  0  0  0  0
   58.7020   33.4070   47.3130 C   0  0  0  0  0  0  0  0  0  0  0  0
   58.8420   32.6560   48.6170 C   0  0  0  0  0  0  0  0  0  0  0  0
   58.3600   31.3140   48.5250 O   0  0  0  0  0  0  0  0  0  0  0  0
   59.1440   30.1530   48.6410 C   0  0  0  0  0  0  0  0  0  0  0  0
   60.3410   30.2440   49.3570 C   0  0  0  0  0  0  0  0  0  0  0  0
   61.1420   29.1140   49.5460 C   0  0  0  0  0  0  0  0  0  0  0  0
   60.7600   27.8860   49.0040 C   0  0  0  0  0  0  0  0  0  0  0  0
   59.5910   27.7890   48.2380 C   0  0  0  0  0  0  0  0  0  0  0  0
   59.2020   26.4770   47.6810 C   0  0  0  0  0  0  0  0  0  0  0  0
   59.3050   26.1320   46.3910 C   0  0  0  0  0  0  0  0  0  0  0  0
   58.4810   25.0970   45.7180 C   0  0  0  0  0  0  0  0  0  0  0  0
   59.0420   23.8280   45.4600 C   0  0  0  0  0  0  0  0  0  0  0  0
   58.2460   22.7800   44.9960 C   0  0  0  0  0  0  0  0  0  0  0  0
   56.8800   22.9710   44.8050 C   0  0  0  0  0  0  0  0  0  0  0  0
   56.3060   24.2190   45.0600 C   0  0  0  0  0  0  0  0  0  0  0  0
   57.0940   25.2990   45.4970 C   0  0  0  0  0  0  0  0  0  0  0  0
   56.4490   26.6170   45.6710 C   0  0  0  0  0  0  0  0  0  0  0  0
   57.1060   27.6800   45.5020 O   0  0  0  0  0  0  0  0  0  0  0  0
   55.0970   26.6990   46.0190 O   0  0  0  0  0  0  0  0  0  0  0  0
   58.7730   28.9210   48.0680 C   0  0  0  0  0  0  0  0  0  0  0  0
   58.5080   32.4020   52.0630 C   0  0  0  0  0  0  0  0  0  0  0  0
   57.1040   32.3680   52.0000 C   0  0  0  0  0  0  0  0  0  0  0  0
   56.4200   31.1540   52.1200 C   0  0  0  0  0  0  0  0  0  0  0  0
   57.1280   29.9670   52.3160 C   0  0  0  0  0  0  0  0  0  0  0  0
   58.5230   29.9910   52.3850 C   0  0  0  0  0  0  0  0  0  0  0  0
   59.2120   31.2000   52.2470 C   0  0  0  0  0  0  0  0  0  0  0  0
   61.5442   32.7017   52.7807 H   0  0  0  0  0  0  0  0  0  0  0  0
   63.9147   31.9612   52.5514 H   0  0  0  0  0  0  0  0  0  0  0  0
   65.1432   32.3406   50.4142 H   0  0  0  0  0  0  0  0  0  0  0  0
   64.0042   33.4541   48.5006 H   0  0  0  0  0  0  0  0  0  0  0  0
   60.5464   35.2074   45.0375 H   0  0  0  0  0  0  0  0  0  0  0  0
   58.3294   35.2942   43.9060 H   0  0  0  0  0  0  0  0  0  0  0  0
   56.3516   34.1779   44.9350 H   0  0  0  0  0  0  0  0  0  0  0  0
   56.5773   32.9868   47.1131 H   0  0  0  0  0  0  0  0  0  0  0  0
   59.9051   32.6314   48.8985 H   0  0  0  0  0  0  0  0  0  0  0  0
   58.2379   33.1792   49.3729 H   0  0  0  0  0  0  0  0  0  0  0  0
   60.6550   31.2119   49.7748 H   0  0  0  0  0  0  0  0  0  0  0  0
   62.0752   29.1929   50.1230 H   0  0  0  0  0  0  0  0  0  0  0  0
   61.3778   26.9928   49.1785 H   0  0  0  0  0  0  0  0  0  0  0  0
   58.7977   25.7278   48.3776 H   0  0  0  0  0  0  0  0  0  0  0  0
   60.0579   26.6558   45.7837 H   0  0  0  0  0  0  0  0  0  0  0  0
   60.1168   23.6635   45.6262 H   0  0  0  0  0  0  0  0  0  0  0  0
   58.6986   21.8008   44.7806 H   0  0  0  0  0  0  0  0  0  0  0  0
   56.2525   22.1389   44.4532 H   0  0  0  0  0  0  0  0  0  0  0  0
   55.2243   24.3587   44.9172 H   0  0  0  0  0  0  0  0  0  0  0  0
   57.8423   28.8438   47.4867 H   0  0  0  0  0  0  0  0  0  0  0  0
   56.5402   33.3014   51.8555 H   0  0  0  0  0  0  0  0  0  0  0  0
   55.3218   31.1345   52.0598 H   0  0  0  0  0  0  0  0  0  0  0  0
   56.5880   29.0139   52.4160 H   0  0  0  0  0  0  0  0  0  0  0  0
   59.0806   29.0570   52.5482 H   0  0  0  0  0  0  0  0  0  0  0  0
   60.3114   31.2101   52.2827 H   0  0  0  0  0  0  0  0  0  0  0  0
  1  2  2  0
  2  3  1  0
  3  4  1  0
  4  5  2  0
  5  6  1  0
  6  7  2  0
  7  8  1  0
  8  9  2  0
  9 10  1  0
 10 11  1  0
 11 12  2  0
 11 13  1  0
 13 14  2  0
 14 15  1  0
 15 16  2  0
 16 17  1  0
 17 18  2  0
 18 19  1  0
 19 20  1  0
 20 21  1  0
 21 22  2  0
 22 23  1  0
 23 24  2  0
 24 25  1  0
 25 26  1  0
 26 27  2  3
 27 28  1  0
 28 29  2  0
 29 30  1  0
 30 31  2  0
 31 32  1  0
 32 33  2  0
 33 34  1  0
 34 35  2  0
 34 36  1  0
 25 37  2  0
  2 38  1  0
 38 39  2  0
 39 40  1  0
 40 41  2  0
 41 42  1  0
 42 43  2  0
  9  4  1  0
 18 13  1  0
 37 21  1  0
 43 38  1  0
 33 28  1  0
  5 44  1  0
  6 45  1  0
  7 46  1  0
  8 47  1  0
 14 48  1  0
 15 49  1  0
 16 50  1  0
 17 51  1  0
 19 52  1  0
 19 53  1  0
 22 54  1  0
 23 55  1  0
 24 56  1  0
 26 57  1  0
 27 58  1  0
 29 59  1  0
 30 60  1  0
 31 61  1  0
 32 62  1  0
 37 63  1  0
 39 64  1  0
 40 65  1  0
 41 66  1  0
 42 67  1  0
 43 68  1  0
M  CHG  1  36  -1
M  END
>  <UniqueID>  (47) 
44

>  <SMILES>  (47) 
O=C(Oc1ccccc1OC(=O)c1ccccc1COc1cccc(C=Cc2ccccc2C(=O)[O-])c1)c1ccccc1

>  <Energy>  (47) 
99.66790743719774

>  <Genealogy>  (47) 
O=C(Oc1ccccc1OC(=O)c1ccccc1COc1cccc(C=Cc2ccccc2C(=O)[O-])c1)c1ccccc1 (protonated)
O=C(Oc1ccccc1OC(=O)c1ccccc1COc1cccc(C=Cc2ccccc2C(=O)[O-])c1)c1ccccc1 (3D coordinates assigned)
O=C(Oc1ccccc1OC(=O)c1ccccc1COc1cccc(C=Cc2ccccc2C(=O)[O-])c1)c1ccccc1 (optimized conformer: 99.66790743719774 kcal/mol)

>  <smiles>  (47) 
O=C(Oc1ccccc1OC(=O)c1ccccc1COc1cccc(C=Cc2ccccc2C(=O)O)c1)c1ccccc1

>  <score_type>  (47) 
oracle

>  <origin>  (47) 
adg

>  <m_score__min__energy>  (47) 
-13.94

>  <m_primary>  (47) 
energy

$$$$
47:0
     RDKit          3D

 59 62  0  0  0  0  0  0  0  0999 V2000
   58.1360   32.6380   42.9340 C   0  0  0  0  0  0  0  0  0  0  0  0
   58.1190   32.9080   44.4130 C   0  0  0  0  0  0  0  0  0  0  0  0
   58.0460   34.2380   44.8620 C   0  0  0  0  0  0  0  0  0  0  0  0
   58.0830   34.5310   46.2270 C   0  0  0  0  0  0  0  0  0  0  0  0
   58.1950   33.5000   47.1600 C   0  0  0  0  0  0  0  0  0  0  0  0
   58.2520   32.1720   46.7320 C   0  0  0  0  0  0  0  0  0  0  0  0
   58.1850   31.8610   45.3660 C   0  0  0  0  0  0  0  0  0  0  0  0
   58.2430   30.4850   44.9690 N   0  0  0  0  0  0  0  0  0  0  0  0
   57.0690   29.6720   44.8270 C   0  0  0  0  0  0  0  0  0  0  0  0
   55.9510   30.0910   45.2320 O   0  0  0  0  0  0  0  0  0  0  0  0
   57.1720   28.3100   44.2140 C   0  0  0  0  0  0  0  0  0  0  0  0
   57.4310   27.2810   45.2770 C   0  0  0  0  0  0  0  0  0  0  0  0
   56.4740   26.5250   45.9220 C   0  0  0  0  0  0  0  0  0  0  0  0
   55.1070   26.5450   45.6680 O   0  0  0  0  0  0  0  0  0  0  0  0
   57.0630   25.7590   46.8610 N   0  0  0  0  0  0  0  0  0  0  0  0
   56.4120   24.8500   47.8050 C   0  0  0  0  0  0  0  0  0  0  0  0
   56.6030   23.3860   47.3910 C   0  0  0  0  0  0  0  0  0  0  0  0
   56.5680   23.2140   45.8930 C   0  0  0  0  0  0  0  0  0  0  0  0
   55.4040   23.5250   45.1680 C   0  0  0  0  0  0  0  0  0  0  0  0
   55.3770   23.3670   43.7800 C   0  0  0  0  0  0  0  0  0  0  0  0
   56.5170   22.9270   43.1020 C   0  0  0  0  0  0  0  0  0  0  0  0
   57.6800   22.6250   43.8130 C   0  0  0  0  0  0  0  0  0  0  0  0
   57.7070   22.7620   45.2050 C   0  0  0  0  0  0  0  0  0  0  0  0
   58.3730   26.0790   46.7890 C   0  0  0  0  0  0  0  0  0  0  0  0
   59.2550   25.5740   47.5340 O   0  0  0  0  0  0  0  0  0  0  0  0
   58.6330   27.0060   45.8390 N   0  0  0  0  0  0  0  0  0  0  0  0
   59.9420   27.5650   45.4870 C   0  0  0  0  0  0  0  0  0  0  0  0
   60.3240   28.6610   46.4460 C   0  0  0  0  0  0  0  0  0  0  0  0
   59.8890   28.6140   47.7820 C   0  0  0  0  0  0  0  0  0  0  0  0
   60.2470   29.6290   48.6760 C   0  0  0  0  0  0  0  0  0  0  0  0
   61.0380   30.6960   48.2420 C   0  0  0  0  0  0  0  0  0  0  0  0
   61.4680   30.7550   46.9140 C   0  0  0  0  0  0  0  0  0  0  0  0
   61.1120   29.7430   46.0170 C   0  0  0  0  0  0  0  0  0  0  0  0
   58.2043   31.5540   42.7599 H   0  0  0  0  0  0  0  0  0  0  0  0
   57.2117   33.0248   42.4800 H   0  0  0  0  0  0  0  0  0  0  0  0
   59.0045   33.1377   42.4800 H   0  0  0  0  0  0  0  0  0  0  0  0
   57.9589   35.0557   44.1314 H   0  0  0  0  0  0  0  0  0  0  0  0
   58.0238   35.5756   46.5667 H   0  0  0  0  0  0  0  0  0  0  0  0
   58.2385   33.7334   48.2341 H   0  0  0  0  0  0  0  0  0  0  0  0
   58.3502   31.3638   47.4717 H   0  0  0  0  0  0  0  0  0  0  0  0
   59.1790   30.0220   44.9250 H   0  0  0  0  0  0  0  0  0  0  0  0
   56.2298   28.0712   43.6990 H   0  0  0  0  0  0  0  0  0  0  0  0
   58.0052   28.3017   43.4958 H   0  0  0  0  0  0  0  0  0  0  0  0
   56.8470   24.9994   48.8042 H   0  0  0  0  0  0  0  0  0  0  0  0
   55.3344   25.0708   47.8125 H   0  0  0  0  0  0  0  0  0  0  0  0
   57.5755   23.0346   47.7663 H   0  0  0  0  0  0  0  0  0  0  0  0
   55.7763   22.8007   47.8199 H   0  0  0  0  0  0  0  0  0  0  0  0
   54.5118   23.8939   45.6953 H   0  0  0  0  0  0  0  0  0  0  0  0
   54.4567   23.5894   43.2199 H   0  0  0  0  0  0  0  0  0  0  0  0
   56.4980   22.8185   42.0075 H   0  0  0  0  0  0  0  0  0  0  0  0
   58.5765   22.2788   43.2778 H   0  0  0  0  0  0  0  0  0  0  0  0
   58.6225   22.5152   45.7627 H   0  0  0  0  0  0  0  0  0  0  0  0
   60.6988   26.7678   45.5287 H   0  0  0  0  0  0  0  0  0  0  0  0
   59.8876   27.9845   44.4716 H   0  0  0  0  0  0  0  0  0  0  0  0
   59.2648   27.7761   48.1258 H   0  0  0  0  0  0  0  0  0  0  0  0
   59.9057   29.5870   49.7209 H   0  0  0  0  0  0  0  0  0  0  0  0
   61.3226   31.4909   48.9471 H   0  0  0  0  0  0  0  0  0  0  0  0
   62.0871   31.5982   46.5738 H   0  0  0  0  0  0  0  0  0  0  0  0
   61.4500   29.7939   44.9715 H   0  0  0  0  0  0  0  0  0  0  0  0
  1  2  1  0
  2  3  2  0
  3  4  1  0
  4  5  2  0
  5  6  1  0
  6  7  2  0
  7  8  1  0
  8  9  1  0
  9 10  2  0
  9 11  1  0
 11 12  1  0
 12 13  2  0
 13 14  1  0
 13 15  1  0
 15 16  1  0
 16 17  1  0
 17 18  1  0
 18 19  2  0
 19 20  1  0
 20 21  2  0
 21 22  1  0
 22 23  2  0
 15 24  1  0
 24 25  2  0
 24 26  1  0
 26 27  1  0
 27 28  1  0
 28 29  2  0
 29 30  1  0
 30 31  2  0
 31 32  1  0
 32 33  2  0
  7  2  1  0
 26 12  1  0
 33 28  1  0
 23 18  1  0
  1 34  1  0
  1 35  1  0
  1 36  1  0
  3 37  1  0
  4 38  1  0
  5 39  1  0
  6 40  1  0
  8 41  1  0
 11 42  1  0
 11 43  1  0
 16 44  1  0
 16 45  1  0
 17 46  1  0
 17 47  1  0
 19 48  1  0
 20 49  1  0
 21 50  1  0
 22 51  1  0
 23 52  1  0
 27 53  1  0
 27 54  1  0
 29 55  1  0
 30 56  1  0
 31 57  1  0
 32 58  1  0
 33 59  1  0
M  CHG  1  14  -1
M  END
>  <UniqueID>  (48) 
45

>  <SMILES>  (48) 
Cc1ccccc1NC(=O)Cc1c([O-])n(CCc2ccccc2)c(=O)n1Cc1ccccc1

>  <Energy>  (48) 
89.96818263656844

>  <Genealogy>  (48) 
Cc1ccccc1NC(=O)Cc1c([O-])n(CCc2ccccc2)c(=O)n1Cc1ccccc1 (protonated)
Cc1ccccc1NC(=O)Cc1c([O-])n(CCc2ccccc2)c(=O)n1Cc1ccccc1 (3D coordinates assigned)
Cc1ccccc1NC(=O)Cc1c([O-])n(CCc2ccccc2)c(=O)n1Cc1ccccc1 (optimized conformer: 89.96818263656844 kcal/mol)

>  <smiles>  (48) 
Cc1ccccc1NC(=O)Cc1c(O)n(CCc2ccccc2)c(=O)n1Cc1ccccc1

>  <score_type>  (48) 
oracle

>  <origin>  (48) 
adg

>  <m_score__min__energy>  (48) 
-13.34

>  <m_primary>  (48) 
energy

$$$$
48:0
     RDKit          3D

 54 57  0  0  0  0  0  0  0  0999 V2000
   60.4190   34.6230   46.6350 O   0  0  0  0  0  0  0  0  0  0  0  0
   59.7090   34.1290   47.5530 C   0  0  0  0  0  0  0  0  0  0  0  0
   59.9090   34.5870   48.9640 C   0  0  0  0  0  0  0  0  0  0  0  0
   60.6360   33.5680   49.7200 N   0  0  0  0  0  0  0  0  0  0  0  0
   60.3180   32.1660   49.6360 C   0  0  0  0  0  0  0  0  0  0  0  0
   61.1060   31.3140   48.8390 C   0  0  0  0  0  0  0  0  0  0  0  0
   60.7870   29.9610   48.7090 C   0  0  0  0  0  0  0  0  0  0  0  0
   59.6780   29.4330   49.3700 C   0  0  0  0  0  0  0  0  0  0  0  0
   58.8830   30.2550   50.1730 C   0  0  0  0  0  0  0  0  0  0  0  0
   57.8120   29.7250   50.8220 N   0  0  0  0  0  0  0  0  0  0  0  0
   57.0180   30.4760   51.6290 C   0  0  0  0  0  0  0  0  0  0  0  0
   56.0350   29.9440   52.2100 O   0  0  0  0  0  0  0  0  0  0  0  0
   57.2950   31.8300   51.8190 C   0  0  0  0  0  0  0  0  0  0  0  0
   58.3870   32.4070   51.1680 C   0  0  0  0  0  0  0  0  0  0  0  0
   59.1970   31.6300   50.3180 C   0  0  0  0  0  0  0  0  0  0  0  0
   58.7740   33.0760   47.2710 N   0  0  0  0  0  0  0  0  0  0  0  0
   58.4090   32.6530   45.9470 C   0  0  0  0  0  0  0  0  0  0  0  0
   58.5010   33.5250   44.8470 C   0  0  0  0  0  0  0  0  0  0  0  0
   58.1250   33.0920   43.5730 C   0  0  0  0  0  0  0  0  0  0  0  0
   57.6400   31.7960   43.3860 C   0  0  0  0  0  0  0  0  0  0  0  0
   57.5160   30.9270   44.4760 C   0  0  0  0  0  0  0  0  0  0  0  0
   56.9150   29.2910   44.2240 S   0  0  0  0  0  0  0  0  0  0  0  0
   55.5460   29.1450   44.8290 O   0  0  0  0  0  0  0  0  0  0  0  0
   56.8140   29.0390   42.7450 O   0  0  0  0  0  0  0  0  0  0  0  0
   58.0150   28.1460   44.9480 N   0  0  0  0  0  0  0  0  0  0  0  0
   59.3510   28.7510   45.0860 C   0  0  0  0  0  0  0  0  0  0  0  0
   60.3800   27.6880   45.5170 C   0  0  0  0  0  0  0  0  0  0  0  0
   59.7280   26.4990   46.2430 C   0  0  0  0  0  0  0  0  0  0  0  0
   58.5480   26.9620   47.1010 C   0  0  0  0  0  0  0  0  0  0  0  0
   57.4920   27.7160   46.2620 C   0  0  0  0  0  0  0  0  0  0  0  0
   57.8980   31.3600   45.7550 C   0  0  0  0  0  0  0  0  0  0  0  0
   60.4865   35.5232   48.9651 H   0  0  0  0  0  0  0  0  0  0  0  0
   58.9281   34.7545   49.4328 H   0  0  0  0  0  0  0  0  0  0  0  0
   61.3190   33.8860   50.4430 H   0  0  0  0  0  0  0  0  0  0  0  0
   61.9830   31.7189   48.3127 H   0  0  0  0  0  0  0  0  0  0  0  0
   61.4130   29.3085   48.0826 H   0  0  0  0  0  0  0  0  0  0  0  0
   59.4288   28.3674   49.2589 H   0  0  0  0  0  0  0  0  0  0  0  0
   56.6575   32.4387   52.4771 H   0  0  0  0  0  0  0  0  0  0  0  0
   58.6153   33.4723   51.3197 H   0  0  0  0  0  0  0  0  0  0  0  0
   58.4140   32.5200   48.0810 H   0  0  0  0  0  0  0  0  0  0  0  0
   58.8702   34.5512   44.9904 H   0  0  0  0  0  0  0  0  0  0  0  0
   58.2113   33.7742   42.7145 H   0  0  0  0  0  0  0  0  0  0  0  0
   57.3546   31.4571   42.3792 H   0  0  0  0  0  0  0  0  0  0  0  0
   59.6561   29.1802   44.1202 H   0  0  0  0  0  0  0  0  0  0  0  0
   59.3087   29.5384   45.8530 H   0  0  0  0  0  0  0  0  0  0  0  0
   60.8974   27.3140   44.6212 H   0  0  0  0  0  0  0  0  0  0  0  0
   61.0804   28.1651   46.2183 H   0  0  0  0  0  0  0  0  0  0  0  0
   59.3684   25.7750   45.4970 H   0  0  0  0  0  0  0  0  0  0  0  0
   60.4784   26.0343   46.8995 H   0  0  0  0  0  0  0  0  0  0  0  0
   58.0753   26.0820   47.5616 H   0  0  0  0  0  0  0  0  0  0  0  0
   58.9315   27.6506   47.8683 H   0  0  0  0  0  0  0  0  0  0  0  0
   56.6309   27.0513   46.0986 H   0  0  0  0  0  0  0  0  0  0  0  0
   57.2051   28.6197   46.8196 H   0  0  0  0  0  0  0  0  0  0  0  0
   57.7961   30.6805   46.6140 H   0  0  0  0  0  0  0  0  0  0  0  0
  1  2  2  0
  2  3  1  0
  3  4  1  0
  4  5  1  0
  5  6  2  0
  6  7  1  0
  7  8  2  0
  8  9  1  0
  9 10  1  0
 10 11  1  0
 11 12  2  0
 11 13  1  0
 13 14  2  0
 14 15  1  0
  2 16  1  0
 16 17  1  0
 17 18  2  0
 18 19  1  0
 19 20  2  0
 20 21  1  0
 21 22  1  0
 22 23  2  0
 22 24  2  0
 22 25  1  0
 25 26  1  0
 26 27  1  0
 27 28  1  0
 28 29  1  0
 29 30  1  0
 21 31  2  0
 15  5  1  0
 31 17  1  0
 15  9  2  0
 30 25  1  0
  3 32  1  0
  3 33  1  0
  4 34  1  0
  6 35  1  0
  7 36  1  0
  8 37  1  0
 13 38  1  0
 14 39  1  0
 16 40  1  0
 18 41  1  0
 19 42  1  0
 20 43  1  0
 26 44  1  0
 26 45  1  0
 27 46  1  0
 27 47  1  0
 28 48  1  0
 28 49  1  0
 29 50  1  0
 29 51  1  0
 30 52  1  0
 30 53  1  0
 31 54  1  0
M  CHG  1  10  -1
M  END
>  <UniqueID>  (49) 
46

>  <SMILES>  (49) 
O=C(CNc1cccc2[n-]c(=O)ccc12)Nc1cccc(S(=O)(=O)N2CCCCC2)c1

>  <Energy>  (49) 
68.97960643227059

>  <Genealogy>  (49) 
O=C(CNc1cccc2[n-]c(=O)ccc12)Nc1cccc(S(=O)(=O)N2CCCCC2)c1 (protonated)
O=C(CNc1cccc2[n-]c(=O)ccc12)Nc1cccc(S(=O)(=O)N2CCCCC2)c1 (3D coordinates assigned)
O=C(CNc1cccc2[n-]c(=O)ccc12)Nc1cccc(S(=O)(=O)N2CCCCC2)c1 (nonaromatic ring conformer: 68.97960643227059 kcal/mol)

>  <smiles>  (49) 
O=C(CNc1cccc2[nH]c(=O)ccc12)Nc1cccc(S(=O)(=O)N2CCCCC2)c1

>  <score_type>  (49) 
oracle

>  <origin>  (49) 
adg

>  <m_score__min__energy>  (49) 
-12.039999999999999

>  <m_primary>  (49) 
energy

$$$$
49:0
     RDKit          3D

 28 29  0  0  0  0  0  0  0  0999 V2000
   55.9570   30.4890   44.4980 O   0  0  0  0  0  0  0  0  0  0  0  0
   57.1950   30.6630   44.3480 C   0  0  0  0  0  0  0  0  0  0  0  0
   57.7460   32.1970   43.5860 S   0  0  0  0  0  0  0  0  0  0  0  0
   57.0290   33.2770   44.8730 C   0  0  0  0  0  0  0  0  0  0  0  0
   58.0710   33.6760   45.8820 C   0  0  0  0  0  0  0  0  0  0  0  0
   58.0880   33.0770   47.1520 C   0  0  0  0  0  0  0  0  0  0  0  0
   59.0720   33.4300   48.0830 C   0  0  0  0  0  0  0  0  0  0  0  0
   60.0430   34.3770   47.7510 C   0  0  0  0  0  0  0  0  0  0  0  0
   60.0360   34.9730   46.4870 C   0  0  0  0  0  0  0  0  0  0  0  0
   59.0550   34.6250   45.5530 C   0  0  0  0  0  0  0  0  0  0  0  0
   58.1510   29.6170   44.7920 C   0  0  0  0  0  0  0  0  0  0  0  0
   59.2690   29.9680   45.5740 C   0  0  0  0  0  0  0  0  0  0  0  0
   60.1790   28.9930   45.9920 C   0  0  0  0  0  0  0  0  0  0  0  0
   59.9860   27.6560   45.6360 C   0  0  0  0  0  0  0  0  0  0  0  0
   58.8820   27.2930   44.8620 C   0  0  0  0  0  0  0  0  0  0  0  0
   57.9690   28.2640   44.4410 C   0  0  0  0  0  0  0  0  0  0  0  0
   56.6227   34.1821   44.3980 H   0  0  0  0  0  0  0  0  0  0  0  0
   56.2320   32.7238   45.3915 H   0  0  0  0  0  0  0  0  0  0  0  0
   57.3263   32.3286   47.4159 H   0  0  0  0  0  0  0  0  0  0  0  0
   59.0803   32.9606   49.0778 H   0  0  0  0  0  0  0  0  0  0  0  0
   60.8140   34.6541   48.4850 H   0  0  0  0  0  0  0  0  0  0  0  0
   60.8032   35.7169   46.2263 H   0  0  0  0  0  0  0  0  0  0  0  0
   59.0532   35.0949   44.5584 H   0  0  0  0  0  0  0  0  0  0  0  0
   59.4272   31.0188   45.8582 H   0  0  0  0  0  0  0  0  0  0  0  0
   61.0485   29.2788   46.6022 H   0  0  0  0  0  0  0  0  0  0  0  0
   60.7033   26.8897   45.9652 H   0  0  0  0  0  0  0  0  0  0  0  0
   58.7304   26.2399   44.5828 H   0  0  0  0  0  0  0  0  0  0  0  0
   57.1020   27.9701   43.8312 H   0  0  0  0  0  0  0  0  0  0  0  0
  1  2  2  0
  2  3  1  0
  3  4  1  0
  4  5  1  0
  5  6  2  0
  6  7  1  0
  7  8  2  0
  8  9  1  0
  9 10  2  0
  2 11  1  0
 11 12  2  0
 12 13  1  0
 13 14  2  0
 14 15  1  0
 15 16  2  0
 10  5  1  0
 16 11  1  0
  4 17  1  0
  4 18  1  0
  6 19  1  0
  7 20  1  0
  8 21  1  0
  9 22  1  0
 10 23  1  0
 12 24  1  0
 13 25  1  0
 14 26  1  0
 15 27  1  0
 16 28  1  0
M  END
>  <UniqueID>  (50) 
47

>  <SMILES>  (50) 
O=C(SCc1ccccc1)c1ccccc1

>  <Energy>  (50) 
25.70398950993123

>  <Genealogy>  (50) 
O=C(SCc1ccccc1)c1ccccc1 (3D coordinates assigned)
O=C(SCc1ccccc1)c1ccccc1 (optimized conformer: 25.70398950993123 kcal/mol)

>  <smiles>  (50) 
O=C(SCc1ccccc1)c1ccccc1

>  <score_type>  (50) 
oracle

>  <origin>  (50) 
adg

>  <m_score__min__energy>  (50) 
-6.8300000000000001

>  <m_primary>  (50) 
energy

$$$$
50:0
     RDKit          3D

 43 45  0  0  0  0  0  0  0  0999 V2000
   63.3360   33.8430   47.1590 C   0  0  0  0  0  0  0  0  0  0  0  0
   62.1930   32.9460   47.0420 N   0  0  0  0  0  0  0  0  0  0  0  0
   62.1370   31.6540   47.4210 C   0  0  0  0  0  0  0  0  0  0  0  0
   60.9620   31.0720   47.0980 N   0  0  0  0  0  0  0  0  0  0  0  0
   60.2760   32.0550   46.4810 C   0  0  0  0  0  0  0  0  0  0  0  0
   58.6530   31.8670   45.8440 S   0  0  0  0  0  0  0  0  0  0  0  0
   58.1010   33.2300   45.5260 O   0  0  0  0  0  0  0  0  0  0  0  0
   57.7930   31.2280   46.8980 O   0  0  0  0  0  0  0  0  0  0  0  0
   58.7050   30.8620   44.4100 N   0  0  1  0  0  0  0  0  0  0  0  0
   59.6240   29.7170   44.5500 C   0  0  0  0  0  0  0  0  0  0  0  0
   59.1760   28.7300   45.6370 C   0  0  0  0  0  0  0  0  0  0  0  0
   57.7400   28.4250   45.5620 N   0  0  0  0  0  0  0  0  0  0  0  0
   57.2130   27.3380   46.4000 C   0  0  0  0  0  0  0  0  0  0  0  0
   57.0050   26.0870   45.5800 C   0  0  0  0  0  0  0  0  0  0  0  0
   56.1330   25.0880   46.0450 C   0  0  0  0  0  0  0  0  0  0  0  0
   55.8940   23.9440   45.2790 C   0  0  0  0  0  0  0  0  0  0  0  0
   56.5270   23.7830   44.0410 C   0  0  0  0  0  0  0  0  0  0  0  0
   56.2790   22.6040   43.2520 C   0  0  0  0  0  0  0  0  0  0  0  0
   56.0810   21.6570   42.6190 N   0  0  0  0  0  0  0  0  0  0  0  0
   57.4050   24.7670   43.5750 C   0  0  0  0  0  0  0  0  0  0  0  0
   57.6470   25.9150   44.3390 C   0  0  0  0  0  0  0  0  0  0  0  0
   58.5190   26.8420   43.8700 F   0  0  0  0  0  0  0  0  0  0  0  0
   56.8370   29.2970   44.8510 C   0  0  0  0  0  0  0  0  0  0  0  0
   55.5950   29.0840   44.8720 O   0  0  0  0  0  0  0  0  0  0  0  0
   57.3570   30.4230   44.0040 C   0  0  0  0  0  0  0  0  0  0  0  0
   61.0260   33.2060   46.4350 C   0  0  0  0  0  0  0  0  0  0  0  0
   63.5580   34.0172   48.2222 H   0  0  0  0  0  0  0  0  0  0  0  0
   64.2107   33.3878   46.6716 H   0  0  0  0  0  0  0  0  0  0  0  0
   63.1018   34.8009   46.6716 H   0  0  0  0  0  0  0  0  0  0  0  0
   62.9568   31.1318   47.9360 H   0  0  0  0  0  0  0  0  0  0  0  0
   59.0810   31.4670   43.6410 H   0  0  0  0  0  0  0  0  0  0  0  0
   59.6722   29.1844   43.5887 H   0  0  0  0  0  0  0  0  0  0  0  0
   60.6072   30.1129   44.8442 H   0  0  0  0  0  0  0  0  0  0  0  0
   59.7422   27.7943   45.5191 H   0  0  0  0  0  0  0  0  0  0  0  0
   59.3681   29.1981   46.6137 H   0  0  0  0  0  0  0  0  0  0  0  0
   57.9282   27.1256   47.2083 H   0  0  0  0  0  0  0  0  0  0  0  0
   56.2458   27.6513   46.8200 H   0  0  0  0  0  0  0  0  0  0  0  0
   55.6352   25.2073   47.0186 H   0  0  0  0  0  0  0  0  0  0  0  0
   55.2073   23.1687   45.6495 H   0  0  0  0  0  0  0  0  0  0  0  0
   57.9072   24.6385   42.6048 H   0  0  0  0  0  0  0  0  0  0  0  0
   57.3961   30.0874   42.9572 H   0  0  0  0  0  0  0  0  0  0  0  0
   56.6760   31.2774   44.1309 H   0  0  0  0  0  0  0  0  0  0  0  0
   60.7247   34.1629   45.9839 H   0  0  0  0  0  0  0  0  0  0  0  0
  1  2  1  0
  2  3  1  0
  3  4  2  0
  4  5  1  0
  5  6  1  0
  6  7  2  0
  6  8  2  0
  6  9  1  0
  9 10  1  0
 10 11  1  0
 11 12  1  0
 12 13  1  0
 13 14  1  0
 14 15  2  0
 15 16  1  0
 16 17  2  0
 17 18  1  0
 18 19  3  0
 17 20  1  0
 20 21  2  0
 21 22  1  0
 12 23  1  0
 23 24  2  0
 23 25  1  0
  5 26  2  0
 26  2  1  0
 25  9  1  0
 21 14  1  0
  1 27  1  0
  1 28  1  0
  1 29  1  0
  3 30  1  0
  9 31  1  6
 10 32  1  0
 10 33  1  0
 11 34  1  0
 11 35  1  0
 13 36  1  0
 13 37  1  0
 15 38  1  0
 16 39  1  0
 20 40  1  0
 25 41  1  0
 25 42  1  0
 26 43  1  0
M  CHG  1   9   1
M  END
>  <UniqueID>  (51) 
48

>  <SMILES>  (51) 
Cn1cnc(S(=O)(=O)[N@H+]2CCN(Cc3ccc(C#N)cc3F)C(=O)C2)c1

>  <Energy>  (51) 
73.20874422745077

>  <Genealogy>  (51) 
Cn1cnc(S(=O)(=O)[NH+]2CCN(Cc3ccc(C#N)cc3F)C(=O)C2)c1 (protonated)
Cn1cnc(S(=O)(=O)[N@H+]2CCN(Cc3ccc(C#N)cc3F)C(=O)C2)c1 (chirality)
Cn1cnc(S(=O)(=O)[N@H+]2CCN(Cc3ccc(C#N)cc3F)C(=O)C2)c1 (3D coordinates assigned)
Cn1cnc(S(=O)(=O)[N@H+]2CCN(Cc3ccc(C#N)cc3F)C(=O)C2)c1 (nonaromatic ring conformer: 73.20874422745077 kcal/mol)

>  <smiles>  (51) 
Cn1cnc(S(=O)(=O)N2CCN(Cc3ccc(C#N)cc3F)C(=O)C2)c1

>  <score_type>  (51) 
oracle

>  <origin>  (51) 
adg

>  <m_score__min__energy>  (51) 
-6.3600000000000003

>  <m_primary>  (51) 
energy

$$$$
51:0
     RDKit          3D

 63 65  0  0  0  0  0  0  0  0999 V2000
   56.6030   22.1570   43.0170 C   0  0  0  0  0  0  0  0  0  0  0  0
   57.8140   22.4570   44.3480 S   0  0  0  0  0  0  0  0  0  0  0  0
   57.3510   24.2000   44.6680 C   0  0  0  0  0  0  0  0  0  0  0  0
   58.1280   24.8080   45.8440 C   0  0  0  0  0  0  0  0  0  0  0  0
   57.2880   25.7980   46.6790 C   0  0  1  0  0  0  0  0  0  0  0  0
   57.7460   27.1740   46.4480 N   0  0  0  0  0  0  0  0  0  0  0  0
   57.8620   27.7190   45.1200 C   0  0  0  0  0  0  0  0  0  0  0  0
   58.0190   26.9340   44.1490 O   0  0  0  0  0  0  0  0  0  0  0  0
   57.8060   29.1880   44.8590 C   0  0  0  0  0  0  0  0  0  0  0  0
   57.0130   29.7370   43.8310 C   0  0  0  0  0  0  0  0  0  0  0  0
   56.9970   31.1190   43.6070 C   0  0  0  0  0  0  0  0  0  0  0  0
   57.7930   31.9780   44.3790 C   0  0  0  0  0  0  0  0  0  0  0  0
   57.7850   33.4680   44.1320 C   0  0  0  0  0  0  0  0  0  0  0  0
   58.0660   34.3070   45.3910 C   0  0  0  0  0  0  0  0  0  0  0  0
   59.2970   35.2140   45.2660 C   0  0  0  0  0  0  0  0  0  0  0  0
   60.0040   35.2180   46.4960 O   0  0  0  0  0  0  0  0  0  0  0  0
   60.4990   34.0540   47.0940 C   0  0  0  0  0  0  0  0  0  0  0  0
   61.7650   33.5460   46.7610 C   0  0  0  0  0  0  0  0  0  0  0  0
   62.2180   32.3550   47.3370 C   0  0  0  0  0  0  0  0  0  0  0  0
   61.4310   31.6810   48.2710 C   0  0  0  0  0  0  0  0  0  0  0  0
   61.8920   30.4670   48.8010 O   0  0  0  0  0  0  0  0  0  0  0  0
   61.4900   29.9410   50.0370 C   0  0  0  0  0  0  0  0  0  0  0  0
   62.1760   30.2770   51.1700 N   0  0  0  0  0  0  0  0  0  0  0  0
   61.8550   29.7660   52.3890 C   0  0  0  0  0  0  0  0  0  0  0  0
   60.7930   28.8770   52.5140 C   0  0  0  0  0  0  0  0  0  0  0  0
   60.0650   28.5170   51.3760 C   0  0  0  0  0  0  0  0  0  0  0  0
   60.4060   29.0420   50.1160 C   0  0  0  0  0  0  0  0  0  0  0  0
   59.6450   28.6620   48.9470 N   0  0  0  0  0  0  0  0  0  0  0  0
   59.9000   27.5980   48.3470 O   0  0  0  0  0  0  0  0  0  0  0  0
   58.5440   29.3880   48.5480 O   0  0  0  0  0  0  0  0  0  0  0  0
   60.1820   32.2160   48.6410 C   0  0  0  0  0  0  0  0  0  0  0  0
   59.7070   33.3730   48.0220 C   0  0  0  0  0  0  0  0  0  0  0  0
   58.5890   31.4360   45.3950 C   0  0  0  0  0  0  0  0  0  0  0  0
   58.5920   30.0580   45.6360 C   0  0  0  0  0  0  0  0  0  0  0  0
   55.8290   25.6980   46.3450 C   0  0  0  0  0  0  0  0  0  0  0  0
   55.1760   26.7230   45.9950 O   0  0  0  0  0  0  0  0  0  0  0  0
   55.1750   24.4740   46.4550 O   0  0  0  0  0  0  0  0  0  0  0  0
   55.6252   21.9148   43.4587 H   0  0  0  0  0  0  0  0  0  0  0  0
   56.5109   23.0595   42.3949 H   0  0  0  0  0  0  0  0  0  0  0  0
   56.9428   21.3159   42.3949 H   0  0  0  0  0  0  0  0  0  0  0  0
   57.5587   24.7918   43.7643 H   0  0  0  0  0  0  0  0  0  0  0  0
   56.2822   24.2198   44.9275 H   0  0  0  0  0  0  0  0  0  0  0  0
   58.4628   23.9920   46.5014 H   0  0  0  0  0  0  0  0  0  0  0  0
   58.9736   25.3708   45.4219 H   0  0  0  0  0  0  0  0  0  0  0  0
   57.4221   25.5345   47.7385 H   0  0  0  0  0  0  0  0  0  0  0  0
   58.0280   27.7340   47.2790 H   0  0  0  0  0  0  0  0  0  0  0  0
   56.4021   29.0746   43.2000 H   0  0  0  0  0  0  0  0  0  0  0  0
   56.3538   31.5353   42.8177 H   0  0  0  0  0  0  0  0  0  0  0  0
   58.5554   33.6995   43.3817 H   0  0  0  0  0  0  0  0  0  0  0  0
   56.7729   33.7311   43.7906 H   0  0  0  0  0  0  0  0  0  0  0  0
   57.1879   34.9389   45.5903 H   0  0  0  0  0  0  0  0  0  0  0  0
   58.2692   33.6004   46.2092 H   0  0  0  0  0  0  0  0  0  0  0  0
   59.9520   34.8363   44.4670 H   0  0  0  0  0  0  0  0  0  0  0  0
   58.9769   36.2377   45.0219 H   0  0  0  0  0  0  0  0  0  0  0  0
   62.4020   34.0863   46.0452 H   0  0  0  0  0  0  0  0  0  0  0  0
   63.1994   31.9478   47.0523 H   0  0  0  0  0  0  0  0  0  0  0  0
   62.4360   30.0562   53.2768 H   0  0  0  0  0  0  0  0  0  0  0  0
   60.5286   28.4615   53.4976 H   0  0  0  0  0  0  0  0  0  0  0  0
   59.2200   27.8186   51.4663 H   0  0  0  0  0  0  0  0  0  0  0  0
   59.5806   31.7217   49.4182 H   0  0  0  0  0  0  0  0  0  0  0  0
   58.7033   33.7510   48.2661 H   0  0  0  0  0  0  0  0  0  0  0  0
   59.2169   32.0987   46.0086 H   0  0  0  0  0  0  0  0  0  0  0  0
   59.2172   29.6495   46.4437 H   0  0  0  0  0  0  0  0  0  0  0  0
  1  2  1  0
  2  3  1  0
  3  4  1  0
  4  5  1  0
  5  6  1  0
  6  7  1  0
  7  8  2  0
  7  9  1  0
  9 10  2  0
 10 11  1  0
 11 12  2  0
 12 13  1  0
 13 14  1  0
 14 15  1  0
 15 16  1  0
 16 17  1  0
 17 18  2  0
 18 19  1  0
 19 20  2  0
 20 21  1  0
 21 22  1  0
 22 23  2  0
 23 24  1  0
 24 25  2  0
 25 26  1  0
 26 27  2  0
 27 28  1  0
 28 29  2  0
 28 30  1  0
 20 31  1  0
 31 32  2  0
 12 33  1  0
 33 34  2  0
  5 35  1  0
 35 36  2  0
 35 37  1  0
 34  9  1  0
 32 17  1  0
 27 22  1  0
  1 38  1  0
  1 39  1  0
  1 40  1  0
  3 41  1  0
  3 42  1  0
  4 43  1  0
  4 44  1  0
  5 45  1  1
  6 46  1  0
 10 47  1  0
 11 48  1  0
 13 49  1  0
 13 50  1  0
 14 51  1  0
 14 52  1  0
 15 53  1  0
 15 54  1  0
 18 55  1  0
 19 56  1  0
 24 57  1  0
 25 58  1  0
 26 59  1  0
 31 60  1  0
 32 61  1  0
 33 62  1  0
 34 63  1  0
M  CHG  3  28   1  30  -1  37  -1
M  END
>  <UniqueID>  (52) 
49

>  <SMILES>  (52) 
CSCC[C@@H](NC(=O)c1ccc(CCCOc2ccc(Oc3ncccc3[N+](=O)[O-])cc2)cc1)C(=O)[O-]

>  <Energy>  (52) 
67.42219260135946

>  <Genealogy>  (52) 
CSCCC(NC(=O)c1ccc(CCCOc2ccc(Oc3ncccc3[N+](=O)[O-])cc2)cc1)C(=O)[O-] (protonated)
CSCC[C@@H](NC(=O)c1ccc(CCCOc2ccc(Oc3ncccc3[N+](=O)[O-])cc2)cc1)C(=O)[O-] (chirality)
CSCC[C@@H](NC(=O)c1ccc(CCCOc2ccc(Oc3ncccc3[N+](=O)[O-])cc2)cc1)C(=O)[O-] (3D coordinates assigned)
CSCC[C@@H](NC(=O)c1ccc(CCCOc2ccc(Oc3ncccc3[N+](=O)[O-])cc2)cc1)C(=O)[O-] (optimized conformer: 67.42219260135946 kcal/mol)

>  <smiles>  (52) 
CSCCC(NC(=O)c1ccc(CCCOc2ccc(Oc3ncccc3[N+](=O)[O-])cc2)cc1)C(=O)O

>  <score_type>  (52) 
oracle

>  <origin>  (52) 
adg

>  <m_score__min__energy>  (52) 
-12.25

>  <m_primary>  (52) 
energy

$$$$
52:0
     RDKit          3D

 62 64  0  0  0  0  0  0  0  0999 V2000
   64.1200   31.9720   49.9610 C   0  0  0  0  0  0  0  0  0  0  0  0
   62.6970   31.7370   49.4570 C   0  0  0  0  0  0  0  0  0  0  0  0
   62.3490   32.6130   48.3110 N   0  0  0  0  0  0  0  0  0  0  0  0
   63.4960   32.7980   47.3820 C   0  0  0  0  0  0  0  0  0  0  0  0
   63.1720   33.8600   46.3320 C   0  0  0  0  0  0  0  0  0  0  0  0
   61.8680   33.9180   48.8280 C   0  0  0  0  0  0  0  0  0  0  0  0
   60.3410   33.9390   49.0570 C   0  0  0  0  0  0  0  0  0  0  0  0
   59.6000   33.1090   48.0820 N   0  0  0  0  0  0  0  0  0  0  0  0
   59.2610   33.6000   46.8440 C   0  0  0  0  0  0  0  0  0  0  0  0
   58.5720   32.8410   45.9360 C   0  0  0  0  0  0  0  0  0  0  0  0
   58.1890   31.5480   46.2710 C   0  0  0  0  0  0  0  0  0  0  0  0
   57.2610   30.5080   45.1380 S   0  0  0  0  0  0  0  0  0  0  0  0
   58.7080   29.5430   44.5650 C   0  0  0  0  0  0  0  0  0  0  0  0
   58.6460   28.1280   45.0570 C   0  0  0  0  0  0  0  0  0  0  0  0
   59.6340   27.3650   44.8710 O   0  0  0  0  0  0  0  0  0  0  0  0
   57.4460   27.6260   45.6650 N   0  0  0  0  0  0  0  0  0  0  0  0
   57.1260   26.2280   45.6330 C   0  0  0  0  0  0  0  0  0  0  0  0
   58.1520   25.2990   45.4130 C   0  0  0  0  0  0  0  0  0  0  0  0
   57.8860   23.9230   45.4520 C   0  0  0  0  0  0  0  0  0  0  0  0
   58.9980   22.9390   45.2300 C   0  0  0  0  0  0  0  0  0  0  0  0
   56.5730   23.4790   45.6530 C   0  0  0  0  0  0  0  0  0  0  0  0
   55.5290   24.4000   45.8420 C   0  0  0  0  0  0  0  0  0  0  0  0
   54.1240   23.9150   46.0640 C   0  0  0  0  0  0  0  0  0  0  0  0
   55.8090   25.7790   45.8300 C   0  0  0  0  0  0  0  0  0  0  0  0
   54.7790   26.7030   45.9960 O   0  0  0  0  0  0  0  0  0  0  0  0
   58.5020   31.0800   47.5060 N   0  0  0  0  0  0  0  0  0  0  0  0
   59.1790   31.8400   48.4120 C   0  0  0  0  0  0  0  0  0  0  0  0
   59.3920   31.3650   49.5590 O   0  0  0  0  0  0  0  0  0  0  0  0
   58.3110   33.5640   44.6690 C   0  0  0  0  0  0  0  0  0  0  0  0
   58.9450   34.9470   44.8900 C   0  0  0  0  0  0  0  0  0  0  0  0
   59.5300   34.9650   46.3130 C   0  0  0  0  0  0  0  0  0  0  0  0
   64.1240   31.9727   51.0610 H   0  0  0  0  0  0  0  0  0  0  0  0
   64.7766   31.1701   49.5924 H   0  0  0  0  0  0  0  0  0  0  0  0
   64.4840   32.9424   49.5924 H   0  0  0  0  0  0  0  0  0  0  0  0
   62.6035   30.6877   49.1403 H   0  0  0  0  0  0  0  0  0  0  0  0
   62.0071   31.9734   50.2805 H   0  0  0  0  0  0  0  0  0  0  0  0
   64.3789   33.1151   47.9564 H   0  0  0  0  0  0  0  0  0  0  0  0
   63.6963   31.8444   46.8717 H   0  0  0  0  0  0  0  0  0  0  0  0
   62.8863   34.7964   46.8336 H   0  0  0  0  0  0  0  0  0  0  0  0
   64.0573   34.0361   45.7033 H   0  0  0  0  0  0  0  0  0  0  0  0
   62.3392   33.5120   45.7033 H   0  0  0  0  0  0  0  0  0  0  0  0
   62.3706   34.1251   49.7843 H   0  0  0  0  0  0  0  0  0  0  0  0
   62.1024   34.6827   48.0728 H   0  0  0  0  0  0  0  0  0  0  0  0
   60.1329   33.5613   50.0689 H   0  0  0  0  0  0  0  0  0  0  0  0
   60.0029   34.9780   48.9296 H   0  0  0  0  0  0  0  0  0  0  0  0
   58.7244   29.5399   43.4651 H   0  0  0  0  0  0  0  0  0  0  0  0
   59.6193   30.0112   44.9654 H   0  0  0  0  0  0  0  0  0  0  0  0
   56.6570   28.2940   45.8090 H   0  0  0  0  0  0  0  0  0  0  0  0
   59.1735   25.6520   45.2082 H   0  0  0  0  0  0  0  0  0  0  0  0
   59.3844   22.5971   46.2015 H   0  0  0  0  0  0  0  0  0  0  0  0
   58.6170   22.0769   44.6629 H   0  0  0  0  0  0  0  0  0  0  0  0
   59.8073   23.4221   44.6629 H   0  0  0  0  0  0  0  0  0  0  0  0
   56.3574   22.4004   45.6630 H   0  0  0  0  0  0  0  0  0  0  0  0
   53.9260   23.8467   47.1439 H   0  0  0  0  0  0  0  0  0  0  0  0
   53.4157   24.6207   45.6053 H   0  0  0  0  0  0  0  0  0  0  0  0
   54.0019   22.9227   45.6053 H   0  0  0  0  0  0  0  0  0  0  0  0
   58.7843   33.0484   43.8204 H   0  0  0  0  0  0  0  0  0  0  0  0
   57.2390   33.6240   44.4299 H   0  0  0  0  0  0  0  0  0  0  0  0
   59.7441   35.1160   44.1532 H   0  0  0  0  0  0  0  0  0  0  0  0
   58.1938   35.7415   44.7696 H   0  0  0  0  0  0  0  0  0  0  0  0
   60.6112   35.1658   46.2864 H   0  0  0  0  0  0  0  0  0  0  0  0
   59.0844   35.7525   46.9385 H   0  0  0  0  0  0  0  0  0  0  0  0
  1  2  1  0
  2  3  1  0
  3  4  1  0
  4  5  1  0
  3  6  1  0
  6  7  1  0
  7  8  1  0
  8  9  1  0
  9 10  2  0
 10 11  1  0
 11 12  1  0
 12 13  1  0
 13 14  1  0
 14 15  2  0
 14 16  1  0
 16 17  1  0
 17 18  2  0
 18 19  1  0
 19 20  1  0
 19 21  2  0
 21 22  1  0
 22 23  1  0
 22 24  2  0
 24 25  1  0
 11 26  2  0
 26 27  1  0
 27 28  2  0
 10 29  1  0
 29 30  1  0
 30 31  1  0
 27  8  1  0
 31  9  1  0
 24 17  1  0
  1 32  1  0
  1 33  1  0
  1 34  1  0
  2 35  1  0
  2 36  1  0
  4 37  1  0
  4 38  1  0
  5 39  1  0
  5 40  1  0
  5 41  1  0
  6 42  1  0
  6 43  1  0
  7 44  1  0
  7 45  1  0
 13 46  1  0
 13 47  1  0
 16 48  1  0
 18 49  1  0
 20 50  1  0
 20 51  1  0
 20 52  1  0
 21 53  1  0
 23 54  1  0
 23 55  1  0
 23 56  1  0
 29 57  1  0
 29 58  1  0
 30 59  1  0
 30 60  1  0
 31 61  1  0
 31 62  1  0
M  CHG  1  25  -1
M  END
>  <UniqueID>  (53) 
50

>  <SMILES>  (53) 
CCN(CC)CCn1c2c(c(SCC(=O)Nc3cc(C)cc(C)c3[O-])nc1=O)CCC2

>  <Energy>  (53) 
72.86214217777551

>  <Genealogy>  (53) 
CCN(CC)CCn1c2c(c(SCC(=O)Nc3cc(C)cc(C)c3[O-])nc1=O)CCC2 (protonated)
CCN(CC)CCn1c2c(c(SCC(=O)Nc3cc(C)cc(C)c3[O-])nc1=O)CCC2 (3D coordinates assigned)
CCN(CC)CCn1c2c(c(SCC(=O)Nc3cc(C)cc(C)c3[O-])nc1=O)CCC2 (nonaromatic ring conformer: 72.86214217777551 kcal/mol)

>  <smiles>  (53) 
CCN(CC)CCn1c2c(c(SCC(=O)Nc3cc(C)cc(C)c3O)nc1=O)CCC2

>  <score_type>  (53) 
oracle

>  <origin>  (53) 
adg

>  <m_score__min__energy>  (53) 
-13.109999999999999

>  <m_primary>  (53) 
energy

$$$$
53:0
     RDKit          3D

 41 43  0  0  0  0  0  0  0  0999 V2000
   60.7890   22.5180   44.3910 H   0  0  0  0  0  0  0  0  0  0  0  0
   60.3610   22.4210   45.3410 N   0  0  0  0  0  0  0  0  0  0  0  0
   59.2140   22.9520   45.6290 C   0  0  0  0  0  0  0  0  0  0  0  0
   59.0470   24.2960   45.5550 N   0  0  0  0  0  0  0  0  0  0  0  0
   57.8480   24.8860   45.8360 C   0  0  0  0  0  0  0  0  0  0  0  0
   57.7240   26.3660   45.7300 C   0  0  0  0  0  0  0  0  0  0  0  0
   56.4830   26.9890   45.5100 C   0  0  0  0  0  0  0  0  0  0  0  0
   55.5719   26.3772   45.4355 H   0  0  0  0  0  0  0  0  0  0  0  0
   56.3960   28.3790   45.3850 C   0  0  0  0  0  0  0  0  0  0  0  0
   55.1530   28.9720   45.1880 O   0  0  0  0  0  0  0  0  0  0  0  0
   57.5430   29.1750   45.4580 C   0  0  0  0  0  0  0  0  0  0  0  0
   57.3960   30.5570   45.3250 O   0  0  0  0  0  0  0  0  0  0  0  0
   56.4930   31.0220   45.3650 H   0  0  0  0  0  0  0  0  0  0  0  0
   58.7980   28.5660   45.6850 C   0  0  0  0  0  0  0  0  0  0  0  0
   60.0430   29.3560   45.8130 C   0  0  0  0  0  0  0  0  0  0  0  0
   60.9090   29.2910   44.9060 O   0  0  0  0  0  0  0  0  0  0  0  0
   60.3780   30.0450   47.0300 N   0  0  0  0  0  0  0  0  0  0  0  0
   60.5990   31.3190   47.2170 C   0  0  0  0  0  0  0  0  0  0  0  0
   61.7130   31.6910   47.9760 C   0  0  0  0  0  0  0  0  0  0  0  0
   62.3836   30.9200   48.3832 H   0  0  0  0  0  0  0  0  0  0  0  0
   61.9740   33.0420   48.2170 C   0  0  0  0  0  0  0  0  0  0  0  0
   62.8461   33.3335   48.8207 H   0  0  0  0  0  0  0  0  0  0  0  0
   61.1540   33.9950   47.7080 N   0  0  0  0  0  0  0  0  0  0  0  0
   60.0740   33.6720   46.9450 C   0  0  0  0  0  0  0  0  0  0  0  0
   59.2400   34.6690   46.4330 O   0  0  0  0  0  0  0  0  0  0  0  0
   58.6140   34.5670   45.1560 C   0  0  0  0  0  0  0  0  0  0  0  0
   59.2430   33.9605   44.4877 H   0  0  0  0  0  0  0  0  0  0  0  0
   58.4871   35.5736   44.7309 H   0  0  0  0  0  0  0  0  0  0  0  0
   57.2570   33.9100   45.3040 C   0  0  0  0  0  0  0  0  0  0  0  0
   57.0198   33.7951   46.3720 H   0  0  0  0  0  0  0  0  0  0  0  0
   56.4916   34.5373   44.8238 H   0  0  0  0  0  0  0  0  0  0  0  0
   57.2743   32.9205   44.8238 H   0  0  0  0  0  0  0  0  0  0  0  0
   59.7850   32.3310   46.6730 C   0  0  0  0  0  0  0  0  0  0  0  0
   58.9264   32.0682   46.0375 H   0  0  0  0  0  0  0  0  0  0  0  0
   58.8720   27.1690   45.8220 C   0  0  0  0  0  0  0  0  0  0  0  0
   59.8481   26.6958   46.0048 H   0  0  0  0  0  0  0  0  0  0  0  0
   56.7700   24.0740   46.2270 C   0  0  0  0  0  0  0  0  0  0  0  0
   55.7941   24.5179   46.4730 H   0  0  0  0  0  0  0  0  0  0  0  0
   56.9610   22.6970   46.2970 C   0  0  0  0  0  0  0  0  0  0  0  0
   56.1299   22.0413   46.5957 H   0  0  0  0  0  0  0  0  0  0  0  0
   58.1720   22.1630   45.9970 N   0  0  0  0  0  0  0  0  0  0  0  0
  1  2  1  0
  2  3  2  3
  3  4  1  0
  4  5  2  0
  5  6  1  0
  6  7  2  0
  7  8  1  0
  7  9  1  0
  9 10  1  0
  9 11  2  0
 11 12  1  0
 12 13  1  0
 11 14  1  0
 14 15  1  0
 15 16  2  0
 15 17  1  0
 17 18  2  0
 18 19  1  0
 19 20  1  0
 19 21  2  0
 21 22  1  0
 21 23  1  0
 23 24  1  0
 24 25  1  0
 25 26  1  0
 26 27  1  0
 26 28  1  0
 26 29  1  0
 29 30  1  0
 29 31  1  0
 29 32  1  0
 24 33  2  0
 33 34  1  0
 14 35  2  0
 35 36  1  0
  5 37  1  0
 37 38  1  0
 37 39  2  0
 39 40  1  0
 39 41  1  0
 41  3  1  0
 35  6  1  0
 33 18  1  0
M  CHG  3  10  -1  23  -1  41  -1
M  END
>  <UniqueID>  (54) 
51

>  <SMILES>  (54) 
CCOc1c/c(=N\C(=O)c2cc(-c3cc[n-]c(=N)n3)cc([O-])c2O)cc[n-]1

>  <Energy>  (54) 
58.76248730387955

>  <Genealogy>  (54) 
CCOc1cc(=NC(=O)c2cc(-c3cc[n-]c(=N)n3)cc([O-])c2O)cc[n-]1 (protonated)
CCOc1c/c(=N\C(=O)c2cc(-c3cc[n-]c(=N)n3)cc([O-])c2O)cc[n-]1 (cis-trans isomerization)
CCOc1c/c(=N\C(=O)c2cc(-c3cc[n-]c(=N)n3)cc([O-])c2O)cc[n-]1 (3D coordinates assigned)
CCOc1c/c(=N\C(=O)c2cc(-c3cc[n-]c(=N)n3)cc([O-])c2O)cc[n-]1 (optimized conformer: 58.76248730387955 kcal/mol)

>  <smiles>  (54) 
CCOc1cc(=NC(=O)c2cc(-c3cc[nH]c(=N)n3)cc(O)c2O)cc[nH]1

>  <score_type>  (54) 
oracle

>  <origin>  (54) 
adg

>  <m_score__min__energy>  (54) 
-11.970000000000001

>  <m_primary>  (54) 
energy

$$$$
54:0
     RDKit          3D

 73 76  0  0  0  0  0  0  0  0999 V2000
   59.0790   32.6590   49.7560 C   0  0  0  0  0  0  0  0  0  0  0  0
   60.5070   33.1260   50.0270 C   0  0  0  0  0  0  0  0  0  0  0  0
   61.4050   32.7760   48.9160 N   0  0  0  0  0  0  0  0  0  0  0  0
   61.9670   33.8460   48.0730 C   0  0  0  0  0  0  0  0  0  0  0  0
   63.0510   33.3060   47.1280 C   0  0  0  0  0  0  0  0  0  0  0  0
   64.1990   32.9570   47.8530 O   0  0  0  0  0  0  0  0  0  0  0  0
   61.6610   31.3970   48.6010 C   0  0  0  0  0  0  0  0  0  0  0  0
   62.7360   30.8510   48.9690 O   0  0  0  0  0  0  0  0  0  0  0  0
   60.7280   30.6310   47.7670 C   0  0  0  0  0  0  0  0  0  0  0  0
   60.3810   31.0790   46.4700 C   0  0  0  0  0  0  0  0  0  0  0  0
   59.4670   30.3510   45.6850 C   0  0  0  0  0  0  0  0  0  0  0  0
   58.9110   29.1960   46.2390 C   0  0  0  0  0  0  0  0  0  0  0  0
   59.2340   28.7780   47.4960 C   0  0  0  0  0  0  0  0  0  0  0  0
   60.1470   29.4590   48.2900 C   0  0  0  0  0  0  0  0  0  0  0  0
   58.5330   27.6800   47.8260 N   0  0  0  0  0  0  0  0  0  0  0  0
   57.7750   27.4560   46.7210 C   0  0  0  0  0  0  0  0  0  0  0  0
   56.7940   26.3190   46.6450 C   0  0  0  0  0  0  0  0  0  0  0  0
   57.2940   25.0860   45.9200 C   0  0  0  0  0  0  0  0  0  0  0  0
   56.4730   24.3190   45.0640 C   0  0  0  0  0  0  0  0  0  0  0  0
   56.9810   23.2100   44.3770 C   0  0  0  0  0  0  0  0  0  0  0  0
   56.1130   22.4870   43.5460 O   0  0  0  0  0  0  0  0  0  0  0  0
   56.5290   21.4870   42.6220 C   0  0  0  0  0  0  0  0  0  0  0  0
   58.3340   22.8640   44.5350 C   0  0  0  0  0  0  0  0  0  0  0  0
   59.1580   23.6150   45.3730 C   0  0  0  0  0  0  0  0  0  0  0  0
   58.6510   24.7270   46.0710 C   0  0  0  0  0  0  0  0  0  0  0  0
   59.4670   25.5010   46.9150 O   0  0  0  0  0  0  0  0  0  0  0  0
   60.7190   26.0670   46.5390 C   0  0  0  0  0  0  0  0  0  0  0  0
   57.9990   28.3530   45.7210 N   0  0  0  0  0  0  0  0  0  0  0  0
   57.3760   28.4030   44.3970 C   0  0  0  0  0  0  0  0  0  0  0  0
   56.9050   29.7900   44.0920 C   0  0  0  0  0  0  0  0  0  0  0  0
   55.7760   30.1690   44.5050 O   0  0  0  0  0  0  0  0  0  0  0  0
   57.7360   30.6880   43.3420 N   0  0  0  0  0  0  0  0  0  0  0  0
   57.3920   32.0930   43.1360 C   0  0  0  0  0  0  0  0  0  0  0  0
   57.8020   32.9120   44.3310 C   0  0  0  0  0  0  0  0  0  0  0  0
   58.8880   33.7960   44.2330 C   0  0  0  0  0  0  0  0  0  0  0  0
   59.2930   34.5400   45.3480 C   0  0  0  0  0  0  0  0  0  0  0  0
   58.6110   34.4110   46.5610 C   0  0  0  0  0  0  0  0  0  0  0  0
   58.9970   35.1400   47.6370 F   0  0  0  0  0  0  0  0  0  0  0  0
   57.5290   33.5340   46.6640 C   0  0  0  0  0  0  0  0  0  0  0  0
   57.1270   32.7820   45.5570 C   0  0  0  0  0  0  0  0  0  0  0  0
   58.5611   32.4896   50.7115 H   0  0  0  0  0  0  0  0  0  0  0  0
   58.5443   33.4291   49.1806 H   0  0  0  0  0  0  0  0  0  0  0  0
   59.1027   31.7218   49.1806 H   0  0  0  0  0  0  0  0  0  0  0  0
   60.5078   34.2182   50.1576 H   0  0  0  0  0  0  0  0  0  0  0  0
   60.8690   32.6243   50.9365 H   0  0  0  0  0  0  0  0  0  0  0  0
   61.1590   34.2905   47.4734 H   0  0  0  0  0  0  0  0  0  0  0  0
   62.4257   34.5991   48.7306 H   0  0  0  0  0  0  0  0  0  0  0  0
   62.6673   32.4170   46.6061 H   0  0  0  0  0  0  0  0  0  0  0  0
   63.3120   34.0876   46.3993 H   0  0  0  0  0  0  0  0  0  0  0  0
   64.2440   31.9630   47.8570 H   0  0  0  0  0  0  0  0  0  0  0  0
   60.8285   32.0021   46.0728 H   0  0  0  0  0  0  0  0  0  0  0  0
   59.1999   30.6806   44.6701 H   0  0  0  0  0  0  0  0  0  0  0  0
   60.4082   29.0952   49.2947 H   0  0  0  0  0  0  0  0  0  0  0  0
   56.5306   26.0269   47.6723 H   0  0  0  0  0  0  0  0  0  0  0  0
   55.9384   26.6911   46.0623 H   0  0  0  0  0  0  0  0  0  0  0  0
   55.4167   24.5977   44.9350 H   0  0  0  0  0  0  0  0  0  0  0  0
   56.8947   20.6080   43.1730 H   0  0  0  0  0  0  0  0  0  0  0  0
   55.6776   21.1952   41.9895 H   0  0  0  0  0  0  0  0  0  0  0  0
   57.3361   21.8852   41.9895 H   0  0  0  0  0  0  0  0  0  0  0  0
   58.7446   21.9976   43.9957 H   0  0  0  0  0  0  0  0  0  0  0  0
   60.2154   23.3352   45.4896 H   0  0  0  0  0  0  0  0  0  0  0  0
   61.2907   26.3254   47.4425 H   0  0  0  0  0  0  0  0  0  0  0  0
   61.2865   25.3379   45.9421 H   0  0  0  0  0  0  0  0  0  0  0  0
   60.5466   26.9747   45.9421 H   0  0  0  0  0  0  0  0  0  0  0  0
   58.1114   28.0955   43.6390 H   0  0  0  0  0  0  0  0  0  0  0  0
   56.5116   27.7228   44.3844 H   0  0  0  0  0  0  0  0  0  0  0  0
   58.6410   30.3420   42.9490 H   0  0  0  0  0  0  0  0  0  0  0  0
   57.9142   32.4673   42.2431 H   0  0  0  0  0  0  0  0  0  0  0  0
   56.3038   32.1787   42.9998 H   0  0  0  0  0  0  0  0  0  0  0  0
   59.4224   33.9046   43.2777 H   0  0  0  0  0  0  0  0  0  0  0  0
   60.1487   35.2266   45.2691 H   0  0  0  0  0  0  0  0  0  0  0  0
   56.9919   33.4350   47.6189 H   0  0  0  0  0  0  0  0  0  0  0  0
   56.2797   32.0861   45.6453 H   0  0  0  0  0  0  0  0  0  0  0  0
  1  2  1  0
  2  3  1  0
  3  4  1  0
  4  5  1  0
  5  6  1  0
  3  7  1  0
  7  8  2  0
  7  9  1  0
  9 10  2  0
 10 11  1  0
 11 12  2  0
 12 13  1  0
 13 14  2  0
 13 15  1  0
 15 16  2  0
 16 17  1  0
 17 18  1  0
 18 19  2  0
 19 20  1  0
 20 21  1  0
 21 22  1  0
 20 23  2  0
 23 24  1  0
 24 25  2  0
 25 26  1  0
 26 27  1  0
 16 28  1  0
 28 29  1  0
 29 30  1  0
 30 31  2  0
 30 32  1  0
 32 33  1  0
 33 34  1  0
 34 35  2  0
 35 36  1  0
 36 37  2  0
 37 38  1  0
 37 39  1  0
 39 40  2  0
 14  9  1  0
 25 18  1  0
 40 34  1  0
 28 12  1  0
  1 41  1  0
  1 42  1  0
  1 43  1  0
  2 44  1  0
  2 45  1  0
  4 46  1  0
  4 47  1  0
  5 48  1  0
  5 49  1  0
  6 50  1  0
 10 51  1  0
 11 52  1  0
 14 53  1  0
 17 54  1  0
 17 55  1  0
 19 56  1  0
 22 57  1  0
 22 58  1  0
 22 59  1  0
 23 60  1  0
 24 61  1  0
 27 62  1  0
 27 63  1  0
 27 64  1  0
 29 65  1  0
 29 66  1  0
 32 67  1  0
 33 68  1  0
 33 69  1  0
 35 70  1  0
 36 71  1  0
 39 72  1  0
 40 73  1  0
M  END
>  <UniqueID>  (55) 
52

>  <SMILES>  (55) 
CCN(CCO)C(=O)c1ccc2c(c1)nc(Cc1cc(OC)ccc1OC)n2CC(=O)NCc1ccc(F)cc1

>  <Energy>  (55) 
113.87658088926231

>  <Genealogy>  (55) 
CCN(CCO)C(=O)c1ccc2c(c1)nc(Cc1cc(OC)ccc1OC)n2CC(=O)NCc1ccc(F)cc1 (3D coordinates assigned)
CCN(CCO)C(=O)c1ccc2c(c1)nc(Cc1cc(OC)ccc1OC)n2CC(=O)NCc1ccc(F)cc1 (optimized conformer: 113.87658088926231 kcal/mol)

>  <smiles>  (55) 
CCN(CCO)C(=O)c1ccc2c(c1)nc(Cc1cc(OC)ccc1OC)n2CC(=O)NCc1ccc(F)cc1

>  <score_type>  (55) 
oracle

>  <origin>  (55) 
adg

>  <m_score__min__energy>  (55) 
-9.1099999999999994

>  <m_primary>  (55) 
energy

$$$$
55:0
     RDKit          3D

 36 37  0  0  0  0  0  0  0  0999 V2000
   57.9010   31.9702   43.0961 H   0  0  0  0  0  0  0  0  0  0  0  0
   57.5330   32.1440   44.1180 C   0  0  0  0  0  0  0  0  0  0  0  0
   57.0250   30.9730   44.8680 C   0  0  0  0  0  0  0  0  0  0  0  0
   55.9850   30.3740   44.4830 O   0  0  0  0  0  0  0  0  0  0  0  0
   57.7660   30.4300   45.9700 N   0  0  0  0  0  0  0  0  0  0  0  0
   58.3430   29.1170   46.0230 C   0  0  0  0  0  0  0  0  0  0  0  0
   59.6870   28.9550   45.6700 C   0  0  0  0  0  0  0  0  0  0  0  0
   60.2864   29.8315   45.3829 H   0  0  0  0  0  0  0  0  0  0  0  0
   60.2720   27.6870   45.6800 C   0  0  0  0  0  0  0  0  0  0  0  0
   61.3315   27.5685   45.4089 H   0  0  0  0  0  0  0  0  0  0  0  0
   59.5130   26.5690   46.0340 C   0  0  0  0  0  0  0  0  0  0  0  0
   59.9775   25.5719   46.0347 H   0  0  0  0  0  0  0  0  0  0  0  0
   58.1650   26.7080   46.3880 C   0  0  0  0  0  0  0  0  0  0  0  0
   57.4280   25.5360   46.7610 N   0  0  0  0  0  0  0  0  0  0  0  0
   55.8870   25.0590   46.1180 S   0  0  0  0  0  0  0  0  0  0  0  0
   55.2220   24.0830   47.0470 O   0  0  0  0  0  0  0  0  0  0  0  0
   55.0200   26.2800   45.9980 O   0  0  0  0  0  0  0  0  0  0  0  0
   56.0900   24.3470   44.4980 C   0  0  0  0  0  0  0  0  0  0  0  0
   56.3904   23.2933   44.5956 H   0  0  0  0  0  0  0  0  0  0  0  0
   55.1388   24.4077   43.9490 H   0  0  0  0  0  0  0  0  0  0  0  0
   56.8662   24.9002   43.9490 H   0  0  0  0  0  0  0  0  0  0  0  0
   57.5780   27.9870   46.3670 C   0  0  0  0  0  0  0  0  0  0  0  0
   56.5142   28.1041   46.6212 H   0  0  0  0  0  0  0  0  0  0  0  0
   57.5800   33.4000   44.5860 C   0  0  0  0  0  0  0  0  0  0  0  0
   57.0108   34.1678   44.0414 H   0  0  0  0  0  0  0  0  0  0  0  0
   58.3390   33.8290   45.7780 C   0  0  0  0  0  0  0  0  0  0  0  0
   58.2210   33.1310   46.9940 C   0  0  0  0  0  0  0  0  0  0  0  0
   57.5312   32.2777   47.0725 H   0  0  0  0  0  0  0  0  0  0  0  0
   58.9790   33.5200   48.1030 C   0  0  0  0  0  0  0  0  0  0  0  0
   58.8766   32.9782   49.0548 H   0  0  0  0  0  0  0  0  0  0  0  0
   59.8660   34.5950   48.0050 C   0  0  0  0  0  0  0  0  0  0  0  0
   60.4589   34.9002   48.8798 H   0  0  0  0  0  0  0  0  0  0  0  0
   60.0000   35.2820   46.7970 C   0  0  0  0  0  0  0  0  0  0  0  0
   60.6986   36.1284   46.7216 H   0  0  0  0  0  0  0  0  0  0  0  0
   59.2470   34.8960   45.6810 C   0  0  0  0  0  0  0  0  0  0  0  0
   59.3790   35.5840   44.5170 F   0  0  0  0  0  0  0  0  0  0  0  0
  1  2  1  0
  2  3  1  0
  3  4  2  0
  3  5  1  0
  5  6  1  0
  6  7  2  0
  7  8  1  0
  7  9  1  0
  9 10  1  0
  9 11  2  0
 11 12  1  0
 11 13  1  0
 13 14  1  0
 14 15  1  0
 15 16  2  0
 15 17  2  0
 15 18  1  0
 18 19  1  0
 18 20  1  0
 18 21  1  0
 13 22  2  0
 22 23  1  0
  2 24  2  0
 24 25  1  0
 24 26  1  0
 26 27  2  0
 27 28  1  0
 27 29  1  0
 29 30  1  0
 29 31  2  0
 31 32  1  0
 31 33  1  0
 33 34  1  0
 33 35  2  0
 35 36  1  0
 22  6  1  0
 35 26  1  0
M  CHG  2   5  -1  14  -1
M  END
>  <UniqueID>  (56) 
53

>  <SMILES>  (56) 
CS(=O)(=O)[N-]c1cccc([N-]C(=O)/C=C\c2ccccc2F)c1

>  <Energy>  (56) 
46.18220050555978

>  <Genealogy>  (56) 
CS(=O)(=O)[N-]c1cccc([N-]C(=O)C=Cc2ccccc2F)c1 (protonated)
CS(=O)(=O)[N-]c1cccc([N-]C(=O)/C=C\c2ccccc2F)c1 (cis-trans isomerization)
CS(=O)(=O)[N-]c1cccc([N-]C(=O)/C=C\c2ccccc2F)c1 (3D coordinates assigned)
CS(=O)(=O)[N-]c1cccc([N-]C(=O)/C=C\c2ccccc2F)c1 (optimized conformer: 46.18220050555978 kcal/mol)

>  <smiles>  (56) 
CS(=O)(=O)Nc1cccc(NC(=O)C=Cc2ccccc2F)c1

>  <score_type>  (56) 
oracle

>  <origin>  (56) 
adg

>  <m_score__min__energy>  (56) 
-11.630000000000001

>  <m_primary>  (56) 
energy

$$$$
56:0
     RDKit          3D

 60 63  0  0  0  0  0  0  0  0999 V2000
   59.2790   35.1070   44.9560 C   0  0  0  0  0  0  0  0  0  0  0  0
   59.2530   34.2170   43.8430 O   0  0  0  0  0  0  0  0  0  0  0  0
   58.4300   33.0830   43.7520 C   0  0  0  0  0  0  0  0  0  0  0  0
   58.1130   32.4720   42.5240 C   0  0  0  0  0  0  0  0  0  0  0  0
   57.2680   31.3550   42.4880 C   0  0  0  0  0  0  0  0  0  0  0  0
   56.7330   30.8310   43.6730 C   0  0  0  0  0  0  0  0  0  0  0  0
   55.7150   29.7210   43.6250 C   0  0  0  0  0  0  0  0  0  0  0  0
   55.6120   29.1050   44.9430 N   0  0  0  0  0  0  0  0  0  0  0  0
   56.2580   27.8690   45.2680 C   0  0  0  0  0  0  0  0  0  0  0  0
   55.6450   26.9760   45.9190 O   0  0  0  0  0  0  0  0  0  0  0  0
   57.7010   27.6780   44.9300 C   0  0  0  0  0  0  0  0  0  0  0  0
   58.5290   28.0280   46.1020 N   0  0  0  0  0  0  0  0  0  0  0  0
   58.3850   27.3490   47.2810 C   0  0  0  0  0  0  0  0  0  0  0  0
   57.5910   26.3730   47.3770 O   0  0  0  0  0  0  0  0  0  0  0  0
   59.0930   27.7210   48.3670 N   0  0  0  0  0  0  0  0  0  0  0  0
   59.9450   28.7730   48.3280 C   0  0  0  0  0  0  0  0  0  0  0  0
   60.6770   29.0880   49.5770 C   0  0  0  0  0  0  0  0  0  0  0  0
   61.4280   28.2230   50.0990 O   0  0  0  0  0  0  0  0  0  0  0  0
   60.6510   30.4070   50.1410 N   0  0  0  0  0  0  0  0  0  0  0  0
   59.5240   31.0540   50.7540 C   0  0  0  0  0  0  0  0  0  0  0  0
   59.6640   32.3740   51.2040 C   0  0  0  0  0  0  0  0  0  0  0  0
   58.5930   33.0280   51.8240 C   0  0  0  0  0  0  0  0  0  0  0  0
   57.3800   32.3590   52.0140 C   0  0  0  0  0  0  0  0  0  0  0  0
   57.2410   31.0330   51.5950 C   0  0  0  0  0  0  0  0  0  0  0  0
   58.3070   30.3800   50.9710 C   0  0  0  0  0  0  0  0  0  0  0  0
   60.1120   29.4790   47.1540 N   0  0  0  0  0  0  0  0  0  0  0  0
   61.1100   30.5710   47.0410 C   0  0  0  0  0  0  0  0  0  0  0  0
   60.5120   31.8870   47.4690 C   0  0  0  0  0  0  0  0  0  0  0  0
   61.3230   33.0260   47.6230 C   0  0  0  0  0  0  0  0  0  0  0  0
   60.7550   34.2520   47.9780 C   0  0  0  0  0  0  0  0  0  0  0  0
   59.3780   34.3510   48.1880 C   0  0  0  0  0  0  0  0  0  0  0  0
   58.5630   33.2230   48.0450 C   0  0  0  0  0  0  0  0  0  0  0  0
   59.1260   31.9950   47.6870 C   0  0  0  0  0  0  0  0  0  0  0  0
   59.3960   29.0930   46.0430 C   0  0  0  0  0  0  0  0  0  0  0  0
   59.5380   29.7190   44.9510 O   0  0  0  0  0  0  0  0  0  0  0  0
   57.0540   31.4390   44.8970 C   0  0  0  0  0  0  0  0  0  0  0  0
   57.8990   32.5530   44.9320 C   0  0  0  0  0  0  0  0  0  0  0  0
   59.2620   34.5265   45.8902 H   0  0  0  0  0  0  0  0  0  0  0  0
   60.1953   35.7145   44.9184 H   0  0  0  0  0  0  0  0  0  0  0  0
   58.3998   35.7669   44.9184 H   0  0  0  0  0  0  0  0  0  0  0  0
   58.5305   32.8733   41.5887 H   0  0  0  0  0  0  0  0  0  0  0  0
   57.0228   30.8862   41.5236 H   0  0  0  0  0  0  0  0  0  0  0  0
   54.7370   30.1316   43.3337 H   0  0  0  0  0  0  0  0  0  0  0  0
   56.0271   28.9660   42.8884 H   0  0  0  0  0  0  0  0  0  0  0  0
   57.8780   26.6275   44.6560 H   0  0  0  0  0  0  0  0  0  0  0  0
   57.9694   28.3267   44.0831 H   0  0  0  0  0  0  0  0  0  0  0  0
   60.6211   32.8991   51.0691 H   0  0  0  0  0  0  0  0  0  0  0  0
   58.7056   34.0687   52.1619 H   0  0  0  0  0  0  0  0  0  0  0  0
   56.5355   32.8761   52.4930 H   0  0  0  0  0  0  0  0  0  0  0  0
   56.2910   30.5027   51.7567 H   0  0  0  0  0  0  0  0  0  0  0  0
   58.1950   29.3345   50.6478 H   0  0  0  0  0  0  0  0  0  0  0  0
   61.9720   30.3401   47.6841 H   0  0  0  0  0  0  0  0  0  0  0  0
   61.4275   30.6521   45.9910 H   0  0  0  0  0  0  0  0  0  0  0  0
   62.4088   32.9511   47.4633 H   0  0  0  0  0  0  0  0  0  0  0  0
   61.3933   35.1405   48.0923 H   0  0  0  0  0  0  0  0  0  0  0  0
   58.9333   35.3178   48.4664 H   0  0  0  0  0  0  0  0  0  0  0  0
   57.4790   33.3026   48.2143 H   0  0  0  0  0  0  0  0  0  0  0  0
   58.4832   31.1094   47.5752 H   0  0  0  0  0  0  0  0  0  0  0  0
   56.6389   31.0373   45.8331 H   0  0  0  0  0  0  0  0  0  0  0  0
   58.1484   33.0170   45.8977 H   0  0  0  0  0  0  0  0  0  0  0  0
  1  2  1  0
  2  3  1  0
  3  4  2  0
  4  5  1  0
  5  6  2  0
  6  7  1  0
  7  8  1  0
  8  9  1  0
  9 10  2  0
  9 11  1  0
 11 12  1  0
 12 13  1  0
 13 14  2  0
 13 15  1  0
 15 16  2  0
 16 17  1  0
 17 18  2  0
 17 19  1  0
 19 20  1  0
 20 21  2  0
 21 22  1  0
 22 23  2  0
 23 24  1  0
 24 25  2  0
 16 26  1  0
 26 27  1  0
 27 28  1  0
 28 29  2  0
 29 30  1  0
 30 31  2  0
 31 32  1  0
 32 33  2  0
 26 34  1  0
 34 35  2  0
  6 36  1  0
 36 37  2  0
 37  3  1  0
 34 12  1  0
 25 20  1  0
 33 28  1  0
  1 38  1  0
  1 39  1  0
  1 40  1  0
  4 41  1  0
  5 42  1  0
  7 43  1  0
  7 44  1  0
 11 45  1  0
 11 46  1  0
 21 47  1  0
 22 48  1  0
 23 49  1  0
 24 50  1  0
 25 51  1  0
 27 52  1  0
 27 53  1  0
 29 54  1  0
 30 55  1  0
 31 56  1  0
 32 57  1  0
 33 58  1  0
 36 59  1  0
 37 60  1  0
M  CHG  2   8  -1  19  -1
M  END
>  <UniqueID>  (57) 
54

>  <SMILES>  (57) 
COc1ccc(C[N-]C(=O)Cn2c(=O)nc(C(=O)[N-]c3ccccc3)n(Cc3ccccc3)c2=O)cc1

>  <Energy>  (57) 
72.21140389591962

>  <Genealogy>  (57) 
COc1ccc(C[N-]C(=O)Cn2c(=O)nc(C(=O)[N-]c3ccccc3)n(Cc3ccccc3)c2=O)cc1 (protonated)
COc1ccc(C[N-]C(=O)Cn2c(=O)nc(C(=O)[N-]c3ccccc3)n(Cc3ccccc3)c2=O)cc1 (3D coordinates assigned)
COc1ccc(C[N-]C(=O)Cn2c(=O)nc(C(=O)[N-]c3ccccc3)n(Cc3ccccc3)c2=O)cc1 (optimized conformer: 72.21140389591962 kcal/mol)

>  <smiles>  (57) 
COc1ccc(CNC(=O)Cn2c(=O)nc(C(=O)Nc3ccccc3)n(Cc3ccccc3)c2=O)cc1

>  <score_type>  (57) 
oracle

>  <origin>  (57) 
adg

>  <m_score__min__energy>  (57) 
-11.76

>  <m_primary>  (57) 
energy

$$$$
57:0
     RDKit          3D

 43 45  0  0  0  0  0  0  0  0999 V2000
   55.6760   30.1210   44.5000 O   0  0  0  0  0  0  0  0  0  0  0  0
   56.9060   30.2890   44.2720 C   0  0  0  0  0  0  0  0  0  0  0  0
   57.3370   31.4370   43.3910 C   0  0  0  0  0  0  0  0  0  0  0  0
   57.4190   32.7870   44.1440 C   0  0  0  0  0  0  0  0  0  0  0  0
   58.5410   32.9120   45.1040 N   0  0  0  0  0  0  0  0  0  0  0  0
   59.1740   34.2410   45.1210 C   0  0  0  0  0  0  0  0  0  0  0  0
   60.3890   34.2340   46.0070 C   0  0  0  0  0  0  0  0  0  0  0  0
   60.5110   33.3830   47.0440 C   0  0  0  0  0  0  0  0  0  0  0  0
   61.7120   33.4440   47.9130 C   0  0  0  0  0  0  0  0  0  0  0  0
   61.6330   33.9990   49.2040 C   0  0  0  0  0  0  0  0  0  0  0  0
   62.7650   34.0510   50.0230 C   0  0  0  0  0  0  0  0  0  0  0  0
   63.9860   33.5490   49.5650 C   0  0  0  0  0  0  0  0  0  0  0  0
   64.0770   32.9960   48.2860 C   0  0  0  0  0  0  0  0  0  0  0  0
   62.9490   32.9440   47.4620 C   0  0  0  0  0  0  0  0  0  0  0  0
   59.5100   32.2590   47.2500 C   0  0  0  0  0  0  0  0  0  0  0  0
   58.2100   32.4810   46.4720 C   0  0  0  0  0  0  0  0  0  0  0  0
   57.8840   29.3390   44.8570 C   0  0  0  0  0  0  0  0  0  0  0  0
   57.4250   28.1810   45.5090 C   0  0  0  0  0  0  0  0  0  0  0  0
   58.3320   27.2760   46.0690 C   0  0  0  0  0  0  0  0  0  0  0  0
   59.7050   27.5130   45.9770 C   0  0  0  0  0  0  0  0  0  0  0  0
   60.5840   26.6340   46.5190 F   0  0  0  0  0  0  0  0  0  0  0  0
   60.1730   28.6530   45.3180 C   0  0  0  0  0  0  0  0  0  0  0  0
   59.2700   29.5610   44.7590 C   0  0  0  0  0  0  0  0  0  0  0  0
   58.3300   31.2066   42.9775 H   0  0  0  0  0  0  0  0  0  0  0  0
   56.5768   31.5478   42.6037 H   0  0  0  0  0  0  0  0  0  0  0  0
   57.5215   33.5871   43.3961 H   0  0  0  0  0  0  0  0  0  0  0  0
   56.4987   32.8567   44.7425 H   0  0  0  0  0  0  0  0  0  0  0  0
   59.4735   34.5125   44.0980 H   0  0  0  0  0  0  0  0  0  0  0  0
   58.4527   34.9738   45.5119 H   0  0  0  0  0  0  0  0  0  0  0  0
   61.2027   34.9453   45.8021 H   0  0  0  0  0  0  0  0  0  0  0  0
   60.6744   34.3944   49.5710 H   0  0  0  0  0  0  0  0  0  0  0  0
   62.6943   34.4880   51.0300 H   0  0  0  0  0  0  0  0  0  0  0  0
   64.8750   33.5894   50.2116 H   0  0  0  0  0  0  0  0  0  0  0  0
   65.0383   32.6005   47.9262 H   0  0  0  0  0  0  0  0  0  0  0  0
   63.0280   32.5096   46.4545 H   0  0  0  0  0  0  0  0  0  0  0  0
   59.9651   31.3155   46.9144 H   0  0  0  0  0  0  0  0  0  0  0  0
   59.2577   32.2284   48.3202 H   0  0  0  0  0  0  0  0  0  0  0  0
   57.6369   31.5428   46.4351 H   0  0  0  0  0  0  0  0  0  0  0  0
   57.6048   33.2529   46.9699 H   0  0  0  0  0  0  0  0  0  0  0  0
   56.3448   27.9856   45.5791 H   0  0  0  0  0  0  0  0  0  0  0  0
   57.9633   26.3760   46.5828 H   0  0  0  0  0  0  0  0  0  0  0  0
   61.2548   28.8359   45.2392 H   0  0  0  0  0  0  0  0  0  0  0  0
   59.6450   30.4549   44.2391 H   0  0  0  0  0  0  0  0  0  0  0  0
  1  2  2  0
  2  3  1  0
  3  4  1  0
  4  5  1  0
  5  6  1  0
  6  7  1  0
  7  8  2  0
  8  9  1  0
  9 10  2  0
 10 11  1  0
 11 12  2  0
 12 13  1  0
 13 14  2  0
  8 15  1  0
 15 16  1  0
  2 17  1  0
 17 18  2  0
 18 19  1  0
 19 20  2  0
 20 21  1  0
 20 22  1  0
 22 23  2  0
 16  5  1  0
 23 17  1  0
 14  9  1  0
  3 24  1  0
  3 25  1  0
  4 26  1  0
  4 27  1  0
  6 28  1  0
  6 29  1  0
  7 30  1  0
 10 31  1  0
 11 32  1  0
 12 33  1  0
 13 34  1  0
 14 35  1  0
 15 36  1  0
 15 37  1  0
 16 38  1  0
 16 39  1  0
 18 40  1  0
 19 41  1  0
 22 42  1  0
 23 43  1  0
M  END
>  <UniqueID>  (58) 
55

>  <SMILES>  (58) 
O=C(CCN1CC=C(c2ccccc2)CC1)c1ccc(F)cc1

>  <Energy>  (58) 
58.35051409167487

>  <Genealogy>  (58) 
O=C(CCN1CC=C(c2ccccc2)CC1)c1ccc(F)cc1 (3D coordinates assigned)
O=C(CCN1CC=C(c2ccccc2)CC1)c1ccc(F)cc1 (nonaromatic ring conformer: 58.35051409167487 kcal/mol)

>  <smiles>  (58) 
O=C(CCN1CC=C(c2ccccc2)CC1)c1ccc(F)cc1

>  <score_type>  (58) 
oracle

>  <origin>  (58) 
adg

>  <m_score__min__energy>  (58) 
-8.3399999999999999

>  <m_primary>  (58) 
energy

$$$$
58:0
     RDKit          3D

 47 49  0  0  0  0  0  0  0  0999 V2000
   62.1260   32.9480   46.7490 C   0  0  0  0  0  0  0  0  0  0  0  0
   61.0150   33.0560   47.7580 C   0  0  0  0  0  0  0  0  0  0  0  0
   60.9480   34.1260   48.5640 C   0  0  0  0  0  0  0  0  0  0  0  0
   59.7940   34.3140   49.5080 C   0  0  0  0  0  0  0  0  0  0  0  0
   59.2370   32.9940   49.9880 C   0  0  0  0  0  0  0  0  0  0  0  0
   58.5100   32.9280   51.1860 C   0  0  0  0  0  0  0  0  0  0  0  0
   58.3020   34.0860   51.9340 O   0  0  0  0  0  0  0  0  0  0  0  0
   57.9840   31.7060   51.6310 C   0  0  0  0  0  0  0  0  0  0  0  0
   57.1650   31.6500   52.8950 C   0  0  0  0  0  0  0  0  0  0  0  0
   58.1760   30.5470   50.8580 C   0  0  0  0  0  0  0  0  0  0  0  0
   57.6300   29.3390   51.2870 O   0  0  0  0  0  0  0  0  0  0  0  0
   58.9130   30.5980   49.6560 C   0  0  0  0  0  0  0  0  0  0  0  0
   59.2120   29.3140   48.9250 C   0  0  0  0  0  0  0  0  0  0  0  0
   59.3830   31.8490   49.1790 C   0  0  0  0  0  0  0  0  0  0  0  0
   60.0290   32.0040   47.8890 N   0  0  0  0  0  0  0  0  0  0  0  0
   59.3440   31.5360   46.6690 C   0  0  0  0  0  0  0  0  0  0  0  0
   58.0180   32.2210   46.4410 C   0  0  0  0  0  0  0  0  0  0  0  0
   57.7540   33.3100   47.0150 O   0  0  0  0  0  0  0  0  0  0  0  0
   57.0240   31.6370   45.5920 N   0  0  0  0  0  0  0  0  0  0  0  0
   57.3230   30.7760   44.4550 C   0  0  0  0  0  0  0  0  0  0  0  0
   57.5480   29.3710   44.9380 C   0  0  0  0  0  0  0  0  0  0  0  0
   58.8580   28.8760   45.0680 C   0  0  0  0  0  0  0  0  0  0  0  0
   59.0770   27.5610   45.4860 C   0  0  0  0  0  0  0  0  0  0  0  0
   57.9940   26.7250   45.7680 C   0  0  0  0  0  0  0  0  0  0  0  0
   56.6880   27.2010   45.6260 C   0  0  0  0  0  0  0  0  0  0  0  0
   56.4600   28.5170   45.2050 C   0  0  0  0  0  0  0  0  0  0  0  0
   55.1530   28.9660   45.0540 O   0  0  0  0  0  0  0  0  0  0  0  0
   63.0889   32.8544   47.2725 H   0  0  0  0  0  0  0  0  0  0  0  0
   61.9637   32.0614   46.1184 H   0  0  0  0  0  0  0  0  0  0  0  0
   62.1375   33.8493   46.1184 H   0  0  0  0  0  0  0  0  0  0  0  0
   61.7504   34.8778   48.5335 H   0  0  0  0  0  0  0  0  0  0  0  0
   60.1373   34.8925   50.3783 H   0  0  0  0  0  0  0  0  0  0  0  0
   58.9956   34.8446   48.9685 H   0  0  0  0  0  0  0  0  0  0  0  0
   57.8335   31.6957   53.7674 H   0  0  0  0  0  0  0  0  0  0  0  0
   56.4706   32.5028   52.9201 H   0  0  0  0  0  0  0  0  0  0  0  0
   56.5932   30.7107   52.9201 H   0  0  0  0  0  0  0  0  0  0  0  0
   59.3988   28.5119   49.6542 H   0  0  0  0  0  0  0  0  0  0  0  0
   58.3530   29.0429   48.2937 H   0  0  0  0  0  0  0  0  0  0  0  0
   60.1024   29.4503   48.2937 H   0  0  0  0  0  0  0  0  0  0  0  0
   59.9942   31.7328   45.8038 H   0  0  0  0  0  0  0  0  0  0  0  0
   59.1437   30.4617   46.7941 H   0  0  0  0  0  0  0  0  0  0  0  0
   56.4779   30.7911   43.7511 H   0  0  0  0  0  0  0  0  0  0  0  0
   58.2287   31.1393   43.9473 H   0  0  0  0  0  0  0  0  0  0  0  0
   59.7144   29.5274   44.8394 H   0  0  0  0  0  0  0  0  0  0  0  0
   60.1045   27.1831   45.5933 H   0  0  0  0  0  0  0  0  0  0  0  0
   58.1694   25.6917   46.1019 H   0  0  0  0  0  0  0  0  0  0  0  0
   55.8365   26.5401   45.8455 H   0  0  0  0  0  0  0  0  0  0  0  0
  1  2  1  0
  2  3  2  0
  3  4  1  0
  4  5  1  0
  5  6  2  0
  6  7  1  0
  6  8  1  0
  8  9  1  0
  8 10  2  0
 10 11  1  0
 10 12  1  0
 12 13  1  0
 12 14  2  0
 14 15  1  0
 15 16  1  0
 16 17  1  0
 17 18  2  0
 17 19  1  0
 19 20  1  0
 20 21  1  0
 21 22  2  0
 22 23  1  0
 23 24  2  0
 24 25  1  0
 25 26  2  0
 26 27  1  0
 15  2  1  0
 26 21  1  0
 14  5  1  0
  1 28  1  0
  1 29  1  0
  1 30  1  0
  3 31  1  0
  4 32  1  0
  4 33  1  0
  9 34  1  0
  9 35  1  0
  9 36  1  0
 13 37  1  0
 13 38  1  0
 13 39  1  0
 16 40  1  0
 16 41  1  0
 20 42  1  0
 20 43  1  0
 22 44  1  0
 23 45  1  0
 24 46  1  0
 25 47  1  0
M  CHG  4   7  -1  11  -1  19  -1  27  -1
M  END
>  <UniqueID>  (59) 
56

>  <SMILES>  (59) 
CC1=CCc2c([O-])c(C)c([O-])c(C)c2N1CC(=O)[N-]Cc1ccccc1[O-]

>  <Energy>  (59) 
62.49899012549584

>  <Genealogy>  (59) 
CC1=CCc2c([O-])c(C)c([O-])c(C)c2N1CC(=O)[N-]Cc1ccccc1[O-] (protonated)
CC1=CCc2c([O-])c(C)c([O-])c(C)c2N1CC(=O)[N-]Cc1ccccc1[O-] (3D coordinates assigned)
CC1=CCc2c([O-])c(C)c([O-])c(C)c2N1CC(=O)[N-]Cc1ccccc1[O-] (nonaromatic ring conformer: 62.49899012549584 kcal/mol)

>  <smiles>  (59) 
CC1=CCc2c(O)c(C)c(O)c(C)c2N1CC(=O)NCc1ccccc1O

>  <score_type>  (59) 
oracle

>  <origin>  (59) 
adg

>  <m_score__min__energy>  (59) 
-14.6

>  <m_primary>  (59) 
energy

$$$$
59:0
     RDKit          3D

 42 44  0  0  0  0  0  0  0  0999 V2000
   56.1030   24.6650   46.4370 O   0  0  0  0  0  0  0  0  0  0  0  0
   55.8890   25.9020   46.3190 C   0  0  0  0  0  0  0  0  0  0  0  0
   54.6090   26.3340   45.9870 O   0  0  0  0  0  0  0  0  0  0  0  0
   56.9790   26.8790   46.5280 C   0  0  0  0  0  0  0  0  0  0  0  0
   57.9720   26.6390   47.4940 C   0  0  0  0  0  0  0  0  0  0  0  0
   59.0030   27.5620   47.6940 C   0  0  0  0  0  0  0  0  0  0  0  0
   59.0540   28.7380   46.9370 C   0  0  0  0  0  0  0  0  0  0  0  0
   60.3430   29.9080   47.1950 S   0  0  0  0  0  0  0  0  0  0  0  0
   61.1580   29.5300   48.4010 O   0  0  0  0  0  0  0  0  0  0  0  0
   61.2410   29.9330   45.9900 O   0  0  0  0  0  0  0  0  0  0  0  0
   59.6720   31.4860   47.4420 N   0  0  0  0  0  0  0  0  0  0  0  0
   59.2780   32.3250   46.3470 C   0  0  0  0  0  0  0  0  0  0  0  0
   58.6040   31.7640   45.2490 C   0  0  0  0  0  0  0  0  0  0  0  0
   58.2450   32.5550   44.1550 C   0  0  0  0  0  0  0  0  0  0  0  0
   57.4110   31.8370   42.7890 Cl  0  0  0  0  0  0  0  0  0  0  0  0
   58.5560   33.9150   44.1470 C   0  0  0  0  0  0  0  0  0  0  0  0
   59.2180   34.4890   45.2330 C   0  0  0  0  0  0  0  0  0  0  0  0
   59.5830   33.7080   46.3450 C   0  0  0  0  0  0  0  0  0  0  0  0
   60.2210   34.3840   47.5410 C   0  0  0  0  0  0  0  0  0  0  0  0
   61.4900   33.7250   47.9050 N   0  0  0  0  0  0  0  0  0  0  0  0
   62.5690   33.8380   47.0670 C   0  0  0  0  0  0  0  0  0  0  0  0
   63.7750   33.2030   47.3670 C   0  0  0  0  0  0  0  0  0  0  0  0
   63.8870   32.4600   48.5380 C   0  0  0  0  0  0  0  0  0  0  0  0
   62.7970   32.3660   49.4020 C   0  0  0  0  0  0  0  0  0  0  0  0
   61.5990   33.0110   49.0750 C   0  0  0  0  0  0  0  0  0  0  0  0
   60.6260   32.9280   49.8720 O   0  0  0  0  0  0  0  0  0  0  0  0
   58.0710   28.9820   45.9710 C   0  0  0  0  0  0  0  0  0  0  0  0
   57.0390   28.0610   45.7680 C   0  0  0  0  0  0  0  0  0  0  0  0
   57.9375   25.7192   48.0963 H   0  0  0  0  0  0  0  0  0  0  0  0
   59.7773   27.3630   48.4495 H   0  0  0  0  0  0  0  0  0  0  0  0
   59.4760   31.7830   48.4230 H   0  0  0  0  0  0  0  0  0  0  0  0
   58.3568   30.6921   45.2510 H   0  0  0  0  0  0  0  0  0  0  0  0
   58.2787   34.5362   43.2826 H   0  0  0  0  0  0  0  0  0  0  0  0
   59.4569   35.5627   45.2196 H   0  0  0  0  0  0  0  0  0  0  0  0
   60.4202   35.4375   47.2951 H   0  0  0  0  0  0  0  0  0  0  0  0
   59.5307   34.3118   48.3944 H   0  0  0  0  0  0  0  0  0  0  0  0
   62.4833   34.4360   46.1477 H   0  0  0  0  0  0  0  0  0  0  0  0
   64.6314   33.2893   46.6821 H   0  0  0  0  0  0  0  0  0  0  0  0
   64.8306   31.9495   48.7808 H   0  0  0  0  0  0  0  0  0  0  0  0
   62.8781   31.7886   50.3347 H   0  0  0  0  0  0  0  0  0  0  0  0
   58.1106   29.9019   45.3692 H   0  0  0  0  0  0  0  0  0  0  0  0
   56.2688   28.2621   45.0088 H   0  0  0  0  0  0  0  0  0  0  0  0
  1  2  2  0
  2  3  1  0
  2  4  1  0
  4  5  2  0
  5  6  1  0
  6  7  2  0
  7  8  1  0
  8  9  2  0
  8 10  2  0
  8 11  1  0
 11 12  1  0
 12 13  2  0
 13 14  1  0
 14 15  1  0
 14 16  2  0
 16 17  1  0
 17 18  2  0
 18 19  1  0
 19 20  1  0
 20 21  1  0
 21 22  2  0
 22 23  1  0
 23 24  2  0
 24 25  1  0
 25 26  2  0
  7 27  1  0
 27 28  2  0
 28  4  1  0
 18 12  1  0
 25 20  1  0
  5 29  1  0
  6 30  1  0
 11 31  1  0
 13 32  1  0
 16 33  1  0
 17 34  1  0
 19 35  1  0
 19 36  1  0
 21 37  1  0
 22 38  1  0
 23 39  1  0
 24 40  1  0
 27 41  1  0
 28 42  1  0
M  CHG  1   3  -1
M  END
>  <UniqueID>  (60) 
57

>  <SMILES>  (60) 
O=C([O-])c1ccc(S(=O)(=O)Nc2cc(Cl)ccc2Cn2ccccc2=O)cc1

>  <Energy>  (60) 
52.28847602373444

>  <Genealogy>  (60) 
O=C([O-])c1ccc(S(=O)(=O)Nc2cc(Cl)ccc2Cn2ccccc2=O)cc1 (protonated)
O=C([O-])c1ccc(S(=O)(=O)Nc2cc(Cl)ccc2Cn2ccccc2=O)cc1 (3D coordinates assigned)
O=C([O-])c1ccc(S(=O)(=O)Nc2cc(Cl)ccc2Cn2ccccc2=O)cc1 (optimized conformer: 52.28847602373444 kcal/mol)

>  <smiles>  (60) 
O=C(O)c1ccc(S(=O)(=O)Nc2cc(Cl)ccc2Cn2ccccc2=O)cc1

>  <score_type>  (60) 
oracle

>  <origin>  (60) 
adg

>  <m_score__min__energy>  (60) 
-11.08

>  <m_primary>  (60) 
energy

$$$$
60:0
     RDKit          3D

 52 54  0  0  0  0  0  0  0  0999 V2000
   59.4380   33.8510   50.7970 C   0  0  0  0  0  0  0  0  0  0  0  0
   59.3400   33.1710   49.5080 N   0  0  0  0  0  0  0  0  0  0  0  0
   58.5590   31.9400   49.4170 C   0  0  0  0  0  0  0  0  0  0  0  0
   60.3360   33.4360   48.5100 C   0  0  0  0  0  0  0  0  0  0  0  0
   61.6910   33.2330   48.8060 C   0  0  0  0  0  0  0  0  0  0  0  0
   62.6640   33.4320   47.8210 C   0  0  0  0  0  0  0  0  0  0  0  0
   62.2860   33.8260   46.5360 C   0  0  0  0  0  0  0  0  0  0  0  0
   60.9370   34.0250   46.2320 C   0  0  0  0  0  0  0  0  0  0  0  0
   59.9540   33.8360   47.2150 C   0  0  0  0  0  0  0  0  0  0  0  0
   58.5710   34.0180   46.8910 N   0  0  0  0  0  0  0  0  0  0  0  0
   58.0000   33.6590   45.2990 S   0  0  0  0  0  0  0  0  0  0  0  0
   59.0400   34.0220   44.2760 O   0  0  0  0  0  0  0  0  0  0  0  0
   56.7590   34.4620   45.0210 O   0  0  0  0  0  0  0  0  0  0  0  0
   57.6260   31.9410   45.2140 C   0  0  0  0  0  0  0  0  0  0  0  0
   57.9170   31.1010   46.2960 C   0  0  0  0  0  0  0  0  0  0  0  0
   57.6960   29.7250   46.1980 C   0  0  0  0  0  0  0  0  0  0  0  0
   57.2040   29.1710   45.0040 C   0  0  0  0  0  0  0  0  0  0  0  0
   56.9670   27.7640   44.8720 N   0  0  0  0  0  0  0  0  0  0  0  0
   56.4900   26.8870   45.9020 C   0  0  0  0  0  0  0  0  0  0  0  0
   55.2500   26.6860   45.9950 O   0  0  0  0  0  0  0  0  0  0  0  0
   57.4350   26.1770   46.8340 C   0  0  0  0  0  0  0  0  0  0  0  0
   58.7910   26.3270   46.4080 O   0  0  0  0  0  0  0  0  0  0  0  0
   59.5660   27.4910   46.5410 C   0  0  0  0  0  0  0  0  0  0  0  0
   59.7890   28.1220   47.7820 C   0  0  0  0  0  0  0  0  0  0  0  0
   60.5710   29.2800   47.8510 C   0  0  0  0  0  0  0  0  0  0  0  0
   61.1330   29.8190   46.6910 C   0  0  0  0  0  0  0  0  0  0  0  0
   61.8910   30.9410   46.7620 F   0  0  0  0  0  0  0  0  0  0  0  0
   60.9160   29.1980   45.4580 C   0  0  0  0  0  0  0  0  0  0  0  0
   60.1360   28.0410   45.3850 C   0  0  0  0  0  0  0  0  0  0  0  0
   56.8840   30.0170   43.9360 C   0  0  0  0  0  0  0  0  0  0  0  0
   57.1060   31.3940   44.0340 C   0  0  0  0  0  0  0  0  0  0  0  0
   59.3321   33.1158   51.6084 H   0  0  0  0  0  0  0  0  0  0  0  0
   60.4168   34.3465   50.8767 H   0  0  0  0  0  0  0  0  0  0  0  0
   58.6389   34.6027   50.8767 H   0  0  0  0  0  0  0  0  0  0  0  0
   58.3283   31.5764   50.4292 H   0  0  0  0  0  0  0  0  0  0  0  0
   57.6219   32.1394   48.8766 H   0  0  0  0  0  0  0  0  0  0  0  0
   59.1386   31.1771   48.8766 H   0  0  0  0  0  0  0  0  0  0  0  0
   61.9901   32.9162   49.8160 H   0  0  0  0  0  0  0  0  0  0  0  0
   63.7269   33.2781   48.0588 H   0  0  0  0  0  0  0  0  0  0  0  0
   63.0518   33.9800   45.7615 H   0  0  0  0  0  0  0  0  0  0  0  0
   60.6441   34.3314   45.2169 H   0  0  0  0  0  0  0  0  0  0  0  0
   57.8670   34.0250   47.6600 H   0  0  0  0  0  0  0  0  0  0  0  0
   58.3211   31.5262   47.2266 H   0  0  0  0  0  0  0  0  0  0  0  0
   57.9078   29.0731   47.0583 H   0  0  0  0  0  0  0  0  0  0  0  0
   57.3274   26.5991   47.8441 H   0  0  0  0  0  0  0  0  0  0  0  0
   57.1860   25.1056   46.8328 H   0  0  0  0  0  0  0  0  0  0  0  0
   59.3471   27.7028   48.6980 H   0  0  0  0  0  0  0  0  0  0  0  0
   60.7439   29.7677   48.8217 H   0  0  0  0  0  0  0  0  0  0  0  0
   61.3596   29.6204   44.5443 H   0  0  0  0  0  0  0  0  0  0  0  0
   59.9679   27.5575   44.4113 H   0  0  0  0  0  0  0  0  0  0  0  0
   56.4555   29.5963   43.0144 H   0  0  0  0  0  0  0  0  0  0  0  0
   56.8717   32.0494   43.1822 H   0  0  0  0  0  0  0  0  0  0  0  0
  1  2  1  0
  2  3  1  0
  2  4  1  0
  4  5  2  0
  5  6  1  0
  6  7  2  0
  7  8  1  0
  8  9  2  0
  9 10  1  0
 10 11  1  0
 11 12  2  0
 11 13  2  0
 11 14  1  0
 14 15  2  0
 15 16  1  0
 16 17  2  0
 17 18  1  0
 18 19  1  0
 19 20  2  0
 19 21  1  0
 21 22  1  0
 22 23  1  0
 23 24  2  0
 24 25  1  0
 25 26  2  0
 26 27  1  0
 26 28  1  0
 28 29  2  0
 17 30  1  0
 30 31  2  0
  9  4  1  0
 31 14  1  0
 29 23  1  0
  1 32  1  0
  1 33  1  0
  1 34  1  0
  3 35  1  0
  3 36  1  0
  3 37  1  0
  5 38  1  0
  6 39  1  0
  7 40  1  0
  8 41  1  0
 10 42  1  0
 15 43  1  0
 16 44  1  0
 21 45  1  0
 21 46  1  0
 24 47  1  0
 25 48  1  0
 28 49  1  0
 29 50  1  0
 30 51  1  0
 31 52  1  0
M  CHG  1  18  -1
M  END
>  <UniqueID>  (61) 
58

>  <SMILES>  (61) 
CN(C)c1ccccc1NS(=O)(=O)c1ccc([N-]C(=O)COc2ccc(F)cc2)cc1

>  <Energy>  (61) 
67.52238598947585

>  <Genealogy>  (61) 
CN(C)c1ccccc1NS(=O)(=O)c1ccc([N-]C(=O)COc2ccc(F)cc2)cc1 (protonated)
CN(C)c1ccccc1NS(=O)(=O)c1ccc([N-]C(=O)COc2ccc(F)cc2)cc1 (3D coordinates assigned)
CN(C)c1ccccc1NS(=O)(=O)c1ccc([N-]C(=O)COc2ccc(F)cc2)cc1 (optimized conformer: 67.52238598947585 kcal/mol)

>  <smiles>  (61) 
CN(C)c1ccccc1NS(=O)(=O)c1ccc(NC(=O)COc2ccc(F)cc2)cc1

>  <score_type>  (61) 
oracle

>  <origin>  (61) 
adg

>  <m_score__min__energy>  (61) 
-10.09

>  <m_primary>  (61) 
energy

$$$$
61:0
     RDKit          3D

 48 50  0  0  0  0  0  0  0  0999 V2000
   59.8440   30.7510   49.8730 C   0  0  0  0  0  0  0  0  0  0  0  0
   60.2580   30.5840   48.4460 C   0  0  0  0  0  0  0  0  0  0  0  0
   60.5880   31.6000   47.6280 N   0  0  0  0  0  0  0  0  0  0  0  0
   60.8110   31.1140   46.4440 O   0  0  0  0  0  0  0  0  0  0  0  0
   60.6430   29.8110   46.4400 C   0  0  0  0  0  0  0  0  0  0  0  0
   60.8060   28.9520   45.2290 C   0  0  0  0  0  0  0  0  0  0  0  0
   60.2780   29.4060   47.7180 C   0  0  0  0  0  0  0  0  0  0  0  0
   59.9190   28.0240   48.1890 C   0  0  0  0  0  0  0  0  0  0  0  0
   58.9070   27.3950   47.2700 C   0  0  0  0  0  0  0  0  0  0  0  0
   58.8920   26.0080   47.0580 C   0  0  0  0  0  0  0  0  0  0  0  0
   57.9330   25.4350   46.2190 C   0  0  0  0  0  0  0  0  0  0  0  0
   56.9680   26.2380   45.6040 C   0  0  0  0  0  0  0  0  0  0  0  0
   56.9540   27.6200   45.8260 C   0  0  0  0  0  0  0  0  0  0  0  0
   55.9080   28.4050   45.2400 N   0  0  0  0  0  0  0  0  0  0  0  0
   56.1720   29.7640   44.1920 S   0  0  0  0  0  0  0  0  0  0  0  0
   55.1640   30.8310   44.5170 O   0  0  0  0  0  0  0  0  0  0  0  0
   55.9950   29.3440   42.7600 O   0  0  0  0  0  0  0  0  0  0  0  0
   57.8150   30.4280   44.4400 C   0  0  0  0  0  0  0  0  0  0  0  0
   57.9050   31.8670   43.9250 C   0  0  0  0  0  0  0  0  0  0  0  0
   58.2660   32.8070   45.0430 C   0  0  0  0  0  0  0  0  0  0  0  0
   59.0450   33.9470   44.7820 C   0  0  0  0  0  0  0  0  0  0  0  0
   59.3670   34.8310   45.8150 C   0  0  0  0  0  0  0  0  0  0  0  0
   58.8960   34.5960   47.1090 C   0  0  0  0  0  0  0  0  0  0  0  0
   58.1050   33.4740   47.3730 C   0  0  0  0  0  0  0  0  0  0  0  0
   57.7870   32.5820   46.3440 C   0  0  0  0  0  0  0  0  0  0  0  0
   57.9450   28.1980   46.6350 C   0  0  0  0  0  0  0  0  0  0  0  0
   60.6604   30.4217   50.5326 H   0  0  0  0  0  0  0  0  0  0  0  0
   59.6195   31.8100   50.0681 H   0  0  0  0  0  0  0  0  0  0  0  0
   58.9475   30.1442   50.0681 H   0  0  0  0  0  0  0  0  0  0  0  0
   60.6470   32.6120   47.8780 H   0  0  0  0  0  0  0  0  0  0  0  0
   61.0028   27.9150   45.5388 H   0  0  0  0  0  0  0  0  0  0  0  0
   59.8852   28.9867   44.6282 H   0  0  0  0  0  0  0  0  0  0  0  0
   61.6500   29.3216   44.6282 H   0  0  0  0  0  0  0  0  0  0  0  0
   60.8259   27.4018   48.2074 H   0  0  0  0  0  0  0  0  0  0  0  0
   59.4848   28.0956   49.1971 H   0  0  0  0  0  0  0  0  0  0  0  0
   59.6379   25.3696   47.5541 H   0  0  0  0  0  0  0  0  0  0  0  0
   57.9373   24.3494   46.0419 H   0  0  0  0  0  0  0  0  0  0  0  0
   56.2165   25.7819   44.9428 H   0  0  0  0  0  0  0  0  0  0  0  0
   58.0508   30.4144   45.5143 H   0  0  0  0  0  0  0  0  0  0  0  0
   58.5327   29.8089   43.8818 H   0  0  0  0  0  0  0  0  0  0  0  0
   58.6756   31.9234   43.1420 H   0  0  0  0  0  0  0  0  0  0  0  0
   56.9264   32.1599   43.5169 H   0  0  0  0  0  0  0  0  0  0  0  0
   59.4026   34.1442   43.7606 H   0  0  0  0  0  0  0  0  0  0  0  0
   59.9918   35.7126   45.6092 H   0  0  0  0  0  0  0  0  0  0  0  0
   59.1477   35.2943   47.9208 H   0  0  0  0  0  0  0  0  0  0  0  0
   57.7321   33.2925   48.3918 H   0  0  0  0  0  0  0  0  0  0  0  0
   57.1606   31.7025   46.5539 H   0  0  0  0  0  0  0  0  0  0  0  0
   57.9685   29.2891   46.7729 H   0  0  0  0  0  0  0  0  0  0  0  0
  1  2  1  0
  2  3  2  0
  3  4  1  0
  4  5  1  0
  5  6  1  0
  5  7  2  0
  7  8  1  0
  8  9  1  0
  9 10  2  0
 10 11  1  0
 11 12  2  0
 12 13  1  0
 13 14  1  0
 14 15  1  0
 15 16  2  0
 15 17  2  0
 15 18  1  0
 18 19  1  0
 19 20  1  0
 20 21  2  0
 21 22  1  0
 22 23  2  0
 23 24  1  0
 24 25  2  0
 13 26  2  0
  7  2  1  0
 26  9  1  0
 25 20  1  0
  1 27  1  0
  1 28  1  0
  1 29  1  0
  3 30  1  0
  6 31  1  0
  6 32  1  0
  6 33  1  0
  8 34  1  0
  8 35  1  0
 10 36  1  0
 11 37  1  0
 12 38  1  0
 18 39  1  0
 18 40  1  0
 19 41  1  0
 19 42  1  0
 21 43  1  0
 22 44  1  0
 23 45  1  0
 24 46  1  0
 25 47  1  0
 26 48  1  0
M  CHG  2   3   1  14  -1
M  END
>  <UniqueID>  (62) 
59

>  <SMILES>  (62) 
Cc1[nH+]oc(C)c1Cc1cccc([N-]S(=O)(=O)CCc2ccccc2)c1

>  <Energy>  (62) 
68.81556048096544

>  <Genealogy>  (62) 
Cc1[nH+]oc(C)c1Cc1cccc([N-]S(=O)(=O)CCc2ccccc2)c1 (protonated)
Cc1[nH+]oc(C)c1Cc1cccc([N-]S(=O)(=O)CCc2ccccc2)c1 (3D coordinates assigned)
Cc1[nH+]oc(C)c1Cc1cccc([N-]S(=O)(=O)CCc2ccccc2)c1 (optimized conformer: 68.81556048096544 kcal/mol)

>  <smiles>  (62) 
Cc1noc(C)c1Cc1cccc(NS(=O)(=O)CCc2ccccc2)c1

>  <score_type>  (62) 
oracle

>  <origin>  (62) 
adg

>  <m_score__min__energy>  (62) 
-10.640000000000001

>  <m_primary>  (62) 
energy

$$$$
62:0
     RDKit          3D

 41 42  0  0  0  0  0  0  0  0999 V2000
   56.8620   20.7560   43.0440 C   0  0  0  0  0  0  0  0  0  0  0  0
   56.5590   22.1700   43.4170 C   0  0  0  0  0  0  0  0  0  0  0  0
   55.6510   22.7900   42.7980 O   0  0  0  0  0  0  0  0  0  0  0  0
   57.2320   22.7760   44.5300 N   0  0  0  0  0  0  0  0  0  0  0  0
   57.1500   24.1740   44.8600 C   0  0  0  0  0  0  0  0  0  0  0  0
   57.7730   25.1540   44.0670 C   0  0  0  0  0  0  0  0  0  0  0  0
   57.6980   26.5040   44.4230 C   0  0  0  0  0  0  0  0  0  0  0  0
   56.9990   26.8960   45.5690 C   0  0  0  0  0  0  0  0  0  0  0  0
   56.9670   28.2870   45.9220 N   0  0  0  0  0  0  0  0  0  0  0  0
   56.4040   29.3470   45.1380 C   0  0  0  0  0  0  0  0  0  0  0  0
   55.1800   29.3050   44.8520 O   0  0  0  0  0  0  0  0  0  0  0  0
   57.1990   30.5150   44.7180 C   0  0  0  0  0  0  0  0  0  0  0  0
   58.3510   30.3590   44.2280 O   0  0  0  0  0  0  0  0  0  0  0  0
   56.6700   31.8300   44.9010 N   0  0  0  0  0  0  0  0  0  0  0  0
   57.3930   33.0350   44.5120 C   0  0  0  0  0  0  0  0  0  0  0  0
   57.7090   33.8840   45.7440 C   0  0  0  0  0  0  0  0  0  0  0  0
   59.0180   33.4780   46.3710 C   0  0  0  0  0  0  0  0  0  0  0  0
   59.1190   32.2720   47.0860 C   0  0  0  0  0  0  0  0  0  0  0  0
   60.3440   31.8830   47.6380 C   0  0  0  0  0  0  0  0  0  0  0  0
   61.4740   32.6880   47.4740 C   0  0  0  0  0  0  0  0  0  0  0  0
   61.3830   33.8830   46.7560 C   0  0  0  0  0  0  0  0  0  0  0  0
   60.1610   34.2770   46.2010 C   0  0  0  0  0  0  0  0  0  0  0  0
   56.4160   25.9160   46.3890 C   0  0  0  0  0  0  0  0  0  0  0  0
   56.4930   24.5650   46.0350 C   0  0  0  0  0  0  0  0  0  0  0  0
   56.9907   20.1556   43.9566 H   0  0  0  0  0  0  0  0  0  0  0  0
   56.0310   20.3473   42.4503 H   0  0  0  0  0  0  0  0  0  0  0  0
   57.7875   20.7237   42.4503 H   0  0  0  0  0  0  0  0  0  0  0  0
   57.7470   22.1460   45.1870 H   0  0  0  0  0  0  0  0  0  0  0  0
   58.3224   24.8568   43.1615 H   0  0  0  0  0  0  0  0  0  0  0  0
   58.1919   27.2624   43.7978 H   0  0  0  0  0  0  0  0  0  0  0  0
   58.3329   32.7504   44.0164 H   0  0  0  0  0  0  0  0  0  0  0  0
   56.7672   33.6217   43.8235 H   0  0  0  0  0  0  0  0  0  0  0  0
   57.7682   34.9408   45.4447 H   0  0  0  0  0  0  0  0  0  0  0  0
   56.9091   33.7318   46.4836 H   0  0  0  0  0  0  0  0  0  0  0  0
   58.2327   31.6327   47.2117 H   0  0  0  0  0  0  0  0  0  0  0  0
   60.4177   30.9416   48.2022 H   0  0  0  0  0  0  0  0  0  0  0  0
   62.4358   32.3808   47.9104 H   0  0  0  0  0  0  0  0  0  0  0  0
   62.2739   34.5152   46.6269 H   0  0  0  0  0  0  0  0  0  0  0  0
   60.0948   35.2148   45.6300 H   0  0  0  0  0  0  0  0  0  0  0  0
   55.8971   26.2119   47.3127 H   0  0  0  0  0  0  0  0  0  0  0  0
   56.0346   23.8037   46.6834 H   0  0  0  0  0  0  0  0  0  0  0  0
  1  2  1  0
  2  3  2  0
  2  4  1  0
  4  5  1  0
  5  6  2  0
  6  7  1  0
  7  8  2  0
  8  9  1  0
  9 10  1  0
 10 11  2  0
 10 12  1  0
 12 13  2  0
 12 14  1  0
 14 15  1  0
 15 16  1  0
 16 17  1  0
 17 18  2  0
 18 19  1  0
 19 20  2  0
 20 21  1  0
 21 22  2  0
  8 23  1  0
 23 24  2  0
 24  5  1  0
 22 17  1  0
  1 25  1  0
  1 26  1  0
  1 27  1  0
  4 28  1  0
  6 29  1  0
  7 30  1  0
 15 31  1  0
 15 32  1  0
 16 33  1  0
 16 34  1  0
 18 35  1  0
 19 36  1  0
 20 37  1  0
 21 38  1  0
 22 39  1  0
 23 40  1  0
 24 41  1  0
M  CHG  2   9  -1  14  -1
M  END
>  <UniqueID>  (63) 
60

>  <SMILES>  (63) 
CC(=O)Nc1ccc([N-]C(=O)C(=O)[N-]CCc2ccccc2)cc1

>  <Energy>  (63) 
42.45595284091675

>  <Genealogy>  (63) 
CC(=O)Nc1ccc([N-]C(=O)C(=O)[N-]CCc2ccccc2)cc1 (protonated)
CC(=O)Nc1ccc([N-]C(=O)C(=O)[N-]CCc2ccccc2)cc1 (3D coordinates assigned)
CC(=O)Nc1ccc([N-]C(=O)C(=O)[N-]CCc2ccccc2)cc1 (optimized conformer: 42.45595284091675 kcal/mol)

>  <smiles>  (63) 
CC(=O)Nc1ccc(NC(=O)C(=O)NCCc2ccccc2)cc1

>  <score_type>  (63) 
oracle

>  <origin>  (63) 
adg

>  <m_score__min__energy>  (63) 
-10.140000000000001

>  <m_primary>  (63) 
energy

$$$$
63:0
     RDKit          3D

 36 39  0  0  0  0  0  0  0  0999 V2000
   55.1430   28.0170   44.9440 H   0  0  0  0  0  0  0  0  0  0  0  0
   55.2750   28.9630   44.6050 O   0  0  0  0  0  0  0  0  0  0  0  0
   56.3520   29.7340   45.0360 C   0  0  0  0  0  0  0  0  0  0  0  0
   56.3960   31.0510   44.7220 N   0  0  0  0  0  0  0  0  0  0  0  0
   57.4090   31.8500   45.1400 C   0  0  0  0  0  0  0  0  0  0  0  0
   57.4000   33.2020   44.7830 C   0  0  0  0  0  0  0  0  0  0  0  0
   56.5828   33.6063   44.1675 H   0  0  0  0  0  0  0  0  0  0  0  0
   58.4310   34.0330   45.2110 C   0  0  0  0  0  0  0  0  0  0  0  0
   58.4340   35.0973   44.9330 H   0  0  0  0  0  0  0  0  0  0  0  0
   59.4580   33.5120   45.9920 C   0  0  0  0  0  0  0  0  0  0  0  0
   60.2755   34.1621   46.3370 H   0  0  0  0  0  0  0  0  0  0  0  0
   59.4440   32.1580   46.3350 C   0  0  0  0  0  0  0  0  0  0  0  0
   60.2559   31.7454   46.9519 H   0  0  0  0  0  0  0  0  0  0  0  0
   58.4280   31.3350   45.9110 N   0  0  0  0  0  0  0  0  0  0  0  0
   58.4190   30.0020   46.2470 C   0  0  0  0  0  0  0  0  0  0  0  0
   59.3510   29.5120   46.9450 O   0  0  0  0  0  0  0  0  0  0  0  0
   57.3780   29.1640   45.8030 C   0  0  0  0  0  0  0  0  0  0  0  0
   57.3520   27.7230   46.1570 C   0  0  0  0  0  0  0  0  0  0  0  0
   57.5380   27.3830   47.3560 O   0  0  0  0  0  0  0  0  0  0  0  0
   57.0620   26.6980   45.1910 N   0  0  0  0  0  0  0  0  0  0  0  0
   56.2400   25.6950   45.3420 C   0  0  0  0  0  0  0  0  0  0  0  0
   54.9200   25.9160   45.5990 N   0  0  0  0  0  0  0  0  0  0  0  0
   54.0270   24.9060   45.7530 C   0  0  0  0  0  0  0  0  0  0  0  0
   52.9725   25.1347   45.9670 H   0  0  0  0  0  0  0  0  0  0  0  0
   54.4410   23.5800   45.6410 C   0  0  0  0  0  0  0  0  0  0  0  0
   53.5330   22.5830   45.7990 F   0  0  0  0  0  0  0  0  0  0  0  0
   55.7870   23.2990   45.3630 C   0  0  0  0  0  0  0  0  0  0  0  0
   56.2330   21.9720   45.2370 C   0  0  0  0  0  0  0  0  0  0  0  0
   55.5224   21.1413   45.3595 H   0  0  0  0  0  0  0  0  0  0  0  0
   57.5740   21.7040   44.9570 C   0  0  0  0  0  0  0  0  0  0  0  0
   57.9155   20.6632   44.8566 H   0  0  0  0  0  0  0  0  0  0  0  0
   58.4830   22.7520   44.8040 C   0  0  0  0  0  0  0  0  0  0  0  0
   59.5387   22.5341   44.5850 H   0  0  0  0  0  0  0  0  0  0  0  0
   58.0570   24.0770   44.9280 C   0  0  0  0  0  0  0  0  0  0  0  0
   58.7797   24.8974   44.8071 H   0  0  0  0  0  0  0  0  0  0  0  0
   56.7070   24.3680   45.2070 C   0  0  0  0  0  0  0  0  0  0  0  0
  1  2  1  0
  2  3  1  0
  3  4  1  0
  4  5  2  0
  5  6  1  0
  6  7  1  0
  6  8  2  0
  8  9  1  0
  8 10  1  0
 10 11  1  0
 10 12  2  0
 12 13  1  0
 12 14  1  0
 14 15  1  0
 15 16  2  0
 15 17  1  0
 17 18  1  0
 18 19  2  0
 18 20  1  0
 20 21  2  0
 21 22  1  0
 22 23  1  0
 23 24  1  0
 23 25  2  0
 25 26  1  0
 25 27  1  0
 27 28  2  0
 28 29  1  0
 28 30  1  0
 30 31  1  0
 30 32  2  0
 32 33  1  0
 32 34  1  0
 34 35  1  0
 34 36  2  0
 17  3  2  0
 36 21  1  0
 14  5  1  0
 36 27  1  0
M  CHG  1  22  -1
M  END
>  <UniqueID>  (64) 
61

>  <SMILES>  (64) 
O=C(/N=c1\[n-]cc(F)c2ccccc12)c1c(O)nc2ccccn2c1=O

>  <Energy>  (64) 
62.3944304195689

>  <Genealogy>  (64) 
O=C(N=c1[n-]cc(F)c2ccccc12)c1c(O)nc2ccccn2c1=O (protonated)
O=C(/N=c1\[n-]cc(F)c2ccccc12)c1c(O)nc2ccccn2c1=O (cis-trans isomerization)
O=C(/N=c1\[n-]cc(F)c2ccccc12)c1c(O)nc2ccccn2c1=O (3D coordinates assigned)
O=C(/N=c1\[n-]cc(F)c2ccccc12)c1c(O)nc2ccccn2c1=O (optimized conformer: 62.3944304195689 kcal/mol)

>  <smiles>  (64) 
O=C(N=c1[nH]cc(F)c2ccccc12)c1c(O)nc2ccccn2c1=O

>  <score_type>  (64) 
oracle

>  <origin>  (64) 
adg

>  <m_score__min__energy>  (64) 
-11.109999999999999

>  <m_primary>  (64) 
energy

$$$$
64:0
     RDKit          3D

 38 41  0  0  0  0  0  0  0  0999 V2000
   54.3230   25.9510   45.8400 O   0  0  0  0  0  0  0  0  0  0  0  0
   55.3990   25.3330   45.6220 C   0  0  0  0  0  0  0  0  0  0  0  0
   55.3440   24.0470   45.1870 N   0  0  0  0  0  0  0  0  0  0  0  0
   56.4720   23.3350   44.9460 C   0  0  0  0  0  0  0  0  0  0  0  0
   56.3830   22.0110   44.5010 C   0  0  0  0  0  0  0  0  0  0  0  0
   57.5470   21.2790   44.2470 C   0  0  0  0  0  0  0  0  0  0  0  0
   58.8010   21.8680   44.4320 C   0  0  0  0  0  0  0  0  0  0  0  0
   58.8990   23.1920   44.8760 C   0  0  0  0  0  0  0  0  0  0  0  0
   57.7330   23.9350   45.1380 C   0  0  0  0  0  0  0  0  0  0  0  0
   57.7710   25.2680   45.5810 C   0  0  0  0  0  0  0  0  0  0  0  0
   58.8820   25.8500   45.7220 O   0  0  0  0  0  0  0  0  0  0  0  0
   56.6050   25.9420   45.8350 N   0  0  0  0  0  0  0  0  0  0  0  0
   56.6360   27.2760   46.2890 N   0  0  0  0  0  0  0  0  0  0  0  0
   57.0270   28.5800   45.2120 S   0  0  0  0  0  0  0  0  0  0  0  0
   55.7650   29.3290   44.8830 O   0  0  0  0  0  0  0  0  0  0  0  0
   57.5860   28.0250   43.9330 O   0  0  0  0  0  0  0  0  0  0  0  0
   58.2180   29.6650   45.9560 C   0  0  0  0  0  0  0  0  0  0  0  0
   59.1650   29.1120   46.8320 C   0  0  0  0  0  0  0  0  0  0  0  0
   60.1410   29.9090   47.4290 C   0  0  0  0  0  0  0  0  0  0  0  0
   60.1900   31.2750   47.1640 C   0  0  0  0  0  0  0  0  0  0  0  0
   59.2570   31.8610   46.2990 C   0  0  0  0  0  0  0  0  0  0  0  0
   59.3130   33.2390   46.0410 C   0  0  0  0  0  0  0  0  0  0  0  0
   58.3860   33.8330   45.1850 C   0  0  0  0  0  0  0  0  0  0  0  0
   57.3940   33.0610   44.5830 C   0  0  0  0  0  0  0  0  0  0  0  0
   57.3230   31.6880   44.8290 C   0  0  0  0  0  0  0  0  0  0  0  0
   58.2530   31.0600   45.6860 C   0  0  0  0  0  0  0  0  0  0  0  0
   55.3973   21.5463   44.3511 H   0  0  0  0  0  0  0  0  0  0  0  0
   57.4756   20.2373   43.9008 H   0  0  0  0  0  0  0  0  0  0  0  0
   59.7139   21.2892   44.2280 H   0  0  0  0  0  0  0  0  0  0  0  0
   59.8879   23.6518   45.0201 H   0  0  0  0  0  0  0  0  0  0  0  0
   56.7420   27.4620   47.3110 H   0  0  0  0  0  0  0  0  0  0  0  0
   59.1368   28.0343   47.0507 H   0  0  0  0  0  0  0  0  0  0  0  0
   60.8751   29.4568   48.1120 H   0  0  0  0  0  0  0  0  0  0  0  0
   60.9649   31.8968   47.6361 H   0  0  0  0  0  0  0  0  0  0  0  0
   60.0917   33.8537   46.5161 H   0  0  0  0  0  0  0  0  0  0  0  0
   58.4379   34.9133   44.9845 H   0  0  0  0  0  0  0  0  0  0  0  0
   56.6636   33.5353   43.9110 H   0  0  0  0  0  0  0  0  0  0  0  0
   56.5341   31.0895   44.3500 H   0  0  0  0  0  0  0  0  0  0  0  0
  1  2  2  0
  2  3  1  0
  3  4  1  0
  4  5  2  0
  5  6  1  0
  6  7  2  0
  7  8  1  0
  8  9  2  0
  9 10  1  0
 10 11  2  0
 10 12  1  0
 12 13  1  0
 13 14  1  0
 14 15  2  0
 14 16  2  0
 14 17  1  0
 17 18  2  0
 18 19  1  0
 19 20  2  0
 20 21  1  0
 21 22  2  0
 22 23  1  0
 23 24  2  0
 24 25  1  0
 25 26  2  0
 12  2  1  0
 26 17  1  0
  9  4  1  0
 26 21  1  0
  5 27  1  0
  6 28  1  0
  7 29  1  0
  8 30  1  0
 13 31  1  0
 18 32  1  0
 19 33  1  0
 20 34  1  0
 22 35  1  0
 23 36  1  0
 24 37  1  0
 25 38  1  0
M  CHG  1   3  -1
M  END
>  <UniqueID>  (65) 
62

>  <SMILES>  (65) 
O=c1[n-]c2ccccc2c(=O)n1NS(=O)(=O)c1cccc2ccccc12

>  <Energy>  (65) 
62.147800268836285

>  <Genealogy>  (65) 
O=c1[n-]c2ccccc2c(=O)n1NS(=O)(=O)c1cccc2ccccc12 (protonated)
O=c1[n-]c2ccccc2c(=O)n1NS(=O)(=O)c1cccc2ccccc12 (3D coordinates assigned)
O=c1[n-]c2ccccc2c(=O)n1NS(=O)(=O)c1cccc2ccccc12 (optimized conformer: 62.147800268836285 kcal/mol)

>  <smiles>  (65) 
O=c1[nH]c2ccccc2c(=O)n1NS(=O)(=O)c1cccc2ccccc12

>  <score_type>  (65) 
oracle

>  <origin>  (65) 
adg

>  <m_score__min__energy>  (65) 
-10.720000000000001

>  <m_primary>  (65) 
energy

$$$$
65:0
     RDKit          3D

 35 37  0  0  0  0  0  0  0  0999 V2000
   60.2310   26.9120   46.8910 H   0  0  0  0  0  0  0  0  0  0  0  0
   59.4750   26.3080   46.5890 O   0  0  0  0  0  0  0  0  0  0  0  0
   58.2360   26.8360   46.2430 C   0  0  0  0  0  0  0  0  0  0  0  0
   57.0810   26.1570   46.3980 N   0  0  0  0  0  0  0  0  0  0  0  0
   56.1280   27.0000   45.9570 C   0  0  0  0  0  0  0  0  0  0  0  0
   54.7730   26.6990   46.0090 O   0  0  0  0  0  0  0  0  0  0  0  0
   56.6790   28.1890   45.5110 C   0  0  0  0  0  0  0  0  0  0  0  0
   56.0040   29.3560   45.0190 N   0  0  0  0  0  0  0  0  0  0  0  0
   56.5680   30.3640   44.4250 C   0  0  0  0  0  0  0  0  0  0  0  0
   56.9020   31.5170   45.0410 N   0  0  0  0  0  0  0  0  0  0  0  0
   57.3960   32.4320   44.1640 C   0  0  0  0  0  0  0  0  0  0  0  0
   57.7290   33.8340   44.6130 C   0  0  1  0  0  0  0  0  0  0  0  0
   57.4375   34.5319   43.8143 H   0  0  0  0  0  0  0  0  0  0  0  0
   56.9850   34.1720   45.8290 N   0  0  0  0  0  0  0  0  0  0  0  0
   56.1900   34.7970   45.5640 H   0  0  0  0  0  0  0  0  0  0  0  0
   56.5500   33.2960   46.2010 H   0  0  0  0  0  0  0  0  0  0  0  0
   59.2440   33.9730   44.8650 C   0  0  0  0  0  0  0  0  0  0  0  0
   59.7783   33.2411   44.2414 H   0  0  0  0  0  0  0  0  0  0  0  0
   59.5429   35.0000   44.6083 H   0  0  0  0  0  0  0  0  0  0  0  0
   59.5910   33.7280   46.3150 C   0  0  0  0  0  0  0  0  0  0  0  0
   59.6970   32.4160   46.8040 C   0  0  0  0  0  0  0  0  0  0  0  0
   59.5900   31.5645   46.1159 H   0  0  0  0  0  0  0  0  0  0  0  0
   59.9380   32.1880   48.1620 C   0  0  0  0  0  0  0  0  0  0  0  0
   60.0232   31.1581   48.5389 H   0  0  0  0  0  0  0  0  0  0  0  0
   60.0710   33.2660   49.0420 C   0  0  0  0  0  0  0  0  0  0  0  0
   60.2598   33.0841   50.1103 H   0  0  0  0  0  0  0  0  0  0  0  0
   59.9640   34.5750   48.5640 C   0  0  0  0  0  0  0  0  0  0  0  0
   60.0679   35.4230   49.2569 H   0  0  0  0  0  0  0  0  0  0  0  0
   59.7250   34.8080   47.2060 C   0  0  0  0  0  0  0  0  0  0  0  0
   59.6415   35.8396   46.8333 H   0  0  0  0  0  0  0  0  0  0  0  0
   57.4230   32.0120   42.8320 C   0  0  0  0  0  0  0  0  0  0  0  0
   57.7676   32.6071   41.9734 H   0  0  0  0  0  0  0  0  0  0  0  0
   56.8360   30.4360   42.7710 S   0  0  0  0  0  0  0  0  0  0  0  0
   58.0350   28.0980   45.7160 C   0  0  0  0  0  0  0  0  0  0  0  0
   58.7960   28.8640   45.5060 H   0  0  0  0  0  0  0  0  0  0  0  0
  1  2  1  0
  2  3  1  0
  3  4  1  0
  4  5  1  0
  5  6  1  0
  5  7  2  0
  7  8  1  0
  8  9  2  0
  9 10  1  0
 10 11  1  0
 11 12  1  0
 12 13  1  6
 12 14  1  0
 14 15  1  0
 14 16  1  0
 12 17  1  0
 17 18  1  0
 17 19  1  0
 17 20  1  0
 20 21  2  0
 21 22  1  0
 21 23  1  0
 23 24  1  0
 23 25  2  0
 25 26  1  0
 25 27  1  0
 27 28  1  0
 27 29  2  0
 29 30  1  0
 11 31  2  0
 31 32  1  0
 31 33  1  0
  7 34  1  0
 34 35  1  0
 34  3  2  0
 33  9  1  0
 29 20  1  0
M  CHG  3   4  -1   6  -1  10  -1
M  END
>  <UniqueID>  (66) 
63

>  <SMILES>  (66) 
N[C@@H](Cc1ccccc1)c1cs/c(=N/c2cc(O)[n-]c2[O-])[n-]1

>  <Energy>  (66) 
94.56812124648648

>  <Genealogy>  (66) 
NC(Cc1ccccc1)c1csc(=Nc2cc(O)[n-]c2[O-])[n-]1 (protonated)
N[C@@H](Cc1ccccc1)c1csc(=Nc2cc(O)[n-]c2[O-])[n-]1 (chirality)
N[C@@H](Cc1ccccc1)c1cs/c(=N/c2cc(O)[n-]c2[O-])[n-]1 (cis-trans isomerization)
N[C@@H](Cc1ccccc1)c1cs/c(=N/c2cc(O)[n-]c2[O-])[n-]1 (3D coordinates assigned)
N[C@@H](Cc1ccccc1)c1cs/c(=N/c2cc(O)[n-]c2[O-])[n-]1 (optimized conformer: 94.56812124648648 kcal/mol)

>  <smiles>  (66) 
NC(Cc1ccccc1)c1csc(=Nc2cc(O)[nH]c2O)[nH]1

>  <score_type>  (66) 
oracle

>  <origin>  (66) 
adg

>  <m_score__min__energy>  (66) 
-14.93

>  <m_primary>  (66) 
energy

$$$$
66:0
     RDKit          3D

 34 36  0  0  0  0  0  0  0  0999 V2000
   51.3790   32.6040   49.9410 O   0  0  0  0  0  0  0  0  0  0  0  0
   51.3800   32.3240   51.1690 C   0  0  0  0  0  0  0  0  0  0  0  0
   50.5980   33.0840   52.0330 O   0  0  0  0  0  0  0  0  0  0  0  0
   52.1980   31.2060   51.6870 C   0  0  0  0  0  0  0  0  0  0  0  0
   51.5940   30.1220   52.3500 C   0  0  0  0  0  0  0  0  0  0  0  0
   52.3740   29.0750   52.8470 C   0  0  0  0  0  0  0  0  0  0  0  0
   53.7600   29.0900   52.6800 C   0  0  0  0  0  0  0  0  0  0  0  0
   54.3790   30.1510   51.9990 C   0  0  0  0  0  0  0  0  0  0  0  0
   55.8020   30.2170   51.8260 N   0  0  0  0  0  0  0  0  0  0  0  0
   56.7050   31.1100   52.4930 C   0  0  0  0  0  0  0  0  0  0  0  0
   56.6150   31.2950   53.7370 O   0  0  0  0  0  0  0  0  0  0  0  0
   57.7410   31.8160   51.7100 C   0  0  0  0  0  0  0  0  0  0  0  0
   58.0490   33.1400   52.0620 C   0  0  0  0  0  0  0  0  0  0  0  0
   59.0690   33.8360   51.4140 C   0  0  0  0  0  0  0  0  0  0  0  0
   59.8050   33.2200   50.3960 C   0  0  0  0  0  0  0  0  0  0  0  0
   60.8410   33.9170   49.7530 C   0  0  0  0  0  0  0  0  0  0  0  0
   61.5700   33.3060   48.7310 C   0  0  0  0  0  0  0  0  0  0  0  0
   61.2720   31.9980   48.3420 C   0  0  0  0  0  0  0  0  0  0  0  0
   60.2430   31.2940   48.9730 C   0  0  0  0  0  0  0  0  0  0  0  0
   59.4990   31.8930   50.0090 C   0  0  0  0  0  0  0  0  0  0  0  0
   58.4510   31.1960   50.6500 C   0  0  0  0  0  0  0  0  0  0  0  0
   58.1170   29.9160   50.1950 O   0  0  0  0  0  0  0  0  0  0  0  0
   53.5950   31.2130   51.5250 C   0  0  0  0  0  0  0  0  0  0  0  0
   50.5017   30.0988   52.4777 H   0  0  0  0  0  0  0  0  0  0  0  0
   51.8944   28.2357   53.3719 H   0  0  0  0  0  0  0  0  0  0  0  0
   54.3695   28.2678   53.0832 H   0  0  0  0  0  0  0  0  0  0  0  0
   57.4773   33.6354   52.8606 H   0  0  0  0  0  0  0  0  0  0  0  0
   59.2956   34.8726   51.7041 H   0  0  0  0  0  0  0  0  0  0  0  0
   61.0788   34.9475   50.0555 H   0  0  0  0  0  0  0  0  0  0  0  0
   62.3809   33.8559   48.2310 H   0  0  0  0  0  0  0  0  0  0  0  0
   61.8492   31.5206   47.5364 H   0  0  0  0  0  0  0  0  0  0  0  0
   60.0122   30.2654   48.6589 H   0  0  0  0  0  0  0  0  0  0  0  0
   57.3990   29.3420   50.6150 H   0  0  0  0  0  0  0  0  0  0  0  0
   54.0789   32.0621   51.0202 H   0  0  0  0  0  0  0  0  0  0  0  0
  1  2  2  0
  2  3  1  0
  2  4  1  0
  4  5  2  0
  5  6  1  0
  6  7  2  0
  7  8  1  0
  8  9  1  0
  9 10  1  0
 10 11  2  0
 10 12  1  0
 12 13  2  0
 13 14  1  0
 14 15  2  0
 15 16  1  0
 16 17  2  0
 17 18  1  0
 18 19  2  0
 19 20  1  0
 20 21  2  0
 21 22  1  0
  8 23  2  0
 23  4  1  0
 21 12  1  0
 20 15  1  0
  5 24  1  0
  6 25  1  0
  7 26  1  0
 13 27  1  0
 14 28  1  0
 16 29  1  0
 17 30  1  0
 18 31  1  0
 19 32  1  0
 22 33  1  0
 23 34  1  0
M  CHG  2   3  -1   9  -1
M  END
>  <UniqueID>  (67) 
64

>  <SMILES>  (67) 
O=C([O-])c1cccc([N-]C(=O)c2ccc3ccccc3c2O)c1

>  <Energy>  (67) 
51.19585353641359

>  <Genealogy>  (67) 
O=C([O-])c1cccc([N-]C(=O)c2ccc3ccccc3c2O)c1 (protonated)
O=C([O-])c1cccc([N-]C(=O)c2ccc3ccccc3c2O)c1 (3D coordinates assigned)
O=C([O-])c1cccc([N-]C(=O)c2ccc3ccccc3c2O)c1 (optimized conformer: 51.19585353641359 kcal/mol)

>  <smiles>  (67) 
O=C(O)c1cccc(NC(=O)c2ccc3ccccc3c2O)c1

>  <score_type>  (67) 
oracle

>  <origin>  (67) 
adg

>  <m_score__min__energy>  (67) 
-12.16

>  <m_primary>  (67) 
energy

$$$$
67:0
     RDKit          3D

 35 37  0  0  0  0  0  0  0  0999 V2000
   56.6490   30.8370   43.5120 C   0  0  0  0  0  0  0  0  0  0  0  0
   56.7720   31.3660   44.8290 O   0  0  0  0  0  0  0  0  0  0  0  0
   57.7260   32.3160   45.2280 C   0  0  0  0  0  0  0  0  0  0  0  0
   57.4870   33.6960   45.0620 C   0  0  0  0  0  0  0  0  0  0  0  0
   58.4380   34.6360   45.4580 C   0  0  0  0  0  0  0  0  0  0  0  0
   59.6380   34.2190   46.0250 C   0  0  0  0  0  0  0  0  0  0  0  0
   59.8930   32.8590   46.1990 C   0  0  0  0  0  0  0  0  0  0  0  0
   58.9490   31.8860   45.8070 C   0  0  0  0  0  0  0  0  0  0  0  0
   59.2760   30.4450   46.0190 C   0  0  0  0  0  0  0  0  0  0  0  0
   59.8840   30.0270   47.0770 N   0  0  0  0  0  0  0  0  0  0  0  0
   60.0530   28.6700   47.0240 O   0  0  0  0  0  0  0  0  0  0  0  0
   59.5310   28.1000   45.8380 C   0  0  1  0  0  0  0  0  0  0  0  0
   58.4750   27.0670   46.1590 C   0  0  0  0  0  0  0  0  0  0  0  0
   58.8260   25.8390   46.7450 C   0  0  0  0  0  0  0  0  0  0  0  0
   57.8390   24.9020   47.0660 C   0  0  0  0  0  0  0  0  0  0  0  0
   56.4920   25.1820   46.8170 C   0  0  0  0  0  0  0  0  0  0  0  0
   55.5280   24.2310   47.1470 O   0  0  0  0  0  0  0  0  0  0  0  0
   56.1330   26.4140   46.2450 C   0  0  0  0  0  0  0  0  0  0  0  0
   54.7980   26.7140   45.9960 O   0  0  0  0  0  0  0  0  0  0  0  0
   57.1210   27.3520   45.9230 C   0  0  0  0  0  0  0  0  0  0  0  0
   58.9560   29.3130   45.0870 C   0  0  0  0  0  0  0  0  0  0  0  0
   56.4002   29.7670   43.5684 H   0  0  0  0  0  0  0  0  0  0  0  0
   55.8511   31.3712   42.9753 H   0  0  0  0  0  0  0  0  0  0  0  0
   57.6007   30.9644   42.9753 H   0  0  0  0  0  0  0  0  0  0  0  0
   56.5404   34.0345   44.6154 H   0  0  0  0  0  0  0  0  0  0  0  0
   58.2389   35.7092   45.3218 H   0  0  0  0  0  0  0  0  0  0  0  0
   60.3864   34.9626   46.3364 H   0  0  0  0  0  0  0  0  0  0  0  0
   60.8447   32.5398   46.6488 H   0  0  0  0  0  0  0  0  0  0  0  0
   60.2797   27.5596   45.2401 H   0  0  0  0  0  0  0  0  0  0  0  0
   59.8825   25.6137   46.9522 H   0  0  0  0  0  0  0  0  0  0  0  0
   58.1237   23.9398   47.5167 H   0  0  0  0  0  0  0  0  0  0  0  0
   54.5390   24.4520   47.1680 H   0  0  0  0  0  0  0  0  0  0  0  0
   56.8345   28.3183   45.4823 H   0  0  0  0  0  0  0  0  0  0  0  0
   59.4475   29.4480   44.1122 H   0  0  0  0  0  0  0  0  0  0  0  0
   57.8845   29.2214   44.8558 H   0  0  0  0  0  0  0  0  0  0  0  0
  1  2  1  0
  2  3  1  0
  3  4  2  0
  4  5  1  0
  5  6  2  0
  6  7  1  0
  7  8  2  0
  8  9  1  0
  9 10  2  0
 10 11  1  0
 11 12  1  0
 12 13  1  0
 13 14  2  0
 14 15  1  0
 15 16  2  0
 16 17  1  0
 16 18  1  0
 18 19  1  0
 18 20  2  0
 12 21  1  0
  8  3  1  0
 21  9  1  0
 20 13  1  0
  1 22  1  0
  1 23  1  0
  1 24  1  0
  4 25  1  0
  5 26  1  0
  6 27  1  0
  7 28  1  0
 12 29  1  6
 14 30  1  0
 15 31  1  0
 17 32  1  0
 20 33  1  0
 21 34  1  0
 21 35  1  0
M  CHG  1  19  -1
M  END
>  <UniqueID>  (68) 
65

>  <SMILES>  (68) 
COc1ccccc1C1=NO[C@@H](c2ccc(O)c([O-])c2)C1

>  <Energy>  (68) 
53.50275438792913

>  <Genealogy>  (68) 
COc1ccccc1C1=NOC(c2ccc(O)c([O-])c2)C1 (protonated)
COc1ccccc1C1=NO[C@@H](c2ccc(O)c([O-])c2)C1 (chirality)
COc1ccccc1C1=NO[C@@H](c2ccc(O)c([O-])c2)C1 (3D coordinates assigned)
COc1ccccc1C1=NO[C@@H](c2ccc(O)c([O-])c2)C1 (nonaromatic ring conformer: 53.50275438792913 kcal/mol)

>  <smiles>  (68) 
COc1ccccc1C1=NOC(c2ccc(O)c(O)c2)C1

>  <score_type>  (68) 
oracle

>  <origin>  (68) 
adg

>  <m_score__min__energy>  (68) 
-11.85

>  <m_primary>  (68) 
energy

$$$$
68:0
     RDKit          3D

 30 31  0  0  0  0  0  0  0  0999 V2000
   56.7660   29.3400   42.7240 N   0  0  0  0  0  0  0  0  0  0  0  0
   56.6480   29.8130   44.3820 S   0  0  0  0  0  0  0  0  0  0  0  0
   55.5280   29.0610   45.0430 O   0  0  0  0  0  0  0  0  0  0  0  0
   56.3540   31.2850   44.4580 O   0  0  0  0  0  0  0  0  0  0  0  0
   58.1630   29.4530   45.2050 C   0  0  0  0  0  0  0  0  0  0  0  0
   58.8260   28.2380   44.9830 C   0  0  0  0  0  0  0  0  0  0  0  0
   60.0220   27.9600   45.6500 C   0  0  0  0  0  0  0  0  0  0  0  0
   60.5500   28.8840   46.5570 C   0  0  0  0  0  0  0  0  0  0  0  0
   59.8750   30.0820   46.8150 C   0  0  0  0  0  0  0  0  0  0  0  0
   60.4240   31.0010   47.7660 N   0  0  0  0  0  0  0  0  0  0  0  0
   61.1750   32.1860   47.4570 C   0  0  0  0  0  0  0  0  0  0  0  0
   62.3840   32.0640   47.1280 O   0  0  0  0  0  0  0  0  0  0  0  0
   60.5850   33.5700   47.5600 C   0  0  0  0  0  0  0  0  0  0  0  0
   59.3750   33.7260   46.6890 C   0  0  0  0  0  0  0  0  0  0  0  0
   58.0600   33.4790   47.0620 C   0  0  0  0  0  0  0  0  0  0  0  0
   57.1400   33.7230   46.0350 C   0  0  0  0  0  0  0  0  0  0  0  0
   57.7270   34.1700   44.8570 C   0  0  0  0  0  0  0  0  0  0  0  0
   59.3880   34.2630   45.0950 S   0  0  0  0  0  0  0  0  0  0  0  0
   58.6960   30.3780   46.1130 C   0  0  0  0  0  0  0  0  0  0  0  0
   56.6240   28.3050   42.6910 H   0  0  0  0  0  0  0  0  0  0  0  0
   57.7510   29.5170   42.4250 H   0  0  0  0  0  0  0  0  0  0  0  0
   58.4041   27.5022   44.2826 H   0  0  0  0  0  0  0  0  0  0  0  0
   60.5488   27.0130   45.4613 H   0  0  0  0  0  0  0  0  0  0  0  0
   61.4992   28.6683   47.0693 H   0  0  0  0  0  0  0  0  0  0  0  0
   60.2979   33.7577   48.6051 H   0  0  0  0  0  0  0  0  0  0  0  0
   61.3441   34.2911   47.2227 H   0  0  0  0  0  0  0  0  0  0  0  0
   57.7705   33.1272   48.0632 H   0  0  0  0  0  0  0  0  0  0  0  0
   56.0560   33.5750   46.1495 H   0  0  0  0  0  0  0  0  0  0  0  0
   57.1950   34.4202   43.9273 H   0  0  0  0  0  0  0  0  0  0  0  0
   58.1883   31.3401   46.2763 H   0  0  0  0  0  0  0  0  0  0  0  0
  1  2  1  0
  2  3  2  0
  2  4  2  0
  2  5  1  0
  5  6  2  0
  6  7  1  0
  7  8  2  0
  8  9  1  0
  9 10  1  0
 10 11  1  0
 11 12  2  0
 11 13  1  0
 13 14  1  0
 14 15  2  0
 15 16  1  0
 16 17  2  0
 17 18  1  0
  9 19  2  0
 19  5  1  0
 18 14  1  0
  1 20  1  0
  1 21  1  0
  6 22  1  0
  7 23  1  0
  8 24  1  0
 13 25  1  0
 13 26  1  0
 15 27  1  0
 16 28  1  0
 17 29  1  0
 19 30  1  0
M  CHG  1  10  -1
M  END
>  <UniqueID>  (69) 
66

>  <SMILES>  (69) 
NS(=O)(=O)c1cccc([N-]C(=O)Cc2cccs2)c1

>  <Energy>  (69) 
56.26667084932158

>  <Genealogy>  (69) 
NS(=O)(=O)c1cccc([N-]C(=O)Cc2cccs2)c1 (protonated)
NS(=O)(=O)c1cccc([N-]C(=O)Cc2cccs2)c1 (3D coordinates assigned)
NS(=O)(=O)c1cccc([N-]C(=O)Cc2cccs2)c1 (optimized conformer: 56.26667084932158 kcal/mol)

>  <smiles>  (69) 
NS(=O)(=O)c1cccc(NC(=O)Cc2cccs2)c1

>  <score_type>  (69) 
oracle

>  <origin>  (69) 
adg

>  <m_score__min__energy>  (69) 
-9.3000000000000007

>  <m_primary>  (69) 
energy

$$$$
69:0
     RDKit          3D

 79 83  0  0  0  0  0  0  0  0999 V2000
   63.8150   32.3750   48.4020 C   0  0  0  0  0  0  0  0  0  0  0  0
   63.4690   33.7410   47.9720 N   0  0  0  0  0  0  0  0  0  0  0  0
   62.7800   34.5070   49.0310 C   0  0  0  0  0  0  0  0  0  0  0  0
   61.3060   34.1030   49.1820 C   0  0  0  0  0  0  0  0  0  0  0  0
   60.6040   34.2360   47.8900 N   0  0  0  0  0  0  0  0  0  0  0  0
   59.1750   33.8860   48.0290 C   0  0  0  0  0  0  0  0  0  0  0  0
   58.5860   33.5050   46.6950 C   0  0  0  0  0  0  0  0  0  0  0  0
   58.3260   34.4840   45.7250 C   0  0  0  0  0  0  0  0  0  0  0  0
   57.7730   34.1250   44.4950 C   0  0  0  0  0  0  0  0  0  0  0  0
   57.4880   32.7860   44.2160 C   0  0  0  0  0  0  0  0  0  0  0  0
   57.7600   31.7840   45.1660 C   0  0  0  0  0  0  0  0  0  0  0  0
   57.4760   30.3550   44.8860 C   0  0  0  0  0  0  0  0  0  0  0  0
   56.6510   29.7360   45.6140 O   0  0  0  0  0  0  0  0  0  0  0  0
   58.1390   29.6550   43.8170 N   0  0  0  0  0  0  0  0  0  0  0  0
   57.8000   28.2810   43.4550 C   0  0  0  0  0  0  0  0  0  0  0  0
   58.1200   27.3460   44.5910 C   0  0  0  0  0  0  0  0  0  0  0  0
   57.7120   26.0060   44.5310 C   0  0  0  0  0  0  0  0  0  0  0  0
   57.9970   25.1370   45.5850 C   0  0  0  0  0  0  0  0  0  0  0  0
   58.6860   25.5980   46.7090 C   0  0  0  0  0  0  0  0  0  0  0  0
   59.0900   26.9430   46.7980 C   0  0  0  0  0  0  0  0  0  0  0  0
   59.8120   27.4400   47.9990 C   0  0  0  0  0  0  0  0  0  0  0  0
   60.1530   26.5610   49.0450 C   0  0  0  0  0  0  0  0  0  0  0  0
   60.8400   27.0270   50.1690 C   0  0  0  0  0  0  0  0  0  0  0  0
   61.1920   28.3740   50.2680 C   0  0  0  0  0  0  0  0  0  0  0  0
   60.8570   29.2680   49.2400 C   0  0  0  0  0  0  0  0  0  0  0  0
   61.2040   30.7310   49.3560 C   0  0  0  0  0  0  0  0  0  0  0  0
   60.1490   31.4540   50.0950 N   0  0  0  0  0  0  0  0  0  0  0  0
   60.3580   31.3240   51.5560 C   0  0  0  0  0  0  0  0  0  0  0  0
   59.0740   31.6420   52.3370 C   0  0  0  0  0  0  0  0  0  0  0  0
   57.9590   30.7270   51.9830 N   0  0  0  0  0  0  0  0  0  0  0  0
   57.7620   29.6950   53.0130 C   0  0  0  0  0  0  0  0  0  0  0  0
   58.1080   30.0990   50.6490 C   0  0  0  0  0  0  0  0  0  0  0  0
   58.7840   31.0560   49.6580 C   0  0  0  0  0  0  0  0  0  0  0  0
   60.1720   28.7980   48.1100 C   0  0  0  0  0  0  0  0  0  0  0  0
   58.7980   27.8120   45.7290 C   0  0  0  0  0  0  0  0  0  0  0  0
   58.2970   32.1600   46.4140 C   0  0  0  0  0  0  0  0  0  0  0  0
   61.2430   33.3670   46.8870 C   0  0  0  0  0  0  0  0  0  0  0  0
   62.7150   33.7590   46.7020 C   0  0  0  0  0  0  0  0  0  0  0  0
   63.8268   32.3285   49.5010 H   0  0  0  0  0  0  0  0  0  0  0  0
   63.0676   31.6678   48.0131 H   0  0  0  0  0  0  0  0  0  0  0  0
   64.8089   32.1088   48.0131 H   0  0  0  0  0  0  0  0  0  0  0  0
   63.2945   34.3294   49.9869 H   0  0  0  0  0  0  0  0  0  0  0  0
   62.8089   35.5697   48.7486 H   0  0  0  0  0  0  0  0  0  0  0  0
   61.2489   33.0579   49.5202 H   0  0  0  0  0  0  0  0  0  0  0  0
   60.8272   34.7641   49.9194 H   0  0  0  0  0  0  0  0  0  0  0  0
   59.0771   33.0375   48.7222 H   0  0  0  0  0  0  0  0  0  0  0  0
   58.6333   34.7613   48.4170 H   0  0  0  0  0  0  0  0  0  0  0  0
   58.5588   35.5385   45.9344 H   0  0  0  0  0  0  0  0  0  0  0  0
   57.5608   34.8989   43.7426 H   0  0  0  0  0  0  0  0  0  0  0  0
   57.0474   32.5127   43.2458 H   0  0  0  0  0  0  0  0  0  0  0  0
   58.9510   30.0960   43.3310 H   0  0  0  0  0  0  0  0  0  0  0  0
   56.7255   28.2205   43.2272 H   0  0  0  0  0  0  0  0  0  0  0  0
   58.3897   27.9878   42.5739 H   0  0  0  0  0  0  0  0  0  0  0  0
   57.1654   25.6384   43.6501 H   0  0  0  0  0  0  0  0  0  0  0  0
   57.6780   24.0857   45.5304 H   0  0  0  0  0  0  0  0  0  0  0  0
   58.9147   24.9041   47.5313 H   0  0  0  0  0  0  0  0  0  0  0  0
   59.8762   25.4986   48.9767 H   0  0  0  0  0  0  0  0  0  0  0  0
   61.1042   26.3302   50.9782 H   0  0  0  0  0  0  0  0  0  0  0  0
   61.7336   28.7356   51.1545 H   0  0  0  0  0  0  0  0  0  0  0  0
   62.1587   30.8355   49.8924 H   0  0  0  0  0  0  0  0  0  0  0  0
   61.2888   31.1585   48.3460 H   0  0  0  0  0  0  0  0  0  0  0  0
   60.6687   30.2934   51.7827 H   0  0  0  0  0  0  0  0  0  0  0  0
   61.1343   32.0418   51.8596 H   0  0  0  0  0  0  0  0  0  0  0  0
   59.2816   31.5472   53.4131 H   0  0  0  0  0  0  0  0  0  0  0  0
   58.7658   32.6653   52.0765 H   0  0  0  0  0  0  0  0  0  0  0  0
   57.8490   30.1510   54.0103 H   0  0  0  0  0  0  0  0  0  0  0  0
   56.7626   29.2496   52.8994 H   0  0  0  0  0  0  0  0  0  0  0  0
   58.5271   28.9128   52.8994 H   0  0  0  0  0  0  0  0  0  0  0  0
   58.7213   29.1910   50.7463 H   0  0  0  0  0  0  0  0  0  0  0  0
   57.1068   29.8514   50.2666 H   0  0  0  0  0  0  0  0  0  0  0  0
   58.8575   30.5578   48.6800 H   0  0  0  0  0  0  0  0  0  0  0  0
   58.1711   31.9676   49.6011 H   0  0  0  0  0  0  0  0  0  0  0  0
   59.9128   29.4972   47.3013 H   0  0  0  0  0  0  0  0  0  0  0  0
   59.1043   28.8670   45.7860 H   0  0  0  0  0  0  0  0  0  0  0  0
   58.4918   31.3911   47.1762 H   0  0  0  0  0  0  0  0  0  0  0  0
   61.1856   32.3214   47.2237 H   0  0  0  0  0  0  0  0  0  0  0  0
   60.7187   33.4835   45.9271 H   0  0  0  0  0  0  0  0  0  0  0  0
   63.1837   33.0503   46.0034 H   0  0  0  0  0  0  0  0  0  0  0  0
   62.7406   34.7875   46.3126 H   0  0  0  0  0  0  0  0  0  0  0  0
  1  2  1  0
  2  3  1  0
  3  4  1  0
  4  5  1  0
  5  6  1  0
  6  7  1  0
  7  8  2  0
  8  9  1  0
  9 10  2  0
 10 11  1  0
 11 12  1  0
 12 13  2  0
 12 14  1  0
 14 15  1  0
 15 16  1  0
 16 17  2  0
 17 18  1  0
 18 19  2  0
 19 20  1  0
 20 21  1  0
 21 22  2  0
 22 23  1  0
 23 24  2  0
 24 25  1  0
 25 26  1  0
 26 27  1  0
 27 28  1  0
 28 29  1  0
 29 30  1  0
 30 31  1  0
 30 32  1  0
 32 33  1  0
 25 34  2  0
 20 35  2  0
 11 36  2  0
  5 37  1  0
 37 38  1  0
 38  2  1  0
 36  7  1  0
 35 16  1  0
 34 21  1  0
 33 27  1  0
  1 39  1  0
  1 40  1  0
  1 41  1  0
  3 42  1  0
  3 43  1  0
  4 44  1  0
  4 45  1  0
  6 46  1  0
  6 47  1  0
  8 48  1  0
  9 49  1  0
 10 50  1  0
 14 51  1  0
 15 52  1  0
 15 53  1  0
 17 54  1  0
 18 55  1  0
 19 56  1  0
 22 57  1  0
 23 58  1  0
 24 59  1  0
 26 60  1  0
 26 61  1  0
 28 62  1  0
 28 63  1  0
 29 64  1  0
 29 65  1  0
 31 66  1  0
 31 67  1  0
 31 68  1  0
 32 69  1  0
 32 70  1  0
 33 71  1  0
 33 72  1  0
 34 73  1  0
 35 74  1  0
 36 75  1  0
 37 76  1  0
 37 77  1  0
 38 78  1  0
 38 79  1  0
M  END
>  <UniqueID>  (70) 
67

>  <SMILES>  (70) 
CN1CCN(Cc2cccc(C(=O)NCc3cccc(-c4cccc(CN5CCN(C)CC5)c4)c3)c2)CC1

>  <Energy>  (70) 
102.53503339691925

>  <Genealogy>  (70) 
CN1CCN(Cc2cccc(C(=O)NCc3cccc(-c4cccc(CN5CCN(C)CC5)c4)c3)c2)CC1 (3D coordinates assigned)
CN1CCN(Cc2cccc(C(=O)NCc3cccc(-c4cccc(CN5CCN(C)CC5)c4)c3)c2)CC1 (nonaromatic ring conformer: 102.53503339691925 kcal/mol)

>  <smiles>  (70) 
CN1CCN(Cc2cccc(C(=O)NCc3cccc(-c4cccc(CN5CCN(C)CC5)c4)c3)c2)CC1

>  <score_type>  (70) 
oracle

>  <origin>  (70) 
adg

>  <m_score__min__energy>  (70) 
-11.24

>  <m_primary>  (70) 
energy

$$$$
70:0
     RDKit          3D

 49 52  0  0  0  0  0  0  0  0999 V2000
   56.6690   24.7930   47.1760 C   0  0  0  0  0  0  0  0  0  0  0  0
   57.5420   25.8060   46.4960 C   0  0  0  0  0  0  0  0  0  0  0  0
   58.9190   25.8190   46.7460 C   0  0  0  0  0  0  0  0  0  0  0  0
   59.7400   26.7600   46.1210 C   0  0  0  0  0  0  0  0  0  0  0  0
   59.1920   27.7140   45.2480 C   0  0  0  0  0  0  0  0  0  0  0  0
   60.0920   28.7100   44.5670 C   0  0  0  0  0  0  0  0  0  0  0  0
   57.7980   27.7450   45.0330 C   0  0  0  0  0  0  0  0  0  0  0  0
   57.2560   28.7290   44.1390 N   0  0  0  0  0  0  0  0  0  0  0  0
   56.2920   29.7530   44.4260 C   0  0  0  0  0  0  0  0  0  0  0  0
   55.1480   29.4590   44.8620 O   0  0  0  0  0  0  0  0  0  0  0  0
   56.6840   31.1980   44.3240 C   0  0  0  0  0  0  0  0  0  0  0  0
   57.7060   31.5620   45.3700 C   0  0  0  0  0  0  0  0  0  0  0  0
   58.0940   30.6250   46.3380 C   0  0  0  0  0  0  0  0  0  0  0  0
   58.9850   30.9870   47.3530 C   0  0  0  0  0  0  0  0  0  0  0  0
   59.4850   32.2960   47.4250 C   0  0  0  0  0  0  0  0  0  0  0  0
   60.3930   32.6680   48.4760 N   0  0  0  0  0  0  0  0  0  0  0  0
   60.1370   32.8730   49.8010 C   0  0  0  0  0  0  0  0  0  0  0  0
   58.7910   32.7160   50.4370 C   0  0  0  0  0  0  0  0  0  0  0  0
   61.2390   33.2290   50.5170 N   0  0  0  0  0  0  0  0  0  0  0  0
   62.2150   33.2250   49.5910 C   0  0  0  0  0  0  0  0  0  0  0  0
   63.5640   33.5200   49.7530 C   0  0  0  0  0  0  0  0  0  0  0  0
   64.3810   33.4530   48.6080 C   0  0  0  0  0  0  0  0  0  0  0  0
   63.8150   33.0980   47.3600 C   0  0  0  0  0  0  0  0  0  0  0  0
   62.4800   32.8190   47.2570 N   0  0  0  0  0  0  0  0  0  0  0  0
   61.7120   32.8840   48.3760 C   0  0  0  0  0  0  0  0  0  0  0  0
   59.0980   33.2330   46.4550 C   0  0  0  0  0  0  0  0  0  0  0  0
   58.2090   32.8710   45.4390 C   0  0  0  0  0  0  0  0  0  0  0  0
   56.9840   26.7720   45.6460 C   0  0  0  0  0  0  0  0  0  0  0  0
   56.7625   24.9015   48.2666 H   0  0  0  0  0  0  0  0  0  0  0  0
   55.6218   24.9537   46.8800 H   0  0  0  0  0  0  0  0  0  0  0  0
   56.9825   23.7810   46.8800 H   0  0  0  0  0  0  0  0  0  0  0  0
   59.3566   25.0845   47.4381 H   0  0  0  0  0  0  0  0  0  0  0  0
   60.8230   26.7540   46.3137 H   0  0  0  0  0  0  0  0  0  0  0  0
   60.6258   29.3007   45.3260 H   0  0  0  0  0  0  0  0  0  0  0  0
   60.8203   28.1764   43.9387 H   0  0  0  0  0  0  0  0  0  0  0  0
   59.4876   29.3807   43.9387 H   0  0  0  0  0  0  0  0  0  0  0  0
   57.1094   31.3846   43.3269 H   0  0  0  0  0  0  0  0  0  0  0  0
   55.7869   31.8139   44.4852 H   0  0  0  0  0  0  0  0  0  0  0  0
   57.6957   29.6004   46.2988 H   0  0  0  0  0  0  0  0  0  0  0  0
   59.2958   30.2412   48.0994 H   0  0  0  0  0  0  0  0  0  0  0  0
   58.8990   32.7286   51.5316 H   0  0  0  0  0  0  0  0  0  0  0  0
   58.1384   33.5441   50.1234 H   0  0  0  0  0  0  0  0  0  0  0  0
   58.3465   31.7599   50.1234 H   0  0  0  0  0  0  0  0  0  0  0  0
   63.9762   33.7945   50.7352 H   0  0  0  0  0  0  0  0  0  0  0  0
   65.4556   33.6758   48.6831 H   0  0  0  0  0  0  0  0  0  0  0  0
   64.4539   33.0461   46.4661 H   0  0  0  0  0  0  0  0  0  0  0  0
   59.4962   34.2576   46.4943 H   0  0  0  0  0  0  0  0  0  0  0  0
   57.9019   33.6154   44.6897 H   0  0  0  0  0  0  0  0  0  0  0  0
   55.9005   26.7700   45.4561 H   0  0  0  0  0  0  0  0  0  0  0  0
  1  2  1  0
  2  3  2  0
  3  4  1  0
  4  5  2  0
  5  6  1  0
  5  7  1  0
  7  8  1  0
  8  9  1  0
  9 10  2  0
  9 11  1  0
 11 12  1  0
 12 13  2  0
 13 14  1  0
 14 15  2  0
 15 16  1  0
 16 17  1  0
 17 18  1  0
 17 19  2  0
 19 20  1  0
 20 21  2  0
 21 22  1  0
 22 23  2  0
 23 24  1  0
 24 25  2  0
 15 26  1  0
 26 27  2  0
  7 28  2  0
 28  2  1  0
 27 12  1  0
 25 16  1  0
 25 20  1  0
  1 29  1  0
  1 30  1  0
  1 31  1  0
  3 32  1  0
  4 33  1  0
  6 34  1  0
  6 35  1  0
  6 36  1  0
 11 37  1  0
 11 38  1  0
 13 39  1  0
 14 40  1  0
 18 41  1  0
 18 42  1  0
 18 43  1  0
 21 44  1  0
 22 45  1  0
 23 46  1  0
 26 47  1  0
 27 48  1  0
 28 49  1  0
M  CHG  1   8  -1
M  END
>  <UniqueID>  (71) 
68

>  <SMILES>  (71) 
Cc1ccc(C)c([N-]C(=O)Cc2ccc(-n3c(C)nc4cccnc43)cc2)c1

>  <Energy>  (71) 
98.66844930196045

>  <Genealogy>  (71) 
Cc1ccc(C)c([N-]C(=O)Cc2ccc(-n3c(C)nc4cccnc43)cc2)c1 (protonated)
Cc1ccc(C)c([N-]C(=O)Cc2ccc(-n3c(C)nc4cccnc43)cc2)c1 (3D coordinates assigned)
Cc1ccc(C)c([N-]C(=O)Cc2ccc(-n3c(C)nc4cccnc43)cc2)c1 (optimized conformer: 98.66844930196045 kcal/mol)

>  <smiles>  (71) 
Cc1ccc(C)c(NC(=O)Cc2ccc(-n3c(C)nc4cccnc43)cc2)c1

>  <score_type>  (71) 
oracle

>  <origin>  (71) 
adg

>  <m_score__min__energy>  (71) 
-10.41

>  <m_primary>  (71) 
energy

$$$$
71:0
     RDKit          3D

 53 55  0  0  0  0  0  0  0  0999 V2000
   59.6190   33.9370   48.9170 C   0  0  0  0  0  0  0  0  0  0  0  0
   59.2770   34.8740   47.7630 C   0  0  0  0  0  0  0  0  0  0  0  0
   58.8670   34.0910   46.5450 C   0  0  0  0  0  0  0  0  0  0  0  0
   59.0310   34.6390   45.2640 C   0  0  0  0  0  0  0  0  0  0  0  0
   58.6800   33.9050   44.1270 C   0  0  0  0  0  0  0  0  0  0  0  0
   58.1650   32.5990   44.2510 C   0  0  0  0  0  0  0  0  0  0  0  0
   57.7890   31.8200   43.1300 C   0  0  0  0  0  0  0  0  0  0  0  0
   57.9100   32.3420   41.7210 C   0  0  0  0  0  0  0  0  0  0  0  0
   57.2880   30.5250   43.3370 C   0  0  0  0  0  0  0  0  0  0  0  0
   57.1740   30.0150   44.6350 C   0  0  0  0  0  0  0  0  0  0  0  0
   56.6060   28.6520   44.8740 C   0  0  0  0  0  0  0  0  0  0  0  0
   57.9020   27.4000   44.5850 S   0  0  0  0  0  0  0  0  0  0  0  0
   57.1460   26.0980   45.6210 C   0  0  0  0  0  0  0  0  0  0  0  0
   57.8130   26.0200   46.9640 C   0  0  0  0  0  0  0  0  0  0  0  0
   57.5170   25.0710   47.7370 O   0  0  0  0  0  0  0  0  0  0  0  0
   58.7980   26.9720   47.3890 N   0  0  0  0  0  0  0  0  0  0  0  0
   58.5450   28.1660   48.1920 C   0  0  0  0  0  0  0  0  0  0  0  0
   59.5770   29.2270   47.9200 C   0  0  0  0  0  0  0  0  0  0  0  0
   60.0020   30.0880   48.9430 C   0  0  0  0  0  0  0  0  0  0  0  0
   60.9480   31.0830   48.6830 C   0  0  0  0  0  0  0  0  0  0  0  0
   61.4870   31.2400   47.3930 C   0  0  0  0  0  0  0  0  0  0  0  0
   62.4890   32.3020   47.1340 C   0  0  0  0  0  0  0  0  0  0  0  0
   63.8760   31.9980   46.9680 N   0  0  0  0  0  0  0  0  0  0  0  0
   62.1190   33.5060   47.0720 O   0  0  0  0  0  0  0  0  0  0  0  0
   61.0380   30.3920   46.3640 C   0  0  0  0  0  0  0  0  0  0  0  0
   60.0910   29.3980   46.6250 C   0  0  0  0  0  0  0  0  0  0  0  0
   57.5270   30.7860   45.6960 N   0  0  0  0  0  0  0  0  0  0  0  0
   58.0160   32.0450   45.5450 C   0  0  0  0  0  0  0  0  0  0  0  0
   58.3690   32.7870   46.6780 C   0  0  0  0  0  0  0  0  0  0  0  0
   59.4322   34.4488   49.8726 H   0  0  0  0  0  0  0  0  0  0  0  0
   58.9920   33.0353   48.8553 H   0  0  0  0  0  0  0  0  0  0  0  0
   60.6794   33.6512   48.8553 H   0  0  0  0  0  0  0  0  0  0  0  0
   58.4485   35.5315   48.0652 H   0  0  0  0  0  0  0  0  0  0  0  0
   60.1676   35.4706   47.5163 H   0  0  0  0  0  0  0  0  0  0  0  0
   59.4391   35.6545   45.1532 H   0  0  0  0  0  0  0  0  0  0  0  0
   58.8067   34.3498   43.1290 H   0  0  0  0  0  0  0  0  0  0  0  0
   58.1583   33.4133   41.7469 H   0  0  0  0  0  0  0  0  0  0  0  0
   58.7049   31.7940   41.1940 H   0  0  0  0  0  0  0  0  0  0  0  0
   56.9550   32.1996   41.1940 H   0  0  0  0  0  0  0  0  0  0  0  0
   56.9844   29.9100   42.4770 H   0  0  0  0  0  0  0  0  0  0  0  0
   56.2496   28.5792   45.9121 H   0  0  0  0  0  0  0  0  0  0  0  0
   55.7649   28.4774   44.1869 H   0  0  0  0  0  0  0  0  0  0  0  0
   56.0792   26.3258   45.7625 H   0  0  0  0  0  0  0  0  0  0  0  0
   57.2708   25.1307   45.1124 H   0  0  0  0  0  0  0  0  0  0  0  0
   57.5487   28.5614   47.9448 H   0  0  0  0  0  0  0  0  0  0  0  0
   58.5971   27.8907   49.2557 H   0  0  0  0  0  0  0  0  0  0  0  0
   59.5878   29.9791   49.9562 H   0  0  0  0  0  0  0  0  0  0  0  0
   61.2744   31.7499   49.4947 H   0  0  0  0  0  0  0  0  0  0  0  0
   64.2580   31.0470   47.1640 H   0  0  0  0  0  0  0  0  0  0  0  0
   64.5510   32.7580   46.7330 H   0  0  0  0  0  0  0  0  0  0  0  0
   61.4357   30.5124   45.3455 H   0  0  0  0  0  0  0  0  0  0  0  0
   59.7459   28.7450   45.8099 H   0  0  0  0  0  0  0  0  0  0  0  0
   58.2551   32.3446   47.6787 H   0  0  0  0  0  0  0  0  0  0  0  0
  1  2  1  0
  2  3  1  0
  3  4  2  0
  4  5  1  0
  5  6  2  0
  6  7  1  0
  7  8  1  0
  7  9  2  0
  9 10  1  0
 10 11  1  0
 11 12  1  0
 12 13  1  0
 13 14  1  0
 14 15  2  0
 14 16  1  0
 16 17  1  0
 17 18  1  0
 18 19  2  0
 19 20  1  0
 20 21  2  0
 21 22  1  0
 22 23  1  0
 22 24  2  0
 21 25  1  0
 25 26  2  0
 10 27  2  0
 27 28  1  0
 28 29  2  0
 29  3  1  0
 28  6  1  0
 26 18  1  0
  1 30  1  0
  1 31  1  0
  1 32  1  0
  2 33  1  0
  2 34  1  0
  4 35  1  0
  5 36  1  0
  8 37  1  0
  8 38  1  0
  8 39  1  0
  9 40  1  0
 11 41  1  0
 11 42  1  0
 13 43  1  0
 13 44  1  0
 17 45  1  0
 17 46  1  0
 19 47  1  0
 20 48  1  0
 23 49  1  0
 23 50  1  0
 25 51  1  0
 26 52  1  0
 29 53  1  0
M  CHG  1  16  -1
M  END
>  <UniqueID>  (72) 
69

>  <SMILES>  (72) 
CCc1ccc2c(C)cc(CSCC(=O)[N-]Cc3ccc(C(N)=O)cc3)nc2c1

>  <Energy>  (72) 
50.31967766181644

>  <Genealogy>  (72) 
CCc1ccc2c(C)cc(CSCC(=O)[N-]Cc3ccc(C(N)=O)cc3)nc2c1 (protonated)
CCc1ccc2c(C)cc(CSCC(=O)[N-]Cc3ccc(C(N)=O)cc3)nc2c1 (3D coordinates assigned)
CCc1ccc2c(C)cc(CSCC(=O)[N-]Cc3ccc(C(N)=O)cc3)nc2c1 (optimized conformer: 50.31967766181644 kcal/mol)

>  <smiles>  (72) 
CCc1ccc2c(C)cc(CSCC(=O)NCc3ccc(C(N)=O)cc3)nc2c1

>  <score_type>  (72) 
oracle

>  <origin>  (72) 
adg

>  <m_score__min__energy>  (72) 
-10.4

>  <m_primary>  (72) 
energy

$$$$
72:0
     RDKit          3D

 37 39  0  0  0  0  0  0  0  0999 V2000
   58.4349   20.9109   46.2640 H   0  0  0  0  0  0  0  0  0  0  0  0
   57.8930   21.7950   45.8970 C   0  0  0  0  0  0  0  0  0  0  0  0
   57.3690   22.7300   46.7360 N   0  0  0  0  0  0  0  0  0  0  0  0
   56.7500   23.7210   46.0610 C   0  0  0  0  0  0  0  0  0  0  0  0
   56.1820   24.7190   46.6730 N   0  0  0  0  0  0  0  0  0  0  0  0
   56.2200   26.1120   46.3120 C   0  0  0  0  0  0  0  0  0  0  0  0
   55.1640   26.7160   45.9850 O   0  0  0  0  0  0  0  0  0  0  0  0
   57.5140   26.8400   46.3680 C   0  0  0  0  0  0  0  0  0  0  0  0
   58.5550   26.2850   47.1380 C   0  0  0  0  0  0  0  0  0  0  0  0
   58.3914   25.3341   47.6661 H   0  0  0  0  0  0  0  0  0  0  0  0
   59.7910   26.9250   47.2400 C   0  0  0  0  0  0  0  0  0  0  0  0
   60.5913   26.4794   47.8490 H   0  0  0  0  0  0  0  0  0  0  0  0
   60.0130   28.1270   46.5720 C   0  0  0  0  0  0  0  0  0  0  0  0
   60.9863   28.6323   46.6583 H   0  0  0  0  0  0  0  0  0  0  0  0
   59.0020   28.6900   45.7940 C   0  0  0  0  0  0  0  0  0  0  0  0
   59.1863   29.6383   45.2679 H   0  0  0  0  0  0  0  0  0  0  0  0
   57.7490   28.0610   45.6730 C   0  0  0  0  0  0  0  0  0  0  0  0
   56.7070   28.7110   44.7900 C   0  0  0  0  0  0  0  0  0  0  0  0
   55.7493   28.1841   44.9130 H   0  0  0  0  0  0  0  0  0  0  0  0
   57.0419   28.6522   43.7439 H   0  0  0  0  0  0  0  0  0  0  0  0
   56.5360   30.0830   45.1420 O   0  0  0  0  0  0  0  0  0  0  0  0
   57.0640   31.1480   44.4020 C   0  0  0  0  0  0  0  0  0  0  0  0
   56.9720   31.1520   43.1430 O   0  0  0  0  0  0  0  0  0  0  0  0
   57.7250   32.2690   45.1010 C   0  0  0  0  0  0  0  0  0  0  0  0
   58.1610   32.1310   46.4330 C   0  0  0  0  0  0  0  0  0  0  0  0
   58.0106   31.1780   46.9614 H   0  0  0  0  0  0  0  0  0  0  0  0
   58.7840   33.1980   47.0880 C   0  0  0  0  0  0  0  0  0  0  0  0
   59.1220   33.0811   48.1282 H   0  0  0  0  0  0  0  0  0  0  0  0
   58.9780   34.4110   46.4250 C   0  0  0  0  0  0  0  0  0  0  0  0
   59.4677   35.2490   46.9427 H   0  0  0  0  0  0  0  0  0  0  0  0
   58.5500   34.5600   45.1040 C   0  0  0  0  0  0  0  0  0  0  0  0
   58.7041   35.5159   44.5820 H   0  0  0  0  0  0  0  0  0  0  0  0
   57.9260   33.4970   44.4430 C   0  0  0  0  0  0  0  0  0  0  0  0
   57.5904   33.6214   43.4029 H   0  0  0  0  0  0  0  0  0  0  0  0
   56.8310   23.4740   44.3930 S   0  0  0  0  0  0  0  0  0  0  0  0
   57.6940   22.0380   44.5430 C   0  0  0  0  0  0  0  0  0  0  0  0
   58.0402   21.4025   43.7146 H   0  0  0  0  0  0  0  0  0  0  0  0
  1  2  1  0
  2  3  1  0
  3  4  1  0
  4  5  2  0
  5  6  1  0
  6  7  2  0
  6  8  1  0
  8  9  2  0
  9 10  1  0
  9 11  1  0
 11 12  1  0
 11 13  2  0
 13 14  1  0
 13 15  1  0
 15 16  1  0
 15 17  2  0
 17 18  1  0
 18 19  1  0
 18 20  1  0
 18 21  1  0
 21 22  1  0
 22 23  2  0
 22 24  1  0
 24 25  2  0
 25 26  1  0
 25 27  1  0
 27 28  1  0
 27 29  2  0
 29 30  1  0
 29 31  1  0
 31 32  1  0
 31 33  2  0
 33 34  1  0
  4 35  1  0
 35 36  1  0
 36 37  1  0
 36  2  2  0
 17  8  1  0
 33 24  1  0
M  CHG  1   3  -1
M  END
>  <UniqueID>  (73) 
70

>  <SMILES>  (73) 
O=C(OCc1ccccc1C(=O)/N=c1/[n-]ccs1)c1ccccc1

>  <Energy>  (73) 
77.37491447163332

>  <Genealogy>  (73) 
O=C(OCc1ccccc1C(=O)N=c1[n-]ccs1)c1ccccc1 (protonated)
O=C(OCc1ccccc1C(=O)/N=c1/[n-]ccs1)c1ccccc1 (cis-trans isomerization)
O=C(OCc1ccccc1C(=O)/N=c1/[n-]ccs1)c1ccccc1 (3D coordinates assigned)
O=C(OCc1ccccc1C(=O)/N=c1/[n-]ccs1)c1ccccc1 (optimized conformer: 77.37491447163332 kcal/mol)

>  <smiles>  (73) 
O=C(OCc1ccccc1C(=O)N=c1[nH]ccs1)c1ccccc1

>  <score_type>  (73) 
oracle

>  <origin>  (73) 
adg

>  <m_score__min__energy>  (73) 
-10.02

>  <m_primary>  (73) 
energy

$$$$
73:0
     RDKit          3D

 57 60  0  0  1  0  0  0  0  0999 V2000
   63.3540   33.8490   46.5450 C   0  0  0  0  0  0  0  0  0  0  0  0
   62.9400   33.0770   47.7190 N   0  0  0  0  0  0  0  0  0  0  0  0
   61.9850   33.8940   48.4230 C   0  0  0  0  0  0  0  0  0  0  0  0
   60.5510   33.5160   48.1750 C   0  0  1  0  0  0  0  0  0  0  0  0
   60.4010   32.6120   47.0570 N   0  0  0  0  0  0  0  0  0  0  0  0
   59.3200   32.3480   46.4480 C   0  0  0  0  0  0  0  0  0  0  0  0
   58.3950   33.3160   46.3280 N   0  0  0  0  0  0  0  0  0  0  0  0
   57.2250   33.1100   45.6970 C   0  0  0  0  0  0  0  0  0  0  0  0
   56.9510   31.9030   45.1590 N   0  0  0  0  0  0  0  0  0  0  0  0
   57.8270   30.8780   45.2360 C   0  0  0  0  0  0  0  0  0  0  0  0
   57.5030   29.6690   44.6740 C   0  0  0  0  0  0  0  0  0  0  0  0
   56.2190   29.5160   44.0040 C   0  0  0  0  0  0  0  0  0  0  0  0
   56.1080   29.2950   42.6100 N   0  0  0  0  0  0  0  0  0  0  0  0
   55.1780   29.5820   44.6940 O   0  0  0  0  0  0  0  0  0  0  0  0
   58.4220   28.6500   44.7730 C   0  0  0  0  0  0  0  0  0  0  0  0
   59.6370   28.8630   45.4290 C   0  0  0  0  0  0  0  0  0  0  0  0
   59.9350   30.1090   45.9920 C   0  0  0  0  0  0  0  0  0  0  0  0
   59.0160   31.1200   45.8890 C   0  0  0  0  0  0  0  0  0  0  0  0
   60.0940   32.7290   49.3770 C   0  0  0  0  0  0  0  0  0  0  0  0
   60.9910   32.0350   50.1480 C   0  0  0  0  0  0  0  0  0  0  0  0
   60.6430   31.2960   51.2590 C   0  0  0  0  0  0  0  0  0  0  0  0
   59.3160   31.2480   51.6220 C   0  0  0  0  0  0  0  0  0  0  0  0
   58.3920   31.9430   50.8550 C   0  0  0  0  0  0  0  0  0  0  0  0
   57.0300   31.8510   51.2880 N   0  0  0  0  0  0  0  0  0  0  0  0
   56.4510   30.6370   51.6880 C   0  0  0  0  0  0  0  0  0  0  0  0
   57.1790   29.6030   51.6550 O   0  0  0  0  0  0  0  0  0  0  0  0
   55.0660   30.5350   52.1290 C   0  0  0  0  0  0  0  0  0  0  0  0
   54.7020   30.1730   53.4090 C   0  0  0  0  0  0  0  0  0  0  0  0
   53.3840   30.0790   53.8210 C   0  0  0  0  0  0  0  0  0  0  0  0
   52.3550   30.3560   52.9210 C   0  0  0  0  0  0  0  0  0  0  0  0
   52.7270   30.7160   51.6450 C   0  0  0  0  0  0  0  0  0  0  0  0
   54.0410   30.8070   51.2460 C   0  0  0  0  0  0  0  0  0  0  0  0
   58.7670   32.6760   49.7470 C   0  0  0  0  0  0  0  0  0  0  0  0
   63.8505   34.7748   46.8713 H   0  0  0  0  0  0  0  0  0  0  0  0
   64.0527   33.2515   45.9410 H   0  0  0  0  0  0  0  0  0  0  0  0
   62.4697   34.1005   45.9410 H   0  0  0  0  0  0  0  0  0  0  0  0
   62.5060   32.2120   47.3200 H   0  0  0  0  0  0  0  0  0  0  0  0
   62.1837   33.8058   49.5013 H   0  0  0  0  0  0  0  0  0  0  0  0
   62.1108   34.9211   48.0497 H   0  0  0  0  0  0  0  0  0  0  0  0
   59.9870   34.4401   47.9803 H   0  0  0  0  0  0  0  0  0  0  0  0
   58.5660   34.2420   46.7230 H   0  0  0  0  0  0  0  0  0  0  0  0
   56.4912   33.9258   45.6195 H   0  0  0  0  0  0  0  0  0  0  0  0
   55.8190   30.0530   41.9360 H   0  0  0  0  0  0  0  0  0  0  0  0
   56.3250   28.3350   42.2440 H   0  0  0  0  0  0  0  0  0  0  0  0
   58.1998   27.6658   44.3349 H   0  0  0  0  0  0  0  0  0  0  0  0
   60.3666   28.0432   45.5037 H   0  0  0  0  0  0  0  0  0  0  0  0
   60.8918   30.2741   46.5090 H   0  0  0  0  0  0  0  0  0  0  0  0
   62.0528   32.0700   49.8628 H   0  0  0  0  0  0  0  0  0  0  0  0
   61.4065   30.7584   51.8405 H   0  0  0  0  0  0  0  0  0  0  0  0
   58.9949   30.6708   52.5016 H   0  0  0  0  0  0  0  0  0  0  0  0
   56.4940   32.7410   51.2880 H   0  0  0  0  0  0  0  0  0  0  0  0
   55.4961   29.9485   54.1364 H   0  0  0  0  0  0  0  0  0  0  0  0
   53.1487   29.7867   54.8550 H   0  0  0  0  0  0  0  0  0  0  0  0
   51.2974   30.2901   53.2163 H   0  0  0  0  0  0  0  0  0  0  0  0
   51.9385   30.9409   50.9117 H   0  0  0  0  0  0  0  0  0  0  0  0
   54.2767   31.0997   50.2122 H   0  0  0  0  0  0  0  0  0  0  0  0
   58.0091   33.2164   49.1609 H   0  0  0  0  0  0  0  0  0  0  0  0
  1  2  1  0
  2  3  1  0
  3  4  1  0
  4  5  1  0
  5  6  2  0
  6  7  1  0
  7  8  1  0
  8  9  2  0
  9 10  1  0
 10 11  2  0
 11 12  1  0
 12 13  1  0
 12 14  2  0
 11 15  1  0
 15 16  2  0
 16 17  1  0
 17 18  2  0
  4 19  1  0
 19 20  2  0
 20 21  1  0
 21 22  2  0
 22 23  1  0
 23 24  1  0
 24 25  1  0
 25 26  2  0
 25 27  1  0
 27 28  2  0
 28 29  1  0
 29 30  2  0
 30 31  1  0
 31 32  2  0
 23 33  2  0
 18  6  1  0
 33 19  1  0
 18 10  1  0
 32 27  1  0
  1 34  1  0
  1 35  1  0
  1 36  1  0
  2 37  1  0
  3 38  1  0
  3 39  1  0
  4 40  1  6
  7 41  1  0
  8 42  1  0
 13 43  1  0
 13 44  1  0
 15 45  1  0
 16 46  1  0
 17 47  1  0
 20 48  1  0
 21 49  1  0
 22 50  1  0
 24 51  1  0
 28 52  1  0
 29 53  1  0
 30 54  1  0
 31 55  1  0
 32 56  1  0
 33 57  1  0
M  END
>  <smiles>  (74) 
CNCC(N=c1[nH]cnc2c(C(N)=O)cccc12)c1cccc(NC(=O)c2ccccc2)c1

>  <score_type>  (74) 
oracle

>  <origin>  (74) 
adg

>  <m_score__min__energy>  (74) 
-9.9000000000000004

>  <m_primary>  (74) 
energy

$$$$
74:0
     RDKit          3D

 39 40  0  0  0  0  0  0  0  0999 V2000
   58.9090   29.1720   48.3750 C   0  0  0  0  0  0  0  0  0  0  0  0
   59.6740   30.4740   48.5760 C   0  0  0  0  0  0  0  0  0  0  0  0
   60.8960   30.4610   47.8390 O   0  0  0  0  0  0  0  0  0  0  0  0
   61.7330   31.5650   47.6090 C   0  0  0  0  0  0  0  0  0  0  0  0
   63.0700   31.5990   48.0590 C   0  0  0  0  0  0  0  0  0  0  0  0
   63.8530   32.7370   47.8660 C   0  0  0  0  0  0  0  0  0  0  0  0
   63.3170   33.8580   47.2320 C   0  0  0  0  0  0  0  0  0  0  0  0
   61.9980   33.8380   46.7770 C   0  0  0  0  0  0  0  0  0  0  0  0
   61.2070   32.6900   46.9370 C   0  0  0  0  0  0  0  0  0  0  0  0
   59.8510   32.7130   46.4660 N   0  0  0  0  0  0  0  0  0  0  0  0
   58.9840   33.8480   46.6090 C   0  0  0  0  0  0  0  0  0  0  0  0
   59.3220   34.8260   47.3290 O   0  0  0  0  0  0  0  0  0  0  0  0
   57.6670   33.8840   45.8960 C   0  0  0  0  0  0  0  0  0  0  0  0
   57.8580   33.3680   44.1550 S   0  0  0  0  0  0  0  0  0  0  0  0
   57.7000   31.6170   44.4980 C   0  0  0  0  0  0  0  0  0  0  0  0
   56.4680   31.0540   44.5850 N   0  0  0  0  0  0  0  0  0  0  0  0
   56.3180   29.7260   44.8170 C   0  0  0  0  0  0  0  0  0  0  0  0
   55.1580   29.2390   44.8830 O   0  0  0  0  0  0  0  0  0  0  0  0
   57.4490   28.9130   44.9770 C   0  0  0  0  0  0  0  0  0  0  0  0
   57.3040   27.4950   45.2210 C   0  0  0  0  0  0  0  0  0  0  0  0
   57.1880   26.3600   45.4150 N   0  0  0  0  0  0  0  0  0  0  0  0
   58.7190   29.5160   44.8950 C   0  0  0  0  0  0  0  0  0  0  0  0
   59.9810   28.7210   45.0550 C   0  0  0  0  0  0  0  0  0  0  0  0
   58.8100   30.8520   44.6570 N   0  0  0  0  0  0  0  0  0  0  0  0
   58.6556   28.7407   49.3546 H   0  0  0  0  0  0  0  0  0  0  0  0
   57.9852   29.3726   47.8126 H   0  0  0  0  0  0  0  0  0  0  0  0
   59.5339   28.4626   47.8126 H   0  0  0  0  0  0  0  0  0  0  0  0
   59.0534   31.3142   48.2311 H   0  0  0  0  0  0  0  0  0  0  0  0
   59.9075   30.5851   49.6452 H   0  0  0  0  0  0  0  0  0  0  0  0
   63.4979   30.7215   48.5658 H   0  0  0  0  0  0  0  0  0  0  0  0
   64.8962   32.7506   48.2147 H   0  0  0  0  0  0  0  0  0  0  0  0
   63.9340   34.7576   47.0907 H   0  0  0  0  0  0  0  0  0  0  0  0
   61.5752   34.7287   46.2893 H   0  0  0  0  0  0  0  0  0  0  0  0
   59.4420   31.8220   46.1060 H   0  0  0  0  0  0  0  0  0  0  0  0
   56.9657   33.2023   46.3993 H   0  0  0  0  0  0  0  0  0  0  0  0
   57.2820   34.9142   45.9182 H   0  0  0  0  0  0  0  0  0  0  0  0
   60.1959   28.5856   46.1253 H   0  0  0  0  0  0  0  0  0  0  0  0
   59.8575   27.7373   44.5785 H   0  0  0  0  0  0  0  0  0  0  0  0
   60.8150   29.2571   44.5785 H   0  0  0  0  0  0  0  0  0  0  0  0
  1  2  1  0
  2  3  1  0
  3  4  1  0
  4  5  2  0
  5  6  1  0
  6  7  2  0
  7  8  1  0
  8  9  2  0
  9 10  1  0
 10 11  1  0
 11 12  2  0
 11 13  1  0
 13 14  1  0
 14 15  1  0
 15 16  2  0
 16 17  1  0
 17 18  2  0
 17 19  1  0
 19 20  1  0
 20 21  3  0
 19 22  2  0
 22 23  1  0
 22 24  1  0
  9  4  1  0
 24 15  1  0
  1 25  1  0
  1 26  1  0
  1 27  1  0
  2 28  1  0
  2 29  1  0
  5 30  1  0
  6 31  1  0
  7 32  1  0
  8 33  1  0
 10 34  1  0
 13 35  1  0
 13 36  1  0
 23 37  1  0
 23 38  1  0
 23 39  1  0
M  CHG  1  24  -1
M  END
>  <UniqueID>  (75) 
71

>  <SMILES>  (75) 
CCOc1ccccc1NC(=O)CSc1nc(=O)c(C#N)c(C)[n-]1

>  <Energy>  (75) 
35.63286308554338

>  <Genealogy>  (75) 
CCOc1ccccc1NC(=O)CSc1nc(=O)c(C#N)c(C)[n-]1 (protonated)
CCOc1ccccc1NC(=O)CSc1nc(=O)c(C#N)c(C)[n-]1 (3D coordinates assigned)
CCOc1ccccc1NC(=O)CSc1nc(=O)c(C#N)c(C)[n-]1 (optimized conformer: 35.63286308554338 kcal/mol)

>  <smiles>  (75) 
CCOc1ccccc1NC(=O)CSc1nc(=O)c(C#N)c(C)[nH]1

>  <score_type>  (75) 
oracle

>  <origin>  (75) 
adg

>  <m_score__min__energy>  (75) 
-8.4700000000000006

>  <m_primary>  (75) 
energy

$$$$
75:0
     RDKit          3D

 43 45  0  0  0  0  0  0  0  0999 V2000
   57.3070   29.8600   43.5610 O   0  0  0  0  0  0  0  0  0  0  0  0
   58.1740   30.2150   44.4050 C   0  0  0  0  0  0  0  0  0  0  0  0
   59.2720   29.3390   44.7070 N   0  0  0  0  0  0  0  0  0  0  0  0
   59.2630   27.9250   44.3440 C   0  0  0  0  0  0  0  0  0  0  0  0
   58.3810   27.1570   45.2900 C   0  0  0  0  0  0  0  0  0  0  0  0
   58.9360   26.2570   46.2160 C   0  0  0  0  0  0  0  0  0  0  0  0
   58.1050   25.5250   47.0690 C   0  0  0  0  0  0  0  0  0  0  0  0
   56.7180   25.6800   47.0000 C   0  0  0  0  0  0  0  0  0  0  0  0
   56.1570   26.5660   46.0760 C   0  0  0  0  0  0  0  0  0  0  0  0
   54.7780   26.7140   46.0030 O   0  0  0  0  0  0  0  0  0  0  0  0
   56.9850   27.3020   45.2210 C   0  0  0  0  0  0  0  0  0  0  0  0
   58.0520   31.5340   45.0660 C   0  0  0  0  0  0  0  0  0  0  0  0
   57.1230   32.4780   44.5940 C   0  0  0  0  0  0  0  0  0  0  0  0
   56.9940   33.7180   45.2220 C   0  0  0  0  0  0  0  0  0  0  0  0
   57.7860   34.0320   46.3280 C   0  0  0  0  0  0  0  0  0  0  0  0
   58.7210   33.1070   46.8150 C   0  0  0  0  0  0  0  0  0  0  0  0
   59.5060   33.4380   47.9750 N   0  0  0  0  0  0  0  0  0  0  0  0
   60.9430   33.4940   47.9780 C   0  0  0  0  0  0  0  0  0  0  0  0
   61.6350   33.3950   46.7590 C   0  0  0  0  0  0  0  0  0  0  0  0
   63.0240   33.5200   46.7180 C   0  0  0  0  0  0  0  0  0  0  0  0
   63.7370   33.7600   47.8900 C   0  0  0  0  0  0  0  0  0  0  0  0
   63.0660   33.8690   49.1090 C   0  0  0  0  0  0  0  0  0  0  0  0
   61.6660   33.7320   49.1750 C   0  0  0  0  0  0  0  0  0  0  0  0
   61.0070   33.8040   50.5030 C   0  0  0  0  0  0  0  0  0  0  0  0
   61.6760   33.7190   51.5670 O   0  0  0  0  0  0  0  0  0  0  0  0
   59.6340   34.0050   50.5930 O   0  0  0  0  0  0  0  0  0  0  0  0
   58.8350   31.8510   46.1900 C   0  0  0  0  0  0  0  0  0  0  0  0
   60.1190   29.7170   45.1890 H   0  0  0  0  0  0  0  0  0  0  0  0
   58.8807   27.8145   43.3185 H   0  0  0  0  0  0  0  0  0  0  0  0
   60.2879   27.5300   44.4044 H   0  0  0  0  0  0  0  0  0  0  0  0
   60.0271   26.1283   46.2696 H   0  0  0  0  0  0  0  0  0  0  0  0
   58.5437   24.8257   47.7959 H   0  0  0  0  0  0  0  0  0  0  0  0
   56.0668   25.1039   47.6738 H   0  0  0  0  0  0  0  0  0  0  0  0
   56.5415   27.9965   44.4923 H   0  0  0  0  0  0  0  0  0  0  0  0
   56.4938   32.2379   43.7243 H   0  0  0  0  0  0  0  0  0  0  0  0
   56.2656   34.4505   44.8440 H   0  0  0  0  0  0  0  0  0  0  0  0
   57.6761   35.0097   46.8199 H   0  0  0  0  0  0  0  0  0  0  0  0
   59.0070   33.7050   48.8550 H   0  0  0  0  0  0  0  0  0  0  0  0
   61.0763   33.2173   45.8283 H   0  0  0  0  0  0  0  0  0  0  0  0
   63.5561   33.4290   45.7596 H   0  0  0  0  0  0  0  0  0  0  0  0
   64.8315   33.8639   47.8549 H   0  0  0  0  0  0  0  0  0  0  0  0
   63.6372   34.0641   50.0286 H   0  0  0  0  0  0  0  0  0  0  0  0
   59.5445   31.1092   46.5853 H   0  0  0  0  0  0  0  0  0  0  0  0
  1  2  2  0
  2  3  1  0
  3  4  1  0
  4  5  1  0
  5  6  2  0
  6  7  1  0
  7  8  2  0
  8  9  1  0
  9 10  1  0
  9 11  2  0
  2 12  1  0
 12 13  2  0
 13 14  1  0
 14 15  2  0
 15 16  1  0
 16 17  1  0
 17 18  1  0
 18 19  2  0
 19 20  1  0
 20 21  2  0
 21 22  1  0
 22 23  2  0
 23 24  1  0
 24 25  2  0
 24 26  1  0
 16 27  2  0
 11  5  1  0
 27 12  1  0
 23 18  1  0
  3 28  1  0
  4 29  1  0
  4 30  1  0
  6 31  1  0
  7 32  1  0
  8 33  1  0
 11 34  1  0
 13 35  1  0
 14 36  1  0
 15 37  1  0
 17 38  1  0
 19 39  1  0
 20 40  1  0
 21 41  1  0
 22 42  1  0
 27 43  1  0
M  CHG  2  10  -1  26  -1
M  END
>  <UniqueID>  (76) 
72

>  <SMILES>  (76) 
O=C(NCc1cccc([O-])c1)c1cccc(Nc2ccccc2C(=O)[O-])c1

>  <Energy>  (76) 
54.6549627706961

>  <Genealogy>  (76) 
O=C(NCc1cccc([O-])c1)c1cccc(Nc2ccccc2C(=O)[O-])c1 (protonated)
O=C(NCc1cccc([O-])c1)c1cccc(Nc2ccccc2C(=O)[O-])c1 (3D coordinates assigned)
O=C(NCc1cccc([O-])c1)c1cccc(Nc2ccccc2C(=O)[O-])c1 (optimized conformer: 54.6549627706961 kcal/mol)

>  <smiles>  (76) 
O=C(NCc1cccc(O)c1)c1cccc(Nc2ccccc2C(=O)O)c1

>  <score_type>  (76) 
oracle

>  <origin>  (76) 
adg

>  <m_score__min__energy>  (76) 
-14.56

>  <m_primary>  (76) 
energy

$$$$
76:0
     RDKit          3D

 46 49  0  0  0  0  0  0  0  0999 V2000
   57.8710   28.1850   43.7530 C   0  0  0  0  0  0  0  0  0  0  0  0
   57.6370   29.6330   44.0570 C   0  0  0  0  0  0  0  0  0  0  0  0
   58.6070   30.5470   43.7870 N   0  0  0  0  0  0  0  0  0  0  0  0
   58.4270   31.8420   44.0450 N   0  0  0  0  0  0  0  0  0  0  0  0
   57.2650   32.2880   44.5880 C   0  0  0  0  0  0  0  0  0  0  0  0
   57.0410   34.0300   44.9260 S   0  0  0  0  0  0  0  0  0  0  0  0
   58.8250   34.3860   44.8850 C   0  0  0  0  0  0  0  0  0  0  0  0
   59.4700   33.8050   46.1010 C   0  0  0  0  0  0  0  0  0  0  0  0
   59.7270   34.5510   47.0840 O   0  0  0  0  0  0  0  0  0  0  0  0
   59.8090   32.4120   46.1370 N   0  0  0  0  0  0  0  0  0  0  0  0
   60.6450   31.8470   47.1560 C   0  0  0  0  0  0  0  0  0  0  0  0
   60.4990   30.6010   47.7660 C   0  0  0  0  0  0  0  0  0  0  0  0
   59.4090   29.6350   47.5710 C   0  0  0  0  0  0  0  0  0  0  0  0
   58.2610   30.0310   47.2340 O   0  0  0  0  0  0  0  0  0  0  0  0
   59.6800   28.2370   47.7320 N   0  0  0  0  0  0  0  0  0  0  0  0
   59.0180   27.1540   47.0620 C   0  0  0  0  0  0  0  0  0  0  0  0
   57.6200   27.1230   46.8930 C   0  0  0  0  0  0  0  0  0  0  0  0
   57.0140   26.0360   46.2540 C   0  0  0  0  0  0  0  0  0  0  0  0
   57.7920   24.9690   45.7950 C   0  0  0  0  0  0  0  0  0  0  0  0
   59.1760   24.9830   45.9820 C   0  0  0  0  0  0  0  0  0  0  0  0
   59.7850   26.0690   46.6200 C   0  0  0  0  0  0  0  0  0  0  0  0
   61.5060   30.3930   48.5980 O   0  0  0  0  0  0  0  0  0  0  0  0
   62.3000   31.4380   48.5410 C   0  0  0  0  0  0  0  0  0  0  0  0
   63.4920   31.6330   49.2330 C   0  0  0  0  0  0  0  0  0  0  0  0
   64.2100   32.8190   48.9880 C   0  0  0  0  0  0  0  0  0  0  0  0
   63.7280   33.7670   48.0580 C   0  0  0  0  0  0  0  0  0  0  0  0
   62.5200   33.5440   47.3730 C   0  0  0  0  0  0  0  0  0  0  0  0
   61.8180   32.3710   47.6580 C   0  0  0  0  0  0  0  0  0  0  0  0
   56.2730   31.4060   44.8690 N   0  0  0  0  0  0  0  0  0  0  0  0
   56.4340   30.0830   44.6160 C   0  0  0  0  0  0  0  0  0  0  0  0
   55.5020   29.2780   44.8840 O   0  0  0  0  0  0  0  0  0  0  0  0
   57.9619   27.6228   44.6941 H   0  0  0  0  0  0  0  0  0  0  0  0
   57.0248   27.7912   43.1708 H   0  0  0  0  0  0  0  0  0  0  0  0
   58.7981   28.0777   43.1708 H   0  0  0  0  0  0  0  0  0  0  0  0
   59.2689   33.9383   43.9836 H   0  0  0  0  0  0  0  0  0  0  0  0
   58.9843   35.4742   44.8664 H   0  0  0  0  0  0  0  0  0  0  0  0
   59.3860   31.7730   45.4290 H   0  0  0  0  0  0  0  0  0  0  0  0
   57.0036   27.9550   47.2641 H   0  0  0  0  0  0  0  0  0  0  0  0
   55.9233   26.0208   46.1124 H   0  0  0  0  0  0  0  0  0  0  0  0
   57.3142   24.1186   45.2866 H   0  0  0  0  0  0  0  0  0  0  0  0
   59.7873   24.1400   45.6276 H   0  0  0  0  0  0  0  0  0  0  0  0
   60.8740   26.0706   46.7755 H   0  0  0  0  0  0  0  0  0  0  0  0
   63.8614   30.8839   49.9488 H   0  0  0  0  0  0  0  0  0  0  0  0
   65.1518   33.0086   49.5238 H   0  0  0  0  0  0  0  0  0  0  0  0
   64.3016   34.6862   47.8682 H   0  0  0  0  0  0  0  0  0  0  0  0
   62.1411   34.2690   46.6377 H   0  0  0  0  0  0  0  0  0  0  0  0
  1  2  1  0
  2  3  2  0
  3  4  1  0
  4  5  1  0
  5  6  1  0
  6  7  1  0
  7  8  1  0
  8  9  2  0
  8 10  1  0
 10 11  1  0
 11 12  2  0
 12 13  1  0
 13 14  2  0
 13 15  1  0
 15 16  1  0
 16 17  2  0
 17 18  1  0
 18 19  2  0
 19 20  1  0
 20 21  2  0
 12 22  1  0
 22 23  1  0
 23 24  2  0
 24 25  1  0
 25 26  2  0
 26 27  1  0
 27 28  2  0
  5 29  2  0
 29 30  1  0
 30 31  2  0
 30  2  1  0
 28 11  1  0
 21 16  1  0
 28 23  1  0
  1 32  1  0
  1 33  1  0
  1 34  1  0
  7 35  1  0
  7 36  1  0
 10 37  1  0
 17 38  1  0
 18 39  1  0
 19 40  1  0
 20 41  1  0
 21 42  1  0
 24 43  1  0
 25 44  1  0
 26 45  1  0
 27 46  1  0
M  CHG  2   4  -1  15  -1
M  END
>  <UniqueID>  (77) 
73

>  <SMILES>  (77) 
Cc1n[n-]c(SCC(=O)Nc2c(C(=O)[N-]c3ccccc3)oc3ccccc23)nc1=O

>  <Energy>  (77) 
89.45187008375136

>  <Genealogy>  (77) 
Cc1n[n-]c(SCC(=O)Nc2c(C(=O)[N-]c3ccccc3)oc3ccccc23)nc1=O (protonated)
Cc1n[n-]c(SCC(=O)Nc2c(C(=O)[N-]c3ccccc3)oc3ccccc23)nc1=O (3D coordinates assigned)
Cc1n[n-]c(SCC(=O)Nc2c(C(=O)[N-]c3ccccc3)oc3ccccc23)nc1=O (optimized conformer: 89.45187008375136 kcal/mol)

>  <smiles>  (77) 
Cc1n[nH]c(SCC(=O)Nc2c(C(=O)Nc3ccccc3)oc3ccccc23)nc1=O

>  <score_type>  (77) 
oracle

>  <origin>  (77) 
adg

>  <m_score__min__energy>  (77) 
-11.07

>  <m_primary>  (77) 
energy

$$$$
77:0
     RDKit          3D

 54 58  0  0  0  0  0  0  0  0999 V2000
   56.2940   24.7820   47.5500 O   0  0  0  0  0  0  0  0  0  0  0  0
   56.5640   25.7160   46.7450 C   0  0  0  0  0  0  0  0  0  0  0  0
   56.1340   25.6350   45.3810 N   0  0  0  0  0  0  0  0  0  0  0  0
   55.4230   24.4780   44.8460 C   0  0  0  0  0  0  0  0  0  0  0  0
   56.4020   23.4130   44.4290 C   0  0  0  0  0  0  0  0  0  0  0  0
   56.1070   22.5740   43.3430 C   0  0  0  0  0  0  0  0  0  0  0  0
   57.0220   21.5980   42.9370 C   0  0  0  0  0  0  0  0  0  0  0  0
   58.2380   21.4550   43.6120 C   0  0  0  0  0  0  0  0  0  0  0  0
   58.5420   22.2910   44.6900 C   0  0  0  0  0  0  0  0  0  0  0  0
   57.6310   23.2690   45.0970 C   0  0  0  0  0  0  0  0  0  0  0  0
   57.3300   26.8140   47.1530 O   0  0  0  0  0  0  0  0  0  0  0  0
   58.0300   27.6750   46.2960 C   0  0  0  0  0  0  0  0  0  0  0  0
   58.9510   27.1210   45.4000 C   0  0  0  0  0  0  0  0  0  0  0  0
   59.6660   27.9400   44.5220 C   0  0  0  0  0  0  0  0  0  0  0  0
   59.4540   29.3200   44.5220 C   0  0  0  0  0  0  0  0  0  0  0  0
   58.5130   29.8900   45.3920 C   0  0  0  0  0  0  0  0  0  0  0  0
   58.2730   31.3520   45.3800 C   0  0  0  0  0  0  0  0  0  0  0  0
   57.6560   31.9750   44.2810 C   0  0  0  0  0  0  0  0  0  0  0  0
   57.0930   31.0650   42.8820 Cl  0  0  0  0  0  0  0  0  0  0  0  0
   57.4310   33.3480   44.3200 C   0  0  0  0  0  0  0  0  0  0  0  0
   57.8230   34.0640   45.4030 N   0  0  0  0  0  0  0  0  0  0  0  0
   58.4340   33.4980   46.4450 N   0  0  0  0  0  0  0  0  0  0  0  0
   58.7830   34.3090   47.5100 O   0  0  0  0  0  0  0  0  0  0  0  0
   60.0720   34.3550   48.0090 N   0  0  0  0  0  0  0  0  0  0  0  0
   60.4610   34.1140   49.3660 C   0  0  0  0  0  0  0  0  0  0  0  0
   59.6750   34.1470   50.3490 O   0  0  0  0  0  0  0  0  0  0  0  0
   61.8710   33.7450   49.4190 C   0  0  0  0  0  0  0  0  0  0  0  0
   62.6860   33.4210   50.5010 C   0  0  0  0  0  0  0  0  0  0  0  0
   64.0200   33.0620   50.2390 C   0  0  0  0  0  0  0  0  0  0  0  0
   64.5040   33.0260   48.9130 C   0  0  0  0  0  0  0  0  0  0  0  0
   63.6590   33.3500   47.8370 C   0  0  0  0  0  0  0  0  0  0  0  0
   62.3440   33.7110   48.1230 C   0  0  0  0  0  0  0  0  0  0  0  0
   61.2370   34.0610   47.2400 C   0  0  0  0  0  0  0  0  0  0  0  0
   61.2720   34.0700   45.9820 O   0  0  0  0  0  0  0  0  0  0  0  0
   58.6460   32.1460   46.4800 C   0  0  0  0  0  0  0  0  0  0  0  0
   59.1650   31.6130   47.4990 O   0  0  0  0  0  0  0  0  0  0  0  0
   57.8040   29.0650   46.2790 C   0  0  0  0  0  0  0  0  0  0  0  0
   56.3490   26.4330   44.7430 H   0  0  0  0  0  0  0  0  0  0  0  0
   54.7536   24.0734   45.6194 H   0  0  0  0  0  0  0  0  0  0  0  0
   54.8377   24.7907   43.9687 H   0  0  0  0  0  0  0  0  0  0  0  0
   55.1517   22.6849   42.8090 H   0  0  0  0  0  0  0  0  0  0  0  0
   56.7851   20.9423   42.0861 H   0  0  0  0  0  0  0  0  0  0  0  0
   58.9557   20.6842   43.2945 H   0  0  0  0  0  0  0  0  0  0  0  0
   59.5000   22.1788   45.2188 H   0  0  0  0  0  0  0  0  0  0  0  0
   57.8759   23.9284   45.9427 H   0  0  0  0  0  0  0  0  0  0  0  0
   59.1134   26.0331   45.3867 H   0  0  0  0  0  0  0  0  0  0  0  0
   60.3970   27.4967   43.8298 H   0  0  0  0  0  0  0  0  0  0  0  0
   60.0270   29.9625   43.8373 H   0  0  0  0  0  0  0  0  0  0  0  0
   56.9370   33.8506   43.4754 H   0  0  0  0  0  0  0  0  0  0  0  0
   62.2976   33.4452   51.5299 H   0  0  0  0  0  0  0  0  0  0  0  0
   64.6911   32.8075   51.0726 H   0  0  0  0  0  0  0  0  0  0  0  0
   65.5493   32.7425   48.7205 H   0  0  0  0  0  0  0  0  0  0  0  0
   64.0252   33.3194   46.8002 H   0  0  0  0  0  0  0  0  0  0  0  0
   57.0669   29.5071   46.9655 H   0  0  0  0  0  0  0  0  0  0  0  0
  1  2  2  0
  2  3  1  0
  3  4  1  0
  4  5  1  0
  5  6  2  0
  6  7  1  0
  7  8  2  0
  8  9  1  0
  9 10  2  0
  2 11  1  0
 11 12  1  0
 12 13  2  0
 13 14  1  0
 14 15  2  0
 15 16  1  0
 16 17  1  0
 17 18  2  0
 18 19  1  0
 18 20  1  0
 20 21  2  0
 21 22  1  0
 22 23  1  0
 23 24  1  0
 24 25  1  0
 25 26  2  0
 25 27  1  0
 27 28  2  0
 28 29  1  0
 29 30  2  0
 30 31  1  0
 31 32  2  0
 32 33  1  0
 33 34  2  0
 22 35  1  0
 35 36  2  0
 16 37  2  0
 10  5  1  0
 37 12  1  0
 35 17  1  0
 33 24  1  0
 32 27  1  0
  3 38  1  0
  4 39  1  0
  4 40  1  0
  6 41  1  0
  7 42  1  0
  8 43  1  0
  9 44  1  0
 10 45  1  0
 13 46  1  0
 14 47  1  0
 15 48  1  0
 20 49  1  0
 28 50  1  0
 29 51  1  0
 30 52  1  0
 31 53  1  0
 37 54  1  0
M  END
>  <UniqueID>  (78) 
74

>  <SMILES>  (78) 
O=C(NCc1ccccc1)Oc1cccc(-c2c(Cl)cnn(ON3C(=O)c4ccccc4C3=O)c2=O)c1

>  <Energy>  (78) 
111.87007188928675

>  <Genealogy>  (78) 
O=C(NCc1ccccc1)Oc1cccc(-c2c(Cl)cnn(ON3C(=O)c4ccccc4C3=O)c2=O)c1 (3D coordinates assigned)
O=C(NCc1ccccc1)Oc1cccc(-c2c(Cl)cnn(ON3C(=O)c4ccccc4C3=O)c2=O)c1 (nonaromatic ring conformer: 111.87007188928675 kcal/mol)

>  <smiles>  (78) 
O=C(NCc1ccccc1)Oc1cccc(-c2c(Cl)cnn(ON3C(=O)c4ccccc4C3=O)c2=O)c1

>  <score_type>  (78) 
oracle

>  <origin>  (78) 
adg

>  <m_score__min__energy>  (78) 
-11.23

>  <m_primary>  (78) 
energy

$$$$
78:0
     RDKit          3D

 42 44  0  0  0  0  0  0  0  0999 V2000
   60.0258   25.9548   45.5386 H   0  0  0  0  0  0  0  0  0  0  0  0
   59.5670   26.7010   46.2040 C   0  0  0  0  0  0  0  0  0  0  0  0
   60.1970   27.0970   47.2700 N   0  0  0  0  0  0  0  0  0  0  0  0
   60.1510   28.4100   47.8540 C   0  0  0  0  0  0  0  0  0  0  0  0
   60.7500   29.4650   47.1540 C   0  0  0  0  0  0  0  0  0  0  0  0
   61.2398   29.2700   46.1886 H   0  0  0  0  0  0  0  0  0  0  0  0
   60.7310   30.7630   47.6710 C   0  0  0  0  0  0  0  0  0  0  0  0
   61.2117   31.5796   47.1123 H   0  0  0  0  0  0  0  0  0  0  0  0
   60.1060   31.0330   48.8930 C   0  0  0  0  0  0  0  0  0  0  0  0
   60.1180   32.3780   49.3880 N   0  0  0  0  0  0  0  0  0  0  0  0
   60.1620   33.8050   48.4030 S   0  0  0  0  0  0  0  0  0  0  0  0
   59.5420   34.9450   49.1620 O   0  0  0  0  0  0  0  0  0  0  0  0
   61.5940   34.1430   48.0920 O   0  0  0  0  0  0  0  0  0  0  0  0
   59.2470   33.5450   46.9220 C   0  0  0  0  0  0  0  0  0  0  0  0
   59.6180   34.2090   45.7430 C   0  0  0  0  0  0  0  0  0  0  0  0
   60.4832   34.8882   45.7446 H   0  0  0  0  0  0  0  0  0  0  0  0
   58.8900   34.0090   44.5660 C   0  0  0  0  0  0  0  0  0  0  0  0
   59.1829   34.5318   43.6435 H   0  0  0  0  0  0  0  0  0  0  0  0
   57.7910   33.1460   44.5600 C   0  0  0  0  0  0  0  0  0  0  0  0
   57.2184   32.9911   43.6337 H   0  0  0  0  0  0  0  0  0  0  0  0
   57.4190   32.4790   45.7320 C   0  0  0  0  0  0  0  0  0  0  0  0
   56.5543   31.7991   45.7266 H   0  0  0  0  0  0  0  0  0  0  0  0
   58.1460   32.6760   46.9110 C   0  0  0  0  0  0  0  0  0  0  0  0
   57.8537   32.1485   47.8309 H   0  0  0  0  0  0  0  0  0  0  0  0
   59.4860   29.9830   49.5920 C   0  0  0  0  0  0  0  0  0  0  0  0
   58.9822   30.1853   50.5487 H   0  0  0  0  0  0  0  0  0  0  0  0
   59.5060   28.6820   49.0780 C   0  0  0  0  0  0  0  0  0  0  0  0
   59.0162   27.8673   49.6314 H   0  0  0  0  0  0  0  0  0  0  0  0
   58.2420   27.2510   45.8890 C   0  0  0  0  0  0  0  0  0  0  0  0
   57.9500   28.7950   45.2730 S   0  0  0  0  0  0  0  0  0  0  0  0
   56.2880   28.5630   45.2340 C   0  0  0  0  0  0  0  0  0  0  0  0
   55.4460   29.4600   44.8250 N   0  0  0  0  0  0  0  0  0  0  0  0
   55.5270   30.0980   43.5170 C   0  0  0  0  0  0  0  0  0  0  0  0
   55.6646   31.1818   43.6456 H   0  0  0  0  0  0  0  0  0  0  0  0
   56.3798   29.6837   42.9592 H   0  0  0  0  0  0  0  0  0  0  0  0
   54.5978   29.9100   42.9592 H   0  0  0  0  0  0  0  0  0  0  0  0
   55.9290   27.3360   45.6780 N   0  0  0  0  0  0  0  0  0  0  0  0
   57.0140   26.5990   46.0420 C   0  0  0  0  0  0  0  0  0  0  0  0
   56.8670   25.2080   46.5700 C   0  0  0  0  0  0  0  0  0  0  0  0
   56.8694   25.2311   47.6698 H   0  0  0  0  0  0  0  0  0  0  0  0
   55.9185   24.7791   46.2144 H   0  0  0  0  0  0  0  0  0  0  0  0
   57.7049   24.5904   46.2144 H   0  0  0  0  0  0  0  0  0  0  0  0
  1  2  1  0
  2  3  2  3
  3  4  1  0
  4  5  2  0
  5  6  1  0
  5  7  1  0
  7  8  1  0
  7  9  2  0
  9 10  1  0
 10 11  1  0
 11 12  2  0
 11 13  2  0
 11 14  1  0
 14 15  2  0
 15 16  1  0
 15 17  1  0
 17 18  1  0
 17 19  2  0
 19 20  1  0
 19 21  1  0
 21 22  1  0
 21 23  2  0
 23 24  1  0
  9 25  1  0
 25 26  1  0
 25 27  2  0
 27 28  1  0
  2 29  1  0
 29 30  1  0
 30 31  1  0
 31 32  2  0
 32 33  1  0
 33 34  1  0
 33 35  1  0
 33 36  1  0
 31 37  1  0
 37 38  1  0
 38 39  1  0
 39 40  1  0
 39 41  1  0
 39 42  1  0
 27  4  1  0
 38 29  2  0
 23 14  1  0
M  CHG  2  10  -1  37  -1
M  END
>  <UniqueID>  (79) 
75

>  <SMILES>  (79) 
C/N=c1\[n-]c(C)c(C=Nc2ccc([N-]S(=O)(=O)c3ccccc3)cc2)s1

>  <Energy>  (79) 
76.66875537390307

>  <Genealogy>  (79) 
CN=c1[n-]c(C)c(C=Nc2ccc([N-]S(=O)(=O)c3ccccc3)cc2)s1 (protonated)
C/N=c1\[n-]c(C)c(C=Nc2ccc([N-]S(=O)(=O)c3ccccc3)cc2)s1 (cis-trans isomerization)
C/N=c1\[n-]c(C)c(C=Nc2ccc([N-]S(=O)(=O)c3ccccc3)cc2)s1 (3D coordinates assigned)
C/N=c1\[n-]c(C)c(C=Nc2ccc([N-]S(=O)(=O)c3ccccc3)cc2)s1 (optimized conformer: 76.66875537390307 kcal/mol)

>  <smiles>  (79) 
CN=c1[nH]c(C)c(C=Nc2ccc(NS(=O)(=O)c3ccccc3)cc2)s1

>  <score_type>  (79) 
oracle

>  <origin>  (79) 
adg

>  <m_score__min__energy>  (79) 
-10.91

>  <m_primary>  (79) 
energy

$$$$
79:0
     RDKit          3D

 36 37  0  0  0  0  0  0  0  0999 V2000
   55.1370   28.2000   44.9320 H   0  0  0  0  0  0  0  0  0  0  0  0
   55.1450   29.1920   45.1340 O   0  0  0  0  0  0  0  0  0  0  0  0
   55.9330   30.0370   44.3890 N   0  0  0  0  0  0  0  0  0  0  0  0
   56.9370   29.5820   43.7130 C   0  0  0  0  0  0  0  0  0  0  0  0
   56.7782   29.1735   42.7041 H   0  0  0  0  0  0  0  0  0  0  0  0
   58.3140   29.6090   44.2980 C   0  0  0  0  0  0  0  0  0  0  0  0
   58.9156   30.3638   43.7704 H   0  0  0  0  0  0  0  0  0  0  0  0
   58.7658   28.6125   44.1842 H   0  0  0  0  0  0  0  0  0  0  0  0
   58.2630   29.9600   45.7930 C   0  0  0  0  0  0  0  0  0  0  0  0
   57.7568   29.1415   46.3257 H   0  0  0  0  0  0  0  0  0  0  0  0
   57.7225   30.9138   45.8830 H   0  0  0  0  0  0  0  0  0  0  0  0
   59.6530   30.1660   46.4240 C   0  0  0  0  0  0  0  0  0  0  0  0
   59.5266   30.7879   47.3225 H   0  0  0  0  0  0  0  0  0  0  0  0
   60.2700   30.6302   45.6405 H   0  0  0  0  0  0  0  0  0  0  0  0
   60.4010   28.8820   46.8390 C   0  0  0  0  0  0  0  0  0  0  0  0
   61.2903   29.1756   47.4160 H   0  0  0  0  0  0  0  0  0  0  0  0
   60.6436   28.3505   45.9070 H   0  0  0  0  0  0  0  0  0  0  0  0
   59.5760   27.9000   47.6960 C   0  0  0  0  0  0  0  0  0  0  0  0
   58.7381   28.4517   48.1472 H   0  0  0  0  0  0  0  0  0  0  0  0
   60.2570   27.4812   48.4516 H   0  0  0  0  0  0  0  0  0  0  0  0
   59.0150   26.7370   46.9130 C   0  0  0  0  0  0  0  0  0  0  0  0
   59.8650   25.7120   46.4650 C   0  0  0  0  0  0  0  0  0  0  0  0
   60.9464   25.7773   46.6556 H   0  0  0  0  0  0  0  0  0  0  0  0
   59.3470   24.6100   45.7790 C   0  0  0  0  0  0  0  0  0  0  0  0
   60.0207   23.8085   45.4417 H   0  0  0  0  0  0  0  0  0  0  0  0
   57.9720   24.5220   45.5190 C   0  0  0  0  0  0  0  0  0  0  0  0
   57.1150   25.5630   45.9340 C   0  0  0  0  0  0  0  0  0  0  0  0
   57.6440   26.6750   46.6140 C   0  0  0  0  0  0  0  0  0  0  0  0
   56.9807   27.5000   46.9130 H   0  0  0  0  0  0  0  0  0  0  0  0
   55.7430   25.4380   45.6570 C   0  0  0  0  0  0  0  0  0  0  0  0
   54.9270   26.3330   46.0050 O   0  0  0  0  0  0  0  0  0  0  0  0
   55.2850   24.3350   45.0110 N   0  0  0  0  0  0  0  0  0  0  0  0
   56.1260   23.3430   44.6200 C   0  0  0  0  0  0  0  0  0  0  0  0
   55.6650   22.3350   44.0240 O   0  0  0  0  0  0  0  0  0  0  0  0
   57.4590   23.4380   44.8710 N   0  0  0  0  0  0  0  0  0  0  0  0
   58.0900   22.6620   44.5630 H   0  0  0  0  0  0  0  0  0  0  0  0
  1  2  1  0
  2  3  1  0
  3  4  2  0
  4  5  1  0
  4  6  1  0
  6  7  1  0
  6  8  1  0
  6  9  1  0
  9 10  1  0
  9 11  1  0
  9 12  1  0
 12 13  1  0
 12 14  1  0
 12 15  1  0
 15 16  1  0
 15 17  1  0
 15 18  1  0
 18 19  1  0
 18 20  1  0
 18 21  1  0
 21 22  2  0
 22 23  1  0
 22 24  1  0
 24 25  1  0
 24 26  2  0
 26 27  1  0
 27 28  2  0
 28 29  1  0
 27 30  1  0
 30 31  2  0
 30 32  1  0
 32 33  1  0
 33 34  2  0
 33 35  1  0
 35 36  1  0
 28 21  1  0
 35 26  1  0
M  CHG  1  32  -1
M  END
>  <UniqueID>  (80) 
76

>  <SMILES>  (80) 
O=c1[n-]c(=O)c2cc(CCCCC/C=N/O)ccc2[nH]1

>  <Energy>  (80) 
30.66522546795879

>  <Genealogy>  (80) 
O=c1[n-]c(=O)c2cc(CCCCCC=NO)ccc2[nH]1 (protonated)
O=c1[n-]c(=O)c2cc(CCCCC/C=N/O)ccc2[nH]1 (cis-trans isomerization)
O=c1[n-]c(=O)c2cc(CCCCC/C=N/O)ccc2[nH]1 (3D coordinates assigned)
O=c1[n-]c(=O)c2cc(CCCCC/C=N/O)ccc2[nH]1 (optimized conformer: 30.66522546795879 kcal/mol)

>  <smiles>  (80) 
O=c1[nH]c(=O)c2cc(CCCCCC=NO)ccc2[nH]1

>  <score_type>  (80) 
oracle

>  <origin>  (80) 
adg

>  <m_score__min__energy>  (80) 
-9.3900000000000006

>  <m_primary>  (80) 
energy

$$$$
80:0
     RDKit          3D

 54 58  0  0  0  0  0  0  0  0999 V2000
   65.1180   32.8220   49.3970 C   0  0  0  0  0  0  0  0  0  0  0  0
   63.8420   33.2780   48.7540 C   0  0  0  0  0  0  0  0  0  0  0  0
   62.8090   33.8210   49.5330 C   0  0  0  0  0  0  0  0  0  0  0  0
   61.6090   34.2130   48.9360 C   0  0  0  0  0  0  0  0  0  0  0  0
   61.4200   34.0520   47.5570 C   0  0  0  0  0  0  0  0  0  0  0  0
   59.9130   34.5800   46.8120 S   0  0  0  0  0  0  0  0  0  0  0  0
   60.1870   35.8070   45.9870 O   0  0  0  0  0  0  0  0  0  0  0  0
   58.9140   34.9370   47.8800 O   0  0  0  0  0  0  0  0  0  0  0  0
   59.2760   33.3120   45.7960 N   0  0  2  0  0  0  0  0  0  0  0  0
   58.1350   33.8260   45.0160 C   0  0  0  0  0  0  0  0  0  0  0  0
   57.6730   32.7860   43.9870 C   0  0  0  0  0  0  0  0  0  0  0  0
   57.5430   31.4130   44.5940 C   0  0  0  0  0  0  0  0  0  0  0  0
   56.8560   30.4140   43.8900 C   0  0  0  0  0  0  0  0  0  0  0  0
   56.7730   29.1180   44.4030 C   0  0  0  0  0  0  0  0  0  0  0  0
   57.3990   28.7950   45.6170 C   0  0  0  0  0  0  0  0  0  0  0  0
   57.3110   27.4790   46.1800 N   0  0  0  0  0  0  0  0  0  0  0  0
   56.3290   26.4860   45.8550 C   0  0  0  0  0  0  0  0  0  0  0  0
   55.1290   26.6880   46.1800 O   0  0  0  0  0  0  0  0  0  0  0  0
   56.7010   25.2090   45.2190 C   0  0  0  0  0  0  0  0  0  0  0  0
   55.8750   24.4490   44.3930 C   0  0  0  0  0  0  0  0  0  0  0  0
   56.6450   23.3600   44.0540 C   0  0  0  0  0  0  0  0  0  0  0  0
   56.3650   22.2590   43.2480 C   0  0  0  0  0  0  0  0  0  0  0  0
   57.3760   21.2930   43.0850 C   0  0  0  0  0  0  0  0  0  0  0  0
   58.6250   21.4510   43.7270 C   0  0  0  0  0  0  0  0  0  0  0  0
   58.8750   22.5740   44.5360 C   0  0  0  0  0  0  0  0  0  0  0  0
   57.8550   23.5130   44.6770 C   0  0  0  0  0  0  0  0  0  0  0  0
   57.8750   24.6220   45.3730 O   0  0  0  0  0  0  0  0  0  0  0  0
   58.0690   29.7940   46.3310 C   0  0  0  0  0  0  0  0  0  0  0  0
   58.1720   31.0960   45.8150 C   0  0  0  0  0  0  0  0  0  0  0  0
   58.8660   32.1630   46.6280 C   0  0  0  0  0  0  0  0  0  0  0  0
   62.4460   33.5000   46.7790 C   0  0  0  0  0  0  0  0  0  0  0  0
   63.6480   33.1070   47.3750 C   0  0  0  0  0  0  0  0  0  0  0  0
   65.0113   32.8601   50.4911 H   0  0  0  0  0  0  0  0  0  0  0  0
   65.3370   31.7899   49.0857 H   0  0  0  0  0  0  0  0  0  0  0  0
   65.9415   33.4815   49.0857 H   0  0  0  0  0  0  0  0  0  0  0  0
   62.9450   33.9384   50.6182 H   0  0  0  0  0  0  0  0  0  0  0  0
   60.8086   34.6501   49.5510 H   0  0  0  0  0  0  0  0  0  0  0  0
   60.0410   33.0150   45.1450 H   0  0  0  0  0  0  0  0  0  0  0  0
   57.3032   34.0533   45.6989 H   0  0  0  0  0  0  0  0  0  0  0  0
   58.4498   34.7360   44.4842 H   0  0  0  0  0  0  0  0  0  0  0  0
   56.6950   33.0919   43.5870 H   0  0  0  0  0  0  0  0  0  0  0  0
   58.4297   32.7358   43.1902 H   0  0  0  0  0  0  0  0  0  0  0  0
   56.3795   30.6526   42.9277 H   0  0  0  0  0  0  0  0  0  0  0  0
   56.2143   28.3464   43.8530 H   0  0  0  0  0  0  0  0  0  0  0  0
   54.8429   24.6693   44.0828 H   0  0  0  0  0  0  0  0  0  0  0  0
   55.3875   22.1482   42.7558 H   0  0  0  0  0  0  0  0  0  0  0  0
   57.1928   20.4104   42.4545 H   0  0  0  0  0  0  0  0  0  0  0  0
   59.4077   20.6898   43.5930 H   0  0  0  0  0  0  0  0  0  0  0  0
   59.8434   22.7067   45.0406 H   0  0  0  0  0  0  0  0  0  0  0  0
   58.5196   29.5574   47.3062 H   0  0  0  0  0  0  0  0  0  0  0  0
   58.1781   32.5178   47.4096 H   0  0  0  0  0  0  0  0  0  0  0  0
   59.7722   31.7204   47.0672 H   0  0  0  0  0  0  0  0  0  0  0  0
   62.3053   33.3753   45.6952 H   0  0  0  0  0  0  0  0  0  0  0  0
   64.4446   32.6621   46.7606 H   0  0  0  0  0  0  0  0  0  0  0  0
  1  2  1  0
  2  3  2  0
  3  4  1  0
  4  5  2  0
  5  6  1  0
  6  7  2  0
  6  8  2  0
  6  9  1  0
  9 10  1  0
 10 11  1  0
 11 12  1  0
 12 13  2  0
 13 14  1  0
 14 15  2  0
 15 16  1  0
 16 17  1  0
 17 18  2  0
 17 19  1  0
 19 20  2  0
 20 21  1  0
 21 22  2  0
 22 23  1  0
 23 24  2  0
 24 25  1  0
 25 26  2  0
 26 27  1  0
 15 28  1  0
 28 29  2  0
 29 30  1  0
  5 31  1  0
 31 32  2  0
 32  2  1  0
 30  9  1  0
 29 12  1  0
 27 19  1  0
 26 21  1  0
  1 33  1  0
  1 34  1  0
  1 35  1  0
  3 36  1  0
  4 37  1  0
  9 38  1  6
 10 39  1  0
 10 40  1  0
 11 41  1  0
 11 42  1  0
 13 43  1  0
 14 44  1  0
 20 45  1  0
 22 46  1  0
 23 47  1  0
 24 48  1  0
 25 49  1  0
 28 50  1  0
 30 51  1  0
 30 52  1  0
 31 53  1  0
 32 54  1  0
M  CHG  2   9   1  16  -1
M  END
>  <UniqueID>  (81) 
77

>  <SMILES>  (81) 
Cc1ccc(S(=O)(=O)[N@@H+]2CCc3ccc([N-]C(=O)c4cc5ccccc5o4)cc3C2)cc1

>  <Energy>  (81) 
97.5849945199847

>  <Genealogy>  (81) 
Cc1ccc(S(=O)(=O)[NH+]2CCc3ccc([N-]C(=O)c4cc5ccccc5o4)cc3C2)cc1 (protonated)
Cc1ccc(S(=O)(=O)[N@@H+]2CCc3ccc([N-]C(=O)c4cc5ccccc5o4)cc3C2)cc1 (chirality)
Cc1ccc(S(=O)(=O)[N@@H+]2CCc3ccc([N-]C(=O)c4cc5ccccc5o4)cc3C2)cc1 (3D coordinates assigned)
Cc1ccc(S(=O)(=O)[N@@H+]2CCc3ccc([N-]C(=O)c4cc5ccccc5o4)cc3C2)cc1 (nonaromatic ring conformer: 97.5849945199847 kcal/mol)

>  <smiles>  (81) 
Cc1ccc(S(=O)(=O)N2CCc3ccc(NC(=O)c4cc5ccccc5o4)cc3C2)cc1

>  <score_type>  (81) 
oracle

>  <origin>  (81) 
adg

>  <m_score__min__energy>  (81) 
-11.199999999999999

>  <m_primary>  (81) 
energy

$$$$
81:0
     RDKit          3D

 45 47  0  0  0  0  0  0  0  0999 V2000
   64.0355   33.3877   49.5988 H   0  0  0  0  0  0  0  0  0  0  0  0
   62.9730   33.5770   49.3860 C   0  0  0  0  0  0  0  0  0  0  0  0
   62.0720   33.5920   50.4020 N   0  0  0  0  0  0  0  0  0  0  0  0
   60.7460   33.8240   50.1890 C   0  0  0  0  0  0  0  0  0  0  0  0
   59.8900   33.8120   51.1690 N   0  0  0  0  0  0  0  0  0  0  0  0
   58.9410   32.7760   51.4750 C   0  0  0  0  0  0  0  0  0  0  0  0
   57.8330   33.0020   52.3110 C   0  0  0  0  0  0  0  0  0  0  0  0
   57.6934   33.9871   52.7801 H   0  0  0  0  0  0  0  0  0  0  0  0
   56.9080   31.9810   52.5490 C   0  0  0  0  0  0  0  0  0  0  0  0
   56.0550   32.1634   53.2191 H   0  0  0  0  0  0  0  0  0  0  0  0
   57.0580   30.7290   51.9420 C   0  0  0  0  0  0  0  0  0  0  0  0
   56.0980   29.7400   52.2130 O   0  0  0  0  0  0  0  0  0  0  0  0
   54.7040   29.9730   52.3960 C   0  0  0  0  0  0  0  0  0  0  0  0
   54.0420   28.7600   52.3930 F   0  0  0  0  0  0  0  0  0  0  0  0
   54.4790   30.6000   53.6090 F   0  0  0  0  0  0  0  0  0  0  0  0
   54.2120   30.7520   51.3640 F   0  0  0  0  0  0  0  0  0  0  0  0
   58.1530   30.5110   51.0830 C   0  0  0  0  0  0  0  0  0  0  0  0
   58.2811   29.5330   50.5961 H   0  0  0  0  0  0  0  0  0  0  0  0
   59.0770   31.5320   50.8470 C   0  0  0  0  0  0  0  0  0  0  0  0
   59.9192   31.3569   50.1614 H   0  0  0  0  0  0  0  0  0  0  0  0
   60.2870   34.0400   48.8840 C   0  0  0  0  0  0  0  0  0  0  0  0
   59.2147   34.1967   48.6956 H   0  0  0  0  0  0  0  0  0  0  0  0
   61.1950   34.0560   47.8210 C   0  0  0  0  0  0  0  0  0  0  0  0
   60.7140   34.3020   46.5290 O   0  0  0  0  0  0  0  0  0  0  0  0
   59.5210   33.7760   46.0100 C   0  0  0  0  0  0  0  0  0  0  0  0
   58.6050   34.6530   45.4210 C   0  0  0  0  0  0  0  0  0  0  0  0
   58.8276   35.7294   45.3781 H   0  0  0  0  0  0  0  0  0  0  0  0
   57.4090   34.1690   44.8870 C   0  0  0  0  0  0  0  0  0  0  0  0
   56.6927   34.8649   44.4259 H   0  0  0  0  0  0  0  0  0  0  0  0
   57.1200   32.8030   44.9370 C   0  0  0  0  0  0  0  0  0  0  0  0
   56.1744   32.4298   44.5167 H   0  0  0  0  0  0  0  0  0  0  0  0
   58.0260   31.9030   45.5190 C   0  0  0  0  0  0  0  0  0  0  0  0
   57.6970   30.5010   45.5520 N   0  0  0  0  0  0  0  0  0  0  0  0
   58.0730   29.9150   46.3310 H   0  0  0  0  0  0  0  0  0  0  0  0
   56.7890   29.6750   44.3250 S   0  0  0  0  0  0  0  0  0  0  0  0
   56.6170   30.5920   43.1470 O   0  0  0  0  0  0  0  0  0  0  0  0
   55.4290   29.3080   44.8480 O   0  0  0  0  0  0  0  0  0  0  0  0
   57.6610   28.2170   43.7910 C   0  0  0  0  0  0  0  0  0  0  0  0
   58.0002   27.6499   44.6704 H   0  0  0  0  0  0  0  0  0  0  0  0
   56.9899   27.5892   43.1864 H   0  0  0  0  0  0  0  0  0  0  0  0
   58.5315   28.5112   43.1864 H   0  0  0  0  0  0  0  0  0  0  0  0
   59.2350   32.3980   46.0440 C   0  0  0  0  0  0  0  0  0  0  0  0
   59.9631   31.7013   46.4850 H   0  0  0  0  0  0  0  0  0  0  0  0
   62.5560   33.8010   48.0720 C   0  0  0  0  0  0  0  0  0  0  0  0
   63.7340   33.6970   46.7700 Cl  0  0  0  0  0  0  0  0  0  0  0  0
  1  2  1  0
  2  3  1  0
  3  4  1  0
  4  5  2  0
  5  6  1  0
  6  7  2  0
  7  8  1  0
  7  9  1  0
  9 10  1  0
  9 11  2  0
 11 12  1  0
 12 13  1  0
 13 14  1  0
 13 15  1  0
 13 16  1  0
 11 17  1  0
 17 18  1  0
 17 19  2  0
 19 20  1  0
  4 21  1  0
 21 22  1  0
 21 23  2  0
 23 24  1  0
 24 25  1  0
 25 26  2  0
 26 27  1  0
 26 28  1  0
 28 29  1  0
 28 30  2  0
 30 31  1  0
 30 32  1  0
 32 33  1  0
 33 34  1  0
 33 35  1  0
 35 36  2  0
 35 37  2  0
 35 38  1  0
 38 39  1  0
 38 40  1  0
 38 41  1  0
 32 42  2  0
 42 43  1  0
 23 44  1  0
 44 45  1  0
 44  2  2  0
 19  6  1  0
 42 25  1  0
M  CHG  1   3  -1
M  END
>  <UniqueID>  (82) 
78

>  <SMILES>  (82) 
CS(=O)(=O)Nc1cccc(Oc2c/c(=N/c3ccc(OC(F)(F)F)cc3)[n-]cc2Cl)c1

>  <Energy>  (82) 
61.53682922452609

>  <Genealogy>  (82) 
CS(=O)(=O)Nc1cccc(Oc2cc(=Nc3ccc(OC(F)(F)F)cc3)[n-]cc2Cl)c1 (protonated)
CS(=O)(=O)Nc1cccc(Oc2c/c(=N/c3ccc(OC(F)(F)F)cc3)[n-]cc2Cl)c1 (cis-trans isomerization)
CS(=O)(=O)Nc1cccc(Oc2c/c(=N/c3ccc(OC(F)(F)F)cc3)[n-]cc2Cl)c1 (3D coordinates assigned)
CS(=O)(=O)Nc1cccc(Oc2c/c(=N/c3ccc(OC(F)(F)F)cc3)[n-]cc2Cl)c1 (optimized conformer: 61.53682922452609 kcal/mol)

>  <smiles>  (82) 
CS(=O)(=O)Nc1cccc(Oc2cc(=Nc3ccc(OC(F)(F)F)cc3)[nH]cc2Cl)c1

>  <score_type>  (82) 
oracle

>  <origin>  (82) 
adg

>  <m_score__min__energy>  (82) 
-9.8499999999999996

>  <m_primary>  (82) 
energy

$$$$
82:0
     RDKit          3D

 67 70  0  0  0  0  0  0  0  0999 V2000
   65.9030   31.5850   50.5360 C   0  0  0  0  0  0  0  0  0  0  0  0
   64.7340   32.4770   50.5190 N   0  0  0  0  0  0  0  0  0  0  0  0
   63.6520   31.9310   51.3560 C   0  0  0  0  0  0  0  0  0  0  0  0
   62.3710   32.7820   51.2050 C   0  0  0  0  0  0  0  0  0  0  0  0
   62.6410   34.1440   50.6910 N   0  0  0  0  0  0  0  0  0  0  0  0
   62.6370   34.2110   49.2100 C   0  0  0  0  0  0  0  0  0  0  0  0
   61.7100   33.1610   48.6670 C   0  0  0  0  0  0  0  0  0  0  0  0
   62.2170   32.0200   48.0290 C   0  0  0  0  0  0  0  0  0  0  0  0
   61.3470   31.0420   47.5370 C   0  0  0  0  0  0  0  0  0  0  0  0
   59.9560   31.1890   47.6780 C   0  0  0  0  0  0  0  0  0  0  0  0
   59.0360   30.1780   47.1050 C   0  0  0  0  0  0  0  0  0  0  0  0
   59.3920   28.9720   47.0510 O   0  0  0  0  0  0  0  0  0  0  0  0
   57.7750   30.5450   46.5350 N   0  0  0  0  0  0  0  0  0  0  0  0
   57.5050   30.7350   45.1370 C   0  0  0  0  0  0  0  0  0  0  0  0
   58.0840   31.8140   44.4470 C   0  0  0  0  0  0  0  0  0  0  0  0
   57.8480   31.9920   43.0830 C   0  0  0  0  0  0  0  0  0  0  0  0
   57.0300   31.0970   42.3930 C   0  0  0  0  0  0  0  0  0  0  0  0
   56.4400   30.0260   43.0670 C   0  0  0  0  0  0  0  0  0  0  0  0
   56.6500   29.8410   44.4430 C   0  0  0  0  0  0  0  0  0  0  0  0
   56.0810   28.6760   45.0730 N   0  0  0  0  0  0  0  0  0  0  0  0
   56.8010   27.4750   45.3900 C   0  0  0  0  0  0  0  0  0  0  0  0
   58.1800   27.4240   45.1420 C   0  0  0  0  0  0  0  0  0  0  0  0
   58.9150   26.2870   45.4740 C   0  0  0  0  0  0  0  0  0  0  0  0
   58.2770   25.1780   46.0320 C   0  0  0  0  0  0  0  0  0  0  0  0
   56.8890   25.1920   46.2450 C   0  0  0  0  0  0  0  0  0  0  0  0
   56.2400   24.0070   46.8400 C   0  0  0  0  0  0  0  0  0  0  0  0
   56.7650   23.4830   47.8600 O   0  0  0  0  0  0  0  0  0  0  0  0
   55.0410   23.4350   46.2790 N   0  0  0  0  0  0  0  0  0  0  0  0
   54.6650   23.7040   44.8860 C   0  0  0  0  0  0  0  0  0  0  0  0
   54.2670   22.4780   47.0760 C   0  0  0  0  0  0  0  0  0  0  0  0
   56.1500   26.3510   45.9360 C   0  0  0  0  0  0  0  0  0  0  0  0
   54.7800   26.3910   46.1860 O   0  0  0  0  0  0  0  0  0  0  0  0
   59.4530   32.3300   48.3290 C   0  0  0  0  0  0  0  0  0  0  0  0
   60.3250   33.3000   48.8290 C   0  0  0  0  0  0  0  0  0  0  0  0
   63.8720   34.7020   51.2820 C   0  0  0  0  0  0  0  0  0  0  0  0
   65.1110   33.8290   50.9790 C   0  0  0  0  0  0  0  0  0  0  0  0
   66.1849   31.3699   51.5773 H   0  0  0  0  0  0  0  0  0  0  0  0
   65.6544   30.6449   50.0217 H   0  0  0  0  0  0  0  0  0  0  0  0
   66.7441   32.0730   50.0217 H   0  0  0  0  0  0  0  0  0  0  0  0
   63.4393   30.8977   51.0444 H   0  0  0  0  0  0  0  0  0  0  0  0
   63.9710   31.9509   52.4085 H   0  0  0  0  0  0  0  0  0  0  0  0
   61.6910   32.2718   50.5069 H   0  0  0  0  0  0  0  0  0  0  0  0
   61.9261   32.8890   52.2053 H   0  0  0  0  0  0  0  0  0  0  0  0
   62.2942   35.2055   48.8883 H   0  0  0  0  0  0  0  0  0  0  0  0
   63.6545   34.0353   48.8309 H   0  0  0  0  0  0  0  0  0  0  0  0
   63.3038   31.8936   47.9150 H   0  0  0  0  0  0  0  0  0  0  0  0
   61.7540   30.1513   47.0360 H   0  0  0  0  0  0  0  0  0  0  0  0
   58.7283   32.5239   44.9864 H   0  0  0  0  0  0  0  0  0  0  0  0
   58.3073   32.8386   42.5516 H   0  0  0  0  0  0  0  0  0  0  0  0
   56.8496   31.2352   41.3167 H   0  0  0  0  0  0  0  0  0  0  0  0
   55.8037   29.3194   42.5140 H   0  0  0  0  0  0  0  0  0  0  0  0
   55.0460   28.6720   45.2350 H   0  0  0  0  0  0  0  0  0  0  0  0
   58.6850   28.2865   44.6826 H   0  0  0  0  0  0  0  0  0  0  0  0
   60.0002   26.2637   45.2958 H   0  0  0  0  0  0  0  0  0  0  0  0
   58.8641   24.2891   46.3061 H   0  0  0  0  0  0  0  0  0  0  0  0
   53.7705   24.3439   44.8647 H   0  0  0  0  0  0  0  0  0  0  0  0
   55.4939   24.2153   44.3747 H   0  0  0  0  0  0  0  0  0  0  0  0
   54.4487   22.7544   44.3747 H   0  0  0  0  0  0  0  0  0  0  0  0
   54.4279   22.6770   48.1458 H   0  0  0  0  0  0  0  0  0  0  0  0
   53.1979   22.5843   46.8400 H   0  0  0  0  0  0  0  0  0  0  0  0
   54.5945   21.4548   46.8400 H   0  0  0  0  0  0  0  0  0  0  0  0
   58.3668   32.4592   48.4450 H   0  0  0  0  0  0  0  0  0  0  0  0
   59.9218   34.1789   49.3534 H   0  0  0  0  0  0  0  0  0  0  0  0
   64.0382   35.7085   50.8704 H   0  0  0  0  0  0  0  0  0  0  0  0
   63.7391   34.7336   52.3735 H   0  0  0  0  0  0  0  0  0  0  0  0
   65.7072   34.3180   50.1945 H   0  0  0  0  0  0  0  0  0  0  0  0
   65.6889   33.7235   51.9090 H   0  0  0  0  0  0  0  0  0  0  0  0
  1  2  1  0
  2  3  1  0
  3  4  1  0
  4  5  1  0
  5  6  1  0
  6  7  1  0
  7  8  2  0
  8  9  1  0
  9 10  2  0
 10 11  1  0
 11 12  2  0
 11 13  1  0
 13 14  1  0
 14 15  2  0
 15 16  1  0
 16 17  2  0
 17 18  1  0
 18 19  2  0
 19 20  1  0
 20 21  1  0
 21 22  2  0
 22 23  1  0
 23 24  2  0
 24 25  1  0
 25 26  1  0
 26 27  2  0
 26 28  1  0
 28 29  1  0
 28 30  1  0
 25 31  2  0
 31 32  1  0
 10 33  1  0
 33 34  2  0
  5 35  1  0
 35 36  1  0
 36  2  1  0
 34  7  1  0
 19 14  1  0
 31 21  1  0
  1 37  1  0
  1 38  1  0
  1 39  1  0
  3 40  1  0
  3 41  1  0
  4 42  1  0
  4 43  1  0
  6 44  1  0
  6 45  1  0
  8 46  1  0
  9 47  1  0
 15 48  1  0
 16 49  1  0
 17 50  1  0
 18 51  1  0
 20 52  1  0
 22 53  1  0
 23 54  1  0
 24 55  1  0
 29 56  1  0
 29 57  1  0
 29 58  1  0
 30 59  1  0
 30 60  1  0
 30 61  1  0
 33 62  1  0
 34 63  1  0
 35 64  1  0
 35 65  1  0
 36 66  1  0
 36 67  1  0
M  CHG  2  13  -1  32  -1
M  END
>  <UniqueID>  (83) 
79

>  <SMILES>  (83) 
CN1CCN(Cc2ccc(C(=O)[N-]c3ccccc3Nc3cccc(C(=O)N(C)C)c3[O-])cc2)CC1

>  <Energy>  (83) 
100.95101779425065

>  <Genealogy>  (83) 
CN1CCN(Cc2ccc(C(=O)[N-]c3ccccc3Nc3cccc(C(=O)N(C)C)c3[O-])cc2)CC1 (protonated)
CN1CCN(Cc2ccc(C(=O)[N-]c3ccccc3Nc3cccc(C(=O)N(C)C)c3[O-])cc2)CC1 (3D coordinates assigned)
CN1CCN(Cc2ccc(C(=O)[N-]c3ccccc3Nc3cccc(C(=O)N(C)C)c3[O-])cc2)CC1 (nonaromatic ring conformer: 100.95101779425065 kcal/mol)

>  <smiles>  (83) 
CN1CCN(Cc2ccc(C(=O)Nc3ccccc3Nc3cccc(C(=O)N(C)C)c3O)cc2)CC1

>  <score_type>  (83) 
oracle

>  <origin>  (83) 
adg

>  <m_score__min__energy>  (83) 
-15.27

>  <m_primary>  (83) 
energy

$$$$
83:0
     RDKit          3D

 35 37  0  0  0  0  0  0  0  0999 V2000
   58.4580   26.2990   47.0090 O   0  0  0  0  0  0  0  0  0  0  0  0
   58.1270   27.4660   46.6700 C   0  0  0  0  0  0  0  0  0  0  0  0
   56.8710   27.6540   46.0020 N   0  0  0  0  0  0  0  0  0  0  0  0
   56.6170   28.5640   45.1090 C   0  0  0  0  0  0  0  0  0  0  0  0
   55.5050   29.3330   45.0990 N   0  0  0  0  0  0  0  0  0  0  0  0
   55.5230   30.2190   44.0700 C   0  0  0  0  0  0  0  0  0  0  0  0
   56.6570   30.1660   43.2650 C   0  0  0  0  0  0  0  0  0  0  0  0
   57.6710   28.9640   43.8660 S   0  0  0  0  0  0  0  0  0  0  0  0
   59.0140   28.5990   47.0240 C   0  0  0  0  0  0  0  0  0  0  0  0
   60.0140   29.0190   46.1310 C   0  0  0  0  0  0  0  0  0  0  0  0
   60.8600   30.0810   46.4630 C   0  0  0  0  0  0  0  0  0  0  0  0
   60.7260   30.7350   47.7010 C   0  0  0  0  0  0  0  0  0  0  0  0
   61.5700   31.8290   48.0840 N   0  0  0  0  0  0  0  0  0  0  0  0
   61.3370   33.4830   47.6170 S   0  0  0  0  0  0  0  0  0  0  0  0
   61.3900   34.3520   48.8400 O   0  0  0  0  0  0  0  0  0  0  0  0
   62.4390   33.8870   46.6800 O   0  0  0  0  0  0  0  0  0  0  0  0
   59.7930   33.6670   46.7900 C   0  0  0  0  0  0  0  0  0  0  0  0
   59.7450   34.1980   45.4920 C   0  0  0  0  0  0  0  0  0  0  0  0
   58.5170   34.3390   44.8380 C   0  0  0  0  0  0  0  0  0  0  0  0
   57.3350   33.9470   45.4750 C   0  0  0  0  0  0  0  0  0  0  0  0
   57.3790   33.4140   46.7670 C   0  0  0  0  0  0  0  0  0  0  0  0
   58.6060   33.2730   47.4230 C   0  0  0  0  0  0  0  0  0  0  0  0
   59.7390   30.3060   48.5960 C   0  0  0  0  0  0  0  0  0  0  0  0
   58.8940   29.2440   48.2660 C   0  0  0  0  0  0  0  0  0  0  0  0
   54.7013   30.9268   43.8862 H   0  0  0  0  0  0  0  0  0  0  0  0
   56.8562   30.7996   42.3881 H   0  0  0  0  0  0  0  0  0  0  0  0
   60.1320   28.5085   45.1638 H   0  0  0  0  0  0  0  0  0  0  0  0
   61.6342   30.4068   45.7527 H   0  0  0  0  0  0  0  0  0  0  0  0
   60.6741   34.5036   44.9885 H   0  0  0  0  0  0  0  0  0  0  0  0
   58.4806   34.7585   43.8218 H   0  0  0  0  0  0  0  0  0  0  0  0
   56.3699   34.0581   44.9591 H   0  0  0  0  0  0  0  0  0  0  0  0
   56.4490   33.1058   47.2671 H   0  0  0  0  0  0  0  0  0  0  0  0
   58.6397   32.8517   48.4386 H   0  0  0  0  0  0  0  0  0  0  0  0
   59.6279   30.8096   49.5676 H   0  0  0  0  0  0  0  0  0  0  0  0
   58.1296   28.9106   48.9833 H   0  0  0  0  0  0  0  0  0  0  0  0
  1  2  2  0
  2  3  1  0
  3  4  2  3
  4  5  1  0
  5  6  1  0
  6  7  2  0
  7  8  1  0
  2  9  1  0
  9 10  2  0
 10 11  1  0
 11 12  2  0
 12 13  1  0
 13 14  1  0
 14 15  2  0
 14 16  2  0
 14 17  1  0
 17 18  2  0
 18 19  1  0
 19 20  2  0
 20 21  1  0
 21 22  2  0
 12 23  1  0
 23 24  2  0
  8  4  1  0
 24  9  1  0
 22 17  1  0
  6 25  1  0
  7 26  1  0
 10 27  1  0
 11 28  1  0
 18 29  1  0
 19 30  1  0
 20 31  1  0
 21 32  1  0
 22 33  1  0
 23 34  1  0
 24 35  1  0
M  CHG  2   5  -1  13  -1
M  END
>  <UniqueID>  (84) 
80

>  <SMILES>  (84) 
O=C(N=c1[n-]ccs1)c1ccc([N-]S(=O)(=O)c2ccccc2)cc1

>  <Energy>  (84) 
78.30116374117064

>  <Genealogy>  (84) 
O=C(N=c1[n-]ccs1)c1ccc([N-]S(=O)(=O)c2ccccc2)cc1 (protonated)
O=C(N=c1[n-]ccs1)c1ccc([N-]S(=O)(=O)c2ccccc2)cc1 (3D coordinates assigned)
O=C(N=c1[n-]ccs1)c1ccc([N-]S(=O)(=O)c2ccccc2)cc1 (optimized conformer: 78.30116374117064 kcal/mol)

>  <smiles>  (84) 
O=C(N=c1[nH]ccs1)c1ccc(NS(=O)(=O)c2ccccc2)cc1

>  <score_type>  (84) 
oracle

>  <origin>  (84) 
adg

>  <m_score__min__energy>  (84) 
-10.640000000000001

>  <m_primary>  (84) 
energy

$$$$
84:0
     RDKit          3D

 19 20  0  0  0  0  0  0  0  0999 V2000
   54.9720   26.8720   53.5180 O   0  0  0  0  0  0  0  0  0  0  0  0
   53.7240   26.9410   53.3780 C   0  0  0  0  0  0  0  0  0  0  0  0
   53.0010   25.7810   53.1250 O   0  0  0  0  0  0  0  0  0  0  0  0
   53.0450   28.2430   53.4820 C   0  0  0  0  0  0  0  0  0  0  0  0
   52.6820   28.7700   54.7320 C   0  0  0  0  0  0  0  0  0  0  0  0
   52.0410   30.0070   54.7890 C   0  0  0  0  0  0  0  0  0  0  0  0
   51.7120   30.4860   55.9090 O   0  0  0  0  0  0  0  0  0  0  0  0
   51.7710   30.7000   53.5980 C   0  0  0  0  0  0  0  0  0  0  0  0
   51.1280   31.9510   53.5850 C   0  0  0  0  0  0  0  0  0  0  0  0
   50.8820   32.6010   52.3700 C   0  0  0  0  0  0  0  0  0  0  0  0
   50.2460   33.8360   52.3640 O   0  0  0  0  0  0  0  0  0  0  0  0
   51.2760   32.0080   51.1630 C   0  0  0  0  0  0  0  0  0  0  0  0
   51.0320   32.6530   49.9560 O   0  0  0  0  0  0  0  0  0  0  0  0
   51.9160   30.7640   51.1680 C   0  0  0  0  0  0  0  0  0  0  0  0
   52.1660   30.1070   52.3780 C   0  0  0  0  0  0  0  0  0  0  0  0
   52.7760   28.9240   52.3710 O   0  0  0  0  0  0  0  0  0  0  0  0
   52.9007   28.2135   55.6553 H   0  0  0  0  0  0  0  0  0  0  0  0
   50.8181   32.4191   54.5309 H   0  0  0  0  0  0  0  0  0  0  0  0
   52.2234   30.3012   50.2186 H   0  0  0  0  0  0  0  0  0  0  0  0
  1  2  2  0
  2  3  1  0
  2  4  1  0
  4  5  2  0
  5  6  1  0
  6  7  2  0
  6  8  1  0
  8  9  2  0
  9 10  1  0
 10 11  1  0
 10 12  2  0
 12 13  1  0
 12 14  1  0
 14 15  2  0
 15 16  1  0
 16  4  1  0
 15  8  1  0
  5 17  1  0
  9 18  1  0
 14 19  1  0
M  CHG  3   3  -1  11  -1  13  -1
M  END
>  <UniqueID>  (85) 
81

>  <SMILES>  (85) 
O=C([O-])c1cc(=O)c2cc([O-])c([O-])cc2o1

>  <Energy>  (85) 
25.00113959327056

>  <Genealogy>  (85) 
O=C([O-])c1cc(=O)c2cc([O-])c([O-])cc2o1 (protonated)
O=C([O-])c1cc(=O)c2cc([O-])c([O-])cc2o1 (3D coordinates assigned)
O=C([O-])c1cc(=O)c2cc([O-])c([O-])cc2o1 (optimized conformer: 25.00113959327056 kcal/mol)

>  <smiles>  (85) 
O=C(O)c1cc(=O)c2cc(O)c(O)cc2o1

>  <score_type>  (85) 
oracle

>  <origin>  (85) 
adg

>  <m_score__min__energy>  (85) 
-14.33

>  <m_primary>  (85) 
energy

$$$$
85:0
     RDKit          3D

 51 54  0  0  0  0  0  0  0  0999 V2000
   62.9200   33.7880   46.6220 O   0  0  0  0  0  0  0  0  0  0  0  0
   62.7590   32.7030   47.6510 S   0  0  0  0  0  0  0  0  0  0  0  0
   63.3310   31.4340   47.0830 O   0  0  0  0  0  0  0  0  0  0  0  0
   63.6230   33.1520   49.1170 C   0  0  0  0  0  0  0  0  0  0  0  0
   64.9070   32.6430   49.3660 C   0  0  0  0  0  0  0  0  0  0  0  0
   65.5800   32.9820   50.5450 C   0  0  0  0  0  0  0  0  0  0  0  0
   64.9740   33.8300   51.4770 C   0  0  0  0  0  0  0  0  0  0  0  0
   63.6970   34.3430   51.2300 C   0  0  0  0  0  0  0  0  0  0  0  0
   63.0250   34.0080   50.0520 C   0  0  0  0  0  0  0  0  0  0  0  0
   61.0730   32.4760   48.0010 N   0  0  0  0  0  0  0  0  0  0  0  0
   60.1940   33.6330   48.1960 C   0  0  0  0  0  0  0  0  0  0  0  0
   59.2440   33.7680   47.0350 C   0  0  0  0  0  0  0  0  0  0  0  0
   59.6290   34.4770   45.8850 C   0  0  0  0  0  0  0  0  0  0  0  0
   58.7210   34.6670   44.8390 C   0  0  0  0  0  0  0  0  0  0  0  0
   57.4240   34.1600   44.9350 C   0  0  0  0  0  0  0  0  0  0  0  0
   57.0310   33.4590   46.0800 C   0  0  0  0  0  0  0  0  0  0  0  0
   57.9360   33.2670   47.1280 C   0  0  0  0  0  0  0  0  0  0  0  0
   60.5450   31.1460   48.0860 C   0  0  0  0  0  0  0  0  0  0  0  0
   60.6540   30.4170   49.2780 C   0  0  0  0  0  0  0  0  0  0  0  0
   60.0940   29.1400   49.3700 C   0  0  0  0  0  0  0  0  0  0  0  0
   59.4180   28.5890   48.2780 C   0  0  0  0  0  0  0  0  0  0  0  0
   59.3060   29.3060   47.0810 C   0  0  0  0  0  0  0  0  0  0  0  0
   58.5920   28.7360   46.0150 O   0  0  0  0  0  0  0  0  0  0  0  0
   57.9510   29.4660   45.0060 C   0  0  0  0  0  0  0  0  0  0  0  0
   58.6400   30.5180   44.3900 C   0  0  0  0  0  0  0  0  0  0  0  0
   58.0320   31.2590   43.3720 C   0  0  0  0  0  0  0  0  0  0  0  0
   56.7230   30.9640   42.9770 C   0  0  0  0  0  0  0  0  0  0  0  0
   56.0190   29.9350   43.6060 C   0  0  0  0  0  0  0  0  0  0  0  0
   56.6250   29.1890   44.6240 C   0  0  0  0  0  0  0  0  0  0  0  0
   55.9120   28.2220   45.2530 F   0  0  0  0  0  0  0  0  0  0  0  0
   59.8670   30.5930   46.9940 C   0  0  0  0  0  0  0  0  0  0  0  0
   65.3851   31.9765   48.6331 H   0  0  0  0  0  0  0  0  0  0  0  0
   66.5860   32.5813   50.7386 H   0  0  0  0  0  0  0  0  0  0  0  0
   65.5022   34.0937   52.4051 H   0  0  0  0  0  0  0  0  0  0  0  0
   63.2213   35.0106   51.9635 H   0  0  0  0  0  0  0  0  0  0  0  0
   62.0228   34.4175   49.8575 H   0  0  0  0  0  0  0  0  0  0  0  0
   59.6175   33.4988   49.1232 H   0  0  0  0  0  0  0  0  0  0  0  0
   60.8088   34.5427   48.2635 H   0  0  0  0  0  0  0  0  0  0  0  0
   60.6480   34.8839   45.8072 H   0  0  0  0  0  0  0  0  0  0  0  0
   59.0295   35.2175   43.9380 H   0  0  0  0  0  0  0  0  0  0  0  0
   56.7114   34.3116   44.1108 H   0  0  0  0  0  0  0  0  0  0  0  0
   56.0093   33.0586   46.1558 H   0  0  0  0  0  0  0  0  0  0  0  0
   57.6217   32.7208   48.0296 H   0  0  0  0  0  0  0  0  0  0  0  0
   61.1804   30.8501   50.1413 H   0  0  0  0  0  0  0  0  0  0  0  0
   60.1855   28.5669   50.3045 H   0  0  0  0  0  0  0  0  0  0  0  0
   58.9717   27.5869   48.3595 H   0  0  0  0  0  0  0  0  0  0  0  0
   59.6641   30.7625   44.7084 H   0  0  0  0  0  0  0  0  0  0  0  0
   58.5835   32.0746   42.8814 H   0  0  0  0  0  0  0  0  0  0  0  0
   56.2481   31.5426   42.1709 H   0  0  0  0  0  0  0  0  0  0  0  0
   54.9863   29.7101   43.3010 H   0  0  0  0  0  0  0  0  0  0  0  0
   59.7721   31.1685   46.0614 H   0  0  0  0  0  0  0  0  0  0  0  0
  1  2  2  0
  2  3  2  0
  2  4  1  0
  4  5  2  0
  5  6  1  0
  6  7  2  0
  7  8  1  0
  8  9  2  0
  2 10  1  0
 10 11  1  0
 11 12  1  0
 12 13  2  0
 13 14  1  0
 14 15  2  0
 15 16  1  0
 16 17  2  0
 10 18  1  0
 18 19  2  0
 19 20  1  0
 20 21  2  0
 21 22  1  0
 22 23  1  0
 23 24  1  0
 24 25  2  0
 25 26  1  0
 26 27  2  0
 27 28  1  0
 28 29  2  0
 29 30  1  0
 22 31  2  0
  9  4  1  0
 17 12  1  0
 31 18  1  0
 29 24  1  0
  5 32  1  0
  6 33  1  0
  7 34  1  0
  8 35  1  0
  9 36  1  0
 11 37  1  0
 11 38  1  0
 13 39  1  0
 14 40  1  0
 15 41  1  0
 16 42  1  0
 17 43  1  0
 19 44  1  0
 20 45  1  0
 21 46  1  0
 25 47  1  0
 26 48  1  0
 27 49  1  0
 28 50  1  0
 31 51  1  0
M  END
>  <UniqueID>  (86) 
82

>  <SMILES>  (86) 
O=S(=O)(c1ccccc1)N(Cc1ccccc1)c1cccc(Oc2ccccc2F)c1

>  <Energy>  (86) 
63.74977358553731

>  <Genealogy>  (86) 
O=S(=O)(c1ccccc1)N(Cc1ccccc1)c1cccc(Oc2ccccc2F)c1 (3D coordinates assigned)
O=S(=O)(c1ccccc1)N(Cc1ccccc1)c1cccc(Oc2ccccc2F)c1 (optimized conformer: 63.74977358553731 kcal/mol)

>  <smiles>  (86) 
O=S(=O)(c1ccccc1)N(Cc1ccccc1)c1cccc(Oc2ccccc2F)c1

>  <score_type>  (86) 
oracle

>  <origin>  (86) 
adg

>  <m_score__min__energy>  (86) 
-9.7100000000000009

>  <m_primary>  (86) 
energy

$$$$
86:0
     RDKit          3D

 43 45  0  0  0  0  0  0  0  0999 V2000
   63.0350   33.6510   47.7030 C   0  0  0  0  0  0  0  0  0  0  0  0
   61.7410   34.1980   47.9370 O   0  0  0  0  0  0  0  0  0  0  0  0
   60.5670   33.7470   47.3150 C   0  0  0  0  0  0  0  0  0  0  0  0
   60.2770   34.2130   46.0280 C   0  0  0  0  0  0  0  0  0  0  0  0
   59.1200   33.7960   45.3640 C   0  0  0  0  0  0  0  0  0  0  0  0
   58.2260   32.9020   45.9840 C   0  0  0  0  0  0  0  0  0  0  0  0
   57.0220   32.4550   45.3340 N   0  0  0  0  0  0  0  0  0  0  0  0
   56.9180   31.0260   44.3550 S   0  0  0  0  0  0  0  0  0  0  0  0
   57.5440   31.2950   43.0170 O   0  0  0  0  0  0  0  0  0  0  0  0
   55.4700   30.6730   44.1550 O   0  0  0  0  0  0  0  0  0  0  0  0
   57.7820   29.7000   45.1280 C   0  0  0  0  0  0  0  0  0  0  0  0
   59.1680   29.7800   45.3050 C   0  0  0  0  0  0  0  0  0  0  0  0
   59.8580   28.7280   45.9130 C   0  0  0  0  0  0  0  0  0  0  0  0
   59.1670   27.5960   46.3540 C   0  0  0  0  0  0  0  0  0  0  0  0
   57.7720   27.5140   46.1980 C   0  0  0  0  0  0  0  0  0  0  0  0
   57.0240   26.3610   46.6120 N   0  0  0  0  0  0  0  0  0  0  0  0
   55.9130   25.7680   45.9290 C   0  0  0  0  0  0  0  0  0  0  0  0
   54.7710   26.2950   45.9940 O   0  0  0  0  0  0  0  0  0  0  0  0
   56.1010   24.5610   45.0990 C   0  0  0  0  0  0  0  0  0  0  0  0
   57.5920   24.0460   44.5110 S   0  0  0  0  0  0  0  0  0  0  0  0
   56.9620   22.7050   43.7230 C   0  0  0  0  0  0  0  0  0  0  0  0
   55.6250   22.6300   43.8920 N   0  0  0  0  0  0  0  0  0  0  0  0
   55.1340   23.6490   44.6500 C   0  0  0  0  0  0  0  0  0  0  0  0
   53.6710   23.7410   44.9510 C   0  0  0  0  0  0  0  0  0  0  0  0
   57.0910   28.5620   45.5640 C   0  0  0  0  0  0  0  0  0  0  0  0
   58.5210   32.4330   47.2720 C   0  0  0  0  0  0  0  0  0  0  0  0
   59.6800   32.8490   47.9340 C   0  0  0  0  0  0  0  0  0  0  0  0
   63.5251   33.4438   48.6658 H   0  0  0  0  0  0  0  0  0  0  0  0
   62.9400   32.7161   47.1313 H   0  0  0  0  0  0  0  0  0  0  0  0
   63.6394   34.3706   47.1313 H   0  0  0  0  0  0  0  0  0  0  0  0
   60.9660   34.9140   45.5342 H   0  0  0  0  0  0  0  0  0  0  0  0
   58.9065   34.1683   44.3512 H   0  0  0  0  0  0  0  0  0  0  0  0
   56.1620   33.0450   45.4010 H   0  0  0  0  0  0  0  0  0  0  0  0
   59.7147   30.6720   44.9651 H   0  0  0  0  0  0  0  0  0  0  0  0
   60.9482   28.7910   46.0449 H   0  0  0  0  0  0  0  0  0  0  0  0
   59.7160   26.7669   46.8244 H   0  0  0  0  0  0  0  0  0  0  0  0
   57.5589   21.9835   43.1458 H   0  0  0  0  0  0  0  0  0  0  0  0
   53.5207   23.7504   46.0406 H   0  0  0  0  0  0  0  0  0  0  0  0
   53.2648   24.6665   44.5168 H   0  0  0  0  0  0  0  0  0  0  0  0
   53.1521   22.8737   44.5168 H   0  0  0  0  0  0  0  0  0  0  0  0
   56.0046   28.4904   45.4074 H   0  0  0  0  0  0  0  0  0  0  0  0
   57.8337   31.7308   47.7665 H   0  0  0  0  0  0  0  0  0  0  0  0
   59.8989   32.4719   48.9439 H   0  0  0  0  0  0  0  0  0  0  0  0
  1  2  1  0
  2  3  1  0
  3  4  2  0
  4  5  1  0
  5  6  2  0
  6  7  1  0
  7  8  1  0
  8  9  2  0
  8 10  2  0
  8 11  1  0
 11 12  2  0
 12 13  1  0
 13 14  2  0
 14 15  1  0
 15 16  1  0
 16 17  1  0
 17 18  2  0
 17 19  1  0
 19 20  1  0
 20 21  1  0
 21 22  2  0
 22 23  1  0
 23 24  1  0
 15 25  2  0
  6 26  1  0
 26 27  2  0
 27  3  1  0
 25 11  1  0
 23 19  2  0
  1 28  1  0
  1 29  1  0
  1 30  1  0
  4 31  1  0
  5 32  1  0
  7 33  1  0
 12 34  1  0
 13 35  1  0
 14 36  1  0
 21 37  1  0
 24 38  1  0
 24 39  1  0
 24 40  1  0
 25 41  1  0
 26 42  1  0
 27 43  1  0
M  CHG  1  16  -1
M  END
>  <UniqueID>  (87) 
83

>  <SMILES>  (87) 
COc1ccc(NS(=O)(=O)c2cccc([N-]C(=O)c3scnc3C)c2)cc1

>  <Energy>  (87) 
79.77852368499744

>  <Genealogy>  (87) 
COc1ccc(NS(=O)(=O)c2cccc([N-]C(=O)c3scnc3C)c2)cc1 (protonated)
COc1ccc(NS(=O)(=O)c2cccc([N-]C(=O)c3scnc3C)c2)cc1 (3D coordinates assigned)
COc1ccc(NS(=O)(=O)c2cccc([N-]C(=O)c3scnc3C)c2)cc1 (optimized conformer: 79.77852368499744 kcal/mol)

>  <smiles>  (87) 
COc1ccc(NS(=O)(=O)c2cccc(NC(=O)c3scnc3C)c2)cc1

>  <score_type>  (87) 
oracle

>  <origin>  (87) 
adg

>  <m_score__min__energy>  (87) 
-10.99

>  <m_primary>  (87) 
energy

$$$$
87:0
     RDKit          3D

 59 62  0  0  0  0  0  0  0  0999 V2000
   57.7343   34.3355   47.9815 H   0  0  0  0  0  0  0  0  0  0  0  0
   58.6080   33.7100   47.7460 C   0  0  0  0  0  0  0  0  0  0  0  0
   58.6820   33.0750   46.4130 C   0  0  0  0  0  0  0  0  0  0  0  0
   59.6860   33.3170   45.6860 O   0  0  0  0  0  0  0  0  0  0  0  0
   57.6700   32.1560   45.9560 N   0  0  0  0  0  0  0  0  0  0  0  0
   57.1110   31.6370   46.6700 H   0  0  0  0  0  0  0  0  0  0  0  0
   57.4810   31.8120   44.5700 C   0  0  0  0  0  0  0  0  0  0  0  0
   57.9490   32.6640   43.5510 C   0  0  0  0  0  0  0  0  0  0  0  0
   58.4952   33.5818   43.8142 H   0  0  0  0  0  0  0  0  0  0  0  0
   57.7240   32.3510   42.2070 C   0  0  0  0  0  0  0  0  0  0  0  0
   58.1062   33.0150   41.4177 H   0  0  0  0  0  0  0  0  0  0  0  0
   57.0150   31.1970   41.8640 C   0  0  0  0  0  0  0  0  0  0  0  0
   56.8387   30.9530   40.8060 H   0  0  0  0  0  0  0  0  0  0  0  0
   56.5300   30.3530   42.8670 C   0  0  0  0  0  0  0  0  0  0  0  0
   55.9629   29.4504   42.5954 H   0  0  0  0  0  0  0  0  0  0  0  0
   56.7620   30.6500   44.2160 C   0  0  0  0  0  0  0  0  0  0  0  0
   56.3040   29.7350   45.2140 N   0  0  0  0  0  0  0  0  0  0  0  0
   57.0980   28.2160   45.4610 S   0  0  0  0  0  0  0  0  0  0  0  0
   57.8140   27.8280   44.1970 O   0  0  0  0  0  0  0  0  0  0  0  0
   56.0930   27.1480   45.7930 O   0  0  0  0  0  0  0  0  0  0  0  0
   58.2630   28.3790   46.7730 C   0  0  0  0  0  0  0  0  0  0  0  0
   58.8260   27.2330   47.3520 C   0  0  0  0  0  0  0  0  0  0  0  0
   58.5753   26.2388   46.9536 H   0  0  0  0  0  0  0  0  0  0  0  0
   59.7050   27.3480   48.4340 C   0  0  0  0  0  0  0  0  0  0  0  0
   60.1369   26.4424   48.8849 H   0  0  0  0  0  0  0  0  0  0  0  0
   60.0410   28.6130   48.9500 C   0  0  0  0  0  0  0  0  0  0  0  0
   60.9560   28.7290   50.1070 C   0  0  0  0  0  0  0  0  0  0  0  0
   61.4140   27.6910   50.6620 O   0  0  0  0  0  0  0  0  0  0  0  0
   61.3210   29.9940   50.5800 O   0  0  0  0  0  0  0  0  0  0  0  0
   62.6520   30.4930   50.4990 C   0  0  0  0  0  0  0  0  0  0  0  0
   62.9467   30.9160   51.4707 H   0  0  0  0  0  0  0  0  0  0  0  0
   63.3394   29.6752   50.2369 H   0  0  0  0  0  0  0  0  0  0  0  0
   62.7120   31.5610   49.4470 C   0  0  0  0  0  0  0  0  0  0  0  0
   63.1960   32.8390   49.7680 C   0  0  0  0  0  0  0  0  0  0  0  0
   63.5004   33.0659   50.8004 H   0  0  0  0  0  0  0  0  0  0  0  0
   63.2930   33.8260   48.7800 C   0  0  0  0  0  0  0  0  0  0  0  0
   63.6658   34.8281   49.0384 H   0  0  0  0  0  0  0  0  0  0  0  0
   62.9160   33.5380   47.4650 C   0  0  0  0  0  0  0  0  0  0  0  0
   62.9880   34.3151   46.6898 H   0  0  0  0  0  0  0  0  0  0  0  0
   62.4480   32.2640   47.1350 C   0  0  0  0  0  0  0  0  0  0  0  0
   62.1558   32.0381   46.0989 H   0  0  0  0  0  0  0  0  0  0  0  0
   62.3500   31.2740   48.1200 C   0  0  0  0  0  0  0  0  0  0  0  0
   61.9889   30.2694   47.8546 H   0  0  0  0  0  0  0  0  0  0  0  0
   59.4790   29.7600   48.3580 C   0  0  0  0  0  0  0  0  0  0  0  0
   59.7384   30.7568   48.7442 H   0  0  0  0  0  0  0  0  0  0  0  0
   58.5930   29.6410   47.2820 C   0  0  0  0  0  0  0  0  0  0  0  0
   58.1531   30.5439   46.8333 H   0  0  0  0  0  0  0  0  0  0  0  0
   59.5600   33.5580   48.6840 C   0  0  0  0  0  0  0  0  0  0  0  0
   60.5914   33.8405   48.4262 H   0  0  0  0  0  0  0  0  0  0  0  0
   59.2990   33.0310   50.0470 C   0  0  0  0  0  0  0  0  0  0  0  0
   60.0510   33.4140   51.1770 C   0  0  0  0  0  0  0  0  0  0  0  0
   60.8707   34.1394   51.0683 H   0  0  0  0  0  0  0  0  0  0  0  0
   59.7680   32.8910   52.4010 N   0  0  0  0  0  0  0  0  0  0  0  0
   58.7670   31.9880   52.5800 C   0  0  0  0  0  0  0  0  0  0  0  0
   58.5593   31.5895   53.5840 H   0  0  0  0  0  0  0  0  0  0  0  0
   58.0020   31.5660   51.4890 C   0  0  0  0  0  0  0  0  0  0  0  0
   57.1939   30.8326   51.6270 H   0  0  0  0  0  0  0  0  0  0  0  0
   58.2750   32.0860   50.2210 C   0  0  0  0  0  0  0  0  0  0  0  0
   57.6846   31.7533   49.3545 H   0  0  0  0  0  0  0  0  0  0  0  0
  1  2  1  0
  2  3  1  0
  3  4  2  0
  3  5  1  0
  5  6  1  0
  5  7  1  0
  7  8  2  0
  8  9  1  0
  8 10  1  0
 10 11  1  0
 10 12  2  0
 12 13  1  0
 12 14  1  0
 14 15  1  0
 14 16  2  0
 16 17  1  0
 17 18  1  0
 18 19  2  0
 18 20  2  0
 18 21  1  0
 21 22  2  0
 22 23  1  0
 22 24  1  0
 24 25  1  0
 24 26  2  0
 26 27  1  0
 27 28  2  0
 27 29  1  0
 29 30  1  0
 30 31  1  0
 30 32  1  0
 30 33  1  0
 33 34  2  0
 34 35  1  0
 34 36  1  0
 36 37  1  0
 36 38  2  0
 38 39  1  0
 38 40  1  0
 40 41  1  0
 40 42  2  0
 42 43  1  0
 26 44  1  0
 44 45  1  0
 44 46  2  0
 46 47  1  0
  2 48  2  0
 48 49  1  0
 48 50  1  0
 50 51  2  0
 51 52  1  0
 51 53  1  0
 53 54  2  0
 54 55  1  0
 54 56  1  0
 56 57  1  0
 56 58  2  0
 58 59  1  0
 16  7  1  0
 46 21  1  0
 58 50  1  0
 42 33  1  0
M  CHG  1  17  -1
M  END
>  <UniqueID>  (88) 
84

>  <SMILES>  (88) 
O=C(/C=C/c1cccnc1)Nc1ccccc1[N-]S(=O)(=O)c1ccc(C(=O)OCc2ccccc2)cc1

>  <Energy>  (88) 
77.46161815363176

>  <Genealogy>  (88) 
O=C(C=Cc1cccnc1)Nc1ccccc1[N-]S(=O)(=O)c1ccc(C(=O)OCc2ccccc2)cc1 (protonated)
O=C(/C=C/c1cccnc1)Nc1ccccc1[N-]S(=O)(=O)c1ccc(C(=O)OCc2ccccc2)cc1 (cis-trans isomerization)
O=C(/C=C/c1cccnc1)Nc1ccccc1[N-]S(=O)(=O)c1ccc(C(=O)OCc2ccccc2)cc1 (3D coordinates assigned)
O=C(/C=C/c1cccnc1)Nc1ccccc1[N-]S(=O)(=O)c1ccc(C(=O)OCc2ccccc2)cc1 (optimized conformer: 77.46161815363176 kcal/mol)

>  <smiles>  (88) 
O=C(C=Cc1cccnc1)Nc1ccccc1NS(=O)(=O)c1ccc(C(=O)OCc2ccccc2)cc1

>  <score_type>  (88) 
oracle

>  <origin>  (88) 
adg

>  <m_score__min__energy>  (88) 
-12.029999999999999

>  <m_primary>  (88) 
energy

$$$$
88:0
     RDKit          3D

 40 41  0  0  0  0  0  0  0  0999 V2000
   55.9890   23.0770   44.1290 C   0  0  0  0  0  0  0  0  0  0  0  0
   56.5980   22.3050   45.2150 N   0  0  0  0  0  0  0  0  0  0  0  0
   57.1840   20.9860   44.9570 C   0  0  0  0  0  0  0  0  0  0  0  0
   56.6320   22.8510   46.5460 C   0  0  0  0  0  0  0  0  0  0  0  0
   57.1380   22.1840   47.4890 O   0  0  0  0  0  0  0  0  0  0  0  0
   56.0470   24.1340   46.8110 N   0  0  0  0  0  0  0  0  0  0  0  0
   56.6040   25.3970   46.4200 C   0  0  0  0  0  0  0  0  0  0  0  0
   57.9860   25.5830   46.5330 C   0  0  0  0  0  0  0  0  0  0  0  0
   58.5690   26.7940   46.1580 C   0  0  0  0  0  0  0  0  0  0  0  0
   57.7720   27.8420   45.6940 C   0  0  0  0  0  0  0  0  0  0  0  0
   56.3750   27.6950   45.6290 C   0  0  0  0  0  0  0  0  0  0  0  0
   55.5240   28.7500   45.1590 N   0  0  0  0  0  0  0  0  0  0  0  0
   55.8920   29.8350   44.2960 C   0  0  0  0  0  0  0  0  0  0  0  0
   55.7560   29.7390   43.0490 O   0  0  0  0  0  0  0  0  0  0  0  0
   56.4710   31.0230   44.8430 N   0  0  0  0  0  0  0  0  0  0  0  0
   57.3770   31.8940   44.1020 C   0  0  0  0  0  0  0  0  0  0  0  0
   58.0500   32.8700   45.0300 C   0  0  0  0  0  0  0  0  0  0  0  0
   58.7650   33.9670   44.5200 C   0  0  0  0  0  0  0  0  0  0  0  0
   59.3670   34.8800   45.3910 C   0  0  0  0  0  0  0  0  0  0  0  0
   59.2620   34.7060   46.7740 C   0  0  0  0  0  0  0  0  0  0  0  0
   58.5540   33.6160   47.2880 C   0  0  0  0  0  0  0  0  0  0  0  0
   57.9490   32.7000   46.4210 C   0  0  0  0  0  0  0  0  0  0  0  0
   55.7930   26.4690   45.9900 C   0  0  0  0  0  0  0  0  0  0  0  0
   54.4080   26.3390   45.9610 O   0  0  0  0  0  0  0  0  0  0  0  0
   55.3604   23.8738   44.5533 H   0  0  0  0  0  0  0  0  0  0  0  0
   56.7798   23.5247   43.5092 H   0  0  0  0  0  0  0  0  0  0  0  0
   55.3695   22.4122   43.5092 H   0  0  0  0  0  0  0  0  0  0  0  0
   57.4046   20.4894   45.9134 H   0  0  0  0  0  0  0  0  0  0  0  0
   56.4727   20.3749   44.3820 H   0  0  0  0  0  0  0  0  0  0  0  0
   58.1143   21.1042   44.3820 H   0  0  0  0  0  0  0  0  0  0  0  0
   58.6171   24.7694   46.9200 H   0  0  0  0  0  0  0  0  0  0  0  0
   59.6591   26.9232   46.2282 H   0  0  0  0  0  0  0  0  0  0  0  0
   58.2387   28.7866   45.3779 H   0  0  0  0  0  0  0  0  0  0  0  0
   58.1429   31.2804   43.6052 H   0  0  0  0  0  0  0  0  0  0  0  0
   56.7972   32.4563   43.3553 H   0  0  0  0  0  0  0  0  0  0  0  0
   58.8513   34.1078   43.4325 H   0  0  0  0  0  0  0  0  0  0  0  0
   59.9248   35.7376   44.9869 H   0  0  0  0  0  0  0  0  0  0  0  0
   59.7361   35.4262   47.4571 H   0  0  0  0  0  0  0  0  0  0  0  0
   58.4724   33.4782   48.3763 H   0  0  0  0  0  0  0  0  0  0  0  0
   57.3923   31.8438   46.8296 H   0  0  0  0  0  0  0  0  0  0  0  0
  1  2  1  0
  2  3  1  0
  2  4  1  0
  4  5  2  0
  4  6  1  0
  6  7  1  0
  7  8  2  0
  8  9  1  0
  9 10  2  0
 10 11  1  0
 11 12  1  0
 12 13  1  0
 13 14  2  0
 13 15  1  0
 15 16  1  0
 16 17  1  0
 17 18  2  0
 18 19  1  0
 19 20  2  0
 20 21  1  0
 21 22  2  0
 11 23  2  0
 23 24  1  0
 23  7  1  0
 22 17  1  0
  1 25  1  0
  1 26  1  0
  1 27  1  0
  3 28  1  0
  3 29  1  0
  3 30  1  0
  8 31  1  0
  9 32  1  0
 10 33  1  0
 16 34  1  0
 16 35  1  0
 18 36  1  0
 19 37  1  0
 20 38  1  0
 21 39  1  0
 22 40  1  0
M  CHG  4   6  -1  12  -1  15  -1  24  -1
M  END
>  <UniqueID>  (89) 
85

>  <SMILES>  (89) 
CN(C)C(=O)[N-]c1cccc([N-]C(=O)[N-]Cc2ccccc2)c1[O-]

>  <Energy>  (89) 
42.793829269230685

>  <Genealogy>  (89) 
CN(C)C(=O)[N-]c1cccc([N-]C(=O)[N-]Cc2ccccc2)c1[O-] (protonated)
CN(C)C(=O)[N-]c1cccc([N-]C(=O)[N-]Cc2ccccc2)c1[O-] (3D coordinates assigned)
CN(C)C(=O)[N-]c1cccc([N-]C(=O)[N-]Cc2ccccc2)c1[O-] (optimized conformer: 42.793829269230685 kcal/mol)

>  <smiles>  (89) 
CN(C)C(=O)Nc1cccc(NC(=O)NCc2ccccc2)c1O

>  <score_type>  (89) 
oracle

>  <origin>  (89) 
adg

>  <m_score__min__energy>  (89) 
-17.719999999999999

>  <m_primary>  (89) 
energy

$$$$
89:0
     RDKit          3D

 54 57  0  0  0  0  0  0  0  0999 V2000
   50.4200   32.7070   52.1910 O   0  0  0  0  0  0  0  0  0  0  0  0
   51.0290   32.0710   51.2890 C   0  0  0  0  0  0  0  0  0  0  0  0
   51.3900   32.7190   50.1140 O   0  0  0  0  0  0  0  0  0  0  0  0
   51.3740   30.6290   51.4850 C   0  0  0  0  0  0  0  0  0  0  0  0
   52.7680   30.4940   52.0350 C   0  0  0  0  0  0  0  0  0  0  0  0
   52.9740   30.0370   53.3460 C   0  0  0  0  0  0  0  0  0  0  0  0
   54.2670   29.9510   53.8710 C   0  0  0  0  0  0  0  0  0  0  0  0
   55.3770   30.3290   53.0900 C   0  0  0  0  0  0  0  0  0  0  0  0
   56.6960   30.2620   53.5670 O   0  0  0  0  0  0  0  0  0  0  0  0
   57.5980   31.3670   53.6540 C   0  0  0  0  0  0  0  0  0  0  0  0
   58.1880   31.6980   52.3030 C   0  0  0  0  0  0  0  0  0  0  0  0
   58.4480   30.6680   51.3820 C   0  0  0  0  0  0  0  0  0  0  0  0
   58.9820   30.9530   50.1130 C   0  0  0  0  0  0  0  0  0  0  0  0
   59.2880   29.8550   49.1620 C   0  0  0  0  0  0  0  0  0  0  0  0
   60.1150   28.7870   49.5500 C   0  0  0  0  0  0  0  0  0  0  0  0
   60.4120   27.7570   48.6530 C   0  0  0  0  0  0  0  0  0  0  0  0
   59.8870   27.7700   47.3490 C   0  0  0  0  0  0  0  0  0  0  0  0
   60.2050   26.6780   46.3990 C   0  0  0  0  0  0  0  0  0  0  0  0
   61.2630   26.0080   46.5440 O   0  0  0  0  0  0  0  0  0  0  0  0
   59.2850   26.3500   45.3490 N   0  0  0  0  0  0  0  0  0  0  0  0
   58.0650   25.6030   45.4750 C   0  0  0  0  0  0  0  0  0  0  0  0
   58.0280   24.2010   45.3490 C   0  0  0  0  0  0  0  0  0  0  0  0
   56.8120   23.5170   45.4570 C   0  0  0  0  0  0  0  0  0  0  0  0
   55.6270   24.2240   45.6750 C   0  0  0  0  0  0  0  0  0  0  0  0
   55.6530   25.6180   45.7770 C   0  0  0  0  0  0  0  0  0  0  0  0
   54.5010   26.3030   45.9770 F   0  0  0  0  0  0  0  0  0  0  0  0
   56.8660   26.3040   45.6700 C   0  0  0  0  0  0  0  0  0  0  0  0
   59.0580   28.8370   46.9630 C   0  0  0  0  0  0  0  0  0  0  0  0
   58.7640   29.8690   47.8590 C   0  0  0  0  0  0  0  0  0  0  0  0
   59.2290   32.2910   49.7610 C   0  0  0  0  0  0  0  0  0  0  0  0
   58.9500   33.3220   50.6620 C   0  0  0  0  0  0  0  0  0  0  0  0
   58.4280   33.0340   51.9250 C   0  0  0  0  0  0  0  0  0  0  0  0
   58.1530   34.0820   52.7980 O   0  0  0  0  0  0  0  0  0  0  0  0
   55.1660   30.7930   51.7870 C   0  0  0  0  0  0  0  0  0  0  0  0
   53.8730   30.8780   51.2610 C   0  0  0  0  0  0  0  0  0  0  0  0
   50.6606   30.1782   52.1906 H   0  0  0  0  0  0  0  0  0  0  0  0
   51.3216   30.1141   50.5143 H   0  0  0  0  0  0  0  0  0  0  0  0
   52.1126   29.7446   53.9644 H   0  0  0  0  0  0  0  0  0  0  0  0
   54.4182   29.5868   54.8979 H   0  0  0  0  0  0  0  0  0  0  0  0
   57.0544   32.2450   54.0330 H   0  0  0  0  0  0  0  0  0  0  0  0
   58.4178   31.0948   54.3350 H   0  0  0  0  0  0  0  0  0  0  0  0
   58.2308   29.6255   51.6579 H   0  0  0  0  0  0  0  0  0  0  0  0
   60.5319   28.7615   50.5676 H   0  0  0  0  0  0  0  0  0  0  0  0
   61.0625   26.9287   48.9703 H   0  0  0  0  0  0  0  0  0  0  0  0
   58.9574   23.6420   45.1652 H   0  0  0  0  0  0  0  0  0  0  0  0
   56.7892   22.4207   45.3701 H   0  0  0  0  0  0  0  0  0  0  0  0
   54.6732   23.6837   45.7664 H   0  0  0  0  0  0  0  0  0  0  0  0
   56.8804   27.4017   45.7392 H   0  0  0  0  0  0  0  0  0  0  0  0
   58.6368   28.8604   45.9471 H   0  0  0  0  0  0  0  0  0  0  0  0
   58.1165   30.6993   47.5407 H   0  0  0  0  0  0  0  0  0  0  0  0
   59.6444   32.5280   48.7704 H   0  0  0  0  0  0  0  0  0  0  0  0
   59.1426   34.3663   50.3749 H   0  0  0  0  0  0  0  0  0  0  0  0
   56.0257   31.0939   51.1702 H   0  0  0  0  0  0  0  0  0  0  0  0
   53.7219   31.2475   50.2360 H   0  0  0  0  0  0  0  0  0  0  0  0
  1  2  2  0
  2  3  1  0
  2  4  1  0
  4  5  1  0
  5  6  2  0
  6  7  1  0
  7  8  2  0
  8  9  1  0
  9 10  1  0
 10 11  1  0
 11 12  2  0
 12 13  1  0
 13 14  1  0
 14 15  2  0
 15 16  1  0
 16 17  2  0
 17 18  1  0
 18 19  2  0
 18 20  1  0
 20 21  1  0
 21 22  2  0
 22 23  1  0
 23 24  2  0
 24 25  1  0
 25 26  1  0
 25 27  2  0
 17 28  1  0
 28 29  2  0
 13 30  2  0
 30 31  1  0
 31 32  2  0
 32 33  1  0
  8 34  1  0
 34 35  2  0
 35  5  1  0
 32 11  1  0
 29 14  1  0
 27 21  1  0
  4 36  1  0
  4 37  1  0
  6 38  1  0
  7 39  1  0
 10 40  1  0
 10 41  1  0
 12 42  1  0
 15 43  1  0
 16 44  1  0
 22 45  1  0
 23 46  1  0
 24 47  1  0
 27 48  1  0
 28 49  1  0
 29 50  1  0
 30 51  1  0
 31 52  1  0
 34 53  1  0
 35 54  1  0
M  CHG  3   3  -1  20  -1  33  -1
M  END
>  <UniqueID>  (90) 
86

>  <SMILES>  (90) 
O=C([O-])Cc1ccc(OCc2cc(-c3ccc(C(=O)[N-]c4cccc(F)c4)cc3)ccc2[O-])cc1

>  <Energy>  (90) 
67.77041221883334

>  <Genealogy>  (90) 
O=C([O-])Cc1ccc(OCc2cc(-c3ccc(C(=O)[N-]c4cccc(F)c4)cc3)ccc2[O-])cc1 (protonated)
O=C([O-])Cc1ccc(OCc2cc(-c3ccc(C(=O)[N-]c4cccc(F)c4)cc3)ccc2[O-])cc1 (3D coordinates assigned)
O=C([O-])Cc1ccc(OCc2cc(-c3ccc(C(=O)[N-]c4cccc(F)c4)cc3)ccc2[O-])cc1 (optimized conformer: 67.77041221883334 kcal/mol)

>  <smiles>  (90) 
O=C(O)Cc1ccc(OCc2cc(-c3ccc(C(=O)Nc4cccc(F)c4)cc3)ccc2O)cc1

>  <score_type>  (90) 
oracle

>  <origin>  (90) 
adg

>  <m_score__min__energy>  (90) 
-14.19

>  <m_primary>  (90) 
energy

$$$$
90:0
     RDKit          3D

 53 57  0  0  0  0  0  0  0  0999 V2000
   56.6409   33.0465   44.1239 H   0  0  0  0  0  0  0  0  0  0  0  0
   57.4030   33.3940   44.8370 C   0  0  0  0  0  0  0  0  0  0  0  0
   57.1240   33.4040   46.2070 C   0  0  0  0  0  0  0  0  0  0  0  0
   56.1447   33.0606   46.5716 H   0  0  0  0  0  0  0  0  0  0  0  0
   58.0910   33.8510   47.1140 C   0  0  0  0  0  0  0  0  0  0  0  0
   57.8714   33.8527   48.1919 H   0  0  0  0  0  0  0  0  0  0  0  0
   59.3420   34.2980   46.6540 C   0  0  0  0  0  0  0  0  0  0  0  0
   60.3880   34.7420   47.6330 C   0  0  0  0  0  0  0  0  0  0  0  0
   59.9501   34.7920   48.6408 H   0  0  0  0  0  0  0  0  0  0  0  0
   60.7610   35.7366   47.3472 H   0  0  0  0  0  0  0  0  0  0  0  0
   61.4910   33.7870   47.6280 N   0  0  0  0  0  0  0  0  0  0  0  0
   61.3870   32.5580   48.0370 C   0  0  0  0  0  0  0  0  0  0  0  0
   60.4960   31.6900   47.4680 N   0  0  0  0  0  0  0  0  0  0  0  0
   60.3600   30.3900   47.8860 C   0  0  0  0  0  0  0  0  0  0  0  0
   59.3670   29.5080   47.2110 C   0  0  0  0  0  0  0  0  0  0  0  0
   58.4040   30.0190   46.3170 C   0  0  0  0  0  0  0  0  0  0  0  0
   58.3678   31.0996   46.1148 H   0  0  0  0  0  0  0  0  0  0  0  0
   57.4960   29.1670   45.6860 C   0  0  0  0  0  0  0  0  0  0  0  0
   56.7633   29.5809   44.9776 H   0  0  0  0  0  0  0  0  0  0  0  0
   57.5080   27.7930   45.9450 C   0  0  0  0  0  0  0  0  0  0  0  0
   56.5640   26.9590   45.2610 N   0  0  0  0  0  0  0  0  0  0  0  0
   55.9050   25.4780   45.8780 S   0  0  0  0  0  0  0  0  0  0  0  0
   56.3430   25.2970   47.3040 O   0  0  0  0  0  0  0  0  0  0  0  0
   54.4050   25.5260   45.7990 O   0  0  0  0  0  0  0  0  0  0  0  0
   56.4870   24.1170   44.9220 C   0  0  0  0  0  0  0  0  0  0  0  0
   55.8070   23.7190   43.7590 C   0  0  0  0  0  0  0  0  0  0  0  0
   54.9067   24.2627   43.4367 H   0  0  0  0  0  0  0  0  0  0  0  0
   56.2710   22.6350   43.0110 C   0  0  0  0  0  0  0  0  0  0  0  0
   55.7352   22.3258   42.1014 H   0  0  0  0  0  0  0  0  0  0  0  0
   57.4140   21.9430   43.4160 C   0  0  0  0  0  0  0  0  0  0  0  0
   57.7785   21.0906   42.8239 H   0  0  0  0  0  0  0  0  0  0  0  0
   58.0950   22.3310   44.5710 C   0  0  0  0  0  0  0  0  0  0  0  0
   58.9946   21.7833   44.8884 H   0  0  0  0  0  0  0  0  0  0  0  0
   57.6350   23.4150   45.3250 C   0  0  0  0  0  0  0  0  0  0  0  0
   58.3030   23.7710   46.4510 F   0  0  0  0  0  0  0  0  0  0  0  0
   58.4440   27.2770   46.8540 C   0  0  0  0  0  0  0  0  0  0  0  0
   58.4544   26.1999   47.0770 H   0  0  0  0  0  0  0  0  0  0  0  0
   59.3640   28.1260   47.4780 C   0  0  0  0  0  0  0  0  0  0  0  0
   60.0945   27.7083   48.1864 H   0  0  0  0  0  0  0  0  0  0  0  0
   61.1660   29.9390   48.9570 C   0  0  0  0  0  0  0  0  0  0  0  0
   61.0785   28.9120   49.3412 H   0  0  0  0  0  0  0  0  0  0  0  0
   62.0500   30.8150   49.4940 N   0  0  0  0  0  0  0  0  0  0  0  0
   62.9350   30.6500   50.4920 C   0  0  0  0  0  0  0  0  0  0  0  0
   63.0984   29.7311   51.0741 H   0  0  0  0  0  0  0  0  0  0  0  0
   63.6040   31.8550   50.6510 C   0  0  0  0  0  0  0  0  0  0  0  0
   64.3986   32.0498   51.3863 H   0  0  0  0  0  0  0  0  0  0  0  0
   63.1250   32.7530   49.7590 N   0  0  0  0  0  0  0  0  0  0  0  0
   63.4270   33.7440   49.6340 H   0  0  0  0  0  0  0  0  0  0  0  0
   62.1820   32.0800   49.0750 C   0  0  0  0  0  0  0  0  0  0  0  0
   59.6190   34.2720   45.2760 C   0  0  0  0  0  0  0  0  0  0  0  0
   60.6008   34.6039   44.9075 H   0  0  0  0  0  0  0  0  0  0  0  0
   58.6490   33.8250   44.3720 C   0  0  0  0  0  0  0  0  0  0  0  0
   58.8671   33.8127   43.2939 H   0  0  0  0  0  0  0  0  0  0  0  0
  1  2  1  0
  2  3  2  0
  3  4  1  0
  3  5  1  0
  5  6  1  0
  5  7  2  0
  7  8  1  0
  8  9  1  0
  8 10  1  0
  8 11  1  0
 11 12  2  0
 12 13  1  0
 13 14  1  0
 14 15  1  0
 15 16  2  0
 16 17  1  0
 16 18  1  0
 18 19  1  0
 18 20  2  0
 20 21  1  0
 21 22  1  0
 22 23  2  0
 22 24  2  0
 22 25  1  0
 25 26  2  0
 26 27  1  0
 26 28  1  0
 28 29  1  0
 28 30  2  0
 30 31  1  0
 30 32  1  0
 32 33  1  0
 32 34  2  0
 34 35  1  0
 20 36  1  0
 36 37  1  0
 36 38  2  0
 38 39  1  0
 14 40  2  0
 40 41  1  0
 40 42  1  0
 42 43  1  0
 43 44  1  0
 43 45  2  0
 45 46  1  0
 45 47  1  0
 47 48  1  0
 47 49  2  0
  7 50  1  0
 50 51  1  0
 50 52  2  0
 52 53  1  0
 52  2  1  0
 49 12  1  0
 38 15  1  0
 49 42  1  0
 34 25  1  0
M  CHG  3  13  -1  21  -1  47   1
M  END
>  <UniqueID>  (91) 
87

>  <SMILES>  (91) 
O=S(=O)([N-]c1ccc(-c2cn3cc[nH+]c3/c(=N/Cc3ccccc3)[n-]2)cc1)c1ccccc1F

>  <Energy>  (91) 
104.42915987306252

>  <Genealogy>  (91) 
O=S(=O)([N-]c1ccc(-c2cn3cc[nH+]c3c(=NCc3ccccc3)[n-]2)cc1)c1ccccc1F (protonated)
O=S(=O)([N-]c1ccc(-c2cn3cc[nH+]c3/c(=N/Cc3ccccc3)[n-]2)cc1)c1ccccc1F (cis-trans isomerization)
O=S(=O)([N-]c1ccc(-c2cn3cc[nH+]c3/c(=N/Cc3ccccc3)[n-]2)cc1)c1ccccc1F (3D coordinates assigned)
O=S(=O)([N-]c1ccc(-c2cn3cc[nH+]c3/c(=N/Cc3ccccc3)[n-]2)cc1)c1ccccc1F (optimized conformer: 104.42915987306252 kcal/mol)

>  <smiles>  (91) 
O=S(=O)(Nc1ccc(-c2cn3ccnc3c(=NCc3ccccc3)[nH]2)cc1)c1ccccc1F

>  <score_type>  (91) 
oracle

>  <origin>  (91) 
adg

>  <m_score__min__energy>  (91) 
-10.880000000000001

>  <m_primary>  (91) 
energy

$$$$
91:0
     RDKit          3D

 50 52  0  0  1  0  0  0  0  0999 V2000
   58.3830   32.3360   49.6280 C   0  0  0  0  0  0  0  0  0  0  0  0
   59.2070   32.9000   48.6340 O   0  0  0  0  0  0  0  0  0  0  0  0
   58.7630   33.3240   47.3890 C   0  0  0  0  0  0  0  0  0  0  0  0
   57.5590   32.9370   46.8410 C   0  0  0  0  0  0  0  0  0  0  0  0
   57.1170   33.3580   45.6030 C   0  0  0  0  0  0  0  0  0  0  0  0
   57.9290   34.2120   44.8820 C   0  0  0  0  0  0  0  0  0  0  0  0
   59.1340   34.6040   45.4220 C   0  0  0  0  0  0  0  0  0  0  0  0
   59.5810   34.1870   46.6580 C   0  0  0  0  0  0  0  0  0  0  0  0
   62.6140   31.9460   50.4040 N   0  0  0  0  0  0  0  0  0  0  0  0
   62.7310   32.4130   49.2170 C   0  0  0  0  0  0  0  0  0  0  0  0
   62.7570   33.5470   46.7070 N   0  0  0  0  0  0  0  0  0  0  0  0
   63.7320   32.7150   47.1150 C   0  0  0  0  0  0  0  0  0  0  0  0
   63.7630   32.1250   48.3570 C   0  0  0  0  0  0  0  0  0  0  0  0
   61.7640   33.8040   47.5780 C   0  0  0  0  0  0  0  0  0  0  0  0
   60.8250   34.5910   47.2170 N   0  0  0  0  0  0  0  0  0  0  0  0
   62.8510   30.5410   50.6650 C   0  0  0  0  0  0  0  0  0  0  0  0
   61.5460   29.8270   50.3550 C   0  0  0  0  0  0  0  0  0  0  0  0
   60.8240   30.3840   49.2490 N   0  0  0  0  0  0  0  0  0  0  0  0
   60.2510   29.6040   48.1990 C   0  0  0  0  0  0  0  0  0  0  0  0
   60.3890   28.3780   48.2570 O   0  0  0  0  0  0  0  0  0  0  0  0
   59.5600   30.2330   47.1490 N   0  0  0  0  0  0  0  0  0  0  0  0
   58.9420   29.6110   46.0480 C   0  0  0  0  0  0  0  0  0  0  0  0
   59.6160   28.5860   45.4100 C   0  0  0  0  0  0  0  0  0  0  0  0
   59.0880   27.9200   44.3260 C   0  0  0  0  0  0  0  0  0  0  0  0
   57.8560   28.2510   43.8240 C   0  0  0  0  0  0  0  0  0  0  0  0
   57.1670   29.2660   44.4400 C   0  0  0  0  0  0  0  0  0  0  0  0
   55.5770   29.7320   43.8340 Cl  0  0  0  0  0  0  0  0  0  0  0  0
   57.7070   29.9350   45.5370 C   0  0  0  0  0  0  0  0  0  0  0  0
   61.7430   33.2550   48.8060 N   0  0  0  0  0  0  0  0  0  0  0  0
   58.7723   32.6025   50.6217 H   0  0  0  0  0  0  0  0  0  0  0  0
   57.3594   32.7237   49.5192 H   0  0  0  0  0  0  0  0  0  0  0  0
   58.3740   31.2414   49.5192 H   0  0  0  0  0  0  0  0  0  0  0  0
   56.9169   32.2573   47.4204 H   0  0  0  0  0  0  0  0  0  0  0  0
   56.1483   33.0239   45.2029 H   0  0  0  0  0  0  0  0  0  0  0  0
   57.6177   34.5737   43.8909 H   0  0  0  0  0  0  0  0  0  0  0  0
   59.7717   35.2838   44.8379 H   0  0  0  0  0  0  0  0  0  0  0  0
   62.7530   33.9770   45.7750 H   0  0  0  0  0  0  0  0  0  0  0  0
   64.5514   32.4938   46.4153 H   0  0  0  0  0  0  0  0  0  0  0  0
   64.5807   31.4501   48.6498 H   0  0  0  0  0  0  0  0  0  0  0  0
   63.6558   30.1631   50.0173 H   0  0  0  0  0  0  0  0  0  0  0  0
   63.1623   30.3734   51.7066 H   0  0  0  0  0  0  0  0  0  0  0  0
   61.7733   28.7756   50.1251 H   0  0  0  0  0  0  0  0  0  0  0  0
   60.9045   29.9382   51.2416 H   0  0  0  0  0  0  0  0  0  0  0  0
   60.7260   31.4430   49.2370 H   0  0  0  0  0  0  0  0  0  0  0  0
   59.5050   31.2950   47.2060 H   0  0  0  0  0  0  0  0  0  0  0  0
   60.6089   28.2921   45.7812 H   0  0  0  0  0  0  0  0  0  0  0  0
   59.6641   27.1096   43.8556 H   0  0  0  0  0  0  0  0  0  0  0  0
   57.4340   27.7213   42.9572 H   0  0  0  0  0  0  0  0  0  0  0  0
   57.1294   30.7446   46.0071 H   0  0  0  0  0  0  0  0  0  0  0  0
   60.9390   33.5010   49.4300 H   0  0  0  0  0  0  0  0  0  0  0  0
  1  2  1  0
  2  3  1  0
  3  4  2  0
  4  5  1  0
  5  6  2  0
  6  7  1  0
  7  8  2  0
  8  9  1  0
  9 10  2  0
 10 11  1  0
 11 12  1  0
 12 13  2  0
 13 14  1  0
 14 15  2  0
 15 16  1  0
 16 17  1  0
 17 18  1  0
 18 19  1  0
 19 20  2  0
 19 21  1  0
 21 22  1  0
 22 23  2  0
 23 24  1  0
 24 25  2  0
 25 26  1  0
 26 27  1  0
 26 28  2  0
 14 29  1  0
  8  3  1  0
 29 10  1  0
 28 22  1  0
  1 30  1  0
  1 31  1  0
  1 32  1  0
  4 33  1  0
  5 34  1  0
  6 35  1  0
  7 36  1  0
 11 37  1  0
 12 38  1  0
 13 39  1  0
 16 40  1  0
 16 41  1  0
 17 42  1  0
 17 43  1  0
 18 44  1  0
 21 45  1  0
 23 46  1  0
 24 47  1  0
 25 48  1  0
 28 49  1  0
 29 50  1  0
M  END
>  <smiles>  (92) 
COc1ccccc1N=c1[nH]ccc(=NCCNC(=O)Nc2cccc(Cl)c2)[nH]1

>  <score_type>  (92) 
oracle

>  <origin>  (92) 
adg

>  <m_score__min__energy>  (92) 
-8.5399999999999991

>  <m_primary>  (92) 
energy

$$$$
92:0
     RDKit          3D

 40 42  0  0  0  0  0  0  0  0999 V2000
   57.4550   33.4670   46.8820 C   0  0  0  0  0  0  0  0  0  0  0  0
   57.4750   33.5920   45.3570 C   0  0  0  0  0  0  0  0  0  0  0  0
   58.5650   34.5680   44.9050 C   0  0  0  0  0  0  0  0  0  0  0  0
   57.7260   31.9870   44.6010 S   0  0  0  0  0  0  0  0  0  0  0  0
   57.9680   32.1480   43.1260 O   0  0  0  0  0  0  0  0  0  0  0  0
   56.4990   31.1440   44.8180 O   0  0  0  0  0  0  0  0  0  0  0  0
   59.1020   31.2240   45.3290 N   0  0  0  0  0  0  0  0  0  0  0  0
   59.0770   29.8580   45.7700 C   0  0  0  0  0  0  0  0  0  0  0  0
   58.5090   28.8500   44.9680 C   0  0  0  0  0  0  0  0  0  0  0  0
   57.9950   29.1410   43.7480 F   0  0  0  0  0  0  0  0  0  0  0  0
   58.5050   27.5190   45.4040 C   0  0  0  0  0  0  0  0  0  0  0  0
   59.0700   27.1740   46.6340 C   0  0  0  0  0  0  0  0  0  0  0  0
   59.0600   25.8810   47.0410 F   0  0  0  0  0  0  0  0  0  0  0  0
   59.6500   28.1640   47.4350 C   0  0  0  0  0  0  0  0  0  0  0  0
   60.2070   27.8450   48.6330 N   0  0  0  0  0  0  0  0  0  0  0  0
   60.7700   28.7960   49.4240 C   0  0  0  0  0  0  0  0  0  0  0  0
   60.7740   30.1290   49.0010 C   0  0  0  0  0  0  0  0  0  0  0  0
   61.5090   31.4060   50.0170 S   0  0  0  0  0  0  0  0  0  0  0  0
   62.0290   32.3550   48.5920 C   0  0  0  0  0  0  0  0  0  0  0  0
   63.3710   32.3570   48.1960 C   0  0  0  0  0  0  0  0  0  0  0  0
   63.7510   33.0990   47.0750 C   0  0  0  0  0  0  0  0  0  0  0  0
   62.7920   33.8290   46.3690 C   0  0  0  0  0  0  0  0  0  0  0  0
   61.4620   33.8040   46.7960 C   0  0  0  0  0  0  0  0  0  0  0  0
   61.1130   33.0750   47.8900 N   0  0  0  0  0  0  0  0  0  0  0  0
   60.2170   30.4540   47.8040 N   0  0  0  0  0  0  0  0  0  0  0  0
   59.6580   29.5080   47.0030 C   0  0  0  0  0  0  0  0  0  0  0  0
   57.6135   34.4576   47.3332 H   0  0  0  0  0  0  0  0  0  0  0  0
   56.4817   33.0686   47.2045 H   0  0  0  0  0  0  0  0  0  0  0  0
   58.2554   32.7849   47.2045 H   0  0  0  0  0  0  0  0  0  0  0  0
   56.5010   33.9869   45.0325 H   0  0  0  0  0  0  0  0  0  0  0  0
   59.0540   35.0059   45.7877 H   0  0  0  0  0  0  0  0  0  0  0  0
   59.3111   34.0305   44.3013 H   0  0  0  0  0  0  0  0  0  0  0  0
   58.1128   35.3687   44.3013 H   0  0  0  0  0  0  0  0  0  0  0  0
   59.8740   31.8500   45.6550 H   0  0  0  0  0  0  0  0  0  0  0  0
   58.0534   26.7393   44.7729 H   0  0  0  0  0  0  0  0  0  0  0  0
   61.2190   28.5194   50.3893 H   0  0  0  0  0  0  0  0  0  0  0  0
   64.1184   31.7808   48.7610 H   0  0  0  0  0  0  0  0  0  0  0  0
   64.8017   33.1083   46.7495 H   0  0  0  0  0  0  0  0  0  0  0  0
   63.0810   34.4176   45.4858 H   0  0  0  0  0  0  0  0  0  0  0  0
   60.6973   34.3737   46.2476 H   0  0  0  0  0  0  0  0  0  0  0  0
  1  2  1  0
  2  3  1  0
  2  4  1  0
  4  5  2  0
  4  6  2  0
  4  7  1  0
  7  8  1  0
  8  9  2  0
  9 10  1  0
  9 11  1  0
 11 12  2  0
 12 13  1  0
 12 14  1  0
 14 15  2  0
 15 16  1  0
 16 17  2  0
 17 18  1  0
 18 19  1  0
 19 20  2  0
 20 21  1  0
 21 22  2  0
 22 23  1  0
 23 24  2  0
 17 25  1  0
 25 26  2  0
 26  8  1  0
 26 14  1  0
 24 19  1  0
  1 27  1  0
  1 28  1  0
  1 29  1  0
  2 30  1  0
  3 31  1  0
  3 32  1  0
  3 33  1  0
  7 34  1  0
 11 35  1  0
 16 36  1  0
 20 37  1  0
 21 38  1  0
 22 39  1  0
 23 40  1  0
M  END
>  <UniqueID>  (93) 
88

>  <SMILES>  (93) 
CC(C)S(=O)(=O)Nc1c(F)cc(F)c2ncc(Sc3ccccn3)nc12

>  <Energy>  (93) 
39.61831057837424

>  <Genealogy>  (93) 
CC(C)S(=O)(=O)Nc1c(F)cc(F)c2ncc(Sc3ccccn3)nc12 (3D coordinates assigned)
CC(C)S(=O)(=O)Nc1c(F)cc(F)c2ncc(Sc3ccccn3)nc12 (optimized conformer: 39.61831057837424 kcal/mol)

>  <smiles>  (93) 
CC(C)S(=O)(=O)Nc1c(F)cc(F)c2ncc(Sc3ccccn3)nc12

>  <score_type>  (93) 
oracle

>  <origin>  (93) 
adg

>  <m_score__min__energy>  (93) 
-8.1899999999999995

>  <m_primary>  (93) 
energy

$$$$
