0:0
     RDKit          3D

 25 27  0  0  0  0  0  0  0  0999 V2000
   57.1020   22.5640   47.4830 O   0  0  0  0  0  0  0  0  0  0  0  0
   56.8860   23.7090   47.0080 C   0  0  0  0  0  0  0  0  0  0  0  0
   55.6440   24.2210   46.8820 N   0  0  0  0  0  0  0  0  0  0  0  0
   55.8750   25.4320   46.3470 C   0  0  0  0  0  0  0  0  0  0  0  0
   54.8760   26.3430   46.0290 O   0  0  0  0  0  0  0  0  0  0  0  0
   57.2270   25.6170   46.1560 C   0  0  0  0  0  0  0  0  0  0  0  0
   57.8930   26.8380   45.6460 C   0  0  0  0  0  0  0  0  0  0  0  0
   57.7150   27.1730   44.2920 C   0  0  0  0  0  0  0  0  0  0  0  0
   58.2630   28.3430   43.7670 C   0  0  0  0  0  0  0  0  0  0  0  0
   59.0000   29.2010   44.5790 C   0  0  0  0  0  0  0  0  0  0  0  0
   59.2090   28.8890   45.9290 C   0  0  0  0  0  0  0  0  0  0  0  0
   59.9660   29.7530   46.7360 C   0  0  0  0  0  0  0  0  0  0  0  0
   60.2040   29.4370   48.0740 C   0  0  0  0  0  0  0  0  0  0  0  0
   59.6990   28.2560   48.6150 C   0  0  0  0  0  0  0  0  0  0  0  0
   58.9400   27.3870   47.8270 C   0  0  0  0  0  0  0  0  0  0  0  0
   58.6630   27.6950   46.4770 C   0  0  0  0  0  0  0  0  0  0  0  0
   57.8790   24.5210   46.5860 N   0  0  0  0  0  0  0  0  0  0  0  0
   54.2640   26.7100   46.7480 H   0  0  0  0  0  0  0  0  0  0  0  0
   57.1361   26.5037   43.6386 H   0  0  0  0  0  0  0  0  0  0  0  0
   58.1122   28.5894   42.7056 H   0  0  0  0  0  0  0  0  0  0  0  0
   59.4197   30.1271   44.1592 H   0  0  0  0  0  0  0  0  0  0  0  0
   60.3731   30.6827   46.3118 H   0  0  0  0  0  0  0  0  0  0  0  0
   60.7916   30.1216   48.7034 H   0  0  0  0  0  0  0  0  0  0  0  0
   59.8990   28.0068   49.6676 H   0  0  0  0  0  0  0  0  0  0  0  0
   58.5543   26.4535   48.2626 H   0  0  0  0  0  0  0  0  0  0  0  0
  1  2  2  0
  2  3  1  0
  3  4  1  0
  4  5  1  0
  4  6  2  0
  6  7  1  0
  7  8  2  0
  8  9  1  0
  9 10  2  0
 10 11  1  0
 11 12  2  0
 12 13  1  0
 13 14  2  0
 14 15  1  0
 15 16  2  0
  6 17  1  0
 17  2  1  0
 16  7  1  0
 16 11  1  0
  5 18  1  0
  8 19  1  0
  9 20  1  0
 10 21  1  0
 12 22  1  0
 13 23  1  0
 14 24  1  0
 15 25  1  0
M  CHG  2   3  -1  17  -1
M  END
>  <UniqueID>  (1) 
1

>  <SMILES>  (1) 
O=c1[n-]c(O)c(-c2cccc3ccccc23)[n-]1

>  <Energy>  (1) 
67.21063065897015

>  <Genealogy>  (1) 
O=c1[n-]c(O)c(-c2cccc3ccccc23)[n-]1 (protonated)
O=c1[n-]c(O)c(-c2cccc3ccccc23)[n-]1 (3D coordinates assigned)
O=c1[n-]c(O)c(-c2cccc3ccccc23)[n-]1 (optimized conformer: 67.21063065897015 kcal/mol)

>  <smiles>  (1) 
O=c1[nH]c(O)c(-c2cccc3ccccc23)[nH]1

>  <score_type>  (1) 
oracle

>  <origin>  (1) 
adg

>  <m_score__min__energy>  (1) 
-10.92

>  <m_primary>  (1) 
energy

$$$$
1:0
     RDKit          3D

 31 32  0  0  0  0  0  0  0  0999 V2000
   57.0320   31.3520   42.7080 C   0  0  0  0  0  0  0  0  0  0  0  0
   56.7330   30.2880   43.7130 C   0  0  0  0  0  0  0  0  0  0  0  0
   55.4850   29.8810   44.0210 N   0  0  0  0  0  0  0  0  0  0  0  0
   55.5980   28.9660   44.9400 O   0  0  0  0  0  0  0  0  0  0  0  0
   56.8560   28.7540   45.2500 C   0  0  0  0  0  0  0  0  0  0  0  0
   57.3120   27.7820   46.2880 C   0  0  0  0  0  0  0  0  0  0  0  0
   57.6450   29.5950   44.4900 C   0  0  0  0  0  0  0  0  0  0  0  0
   59.1440   29.7270   44.5100 C   0  0  0  0  0  0  0  0  0  0  0  0
   59.6170   30.0930   45.8550 N   0  0  0  0  0  0  0  0  0  0  0  0
   60.7320   29.3720   46.4760 C   0  0  0  0  0  0  0  0  0  0  0  0
   58.9320   31.0940   46.6300 C   0  0  0  0  0  0  0  0  0  0  0  0
   58.5200   30.8060   47.7870 O   0  0  0  0  0  0  0  0  0  0  0  0
   58.6960   32.4510   46.1020 C   0  0  0  0  0  0  0  0  0  0  0  0
   57.4440   32.9080   45.6580 C   0  0  0  0  0  0  0  0  0  0  0  0
   57.4660   34.2100   45.1790 C   0  0  0  0  0  0  0  0  0  0  0  0
   59.0420   34.7810   45.2900 S   0  0  0  0  0  0  0  0  0  0  0  0
   59.7130   33.3880   45.9470 C   0  0  0  0  0  0  0  0  0  0  0  0
   57.2942   32.2849   43.2286 H   0  0  0  0  0  0  0  0  0  0  0  0
   57.8757   31.0343   42.0777 H   0  0  0  0  0  0  0  0  0  0  0  0
   56.1464   31.5203   42.0777 H   0  0  0  0  0  0  0  0  0  0  0  0
   57.1178   28.1960   47.2885 H   0  0  0  0  0  0  0  0  0  0  0  0
   56.7639   26.8356   46.1701 H   0  0  0  0  0  0  0  0  0  0  0  0
   58.3902   27.5985   46.1701 H   0  0  0  0  0  0  0  0  0  0  0  0
   59.5948   28.7671   44.2177 H   0  0  0  0  0  0  0  0  0  0  0  0
   59.4384   30.5180   43.8046 H   0  0  0  0  0  0  0  0  0  0  0  0
   60.6420   29.4302   47.5708 H   0  0  0  0  0  0  0  0  0  0  0  0
   60.7077   28.3182   46.1616 H   0  0  0  0  0  0  0  0  0  0  0  0
   61.6831   29.8266   46.1616 H   0  0  0  0  0  0  0  0  0  0  0  0
   56.5330   32.2923   45.6873 H   0  0  0  0  0  0  0  0  0  0  0  0
   56.6018   34.7708   44.7936 H   0  0  0  0  0  0  0  0  0  0  0  0
   60.7714   33.2421   46.2089 H   0  0  0  0  0  0  0  0  0  0  0  0
  1  2  1  0
  2  3  2  0
  3  4  1  0
  4  5  1  0
  5  6  1  0
  5  7  2  0
  7  8  1  0
  8  9  1  0
  9 10  1  0
  9 11  1  0
 11 12  2  0
 11 13  1  0
 13 14  1  0
 14 15  2  0
 15 16  1  0
 16 17  1  0
  7  2  1  0
 17 13  2  0
  1 18  1  0
  1 19  1  0
  1 20  1  0
  6 21  1  0
  6 22  1  0
  6 23  1  0
  8 24  1  0
  8 25  1  0
 10 26  1  0
 10 27  1  0
 10 28  1  0
 14 29  1  0
 15 30  1  0
 17 31  1  0
M  END
>  <UniqueID>  (2) 
2

>  <SMILES>  (2) 
Cc1noc(C)c1CN(C)C(=O)c1ccsc1

>  <Energy>  (2) 
84.97628252080888

>  <Genealogy>  (2) 
Cc1noc(C)c1CN(C)C(=O)c1ccsc1 (3D coordinates assigned)
Cc1noc(C)c1CN(C)C(=O)c1ccsc1 (optimized conformer: 84.97628252080888 kcal/mol)

>  <smiles>  (2) 
Cc1noc(C)c1CN(C)C(=O)c1ccsc1

>  <score_type>  (2) 
oracle

>  <origin>  (2) 
adg

>  <m_score__min__energy>  (2) 
-6.4699999999999998

>  <m_primary>  (2) 
energy

$$$$
2:0
     RDKit          3D

 45 48  0  0  0  0  0  0  0  0999 V2000
   64.2961   32.9316   46.5312 H   0  0  0  0  0  0  0  0  0  0  0  0
   63.3740   33.1890   47.0730 C   0  0  0  0  0  0  0  0  0  0  0  0
   62.3150   33.8030   46.3960 C   0  0  0  0  0  0  0  0  0  0  0  0
   62.4100   34.0353   45.3250 H   0  0  0  0  0  0  0  0  0  0  0  0
   61.1300   34.1240   47.0800 C   0  0  0  0  0  0  0  0  0  0  0  0
   60.0070   34.8160   46.3640 C   0  0  0  0  0  0  0  0  0  0  0  0
   60.1936   34.7951   45.2801 H   0  0  0  0  0  0  0  0  0  0  0  0
   59.9419   35.8609   46.7017 H   0  0  0  0  0  0  0  0  0  0  0  0
   58.7530   34.1270   46.6570 N   0  0  0  0  0  0  0  0  0  0  0  0
   58.3760   32.9710   46.1820 C   0  0  0  0  0  0  0  0  0  0  0  0
   57.6990   32.8530   44.9520 C   0  0  0  0  0  0  0  0  0  0  0  0
   57.4718   33.7508   44.3584 H   0  0  0  0  0  0  0  0  0  0  0  0
   57.3180   31.5930   44.4900 C   0  0  0  0  0  0  0  0  0  0  0  0
   56.7906   31.4949   43.5297 H   0  0  0  0  0  0  0  0  0  0  0  0
   57.6080   30.4520   45.2510 C   0  0  0  0  0  0  0  0  0  0  0  0
   57.2530   29.1550   44.8400 C   0  0  0  0  0  0  0  0  0  0  0  0
   56.6650   28.9840   43.7350 O   0  0  0  0  0  0  0  0  0  0  0  0
   57.5630   28.0790   45.6330 N   0  0  0  0  0  0  0  0  0  0  0  0
   57.1980   26.7390   45.2440 C   0  0  0  0  0  0  0  0  0  0  0  0
   57.7670   26.1490   44.1020 C   0  0  0  0  0  0  0  0  0  0  0  0
   58.5008   26.7101   43.5047 H   0  0  0  0  0  0  0  0  0  0  0  0
   57.4060   24.8540   43.7210 C   0  0  0  0  0  0  0  0  0  0  0  0
   57.8588   24.4001   42.8272 H   0  0  0  0  0  0  0  0  0  0  0  0
   56.4650   24.1270   44.4760 C   0  0  0  0  0  0  0  0  0  0  0  0
   56.0700   22.8240   44.1350 O   0  0  0  0  0  0  0  0  0  0  0  0
   56.8950   21.8900   43.4460 C   0  0  0  0  0  0  0  0  0  0  0  0
   57.4396   21.2734   44.1762 H   0  0  0  0  0  0  0  0  0  0  0  0
   56.2682   21.2430   42.8148 H   0  0  0  0  0  0  0  0  0  0  0  0
   57.6145   22.4321   42.8148 H   0  0  0  0  0  0  0  0  0  0  0  0
   55.8960   24.7190   45.6090 C   0  0  0  0  0  0  0  0  0  0  0  0
   55.1594   24.1601   46.2048 H   0  0  0  0  0  0  0  0  0  0  0  0
   56.2560   26.0150   45.9900 C   0  0  0  0  0  0  0  0  0  0  0  0
   55.7977   26.4700   46.8805 H   0  0  0  0  0  0  0  0  0  0  0  0
   58.2280   28.2660   46.8130 C   0  0  0  0  0  0  0  0  0  0  0  0
   58.4817   27.3978   47.4390 H   0  0  0  0  0  0  0  0  0  0  0  0
   58.5780   29.5130   47.2190 N   0  0  0  0  0  0  0  0  0  0  0  0
   58.2850   30.6050   46.4720 C   0  0  0  0  0  0  0  0  0  0  0  0
   58.6490   31.8460   46.9050 N   0  0  0  0  0  0  0  0  0  0  0  0
   59.1510   31.9340   47.8180 H   0  0  0  0  0  0  0  0  0  0  0  0
   61.0320   33.8470   48.4540 C   0  0  0  0  0  0  0  0  0  0  0  0
   60.1167   34.1136   49.0028 H   0  0  0  0  0  0  0  0  0  0  0  0
   62.0930   33.2340   49.1260 C   0  0  0  0  0  0  0  0  0  0  0  0
   62.0075   33.0122   50.2000 H   0  0  0  0  0  0  0  0  0  0  0  0
   63.2630   32.9020   48.4360 C   0  0  0  0  0  0  0  0  0  0  0  0
   64.2910   32.3090   49.0900 F   0  0  0  0  0  0  0  0  0  0  0  0
  1  2  1  0
  2  3  2  0
  3  4  1  0
  3  5  1  0
  5  6  1  0
  6  7  1  0
  6  8  1  0
  6  9  1  0
  9 10  2  0
 10 11  1  0
 11 12  1  0
 11 13  2  0
 13 14  1  0
 13 15  1  0
 15 16  1  0
 16 17  2  0
 16 18  1  0
 18 19  1  0
 19 20  2  0
 20 21  1  0
 20 22  1  0
 22 23  1  0
 22 24  2  0
 24 25  1  0
 25 26  1  0
 26 27  1  0
 26 28  1  0
 26 29  1  0
 24 30  1  0
 30 31  1  0
 30 32  2  0
 32 33  1  0
 18 34  1  0
 34 35  1  0
 34 36  2  0
 36 37  1  0
 37 38  1  0
 38 39  1  0
  5 40  2  0
 40 41  1  0
 40 42  1  0
 42 43  1  0
 42 44  2  0
 44 45  1  0
 44  2  1  0
 38 10  1  0
 37 15  2  0
 32 19  1  0
M  END
>  <UniqueID>  (3) 
3

>  <SMILES>  (3) 
COc1ccc(-n2cnc3[nH]/c(=N/Cc4ccc(F)cc4)ccc3c2=O)cc1

>  <Energy>  (3) 
63.3789691823971

>  <Genealogy>  (3) 
COc1ccc(-n2cnc3[nH]/c(=N/Cc4ccc(F)cc4)ccc3c2=O)cc1 (cis-trans isomerization)
COc1ccc(-n2cnc3[nH]/c(=N/Cc4ccc(F)cc4)ccc3c2=O)cc1 (3D coordinates assigned)
COc1ccc(-n2cnc3[nH]/c(=N/Cc4ccc(F)cc4)ccc3c2=O)cc1 (optimized conformer: 63.3789691823971 kcal/mol)

>  <smiles>  (3) 
COc1ccc(-n2cnc3[nH]c(=NCc4ccc(F)cc4)ccc3c2=O)cc1

>  <score_type>  (3) 
oracle

>  <origin>  (3) 
adg

>  <m_score__min__energy>  (3) 
-7.5999999999999996

>  <m_primary>  (3) 
energy

$$$$
3:0
     RDKit          3D

 61 65  0  0  0  0  0  0  0  0999 V2000
   63.0560   31.9370   47.9340 C   0  0  0  0  0  0  0  0  0  0  0  0
   63.7520   32.2200   49.2380 C   0  0  0  0  0  0  0  0  0  0  0  0
   64.9000   33.0360   49.2530 C   0  0  0  0  0  0  0  0  0  0  0  0
   65.5540   33.3190   50.4560 C   0  0  0  0  0  0  0  0  0  0  0  0
   65.0680   32.7970   51.6570 C   0  0  0  0  0  0  0  0  0  0  0  0
   63.9350   31.9770   51.6570 C   0  0  0  0  0  0  0  0  0  0  0  0
   63.2750   31.6760   50.4530 C   0  0  0  0  0  0  0  0  0  0  0  0
   62.1370   30.7990   50.4780 N   0  0  0  0  0  0  0  0  0  0  0  0
   62.2960   29.4200   50.9570 C   0  0  0  0  0  0  0  0  0  0  0  0
   61.0180   28.6080   50.7220 C   0  0  0  0  0  0  0  0  0  0  0  0
   60.5280   28.8510   49.3560 N   0  0  0  0  0  0  0  0  0  0  0  0
   60.4600   27.7680   48.4030 C   0  0  0  0  0  0  0  0  0  0  0  0
   61.1350   26.7210   48.5950 O   0  0  0  0  0  0  0  0  0  0  0  0
   59.6460   27.8660   47.1710 C   0  0  0  0  0  0  0  0  0  0  0  0
   58.2660   27.6140   47.2010 C   0  0  0  0  0  0  0  0  0  0  0  0
   57.4970   27.7410   46.0400 C   0  0  0  0  0  0  0  0  0  0  0  0
   58.1000   28.1160   44.8300 C   0  0  0  0  0  0  0  0  0  0  0  0
   57.2860   28.2820   43.6580 N   0  0  0  0  0  0  0  0  0  0  0  0
   56.3850   29.7330   43.3410 S   0  0  0  0  0  0  0  0  0  0  0  0
   56.2650   29.9600   41.8590 O   0  0  0  0  0  0  0  0  0  0  0  0
   55.0140   29.6010   43.9420 O   0  0  0  0  0  0  0  0  0  0  0  0
   57.2300   31.1090   44.0380 C   0  0  0  0  0  0  0  0  0  0  0  0
   57.7180   32.1340   43.2140 C   0  0  0  0  0  0  0  0  0  0  0  0
   58.4280   33.2050   43.7640 C   0  0  0  0  0  0  0  0  0  0  0  0
   58.6620   33.2570   45.1410 C   0  0  0  0  0  0  0  0  0  0  0  0
   59.3680   34.2900   45.6770 N   0  0  0  0  0  0  0  0  0  0  0  0
   59.6200   34.3700   47.0110 C   0  0  0  0  0  0  0  0  0  0  0  0
   60.2810   35.3400   47.4660 O   0  0  0  0  0  0  0  0  0  0  0  0
   59.1480   33.3750   47.8750 C   0  0  0  0  0  0  0  0  0  0  0  0
   58.4150   32.3030   47.3560 C   0  0  0  0  0  0  0  0  0  0  0  0
   58.1700   32.2300   45.9780 C   0  0  0  0  0  0  0  0  0  0  0  0
   57.4570   31.1600   45.4210 C   0  0  0  0  0  0  0  0  0  0  0  0
   59.4910   28.3070   44.7860 C   0  0  0  0  0  0  0  0  0  0  0  0
   60.2570   28.1800   45.9480 C   0  0  0  0  0  0  0  0  0  0  0  0
   60.3290   30.2430   48.9090 C   0  0  0  0  0  0  0  0  0  0  0  0
   60.8510   31.2550   49.9380 C   0  0  0  0  0  0  0  0  0  0  0  0
   62.0540   31.5296   48.1341 H   0  0  0  0  0  0  0  0  0  0  0  0
   62.9643   32.8693   47.3574 H   0  0  0  0  0  0  0  0  0  0  0  0
   63.6409   31.2053   47.3574 H   0  0  0  0  0  0  0  0  0  0  0  0
   65.2850   33.4538   48.3111 H   0  0  0  0  0  0  0  0  0  0  0  0
   66.4525   33.9536   50.4566 H   0  0  0  0  0  0  0  0  0  0  0  0
   65.5769   33.0311   52.6037 H   0  0  0  0  0  0  0  0  0  0  0  0
   63.5582   31.5652   52.6048 H   0  0  0  0  0  0  0  0  0  0  0  0
   63.1286   28.9452   50.4173 H   0  0  0  0  0  0  0  0  0  0  0  0
   62.5024   29.4451   52.0372 H   0  0  0  0  0  0  0  0  0  0  0  0
   61.2352   27.5371   50.8488 H   0  0  0  0  0  0  0  0  0  0  0  0
   60.2499   28.9142   51.4475 H   0  0  0  0  0  0  0  0  0  0  0  0
   57.7858   27.3145   48.1442 H   0  0  0  0  0  0  0  0  0  0  0  0
   56.4150   27.5461   46.0756 H   0  0  0  0  0  0  0  0  0  0  0  0
   57.0820   27.4530   43.0600 H   0  0  0  0  0  0  0  0  0  0  0  0
   57.5409   32.0947   42.1291 H   0  0  0  0  0  0  0  0  0  0  0  0
   58.8031   34.0079   43.1124 H   0  0  0  0  0  0  0  0  0  0  0  0
   59.3521   33.4358   48.9542 H   0  0  0  0  0  0  0  0  0  0  0  0
   58.0321   31.5199   48.0269 H   0  0  0  0  0  0  0  0  0  0  0  0
   57.0745   30.3583   46.0699 H   0  0  0  0  0  0  0  0  0  0  0  0
   59.9795   28.5576   43.8328 H   0  0  0  0  0  0  0  0  0  0  0  0
   61.3462   28.3272   45.9033 H   0  0  0  0  0  0  0  0  0  0  0  0
   60.8653   30.3919   47.9602 H   0  0  0  0  0  0  0  0  0  0  0  0
   59.2489   30.4098   48.7846 H   0  0  0  0  0  0  0  0  0  0  0  0
   60.9853   32.2328   49.4524 H   0  0  0  0  0  0  0  0  0  0  0  0
   60.1244   31.3446   50.7590 H   0  0  0  0  0  0  0  0  0  0  0  0
  1  2  1  0
  2  3  2  0
  3  4  1  0
  4  5  2  0
  5  6  1  0
  6  7  2  0
  7  8  1  0
  8  9  1  0
  9 10  1  0
 10 11  1  0
 11 12  1  0
 12 13  2  0
 12 14  1  0
 14 15  2  0
 15 16  1  0
 16 17  2  0
 17 18  1  0
 18 19  1  0
 19 20  2  0
 19 21  2  0
 19 22  1  0
 22 23  2  0
 23 24  1  0
 24 25  2  0
 25 26  1  0
 26 27  1  0
 27 28  2  0
 27 29  1  0
 29 30  2  0
 30 31  1  0
 31 32  2  0
 17 33  1  0
 33 34  2  0
 11 35  1  0
 35 36  1  0
  7  2  1  0
 36  8  1  0
 34 14  1  0
 32 22  1  0
 31 25  1  0
  1 37  1  0
  1 38  1  0
  1 39  1  0
  3 40  1  0
  4 41  1  0
  5 42  1  0
  6 43  1  0
  9 44  1  0
  9 45  1  0
 10 46  1  0
 10 47  1  0
 15 48  1  0
 16 49  1  0
 18 50  1  0
 23 51  1  0
 24 52  1  0
 29 53  1  0
 30 54  1  0
 32 55  1  0
 33 56  1  0
 34 57  1  0
 35 58  1  0
 35 59  1  0
 36 60  1  0
 36 61  1  0
M  CHG  1  26  -1
M  END
>  <UniqueID>  (4) 
4

>  <SMILES>  (4) 
Cc1ccccc1N1CCN(C(=O)c2ccc(NS(=O)(=O)c3ccc4[n-]c(=O)ccc4c3)cc2)CC1

>  <Energy>  (4) 
86.08528196177154

>  <Genealogy>  (4) 
Cc1ccccc1N1CCN(C(=O)c2ccc(NS(=O)(=O)c3ccc4[n-]c(=O)ccc4c3)cc2)CC1 (protonated)
Cc1ccccc1N1CCN(C(=O)c2ccc(NS(=O)(=O)c3ccc4[n-]c(=O)ccc4c3)cc2)CC1 (3D coordinates assigned)
Cc1ccccc1N1CCN(C(=O)c2ccc(NS(=O)(=O)c3ccc4[n-]c(=O)ccc4c3)cc2)CC1 (nonaromatic ring conformer: 86.08528196177154 kcal/mol)

>  <smiles>  (4) 
Cc1ccccc1N1CCN(C(=O)c2ccc(NS(=O)(=O)c3ccc4[nH]c(=O)ccc4c3)cc2)CC1

>  <score_type>  (4) 
oracle

>  <origin>  (4) 
adg

>  <m_score__min__energy>  (4) 
-11.31

>  <m_primary>  (4) 
energy

$$$$
4:0
     RDKit          3D

 61 64  0  0  0  0  0  0  0  0999 V2000
   61.9510   33.4770   52.6170 C   0  0  0  0  0  0  0  0  0  0  0  0
   62.0470   32.1730   51.8740 C   0  0  0  0  0  0  0  0  0  0  0  0
   61.3430   31.0480   52.3340 C   0  0  0  0  0  0  0  0  0  0  0  0
   61.4320   29.8310   51.6500 C   0  0  0  0  0  0  0  0  0  0  0  0
   60.5470   28.4320   52.2290 Cl  0  0  0  0  0  0  0  0  0  0  0  0
   62.2260   29.7300   50.5060 C   0  0  0  0  0  0  0  0  0  0  0  0
   62.9330   30.8410   50.0420 C   0  0  0  0  0  0  0  0  0  0  0  0
   62.8510   32.0740   50.7210 C   0  0  0  0  0  0  0  0  0  0  0  0
   63.5480   33.2120   50.2810 O   0  0  0  0  0  0  0  0  0  0  0  0
   62.9510   34.3090   49.5970 C   0  0  0  0  0  0  0  0  0  0  0  0
   62.2720   33.8400   48.3410 C   0  0  0  0  0  0  0  0  0  0  0  0
   62.9860   33.4790   47.3630 O   0  0  0  0  0  0  0  0  0  0  0  0
   60.8310   33.8040   48.2210 N   0  0  0  0  0  0  0  0  0  0  0  0
   60.0680   34.8590   47.5300 C   0  0  0  0  0  0  0  0  0  0  0  0
   59.1540   34.2740   46.4830 C   0  0  0  0  0  0  0  0  0  0  0  0
   57.8670   33.8310   46.8370 C   0  0  0  0  0  0  0  0  0  0  0  0
   57.0170   33.2890   45.8700 C   0  0  0  0  0  0  0  0  0  0  0  0
   57.4460   33.1750   44.5450 C   0  0  0  0  0  0  0  0  0  0  0  0
   58.7300   33.5920   44.1870 C   0  0  0  0  0  0  0  0  0  0  0  0
   59.5850   34.1340   45.1520 C   0  0  0  0  0  0  0  0  0  0  0  0
   60.1120   32.7040   48.8090 C   0  0  0  0  0  0  0  0  0  0  0  0
   60.1770   31.4080   48.2560 C   0  0  0  0  0  0  0  0  0  0  0  0
   61.0400   31.1770   47.1270 N   0  0  0  0  0  0  0  0  0  0  0  0
   59.4510   30.3830   48.8270 N   0  0  0  0  0  0  0  0  0  0  0  0
   59.5010   29.0120   48.2690 C   0  0  0  0  0  0  0  0  0  0  0  0
   59.0290   28.9850   46.8340 C   0  0  0  0  0  0  0  0  0  0  0  0
   58.0080   29.8490   46.3980 C   0  0  0  0  0  0  0  0  0  0  0  0
   57.5990   29.8400   45.0600 C   0  0  0  0  0  0  0  0  0  0  0  0
   58.2140   28.9830   44.1450 C   0  0  0  0  0  0  0  0  0  0  0  0
   59.2410   28.1340   44.5650 C   0  0  0  0  0  0  0  0  0  0  0  0
   59.6530   28.1390   45.9000 C   0  0  0  0  0  0  0  0  0  0  0  0
   58.6930   30.6300   49.9500 C   0  0  0  0  0  0  0  0  0  0  0  0
   58.0340   29.7040   50.5020 O   0  0  0  0  0  0  0  0  0  0  0  0
   58.6490   31.8740   50.4950 N   0  0  0  0  0  0  0  0  0  0  0  0
   59.3390   32.9050   49.9540 C   0  0  0  0  0  0  0  0  0  0  0  0
   59.2720   34.0480   50.4850 O   0  0  0  0  0  0  0  0  0  0  0  0
   61.9652   33.2839   53.6998 H   0  0  0  0  0  0  0  0  0  0  0  0
   62.8045   34.1164   52.3473 H   0  0  0  0  0  0  0  0  0  0  0  0
   61.0131   33.9845   52.3473 H   0  0  0  0  0  0  0  0  0  0  0  0
   60.7187   31.1243   53.2364 H   0  0  0  0  0  0  0  0  0  0  0  0
   62.2947   28.7726   49.9688 H   0  0  0  0  0  0  0  0  0  0  0  0
   63.5579   30.7538   49.1410 H   0  0  0  0  0  0  0  0  0  0  0  0
   62.2080   34.7843   50.2543 H   0  0  0  0  0  0  0  0  0  0  0  0
   63.7366   35.0306   49.3284 H   0  0  0  0  0  0  0  0  0  0  0  0
   59.4638   35.4068   48.2681 H   0  0  0  0  0  0  0  0  0  0  0  0
   60.7796   35.5348   47.0330 H   0  0  0  0  0  0  0  0  0  0  0  0
   57.5281   33.9117   47.8804 H   0  0  0  0  0  0  0  0  0  0  0  0
   56.0087   32.9515   46.1519 H   0  0  0  0  0  0  0  0  0  0  0  0
   56.7718   32.7564   43.7832 H   0  0  0  0  0  0  0  0  0  0  0  0
   59.0691   33.4940   43.1452 H   0  0  0  0  0  0  0  0  0  0  0  0
   60.5991   34.4522   44.8684 H   0  0  0  0  0  0  0  0  0  0  0  0
   61.9850   31.6040   47.0340 H   0  0  0  0  0  0  0  0  0  0  0  0
   60.7360   30.5830   46.3250 H   0  0  0  0  0  0  0  0  0  0  0  0
   60.5372   28.6453   48.3122 H   0  0  0  0  0  0  0  0  0  0  0  0
   58.8355   28.3704   48.8652 H   0  0  0  0  0  0  0  0  0  0  0  0
   57.5290   30.5348   47.1123 H   0  0  0  0  0  0  0  0  0  0  0  0
   56.7915   30.5092   44.7283 H   0  0  0  0  0  0  0  0  0  0  0  0
   57.8900   28.9764   43.0938 H   0  0  0  0  0  0  0  0  0  0  0  0
   59.7261   27.4604   43.8433 H   0  0  0  0  0  0  0  0  0  0  0  0
   60.4704   27.4772   46.2224 H   0  0  0  0  0  0  0  0  0  0  0  0
   58.0710   32.0380   51.3520 H   0  0  0  0  0  0  0  0  0  0  0  0
  1  2  1  0
  2  3  2  0
  3  4  1  0
  4  5  1  0
  4  6  2  0
  6  7  1  0
  7  8  2  0
  8  9  1  0
  9 10  1  0
 10 11  1  0
 11 12  2  0
 11 13  1  0
 13 14  1  0
 14 15  1  0
 15 16  2  0
 16 17  1  0
 17 18  2  0
 18 19  1  0
 19 20  2  0
 13 21  1  0
 21 22  2  0
 22 23  1  0
 22 24  1  0
 24 25  1  0
 25 26  1  0
 26 27  2  0
 27 28  1  0
 28 29  2  0
 29 30  1  0
 30 31  2  0
 24 32  1  0
 32 33  2  0
 32 34  1  0
 34 35  1  0
 35 36  2  0
  8  2  1  0
 20 15  1  0
 35 21  1  0
 31 26  1  0
  1 37  1  0
  1 38  1  0
  1 39  1  0
  3 40  1  0
  6 41  1  0
  7 42  1  0
 10 43  1  0
 10 44  1  0
 14 45  1  0
 14 46  1  0
 16 47  1  0
 17 48  1  0
 18 49  1  0
 19 50  1  0
 20 51  1  0
 23 52  1  0
 23 53  1  0
 25 54  1  0
 25 55  1  0
 27 56  1  0
 28 57  1  0
 29 58  1  0
 30 59  1  0
 31 60  1  0
 34 61  1  0
M  END
>  <UniqueID>  (5) 
5

>  <SMILES>  (5) 
Cc1cc(Cl)ccc1OCC(=O)N(Cc1ccccc1)c1c(N)n(Cc2ccccc2)c(=O)[nH]c1=O

>  <Energy>  (5) 
77.20154551344167

>  <Genealogy>  (5) 
Cc1cc(Cl)ccc1OCC(=O)N(Cc1ccccc1)c1c(N)n(Cc2ccccc2)c(=O)[nH]c1=O (3D coordinates assigned)
Cc1cc(Cl)ccc1OCC(=O)N(Cc1ccccc1)c1c(N)n(Cc2ccccc2)c(=O)[nH]c1=O (optimized conformer: 77.20154551344167 kcal/mol)

>  <smiles>  (5) 
Cc1cc(Cl)ccc1OCC(=O)N(Cc1ccccc1)c1c(N)n(Cc2ccccc2)c(=O)[nH]c1=O

>  <score_type>  (5) 
oracle

>  <origin>  (5) 
adg

>  <m_score__min__energy>  (5) 
-9.2699999999999996

>  <m_primary>  (5) 
energy

$$$$
5:0
     RDKit          3D

 23 23  0  0  0  0  0  0  0  0999 V2000
   53.8110   25.9250   46.3750 H   0  0  0  0  0  0  0  0  0  0  0  0
   54.5940   26.3380   45.8860 O   0  0  0  0  0  0  0  0  0  0  0  0
   55.8660   26.2190   46.3990 N   0  0  0  0  0  0  0  0  0  0  0  0
   56.9320   26.2870   45.6600 C   0  0  0  0  0  0  0  0  0  0  0  0
   57.4401   25.3498   45.3888 H   0  0  0  0  0  0  0  0  0  0  0  0
   57.4980   27.5630   45.1640 C   0  0  0  0  0  0  0  0  0  0  0  0
   56.7790   28.6990   45.2190 C   0  0  0  0  0  0  0  0  0  0  0  0
   55.8859   28.7229   45.8607 H   0  0  0  0  0  0  0  0  0  0  0  0
   57.1310   29.9140   44.4600 C   0  0  0  0  0  0  0  0  0  0  0  0
   56.7020   30.0330   43.1300 C   0  0  0  0  0  0  0  0  0  0  0  0
   56.1077   29.2288   42.6717 H   0  0  0  0  0  0  0  0  0  0  0  0
   57.0270   31.1700   42.3850 C   0  0  0  0  0  0  0  0  0  0  0  0
   56.6820   31.2617   41.3445 H   0  0  0  0  0  0  0  0  0  0  0  0
   57.7890   32.1900   42.9590 C   0  0  0  0  0  0  0  0  0  0  0  0
   58.0373   33.0874   42.3734 H   0  0  0  0  0  0  0  0  0  0  0  0
   58.2360   32.0700   44.2780 C   0  0  0  0  0  0  0  0  0  0  0  0
   58.8419   32.8715   44.7258 H   0  0  0  0  0  0  0  0  0  0  0  0
   57.9160   30.9340   45.0320 C   0  0  0  0  0  0  0  0  0  0  0  0
   58.5380   30.8050   46.6750 Cl  0  0  0  0  0  0  0  0  0  0  0  0
   58.9500   27.5780   44.7600 C   0  0  0  0  0  0  0  0  0  0  0  0
   59.5812   27.5845   45.6609 H   0  0  0  0  0  0  0  0  0  0  0  0
   59.1735   26.6821   44.1621 H   0  0  0  0  0  0  0  0  0  0  0  0
   59.1550   28.4783   44.1621 H   0  0  0  0  0  0  0  0  0  0  0  0
  1  2  1  0
  2  3  1  0
  3  4  2  0
  4  5  1  0
  4  6  1  0
  6  7  2  0
  7  8  1  0
  7  9  1  0
  9 10  2  0
 10 11  1  0
 10 12  1  0
 12 13  1  0
 12 14  2  0
 14 15  1  0
 14 16  1  0
 16 17  1  0
 16 18  2  0
 18 19  1  0
  6 20  1  0
 20 21  1  0
 20 22  1  0
 20 23  1  0
 18  9  1  0
M  END
>  <UniqueID>  (6) 
6

>  <SMILES>  (6) 
CC(/C=N\O)=C\c1ccccc1Cl

>  <Energy>  (6) 
32.52026177643867

>  <Genealogy>  (6) 
CC(/C=N\O)=C\c1ccccc1Cl (cis-trans isomerization)
CC(/C=N\O)=C\c1ccccc1Cl (3D coordinates assigned)
CC(/C=N\O)=C\c1ccccc1Cl (optimized conformer: 32.52026177643867 kcal/mol)

>  <smiles>  (6) 
CC(C=NO)=Cc1ccccc1Cl

>  <score_type>  (6) 
oracle

>  <origin>  (6) 
adg

>  <m_score__min__energy>  (6) 
-7.25

>  <m_primary>  (6) 
energy

$$$$
6:0
     RDKit          3D

 45 48  0  0  0  0  0  0  0  0999 V2000
   57.5070   24.5640   48.1000 O   0  0  0  0  0  0  0  0  0  0  0  0
   57.1240   24.9550   46.9630 C   0  0  0  0  0  0  0  0  0  0  0  0
   55.8420   24.4370   46.4470 C   0  0  0  0  0  0  0  0  0  0  0  0
   55.5980   23.0550   46.4270 C   0  0  0  0  0  0  0  0  0  0  0  0
   54.3930   22.5620   45.9200 C   0  0  0  0  0  0  0  0  0  0  0  0
   53.4180   23.4430   45.4360 C   0  0  0  0  0  0  0  0  0  0  0  0
   52.2170   22.9630   44.9220 O   0  0  0  0  0  0  0  0  0  0  0  0
   53.6510   24.8220   45.4710 C   0  0  0  0  0  0  0  0  0  0  0  0
   54.8560   25.3230   45.9760 C   0  0  0  0  0  0  0  0  0  0  0  0
   55.0730   26.6950   45.9920 O   0  0  0  0  0  0  0  0  0  0  0  0
   57.9290   25.8930   46.2090 N   0  0  0  0  0  0  0  0  0  0  0  0
   58.2750   25.6600   44.7960 C   0  0  0  0  0  0  0  0  0  0  0  0
   57.6970   24.3570   44.3050 C   0  0  0  0  0  0  0  0  0  0  0  0
   58.2480   23.1320   44.7150 C   0  0  0  0  0  0  0  0  0  0  0  0
   57.6910   21.9260   44.2800 C   0  0  0  0  0  0  0  0  0  0  0  0
   56.5880   21.9340   43.4210 C   0  0  0  0  0  0  0  0  0  0  0  0
   56.0340   20.7340   42.9900 O   0  0  0  0  0  0  0  0  0  0  0  0
   56.0450   23.1490   42.9930 C   0  0  0  0  0  0  0  0  0  0  0  0
   56.5980   24.3560   43.4290 C   0  0  0  0  0  0  0  0  0  0  0  0
   58.3770   27.1100   46.8330 C   0  0  0  0  0  0  0  0  0  0  0  0
   57.9070   28.3570   46.3920 C   0  0  0  0  0  0  0  0  0  0  0  0
   58.3450   29.5020   46.9770 N   0  0  0  0  0  0  0  0  0  0  0  0
   59.2440   29.4870   47.9960 C   0  0  0  0  0  0  0  0  0  0  0  0
   59.6710   30.6880   48.5750 C   0  0  0  0  0  0  0  0  0  0  0  0
   60.5980   30.6690   49.6220 C   0  0  0  0  0  0  0  0  0  0  0  0
   61.1030   29.4520   50.0910 C   0  0  0  0  0  0  0  0  0  0  0  0
   60.6850   28.2480   49.5180 C   0  0  0  0  0  0  0  0  0  0  0  0
   59.7530   28.2580   48.4690 C   0  0  0  0  0  0  0  0  0  0  0  0
   59.3120   27.0680   47.8770 C   0  0  0  0  0  0  0  0  0  0  0  0
   56.3574   22.3582   46.8115 H   0  0  0  0  0  0  0  0  0  0  0  0
   54.2095   21.4776   45.9009 H   0  0  0  0  0  0  0  0  0  0  0  0
   52.1540   22.5940   43.9800 H   0  0  0  0  0  0  0  0  0  0  0  0
   52.8828   25.5162   45.0995 H   0  0  0  0  0  0  0  0  0  0  0  0
   57.8737   26.4835   44.1871 H   0  0  0  0  0  0  0  0  0  0  0  0
   59.3704   25.6126   44.7071 H   0  0  0  0  0  0  0  0  0  0  0  0
   59.1226   23.1215   45.3820 H   0  0  0  0  0  0  0  0  0  0  0  0
   58.1208   20.9700   44.6138 H   0  0  0  0  0  0  0  0  0  0  0  0
   55.1812   23.1549   42.3120 H   0  0  0  0  0  0  0  0  0  0  0  0
   56.1712   25.3097   43.0850 H   0  0  0  0  0  0  0  0  0  0  0  0
   57.1799   28.4072   45.5681 H   0  0  0  0  0  0  0  0  0  0  0  0
   59.2773   31.6467   48.2064 H   0  0  0  0  0  0  0  0  0  0  0  0
   60.9307   31.6133   50.0776 H   0  0  0  0  0  0  0  0  0  0  0  0
   61.8323   29.4426   50.9144 H   0  0  0  0  0  0  0  0  0  0  0  0
   61.0862   27.2933   49.8889 H   0  0  0  0  0  0  0  0  0  0  0  0
   59.6989   26.1010   48.2308 H   0  0  0  0  0  0  0  0  0  0  0  0
  1  2  2  0
  2  3  1  0
  3  4  2  0
  4  5  1  0
  5  6  2  0
  6  7  1  0
  6  8  1  0
  8  9  2  0
  9 10  1  0
  2 11  1  0
 11 12  1  0
 12 13  1  0
 13 14  2  0
 14 15  1  0
 15 16  2  0
 16 17  1  0
 16 18  1  0
 18 19  2  0
 11 20  1  0
 20 21  2  0
 21 22  1  0
 22 23  2  0
 23 24  1  0
 24 25  2  0
 25 26  1  0
 26 27  2  0
 27 28  1  0
 28 29  2  0
  9  3  1  0
 19 13  1  0
 29 20  1  0
 28 23  1  0
  4 30  1  0
  5 31  1  0
  7 32  1  0
  8 33  1  0
 12 34  1  0
 12 35  1  0
 14 36  1  0
 15 37  1  0
 18 38  1  0
 19 39  1  0
 21 40  1  0
 24 41  1  0
 25 42  1  0
 26 43  1  0
 27 44  1  0
 29 45  1  0
M  CHG  2  10  -1  17  -1
M  END
>  <UniqueID>  (7) 
7

>  <SMILES>  (7) 
O=C(c1ccc(O)cc1[O-])N(Cc1ccc([O-])cc1)c1cnc2ccccc2c1

>  <Energy>  (7) 
63.62754094483993

>  <Genealogy>  (7) 
O=C(c1ccc(O)cc1[O-])N(Cc1ccc([O-])cc1)c1cnc2ccccc2c1 (protonated)
O=C(c1ccc(O)cc1[O-])N(Cc1ccc([O-])cc1)c1cnc2ccccc2c1 (3D coordinates assigned)
O=C(c1ccc(O)cc1[O-])N(Cc1ccc([O-])cc1)c1cnc2ccccc2c1 (optimized conformer: 63.62754094483993 kcal/mol)

>  <smiles>  (7) 
O=C(c1ccc(O)cc1O)N(Cc1ccc(O)cc1)c1cnc2ccccc2c1

>  <score_type>  (7) 
oracle

>  <origin>  (7) 
adg

>  <m_score__min__energy>  (7) 
-12.9

>  <m_primary>  (7) 
energy

$$$$
7:0
     RDKit          3D

 28 29  0  0  0  0  0  0  0  0999 V2000
   55.8355   31.1164   42.9241 H   0  0  0  0  0  0  0  0  0  0  0  0
   56.6250   30.8310   43.6350 C   0  0  0  0  0  0  0  0  0  0  0  0
   56.3810   29.6920   44.5460 C   0  0  0  0  0  0  0  0  0  0  0  0
   55.1880   29.4330   44.8640 O   0  0  0  0  0  0  0  0  0  0  0  0
   57.4650   28.8360   45.0830 C   0  0  0  0  0  0  0  0  0  0  0  0
   57.8590   27.6810   44.3830 C   0  0  0  0  0  0  0  0  0  0  0  0
   57.3492   27.4081   43.4473 H   0  0  0  0  0  0  0  0  0  0  0  0
   58.8950   26.8780   44.8700 C   0  0  0  0  0  0  0  0  0  0  0  0
   59.1902   25.9708   44.3225 H   0  0  0  0  0  0  0  0  0  0  0  0
   59.5560   27.2260   46.0510 C   0  0  0  0  0  0  0  0  0  0  0  0
   60.5620   26.4460   46.5200 F   0  0  0  0  0  0  0  0  0  0  0  0
   59.1860   28.3810   46.7440 C   0  0  0  0  0  0  0  0  0  0  0  0
   59.7098   28.6567   47.6711 H   0  0  0  0  0  0  0  0  0  0  0  0
   58.1510   29.1870   46.2610 C   0  0  0  0  0  0  0  0  0  0  0  0
   57.8709   30.1012   46.8049 H   0  0  0  0  0  0  0  0  0  0  0  0
   57.7690   31.5300   43.6400 C   0  0  0  0  0  0  0  0  0  0  0  0
   58.4833   31.3578   42.8214 H   0  0  0  0  0  0  0  0  0  0  0  0
   58.1300   32.5220   44.6830 C   0  0  0  0  0  0  0  0  0  0  0  0
   58.8870   33.6450   44.3060 C   0  0  0  0  0  0  0  0  0  0  0  0
   59.1902   33.7709   43.2561 H   0  0  0  0  0  0  0  0  0  0  0  0
   59.2580   34.6040   45.2550 C   0  0  0  0  0  0  0  0  0  0  0  0
   59.8446   35.4823   44.9477 H   0  0  0  0  0  0  0  0  0  0  0  0
   58.8850   34.4480   46.5910 C   0  0  0  0  0  0  0  0  0  0  0  0
   59.2480   35.3770   47.5090 F   0  0  0  0  0  0  0  0  0  0  0  0
   58.1470   33.3280   46.9820 C   0  0  0  0  0  0  0  0  0  0  0  0
   57.8599   33.2017   48.0363 H   0  0  0  0  0  0  0  0  0  0  0  0
   57.7720   32.3670   46.0380 C   0  0  0  0  0  0  0  0  0  0  0  0
   57.1948   31.4856   46.3541 H   0  0  0  0  0  0  0  0  0  0  0  0
  1  2  1  0
  2  3  1  0
  3  4  2  0
  3  5  1  0
  5  6  2  0
  6  7  1  0
  6  8  1  0
  8  9  1  0
  8 10  2  0
 10 11  1  0
 10 12  1  0
 12 13  1  0
 12 14  2  0
 14 15  1  0
  2 16  2  0
 16 17  1  0
 16 18  1  0
 18 19  2  0
 19 20  1  0
 19 21  1  0
 21 22  1  0
 21 23  2  0
 23 24  1  0
 23 25  1  0
 25 26  1  0
 25 27  2  0
 27 28  1  0
 14  5  1  0
 27 18  1  0
M  END
>  <UniqueID>  (8) 
8

>  <SMILES>  (8) 
O=C(/C=C/c1ccc(F)cc1)c1ccc(F)cc1

>  <Energy>  (8) 
36.10516289436256

>  <Genealogy>  (8) 
O=C(/C=C/c1ccc(F)cc1)c1ccc(F)cc1 (cis-trans isomerization)
O=C(/C=C/c1ccc(F)cc1)c1ccc(F)cc1 (3D coordinates assigned)
O=C(/C=C/c1ccc(F)cc1)c1ccc(F)cc1 (optimized conformer: 36.10516289436256 kcal/mol)

>  <smiles>  (8) 
O=C(C=Cc1ccc(F)cc1)c1ccc(F)cc1

>  <score_type>  (8) 
oracle

>  <origin>  (8) 
adg

>  <m_score__min__energy>  (8) 
-7.0199999999999996

>  <m_primary>  (8) 
energy

$$$$
8:0
     RDKit          3D

 37 38  0  0  0  0  0  0  0  0999 V2000
   55.5450   29.7420   43.9100 C   0  0  0  0  0  0  0  0  0  0  0  0
   56.5810   30.0860   44.8950 N   0  0  0  0  0  0  0  0  0  0  0  0
   57.1090   28.8780   45.5480 C   0  0  0  0  0  0  0  0  0  0  0  0
   57.6490   30.9430   44.3280 C   0  0  0  0  0  0  0  0  0  0  0  0
   57.9840   32.1570   45.1800 C   0  0  0  0  0  0  0  0  0  0  0  0
   57.1030   33.2470   45.2130 C   0  0  0  0  0  0  0  0  0  0  0  0
   57.3860   34.3420   45.9660 N   0  0  0  0  0  0  0  0  0  0  0  0
   58.5220   34.4240   46.7060 C   0  0  0  0  0  0  0  0  0  0  0  0
   59.4430   33.3660   46.7190 C   0  0  0  0  0  0  0  0  0  0  0  0
   60.6830   33.4790   47.5280 C   0  0  0  0  0  0  0  0  0  0  0  0
   61.9450   33.3640   46.9210 C   0  0  0  0  0  0  0  0  0  0  0  0
   63.1110   33.4800   47.6830 C   0  0  0  0  0  0  0  0  0  0  0  0
   63.0350   33.7190   49.0690 C   0  0  0  0  0  0  0  0  0  0  0  0
   64.1730   33.8430   49.8820 O   0  0  0  0  0  0  0  0  0  0  0  0
   64.9870   32.7610   50.3320 C   0  0  0  0  0  0  0  0  0  0  0  0
   66.2100   32.7850   49.6860 F   0  0  0  0  0  0  0  0  0  0  0  0
   65.1730   32.8420   51.7000 F   0  0  0  0  0  0  0  0  0  0  0  0
   64.3510   31.5710   50.0380 F   0  0  0  0  0  0  0  0  0  0  0  0
   61.7770   33.8400   49.6690 C   0  0  0  0  0  0  0  0  0  0  0  0
   60.6110   33.7250   48.9080 C   0  0  0  0  0  0  0  0  0  0  0  0
   59.1570   32.2130   45.9590 C   0  0  0  0  0  0  0  0  0  0  0  0
   59.9390   31.2240   45.9930 O   0  0  0  0  0  0  0  0  0  0  0  0
   54.6273   29.4373   44.4343 H   0  0  0  0  0  0  0  0  0  0  0  0
   55.3333   30.6181   43.2794 H   0  0  0  0  0  0  0  0  0  0  0  0
   55.8994   28.9133   43.2794 H   0  0  0  0  0  0  0  0  0  0  0  0
   57.0562   28.9987   46.6401 H   0  0  0  0  0  0  0  0  0  0  0  0
   56.5098   28.0063   45.2461 H   0  0  0  0  0  0  0  0  0  0  0  0
   58.1557   28.7257   45.2461 H   0  0  0  0  0  0  0  0  0  0  0  0
   58.5592   30.3350   44.2188 H   0  0  0  0  0  0  0  0  0  0  0  0
   57.2757   31.3224   43.3654 H   0  0  0  0  0  0  0  0  0  0  0  0
   56.1745   33.2155   44.6241 H   0  0  0  0  0  0  0  0  0  0  0  0
   56.7170   35.1440   45.9710 H   0  0  0  0  0  0  0  0  0  0  0  0
   58.7215   35.3279   47.3003 H   0  0  0  0  0  0  0  0  0  0  0  0
   62.0158   33.1814   45.8386 H   0  0  0  0  0  0  0  0  0  0  0  0
   64.0934   33.3841   47.1976 H   0  0  0  0  0  0  0  0  0  0  0  0
   61.7052   34.0275   50.7505 H   0  0  0  0  0  0  0  0  0  0  0  0
   59.6295   33.8280   49.3938 H   0  0  0  0  0  0  0  0  0  0  0  0
  1  2  1  0
  2  3  1  0
  2  4  1  0
  4  5  1  0
  5  6  2  0
  6  7  1  0
  7  8  1  0
  8  9  2  0
  9 10  1  0
 10 11  2  0
 11 12  1  0
 12 13  2  0
 13 14  1  0
 14 15  1  0
 15 16  1  0
 15 17  1  0
 15 18  1  0
 13 19  1  0
 19 20  2  0
  9 21  1  0
 21 22  2  0
 21  5  1  0
 20 10  1  0
  1 23  1  0
  1 24  1  0
  1 25  1  0
  3 26  1  0
  3 27  1  0
  3 28  1  0
  4 29  1  0
  4 30  1  0
  6 31  1  0
  7 32  1  0
  8 33  1  0
 11 34  1  0
 12 35  1  0
 19 36  1  0
 20 37  1  0
M  END
>  <UniqueID>  (9) 
9

>  <SMILES>  (9) 
CN(C)Cc1c[nH]cc(-c2ccc(OC(F)(F)F)cc2)c1=O

>  <Energy>  (9) 
47.52719676000222

>  <Genealogy>  (9) 
CN(C)Cc1c[nH]cc(-c2ccc(OC(F)(F)F)cc2)c1=O (3D coordinates assigned)
CN(C)Cc1c[nH]cc(-c2ccc(OC(F)(F)F)cc2)c1=O (optimized conformer: 47.52719676000222 kcal/mol)

>  <smiles>  (9) 
CN(C)Cc1c[nH]cc(-c2ccc(OC(F)(F)F)cc2)c1=O

>  <score_type>  (9) 
oracle

>  <origin>  (9) 
adg

>  <m_score__min__energy>  (9) 
-6.0700000000000003

>  <m_primary>  (9) 
energy

$$$$
9:0
     RDKit          3D

 31 33  0  0  0  0  0  0  0  0999 V2000
   59.3270   35.3320   47.3980 O   0  0  0  0  0  0  0  0  0  0  0  0
   58.9890   34.4820   46.5310 C   0  0  0  0  0  0  0  0  0  0  0  0
   58.9520   34.8030   44.8740 S   0  0  0  0  0  0  0  0  0  0  0  0
   58.4110   33.2510   44.5200 C   0  0  0  0  0  0  0  0  0  0  0  0
   58.1120   32.7120   43.2710 C   0  0  0  0  0  0  0  0  0  0  0  0
   57.6540   31.3890   43.2120 C   0  0  0  0  0  0  0  0  0  0  0  0
   57.5020   30.6360   44.3920 C   0  0  0  0  0  0  0  0  0  0  0  0
   57.8090   31.1980   45.6430 C   0  0  0  0  0  0  0  0  0  0  0  0
   58.2730   32.5230   45.6960 C   0  0  0  0  0  0  0  0  0  0  0  0
   58.6110   33.2110   46.8300 N   0  0  0  0  0  0  0  0  0  0  0  0
   58.5180   32.6880   48.2000 C   0  0  0  0  0  0  0  0  0  0  0  0
   59.7120   31.7790   48.5040 C   0  0  0  0  0  0  0  0  0  0  0  0
   61.0070   32.5180   48.3010 C   0  0  0  0  0  0  0  0  0  0  0  0
   61.3670   33.5640   49.1680 C   0  0  0  0  0  0  0  0  0  0  0  0
   62.5860   34.2280   48.9990 C   0  0  0  0  0  0  0  0  0  0  0  0
   63.4560   33.8470   47.9740 C   0  0  0  0  0  0  0  0  0  0  0  0
   63.1110   32.7980   47.1180 C   0  0  0  0  0  0  0  0  0  0  0  0
   61.8920   32.1310   47.2830 C   0  0  0  0  0  0  0  0  0  0  0  0
   58.2322   33.3091   42.3550 H   0  0  0  0  0  0  0  0  0  0  0  0
   57.4120   30.9365   42.2390 H   0  0  0  0  0  0  0  0  0  0  0  0
   57.1398   29.5989   44.3342 H   0  0  0  0  0  0  0  0  0  0  0  0
   57.6880   30.6104   46.5650 H   0  0  0  0  0  0  0  0  0  0  0  0
   58.5119   33.5285   48.9096 H   0  0  0  0  0  0  0  0  0  0  0  0
   57.5904   32.1051   48.2982 H   0  0  0  0  0  0  0  0  0  0  0  0
   59.6502   31.4385   49.5481 H   0  0  0  0  0  0  0  0  0  0  0  0
   59.6847   30.9179   47.8200 H   0  0  0  0  0  0  0  0  0  0  0  0
   60.6884   33.8609   49.9812 H   0  0  0  0  0  0  0  0  0  0  0  0
   62.8606   35.0518   49.6742 H   0  0  0  0  0  0  0  0  0  0  0  0
   64.4128   34.3731   47.8410 H   0  0  0  0  0  0  0  0  0  0  0  0
   63.7981   32.4962   46.3138 H   0  0  0  0  0  0  0  0  0  0  0  0
   61.6265   31.3004   46.6124 H   0  0  0  0  0  0  0  0  0  0  0  0
  1  2  2  0
  2  3  1  0
  3  4  1  0
  4  5  2  0
  5  6  1  0
  6  7  2  0
  7  8  1  0
  8  9  2  0
  9 10  1  0
 10 11  1  0
 11 12  1  0
 12 13  1  0
 13 14  2  0
 14 15  1  0
 15 16  2  0
 16 17  1  0
 17 18  2  0
 10  2  1  0
 18 13  1  0
  9  4  1  0
  5 19  1  0
  6 20  1  0
  7 21  1  0
  8 22  1  0
 11 23  1  0
 11 24  1  0
 12 25  1  0
 12 26  1  0
 14 27  1  0
 15 28  1  0
 16 29  1  0
 17 30  1  0
 18 31  1  0
M  END
>  <UniqueID>  (10) 
10

>  <SMILES>  (10) 
O=c1sc2ccccc2n1CCc1ccccc1

>  <Energy>  (10) 
67.15074211286114

>  <Genealogy>  (10) 
O=c1sc2ccccc2n1CCc1ccccc1 (3D coordinates assigned)
O=c1sc2ccccc2n1CCc1ccccc1 (optimized conformer: 67.15074211286114 kcal/mol)

>  <smiles>  (10) 
O=c1sc2ccccc2n1CCc1ccccc1

>  <score_type>  (10) 
oracle

>  <origin>  (10) 
adg

>  <m_score__min__energy>  (10) 
-6.9000000000000004

>  <m_primary>  (10) 
energy

$$$$
10:0
     RDKit          3D

 71 74  0  0  0  0  0  0  0  0999 V2000
   57.7720   34.2110   46.0030 C   0  0  0  0  0  0  0  0  0  0  0  0
   58.6850   33.9790   44.8010 C   0  0  0  0  0  0  0  0  0  0  0  0
   58.1020   33.0370   43.9030 O   0  0  0  0  0  0  0  0  0  0  0  0
   57.7690   31.7080   44.2170 C   0  0  0  0  0  0  0  0  0  0  0  0
   57.0210   30.9780   43.2820 C   0  0  0  0  0  0  0  0  0  0  0  0
   56.6880   29.6430   43.5250 C   0  0  0  0  0  0  0  0  0  0  0  0
   57.1000   29.0230   44.7060 C   0  0  0  0  0  0  0  0  0  0  0  0
   57.8330   29.7470   45.6630 C   0  0  0  0  0  0  0  0  0  0  0  0
   58.2280   29.1520   46.8660 O   0  0  0  0  0  0  0  0  0  0  0  0
   59.2080   29.6920   47.7050 C   0  0  0  0  0  0  0  0  0  0  0  0
   60.4910   29.9860   47.2190 C   0  0  0  0  0  0  0  0  0  0  0  0
   61.4560   30.5360   48.0660 C   0  0  0  0  0  0  0  0  0  0  0  0
   61.1480   30.7860   49.4050 C   0  0  0  0  0  0  0  0  0  0  0  0
   59.8740   30.4810   49.9020 C   0  0  0  0  0  0  0  0  0  0  0  0
   59.5880   30.6490   51.2970 N   0  0  0  0  0  0  0  0  0  0  0  0
   59.8670   31.9380   51.9350 C   0  0  0  0  0  0  0  0  0  0  0  0
   59.0660   33.0220   51.2730 C   0  0  0  0  0  0  0  0  0  0  0  0
   57.8280   33.0790   51.4980 O   0  0  0  0  0  0  0  0  0  0  0  0
   59.6400   33.9670   50.3580 N   0  0  0  0  0  0  0  0  0  0  0  0
   59.5770   33.9260   48.8970 C   0  0  0  0  0  0  0  0  0  0  0  0
   60.9670   33.9020   48.3270 C   0  0  0  0  0  0  0  0  0  0  0  0
   61.1770   33.8360   46.9380 C   0  0  0  0  0  0  0  0  0  0  0  0
   62.4780   33.7890   46.4240 C   0  0  0  0  0  0  0  0  0  0  0  0
   63.5760   33.8020   47.2890 C   0  0  0  0  0  0  0  0  0  0  0  0
   63.3750   33.8640   48.6720 C   0  0  0  0  0  0  0  0  0  0  0  0
   62.0770   33.9080   49.1910 C   0  0  0  0  0  0  0  0  0  0  0  0
   58.9730   29.5480   52.0490 C   0  0  0  0  0  0  0  0  0  0  0  0
   57.6240   29.9760   52.5630 C   0  0  0  0  0  0  0  0  0  0  0  0
   57.2960   29.7860   53.9150 C   0  0  0  0  0  0  0  0  0  0  0  0
   56.0110   30.0790   54.3730 C   0  0  0  0  0  0  0  0  0  0  0  0
   55.0410   30.5500   53.4850 C   0  0  0  0  0  0  0  0  0  0  0  0
   55.3400   30.7380   52.1300 C   0  0  0  0  0  0  0  0  0  0  0  0
   54.3010   31.1860   51.2950 O   0  0  0  0  0  0  0  0  0  0  0  0
   52.9450   30.7260   51.2660 C   0  0  0  0  0  0  0  0  0  0  0  0
   52.8760   29.5770   52.0300 F   0  0  0  0  0  0  0  0  0  0  0  0
   52.5540   30.3950   49.9800 F   0  0  0  0  0  0  0  0  0  0  0  0
   51.9980   31.7640   51.8780 C   0  0  0  0  0  0  0  0  0  0  0  0
   51.4200   32.5550   50.8980 F   0  0  0  0  0  0  0  0  0  0  0  0
   50.9960   31.1260   52.5870 F   0  0  0  0  0  0  0  0  0  0  0  0
   56.6420   30.4490   51.6740 C   0  0  0  0  0  0  0  0  0  0  0  0
   58.8980   29.9550   49.0420 C   0  0  0  0  0  0  0  0  0  0  0  0
   58.1530   31.0890   45.4240 C   0  0  0  0  0  0  0  0  0  0  0  0
   58.3439   34.0657   46.9313 H   0  0  0  0  0  0  0  0  0  0  0  0
   57.3784   35.2377   45.9717 H   0  0  0  0  0  0  0  0  0  0  0  0
   56.9360   33.4967   45.9717 H   0  0  0  0  0  0  0  0  0  0  0  0
   58.8394   34.9325   44.2748 H   0  0  0  0  0  0  0  0  0  0  0  0
   59.6467   33.5813   45.1574 H   0  0  0  0  0  0  0  0  0  0  0  0
   56.6936   31.4606   42.3493 H   0  0  0  0  0  0  0  0  0  0  0  0
   56.1005   29.0799   42.7849 H   0  0  0  0  0  0  0  0  0  0  0  0
   56.8510   27.9671   44.8881 H   0  0  0  0  0  0  0  0  0  0  0  0
   60.7379   29.7825   46.1666 H   0  0  0  0  0  0  0  0  0  0  0  0
   62.4581   30.7721   47.6785 H   0  0  0  0  0  0  0  0  0  0  0  0
   61.9069   31.2231   50.0706 H   0  0  0  0  0  0  0  0  0  0  0  0
   59.5965   31.8837   52.9998 H   0  0  0  0  0  0  0  0  0  0  0  0
   60.9381   32.1670   51.8337 H   0  0  0  0  0  0  0  0  0  0  0  0
   59.0370   33.0216   48.5802 H   0  0  0  0  0  0  0  0  0  0  0  0
   59.0504   34.8199   48.5314 H   0  0  0  0  0  0  0  0  0  0  0  0
   60.3161   33.8213   46.2534 H   0  0  0  0  0  0  0  0  0  0  0  0
   62.6368   33.7417   45.3366 H   0  0  0  0  0  0  0  0  0  0  0  0
   64.5974   33.7635   46.8825 H   0  0  0  0  0  0  0  0  0  0  0  0
   64.2392   33.8782   49.3524 H   0  0  0  0  0  0  0  0  0  0  0  0
   61.9235   33.9475   50.2795 H   0  0  0  0  0  0  0  0  0  0  0  0
   58.8531   28.6764   51.3888 H   0  0  0  0  0  0  0  0  0  0  0  0
   59.6189   29.2816   52.8986 H   0  0  0  0  0  0  0  0  0  0  0  0
   58.0542   29.4051   54.6150 H   0  0  0  0  0  0  0  0  0  0  0  0
   55.7614   29.9389   55.4351 H   0  0  0  0  0  0  0  0  0  0  0  0
   54.0299   30.7760   53.8547 H   0  0  0  0  0  0  0  0  0  0  0  0
   52.5891   32.4049   52.5487 H   0  0  0  0  0  0  0  0  0  0  0  0
   56.8925   30.5947   50.6129 H   0  0  0  0  0  0  0  0  0  0  0  0
   57.8862   29.7491   49.4212 H   0  0  0  0  0  0  0  0  0  0  0  0
   58.7066   31.6630   46.1816 H   0  0  0  0  0  0  0  0  0  0  0  0
  1  2  1  0
  2  3  1  0
  3  4  1  0
  4  5  2  0
  5  6  1  0
  6  7  2  0
  7  8  1  0
  8  9  1  0
  9 10  1  0
 10 11  2  0
 11 12  1  0
 12 13  2  0
 13 14  1  0
 14 15  1  0
 15 16  1  0
 16 17  1  0
 17 18  2  0
 17 19  1  0
 19 20  1  0
 20 21  1  0
 21 22  2  0
 22 23  1  0
 23 24  2  0
 24 25  1  0
 25 26  2  0
 15 27  1  0
 27 28  1  0
 28 29  2  0
 29 30  1  0
 30 31  2  0
 31 32  1  0
 32 33  1  0
 33 34  1  0
 34 35  1  0
 34 36  1  0
 34 37  1  0
 37 38  1  0
 37 39  1  0
 32 40  2  0
 14 41  2  0
  8 42  2  0
 42  4  1  0
 41 10  1  0
 26 21  1  0
 40 28  1  0
  1 43  1  0
  1 44  1  0
  1 45  1  0
  2 46  1  0
  2 47  1  0
  5 48  1  0
  6 49  1  0
  7 50  1  0
 11 51  1  0
 12 52  1  0
 13 53  1  0
 16 54  1  0
 16 55  1  0
 20 56  1  0
 20 57  1  0
 22 58  1  0
 23 59  1  0
 24 60  1  0
 25 61  1  0
 26 62  1  0
 27 63  1  0
 27 64  1  0
 29 65  1  0
 30 66  1  0
 31 67  1  0
 37 68  1  0
 40 69  1  0
 41 70  1  0
 42 71  1  0
M  CHG  1  19  -1
M  END
>  <UniqueID>  (11) 
11

>  <SMILES>  (11) 
CCOc1cccc(Oc2cccc(N(CC(=O)[N-]Cc3ccccc3)Cc3cccc(OC(F)(F)C(F)F)c3)c2)c1

>  <Energy>  (11) 
81.65671870666213

>  <Genealogy>  (11) 
CCOc1cccc(Oc2cccc(N(CC(=O)[N-]Cc3ccccc3)Cc3cccc(OC(F)(F)C(F)F)c3)c2)c1 (protonated)
CCOc1cccc(Oc2cccc(N(CC(=O)[N-]Cc3ccccc3)Cc3cccc(OC(F)(F)C(F)F)c3)c2)c1 (3D coordinates assigned)
CCOc1cccc(Oc2cccc(N(CC(=O)[N-]Cc3ccccc3)Cc3cccc(OC(F)(F)C(F)F)c3)c2)c1 (optimized conformer: 81.65671870666213 kcal/mol)

>  <smiles>  (11) 
CCOc1cccc(Oc2cccc(N(CC(=O)NCc3ccccc3)Cc3cccc(OC(F)(F)C(F)F)c3)c2)c1

>  <score_type>  (11) 
oracle

>  <origin>  (11) 
adg

>  <m_score__min__energy>  (11) 
-11

>  <m_primary>  (11) 
energy

$$$$
11:0
     RDKit          3D

 30 32  0  0  0  0  0  0  0  0999 V2000
   57.4757   24.3192   46.5296 H   0  0  0  0  0  0  0  0  0  0  0  0
   57.0470   25.1120   45.8990 C   0  0  0  0  0  0  0  0  0  0  0  0
   55.6060   25.3970   45.9950 C   0  0  0  0  0  0  0  0  0  0  0  0
   54.7610   24.4670   46.0860 O   0  0  0  0  0  0  0  0  0  0  0  0
   55.1680   26.7140   45.9830 O   0  0  0  0  0  0  0  0  0  0  0  0
   57.8550   25.7880   45.0670 C   0  0  0  0  0  0  0  0  0  0  0  0
   58.2184   25.2633   44.1711 H   0  0  0  0  0  0  0  0  0  0  0  0
   58.2950   27.1950   45.2680 C   0  0  0  0  0  0  0  0  0  0  0  0
   57.6160   28.2150   44.5470 C   0  0  0  0  0  0  0  0  0  0  0  0
   56.7942   27.9423   43.8686 H   0  0  0  0  0  0  0  0  0  0  0  0
   57.9780   29.5680   44.6870 C   0  0  0  0  0  0  0  0  0  0  0  0
   57.0680   30.9400   43.7200 Br  0  0  0  0  0  0  0  0  0  0  0  0
   59.0220   29.8670   45.5540 C   0  0  0  0  0  0  0  0  0  0  0  0
   59.5360   31.0300   45.8510 O   0  0  0  0  0  0  0  0  0  0  0  0
   60.5040   30.7850   46.7220 C   0  0  0  0  0  0  0  0  0  0  0  0
   61.3460   31.8420   47.3180 C   0  0  0  0  0  0  0  0  0  0  0  0
   62.7470   31.7270   47.2910 C   0  0  0  0  0  0  0  0  0  0  0  0
   63.2153   30.8475   46.8250 H   0  0  0  0  0  0  0  0  0  0  0  0
   63.5480   32.7260   47.8540 C   0  0  0  0  0  0  0  0  0  0  0  0
   64.6436   32.6307   47.8288 H   0  0  0  0  0  0  0  0  0  0  0  0
   62.9590   33.8440   48.4480 C   0  0  0  0  0  0  0  0  0  0  0  0
   63.5906   34.6281   48.8909 H   0  0  0  0  0  0  0  0  0  0  0  0
   61.5680   33.9670   48.4800 C   0  0  0  0  0  0  0  0  0  0  0  0
   61.1054   34.8485   48.9479 H   0  0  0  0  0  0  0  0  0  0  0  0
   60.7620   32.9710   47.9180 C   0  0  0  0  0  0  0  0  0  0  0  0
   59.6670   33.0719   47.9458 H   0  0  0  0  0  0  0  0  0  0  0  0
   60.6400   29.4620   47.0120 N   0  0  0  0  0  0  0  0  0  0  0  0
   59.6820   28.9060   46.2510 C   0  0  0  0  0  0  0  0  0  0  0  0
   59.3570   27.5570   46.1430 C   0  0  0  0  0  0  0  0  0  0  0  0
   59.9042   26.7943   46.7164 H   0  0  0  0  0  0  0  0  0  0  0  0
  1  2  1  0
  2  3  1  0
  3  4  2  0
  3  5  1  0
  2  6  2  0
  6  7  1  0
  6  8  1  0
  8  9  2  0
  9 10  1  0
  9 11  1  0
 11 12  1  0
 11 13  2  0
 13 14  1  0
 14 15  1  0
 15 16  1  0
 16 17  2  0
 17 18  1  0
 17 19  1  0
 19 20  1  0
 19 21  2  0
 21 22  1  0
 21 23  1  0
 23 24  1  0
 23 25  2  0
 25 26  1  0
 15 27  2  0
 27 28  1  0
 28 29  2  0
 29 30  1  0
 29  8  1  0
 28 13  1  0
 25 16  1  0
M  CHG  1   5  -1
M  END
>  <UniqueID>  (12) 
12

>  <SMILES>  (12) 
O=C([O-])/C=C/c1cc(Br)c2oc(-c3ccccc3)nc2c1

>  <Energy>  (12) 
71.4239374188744

>  <Genealogy>  (12) 
O=C([O-])C=Cc1cc(Br)c2oc(-c3ccccc3)nc2c1 (protonated)
O=C([O-])/C=C/c1cc(Br)c2oc(-c3ccccc3)nc2c1 (cis-trans isomerization)
O=C([O-])/C=C/c1cc(Br)c2oc(-c3ccccc3)nc2c1 (3D coordinates assigned)
O=C([O-])/C=C/c1cc(Br)c2oc(-c3ccccc3)nc2c1 (optimized conformer: 71.4239374188744 kcal/mol)

>  <smiles>  (12) 
O=C(O)C=Cc1cc(Br)c2oc(-c3ccccc3)nc2c1

>  <score_type>  (12) 
oracle

>  <origin>  (12) 
adg

>  <m_score__min__energy>  (12) 
-10.23

>  <m_primary>  (12) 
energy

$$$$
12:0
     RDKit          3D

 53 56  0  0  0  0  0  0  0  0999 V2000
   57.5080   32.3380   41.1780 C   0  0  0  0  0  0  0  0  0  0  0  0
   57.6960   31.7280   42.3850 O   0  0  0  0  0  0  0  0  0  0  0  0
   56.8430   30.6770   42.6740 C   0  0  0  0  0  0  0  0  0  0  0  0
   56.3750   30.8190   44.0990 C   0  0  0  0  0  0  0  0  0  0  0  0
   57.4040   30.3550   45.0440 N   0  0  0  0  0  0  0  0  0  0  0  0
   58.1980   31.3320   45.5260 C   0  0  0  0  0  0  0  0  0  0  0  0
   58.0370   33.0430   45.0670 S   0  0  0  0  0  0  0  0  0  0  0  0
   57.8440   34.0410   46.5690 C   0  0  0  0  0  0  0  0  0  0  0  0
   59.1390   34.1110   47.2920 C   0  0  0  0  0  0  0  0  0  0  0  0
   59.3400   34.8440   48.2770 O   0  0  0  0  0  0  0  0  0  0  0  0
   60.1910   33.2760   46.8040 N   0  0  0  0  0  0  0  0  0  0  0  0
   61.4670   33.2670   47.4240 C   0  0  0  0  0  0  0  0  0  0  0  0
   62.5260   33.8200   46.7290 C   0  0  0  0  0  0  0  0  0  0  0  0
   63.8020   33.8610   47.2400 C   0  0  0  0  0  0  0  0  0  0  0  0
   64.0410   33.3330   48.4930 C   0  0  0  0  0  0  0  0  0  0  0  0
   62.9760   32.7860   49.1750 C   0  0  0  0  0  0  0  0  0  0  0  0
   61.6940   32.7360   48.6790 C   0  0  0  0  0  0  0  0  0  0  0  0
   60.2540   31.9780   49.6410 Br  0  0  0  0  0  0  0  0  0  0  0  0
   59.1520   30.9410   46.4000 N   0  0  0  0  0  0  0  0  0  0  0  0
   59.2690   29.6460   46.7450 C   0  0  0  0  0  0  0  0  0  0  0  0
   60.4780   28.8590   47.8840 S   0  0  0  0  0  0  0  0  0  0  0  0
   59.7630   27.1850   47.5970 C   0  0  0  0  0  0  0  0  0  0  0  0
   58.7150   27.3790   46.6970 C   0  0  0  0  0  0  0  0  0  0  0  0
   57.9260   26.1590   46.3310 C   0  0  0  0  0  0  0  0  0  0  0  0
   56.6180   26.0150   46.7340 C   0  0  0  0  0  0  0  0  0  0  0  0
   55.8900   24.8900   46.3740 C   0  0  0  0  0  0  0  0  0  0  0  0
   56.4970   23.9080   45.6010 C   0  0  0  0  0  0  0  0  0  0  0  0
   57.8120   24.0710   45.2070 C   0  0  0  0  0  0  0  0  0  0  0  0
   58.5430   25.1870   45.5610 C   0  0  0  0  0  0  0  0  0  0  0  0
   58.4820   28.6250   46.2780 C   0  0  0  0  0  0  0  0  0  0  0  0
   57.4930   29.0660   45.3630 C   0  0  0  0  0  0  0  0  0  0  0  0
   56.7090   28.2170   44.8210 N   0  0  0  0  0  0  0  0  0  0  0  0
   57.1875   33.3779   41.3387 H   0  0  0  0  0  0  0  0  0  0  0  0
   58.4508   32.3283   40.6114 H   0  0  0  0  0  0  0  0  0  0  0  0
   56.7342   31.7992   40.6114 H   0  0  0  0  0  0  0  0  0  0  0  0
   55.9780   30.7037   41.9950 H   0  0  0  0  0  0  0  0  0  0  0  0
   57.3676   29.7190   42.5433 H   0  0  0  0  0  0  0  0  0  0  0  0
   56.1534   31.8774   44.3005 H   0  0  0  0  0  0  0  0  0  0  0  0
   55.4739   30.2027   44.2336 H   0  0  0  0  0  0  0  0  0  0  0  0
   57.5229   35.0567   46.2946 H   0  0  0  0  0  0  0  0  0  0  0  0
   57.0876   33.5781   47.2198 H   0  0  0  0  0  0  0  0  0  0  0  0
   60.0540   32.6550   45.9850 H   0  0  0  0  0  0  0  0  0  0  0  0
   62.3413   34.2428   45.7304 H   0  0  0  0  0  0  0  0  0  0  0  0
   64.6213   34.3085   46.6582 H   0  0  0  0  0  0  0  0  0  0  0  0
   65.0492   33.3485   48.9327 H   0  0  0  0  0  0  0  0  0  0  0  0
   63.1618   32.3649   50.1741 H   0  0  0  0  0  0  0  0  0  0  0  0
   60.0927   26.2342   48.0412 H   0  0  0  0  0  0  0  0  0  0  0  0
   56.1461   26.7977   47.3461 H   0  0  0  0  0  0  0  0  0  0  0  0
   54.8445   24.7769   46.6968 H   0  0  0  0  0  0  0  0  0  0  0  0
   55.9363   23.0090   45.3052 H   0  0  0  0  0  0  0  0  0  0  0  0
   58.2884   23.2907   44.5952 H   0  0  0  0  0  0  0  0  0  0  0  0
   59.5888   25.3015   45.2398 H   0  0  0  0  0  0  0  0  0  0  0  0
   56.9200   27.5690   44.0590 H   0  0  0  0  0  0  0  0  0  0  0  0
  1  2  1  0
  2  3  1  0
  3  4  1  0
  4  5  1  0
  5  6  1  0
  6  7  1  0
  7  8  1  0
  8  9  1  0
  9 10  2  0
  9 11  1  0
 11 12  1  0
 12 13  2  0
 13 14  1  0
 14 15  2  0
 15 16  1  0
 16 17  2  0
 17 18  1  0
  6 19  2  0
 19 20  1  0
 20 21  1  0
 21 22  1  0
 22 23  2  0
 23 24  1  0
 24 25  2  0
 25 26  1  0
 26 27  2  0
 27 28  1  0
 28 29  2  0
 23 30  1  0
 30 31  1  0
 31 32  2  3
 31  5  1  0
 17 12  1  0
 30 20  2  0
 29 24  1  0
  1 33  1  0
  1 34  1  0
  1 35  1  0
  3 36  1  0
  3 37  1  0
  4 38  1  0
  4 39  1  0
  8 40  1  0
  8 41  1  0
 11 42  1  0
 13 43  1  0
 14 44  1  0
 15 45  1  0
 16 46  1  0
 22 47  1  0
 25 48  1  0
 26 49  1  0
 27 50  1  0
 28 51  1  0
 29 52  1  0
 32 53  1  0
M  END
>  <smiles>  (13) 
COCCn1c(SCC(=O)Nc2ccccc2Br)nc2scc(-c3ccccc3)c2c1=N

>  <score_type>  (13) 
oracle

>  <origin>  (13) 
adg

>  <m_score__min__energy>  (13) 
-9.0500000000000007

>  <m_primary>  (13) 
energy

$$$$
13:0
     RDKit          3D

 51 53  0  0  0  0  0  0  0  0999 V2000
   61.6300   28.4890   44.7610 H   0  0  0  0  0  0  0  0  0  0  0  0
   60.7430   28.7060   44.3670 O   0  0  0  0  0  0  0  0  0  0  0  0
   59.8780   29.0940   45.4110 C   0  0  2  0  0  0  0  0  0  0  0  0
   60.5840   30.0930   46.2430 C   0  0  0  0  0  0  0  0  0  0  0  0
   61.2050   30.8990   46.8900 C   0  0  0  0  0  0  0  0  0  0  0  0
   61.8920   31.9110   47.6470 C   0  0  0  0  0  0  0  0  0  0  0  0
   61.5980   32.0860   49.0060 C   0  0  0  0  0  0  0  0  0  0  0  0
   60.8920   31.4077   49.5076 H   0  0  0  0  0  0  0  0  0  0  0  0
   62.2020   33.1230   49.7250 C   0  0  0  0  0  0  0  0  0  0  0  0
   61.9694   33.2609   50.7912 H   0  0  0  0  0  0  0  0  0  0  0  0
   63.1010   33.9840   49.0890 C   0  0  0  0  0  0  0  0  0  0  0  0
   63.5752   34.7992   49.6552 H   0  0  0  0  0  0  0  0  0  0  0  0
   63.3980   33.8100   47.7340 C   0  0  0  0  0  0  0  0  0  0  0  0
   64.1079   34.4866   47.2358 H   0  0  0  0  0  0  0  0  0  0  0  0
   62.7930   32.7760   47.0110 C   0  0  0  0  0  0  0  0  0  0  0  0
   63.0244   32.6421   45.9440 H   0  0  0  0  0  0  0  0  0  0  0  0
   59.5120   27.8740   46.2810 C   0  0  0  0  0  0  0  0  0  0  0  0
   58.8195   28.1993   47.0713 H   0  0  0  0  0  0  0  0  0  0  0  0
   60.4453   27.4714   46.7016 H   0  0  0  0  0  0  0  0  0  0  0  0
   58.8410   26.7490   45.4680 C   0  0  0  0  0  0  0  0  0  0  0  0
   58.0677   26.2818   46.0954 H   0  0  0  0  0  0  0  0  0  0  0  0
   59.6351   26.0434   45.1823 H   0  0  0  0  0  0  0  0  0  0  0  0
   58.1800   27.2330   44.1620 C   0  0  0  0  0  0  0  0  0  0  0  0
   57.4011   26.5109   43.8759 H   0  0  0  0  0  0  0  0  0  0  0  0
   58.9725   27.3083   43.4028 H   0  0  0  0  0  0  0  0  0  0  0  0
   57.5290   28.6360   44.2900 C   0  0  0  0  0  0  0  0  0  0  0  0
   56.3080   28.5350   45.2440 C   0  0  0  0  0  0  0  0  0  0  0  0
   56.6547   28.5637   46.2875 H   0  0  0  0  0  0  0  0  0  0  0  0
   55.6281   29.3800   45.0601 H   0  0  0  0  0  0  0  0  0  0  0  0
   55.7762   27.5898   45.0601 H   0  0  0  0  0  0  0  0  0  0  0  0
   56.9940   29.0470   42.9000 C   0  0  0  0  0  0  0  0  0  0  0  0
   56.1272   29.7129   43.0230 H   0  0  0  0  0  0  0  0  0  0  0  0
   57.7841   29.5726   42.3437 H   0  0  0  0  0  0  0  0  0  0  0  0
   56.6898   28.1481   42.3437 H   0  0  0  0  0  0  0  0  0  0  0  0
   58.5790   29.7140   44.7820 C   0  0  1  0  0  0  0  0  0  0  0  0
   58.9252   30.2559   43.8895 H   0  0  0  0  0  0  0  0  0  0  0  0
   57.9450   30.6300   45.6830 O   0  0  0  0  0  0  0  0  0  0  0  0
   57.0200   31.5470   45.2350 N   0  0  0  0  0  0  0  0  0  0  0  0
   57.3820   32.7420   44.8930 C   0  0  0  0  0  0  0  0  0  0  0  0
   57.0378   33.1614   43.9361 H   0  0  0  0  0  0  0  0  0  0  0  0
   58.2510   33.5480   45.7720 C   0  0  0  0  0  0  0  0  0  0  0  0
   58.2790   33.2810   47.1490 C   0  0  0  0  0  0  0  0  0  0  0  0
   57.6170   32.5098   47.5697 H   0  0  0  0  0  0  0  0  0  0  0  0
   59.1430   33.9890   47.9900 C   0  0  0  0  0  0  0  0  0  0  0  0
   59.1580   33.7737   49.0686 H   0  0  0  0  0  0  0  0  0  0  0  0
   59.9870   34.9690   47.4630 C   0  0  0  0  0  0  0  0  0  0  0  0
   60.6695   35.5217   48.1254 H   0  0  0  0  0  0  0  0  0  0  0  0
   59.9640   35.2470   46.0940 C   0  0  0  0  0  0  0  0  0  0  0  0
   60.6268   36.0211   45.6799 H   0  0  0  0  0  0  0  0  0  0  0  0
   59.1000   34.5430   45.2490 C   0  0  0  0  0  0  0  0  0  0  0  0
   59.0834   34.7671   44.1722 H   0  0  0  0  0  0  0  0  0  0  0  0
  1  2  1  0
  2  3  1  0
  3  4  1  1
  4  5  3  0
  5  6  1  0
  6  7  2  0
  7  8  1  0
  7  9  1  0
  9 10  1  0
  9 11  2  0
 11 12  1  0
 11 13  1  0
 13 14  1  0
 13 15  2  0
 15 16  1  0
  3 17  1  0
 17 18  1  0
 17 19  1  0
 17 20  1  0
 20 21  1  0
 20 22  1  0
 20 23  1  0
 23 24  1  0
 23 25  1  0
 23 26  1  0
 26 27  1  0
 27 28  1  0
 27 29  1  0
 27 30  1  0
 26 31  1  0
 31 32  1  0
 31 33  1  0
 31 34  1  0
 26 35  1  0
 35 36  1  6
 35 37  1  0
 37 38  1  0
 38 39  2  0
 39 40  1  0
 39 41  1  0
 41 42  2  0
 42 43  1  0
 42 44  1  0
 44 45  1  0
 44 46  2  0
 46 47  1  0
 46 48  1  0
 48 49  1  0
 48 50  2  0
 50 51  1  0
 35  3  1  0
 50 41  1  0
 15  6  1  0
M  END
>  <UniqueID>  (14) 
13

>  <SMILES>  (14) 
CC1(C)CCC[C@](O)(C#Cc2ccccc2)[C@@H]1O/N=C/c1ccccc1

>  <Energy>  (14) 
51.06903835233368

>  <Genealogy>  (14) 
CC1(C)CCC[C@](O)(C#Cc2ccccc2)[C@@H]1ON=Cc1ccccc1 (chirality)
CC1(C)CCC[C@](O)(C#Cc2ccccc2)[C@@H]1O/N=C/c1ccccc1 (cis-trans isomerization)
CC1(C)CCC[C@](O)(C#Cc2ccccc2)[C@@H]1O/N=C/c1ccccc1 (3D coordinates assigned)
CC1(C)CCC[C@](O)(C#Cc2ccccc2)[C@@H]1O/N=C/c1ccccc1 (nonaromatic ring conformer: 51.06903835233368 kcal/mol)

>  <smiles>  (14) 
CC1(C)CCCC(O)(C#Cc2ccccc2)C1ON=Cc1ccccc1

>  <score_type>  (14) 
oracle

>  <origin>  (14) 
adg

>  <m_score__min__energy>  (14) 
-8.5199999999999996

>  <m_primary>  (14) 
energy

$$$$
14:0
     RDKit          3D

 43 46  0  0  0  0  0  0  0  0999 V2000
   58.5370   31.9710   45.0430 C   0  0  0  0  0  0  0  0  0  0  0  0
   58.2100   33.3780   45.5750 C   0  0  0  0  0  0  0  0  0  0  0  0
   57.3960   34.0540   44.4960 C   0  0  0  0  0  0  0  0  0  0  0  0
   59.4090   33.9920   45.8020 O   0  0  0  0  0  0  0  0  0  0  0  0
   59.2860   34.9710   46.7860 C   0  0  0  0  0  0  0  0  0  0  0  0
   59.1030   34.1910   48.0870 C   0  0  0  0  0  0  0  0  0  0  0  0
   60.3900   33.6650   48.5860 C   0  0  0  0  0  0  0  0  0  0  0  0
   61.5070   33.9730   47.8910 N   0  0  0  0  0  0  0  0  0  0  0  0
   62.7130   33.5470   48.2900 C   0  0  0  0  0  0  0  0  0  0  0  0
   63.9430   33.7120   47.7900 N   0  0  0  0  0  0  0  0  0  0  0  0
   64.8120   33.0860   48.5640 N   0  0  0  0  0  0  0  0  0  0  0  0
   64.1850   32.4960   49.5860 C   0  0  0  0  0  0  0  0  0  0  0  0
   64.7400   31.8090   50.5080 N   0  0  0  0  0  0  0  0  0  0  0  0
   62.8480   32.7850   49.4180 C   0  0  0  0  0  0  0  0  0  0  0  0
   61.7380   32.4780   50.1100 N   0  0  0  0  0  0  0  0  0  0  0  0
   60.5030   32.8980   49.7230 C   0  0  0  0  0  0  0  0  0  0  0  0
   59.3650   32.4880   50.5220 C   0  0  0  0  0  0  0  0  0  0  0  0
   58.7520   33.2600   51.4770 C   0  0  0  0  0  0  0  0  0  0  0  0
   57.6770   32.7750   52.1870 C   0  0  0  0  0  0  0  0  0  0  0  0
   57.2120   31.4900   51.9340 C   0  0  0  0  0  0  0  0  0  0  0  0
   55.8520   30.8410   52.8150 Cl  0  0  0  0  0  0  0  0  0  0  0  0
   57.8080   30.6770   50.9730 C   0  0  0  0  0  0  0  0  0  0  0  0
   58.8840   31.1960   50.2790 C   0  0  0  0  0  0  0  0  0  0  0  0
   59.6300   30.1610   49.0720 Cl  0  0  0  0  0  0  0  0  0  0  0  0
   58.1210   33.0700   47.8660 C   0  0  0  0  0  0  0  0  0  0  0  0
   57.4010   33.2320   46.6890 O   0  0  0  0  0  0  0  0  0  0  0  0
   58.6960   31.2867   45.8895 H   0  0  0  0  0  0  0  0  0  0  0  0
   57.6995   31.6071   44.4297 H   0  0  0  0  0  0  0  0  0  0  0  0
   59.4491   32.0137   44.4297 H   0  0  0  0  0  0  0  0  0  0  0  0
   56.6289   34.6911   44.9603 H   0  0  0  0  0  0  0  0  0  0  0  0
   58.0571   34.6724   43.8711 H   0  0  0  0  0  0  0  0  0  0  0  0
   56.9095   33.2905   43.8711 H   0  0  0  0  0  0  0  0  0  0  0  0
   60.1924   35.5926   46.8304 H   0  0  0  0  0  0  0  0  0  0  0  0
   58.4481   35.6561   46.5896 H   0  0  0  0  0  0  0  0  0  0  0  0
   58.7094   34.8751   48.8532 H   0  0  0  0  0  0  0  0  0  0  0  0
   64.2400   34.2360   46.9380 H   0  0  0  0  0  0  0  0  0  0  0  0
   65.8420   33.0380   48.4270 H   0  0  0  0  0  0  0  0  0  0  0  0
   64.2350   31.4860   51.3660 H   0  0  0  0  0  0  0  0  0  0  0  0
   59.1233   34.2760   51.6769 H   0  0  0  0  0  0  0  0  0  0  0  0
   57.1893   33.4003   52.9494 H   0  0  0  0  0  0  0  0  0  0  0  0
   57.4364   29.6609   50.7742 H   0  0  0  0  0  0  0  0  0  0  0  0
   58.6725   32.1195   47.8167 H   0  0  0  0  0  0  0  0  0  0  0  0
   57.4077   33.0738   48.7034 H   0  0  0  0  0  0  0  0  0  0  0  0
  1  2  1  0
  2  3  1  0
  2  4  1  0
  4  5  1  0
  5  6  1  0
  6  7  1  0
  7  8  2  0
  8  9  1  0
  9 10  1  0
 10 11  1  0
 11 12  1  0
 12 13  2  3
 12 14  1  0
 14 15  1  0
 15 16  2  0
 16 17  1  0
 17 18  2  0
 18 19  1  0
 19 20  2  0
 20 21  1  0
 20 22  1  0
 22 23  2  0
 23 24  1  0
  6 25  1  0
 25 26  1  0
 26  2  1  0
 16  7  1  0
 23 17  1  0
 14  9  2  0
  1 27  1  0
  1 28  1  0
  1 29  1  0
  3 30  1  0
  3 31  1  0
  3 32  1  0
  5 33  1  0
  5 34  1  0
  6 35  1  0
 10 36  1  0
 11 37  1  0
 13 38  1  0
 18 39  1  0
 19 40  1  0
 22 41  1  0
 25 42  1  0
 25 43  1  0
M  END
>  <smiles>  (15) 
CC1(C)OCC(c2nc3[nH][nH]c(=N)c3nc2-c2ccc(Cl)cc2Cl)CO1

>  <score_type>  (15) 
oracle

>  <origin>  (15) 
adg

>  <m_score__min__energy>  (15) 
-7.1900000000000004

>  <m_primary>  (15) 
energy

$$$$
15:0
     RDKit          3D

 54 57  0  0  1  0  0  0  0  0999 V2000
   58.5520   28.1610   44.2600 C   0  0  0  0  0  0  0  0  0  0  0  0
   58.2790   28.2110   45.6360 O   0  0  0  0  0  0  0  0  0  0  0  0
   59.0430   28.9630   46.4950 C   0  0  0  0  0  0  0  0  0  0  0  0
   60.2290   29.4770   46.0010 C   0  0  0  0  0  0  0  0  0  0  0  0
   61.0640   30.2420   46.7770 C   0  0  0  0  0  0  0  0  0  0  0  0
   60.7090   30.4990   48.0710 C   0  0  0  0  0  0  0  0  0  0  0  0
   59.5230   30.0100   48.6380 C   0  0  0  0  0  0  0  0  0  0  0  0
   59.1910   30.2450   49.8490 O   0  0  0  0  0  0  0  0  0  0  0  0
   58.8610   30.4820   51.0610 C   0  0  0  0  0  0  0  0  0  0  0  0
   58.4760   31.9690   51.3680 C   0  0  1  0  0  0  0  0  0  0  0  0
   58.4470   32.5660   50.1440 O   0  0  0  0  0  0  0  0  0  0  0  0
   57.2920   31.9520   51.9930 F   0  0  0  0  0  0  0  0  0  0  0  0
   59.5500   32.5280   52.2830 C   0  0  0  0  0  0  0  0  0  0  0  0
   60.3720   33.4430   51.6570 O   0  0  0  0  0  0  0  0  0  0  0  0
   61.1190   33.3770   50.5310 C   0  0  0  0  0  0  0  0  0  0  0  0
   60.7410   33.8810   49.3490 N   0  0  0  0  0  0  0  0  0  0  0  0
   61.5150   33.7830   48.2690 C   0  0  0  0  0  0  0  0  0  0  0  0
   62.7410   33.1540   48.3120 C   0  0  0  0  0  0  0  0  0  0  0  0
   63.2850   33.1990   47.0760 N   0  0  0  0  0  0  0  0  0  0  0  0
   62.4230   33.8480   46.2440 C   0  0  0  0  0  0  0  0  0  0  0  0
   61.3650   34.1920   46.9850 N   0  0  0  0  0  0  0  0  0  0  0  0
   60.1650   34.9470   46.5690 C   0  0  0  0  0  0  0  0  0  0  0  0
   59.2390   33.8980   46.0030 C   0  0  0  0  0  0  0  0  0  0  0  0
   58.6260   32.9510   46.7930 C   0  0  0  0  0  0  0  0  0  0  0  0
   57.7860   32.0310   46.2270 C   0  0  0  0  0  0  0  0  0  0  0  0
   57.4990   31.9850   44.8550 C   0  0  0  0  0  0  0  0  0  0  0  0
   58.1240   32.9460   44.0700 C   0  0  0  0  0  0  0  0  0  0  0  0
   58.9800   33.8880   44.6320 C   0  0  0  0  0  0  0  0  0  0  0  0
   63.1360   32.6300   49.5360 C   0  0  0  0  0  0  0  0  0  0  0  0
   64.2800   32.0320   49.6240 N   0  0  0  0  0  0  0  0  0  0  0  0
   62.3230   32.7520   50.6090 N   0  0  0  0  0  0  0  0  0  0  0  0
   58.7180   29.2370   47.7860 C   0  0  0  0  0  0  0  0  0  0  0  0
   59.6233   27.9648   44.1056 H   0  0  0  0  0  0  0  0  0  0  0  0
   57.9615   27.3561   43.7980 H   0  0  0  0  0  0  0  0  0  0  0  0
   58.2851   29.1230   43.7980 H   0  0  0  0  0  0  0  0  0  0  0  0
   60.5103   29.2670   44.9585 H   0  0  0  0  0  0  0  0  0  0  0  0
   62.0023   30.6410   46.3642 H   0  0  0  0  0  0  0  0  0  0  0  0
   61.3786   31.1126   48.6916 H   0  0  0  0  0  0  0  0  0  0  0  0
   57.9965   29.8484   51.3086 H   0  0  0  0  0  0  0  0  0  0  0  0
   59.7522   30.2655   51.6683 H   0  0  0  0  0  0  0  0  0  0  0  0
   59.2100   32.4010   49.5470 H   0  0  0  0  0  0  0  0  0  0  0  0
   59.0612   33.0223   53.1355 H   0  0  0  0  0  0  0  0  0  0  0  0
   60.1805   31.6850   52.6020 H   0  0  0  0  0  0  0  0  0  0  0  0
   62.5691   34.0494   45.1725 H   0  0  0  0  0  0  0  0  0  0  0  0
   59.7029   35.4496   47.4315 H   0  0  0  0  0  0  0  0  0  0  0  0
   60.3986   35.7373   45.8404 H   0  0  0  0  0  0  0  0  0  0  0  0
   58.8113   32.9342   47.8771 H   0  0  0  0  0  0  0  0  0  0  0  0
   57.3102   31.2875   46.8834 H   0  0  0  0  0  0  0  0  0  0  0  0
   56.8199   31.2333   44.4262 H   0  0  0  0  0  0  0  0  0  0  0  0
   57.9390   32.9624   42.9858 H   0  0  0  0  0  0  0  0  0  0  0  0
   59.4603   34.6369   43.9851 H   0  0  0  0  0  0  0  0  0  0  0  0
   64.8730   31.9810   48.7410 H   0  0  0  0  0  0  0  0  0  0  0  0
   62.6340   32.3540   51.5280 H   0  0  0  0  0  0  0  0  0  0  0  0
   57.7757   28.8323   48.1839 H   0  0  0  0  0  0  0  0  0  0  0  0
  1  2  1  0
  2  3  1  0
  3  4  2  0
  4  5  1  0
  5  6  2  0
  6  7  1  0
  7  8  1  0
  8  9  1  0
  9 10  1  0
 10 11  1  0
 10 12  1  1
 10 13  1  0
 13 14  1  0
 14 15  1  0
 15 16  2  0
 16 17  1  0
 17 18  2  0
 18 19  1  0
 19 20  2  0
 20 21  1  0
 21 22  1  0
 22 23  1  0
 23 24  2  0
 24 25  1  0
 25 26  2  0
 26 27  1  0
 27 28  2  0
 18 29  1  0
 29 30  2  3
 29 31  1  0
  7 32  2  0
 32  3  1  0
 31 15  1  0
 21 17  1  0
 28 23  1  0
  1 33  1  0
  1 34  1  0
  1 35  1  0
  4 36  1  0
  5 37  1  0
  6 38  1  0
  9 39  1  0
  9 40  1  0
 11 41  1  0
 13 42  1  0
 13 43  1  0
 20 44  1  0
 22 45  1  0
 22 46  1  0
 24 47  1  0
 25 48  1  0
 26 49  1  0
 27 50  1  0
 28 51  1  0
 30 52  1  0
 31 53  1  0
 32 54  1  0
M  END
>  <smiles>  (16) 
COc1cccc(OCC(O)(F)COc2nc3c(ncn3Cc3ccccc3)c(=N)[nH]2)c1

>  <score_type>  (16) 
oracle

>  <origin>  (16) 
adg

>  <m_score__min__energy>  (16) 
-7.5099999999999998

>  <m_primary>  (16) 
energy

$$$$
16:0
     RDKit          3D

 33 35  0  0  0  0  0  0  0  0999 V2000
   59.0230   34.8920   44.8620 C   0  0  0  0  0  0  0  0  0  0  0  0
   58.4540   33.5840   45.1790 N   0  0  0  0  0  0  0  0  0  0  0  0
   58.3530   32.9900   46.4000 C   0  0  0  0  0  0  0  0  0  0  0  0
   58.7500   33.6440   47.6940 C   0  0  0  0  0  0  0  0  0  0  0  0
   59.9560   34.4540   47.5160 N   0  0  0  0  0  0  0  0  0  0  0  0
   61.2770   34.0400   47.9180 C   0  0  0  0  0  0  0  0  0  0  0  0
   61.7360   34.1930   49.2420 C   0  0  0  0  0  0  0  0  0  0  0  0
   63.0260   33.7850   49.5940 C   0  0  0  0  0  0  0  0  0  0  0  0
   63.8690   33.2180   48.6350 C   0  0  0  0  0  0  0  0  0  0  0  0
   65.1190   32.8220   48.9790 F   0  0  0  0  0  0  0  0  0  0  0  0
   63.4220   33.0590   47.3210 C   0  0  0  0  0  0  0  0  0  0  0  0
   62.1340   33.4660   46.9640 C   0  0  0  0  0  0  0  0  0  0  0  0
   57.8200   31.7400   46.3480 N   0  0  0  0  0  0  0  0  0  0  0  0
   57.6170   31.5500   45.0310 C   0  0  0  0  0  0  0  0  0  0  0  0
   57.1070   30.4140   44.4090 C   0  0  0  0  0  0  0  0  0  0  0  0
   57.0030   30.4250   43.0060 C   0  0  0  0  0  0  0  0  0  0  0  0
   57.4120   31.5600   42.2680 C   0  0  0  0  0  0  0  0  0  0  0  0
   57.9240   32.6920   42.9280 C   0  0  0  0  0  0  0  0  0  0  0  0
   58.0060   32.6490   44.3210 C   0  0  0  0  0  0  0  0  0  0  0  0
   59.2555   35.4265   45.7948 H   0  0  0  0  0  0  0  0  0  0  0  0
   59.9445   34.7588   44.2763 H   0  0  0  0  0  0  0  0  0  0  0  0
   58.2973   35.4753   44.2763 H   0  0  0  0  0  0  0  0  0  0  0  0
   57.9290   34.2898   48.0389 H   0  0  0  0  0  0  0  0  0  0  0  0
   58.9572   32.8601   48.4373 H   0  0  0  0  0  0  0  0  0  0  0  0
   59.8390   35.3930   47.0710 H   0  0  0  0  0  0  0  0  0  0  0  0
   61.0757   34.6358   50.0022 H   0  0  0  0  0  0  0  0  0  0  0  0
   63.3781   33.9107   50.6285 H   0  0  0  0  0  0  0  0  0  0  0  0
   64.0855   32.6124   46.5658 H   0  0  0  0  0  0  0  0  0  0  0  0
   61.7882   33.3360   45.9279 H   0  0  0  0  0  0  0  0  0  0  0  0
   56.7956   29.5367   44.9950 H   0  0  0  0  0  0  0  0  0  0  0  0
   56.6014   29.5462   42.4803 H   0  0  0  0  0  0  0  0  0  0  0  0
   57.3293   31.5577   41.1711 H   0  0  0  0  0  0  0  0  0  0  0  0
   58.2485   33.5802   42.3660 H   0  0  0  0  0  0  0  0  0  0  0  0
  1  2  1  0
  2  3  1  0
  3  4  1  0
  4  5  1  0
  5  6  1  0
  6  7  2  0
  7  8  1  0
  8  9  2  0
  9 10  1  0
  9 11  1  0
 11 12  2  0
  3 13  2  0
 13 14  1  0
 14 15  2  0
 15 16  1  0
 16 17  2  0
 17 18  1  0
 18 19  2  0
 19  2  1  0
 12  6  1  0
 19 14  1  0
  1 20  1  0
  1 21  1  0
  1 22  1  0
  4 23  1  0
  4 24  1  0
  5 25  1  0
  7 26  1  0
  8 27  1  0
 11 28  1  0
 12 29  1  0
 15 30  1  0
 16 31  1  0
 17 32  1  0
 18 33  1  0
M  END
>  <UniqueID>  (17) 
14

>  <SMILES>  (17) 
Cn1c(CNc2ccc(F)cc2)nc2ccccc21

>  <Energy>  (17) 
71.6390230582147

>  <Genealogy>  (17) 
Cn1c(CNc2ccc(F)cc2)nc2ccccc21 (3D coordinates assigned)
Cn1c(CNc2ccc(F)cc2)nc2ccccc21 (optimized conformer: 71.6390230582147 kcal/mol)

>  <smiles>  (17) 
Cn1c(CNc2ccc(F)cc2)nc2ccccc21

>  <score_type>  (17) 
oracle

>  <origin>  (17) 
adg

>  <m_score__min__energy>  (17) 
-7.2300000000000004

>  <m_primary>  (17) 
energy

$$$$
17:0
     RDKit          3D

 61 63  0  0  0  0  0  0  0  0999 V2000
   59.5700   35.2980   46.6620 C   0  0  0  0  0  0  0  0  0  0  0  0
   60.2940   33.9880   46.3520 C   0  0  2  0  0  0  0  0  0  0  0  0
   59.3490   32.8780   46.4600 N   0  0  0  0  0  0  0  0  0  0  0  0
   58.8340   32.3280   47.6820 C   0  0  0  0  0  0  0  0  0  0  0  0
   57.8680   32.9040   48.2500 O   0  0  0  0  0  0  0  0  0  0  0  0
   59.3700   31.0900   48.2770 C   0  0  0  0  0  0  0  0  0  0  0  0
   58.9980   29.8400   47.7700 C   0  0  0  0  0  0  0  0  0  0  0  0
   59.5430   28.6640   48.3010 C   0  0  0  0  0  0  0  0  0  0  0  0
   59.1420   27.3470   47.7620 C   0  0  0  0  0  0  0  0  0  0  0  0
   59.9280   26.3640   47.8520 O   0  0  0  0  0  0  0  0  0  0  0  0
   57.8710   27.1630   47.1350 N   0  0  0  0  0  0  0  0  0  0  0  0
   57.5840   26.0820   46.1880 C   0  0  2  0  0  0  0  0  0  0  0  0
   57.8740   26.5260   44.7370 C   0  0  0  0  0  0  0  0  0  0  0  0
   57.9240   28.0300   44.6130 C   0  0  0  0  0  0  0  0  0  0  0  0
   59.1610   28.7030   44.5820 C   0  0  0  0  0  0  0  0  0  0  0  0
   59.2030   30.1030   44.5220 C   0  0  0  0  0  0  0  0  0  0  0  0
   58.0160   30.8390   44.4970 C   0  0  0  0  0  0  0  0  0  0  0  0
   56.7810   30.1780   44.5200 C   0  0  0  0  0  0  0  0  0  0  0  0
   55.6290   30.8950   44.4860 F   0  0  0  0  0  0  0  0  0  0  0  0
   56.7350   28.7780   44.5770 C   0  0  0  0  0  0  0  0  0  0  0  0
   56.1660   25.5940   46.3650 C   0  0  0  0  0  0  0  0  0  0  0  0
   55.0610   26.4250   46.0090 N   0  0  0  0  0  0  0  0  0  0  0  0
   55.9510   24.4500   46.8480 O   0  0  0  0  0  0  0  0  0  0  0  0
   60.4770   28.7490   49.3450 C   0  0  0  0  0  0  0  0  0  0  0  0
   60.8780   30.0000   49.8600 C   0  0  0  0  0  0  0  0  0  0  0  0
   61.8380   30.0810   50.9420 N   0  0  0  0  0  0  0  0  0  0  0  0
   62.3140   31.3850   51.4150 C   0  0  0  0  0  0  0  0  0  0  0  0
   62.3260   28.8620   51.5980 C   0  0  0  0  0  0  0  0  0  0  0  0
   60.3200   31.1670   49.3040 C   0  0  0  0  0  0  0  0  0  0  0  0
   61.4580   33.8120   47.3000 C   0  0  0  0  0  0  0  0  0  0  0  0
   62.6490   33.2240   46.8400 C   0  0  0  0  0  0  0  0  0  0  0  0
   63.7280   33.0480   47.7090 C   0  0  0  0  0  0  0  0  0  0  0  0
   63.6390   33.4670   49.0390 C   0  0  0  0  0  0  0  0  0  0  0  0
   62.4730   34.0970   49.4960 C   0  0  0  0  0  0  0  0  0  0  0  0
   61.3880   34.2800   48.6310 C   0  0  0  0  0  0  0  0  0  0  0  0
   59.4981   35.4282   47.7519 H   0  0  0  0  0  0  0  0  0  0  0  0
   60.1315   36.1387   46.2286 H   0  0  0  0  0  0  0  0  0  0  0  0
   58.5594   35.2698   46.2286 H   0  0  0  0  0  0  0  0  0  0  0  0
   60.6912   34.0093   45.3264 H   0  0  0  0  0  0  0  0  0  0  0  0
   58.2708   29.7803   46.9468 H   0  0  0  0  0  0  0  0  0  0  0  0
   58.2539   25.2356   46.4000 H   0  0  0  0  0  0  0  0  0  0  0  0
   58.8429   26.1100   44.4237 H   0  0  0  0  0  0  0  0  0  0  0  0
   57.0604   26.1558   44.0959 H   0  0  0  0  0  0  0  0  0  0  0  0
   60.0982   28.1275   44.6050 H   0  0  0  0  0  0  0  0  0  0  0  0
   60.1721   30.6227   44.4946 H   0  0  0  0  0  0  0  0  0  0  0  0
   58.0510   31.9378   44.4593 H   0  0  0  0  0  0  0  0  0  0  0  0
   55.7634   28.2625   44.5936 H   0  0  0  0  0  0  0  0  0  0  0  0
   55.1420   27.4700   46.0310 H   0  0  0  0  0  0  0  0  0  0  0  0
   60.9026   27.8271   49.7679 H   0  0  0  0  0  0  0  0  0  0  0  0
   62.3183   31.3968   52.5149 H   0  0  0  0  0  0  0  0  0  0  0  0
   63.3341   31.5602   51.0424 H   0  0  0  0  0  0  0  0  0  0  0  0
   61.6467   32.1761   51.0424 H   0  0  0  0  0  0  0  0  0  0  0  0
   62.2756   28.9878   52.6896 H   0  0  0  0  0  0  0  0  0  0  0  0
   61.7002   28.0085   51.2980 H   0  0  0  0  0  0  0  0  0  0  0  0
   63.3679   28.6761   51.2980 H   0  0  0  0  0  0  0  0  0  0  0  0
   60.6339   32.1517   49.6807 H   0  0  0  0  0  0  0  0  0  0  0  0
   62.7315   32.9013   45.7916 H   0  0  0  0  0  0  0  0  0  0  0  0
   64.6528   32.5770   47.3445 H   0  0  0  0  0  0  0  0  0  0  0  0
   64.4822   33.3028   49.7261 H   0  0  0  0  0  0  0  0  0  0  0  0
   62.4107   34.4482   50.5366 H   0  0  0  0  0  0  0  0  0  0  0  0
   60.4802   34.7885   48.9878 H   0  0  0  0  0  0  0  0  0  0  0  0
  1  2  1  0
  2  3  1  0
  3  4  1  0
  4  5  2  0
  4  6  1  0
  6  7  2  0
  7  8  1  0
  8  9  1  0
  9 10  2  0
  9 11  1  0
 11 12  1  0
 12 13  1  0
 13 14  1  0
 14 15  2  0
 15 16  1  0
 16 17  2  0
 17 18  1  0
 18 19  1  0
 18 20  2  0
 12 21  1  0
 21 22  1  0
 21 23  2  0
  8 24  2  0
 24 25  1  0
 25 26  1  0
 26 27  1  0
 26 28  1  0
 25 29  2  0
  2 30  1  0
 30 31  2  0
 31 32  1  0
 32 33  2  0
 33 34  1  0
 34 35  2  0
 29  6  1  0
 35 30  1  0
 20 14  1  0
  1 36  1  0
  1 37  1  0
  1 38  1  0
  2 39  1  6
  7 40  1  0
 12 41  1  1
 13 42  1  0
 13 43  1  0
 15 44  1  0
 16 45  1  0
 17 46  1  0
 20 47  1  0
 22 48  1  0
 24 49  1  0
 27 50  1  0
 27 51  1  0
 27 52  1  0
 28 53  1  0
 28 54  1  0
 28 55  1  0
 29 56  1  0
 31 57  1  0
 32 58  1  0
 33 59  1  0
 34 60  1  0
 35 61  1  0
M  CHG  3   3  -1  11  -1  22  -1
M  END
>  <UniqueID>  (18) 
15

>  <SMILES>  (18) 
C[C@H]([N-]C(=O)c1cc(C(=O)[N-][C@H](Cc2cccc(F)c2)C([NH-])=O)cc(N(C)C)c1)c1ccccc1

>  <Energy>  (18) 
71.14955900098761

>  <Genealogy>  (18) 
CC([N-]C(=O)c1cc(C(=O)[N-]C(Cc2cccc(F)c2)C([NH-])=O)cc(N(C)C)c1)c1ccccc1 (protonated)
C[C@H]([N-]C(=O)c1cc(C(=O)[N-][C@H](Cc2cccc(F)c2)C([NH-])=O)cc(N(C)C)c1)c1ccccc1 (chirality)
C[C@H]([N-]C(=O)c1cc(C(=O)[N-][C@H](Cc2cccc(F)c2)C([NH-])=O)cc(N(C)C)c1)c1ccccc1 (3D coordinates assigned)
C[C@H]([N-]C(=O)c1cc(C(=O)[N-][C@H](Cc2cccc(F)c2)C([NH-])=O)cc(N(C)C)c1)c1ccccc1 (optimized conformer: 71.14955900098761 kcal/mol)

>  <smiles>  (18) 
CC(NC(=O)c1cc(C(=O)NC(Cc2cccc(F)c2)C(N)=O)cc(N(C)C)c1)c1ccccc1

>  <score_type>  (18) 
oracle

>  <origin>  (18) 
adg

>  <m_score__min__energy>  (18) 
-15.41

>  <m_primary>  (18) 
energy

$$$$
18:0
     RDKit          3D

 36 38  0  0  0  0  0  0  0  0999 V2000
   55.1410   25.5400   46.7440 H   0  0  0  0  0  0  0  0  0  0  0  0
   55.0000   26.3170   46.1090 O   0  0  0  0  0  0  0  0  0  0  0  0
   56.0670   27.1250   45.7320 C   0  0  0  0  0  0  0  0  0  0  0  0
   55.9190   28.3680   45.2290 N   0  0  0  0  0  0  0  0  0  0  0  0
   57.1280   28.8220   44.9250 N   0  0  0  0  0  0  0  0  0  0  0  0
   57.3650   30.1130   44.3360 C   0  0  0  0  0  0  0  0  0  0  0  0
   57.0610   30.3300   42.9810 C   0  0  0  0  0  0  0  0  0  0  0  0
   56.6552   29.5071   42.3742 H   0  0  0  0  0  0  0  0  0  0  0  0
   57.2700   31.5820   42.3990 C   0  0  0  0  0  0  0  0  0  0  0  0
   57.0336   31.7397   41.3364 H   0  0  0  0  0  0  0  0  0  0  0  0
   57.7790   32.6350   43.1640 C   0  0  0  0  0  0  0  0  0  0  0  0
   57.9377   33.6209   42.7027 H   0  0  0  0  0  0  0  0  0  0  0  0
   58.0880   32.4390   44.5170 C   0  0  0  0  0  0  0  0  0  0  0  0
   58.5770   33.5860   45.3510 C   0  0  0  0  0  0  0  0  0  0  0  0
   58.4704   33.3360   46.4169 H   0  0  0  0  0  0  0  0  0  0  0  0
   59.6358   33.7793   45.1238 H   0  0  0  0  0  0  0  0  0  0  0  0
   57.9834   34.4838   45.1238 H   0  0  0  0  0  0  0  0  0  0  0  0
   57.8610   31.1830   45.1030 C   0  0  0  0  0  0  0  0  0  0  0  0
   58.0731   31.0344   46.1721 H   0  0  0  0  0  0  0  0  0  0  0  0
   58.0370   27.8650   45.2160 C   0  0  0  0  0  0  0  0  0  0  0  0
   59.2720   27.9510   44.9800 O   0  0  0  0  0  0  0  0  0  0  0  0
   57.4060   26.7720   45.7670 C   0  0  0  0  0  0  0  0  0  0  0  0
   58.0230   25.4790   46.1280 C   0  0  0  0  0  0  0  0  0  0  0  0
   59.0785   25.4824   46.4376 H   0  0  0  0  0  0  0  0  0  0  0  0
   57.4000   24.3350   46.1040 N   0  0  0  0  0  0  0  0  0  0  0  0
   57.1640   23.4930   44.9660 C   0  0  0  0  0  0  0  0  0  0  0  0
   56.1300   23.7620   44.0500 C   0  0  0  0  0  0  0  0  0  0  0  0
   55.4992   24.6533   44.1825 H   0  0  0  0  0  0  0  0  0  0  0  0
   55.9010   22.9010   42.9720 C   0  0  0  0  0  0  0  0  0  0  0  0
   55.1052   23.1269   42.2470 H   0  0  0  0  0  0  0  0  0  0  0  0
   56.6830   21.7540   42.8160 C   0  0  0  0  0  0  0  0  0  0  0  0
   56.5081   21.0811   41.9636 H   0  0  0  0  0  0  0  0  0  0  0  0
   57.6880   21.4610   43.7430 C   0  0  0  0  0  0  0  0  0  0  0  0
   58.2975   20.5530   43.6241 H   0  0  0  0  0  0  0  0  0  0  0  0
   57.9190   22.3210   44.8210 C   0  0  0  0  0  0  0  0  0  0  0  0
   58.6972   22.0766   45.5590 H   0  0  0  0  0  0  0  0  0  0  0  0
  1  2  1  0
  2  3  1  0
  3  4  1  0
  4  5  1  0
  5  6  1  0
  6  7  2  0
  7  8  1  0
  7  9  1  0
  9 10  1  0
  9 11  2  0
 11 12  1  0
 11 13  1  0
 13 14  1  0
 14 15  1  0
 14 16  1  0
 14 17  1  0
 13 18  2  0
 18 19  1  0
  5 20  1  0
 20 21  2  0
 20 22  1  0
 22 23  1  0
 23 24  1  0
 23 25  2  0
 25 26  1  0
 26 27  2  0
 27 28  1  0
 27 29  1  0
 29 30  1  0
 29 31  2  0
 31 32  1  0
 31 33  1  0
 33 34  1  0
 33 35  2  0
 35 36  1  0
 22  3  2  0
 35 26  1  0
 18  6  1  0
M  CHG  1   4  -1
M  END
>  <UniqueID>  (19) 
16

>  <SMILES>  (19) 
Cc1cccc(-n2[n-]c(O)c(/C=N\c3ccccc3)c2=O)c1

>  <Energy>  (19) 
85.59316076154433

>  <Genealogy>  (19) 
Cc1cccc(-n2[n-]c(O)c(C=Nc3ccccc3)c2=O)c1 (protonated)
Cc1cccc(-n2[n-]c(O)c(/C=N\c3ccccc3)c2=O)c1 (cis-trans isomerization)
Cc1cccc(-n2[n-]c(O)c(/C=N\c3ccccc3)c2=O)c1 (3D coordinates assigned)
Cc1cccc(-n2[n-]c(O)c(/C=N\c3ccccc3)c2=O)c1 (optimized conformer: 85.59316076154433 kcal/mol)

>  <smiles>  (19) 
Cc1cccc(-n2[nH]c(O)c(C=Nc3ccccc3)c2=O)c1

>  <score_type>  (19) 
oracle

>  <origin>  (19) 
adg

>  <m_score__min__energy>  (19) 
-10.57

>  <m_primary>  (19) 
energy

$$$$
19:0
     RDKit          3D

 62 65  0  0  0  0  0  0  0  0999 V2000
   55.5888   25.1126   46.3734 H   0  0  0  0  0  0  0  0  0  0  0  0
   56.2510   25.9850   46.2710 C   0  0  0  0  0  0  0  0  0  0  0  0
   55.8070   27.1030   45.6370 N   0  0  0  0  0  0  0  0  0  0  0  0
   56.5770   28.2180   45.5090 C   0  0  0  0  0  0  0  0  0  0  0  0
   56.0890   29.2410   44.8640 N   0  0  0  0  0  0  0  0  0  0  0  0
   56.8450   30.2010   44.1120 C   0  0  0  0  0  0  0  0  0  0  0  0
   56.9790   30.0370   42.8710 O   0  0  0  0  0  0  0  0  0  0  0  0
   57.4210   31.3950   44.7670 C   0  0  0  0  0  0  0  0  0  0  0  0
   57.5850   32.5920   44.0510 C   0  0  0  0  0  0  0  0  0  0  0  0
   57.2639   32.6501   43.0005 H   0  0  0  0  0  0  0  0  0  0  0  0
   58.1540   33.7090   44.6670 C   0  0  0  0  0  0  0  0  0  0  0  0
   58.2840   34.6396   44.0950 H   0  0  0  0  0  0  0  0  0  0  0  0
   58.5620   33.6550   46.0110 C   0  0  0  0  0  0  0  0  0  0  0  0
   59.1720   34.8720   46.6790 C   0  0  0  0  0  0  0  0  0  0  0  0
   59.2601   35.6710   45.9281 H   0  0  0  0  0  0  0  0  0  0  0  0
   58.5070   35.1447   47.5117 H   0  0  0  0  0  0  0  0  0  0  0  0
   60.5120   34.6310   47.2620 N   0  0  0  0  0  0  0  0  0  0  0  0
   60.4760   34.2170   48.6810 C   0  0  0  0  0  0  0  0  0  0  0  0
   60.2083   35.0834   49.3037 H   0  0  0  0  0  0  0  0  0  0  0  0
   59.7287   33.4185   48.7987 H   0  0  0  0  0  0  0  0  0  0  0  0
   61.8410   33.6840   49.1210 C   0  0  0  0  0  0  0  0  0  0  0  0
   62.6044   34.4543   48.9372 H   0  0  0  0  0  0  0  0  0  0  0  0
   61.7928   33.4376   50.1920 H   0  0  0  0  0  0  0  0  0  0  0  0
   62.1990   32.4570   48.3690 N   0  0  0  0  0  0  0  0  0  0  0  0
   63.6530   32.2390   48.4090 C   0  0  0  0  0  0  0  0  0  0  0  0
   63.9876   32.1888   49.4557 H   0  0  0  0  0  0  0  0  0  0  0  0
   63.8963   31.2943   47.9006 H   0  0  0  0  0  0  0  0  0  0  0  0
   64.1626   33.0708   47.9006 H   0  0  0  0  0  0  0  0  0  0  0  0
   61.6800   32.4300   46.9770 C   0  0  0  0  0  0  0  0  0  0  0  0
   62.4129   31.9166   46.3372 H   0  0  0  0  0  0  0  0  0  0  0  0
   60.7149   31.9024   46.9905 H   0  0  0  0  0  0  0  0  0  0  0  0
   61.4340   33.8400   46.4120 C   0  0  0  0  0  0  0  0  0  0  0  0
   62.3966   34.3683   46.3466 H   0  0  0  0  0  0  0  0  0  0  0  0
   60.9693   33.7303   45.4210 H   0  0  0  0  0  0  0  0  0  0  0  0
   58.3490   32.4720   46.7380 C   0  0  0  0  0  0  0  0  0  0  0  0
   58.6126   32.4322   47.8052 H   0  0  0  0  0  0  0  0  0  0  0  0
   57.8050   31.3460   46.1160 C   0  0  0  0  0  0  0  0  0  0  0  0
   57.6767   30.4147   46.6872 H   0  0  0  0  0  0  0  0  0  0  0  0
   57.8850   28.2110   46.0370 C   0  0  0  0  0  0  0  0  0  0  0  0
   58.5122   29.1122   45.9701 H   0  0  0  0  0  0  0  0  0  0  0  0
   58.3840   27.0480   46.6490 C   0  0  0  0  0  0  0  0  0  0  0  0
   59.6980   26.9710   47.1320 O   0  0  0  0  0  0  0  0  0  0  0  0
   60.2180   27.7240   48.1990 C   0  0  0  0  0  0  0  0  0  0  0  0
   60.5470   27.0520   49.3820 C   0  0  0  0  0  0  0  0  0  0  0  0
   60.4080   25.9626   49.4452 H   0  0  0  0  0  0  0  0  0  0  0  0
   61.0520   27.7520   50.4880 C   0  0  0  0  0  0  0  0  0  0  0  0
   61.4440   27.0290   51.7420 C   0  0  0  0  0  0  0  0  0  0  0  0
   61.1265   27.6146   52.6174 H   0  0  0  0  0  0  0  0  0  0  0  0
   60.9570   26.0429   51.7642 H   0  0  0  0  0  0  0  0  0  0  0  0
   62.5361   26.8991   51.7642 H   0  0  0  0  0  0  0  0  0  0  0  0
   61.2480   29.1340   50.3950 C   0  0  0  0  0  0  0  0  0  0  0  0
   61.6377   29.6904   51.2602 H   0  0  0  0  0  0  0  0  0  0  0  0
   60.9520   29.8110   49.2110 C   0  0  0  0  0  0  0  0  0  0  0  0
   61.1073   30.8983   49.1501 H   0  0  0  0  0  0  0  0  0  0  0  0
   60.4560   29.1120   48.0940 C   0  0  0  0  0  0  0  0  0  0  0  0
   60.2240   29.7570   46.8680 O   0  0  0  0  0  0  0  0  0  0  0  0
   60.7670   29.3450   45.6190 C   0  0  0  0  0  0  0  0  0  0  0  0
   61.6322   28.6886   45.7939 H   0  0  0  0  0  0  0  0  0  0  0  0
   60.0014   28.7985   45.0487 H   0  0  0  0  0  0  0  0  0  0  0  0
   61.0872   30.2295   45.0487 H   0  0  0  0  0  0  0  0  0  0  0  0
   57.5450   25.9420   46.7920 C   0  0  0  0  0  0  0  0  0  0  0  0
   57.9017   25.0411   47.3126 H   0  0  0  0  0  0  0  0  0  0  0  0
  1  2  1  0
  2  3  1  0
  3  4  1  0
  4  5  2  0
  5  6  1  0
  6  7  2  0
  6  8  1  0
  8  9  2  0
  9 10  1  0
  9 11  1  0
 11 12  1  0
 11 13  2  0
 13 14  1  0
 14 15  1  0
 14 16  1  0
 14 17  1  0
 17 18  1  0
 18 19  1  0
 18 20  1  0
 18 21  1  0
 21 22  1  0
 21 23  1  0
 21 24  1  0
 24 25  1  0
 25 26  1  0
 25 27  1  0
 25 28  1  0
 24 29  1  0
 29 30  1  0
 29 31  1  0
 29 32  1  0
 32 33  1  0
 32 34  1  0
 13 35  1  0
 35 36  1  0
 35 37  2  0
 37 38  1  0
  4 39  1  0
 39 40  1  0
 39 41  2  0
 41 42  1  0
 42 43  1  0
 43 44  2  0
 44 45  1  0
 44 46  1  0
 46 47  1  0
 47 48  1  0
 47 49  1  0
 47 50  1  0
 46 51  2  0
 51 52  1  0
 51 53  1  0
 53 54  1  0
 53 55  2  0
 55 56  1  0
 56 57  1  0
 57 58  1  0
 57 59  1  0
 57 60  1  0
 41 61  1  0
 61 62  1  0
 61  2  2  0
 37  8  1  0
 55 43  1  0
 32 17  1  0
M  CHG  1   3  -1
M  END
>  <UniqueID>  (20) 
17

>  <SMILES>  (20) 
COc1ccc(C)cc1Oc1cc[n-]/c(=N/C(=O)c2ccc(CN3CCN(C)CC3)cc2)c1

>  <Energy>  (20) 
93.87501684265328

>  <Genealogy>  (20) 
COc1ccc(C)cc1Oc1cc[n-]c(=NC(=O)c2ccc(CN3CCN(C)CC3)cc2)c1 (protonated)
COc1ccc(C)cc1Oc1cc[n-]/c(=N/C(=O)c2ccc(CN3CCN(C)CC3)cc2)c1 (cis-trans isomerization)
COc1ccc(C)cc1Oc1cc[n-]/c(=N/C(=O)c2ccc(CN3CCN(C)CC3)cc2)c1 (3D coordinates assigned)
COc1ccc(C)cc1Oc1cc[n-]/c(=N/C(=O)c2ccc(CN3CCN(C)CC3)cc2)c1 (nonaromatic ring conformer: 93.87501684265328 kcal/mol)

>  <smiles>  (20) 
COc1ccc(C)cc1Oc1cc[nH]c(=NC(=O)c2ccc(CN3CCN(C)CC3)cc2)c1

>  <score_type>  (20) 
oracle

>  <origin>  (20) 
adg

>  <m_score__min__energy>  (20) 
-10.92

>  <m_primary>  (20) 
energy

$$$$
20:0
     RDKit          3D

 37 39  0  0  0  0  0  0  0  0999 V2000
   55.1250   30.4560   45.2410 H   0  0  0  0  0  0  0  0  0  0  0  0
   55.4530   29.6240   44.7030 N   0  0  0  0  0  0  0  0  0  0  0  0
   56.5810   29.5960   44.0640 C   0  0  0  0  0  0  0  0  0  0  0  0
   57.8660   29.8130   44.7760 C   0  0  0  0  0  0  0  0  0  0  0  0
   58.9300   28.8790   44.6510 C   0  0  0  0  0  0  0  0  0  0  0  0
   58.8001   27.9889   44.0179 H   0  0  0  0  0  0  0  0  0  0  0  0
   60.1470   29.0790   45.3270 C   0  0  0  0  0  0  0  0  0  0  0  0
   60.9732   28.3590   45.2329 H   0  0  0  0  0  0  0  0  0  0  0  0
   60.2730   30.2170   46.1190 C   0  0  0  0  0  0  0  0  0  0  0  0
   59.2550   31.1200   46.2460 C   0  0  0  0  0  0  0  0  0  0  0  0
   58.0350   30.9550   45.5940 C   0  0  0  0  0  0  0  0  0  0  0  0
   57.2264   31.6914   45.7118 H   0  0  0  0  0  0  0  0  0  0  0  0
   59.6930   32.1230   47.0830 C   0  0  0  0  0  0  0  0  0  0  0  0
   59.1367   33.0160   47.4041 H   0  0  0  0  0  0  0  0  0  0  0  0
   60.9950   31.7620   47.4360 C   0  0  0  0  0  0  0  0  0  0  0  0
   61.8900   32.5360   48.3330 C   0  0  0  0  0  0  0  0  0  0  0  0
   61.5200   33.8190   48.7740 C   0  0  0  0  0  0  0  0  0  0  0  0
   60.5630   34.2534   48.4493 H   0  0  0  0  0  0  0  0  0  0  0  0
   62.3590   34.5450   49.6210 C   0  0  0  0  0  0  0  0  0  0  0  0
   62.0592   35.5473   49.9608 H   0  0  0  0  0  0  0  0  0  0  0  0
   63.5770   34.0050   50.0390 C   0  0  0  0  0  0  0  0  0  0  0  0
   64.2313   34.5829   50.7082 H   0  0  0  0  0  0  0  0  0  0  0  0
   63.9700   32.7280   49.6090 C   0  0  0  0  0  0  0  0  0  0  0  0
   65.2640   32.1550   50.0610 C   0  0  0  0  0  0  0  0  0  0  0  0
   65.2770   30.9750   50.8740 N   0  0  0  0  0  0  0  0  0  0  0  0
   66.1750   30.5860   51.2370 H   0  0  0  0  0  0  0  0  0  0  0  0
   64.3960   30.4520   51.0780 H   0  0  0  0  0  0  0  0  0  0  0  0
   66.3900   32.7190   49.7350 N   0  0  0  0  0  0  0  0  0  0  0  0
   66.6960   32.7620   48.7380 H   0  0  0  0  0  0  0  0  0  0  0  0
   67.0310   33.1220   50.4550 H   0  0  0  0  0  0  0  0  0  0  0  0
   63.1190   31.9990   48.7590 C   0  0  0  0  0  0  0  0  0  0  0  0
   63.4182   30.9954   48.4226 H   0  0  0  0  0  0  0  0  0  0  0  0
   61.3420   30.5930   46.8410 N   0  0  0  0  0  0  0  0  0  0  0  0
   62.2540   30.0900   46.9000 H   0  0  0  0  0  0  0  0  0  0  0  0
   56.5720   29.3390   42.6570 N   0  0  0  0  0  0  0  0  0  0  0  0
   57.4470   29.3940   42.0910 H   0  0  0  0  0  0  0  0  0  0  0  0
   55.6720   29.1440   42.1630 H   0  0  0  0  0  0  0  0  0  0  0  0
  1  2  1  0
  2  3  2  0
  3  4  1  0
  4  5  2  0
  5  6  1  0
  5  7  1  0
  7  8  1  0
  7  9  2  0
  9 10  1  0
 10 11  2  0
 11 12  1  0
 10 13  1  0
 13 14  1  0
 13 15  2  0
 15 16  1  0
 16 17  2  0
 17 18  1  0
 17 19  1  0
 19 20  1  0
 19 21  2  0
 21 22  1  0
 21 23  1  0
 23 24  1  0
 24 25  1  0
 25 26  1  0
 25 27  1  0
 24 28  2  0
 28 29  1  0
 28 30  1  0
 23 31  2  0
 31 32  1  0
 15 33  1  0
 33 34  1  0
  3 35  1  0
 35 36  1  0
 35 37  1  0
 11  4  1  0
 31 16  1  0
 33  9  1  0
M  CHG  1  28   1
M  END
>  <UniqueID>  (21) 
18

>  <SMILES>  (21) 
[H]/N=C(/N)c1ccc2[nH]c(-c3cccc(C(N)=[NH2+])c3)cc2c1

>  <Energy>  (21) 
79.09450835705344

>  <Genealogy>  (21) 
N=C(N)c1ccc2[nH]c(-c3cccc(C(N)=[NH2+])c3)cc2c1 (protonated)
[H]/N=C(/N)c1ccc2[nH]c(-c3cccc(C(N)=[NH2+])c3)cc2c1 (cis-trans isomerization)
[H]/N=C(/N)c1ccc2[nH]c(-c3cccc(C(N)=[NH2+])c3)cc2c1 (3D coordinates assigned)
[H]/N=C(/N)c1ccc2[nH]c(-c3cccc(C(N)=[NH2+])c3)cc2c1 (optimized conformer: 79.09450835705344 kcal/mol)

>  <smiles>  (21) 
N=C(N)c1cccc(-c2cc3cc(C(=N)N)ccc3[nH]2)c1

>  <score_type>  (21) 
oracle

>  <origin>  (21) 
adg

>  <m_score__min__energy>  (21) 
-6.2300000000000004

>  <m_primary>  (21) 
energy

$$$$
21:0
     RDKit          3D

 29 31  0  0  0  0  0  0  0  0999 V2000
   59.3050   30.6650   47.7810 C   0  0  0  0  0  0  0  0  0  0  0  0
   58.5580   31.8760   47.8130 O   0  0  0  0  0  0  0  0  0  0  0  0
   58.6700   32.9090   46.8660 C   0  0  0  0  0  0  0  0  0  0  0  0
   57.7590   33.0360   45.7970 C   0  0  0  0  0  0  0  0  0  0  0  0
   57.9080   34.0600   44.8590 C   0  0  0  0  0  0  0  0  0  0  0  0
   58.9620   34.9670   44.9730 C   0  0  0  0  0  0  0  0  0  0  0  0
   59.8680   34.8560   46.0280 C   0  0  0  0  0  0  0  0  0  0  0  0
   59.7320   33.8310   46.9810 C   0  0  0  0  0  0  0  0  0  0  0  0
   60.6970   33.7430   48.1010 C   0  0  0  0  0  0  0  0  0  0  0  0
   60.2770   33.9050   49.4400 C   0  0  0  0  0  0  0  0  0  0  0  0
   61.2050   33.8320   50.5030 C   0  0  0  0  0  0  0  0  0  0  0  0
   62.5680   33.5970   50.2470 C   0  0  0  0  0  0  0  0  0  0  0  0
   62.9600   33.4410   48.9210 C   0  0  0  0  0  0  0  0  0  0  0  0
   64.1950   33.1900   48.4560 N   0  0  0  0  0  0  0  0  0  0  0  0
   64.0900   33.1010   47.1360 N   0  0  0  0  0  0  0  0  0  0  0  0
   62.8070   33.2870   46.7510 C   0  0  0  0  0  0  0  0  0  0  0  0
   62.0630   33.5140   47.8880 C   0  0  0  0  0  0  0  0  0  0  0  0
   59.5097   30.3332   48.8096 H   0  0  0  0  0  0  0  0  0  0  0  0
   58.7269   29.8914   47.2543 H   0  0  0  0  0  0  0  0  0  0  0  0
   60.2557   30.8345   47.2543 H   0  0  0  0  0  0  0  0  0  0  0  0
   56.9259   32.3241   45.7014 H   0  0  0  0  0  0  0  0  0  0  0  0
   57.1927   34.1516   44.0284 H   0  0  0  0  0  0  0  0  0  0  0  0
   59.0787   35.7702   44.2305 H   0  0  0  0  0  0  0  0  0  0  0  0
   60.6952   35.5759   46.1150 H   0  0  0  0  0  0  0  0  0  0  0  0
   59.2148   34.0902   49.6577 H   0  0  0  0  0  0  0  0  0  0  0  0
   60.8587   33.9600   51.5392 H   0  0  0  0  0  0  0  0  0  0  0  0
   63.2990   33.5385   51.0669 H   0  0  0  0  0  0  0  0  0  0  0  0
   64.8940   32.9060   46.4980 H   0  0  0  0  0  0  0  0  0  0  0  0
   62.4271   33.2617   45.7190 H   0  0  0  0  0  0  0  0  0  0  0  0
  1  2  1  0
  2  3  1  0
  3  4  2  0
  4  5  1  0
  5  6  2  0
  6  7  1  0
  7  8  2  0
  8  9  1  0
  9 10  2  0
 10 11  1  0
 11 12  2  0
 12 13  1  0
 13 14  2  0
 14 15  1  0
 15 16  1  0
 16 17  2  0
  8  3  1  0
 17  9  1  0
 17 13  1  0
  1 18  1  0
  1 19  1  0
  1 20  1  0
  4 21  1  0
  5 22  1  0
  6 23  1  0
  7 24  1  0
 10 25  1  0
 11 26  1  0
 12 27  1  0
 15 28  1  0
 16 29  1  0
M  END
>  <UniqueID>  (22) 
19

>  <SMILES>  (22) 
COc1ccccc1-c1cccc2n[nH]cc12

>  <Energy>  (22) 
75.30391012929641

>  <Genealogy>  (22) 
COc1ccccc1-c1cccc2n[nH]cc12 (3D coordinates assigned)
COc1ccccc1-c1cccc2n[nH]cc12 (optimized conformer: 75.30391012929641 kcal/mol)

>  <smiles>  (22) 
COc1ccccc1-c1cccc2n[nH]cc12

>  <score_type>  (22) 
oracle

>  <origin>  (22) 
adg

>  <m_score__min__energy>  (22) 
-6.4199999999999999

>  <m_primary>  (22) 
energy

$$$$
22:0
     RDKit          3D

 59 62  0  0  0  0  0  0  0  0999 V2000
   59.5400   22.4910   44.8710 C   0  0  0  0  0  0  0  0  0  0  0  0
   58.2150   23.2460   44.9600 C   0  0  0  0  0  0  0  0  0  0  0  0
   58.2250   24.3450   46.0310 C   0  0  0  0  0  0  0  0  0  0  0  0
   58.7230   25.6230   45.4600 N   0  0  0  0  0  0  0  0  0  0  0  0
   59.1590   26.5620   46.5040 C   0  0  0  0  0  0  0  0  0  0  0  0
   57.9440   27.3690   46.9320 C   0  0  0  0  0  0  0  0  0  0  0  0
   56.9810   27.2830   45.7500 C   0  0  1  0  0  0  0  0  0  0  0  0
   56.6790   28.6260   45.1430 C   0  0  0  0  0  0  0  0  0  0  0  0
   57.6080   29.4570   44.6310 N   0  0  0  0  0  0  0  0  0  0  0  0
   56.8380   30.4770   44.2000 C   0  0  0  0  0  0  0  0  0  0  0  0
   57.3920   31.7390   43.6200 C   0  0  0  0  0  0  0  0  0  0  0  0
   58.2010   32.4640   44.6600 C   0  0  0  0  0  0  0  0  0  0  0  0
   58.1230   33.8600   44.7810 C   0  0  0  0  0  0  0  0  0  0  0  0
   58.8170   34.5190   45.8010 C   0  0  0  0  0  0  0  0  0  0  0  0
   59.5740   33.7900   46.7280 C   0  0  0  0  0  0  0  0  0  0  0  0
   60.2090   34.4700   47.8190 N   0  0  0  0  0  0  0  0  0  0  0  0
   61.2460   33.6240   48.9210 S   0  0  0  0  0  0  0  0  0  0  0  0
   62.4540   33.1040   48.1920 O   0  0  0  0  0  0  0  0  0  0  0  0
   61.7060   34.5660   49.9980 O   0  0  0  0  0  0  0  0  0  0  0  0
   60.3410   32.3050   49.6580 C   0  0  0  0  0  0  0  0  0  0  0  0
   59.0190   32.5140   50.0670 C   0  0  0  0  0  0  0  0  0  0  0  0
   58.2720   31.4620   50.5990 C   0  0  0  0  0  0  0  0  0  0  0  0
   58.8340   30.1870   50.7060 C   0  0  0  0  0  0  0  0  0  0  0  0
   60.1490   29.9510   50.2700 C   0  0  0  0  0  0  0  0  0  0  0  0
   60.7550   28.5770   50.4110 C   0  0  0  0  0  0  0  0  0  0  0  0
   60.6440   27.8800   49.2210 F   0  0  0  0  0  0  0  0  0  0  0  0
   60.0890   27.8840   51.4030 F   0  0  0  0  0  0  0  0  0  0  0  0
   62.0970   28.6600   50.7410 F   0  0  0  0  0  0  0  0  0  0  0  0
   60.9080   31.0260   49.7720 C   0  0  0  0  0  0  0  0  0  0  0  0
   59.6740   32.3960   46.5900 C   0  0  0  0  0  0  0  0  0  0  0  0
   58.9900   31.7380   45.5660 C   0  0  0  0  0  0  0  0  0  0  0  0
   55.5280   30.2810   44.4460 N   0  0  0  0  0  0  0  0  0  0  0  0
   55.4710   29.1190   45.0230 O   0  0  0  0  0  0  0  0  0  0  0  0
   57.6610   26.3490   44.7450 C   0  0  0  0  0  0  0  0  0  0  0  0
   59.9105   22.2799   45.8850 H   0  0  0  0  0  0  0  0  0  0  0  0
   59.3871   21.5444   44.3320 H   0  0  0  0  0  0  0  0  0  0  0  0
   60.2764   23.1051   44.3320 H   0  0  0  0  0  0  0  0  0  0  0  0
   58.0086   23.7090   43.9838 H   0  0  0  0  0  0  0  0  0  0  0  0
   57.4387   22.5188   45.2403 H   0  0  0  0  0  0  0  0  0  0  0  0
   57.2024   24.4915   46.4090 H   0  0  0  0  0  0  0  0  0  0  0  0
   58.8916   24.0375   46.8502 H   0  0  0  0  0  0  0  0  0  0  0  0
   59.5623   26.0066   47.3636 H   0  0  0  0  0  0  0  0  0  0  0  0
   59.9487   27.2255   46.1218 H   0  0  0  0  0  0  0  0  0  0  0  0
   57.4891   26.9349   47.8346 H   0  0  0  0  0  0  0  0  0  0  0  0
   58.2033   28.4086   47.1809 H   0  0  0  0  0  0  0  0  0  0  0  0
   56.0000   26.9024   46.0707 H   0  0  0  0  0  0  0  0  0  0  0  0
   58.0350   31.4951   42.7615 H   0  0  0  0  0  0  0  0  0  0  0  0
   56.5629   32.3824   43.2904 H   0  0  0  0  0  0  0  0  0  0  0  0
   57.5136   34.4382   44.0708 H   0  0  0  0  0  0  0  0  0  0  0  0
   58.7683   35.6154   45.8759 H   0  0  0  0  0  0  0  0  0  0  0  0
   59.8220   35.3870   48.1370 H   0  0  0  0  0  0  0  0  0  0  0  0
   58.5667   33.5119   49.9687 H   0  0  0  0  0  0  0  0  0  0  0  0
   57.2391   31.6367   50.9346 H   0  0  0  0  0  0  0  0  0  0  0  0
   58.2437   29.3634   51.1340 H   0  0  0  0  0  0  0  0  0  0  0  0
   61.9531   30.8630   49.4699 H   0  0  0  0  0  0  0  0  0  0  0  0
   60.2943   31.8197   47.2922 H   0  0  0  0  0  0  0  0  0  0  0  0
   59.0698   30.6452   45.4687 H   0  0  0  0  0  0  0  0  0  0  0  0
   56.9275   25.6367   44.3392 H   0  0  0  0  0  0  0  0  0  0  0  0
   58.0827   26.9240   43.9074 H   0  0  0  0  0  0  0  0  0  0  0  0
  1  2  1  0
  2  3  1  0
  3  4  1  0
  4  5  1  0
  5  6  1  0
  6  7  1  0
  7  8  1  0
  8  9  2  0
  9 10  1  0
 10 11  1  0
 11 12  1  0
 12 13  2  0
 13 14  1  0
 14 15  2  0
 15 16  1  0
 16 17  1  0
 17 18  2  0
 17 19  2  0
 17 20  1  0
 20 21  2  0
 21 22  1  0
 22 23  2  0
 23 24  1  0
 24 25  1  0
 25 26  1  0
 25 27  1  0
 25 28  1  0
 24 29  2  0
 15 30  1  0
 30 31  2  0
 10 32  2  0
 32 33  1  0
  7 34  1  0
 34  4  1  0
 33  8  1  0
 31 12  1  0
 29 20  1  0
  1 35  1  0
  1 36  1  0
  1 37  1  0
  2 38  1  0
  2 39  1  0
  3 40  1  0
  3 41  1  0
  5 42  1  0
  5 43  1  0
  6 44  1  0
  6 45  1  0
  7 46  1  1
 11 47  1  0
 11 48  1  0
 13 49  1  0
 14 50  1  0
 16 51  1  0
 21 52  1  0
 22 53  1  0
 23 54  1  0
 29 55  1  0
 30 56  1  0
 31 57  1  0
 34 58  1  0
 34 59  1  0
M  END
>  <UniqueID>  (23) 
20

>  <SMILES>  (23) 
CCCN1CC[C@@H](c2nc(Cc3ccc(NS(=O)(=O)c4cccc(C(F)(F)F)c4)cc3)no2)C1

>  <Energy>  (23) 
97.37332838265658

>  <Genealogy>  (23) 
CCCN1CC[C@@H](c2nc(Cc3ccc(NS(=O)(=O)c4cccc(C(F)(F)F)c4)cc3)no2)C1 (chirality)
CCCN1CC[C@@H](c2nc(Cc3ccc(NS(=O)(=O)c4cccc(C(F)(F)F)c4)cc3)no2)C1 (3D coordinates assigned)
CCCN1CC[C@@H](c2nc(Cc3ccc(NS(=O)(=O)c4cccc(C(F)(F)F)c4)cc3)no2)C1 (nonaromatic ring conformer: 97.37332838265658 kcal/mol)

>  <smiles>  (23) 
CCCN1CCC(c2nc(Cc3ccc(NS(=O)(=O)c4cccc(C(F)(F)F)c4)cc3)no2)C1

>  <score_type>  (23) 
oracle

>  <origin>  (23) 
adg

>  <m_score__min__energy>  (23) 
-9.6799999999999997

>  <m_primary>  (23) 
energy

$$$$
23:0
     RDKit          3D

 39 40  0  0  0  0  0  0  0  0999 V2000
   58.9350   33.6210   47.3180 C   0  0  0  0  0  0  0  0  0  0  0  0
   58.8490   34.4780   46.0340 C   0  0  0  0  0  0  0  0  0  0  0  0
   59.7580   35.7160   46.0830 C   0  0  0  0  0  0  0  0  0  0  0  0
   58.9680   33.6840   44.7790 N   0  0  0  0  0  0  0  0  0  0  0  0
   57.8500   32.8220   44.2990 C   0  0  1  0  0  0  0  0  0  0  0  0
   57.9960   32.3450   42.8460 C   0  0  0  0  0  0  0  0  0  0  0  0
   57.1710   31.0640   42.7660 C   0  0  0  0  0  0  0  0  0  0  0  0
   56.9640   30.6400   44.1430 N   0  0  0  0  0  0  0  0  0  0  0  0
   56.3520   29.3940   44.5000 C   0  0  0  0  0  0  0  0  0  0  0  0
   55.1440   29.3680   44.8590 O   0  0  0  0  0  0  0  0  0  0  0  0
   57.1330   28.1910   44.4950 N   0  0  0  0  0  0  0  0  0  0  0  0
   58.1270   27.8130   45.4570 C   0  0  0  0  0  0  0  0  0  0  0  0
   57.9060   26.7890   46.4000 C   0  0  0  0  0  0  0  0  0  0  0  0
   58.9130   26.4370   47.3040 C   0  0  0  0  0  0  0  0  0  0  0  0
   60.1480   27.0890   47.2690 C   0  0  0  0  0  0  0  0  0  0  0  0
   61.1230   26.7440   48.1460 F   0  0  0  0  0  0  0  0  0  0  0  0
   60.3820   28.0890   46.3210 C   0  0  0  0  0  0  0  0  0  0  0  0
   59.3780   28.4430   45.4150 C   0  0  0  0  0  0  0  0  0  0  0  0
   57.5010   31.5740   45.1170 C   0  0  0  0  0  0  0  0  0  0  0  0
   58.8694   34.2747   48.2002 H   0  0  0  0  0  0  0  0  0  0  0  0
   58.1047   32.8996   47.3336 H   0  0  0  0  0  0  0  0  0  0  0  0
   59.8921   33.0790   47.3336 H   0  0  0  0  0  0  0  0  0  0  0  0
   57.8236   34.8752   46.0058 H   0  0  0  0  0  0  0  0  0  0  0  0
   59.9553   35.9847   47.1313 H   0  0  0  0  0  0  0  0  0  0  0  0
   60.7086   35.4932   45.5764 H   0  0  0  0  0  0  0  0  0  0  0  0
   59.2607   36.5563   45.5764 H   0  0  0  0  0  0  0  0  0  0  0  0
   59.2070   34.3500   44.0070 H   0  0  0  0  0  0  0  0  0  0  0  0
   59.8170   33.0770   44.8710 H   0  0  0  0  0  0  0  0  0  0  0  0
   57.0316   33.5472   44.4185 H   0  0  0  0  0  0  0  0  0  0  0  0
   57.6044   33.1012   42.1497 H   0  0  0  0  0  0  0  0  0  0  0  0
   59.0475   32.1771   42.5700 H   0  0  0  0  0  0  0  0  0  0  0  0
   56.2058   31.2598   42.2761 H   0  0  0  0  0  0  0  0  0  0  0  0
   57.6821   30.2891   42.1759 H   0  0  0  0  0  0  0  0  0  0  0  0
   56.9389   26.2654   46.4248 H   0  0  0  0  0  0  0  0  0  0  0  0
   58.7322   25.6443   48.0449 H   0  0  0  0  0  0  0  0  0  0  0  0
   61.3567   28.5977   46.2878 H   0  0  0  0  0  0  0  0  0  0  0  0
   59.5715   29.2223   44.6632 H   0  0  0  0  0  0  0  0  0  0  0  0
   56.7496   31.8099   45.8850 H   0  0  0  0  0  0  0  0  0  0  0  0
   58.3720   31.1668   45.6514 H   0  0  0  0  0  0  0  0  0  0  0  0
  1  2  1  0
  2  3  1  0
  2  4  1  0
  4  5  1  0
  5  6  1  0
  6  7  1  0
  7  8  1  0
  8  9  1  0
  9 10  2  0
  9 11  1  0
 11 12  1  0
 12 13  2  0
 13 14  1  0
 14 15  2  0
 15 16  1  0
 15 17  1  0
 17 18  2  0
  8 19  1  0
 19  5  1  0
 18 12  1  0
  1 20  1  0
  1 21  1  0
  1 22  1  0
  2 23  1  0
  3 24  1  0
  3 25  1  0
  3 26  1  0
  4 27  1  0
  4 28  1  0
  5 29  1  6
  6 30  1  0
  6 31  1  0
  7 32  1  0
  7 33  1  0
 13 34  1  0
 14 35  1  0
 17 36  1  0
 18 37  1  0
 19 38  1  0
 19 39  1  0
M  CHG  2   4   1  11  -1
M  END
>  <UniqueID>  (24) 
21

>  <SMILES>  (24) 
CC(C)[NH2+][C@H]1CCN(C(=O)[N-]c2ccc(F)cc2)C1

>  <Energy>  (24) 
56.1342927200758

>  <Genealogy>  (24) 
CC(C)[NH2+]C1CCN(C(=O)[N-]c2ccc(F)cc2)C1 (protonated)
CC(C)[NH2+][C@H]1CCN(C(=O)[N-]c2ccc(F)cc2)C1 (chirality)
CC(C)[NH2+][C@H]1CCN(C(=O)[N-]c2ccc(F)cc2)C1 (3D coordinates assigned)
CC(C)[NH2+][C@H]1CCN(C(=O)[N-]c2ccc(F)cc2)C1 (nonaromatic ring conformer: 56.1342927200758 kcal/mol)

>  <smiles>  (24) 
CC(C)NC1CCN(C(=O)Nc2ccc(F)cc2)C1

>  <score_type>  (24) 
oracle

>  <origin>  (24) 
adg

>  <m_score__min__energy>  (24) 
-6.54

>  <m_primary>  (24) 
energy

$$$$
24:0
     RDKit          3D

 43 45  0  0  0  0  0  0  0  0999 V2000
   57.5780   31.3470   43.6640 C   0  0  0  0  0  0  0  0  0  0  0  0
   56.7640   30.0670   43.7640 C   0  0  0  0  0  0  0  0  0  0  0  0
   56.5860   29.7100   45.1690 N   0  0  0  0  0  0  0  0  0  0  0  0
   57.4250   29.0880   45.9510 C   0  0  0  0  0  0  0  0  0  0  0  0
   57.3170   27.6940   46.0510 C   0  0  0  0  0  0  0  0  0  0  0  0
   56.3680   27.0230   45.3510 F   0  0  0  0  0  0  0  0  0  0  0  0
   58.1870   26.9850   46.8790 C   0  0  0  0  0  0  0  0  0  0  0  0
   59.1440   27.6410   47.5820 N   0  0  0  0  0  0  0  0  0  0  0  0
   59.2970   28.9910   47.5140 C   0  0  0  0  0  0  0  0  0  0  0  0
   60.3720   29.6320   48.3080 C   0  0  0  0  0  0  0  0  0  0  0  0
   60.4760   29.3910   49.6870 C   0  0  0  0  0  0  0  0  0  0  0  0
   61.4750   30.0100   50.4380 C   0  0  0  0  0  0  0  0  0  0  0  0
   62.3760   30.8830   49.8270 C   0  0  0  0  0  0  0  0  0  0  0  0
   62.2810   31.1570   48.4510 C   0  0  0  0  0  0  0  0  0  0  0  0
   63.1930   32.0620   47.7990 N   0  0  0  0  0  0  0  0  0  0  0  0
   62.8010   33.7040   47.3970 S   0  0  0  0  0  0  0  0  0  0  0  0
   63.1540   34.5930   48.5570 O   0  0  0  0  0  0  0  0  0  0  0  0
   63.6030   34.1250   46.1970 O   0  0  0  0  0  0  0  0  0  0  0  0
   61.0900   33.8380   47.0040 C   0  0  0  0  0  0  0  0  0  0  0  0
   60.1310   33.9270   48.0240 C   0  0  0  0  0  0  0  0  0  0  0  0
   58.7730   34.0200   47.7040 C   0  0  0  0  0  0  0  0  0  0  0  0
   58.3670   34.0280   46.3660 C   0  0  0  0  0  0  0  0  0  0  0  0
   57.0500   34.1180   46.0570 F   0  0  0  0  0  0  0  0  0  0  0  0
   59.3200   33.9440   45.3470 C   0  0  0  0  0  0  0  0  0  0  0  0
   60.6790   33.8510   45.6640 C   0  0  0  0  0  0  0  0  0  0  0  0
   61.2740   30.5240   47.6960 C   0  0  0  0  0  0  0  0  0  0  0  0
   61.1840   30.7660   46.3620 F   0  0  0  0  0  0  0  0  0  0  0  0
   58.4310   29.7490   46.7010 C   0  0  0  0  0  0  0  0  0  0  0  0
   58.5510   31.1010   46.6870 F   0  0  0  0  0  0  0  0  0  0  0  0
   57.8109   31.7133   44.6747 H   0  0  0  0  0  0  0  0  0  0  0  0
   58.5139   31.1450   43.1225 H   0  0  0  0  0  0  0  0  0  0  0  0
   56.9982   32.1089   43.1225 H   0  0  0  0  0  0  0  0  0  0  0  0
   55.7798   30.2213   43.2977 H   0  0  0  0  0  0  0  0  0  0  0  0
   57.2936   29.2549   43.2443 H   0  0  0  0  0  0  0  0  0  0  0  0
   58.0970   25.8918   46.9622 H   0  0  0  0  0  0  0  0  0  0  0  0
   59.7654   28.7099   50.1782 H   0  0  0  0  0  0  0  0  0  0  0  0
   61.5530   29.8092   51.5167 H   0  0  0  0  0  0  0  0  0  0  0  0
   63.1659   31.3601   50.4258 H   0  0  0  0  0  0  0  0  0  0  0  0
   64.1160   31.7070   47.4630 H   0  0  0  0  0  0  0  0  0  0  0  0
   60.4479   33.9236   49.0774 H   0  0  0  0  0  0  0  0  0  0  0  0
   58.0231   34.0870   48.5059 H   0  0  0  0  0  0  0  0  0  0  0  0
   59.0007   33.9510   44.2944 H   0  0  0  0  0  0  0  0  0  0  0  0
   61.4270   33.7879   44.8599 H   0  0  0  0  0  0  0  0  0  0  0  0
  1  2  1  0
  2  3  1  0
  3  4  2  3
  4  5  1  0
  5  6  1  0
  5  7  2  0
  7  8  1  0
  8  9  1  0
  9 10  1  0
 10 11  2  0
 11 12  1  0
 12 13  2  0
 13 14  1  0
 14 15  1  0
 15 16  1  0
 16 17  2  0
 16 18  2  0
 16 19  1  0
 19 20  2  0
 20 21  1  0
 21 22  2  0
 22 23  1  0
 22 24  1  0
 24 25  2  0
 14 26  2  0
 26 27  1  0
  9 28  2  0
 28 29  1  0
 28  4  1  0
 26 10  1  0
 25 19  1  0
  1 30  1  0
  1 31  1  0
  1 32  1  0
  2 33  1  0
  2 34  1  0
  7 35  1  0
 11 36  1  0
 12 37  1  0
 13 38  1  0
 15 39  1  0
 20 40  1  0
 21 41  1  0
 24 42  1  0
 25 43  1  0
M  CHG  1   8  -1
M  END
>  <UniqueID>  (25) 
22

>  <SMILES>  (25) 
CCN=c1c(F)c[n-]c(-c2cccc(NS(=O)(=O)c3ccc(F)cc3)c2F)c1F

>  <Energy>  (25) 
56.518431882198996

>  <Genealogy>  (25) 
CCN=c1c(F)c[n-]c(-c2cccc(NS(=O)(=O)c3ccc(F)cc3)c2F)c1F (protonated)
CCN=c1c(F)c[n-]c(-c2cccc(NS(=O)(=O)c3ccc(F)cc3)c2F)c1F (3D coordinates assigned)
CCN=c1c(F)c[n-]c(-c2cccc(NS(=O)(=O)c3ccc(F)cc3)c2F)c1F (optimized conformer: 56.518431882198996 kcal/mol)

>  <smiles>  (25) 
CCN=c1c(F)c[nH]c(-c2cccc(NS(=O)(=O)c3ccc(F)cc3)c2F)c1F

>  <score_type>  (25) 
oracle

>  <origin>  (25) 
adg

>  <m_score__min__energy>  (25) 
-10.81

>  <m_primary>  (25) 
energy

$$$$
25:0
     RDKit          3D

 47 49  0  0  0  0  0  0  0  0999 V2000
   57.1699   34.8819   45.3826 H   0  0  0  0  0  0  0  0  0  0  0  0
   58.1410   34.3850   45.2410 C   0  0  0  0  0  0  0  0  0  0  0  0
   59.3070   34.9630   45.9480 C   0  0  0  0  0  0  0  0  0  0  0  0
   59.7750   36.0570   45.5360 O   0  0  0  0  0  0  0  0  0  0  0  0
   59.9390   34.3200   47.1170 C   0  0  0  0  0  0  0  0  0  0  0  0
   59.3420   34.1500   48.3620 C   0  0  0  0  0  0  0  0  0  0  0  0
   58.2886   34.3701   48.5896 H   0  0  0  0  0  0  0  0  0  0  0  0
   60.2430   33.6750   49.2530 N   0  0  0  0  0  0  0  0  0  0  0  0
   60.0170   33.4810   50.6820 C   0  0  0  0  0  0  0  0  0  0  0  0
   60.7306   34.0936   51.2526 H   0  0  0  0  0  0  0  0  0  0  0  0
   58.9900   33.7831   50.9351 H   0  0  0  0  0  0  0  0  0  0  0  0
   60.1600   32.4201   50.9351 H   0  0  0  0  0  0  0  0  0  0  0  0
   61.4050   33.5360   48.5840 C   0  0  0  0  0  0  0  0  0  0  0  0
   62.6420   33.1290   49.0910 C   0  0  0  0  0  0  0  0  0  0  0  0
   62.7597   32.8587   50.1507 H   0  0  0  0  0  0  0  0  0  0  0  0
   63.7310   33.0760   48.2040 C   0  0  0  0  0  0  0  0  0  0  0  0
   64.7195   32.7631   48.5714 H   0  0  0  0  0  0  0  0  0  0  0  0
   63.5660   33.4210   46.8460 C   0  0  0  0  0  0  0  0  0  0  0  0
   64.4235   33.3626   46.1595 H   0  0  0  0  0  0  0  0  0  0  0  0
   62.3130   33.8390   46.3640 C   0  0  0  0  0  0  0  0  0  0  0  0
   62.1732   34.1087   45.3068 H   0  0  0  0  0  0  0  0  0  0  0  0
   61.2520   33.9010   47.2690 C   0  0  0  0  0  0  0  0  0  0  0  0
   58.1680   33.3050   44.4410 C   0  0  0  0  0  0  0  0  0  0  0  0
   58.1581   33.4760   43.3544 H   0  0  0  0  0  0  0  0  0  0  0  0
   58.2100   31.9040   44.9130 C   0  0  0  0  0  0  0  0  0  0  0  0
   57.8580   30.8770   44.0350 C   0  0  0  0  0  0  0  0  0  0  0  0
   57.6363   31.1139   42.9839 H   0  0  0  0  0  0  0  0  0  0  0  0
   57.7830   29.5420   44.4770 C   0  0  0  0  0  0  0  0  0  0  0  0
   57.3840   28.5160   43.6060 O   0  0  0  0  0  0  0  0  0  0  0  0
   58.1560   27.3600   43.2960 C   0  0  0  0  0  0  0  0  0  0  0  0
   58.4801   26.8747   44.2284 H   0  0  0  0  0  0  0  0  0  0  0  0
   57.5452   26.6575   42.7101 H   0  0  0  0  0  0  0  0  0  0  0  0
   59.0390   27.6550   42.7101 H   0  0  0  0  0  0  0  0  0  0  0  0
   58.1120   29.2400   45.8250 C   0  0  0  0  0  0  0  0  0  0  0  0
   58.0470   27.9450   46.3730 O   0  0  0  0  0  0  0  0  0  0  0  0
   59.1480   27.1260   46.7470 C   0  0  0  0  0  0  0  0  0  0  0  0
   59.2130   27.0776   47.8440 H   0  0  0  0  0  0  0  0  0  0  0  0
   59.0052   26.1128   46.3431 H   0  0  0  0  0  0  0  0  0  0  0  0
   60.0773   27.5541   46.3431 H   0  0  0  0  0  0  0  0  0  0  0  0
   58.5260   30.2690   46.6870 C   0  0  0  0  0  0  0  0  0  0  0  0
   58.8570   29.9320   48.0100 O   0  0  0  0  0  0  0  0  0  0  0  0
   60.1220   30.1780   48.6150 C   0  0  0  0  0  0  0  0  0  0  0  0
   60.0152   30.1572   49.7096 H   0  0  0  0  0  0  0  0  0  0  0  0
   60.8356   29.4018   48.3014 H   0  0  0  0  0  0  0  0  0  0  0  0
   60.4927   31.1651   48.3014 H   0  0  0  0  0  0  0  0  0  0  0  0
   58.5870   31.5940   46.2240 C   0  0  0  0  0  0  0  0  0  0  0  0
   58.9333   32.3926   46.8965 H   0  0  0  0  0  0  0  0  0  0  0  0
  1  2  1  0
  2  3  1  0
  3  4  2  0
  3  5  1  0
  5  6  2  0
  6  7  1  0
  6  8  1  0
  8  9  1  0
  9 10  1  0
  9 11  1  0
  9 12  1  0
  8 13  1  0
 13 14  2  0
 14 15  1  0
 14 16  1  0
 16 17  1  0
 16 18  2  0
 18 19  1  0
 18 20  1  0
 20 21  1  0
 20 22  2  0
  2 23  2  0
 23 24  1  0
 23 25  1  0
 25 26  2  0
 26 27  1  0
 26 28  1  0
 28 29  1  0
 29 30  1  0
 30 31  1  0
 30 32  1  0
 30 33  1  0
 28 34  2  0
 34 35  1  0
 35 36  1  0
 36 37  1  0
 36 38  1  0
 36 39  1  0
 34 40  1  0
 40 41  1  0
 41 42  1  0
 42 43  1  0
 42 44  1  0
 42 45  1  0
 40 46  2  0
 46 47  1  0
 22  5  1  0
 46 25  1  0
 22 13  1  0
M  END
>  <UniqueID>  (26) 
23

>  <SMILES>  (26) 
COc1cc(/C=C\C(=O)c2cn(C)c3ccccc23)cc(OC)c1OC

>  <Energy>  (26) 
90.15914491340003

>  <Genealogy>  (26) 
COc1cc(/C=C\C(=O)c2cn(C)c3ccccc23)cc(OC)c1OC (cis-trans isomerization)
COc1cc(/C=C\C(=O)c2cn(C)c3ccccc23)cc(OC)c1OC (3D coordinates assigned)
COc1cc(/C=C\C(=O)c2cn(C)c3ccccc23)cc(OC)c1OC (optimized conformer: 90.15914491340003 kcal/mol)

>  <smiles>  (26) 
COc1cc(C=CC(=O)c2cn(C)c3ccccc23)cc(OC)c1OC

>  <score_type>  (26) 
oracle

>  <origin>  (26) 
adg

>  <m_score__min__energy>  (26) 
-8.1600000000000001

>  <m_primary>  (26) 
energy

$$$$
26:0
     RDKit          3D

 60 63  0  0  1  0  0  0  0  0999 V2000
   57.1120   21.3840   42.9550 C   0  0  0  0  0  0  0  0  0  0  0  0
   56.0580   21.8280   43.7710 O   0  0  0  0  0  0  0  0  0  0  0  0
   56.1430   23.0690   44.3740 C   0  0  0  0  0  0  0  0  0  0  0  0
   55.8550   24.0660   43.6420 O   0  0  0  0  0  0  0  0  0  0  0  0
   56.5210   23.3230   45.7350 C   0  0  0  0  0  0  0  0  0  0  0  0
   56.8540   24.5960   46.2020 C   0  0  0  0  0  0  0  0  0  0  0  0
   56.8910   25.8240   45.4910 N   0  0  0  0  0  0  0  0  0  0  0  0
   57.3220   27.0010   46.1460 C   0  0  0  0  0  0  0  0  0  0  0  0
   57.6600   26.9100   47.3480 O   0  0  0  0  0  0  0  0  0  0  0  0
   57.3580   28.2730   45.4010 C   0  0  0  0  0  0  0  0  0  0  0  0
   57.2440   28.3950   44.0730 N   0  0  0  0  0  0  0  0  0  0  0  0
   57.3320   29.7150   43.8370 C   0  0  0  0  0  0  0  0  0  0  0  0
   57.2710   30.3340   42.6390 N   0  0  0  0  0  0  0  0  0  0  0  0
   57.3740   31.6720   42.5540 C   0  0  0  0  0  0  0  0  0  0  0  0
   57.3030   32.3140   41.2330 C   0  0  0  0  0  0  0  0  0  0  0  0
   57.5400   32.3520   43.7420 C   0  0  0  0  0  0  0  0  0  0  0  0
   57.5990   31.6810   44.9730 C   0  0  0  0  0  0  0  0  0  0  0  0
   57.7530   32.3840   45.9950 N   0  0  0  0  0  0  0  0  0  0  0  0
   58.9610   32.7930   46.5460 C   0  0  0  0  0  0  0  0  0  0  0  0
   59.9800   31.8510   46.7520 C   0  0  0  0  0  0  0  0  0  0  0  0
   61.1580   32.2800   47.3630 C   0  0  0  0  0  0  0  0  0  0  0  0
   61.3220   33.5930   47.7550 C   0  0  0  0  0  0  0  0  0  0  0  0
   62.4830   34.0540   48.3670 O   0  0  0  0  0  0  0  0  0  0  0  0
   63.7520   33.5320   48.0110 C   0  0  0  0  0  0  0  0  0  0  0  0
   60.3120   34.5330   47.5530 C   0  0  0  0  0  0  0  0  0  0  0  0
   59.1350   34.1260   46.9480 C   0  0  0  0  0  0  0  0  0  0  0  0
   57.4930   30.3560   45.0040 N   0  0  0  0  0  0  0  0  0  0  0  0
   57.5130   29.4920   45.9850 N   0  0  0  0  0  0  0  0  0  0  0  0
   57.1520   24.4390   47.5260 N   0  0  0  0  0  0  0  0  0  0  0  0
   57.0210   23.1910   47.8670 N   0  0  0  0  0  0  0  0  0  0  0  0
   56.6380   22.4890   46.7970 N   0  0  0  0  0  0  0  0  0  0  0  0
   56.3860   21.0530   46.7730 C   0  0  0  0  0  0  0  0  0  0  0  0
   56.3770   20.4730   48.1670 C   0  0  0  0  0  0  0  0  0  0  0  0
   54.9990   20.8420   46.1480 C   0  0  0  0  0  0  0  0  0  0  0  0
   57.3900   20.3890   45.8710 C   0  0  0  0  0  0  0  0  0  0  0  0
   57.9422   21.0343   43.5863 H   0  0  0  0  0  0  0  0  0  0  0  0
   56.7609   20.5573   42.3199 H   0  0  0  0  0  0  0  0  0  0  0  0
   57.4582   22.2127   42.3199 H   0  0  0  0  0  0  0  0  0  0  0  0
   56.6120   25.9240   44.4850 H   0  0  0  0  0  0  0  0  0  0  0  0
   57.1829   33.4001   41.3592 H   0  0  0  0  0  0  0  0  0  0  0  0
   58.2292   32.1098   40.6758 H   0  0  0  0  0  0  0  0  0  0  0  0
   56.4438   31.9123   40.6758 H   0  0  0  0  0  0  0  0  0  0  0  0
   57.6284   33.4483   43.7243 H   0  0  0  0  0  0  0  0  0  0  0  0
   59.8534   30.8037   46.4404 H   0  0  0  0  0  0  0  0  0  0  0  0
   61.9707   31.5591   47.5355 H   0  0  0  0  0  0  0  0  0  0  0  0
   64.3211   33.2979   48.9228 H   0  0  0  0  0  0  0  0  0  0  0  0
   63.6181   32.6159   47.4170 H   0  0  0  0  0  0  0  0  0  0  0  0
   64.3015   34.2771   47.4170 H   0  0  0  0  0  0  0  0  0  0  0  0
   60.4478   35.5780   47.8683 H   0  0  0  0  0  0  0  0  0  0  0  0
   58.3283   34.8549   46.7808 H   0  0  0  0  0  0  0  0  0  0  0  0
   57.6140   29.5590   47.0070 H   0  0  0  0  0  0  0  0  0  0  0  0
   56.3897   21.2895   48.9040 H   0  0  0  0  0  0  0  0  0  0  0  0
   55.4693   19.8674   48.3063 H   0  0  0  0  0  0  0  0  0  0  0  0
   57.2654   19.8395   48.3063 H   0  0  0  0  0  0  0  0  0  0  0  0
   54.2507   20.7282   46.9461 H   0  0  0  0  0  0  0  0  0  0  0  0
   54.7414   21.7113   45.5251 H   0  0  0  0  0  0  0  0  0  0  0  0
   55.0116   19.9354   45.5251 H   0  0  0  0  0  0  0  0  0  0  0  0
   58.1535   19.8841   46.4811 H   0  0  0  0  0  0  0  0  0  0  0  0
   56.8799   19.6495   45.2362 H   0  0  0  0  0  0  0  0  0  0  0  0
   57.8708   21.1478   45.2362 H   0  0  0  0  0  0  0  0  0  0  0  0
  1  2  1  0
  2  3  1  0
  3  4  2  0
  3  5  1  0
  5  6  2  0
  6  7  1  0
  7  8  1  0
  8  9  2  0
  8 10  1  0
 10 11  2  0
 11 12  1  0
 12 13  2  0
 13 14  1  0
 14 15  1  0
 14 16  2  0
 16 17  1  0
 17 18  2  0
 18 19  1  0
 19 20  2  0
 20 21  1  0
 21 22  2  0
 22 23  1  0
 23 24  1  0
 22 25  1  0
 25 26  2  0
 17 27  1  0
 27 28  1  0
  6 29  1  0
 29 30  2  0
 30 31  1  0
 31 32  1  0
 32 33  1  0
 32 34  1  0
 32 35  1  0
 31  5  1  0
 28 10  1  0
 27 12  1  0
 26 19  1  0
  1 36  1  0
  1 37  1  0
  1 38  1  0
  7 39  1  0
 15 40  1  0
 15 41  1  0
 15 42  1  0
 16 43  1  0
 20 44  1  0
 21 45  1  0
 24 46  1  0
 24 47  1  0
 24 48  1  0
 25 49  1  0
 26 50  1  0
 28 51  1  0
 33 52  1  0
 33 53  1  0
 33 54  1  0
 34 55  1  0
 34 56  1  0
 34 57  1  0
 35 58  1  0
 35 59  1  0
 35 60  1  0
M  END
>  <smiles>  (27) 
COC(=O)c1c(NC(=O)c2nc3nc(C)cc(=Nc4ccc(OC)cc4)n3[nH]2)nnn1C(C)(C)C

>  <score_type>  (27) 
oracle

>  <origin>  (27) 
adg

>  <m_score__min__energy>  (27) 
-8.5099999999999998

>  <m_primary>  (27) 
energy

$$$$
27:0
     RDKit          3D

 32 33  0  0  0  0  0  0  0  0999 V2000
   54.7660   26.3400   45.9680 O   0  0  0  0  0  0  0  0  0  0  0  0
   55.9890   26.5720   46.1570 C   0  0  0  0  0  0  0  0  0  0  0  0
   56.7370   25.7170   46.9570 O   0  0  0  0  0  0  0  0  0  0  0  0
   56.6460   27.7400   45.4940 C   0  0  0  0  0  0  0  0  0  0  0  0
   55.6510   28.7460   45.1430 N   0  0  0  0  0  0  0  0  0  0  0  0
   55.8430   29.7310   44.1200 C   0  0  0  0  0  0  0  0  0  0  0  0
   55.1640   29.6690   43.0590 O   0  0  0  0  0  0  0  0  0  0  0  0
   56.8330   30.8170   44.3060 C   0  0  0  0  0  0  0  0  0  0  0  0
   57.1820   31.6570   43.2340 C   0  0  0  0  0  0  0  0  0  0  0  0
   58.1160   32.6820   43.4070 C   0  0  0  0  0  0  0  0  0  0  0  0
   58.7270   32.8870   44.6580 C   0  0  0  0  0  0  0  0  0  0  0  0
   59.6980   33.9280   44.8700 N   0  0  0  0  0  0  0  0  0  0  0  0
   59.8680   34.8080   46.3550 S   0  0  0  0  0  0  0  0  0  0  0  0
   60.0200   36.2720   46.0520 O   0  0  0  0  0  0  0  0  0  0  0  0
   58.6400   34.6060   47.1970 O   0  0  0  0  0  0  0  0  0  0  0  0
   61.2630   34.2230   47.2410 C   0  0  0  0  0  0  0  0  0  0  0  0
   62.4400   33.7560   46.6770 C   0  0  0  0  0  0  0  0  0  0  0  0
   63.3870   33.3740   47.6330 C   0  0  0  0  0  0  0  0  0  0  0  0
   62.9550   33.5400   48.9440 C   0  0  0  0  0  0  0  0  0  0  0  0
   61.3930   34.1650   48.9150 S   0  0  0  0  0  0  0  0  0  0  0  0
   58.3730   32.0540   45.7280 C   0  0  0  0  0  0  0  0  0  0  0  0
   57.4380   31.0290   45.5570 C   0  0  0  0  0  0  0  0  0  0  0  0
   57.3819   28.1816   46.1821 H   0  0  0  0  0  0  0  0  0  0  0  0
   57.1474   27.3965   44.5772 H   0  0  0  0  0  0  0  0  0  0  0  0
   56.7153   31.5059   42.2494 H   0  0  0  0  0  0  0  0  0  0  0  0
   58.3754   33.3332   42.5593 H   0  0  0  0  0  0  0  0  0  0  0  0
   60.2940   34.2350   44.0690 H   0  0  0  0  0  0  0  0  0  0  0  0
   62.6112   33.6925   45.5923 H   0  0  0  0  0  0  0  0  0  0  0  0
   64.3801   32.9794   47.3721 H   0  0  0  0  0  0  0  0  0  0  0  0
   63.5360   33.3029   49.8474 H   0  0  0  0  0  0  0  0  0  0  0  0
   58.8362   32.2085   46.7137 H   0  0  0  0  0  0  0  0  0  0  0  0
   57.1737   30.3836   46.4076 H   0  0  0  0  0  0  0  0  0  0  0  0
  1  2  2  0
  2  3  1  0
  2  4  1  0
  4  5  1  0
  5  6  1  0
  6  7  2  0
  6  8  1  0
  8  9  2  0
  9 10  1  0
 10 11  2  0
 11 12  1  0
 12 13  1  0
 13 14  2  0
 13 15  2  0
 13 16  1  0
 16 17  2  0
 17 18  1  0
 18 19  2  0
 19 20  1  0
 11 21  1  0
 21 22  2  0
 22  8  1  0
 20 16  1  0
  4 23  1  0
  4 24  1  0
  9 25  1  0
 10 26  1  0
 12 27  1  0
 17 28  1  0
 18 29  1  0
 19 30  1  0
 21 31  1  0
 22 32  1  0
M  CHG  2   3  -1   5  -1
M  END
>  <UniqueID>  (28) 
24

>  <SMILES>  (28) 
O=C([O-])C[N-]C(=O)c1ccc(NS(=O)(=O)c2cccs2)cc1

>  <Energy>  (28) 
58.961527783568684

>  <Genealogy>  (28) 
O=C([O-])C[N-]C(=O)c1ccc(NS(=O)(=O)c2cccs2)cc1 (protonated)
O=C([O-])C[N-]C(=O)c1ccc(NS(=O)(=O)c2cccs2)cc1 (3D coordinates assigned)
O=C([O-])C[N-]C(=O)c1ccc(NS(=O)(=O)c2cccs2)cc1 (optimized conformer: 58.961527783568684 kcal/mol)

>  <smiles>  (28) 
O=C(O)CNC(=O)c1ccc(NS(=O)(=O)c2cccs2)cc1

>  <score_type>  (28) 
oracle

>  <origin>  (28) 
adg

>  <m_score__min__energy>  (28) 
-12.51

>  <m_primary>  (28) 
energy

$$$$
28:0
     RDKit          3D

 50 53  0  0  0  0  0  0  0  0999 V2000
   61.6120   28.3940   50.8750 C   0  0  0  0  0  0  0  0  0  0  0  0
   61.1570   29.6310   50.1450 C   0  0  0  0  0  0  0  0  0  0  0  0
   61.6030   30.8490   50.5830 N   0  0  0  0  0  0  0  0  0  0  0  0
   61.2520   31.9790   49.9230 C   0  0  0  0  0  0  0  0  0  0  0  0
   61.7440   33.5420   50.2760 S   0  0  0  0  0  0  0  0  0  0  0  0
   60.9100   34.2490   48.9860 C   0  0  0  0  0  0  0  0  0  0  0  0
   60.2270   33.2560   48.2730 C   0  0  0  0  0  0  0  0  0  0  0  0
   59.3770   33.5660   47.1030 C   0  0  0  0  0  0  0  0  0  0  0  0
   59.9020   34.2950   46.0230 C   0  0  0  0  0  0  0  0  0  0  0  0
   59.0970   34.6070   44.9230 C   0  0  0  0  0  0  0  0  0  0  0  0
   57.7590   34.2040   44.8990 C   0  0  0  0  0  0  0  0  0  0  0  0
   57.2230   33.4940   45.9760 C   0  0  0  0  0  0  0  0  0  0  0  0
   58.0250   33.1790   47.0770 C   0  0  0  0  0  0  0  0  0  0  0  0
   60.4400   31.9700   48.8070 C   0  0  0  0  0  0  0  0  0  0  0  0
   59.9700   30.7490   48.3210 C   0  0  0  0  0  0  0  0  0  0  0  0
   60.3030   29.5580   49.0010 C   0  0  0  0  0  0  0  0  0  0  0  0
   59.7630   28.2780   48.4840 C   0  0  0  0  0  0  0  0  0  0  0  0
   58.5270   28.0460   48.5620 O   0  0  0  0  0  0  0  0  0  0  0  0
   60.6410   27.2860   47.9400 N   0  0  0  0  0  0  0  0  0  0  0  0
   60.6250   26.8740   46.5410 C   0  0  0  0  0  0  0  0  0  0  0  0
   59.6850   27.7490   45.7570 C   0  0  0  0  0  0  0  0  0  0  0  0
   60.1400   28.9680   45.2280 C   0  0  0  0  0  0  0  0  0  0  0  0
   59.2630   29.8050   44.5330 C   0  0  0  0  0  0  0  0  0  0  0  0
   57.9230   29.4340   44.3580 C   0  0  0  0  0  0  0  0  0  0  0  0
   56.8110   30.5000   43.5070 S   0  0  0  0  0  0  0  0  0  0  0  0
   57.7390   31.7420   42.6350 C   0  0  0  0  0  0  0  0  0  0  0  0
   55.8850   31.1590   44.4910 O   0  0  0  0  0  0  0  0  0  0  0  0
   55.9900   29.7080   42.5280 O   0  0  0  0  0  0  0  0  0  0  0  0
   57.4640   28.2250   44.8950 C   0  0  0  0  0  0  0  0  0  0  0  0
   58.3400   27.3850   45.5910 C   0  0  0  0  0  0  0  0  0  0  0  0
   61.5493   28.5646   51.9599 H   0  0  0  0  0  0  0  0  0  0  0  0
   60.9665   27.5471   50.5990 H   0  0  0  0  0  0  0  0  0  0  0  0
   62.6524   28.1672   50.5990 H   0  0  0  0  0  0  0  0  0  0  0  0
   62.2280   30.9220   51.4170 H   0  0  0  0  0  0  0  0  0  0  0  0
   60.9048   35.3221   48.7445 H   0  0  0  0  0  0  0  0  0  0  0  0
   60.9520   34.6222   46.0427 H   0  0  0  0  0  0  0  0  0  0  0  0
   59.5170   35.1698   44.0763 H   0  0  0  0  0  0  0  0  0  0  0  0
   57.1275   34.4461   44.0314 H   0  0  0  0  0  0  0  0  0  0  0  0
   56.1683   33.1823   45.9578 H   0  0  0  0  0  0  0  0  0  0  0  0
   57.5970   32.6263   47.9263 H   0  0  0  0  0  0  0  0  0  0  0  0
   59.3456   30.7153   47.4160 H   0  0  0  0  0  0  0  0  0  0  0  0
   61.6388   26.9629   46.1236 H   0  0  0  0  0  0  0  0  0  0  0  0
   60.2848   25.8299   46.4762 H   0  0  0  0  0  0  0  0  0  0  0  0
   61.1907   29.2649   45.3613 H   0  0  0  0  0  0  0  0  0  0  0  0
   59.6258   30.7586   44.1218 H   0  0  0  0  0  0  0  0  0  0  0  0
   58.2346   32.4053   43.3592 H   0  0  0  0  0  0  0  0  0  0  0  0
   58.4976   31.2568   42.0033 H   0  0  0  0  0  0  0  0  0  0  0  0
   57.0586   32.3320   42.0033 H   0  0  0  0  0  0  0  0  0  0  0  0
   56.4105   27.9345   44.7691 H   0  0  0  0  0  0  0  0  0  0  0  0
   57.9732   26.4361   46.0095 H   0  0  0  0  0  0  0  0  0  0  0  0
  1  2  1  0
  2  3  2  0
  3  4  1  0
  4  5  1  0
  5  6  1  0
  6  7  2  0
  7  8  1  0
  8  9  2  0
  9 10  1  0
 10 11  2  0
 11 12  1  0
 12 13  2  0
  7 14  1  0
 14 15  1  0
 15 16  2  0
 16 17  1  0
 17 18  2  0
 17 19  1  0
 19 20  1  0
 20 21  1  0
 21 22  2  0
 22 23  1  0
 23 24  2  0
 24 25  1  0
 25 26  1  0
 25 27  2  0
 25 28  2  0
 24 29  1  0
 29 30  2  0
 16  2  1  0
 30 21  1  0
 14  4  2  0
 13  8  1  0
  1 31  1  0
  1 32  1  0
  1 33  1  0
  3 34  1  0
  6 35  1  0
  9 36  1  0
 10 37  1  0
 11 38  1  0
 12 39  1  0
 13 40  1  0
 15 41  1  0
 20 42  1  0
 20 43  1  0
 22 44  1  0
 23 45  1  0
 26 46  1  0
 26 47  1  0
 26 48  1  0
 29 49  1  0
 30 50  1  0
M  CHG  2   3   1  19  -1
M  END
>  <UniqueID>  (29) 
25

>  <SMILES>  (29) 
Cc1[nH+]c2scc(-c3ccccc3)c2cc1C(=O)[N-]Cc1ccc(S(C)(=O)=O)cc1

>  <Energy>  (29) 
90.57950491117106

>  <Genealogy>  (29) 
Cc1[nH+]c2scc(-c3ccccc3)c2cc1C(=O)[N-]Cc1ccc(S(C)(=O)=O)cc1 (protonated)
Cc1[nH+]c2scc(-c3ccccc3)c2cc1C(=O)[N-]Cc1ccc(S(C)(=O)=O)cc1 (3D coordinates assigned)
Cc1[nH+]c2scc(-c3ccccc3)c2cc1C(=O)[N-]Cc1ccc(S(C)(=O)=O)cc1 (optimized conformer: 90.57950491117106 kcal/mol)

>  <smiles>  (29) 
Cc1nc2scc(-c3ccccc3)c2cc1C(=O)NCc1ccc(S(C)(=O)=O)cc1

>  <score_type>  (29) 
oracle

>  <origin>  (29) 
adg

>  <m_score__min__energy>  (29) 
-9.8900000000000006

>  <m_primary>  (29) 
energy

$$$$
29:0
     RDKit          3D

 47 48  0  0  0  0  0  0  0  0999 V2000
   53.6240   24.8030   45.5240 C   0  0  0  0  0  0  0  0  0  0  0  0
   54.5560   25.8740   45.6320 O   0  0  0  0  0  0  0  0  0  0  0  0
   55.9520   25.7210   45.6530 C   0  0  0  0  0  0  0  0  0  0  0  0
   56.5500   24.4460   45.7080 C   0  0  0  0  0  0  0  0  0  0  0  0
   57.9370   24.3180   45.7950 C   0  0  0  0  0  0  0  0  0  0  0  0
   58.7540   25.4560   45.8220 C   0  0  0  0  0  0  0  0  0  0  0  0
   60.2380   25.3140   45.9940 C   0  0  0  0  0  0  0  0  0  0  0  0
   58.1650   26.7270   45.7700 C   0  0  0  0  0  0  0  0  0  0  0  0
   56.7760   26.8690   45.6510 C   0  0  0  0  0  0  0  0  0  0  0  0
   56.2360   28.1990   45.6280 N   0  0  0  0  0  0  0  0  0  0  0  0
   56.6250   29.2560   44.7430 C   0  0  0  0  0  0  0  0  0  0  0  0
   55.7780   30.0900   44.3250 O   0  0  0  0  0  0  0  0  0  0  0  0
   58.0450   29.3400   44.2820 C   0  0  0  0  0  0  0  0  0  0  0  0
   58.8200   30.1820   45.1960 N   0  0  0  0  0  0  0  0  0  0  0  0
   58.4460   31.5500   45.4040 C   0  0  0  0  0  0  0  0  0  0  0  0
   57.9900   32.3100   44.3190 C   0  0  0  0  0  0  0  0  0  0  0  0
   57.6220   33.6450   44.4990 C   0  0  0  0  0  0  0  0  0  0  0  0
   57.7080   34.2290   45.7640 C   0  0  0  0  0  0  0  0  0  0  0  0
   58.1640   33.4810   46.8530 C   0  0  0  0  0  0  0  0  0  0  0  0
   58.5410   32.1330   46.6820 C   0  0  0  0  0  0  0  0  0  0  0  0
   59.0210   31.3550   47.7470 O   0  0  0  0  0  0  0  0  0  0  0  0
   58.5360   31.4290   49.0850 C   0  0  0  0  0  0  0  0  0  0  0  0
   60.2300   29.5530   45.9960 S   0  0  0  0  0  0  0  0  0  0  0  0
   59.7430   28.6870   47.4730 C   0  0  0  0  0  0  0  0  0  0  0  0
   60.9450   28.5870   45.0910 O   0  0  0  0  0  0  0  0  0  0  0  0
   61.1580   30.6770   46.3580 O   0  0  0  0  0  0  0  0  0  0  0  0
   53.3324   24.4679   46.5303 H   0  0  0  0  0  0  0  0  0  0  0  0
   52.7323   25.1465   44.9791 H   0  0  0  0  0  0  0  0  0  0  0  0
   54.0873   23.9673   44.9791 H   0  0  0  0  0  0  0  0  0  0  0  0
   55.9190   23.5453   45.6822 H   0  0  0  0  0  0  0  0  0  0  0  0
   58.3916   23.3175   45.8427 H   0  0  0  0  0  0  0  0  0  0  0  0
   60.4823   25.2906   47.0663 H   0  0  0  0  0  0  0  0  0  0  0  0
   60.5742   24.3796   45.5209 H   0  0  0  0  0  0  0  0  0  0  0  0
   60.7453   26.1677   45.5209 H   0  0  0  0  0  0  0  0  0  0  0  0
   58.8005   27.6233   45.8232 H   0  0  0  0  0  0  0  0  0  0  0  0
   58.4808   28.3303   44.2591 H   0  0  0  0  0  0  0  0  0  0  0  0
   58.0718   29.7811   43.2747 H   0  0  0  0  0  0  0  0  0  0  0  0
   57.9215   31.8530   43.3208 H   0  0  0  0  0  0  0  0  0  0  0  0
   57.2642   34.2367   43.6435 H   0  0  0  0  0  0  0  0  0  0  0  0
   57.4162   35.2803   45.9040 H   0  0  0  0  0  0  0  0  0  0  0  0
   58.2291   33.9458   47.8478 H   0  0  0  0  0  0  0  0  0  0  0  0
   59.3738   31.3012   49.7863 H   0  0  0  0  0  0  0  0  0  0  0  0
   58.0654   32.4093   49.2507 H   0  0  0  0  0  0  0  0  0  0  0  0
   57.7945   30.6336   49.2507 H   0  0  0  0  0  0  0  0  0  0  0  0
   60.0645   29.2587   48.3561 H   0  0  0  0  0  0  0  0  0  0  0  0
   58.6489   28.5738   47.4878 H   0  0  0  0  0  0  0  0  0  0  0  0
   60.2146   27.6934   47.4878 H   0  0  0  0  0  0  0  0  0  0  0  0
  1  2  1  0
  2  3  1  0
  3  4  2  0
  4  5  1  0
  5  6  2  0
  6  7  1  0
  6  8  1  0
  8  9  2  0
  9 10  1  0
 10 11  1  0
 11 12  2  0
 11 13  1  0
 13 14  1  0
 14 15  1  0
 15 16  2  0
 16 17  1  0
 17 18  2  0
 18 19  1  0
 19 20  2  0
 20 21  1  0
 21 22  1  0
 14 23  1  0
 23 24  1  0
 23 25  2  0
 23 26  2  0
  9  3  1  0
 20 15  1  0
  1 27  1  0
  1 28  1  0
  1 29  1  0
  4 30  1  0
  5 31  1  0
  7 32  1  0
  7 33  1  0
  7 34  1  0
  8 35  1  0
 13 36  1  0
 13 37  1  0
 16 38  1  0
 17 39  1  0
 18 40  1  0
 19 41  1  0
 22 42  1  0
 22 43  1  0
 22 44  1  0
 24 45  1  0
 24 46  1  0
 24 47  1  0
M  CHG  1  10  -1
M  END
>  <UniqueID>  (30) 
26

>  <SMILES>  (30) 
COc1ccc(C)cc1[N-]C(=O)CN(c1ccccc1OC)S(C)(=O)=O

>  <Energy>  (30) 
48.176000698992034

>  <Genealogy>  (30) 
COc1ccc(C)cc1[N-]C(=O)CN(c1ccccc1OC)S(C)(=O)=O (protonated)
COc1ccc(C)cc1[N-]C(=O)CN(c1ccccc1OC)S(C)(=O)=O (3D coordinates assigned)
COc1ccc(C)cc1[N-]C(=O)CN(c1ccccc1OC)S(C)(=O)=O (optimized conformer: 48.176000698992034 kcal/mol)

>  <smiles>  (30) 
COc1ccc(C)cc1NC(=O)CN(c1ccccc1OC)S(C)(=O)=O

>  <score_type>  (30) 
oracle

>  <origin>  (30) 
adg

>  <m_score__min__energy>  (30) 
-10.26

>  <m_primary>  (30) 
energy

$$$$
30:0
     RDKit          3D

 69 74  0  0  0  0  0  0  0  0999 V2000
   53.0170   29.4910   52.2840 C   0  0  0  0  0  0  0  0  0  0  0  0
   54.0510   28.9990   53.0810 C   0  0  0  0  0  0  0  0  0  0  0  0
   55.3340   29.5380   52.9730 C   0  0  0  0  0  0  0  0  0  0  0  0
   55.5790   30.5820   52.0540 C   0  0  0  0  0  0  0  0  0  0  0  0
   56.8970   31.1710   51.9040 N   0  0  0  0  0  0  0  0  0  0  0  0
   57.8380   30.6560   50.8960 C   0  0  0  0  0  0  0  0  0  0  0  0
   59.1460   31.4460   50.8990 C   0  0  0  0  0  0  0  0  0  0  0  0
   58.8290   32.8820   50.9230 N   0  0  0  0  0  0  0  0  0  0  0  0
   60.0330   33.6890   50.6240 C   0  0  0  0  0  0  0  0  0  0  0  0
   59.8330   34.5850   49.3930 C   0  0  0  0  0  0  0  0  0  0  0  0
   59.0010   33.8870   48.3020 C   0  0  0  0  0  0  0  0  0  0  0  0
   59.8050   33.6640   47.0000 C   0  0  1  0  0  0  0  0  0  0  0  0
   61.1980   33.1120   47.2170 C   0  0  0  0  0  0  0  0  0  0  0  0
   62.3380   33.8560   46.8610 C   0  0  0  0  0  0  0  0  0  0  0  0
   63.6160   33.3530   47.1200 C   0  0  0  0  0  0  0  0  0  0  0  0
   63.7660   32.1080   47.7390 C   0  0  0  0  0  0  0  0  0  0  0  0
   62.6380   31.3640   48.0910 C   0  0  0  0  0  0  0  0  0  0  0  0
   61.3600   31.8630   47.8160 C   0  0  0  0  0  0  0  0  0  0  0  0
   60.2360   31.1330   48.1670 O   0  0  0  0  0  0  0  0  0  0  0  0
   59.4040   30.5060   47.2000 C   0  0  0  0  0  0  0  0  0  0  0  0
   58.8170   31.3980   46.1020 C   0  0  0  0  0  0  0  0  0  0  0  0
   59.0130   32.8190   46.0070 C   0  0  0  0  0  0  0  0  0  0  0  0
   58.4140   33.5220   44.9440 C   0  0  0  0  0  0  0  0  0  0  0  0
   57.6670   32.8740   43.9730 C   0  0  0  0  0  0  0  0  0  0  0  0
   57.4660   31.5000   44.0450 C   0  0  0  0  0  0  0  0  0  0  0  0
   58.0200   30.7560   45.1020 C   0  0  0  0  0  0  0  0  0  0  0  0
   57.7660   29.2560   45.0600 C   0  0  0  0  0  0  0  0  0  0  0  0
   56.2900   28.9590   44.7480 C   0  0  0  0  0  0  0  0  0  0  0  0
   55.7200   29.7660   43.5560 C   0  0  0  0  0  0  0  0  0  0  0  0
   56.7010   30.7870   42.9590 C   0  0  0  0  0  0  0  0  0  0  0  0
   58.2000   33.2820   52.2070 C   0  0  0  0  0  0  0  0  0  0  0  0
   57.3830   32.1590   52.8820 C   0  0  0  0  0  0  0  0  0  0  0  0
   54.5400   31.0360   51.2930 N   0  0  0  0  0  0  0  0  0  0  0  0
   53.2850   30.5230   51.3850 C   0  0  0  0  0  0  0  0  0  0  0  0
   52.0037   29.0705   52.3636 H   0  0  0  0  0  0  0  0  0  0  0  0
   53.8550   28.1856   53.7951 H   0  0  0  0  0  0  0  0  0  0  0  0
   56.1504   29.1514   53.6007 H   0  0  0  0  0  0  0  0  0  0  0  0
   58.0567   29.6008   51.1167 H   0  0  0  0  0  0  0  0  0  0  0  0
   57.3736   30.7593   49.9042 H   0  0  0  0  0  0  0  0  0  0  0  0
   59.7358   31.1821   51.7892 H   0  0  0  0  0  0  0  0  0  0  0  0
   59.7310   31.2061   49.9989 H   0  0  0  0  0  0  0  0  0  0  0  0
   60.2596   34.3244   51.4929 H   0  0  0  0  0  0  0  0  0  0  0  0
   60.8614   32.9976   50.4104 H   0  0  0  0  0  0  0  0  0  0  0  0
   59.3134   35.5037   49.7029 H   0  0  0  0  0  0  0  0  0  0  0  0
   60.8239   34.8115   48.9725 H   0  0  0  0  0  0  0  0  0  0  0  0
   58.6673   32.9105   48.6828 H   0  0  0  0  0  0  0  0  0  0  0  0
   58.1481   34.5389   48.0621 H   0  0  0  0  0  0  0  0  0  0  0  0
   59.9587   34.6640   46.5682 H   0  0  0  0  0  0  0  0  0  0  0  0
   62.2229   34.8371   46.3771 H   0  0  0  0  0  0  0  0  0  0  0  0
   64.5043   33.9367   46.8368 H   0  0  0  0  0  0  0  0  0  0  0  0
   64.7719   31.7151   47.9484 H   0  0  0  0  0  0  0  0  0  0  0  0
   62.7539   30.3873   48.5836 H   0  0  0  0  0  0  0  0  0  0  0  0
   59.9997   29.7231   46.7079 H   0  0  0  0  0  0  0  0  0  0  0  0
   58.5342   30.1414   47.7661 H   0  0  0  0  0  0  0  0  0  0  0  0
   58.5422   34.6128   44.8828 H   0  0  0  0  0  0  0  0  0  0  0  0
   57.2315   33.4487   43.1423 H   0  0  0  0  0  0  0  0  0  0  0  0
   58.3970   28.8054   44.2797 H   0  0  0  0  0  0  0  0  0  0  0  0
   58.0102   28.8301   46.0444 H   0  0  0  0  0  0  0  0  0  0  0  0
   56.1948   27.8878   44.5167 H   0  0  0  0  0  0  0  0  0  0  0  0
   55.7127   29.2554   45.6362 H   0  0  0  0  0  0  0  0  0  0  0  0
   55.4357   29.0573   42.7643 H   0  0  0  0  0  0  0  0  0  0  0  0
   54.8645   30.3390   43.9429 H   0  0  0  0  0  0  0  0  0  0  0  0
   57.4116   30.2623   42.3035 H   0  0  0  0  0  0  0  0  0  0  0  0
   56.1273   31.5316   42.3877 H   0  0  0  0  0  0  0  0  0  0  0  0
   58.9955   33.5951   52.8992 H   0  0  0  0  0  0  0  0  0  0  0  0
   57.4951   34.0945   51.9769 H   0  0  0  0  0  0  0  0  0  0  0  0
   58.0213   31.6474   53.6174 H   0  0  0  0  0  0  0  0  0  0  0  0
   56.5088   32.6174   53.3673 H   0  0  0  0  0  0  0  0  0  0  0  0
   52.4801   30.9219   50.7501 H   0  0  0  0  0  0  0  0  0  0  0  0
  1  2  2  0
  2  3  1  0
  3  4  2  0
  4  5  1  0
  5  6  1  0
  6  7  1  0
  7  8  1  0
  8  9  1  0
  9 10  1  0
 10 11  1  0
 11 12  1  0
 12 13  1  0
 13 14  2  0
 14 15  1  0
 15 16  2  0
 16 17  1  0
 17 18  2  0
 18 19  1  0
 19 20  1  0
 20 21  1  0
 21 22  2  0
 22 23  1  0
 23 24  2  0
 24 25  1  0
 25 26  2  0
 26 27  1  0
 27 28  1  0
 28 29  1  0
 29 30  1  0
  8 31  1  0
 31 32  1  0
  4 33  1  0
 33 34  2  0
 34  1  1  0
 32  5  1  0
 22 12  1  0
 30 25  1  0
 18 13  1  0
 26 21  1  0
  1 35  1  0
  2 36  1  0
  3 37  1  0
  6 38  1  0
  6 39  1  0
  7 40  1  0
  7 41  1  0
  9 42  1  0
  9 43  1  0
 10 44  1  0
 10 45  1  0
 11 46  1  0
 11 47  1  0
 12 48  1  6
 14 49  1  0
 15 50  1  0
 16 51  1  0
 17 52  1  0
 20 53  1  0
 20 54  1  0
 23 55  1  0
 24 56  1  0
 27 57  1  0
 27 58  1  0
 28 59  1  0
 28 60  1  0
 29 61  1  0
 29 62  1  0
 30 63  1  0
 30 64  1  0
 31 65  1  0
 31 66  1  0
 32 67  1  0
 32 68  1  0
 34 69  1  0
M  END
>  <UniqueID>  (31) 
27

>  <SMILES>  (31) 
c1ccc(N2CCN(CCC[C@H]3c4ccccc4OCc4c3ccc3c4CCCC3)CC2)nc1

>  <Energy>  (31) 
106.49638817246841

>  <Genealogy>  (31) 
c1ccc(N2CCN(CCC[C@H]3c4ccccc4OCc4c3ccc3c4CCCC3)CC2)nc1 (chirality)
c1ccc(N2CCN(CCC[C@H]3c4ccccc4OCc4c3ccc3c4CCCC3)CC2)nc1 (3D coordinates assigned)
c1ccc(N2CCN(CCC[C@H]3c4ccccc4OCc4c3ccc3c4CCCC3)CC2)nc1 (nonaromatic ring conformer: 106.49638817246841 kcal/mol)

>  <smiles>  (31) 
c1ccc(N2CCN(CCCC3c4ccccc4OCc4c3ccc3c4CCCC3)CC2)nc1

>  <score_type>  (31) 
oracle

>  <origin>  (31) 
adg

>  <m_score__min__energy>  (31) 
-10.85

>  <m_primary>  (31) 
energy

$$$$
31:0
     RDKit          3D

 48 50  0  0  0  0  0  0  0  0999 V2000
   57.4010   29.1900   42.2480 H   0  0  0  0  0  0  0  0  0  0  0  0
   56.5580   29.0950   42.8590 N   0  0  0  0  0  0  0  0  0  0  0  0
   56.4710   29.6960   44.0040 C   0  0  0  0  0  0  0  0  0  0  0  0
   57.2120   30.9630   44.2270 C   0  0  0  0  0  0  0  0  0  0  0  0
   57.4580   31.8500   43.1630 C   0  0  0  0  0  0  0  0  0  0  0  0
   57.1089   31.5990   42.1505 H   0  0  0  0  0  0  0  0  0  0  0  0
   58.1430   33.0480   43.3840 C   0  0  0  0  0  0  0  0  0  0  0  0
   58.3295   33.7354   42.5457 H   0  0  0  0  0  0  0  0  0  0  0  0
   58.5910   33.3750   44.6640 C   0  0  0  0  0  0  0  0  0  0  0  0
   59.1244   34.3223   44.8312 H   0  0  0  0  0  0  0  0  0  0  0  0
   58.3660   32.5060   45.7350 C   0  0  0  0  0  0  0  0  0  0  0  0
   58.8200   32.8780   47.0090 O   0  0  0  0  0  0  0  0  0  0  0  0
   59.2320   31.9890   48.0120 C   0  0  0  0  0  0  0  0  0  0  0  0
   59.3680   30.6740   47.7010 N   0  0  0  0  0  0  0  0  0  0  0  0
   59.7400   29.7410   48.6150 C   0  0  0  0  0  0  0  0  0  0  0  0
   59.8630   28.4080   48.2020 O   0  0  0  0  0  0  0  0  0  0  0  0
   59.2580   27.8560   47.0620 C   0  0  0  0  0  0  0  0  0  0  0  0
   59.8410   28.0920   45.8140 C   0  0  0  0  0  0  0  0  0  0  0  0
   60.7572   28.6966   45.7435 H   0  0  0  0  0  0  0  0  0  0  0  0
   59.2660   27.5640   44.6560 C   0  0  0  0  0  0  0  0  0  0  0  0
   59.7392   27.7417   43.6790 H   0  0  0  0  0  0  0  0  0  0  0  0
   58.0920   26.8110   44.7340 C   0  0  0  0  0  0  0  0  0  0  0  0
   57.6502   26.3912   43.8182 H   0  0  0  0  0  0  0  0  0  0  0  0
   57.4710   26.5860   45.9760 C   0  0  0  0  0  0  0  0  0  0  0  0
   56.2230   25.7910   46.0780 C   0  0  0  0  0  0  0  0  0  0  0  0
   55.1090   26.3780   46.0000 O   0  0  0  0  0  0  0  0  0  0  0  0
   56.2600   24.3660   46.2460 N   0  0  0  0  0  0  0  0  0  0  0  0
   57.1610   23.8470   46.1510 H   0  0  0  0  0  0  0  0  0  0  0  0
   55.0470   23.5940   46.4890 C   0  0  0  0  0  0  0  0  0  0  0  0
   54.8878   23.4927   47.5727 H   0  0  0  0  0  0  0  0  0  0  0  0
   54.1869   24.1112   46.0388 H   0  0  0  0  0  0  0  0  0  0  0  0
   55.1513   22.5958   46.0388 H   0  0  0  0  0  0  0  0  0  0  0  0
   58.0650   27.1130   47.1390 C   0  0  0  0  0  0  0  0  0  0  0  0
   57.5920   26.9423   48.1173 H   0  0  0  0  0  0  0  0  0  0  0  0
   60.0290   30.1390   49.9320 C   0  0  0  0  0  0  0  0  0  0  0  0
   60.4680   29.2310   50.8410 F   0  0  0  0  0  0  0  0  0  0  0  0
   59.8920   31.4890   50.2930 C   0  0  0  0  0  0  0  0  0  0  0  0
   60.1340   31.9230   51.7120 C   0  0  0  0  0  0  0  0  0  0  0  0
   59.7163   31.1740   52.4008 H   0  0  0  0  0  0  0  0  0  0  0  0
   61.2158   32.0189   51.8867 H   0  0  0  0  0  0  0  0  0  0  0  0
   59.6469   32.8937   51.8867 H   0  0  0  0  0  0  0  0  0  0  0  0
   59.4590   32.4150   49.3320 C   0  0  0  0  0  0  0  0  0  0  0  0
   59.2270   33.7070   49.6840 F   0  0  0  0  0  0  0  0  0  0  0  0
   57.6580   31.3090   45.5170 C   0  0  0  0  0  0  0  0  0  0  0  0
   57.4511   30.6371   46.3630 H   0  0  0  0  0  0  0  0  0  0  0  0
   55.6450   29.1350   45.0320 N   0  0  0  0  0  0  0  0  0  0  0  0
   55.1770   28.2110   44.8920 H   0  0  0  0  0  0  0  0  0  0  0  0
   55.4250   29.6630   45.9050 H   0  0  0  0  0  0  0  0  0  0  0  0
  1  2  1  0
  2  3  2  0
  3  4  1  0
  4  5  2  0
  5  6  1  0
  5  7  1  0
  7  8  1  0
  7  9  2  0
  9 10  1  0
  9 11  1  0
 11 12  1  0
 12 13  1  0
 13 14  2  0
 14 15  1  0
 15 16  1  0
 16 17  1  0
 17 18  2  0
 18 19  1  0
 18 20  1  0
 20 21  1  0
 20 22  2  0
 22 23  1  0
 22 24  1  0
 24 25  1  0
 25 26  2  0
 25 27  1  0
 27 28  1  0
 27 29  1  0
 29 30  1  0
 29 31  1  0
 29 32  1  0
 24 33  2  0
 33 34  1  0
 15 35  2  0
 35 36  1  0
 35 37  1  0
 37 38  1  0
 38 39  1  0
 38 40  1  0
 38 41  1  0
 37 42  2  0
 42 43  1  0
 11 44  2  0
 44 45  1  0
  3 46  1  0
 46 47  1  0
 46 48  1  0
 44  4  1  0
 42 13  1  0
 33 17  1  0
M  END
>  <UniqueID>  (32) 
28

>  <SMILES>  (32) 
[H]/N=C(\N)c1cccc(Oc2nc(Oc3cccc(C(=O)NC)c3)c(F)c(C)c2F)c1

>  <Energy>  (32) 
67.38260885888074

>  <Genealogy>  (32) 
[H]/N=C(\N)c1cccc(Oc2nc(Oc3cccc(C(=O)NC)c3)c(F)c(C)c2F)c1 (cis-trans isomerization)
[H]/N=C(\N)c1cccc(Oc2nc(Oc3cccc(C(=O)NC)c3)c(F)c(C)c2F)c1 (3D coordinates assigned)
[H]/N=C(\N)c1cccc(Oc2nc(Oc3cccc(C(=O)NC)c3)c(F)c(C)c2F)c1 (optimized conformer: 67.38260885888074 kcal/mol)

>  <smiles>  (32) 
CNC(=O)c1cccc(Oc2nc(Oc3cccc(C(=N)N)c3)c(F)c(C)c2F)c1

>  <score_type>  (32) 
oracle

>  <origin>  (32) 
adg

>  <m_score__min__energy>  (32) 
-9.0999999999999996

>  <m_primary>  (32) 
energy

$$$$
32:0
     RDKit          3D

 41 43  0  0  1  0  0  0  0  0999 V2000
   55.9950   29.4530   44.8530 N   0  0  0  0  0  0  0  0  0  0  0  0
   56.5330   30.4320   43.9150 C   0  0  0  0  0  0  0  0  0  0  0  0
   56.1540   30.2960   42.7510 O   0  0  0  0  0  0  0  0  0  0  0  0
   57.4200   31.4040   44.4930 C   0  0  0  0  0  0  0  0  0  0  0  0
   57.7590   32.4790   43.6540 C   0  0  0  0  0  0  0  0  0  0  0  0
   58.5590   33.4760   44.0450 N   0  0  0  0  0  0  0  0  0  0  0  0
   57.9560   31.4230   45.7360 C   0  0  0  0  0  0  0  0  0  0  0  0
   57.8740   30.4880   46.5670 N   0  0  0  0  0  0  0  0  0  0  0  0
   58.6220   29.3250   46.5580 C   0  0  0  0  0  0  0  0  0  0  0  0
   59.7880   29.2700   45.7760 C   0  0  0  0  0  0  0  0  0  0  0  0
   61.3230   34.1300   49.0170 C   0  0  0  0  0  0  0  0  0  0  0  0
   62.5410   33.5630   48.7490 C   0  0  0  0  0  0  0  0  0  0  0  0
   62.8700   33.2790   47.4460 C   0  0  0  0  0  0  0  0  0  0  0  0
   64.1400   32.6840   47.1490 N   0  0  0  0  0  0  0  0  0  0  0  0
   61.9750   33.5650   46.4190 C   0  0  0  0  0  0  0  0  0  0  0  0
   58.7730   32.4680   46.1000 N   0  0  0  0  0  0  0  0  0  0  0  0
   59.0670   33.4720   45.2720 C   0  0  0  0  0  0  0  0  0  0  0  0
   59.8370   34.4300   45.6560 N   0  0  0  0  0  0  0  0  0  0  0  0
   60.7450   34.1430   46.7360 C   0  0  0  0  0  0  0  0  0  0  0  0
   60.4010   34.4350   48.0460 C   0  0  0  0  0  0  0  0  0  0  0  0
   58.8790   27.0200   47.1850 C   0  0  0  0  0  0  0  0  0  0  0  0
   60.0240   26.9710   46.4170 C   0  0  0  0  0  0  0  0  0  0  0  0
   60.7110   25.7670   46.3650 O   0  0  0  0  0  0  0  0  0  0  0  0
   60.4770   28.0610   45.7250 C   0  0  0  0  0  0  0  0  0  0  0  0
   58.1780   28.1970   47.2550 C   0  0  0  0  0  0  0  0  0  0  0  0
   55.8900   29.6700   45.8590 H   0  0  0  0  0  0  0  0  0  0  0  0
   55.7010   28.5080   44.5300 H   0  0  0  0  0  0  0  0  0  0  0  0
   57.3492   32.5010   42.6334 H   0  0  0  0  0  0  0  0  0  0  0  0
   58.7830   34.2580   43.3790 H   0  0  0  0  0  0  0  0  0  0  0  0
   60.1443   30.1517   45.2231 H   0  0  0  0  0  0  0  0  0  0  0  0
   61.0705   34.3525   50.0642 H   0  0  0  0  0  0  0  0  0  0  0  0
   63.2444   33.3387   49.5644 H   0  0  0  0  0  0  0  0  0  0  0  0
   64.2790   31.6550   47.3030 H   0  0  0  0  0  0  0  0  0  0  0  0
   64.8800   33.3210   46.7870 H   0  0  0  0  0  0  0  0  0  0  0  0
   62.2332   33.3389   45.3739 H   0  0  0  0  0  0  0  0  0  0  0  0
   59.1970   32.5100   47.0590 H   0  0  0  0  0  0  0  0  0  0  0  0
   59.4320   34.8911   48.2972 H   0  0  0  0  0  0  0  0  0  0  0  0
   58.5340   26.1302   47.7320 H   0  0  0  0  0  0  0  0  0  0  0  0
   61.4050   25.5900   45.6560 H   0  0  0  0  0  0  0  0  0  0  0  0
   61.3940   27.9815   45.1228 H   0  0  0  0  0  0  0  0  0  0  0  0
   57.2625   28.2538   47.8621 H   0  0  0  0  0  0  0  0  0  0  0  0
  1  2  1  0
  2  3  2  0
  2  4  1  0
  4  5  2  0
  5  6  1  0
  6  7  1  0
  7  8  2  0
  8  9  1  0
  9 10  2  0
 10 11  1  0
 11 12  2  0
 12 13  1  0
 13 14  1  0
 13 15  2  0
  7 16  1  0
 16 17  1  0
 17 18  2  0
 18 19  1  0
 19 20  2  0
 20 21  1  0
 21 22  2  0
 22 23  1  0
 22 24  1  0
 24 25  2  0
 17  4  1  0
 25 19  1  0
 15  9  1  0
  1 26  1  0
  1 27  1  0
  5 28  1  0
  6 29  1  0
 10 30  1  0
 11 31  1  0
 12 32  1  0
 14 33  1  0
 14 34  1  0
 15 35  1  0
 16 36  1  0
 20 37  1  0
 21 38  1  0
 23 39  1  0
 24 40  1  0
 25 41  1  0
M  END
>  <smiles>  (33) 
NC(=O)c1c[nH]c(=Nc2cccc(N)c2)[nH]c1=Nc1ccc(O)cc1

>  <score_type>  (33) 
oracle

>  <origin>  (33) 
adg

>  <m_score__min__energy>  (33) 
-7.9199999999999999

>  <m_primary>  (33) 
energy

$$$$
33:0
     RDKit          3D

 26 27  0  0  0  0  0  0  0  0999 V2000
   58.7761   33.7035   47.2177 H   0  0  0  0  0  0  0  0  0  0  0  0
   58.4040   33.3130   46.2590 C   0  0  0  0  0  0  0  0  0  0  0  0
   57.4210   32.3750   46.1850 N   0  0  0  0  0  0  0  0  0  0  0  0
   57.1400   32.0570   44.9020 C   0  0  0  0  0  0  0  0  0  0  0  0
   56.2410   31.1890   44.5410 N   0  0  0  0  0  0  0  0  0  0  0  0
   56.4200   29.7660   44.4700 C   0  0  0  0  0  0  0  0  0  0  0  0
   55.5260   28.9740   44.8730 O   0  0  0  0  0  0  0  0  0  0  0  0
   57.7110   29.2160   43.9560 C   0  0  0  0  0  0  0  0  0  0  0  0
   57.8354   29.4995   42.9005 H   0  0  0  0  0  0  0  0  0  0  0  0
   58.5436   29.6246   44.5474 H   0  0  0  0  0  0  0  0  0  0  0  0
   57.7030   27.7560   44.0710 N   0  0  0  0  0  0  0  0  0  0  0  0
   56.7260   27.4220   43.9040 H   0  0  0  0  0  0  0  0  0  0  0  0
   58.1200   27.2930   45.6940 S   0  0  0  0  0  0  0  0  0  0  0  0
   59.0340   26.1020   45.6540 O   0  0  0  0  0  0  0  0  0  0  0  0
   56.8750   26.9270   46.4540 O   0  0  0  0  0  0  0  0  0  0  0  0
   58.9390   28.6140   46.5040 C   0  0  0  0  0  0  0  0  0  0  0  0
   60.3440   29.3630   45.9630 S   0  0  0  0  0  0  0  0  0  0  0  0
   60.4620   30.4290   47.2580 C   0  0  0  0  0  0  0  0  0  0  0  0
   61.8400   31.7270   47.4830 Br  0  0  0  0  0  0  0  0  0  0  0  0
   59.4040   30.2070   48.1290 C   0  0  0  0  0  0  0  0  0  0  0  0
   59.2542   30.7775   49.0575 H   0  0  0  0  0  0  0  0  0  0  0  0
   58.5480   29.1850   47.7070 C   0  0  0  0  0  0  0  0  0  0  0  0
   57.6579   28.8669   48.2696 H   0  0  0  0  0  0  0  0  0  0  0  0
   58.0850   32.9170   43.8150 S   0  0  0  0  0  0  0  0  0  0  0  0
   58.9040   33.7420   45.0340 C   0  0  0  0  0  0  0  0  0  0  0  0
   59.6968   34.4902   44.8868 H   0  0  0  0  0  0  0  0  0  0  0  0
  1  2  1  0
  2  3  1  0
  3  4  1  0
  4  5  2  0
  5  6  1  0
  6  7  2  0
  6  8  1  0
  8  9  1  0
  8 10  1  0
  8 11  1  0
 11 12  1  0
 11 13  1  0
 13 14  2  0
 13 15  2  0
 13 16  1  0
 16 17  1  0
 17 18  1  0
 18 19  1  0
 18 20  2  0
 20 21  1  0
 20 22  1  0
 22 23  1  0
  4 24  1  0
 24 25  1  0
 25 26  1  0
 25  2  2  0
 22 16  2  0
M  CHG  1   3  -1
M  END
>  <UniqueID>  (34) 
29

>  <SMILES>  (34) 
O=C(CNS(=O)(=O)c1ccc(Br)s1)/N=c1\[n-]ccs1

>  <Energy>  (34) 
80.75100671092895

>  <Genealogy>  (34) 
O=C(CNS(=O)(=O)c1ccc(Br)s1)N=c1[n-]ccs1 (protonated)
O=C(CNS(=O)(=O)c1ccc(Br)s1)/N=c1\[n-]ccs1 (cis-trans isomerization)
O=C(CNS(=O)(=O)c1ccc(Br)s1)/N=c1\[n-]ccs1 (3D coordinates assigned)
O=C(CNS(=O)(=O)c1ccc(Br)s1)/N=c1\[n-]ccs1 (optimized conformer: 80.75100671092895 kcal/mol)

>  <smiles>  (34) 
O=C(CNS(=O)(=O)c1ccc(Br)s1)N=c1[nH]ccs1

>  <score_type>  (34) 
oracle

>  <origin>  (34) 
adg

>  <m_score__min__energy>  (34) 
-9.9600000000000009

>  <m_primary>  (34) 
energy

$$$$
34:0
     RDKit          3D

 34 35  0  0  0  0  0  0  0  0999 V2000
   59.7020   32.2460   48.6800 C   0  0  0  0  0  0  0  0  0  0  0  0
   58.6340   32.9130   48.0130 O   0  0  0  0  0  0  0  0  0  0  0  0
   58.4200   32.8820   46.6260 C   0  0  0  0  0  0  0  0  0  0  0  0
   57.7670   31.8060   45.9920 C   0  0  0  0  0  0  0  0  0  0  0  0
   57.5780   31.8080   44.6030 C   0  0  0  0  0  0  0  0  0  0  0  0
   56.8030   30.4420   43.8010 S   0  0  0  0  0  0  0  0  0  0  0  0
   55.5190   30.0910   44.4980 O   0  0  0  0  0  0  0  0  0  0  0  0
   56.4760   30.8390   42.3860 O   0  0  0  0  0  0  0  0  0  0  0  0
   57.8480   29.0480   43.7720 N   0  0  0  0  0  0  0  0  0  0  0  0
   58.5160   28.8430   45.0680 C   0  0  0  0  0  0  0  0  0  0  0  0
   59.9980   28.5360   44.8710 C   0  0  0  0  0  0  0  0  0  0  0  0
   60.4030   27.6100   46.0150 C   0  0  0  0  0  0  0  0  0  0  0  0
   59.1150   27.1610   46.6990 C   0  0  0  0  0  0  0  0  0  0  0  0
   57.9730   27.6280   45.8110 C   0  0  0  0  0  0  0  0  0  0  0  0
   58.0440   32.8850   43.8410 C   0  0  0  0  0  0  0  0  0  0  0  0
   58.6890   33.9580   44.4620 C   0  0  0  0  0  0  0  0  0  0  0  0
   58.8770   33.9590   45.8480 C   0  0  0  0  0  0  0  0  0  0  0  0
   59.6940   35.3200   46.6010 Cl  0  0  0  0  0  0  0  0  0  0  0  0
   59.5651   32.3315   49.7681 H   0  0  0  0  0  0  0  0  0  0  0  0
   59.7069   31.1840   48.3934 H   0  0  0  0  0  0  0  0  0  0  0  0
   60.6585   32.7076   48.3934 H   0  0  0  0  0  0  0  0  0  0  0  0
   57.4030   30.9585   46.5914 H   0  0  0  0  0  0  0  0  0  0  0  0
   58.5870   29.2550   43.0610 H   0  0  0  0  0  0  0  0  0  0  0  0
   58.3419   29.7713   45.6319 H   0  0  0  0  0  0  0  0  0  0  0  0
   60.1578   28.0375   43.9035 H   0  0  0  0  0  0  0  0  0  0  0  0
   60.5993   29.4571   44.8721 H   0  0  0  0  0  0  0  0  0  0  0  0
   60.9462   26.7381   45.6217 H   0  0  0  0  0  0  0  0  0  0  0  0
   61.0659   28.1272   46.7243 H   0  0  0  0  0  0  0  0  0  0  0  0
   59.0978   26.0655   46.7964 H   0  0  0  0  0  0  0  0  0  0  0  0
   59.0322   27.5840   47.7110 H   0  0  0  0  0  0  0  0  0  0  0  0
   57.6880   26.8374   45.1013 H   0  0  0  0  0  0  0  0  0  0  0  0
   57.0721   27.8710   46.3935 H   0  0  0  0  0  0  0  0  0  0  0  0
   57.9023   32.8871   42.7502 H   0  0  0  0  0  0  0  0  0  0  0  0
   59.0499   34.8043   43.8590 H   0  0  0  0  0  0  0  0  0  0  0  0
  1  2  1  0
  2  3  1  0
  3  4  2  0
  4  5  1  0
  5  6  1  0
  6  7  2  0
  6  8  2  0
  6  9  1  0
  9 10  1  0
 10 11  1  0
 11 12  1  0
 12 13  1  0
 13 14  1  0
  5 15  2  0
 15 16  1  0
 16 17  2  0
 17 18  1  0
 17  3  1  0
 14 10  1  0
  1 19  1  0
  1 20  1  0
  1 21  1  0
  4 22  1  0
  9 23  1  0
 10 24  1  0
 11 25  1  0
 11 26  1  0
 12 27  1  0
 12 28  1  0
 13 29  1  0
 13 30  1  0
 14 31  1  0
 14 32  1  0
 15 33  1  0
 16 34  1  0
M  END
>  <UniqueID>  (35) 
30

>  <SMILES>  (35) 
COc1cc(S(=O)(=O)NC2CCCC2)ccc1Cl

>  <Energy>  (35) 
30.994447807464645

>  <Genealogy>  (35) 
COc1cc(S(=O)(=O)NC2CCCC2)ccc1Cl (3D coordinates assigned)
COc1cc(S(=O)(=O)NC2CCCC2)ccc1Cl (nonaromatic ring conformer: 30.994447807464645 kcal/mol)

>  <smiles>  (35) 
COc1cc(S(=O)(=O)NC2CCCC2)ccc1Cl

>  <score_type>  (35) 
oracle

>  <origin>  (35) 
adg

>  <m_score__min__energy>  (35) 
-7.3899999999999997

>  <m_primary>  (35) 
energy

$$$$
35:0
     RDKit          3D

 44 47  0  0  0  0  0  0  0  0999 V2000
   54.5790   26.3360   45.9930 O   0  0  0  0  0  0  0  0  0  0  0  0
   55.6110   25.6160   45.9180 C   0  0  0  0  0  0  0  0  0  0  0  0
   55.4530   24.1910   45.9090 N   0  0  0  0  0  0  0  0  0  0  0  0
   56.0980   23.2750   45.0130 C   0  0  0  0  0  0  0  0  0  0  0  0
   55.6990   23.2540   43.6690 C   0  0  0  0  0  0  0  0  0  0  0  0
   56.3050   22.3780   42.7650 C   0  0  0  0  0  0  0  0  0  0  0  0
   57.3270   21.5270   43.1920 C   0  0  0  0  0  0  0  0  0  0  0  0
   57.7540   21.5620   44.5220 C   0  0  0  0  0  0  0  0  0  0  0  0
   57.1510   22.4360   45.4330 C   0  0  0  0  0  0  0  0  0  0  0  0
   57.6270   22.4930   46.7020 F   0  0  0  0  0  0  0  0  0  0  0  0
   56.9460   26.2600   45.8950 C   0  0  0  0  0  0  0  0  0  0  0  0
   58.0880   25.5830   46.3870 C   0  0  0  0  0  0  0  0  0  0  0  0
   59.3490   26.2000   46.3660 C   0  0  0  0  0  0  0  0  0  0  0  0
   59.4490   27.4950   45.8600 C   0  0  0  0  0  0  0  0  0  0  0  0
   58.3510   28.1600   45.3970 C   0  0  0  0  0  0  0  0  0  0  0  0
   57.0820   27.5760   45.4040 C   0  0  0  0  0  0  0  0  0  0  0  0
   58.6940   29.4600   44.9540 N   0  0  0  0  0  0  0  0  0  0  0  0
   57.5760   30.6900   44.4670 S   0  0  0  0  0  0  0  0  0  0  0  0
   57.6410   30.8750   42.9770 O   0  0  0  0  0  0  0  0  0  0  0  0
   56.1860   30.2630   44.8480 O   0  0  0  0  0  0  0  0  0  0  0  0
   57.9930   32.2090   45.2530 C   0  0  0  0  0  0  0  0  0  0  0  0
   58.1580   32.2690   46.6450 C   0  0  0  0  0  0  0  0  0  0  0  0
   58.5050   33.4760   47.2590 C   0  0  0  0  0  0  0  0  0  0  0  0
   58.6860   34.6270   46.4880 C   0  0  0  0  0  0  0  0  0  0  0  0
   58.5170   34.5740   45.1010 C   0  0  0  0  0  0  0  0  0  0  0  0
   58.1700   33.3680   44.4840 C   0  0  0  0  0  0  0  0  0  0  0  0
   60.1210   29.6780   45.1730 C   0  0  0  0  0  0  0  0  0  0  0  0
   60.6660   28.3500   45.7540 C   0  0  0  0  0  0  0  0  0  0  0  0
   54.9039   23.9315   43.3242 H   0  0  0  0  0  0  0  0  0  0  0  0
   55.9768   22.3584   41.7153 H   0  0  0  0  0  0  0  0  0  0  0  0
   57.7954   20.8297   42.4817 H   0  0  0  0  0  0  0  0  0  0  0  0
   58.5673   20.8999   44.8540 H   0  0  0  0  0  0  0  0  0  0  0  0
   57.9864   24.5643   46.7894 H   0  0  0  0  0  0  0  0  0  0  0  0
   60.2388   25.6729   46.7407 H   0  0  0  0  0  0  0  0  0  0  0  0
   56.2068   28.1305   45.0344 H   0  0  0  0  0  0  0  0  0  0  0  0
   58.0141   31.3646   47.2544 H   0  0  0  0  0  0  0  0  0  0  0  0
   58.6357   33.5196   48.3503 H   0  0  0  0  0  0  0  0  0  0  0  0
   58.9616   35.5754   46.9724 H   0  0  0  0  0  0  0  0  0  0  0  0
   58.6570   35.4813   44.4950 H   0  0  0  0  0  0  0  0  0  0  0  0
   58.0356   33.3285   43.3930 H   0  0  0  0  0  0  0  0  0  0  0  0
   60.6226   29.9150   44.2231 H   0  0  0  0  0  0  0  0  0  0  0  0
   60.3018   30.5225   45.8542 H   0  0  0  0  0  0  0  0  0  0  0  0
   61.4066   27.8987   45.0773 H   0  0  0  0  0  0  0  0  0  0  0  0
   61.1837   28.4819   46.7156 H   0  0  0  0  0  0  0  0  0  0  0  0
  1  2  2  0
  2  3  1  0
  3  4  1  0
  4  5  2  0
  5  6  1  0
  6  7  2  0
  7  8  1  0
  8  9  2  0
  9 10  1  0
  2 11  1  0
 11 12  2  0
 12 13  1  0
 13 14  2  0
 14 15  1  0
 15 16  2  0
 15 17  1  0
 17 18  1  0
 18 19  2  0
 18 20  2  0
 18 21  1  0
 21 22  2  0
 22 23  1  0
 23 24  2  0
 24 25  1  0
 25 26  2  0
 17 27  1  0
 27 28  1  0
  9  4  1  0
 16 11  1  0
 26 21  1  0
 28 14  1  0
  5 29  1  0
  6 30  1  0
  7 31  1  0
  8 32  1  0
 12 33  1  0
 13 34  1  0
 16 35  1  0
 22 36  1  0
 23 37  1  0
 24 38  1  0
 25 39  1  0
 26 40  1  0
 27 41  1  0
 27 42  1  0
 28 43  1  0
 28 44  1  0
M  CHG  1   3  -1
M  END
>  <UniqueID>  (36) 
31

>  <SMILES>  (36) 
O=C([N-]c1ccccc1F)c1ccc2c(c1)N(S(=O)(=O)c1ccccc1)CC2

>  <Energy>  (36) 
71.17230108758083

>  <Genealogy>  (36) 
O=C([N-]c1ccccc1F)c1ccc2c(c1)N(S(=O)(=O)c1ccccc1)CC2 (protonated)
O=C([N-]c1ccccc1F)c1ccc2c(c1)N(S(=O)(=O)c1ccccc1)CC2 (3D coordinates assigned)
O=C([N-]c1ccccc1F)c1ccc2c(c1)N(S(=O)(=O)c1ccccc1)CC2 (nonaromatic ring conformer: 71.17230108758083 kcal/mol)

>  <smiles>  (36) 
O=C(Nc1ccccc1F)c1ccc2c(c1)N(S(=O)(=O)c1ccccc1)CC2

>  <score_type>  (36) 
oracle

>  <origin>  (36) 
adg

>  <m_score__min__energy>  (36) 
-11.93

>  <m_primary>  (36) 
energy

$$$$
36:0
     RDKit          3D

 39 40  0  0  0  0  0  0  0  0999 V2000
   56.9009   26.2313   46.6110 H   0  0  0  0  0  0  0  0  0  0  0  0
   57.0070   26.9810   45.8130 C   0  0  0  0  0  0  0  0  0  0  0  0
   56.3786   27.8838   45.8195 H   0  0  0  0  0  0  0  0  0  0  0  0
   57.8990   26.7950   44.8360 C   0  0  0  0  0  0  0  0  0  0  0  0
   58.5201   25.8871   44.8434 H   0  0  0  0  0  0  0  0  0  0  0  0
   58.0760   27.7940   43.7270 C   0  0  0  0  0  0  0  0  0  0  0  0
   59.0776   27.6729   43.2887 H   0  0  0  0  0  0  0  0  0  0  0  0
   57.3017   27.6175   42.9659 H   0  0  0  0  0  0  0  0  0  0  0  0
   57.9310   29.2000   44.2470 C   0  0  0  0  0  0  0  0  0  0  0  0
   58.9310   29.7590   45.0580 C   0  0  0  0  0  0  0  0  0  0  0  0
   59.8124   29.1600   45.3308 H   0  0  0  0  0  0  0  0  0  0  0  0
   58.8130   31.0730   45.5210 C   0  0  0  0  0  0  0  0  0  0  0  0
   59.5959   31.5002   46.1648 H   0  0  0  0  0  0  0  0  0  0  0  0
   57.7000   31.8470   45.1670 C   0  0  0  0  0  0  0  0  0  0  0  0
   57.5430   33.4960   45.7630 S   0  0  0  0  0  0  0  0  0  0  0  0
   56.6590   34.2800   44.8330 O   0  0  0  0  0  0  0  0  0  0  0  0
   56.9270   33.4740   47.1340 O   0  0  0  0  0  0  0  0  0  0  0  0
   59.1220   34.2160   45.8310 N   0  0  0  0  0  0  0  0  0  0  0  0
   60.0250   34.0300   46.7520 C   0  0  0  0  0  0  0  0  0  0  0  0
   61.3870   33.8410   46.4420 C   0  0  0  0  0  0  0  0  0  0  0  0
   61.7179   33.8311   45.3930 H   0  0  0  0  0  0  0  0  0  0  0  0
   62.3170   33.6660   47.4730 C   0  0  0  0  0  0  0  0  0  0  0  0
   63.7650   33.4350   47.1550 C   0  0  0  0  0  0  0  0  0  0  0  0
   64.3359   33.3439   48.0908 H   0  0  0  0  0  0  0  0  0  0  0  0
   63.8688   32.5089   46.5705 H   0  0  0  0  0  0  0  0  0  0  0  0
   64.1518   34.2828   46.5705 H   0  0  0  0  0  0  0  0  0  0  0  0
   61.8760   33.6430   48.8000 C   0  0  0  0  0  0  0  0  0  0  0  0
   62.5945   33.4913   49.6190 H   0  0  0  0  0  0  0  0  0  0  0  0
   60.5160   33.8140   49.0800 C   0  0  0  0  0  0  0  0  0  0  0  0
   60.0410   33.8380   50.5030 C   0  0  0  0  0  0  0  0  0  0  0  0
   60.9073   33.7942   51.1795 H   0  0  0  0  0  0  0  0  0  0  0  0
   59.4791   34.7657   50.6864 H   0  0  0  0  0  0  0  0  0  0  0  0
   59.3884   32.9717   50.6864 H   0  0  0  0  0  0  0  0  0  0  0  0
   59.6330   34.0210   48.0600 N   0  0  0  0  0  0  0  0  0  0  0  0
   58.6230   34.1710   48.2850 H   0  0  0  0  0  0  0  0  0  0  0  0
   56.7010   31.2930   44.3560 C   0  0  0  0  0  0  0  0  0  0  0  0
   55.8215   31.8941   44.0819 H   0  0  0  0  0  0  0  0  0  0  0  0
   56.8180   29.9790   43.8940 C   0  0  0  0  0  0  0  0  0  0  0  0
   56.0339   29.5533   43.2506 H   0  0  0  0  0  0  0  0  0  0  0  0
  1  2  1  0
  2  3  1  0
  2  4  2  0
  4  5  1  0
  4  6  1  0
  6  7  1  0
  6  8  1  0
  6  9  1  0
  9 10  2  0
 10 11  1  0
 10 12  1  0
 12 13  1  0
 12 14  2  0
 14 15  1  0
 15 16  2  0
 15 17  2  0
 15 18  1  0
 18 19  2  0
 19 20  1  0
 20 21  1  0
 20 22  2  0
 22 23  1  0
 23 24  1  0
 23 25  1  0
 23 26  1  0
 22 27  1  0
 27 28  1  0
 27 29  2  0
 29 30  1  0
 30 31  1  0
 30 32  1  0
 30 33  1  0
 29 34  1  0
 34 35  1  0
 14 36  1  0
 36 37  1  0
 36 38  2  0
 38 39  1  0
 38  9  1  0
 34 19  1  0
M  END
>  <UniqueID>  (37) 
32

>  <SMILES>  (37) 
C=CCc1ccc(S(=O)(=O)/N=c2\cc(C)cc(C)[nH]2)cc1

>  <Energy>  (37) 
40.66266925758381

>  <Genealogy>  (37) 
C=CCc1ccc(S(=O)(=O)/N=c2\cc(C)cc(C)[nH]2)cc1 (cis-trans isomerization)
C=CCc1ccc(S(=O)(=O)/N=c2\cc(C)cc(C)[nH]2)cc1 (3D coordinates assigned)
C=CCc1ccc(S(=O)(=O)/N=c2\cc(C)cc(C)[nH]2)cc1 (optimized conformer: 40.66266925758381 kcal/mol)

>  <smiles>  (37) 
C=CCc1ccc(S(=O)(=O)N=c2cc(C)cc(C)[nH]2)cc1

>  <score_type>  (37) 
oracle

>  <origin>  (37) 
adg

>  <m_score__min__energy>  (37) 
-8.25

>  <m_primary>  (37) 
energy

$$$$
37:0
     RDKit          3D

 41 44  0  0  0  0  0  0  0  0999 V2000
   59.3230   35.2790   46.7470 O   0  0  0  0  0  0  0  0  0  0  0  0
   59.0100   34.1980   46.1760 C   0  0  0  0  0  0  0  0  0  0  0  0
   57.7550   34.0980   45.3810 C   0  0  0  0  0  0  0  0  0  0  0  0
   58.0090   33.1290   44.2210 C   0  0  0  0  0  0  0  0  0  0  0  0
   58.4980   31.7850   44.6580 N   0  0  2  0  0  0  0  0  0  0  0  0
   57.4260   30.8080   44.6410 C   0  0  0  0  0  0  0  0  0  0  0  0
   56.2320   31.1940   44.4930 O   0  0  0  0  0  0  0  0  0  0  0  0
   57.6960   29.3690   44.8760 C   0  0  0  0  0  0  0  0  0  0  0  0
   56.6850   28.5090   45.3550 C   0  0  0  0  0  0  0  0  0  0  0  0
   57.0040   27.2050   45.5560 N   0  0  0  0  0  0  0  0  0  0  0  0
   56.2330   26.1980   45.9990 C   0  0  0  0  0  0  0  0  0  0  0  0
   56.9940   25.0370   46.0440 C   0  0  0  0  0  0  0  0  0  0  0  0
   58.2730   25.3640   45.6100 C   0  0  0  0  0  0  0  0  0  0  0  0
   58.2290   26.7120   45.3210 C   0  0  0  0  0  0  0  0  0  0  0  0
   59.2400   27.5400   44.8500 C   0  0  0  0  0  0  0  0  0  0  0  0
   58.9440   28.8550   44.6400 N   0  0  0  0  0  0  0  0  0  0  0  0
   59.1750   31.7430   45.9850 C   0  0  0  0  0  0  0  0  0  0  0  0
   59.8170   33.0230   46.3130 N   0  0  0  0  0  0  0  0  0  0  0  0
   61.1190   33.0710   46.9290 C   0  0  0  0  0  0  0  0  0  0  0  0
   61.3660   32.3620   48.1170 C   0  0  0  0  0  0  0  0  0  0  0  0
   62.6260   32.4110   48.7200 C   0  0  0  0  0  0  0  0  0  0  0  0
   63.6490   33.1690   48.1450 C   0  0  0  0  0  0  0  0  0  0  0  0
   63.4130   33.8790   46.9650 C   0  0  0  0  0  0  0  0  0  0  0  0
   62.1550   33.8330   46.3590 C   0  0  0  0  0  0  0  0  0  0  0  0
   56.9404   33.7173   46.0146 H   0  0  0  0  0  0  0  0  0  0  0  0
   57.4640   35.0871   44.9977 H   0  0  0  0  0  0  0  0  0  0  0  0
   57.0673   32.9935   43.6689 H   0  0  0  0  0  0  0  0  0  0  0  0
   58.7999   33.5725   43.5983 H   0  0  0  0  0  0  0  0  0  0  0  0
   59.2090   31.5010   43.9440 H   0  0  0  0  0  0  0  0  0  0  0  0
   55.6709   28.8833   45.5590 H   0  0  0  0  0  0  0  0  0  0  0  0
   55.1727   26.2796   46.2801 H   0  0  0  0  0  0  0  0  0  0  0  0
   56.6484   24.0429   46.3639 H   0  0  0  0  0  0  0  0  0  0  0  0
   59.1376   24.6904   45.5167 H   0  0  0  0  0  0  0  0  0  0  0  0
   60.2484   27.1474   44.6524 H   0  0  0  0  0  0  0  0  0  0  0  0
   58.4278   31.5114   46.7583 H   0  0  0  0  0  0  0  0  0  0  0  0
   59.9565   30.9700   45.9448 H   0  0  0  0  0  0  0  0  0  0  0  0
   60.5633   31.7652   48.5748 H   0  0  0  0  0  0  0  0  0  0  0  0
   62.8124   31.8519   49.6488 H   0  0  0  0  0  0  0  0  0  0  0  0
   64.6399   33.2068   48.6211 H   0  0  0  0  0  0  0  0  0  0  0  0
   64.2190   34.4752   46.5124 H   0  0  0  0  0  0  0  0  0  0  0  0
   61.9737   34.3956   45.4313 H   0  0  0  0  0  0  0  0  0  0  0  0
  1  2  2  0
  2  3  1  0
  3  4  1  0
  4  5  1  0
  5  6  1  0
  6  7  2  0
  6  8  1  0
  8  9  2  0
  9 10  1  0
 10 11  1  0
 11 12  2  0
 12 13  1  0
 13 14  2  0
 14 15  1  0
 15 16  2  0
  5 17  1  0
 17 18  1  0
 18 19  1  0
 19 20  2  0
 20 21  1  0
 21 22  2  0
 22 23  1  0
 23 24  2  0
 18  2  1  0
 24 19  1  0
 16  8  1  0
 14 10  1  0
  3 25  1  0
  3 26  1  0
  4 27  1  0
  4 28  1  0
  5 29  1  6
  9 30  1  0
 11 31  1  0
 12 32  1  0
 13 33  1  0
 15 34  1  0
 17 35  1  0
 17 36  1  0
 20 37  1  0
 21 38  1  0
 22 39  1  0
 23 40  1  0
 24 41  1  0
M  CHG  1   5   1
M  END
>  <UniqueID>  (38) 
33

>  <SMILES>  (38) 
O=C1CC[N@H+](C(=O)c2cn3cccc3cn2)CN1c1ccccc1

>  <Energy>  (38) 
93.65881925642218

>  <Genealogy>  (38) 
O=C1CC[NH+](C(=O)c2cn3cccc3cn2)CN1c1ccccc1 (protonated)
O=C1CC[N@H+](C(=O)c2cn3cccc3cn2)CN1c1ccccc1 (chirality)
O=C1CC[N@H+](C(=O)c2cn3cccc3cn2)CN1c1ccccc1 (3D coordinates assigned)
O=C1CC[N@H+](C(=O)c2cn3cccc3cn2)CN1c1ccccc1 (nonaromatic ring conformer: 93.65881925642218 kcal/mol)

>  <smiles>  (38) 
O=C(c1cn2cccc2cn1)N1CCC(=O)N(c2ccccc2)C1

>  <score_type>  (38) 
oracle

>  <origin>  (38) 
adg

>  <m_score__min__energy>  (38) 
-6.5

>  <m_primary>  (38) 
energy

$$$$
38:0
     RDKit          3D

 48 50  0  0  0  0  0  0  0  0999 V2000
   63.8290   32.0670   51.4660 C   0  0  0  0  0  0  0  0  0  0  0  0
   63.3000   33.2820   50.9500 O   0  0  0  0  0  0  0  0  0  0  0  0
   62.3620   33.2870   49.9140 C   0  0  0  0  0  0  0  0  0  0  0  0
   62.7860   33.2020   48.5740 C   0  0  0  0  0  0  0  0  0  0  0  0
   64.2450   33.1060   48.2260 C   0  0  0  0  0  0  0  0  0  0  0  0
   61.8370   33.2590   47.5430 C   0  0  0  0  0  0  0  0  0  0  0  0
   60.4650   33.3560   47.8290 C   0  0  0  0  0  0  0  0  0  0  0  0
   59.4650   33.3960   46.7280 C   0  0  0  0  0  0  0  0  0  0  0  0
   58.8680   34.6080   46.3380 C   0  0  0  0  0  0  0  0  0  0  0  0
   57.9450   34.6300   45.3420 N   0  0  0  0  0  0  0  0  0  0  0  0
   57.5630   33.5010   44.6900 C   0  0  0  0  0  0  0  0  0  0  0  0
   58.1200   32.2650   45.0400 C   0  0  0  0  0  0  0  0  0  0  0  0
   57.6780   31.0050   44.3440 C   0  0  0  0  0  0  0  0  0  0  0  0
   56.2230   30.8780   44.3700 N   0  0  0  0  0  0  0  0  0  0  0  0
   55.5270   29.6330   44.2770 C   0  0  0  0  0  0  0  0  0  0  0  0
   54.6680   29.4770   43.3690 O   0  0  0  0  0  0  0  0  0  0  0  0
   55.7620   28.5990   45.2430 N   0  0  0  0  0  0  0  0  0  0  0  0
   57.0310   28.0210   45.5760 C   0  0  0  0  0  0  0  0  0  0  0  0
   57.4730   26.8180   44.9970 C   0  0  0  0  0  0  0  0  0  0  0  0
   58.7340   26.3050   45.3210 C   0  0  0  0  0  0  0  0  0  0  0  0
   59.5640   26.9920   46.2120 C   0  0  0  0  0  0  0  0  0  0  0  0
   61.1450   26.3480   46.6150 Cl  0  0  0  0  0  0  0  0  0  0  0  0
   59.1340   28.1970   46.7770 C   0  0  0  0  0  0  0  0  0  0  0  0
   57.8740   28.7100   46.4560 C   0  0  0  0  0  0  0  0  0  0  0  0
   59.0800   32.2220   46.0600 C   0  0  0  0  0  0  0  0  0  0  0  0
   60.0520   33.4120   49.1710 C   0  0  0  0  0  0  0  0  0  0  0  0
   60.9890   33.3620   50.2140 C   0  0  0  0  0  0  0  0  0  0  0  0
   60.5210   33.4620   51.6400 C   0  0  0  0  0  0  0  0  0  0  0  0
   63.8152   32.0988   52.5655 H   0  0  0  0  0  0  0  0  0  0  0  0
   63.2170   31.2227   51.1158 H   0  0  0  0  0  0  0  0  0  0  0  0
   64.8640   31.9398   51.1158 H   0  0  0  0  0  0  0  0  0  0  0  0
   64.8405   33.0668   49.1500 H   0  0  0  0  0  0  0  0  0  0  0  0
   64.4222   32.1943   47.6366 H   0  0  0  0  0  0  0  0  0  0  0  0
   64.5401   33.9867   47.6366 H   0  0  0  0  0  0  0  0  0  0  0  0
   62.1717   33.2273   46.4956 H   0  0  0  0  0  0  0  0  0  0  0  0
   59.1503   35.5438   46.8426 H   0  0  0  0  0  0  0  0  0  0  0  0
   56.8148   33.5580   43.8857 H   0  0  0  0  0  0  0  0  0  0  0  0
   58.0184   31.0328   43.2984 H   0  0  0  0  0  0  0  0  0  0  0  0
   58.1155   30.1423   44.8678 H   0  0  0  0  0  0  0  0  0  0  0  0
   56.8265   26.2795   44.2884 H   0  0  0  0  0  0  0  0  0  0  0  0
   59.0730   25.3590   44.8736 H   0  0  0  0  0  0  0  0  0  0  0  0
   59.7877   28.7413   47.4744 H   0  0  0  0  0  0  0  0  0  0  0  0
   57.5427   29.6613   46.8978 H   0  0  0  0  0  0  0  0  0  0  0  0
   59.5358   31.2608   46.3398 H   0  0  0  0  0  0  0  0  0  0  0  0
   58.9808   33.4961   49.4066 H   0  0  0  0  0  0  0  0  0  0  0  0
   61.3684   33.2809   52.3176 H   0  0  0  0  0  0  0  0  0  0  0  0
   60.1138   34.4674   51.8226 H   0  0  0  0  0  0  0  0  0  0  0  0
   59.7385   32.7108   51.8226 H   0  0  0  0  0  0  0  0  0  0  0  0
  1  2  1  0
  2  3  1  0
  3  4  2  0
  4  5  1  0
  4  6  1  0
  6  7  2  0
  7  8  1  0
  8  9  2  0
  9 10  1  0
 10 11  2  0
 11 12  1  0
 12 13  1  0
 13 14  1  0
 14 15  1  0
 15 16  2  0
 15 17  1  0
 17 18  1  0
 18 19  2  0
 19 20  1  0
 20 21  2  0
 21 22  1  0
 21 23  1  0
 23 24  2  0
 12 25  2  0
  7 26  1  0
 26 27  2  0
 27 28  1  0
 27  3  1  0
 25  8  1  0
 24 18  1  0
  1 29  1  0
  1 30  1  0
  1 31  1  0
  5 32  1  0
  5 33  1  0
  5 34  1  0
  6 35  1  0
  9 36  1  0
 11 37  1  0
 13 38  1  0
 13 39  1  0
 19 40  1  0
 20 41  1  0
 23 42  1  0
 24 43  1  0
 25 44  1  0
 26 45  1  0
 28 46  1  0
 28 47  1  0
 28 48  1  0
M  CHG  2  14  -1  17  -1
M  END
>  <UniqueID>  (39) 
34

>  <SMILES>  (39) 
COc1c(C)cc(-c2cncc(C[N-]C(=O)[N-]c3ccc(Cl)cc3)c2)cc1C

>  <Energy>  (39) 
61.015003938091915

>  <Genealogy>  (39) 
COc1c(C)cc(-c2cncc(C[N-]C(=O)[N-]c3ccc(Cl)cc3)c2)cc1C (protonated)
COc1c(C)cc(-c2cncc(C[N-]C(=O)[N-]c3ccc(Cl)cc3)c2)cc1C (3D coordinates assigned)
COc1c(C)cc(-c2cncc(C[N-]C(=O)[N-]c3ccc(Cl)cc3)c2)cc1C (optimized conformer: 61.015003938091915 kcal/mol)

>  <smiles>  (39) 
COc1c(C)cc(-c2cncc(CNC(=O)Nc3ccc(Cl)cc3)c2)cc1C

>  <score_type>  (39) 
oracle

>  <origin>  (39) 
adg

>  <m_score__min__energy>  (39) 
-11.56

>  <m_primary>  (39) 
energy

$$$$
39:0
     RDKit          3D

 58 60  0  0  0  0  0  0  0  0999 V2000
   57.0120   24.3150   43.4890 C   0  0  0  0  0  0  0  0  0  0  0  0
   58.0320   23.4570   44.7320 S   0  0  0  0  0  0  0  0  0  0  0  0
   58.5830   24.9630   45.6140 C   0  0  0  0  0  0  0  0  0  0  0  0
   57.4540   25.6090   46.4290 C   0  0  0  0  0  0  0  0  0  0  0  0
   57.7490   27.0660   46.8500 C   0  0  2  0  0  0  0  0  0  0  0  0
   57.9580   27.9660   45.7040 N   0  0  0  0  0  0  0  0  0  0  0  0
   57.7930   29.3970   45.7290 C   0  0  0  0  0  0  0  0  0  0  0  0
   57.8210   30.0150   46.8270 O   0  0  0  0  0  0  0  0  0  0  0  0
   57.6110   30.1670   44.4720 C   0  0  0  0  0  0  0  0  0  0  0  0
   58.3020   31.3800   44.2840 C   0  0  0  0  0  0  0  0  0  0  0  0
   58.1530   32.1040   43.0970 C   0  0  0  0  0  0  0  0  0  0  0  0
   57.3080   31.6370   42.0890 C   0  0  0  0  0  0  0  0  0  0  0  0
   57.1380   32.5390   40.5920 Cl  0  0  0  0  0  0  0  0  0  0  0  0
   56.5950   30.4510   42.2760 C   0  0  0  0  0  0  0  0  0  0  0  0
   56.7380   29.7230   43.4620 C   0  0  0  0  0  0  0  0  0  0  0  0
   58.8980   27.1240   47.8280 C   0  0  0  0  0  0  0  0  0  0  0  0
   59.3890   26.0510   48.2660 O   0  0  0  0  0  0  0  0  0  0  0  0
   59.4630   28.3720   48.2450 N   0  0  0  0  0  0  0  0  0  0  0  0
   58.9760   28.9740   49.4910 C   0  0  0  0  0  0  0  0  0  0  0  0
   59.4120   30.4380   49.6140 C   0  0  0  0  0  0  0  0  0  0  0  0
   59.6770   30.9960   48.2810 N   0  0  0  0  0  0  0  0  0  0  0  0
   59.9070   32.7240   48.3790 S   0  0  0  0  0  0  0  0  0  0  0  0
   59.3370   33.2290   49.6760 O   0  0  0  0  0  0  0  0  0  0  0  0
   61.3810   33.0370   48.3670 O   0  0  0  0  0  0  0  0  0  0  0  0
   59.1260   33.5550   47.0340 C   0  0  0  0  0  0  0  0  0  0  0  0
   59.8830   34.3450   46.1580 C   0  0  0  0  0  0  0  0  0  0  0  0
   59.2690   34.9850   45.0810 C   0  0  0  0  0  0  0  0  0  0  0  0
   57.8920   34.8510   44.8750 C   0  0  0  0  0  0  0  0  0  0  0  0
   57.1330   34.0630   45.7470 C   0  0  0  0  0  0  0  0  0  0  0  0
   57.7470   33.4160   46.8240 C   0  0  0  0  0  0  0  0  0  0  0  0
   60.8730   30.3580   47.7030 C   0  0  0  0  0  0  0  0  0  0  0  0
   60.7140   28.8240   47.6260 C   0  0  0  0  0  0  0  0  0  0  0  0
   56.2655   24.9429   43.9974 H   0  0  0  0  0  0  0  0  0  0  0  0
   57.6556   24.9473   42.8597 H   0  0  0  0  0  0  0  0  0  0  0  0
   56.4993   23.5726   42.8597 H   0  0  0  0  0  0  0  0  0  0  0  0
   59.4019   24.6929   46.2969 H   0  0  0  0  0  0  0  0  0  0  0  0
   58.9121   25.6925   44.8593 H   0  0  0  0  0  0  0  0  0  0  0  0
   56.5379   25.6019   45.8201 H   0  0  0  0  0  0  0  0  0  0  0  0
   57.3474   25.0220   47.3532 H   0  0  0  0  0  0  0  0  0  0  0  0
   56.8480   27.4371   47.3604 H   0  0  0  0  0  0  0  0  0  0  0  0
   58.2580   27.5170   44.8090 H   0  0  0  0  0  0  0  0  0  0  0  0
   58.9634   31.7603   45.0764 H   0  0  0  0  0  0  0  0  0  0  0  0
   58.7041   33.0456   42.9570 H   0  0  0  0  0  0  0  0  0  0  0  0
   55.9187   30.0880   41.4881 H   0  0  0  0  0  0  0  0  0  0  0  0
   56.1634   28.7961   43.6060 H   0  0  0  0  0  0  0  0  0  0  0  0
   57.8772   28.9256   49.5060 H   0  0  0  0  0  0  0  0  0  0  0  0
   59.4036   28.4139   50.3357 H   0  0  0  0  0  0  0  0  0  0  0  0
   58.6123   31.0169   50.0991 H   0  0  0  0  0  0  0  0  0  0  0  0
   60.3299   30.4923   50.2177 H   0  0  0  0  0  0  0  0  0  0  0  0
   60.9648   34.4608   46.3202 H   0  0  0  0  0  0  0  0  0  0  0  0
   59.8696   35.5968   44.3918 H   0  0  0  0  0  0  0  0  0  0  0  0
   57.4077   35.3632   44.0306 H   0  0  0  0  0  0  0  0  0  0  0  0
   56.0507   33.9521   45.5850 H   0  0  0  0  0  0  0  0  0  0  0  0
   57.1470   32.7971   47.5074 H   0  0  0  0  0  0  0  0  0  0  0  0
   61.0336   30.7522   46.6887 H   0  0  0  0  0  0  0  0  0  0  0  0
   61.7324   30.5840   48.3513 H   0  0  0  0  0  0  0  0  0  0  0  0
   60.7186   28.5186   46.5693 H   0  0  0  0  0  0  0  0  0  0  0  0
   61.5506   28.3666   48.1746 H   0  0  0  0  0  0  0  0  0  0  0  0
  1  2  1  0
  2  3  1  0
  3  4  1  0
  4  5  1  0
  5  6  1  0
  6  7  1  0
  7  8  2  0
  7  9  1  0
  9 10  2  0
 10 11  1  0
 11 12  2  0
 12 13  1  0
 12 14  1  0
 14 15  2  0
  5 16  1  0
 16 17  2  0
 16 18  1  0
 18 19  1  0
 19 20  1  0
 20 21  1  0
 21 22  1  0
 22 23  2  0
 22 24  2  0
 22 25  1  0
 25 26  2  0
 26 27  1  0
 27 28  2  0
 28 29  1  0
 29 30  2  0
 21 31  1  0
 31 32  1  0
 15  9  1  0
 32 18  1  0
 30 25  1  0
  1 33  1  0
  1 34  1  0
  1 35  1  0
  3 36  1  0
  3 37  1  0
  4 38  1  0
  4 39  1  0
  5 40  1  1
  6 41  1  0
 10 42  1  0
 11 43  1  0
 14 44  1  0
 15 45  1  0
 19 46  1  0
 19 47  1  0
 20 48  1  0
 20 49  1  0
 26 50  1  0
 27 51  1  0
 28 52  1  0
 29 53  1  0
 30 54  1  0
 31 55  1  0
 31 56  1  0
 32 57  1  0
 32 58  1  0
M  END
>  <UniqueID>  (40) 
35

>  <SMILES>  (40) 
CSCC[C@H](NC(=O)c1ccc(Cl)cc1)C(=O)N1CCN(S(=O)(=O)c2ccccc2)CC1

>  <Energy>  (40) 
60.781741145784395

>  <Genealogy>  (40) 
CSCC[C@H](NC(=O)c1ccc(Cl)cc1)C(=O)N1CCN(S(=O)(=O)c2ccccc2)CC1 (chirality)
CSCC[C@H](NC(=O)c1ccc(Cl)cc1)C(=O)N1CCN(S(=O)(=O)c2ccccc2)CC1 (3D coordinates assigned)
CSCC[C@H](NC(=O)c1ccc(Cl)cc1)C(=O)N1CCN(S(=O)(=O)c2ccccc2)CC1 (nonaromatic ring conformer: 60.781741145784395 kcal/mol)

>  <smiles>  (40) 
CSCCC(NC(=O)c1ccc(Cl)cc1)C(=O)N1CCN(S(=O)(=O)c2ccccc2)CC1

>  <score_type>  (40) 
oracle

>  <origin>  (40) 
adg

>  <m_score__min__energy>  (40) 
-9.5899999999999999

>  <m_primary>  (40) 
energy

$$$$
40:0
     RDKit          3D

 51 55  0  0  0  0  0  0  0  0999 V2000
   57.0130   33.5780   46.7730 C   0  0  0  0  0  0  0  0  0  0  0  0
   57.0170   33.8610   45.2960 C   0  0  0  0  0  0  0  0  0  0  0  0
   56.6400   34.9590   44.9100 O   0  0  0  0  0  0  0  0  0  0  0  0
   57.4180   32.8290   44.2700 C   0  0  0  0  0  0  0  0  0  0  0  0
   58.0130   31.6390   44.8940 N   0  0  0  0  0  0  0  0  0  0  0  0
   57.5980   30.3420   44.8110 C   0  0  0  0  0  0  0  0  0  0  0  0
   56.4110   29.8930   44.1380 N   0  0  0  0  0  0  0  0  0  0  0  0
   56.2640   30.0710   42.9110 O   0  0  0  0  0  0  0  0  0  0  0  0
   55.3600   29.3800   44.8640 O   0  0  0  0  0  0  0  0  0  0  0  0
   58.4620   29.5180   45.5230 C   0  0  0  0  0  0  0  0  0  0  0  0
   58.3080   28.1140   45.7600 N   0  0  0  0  0  0  0  0  0  0  0  0
   58.9440   27.5280   46.9420 C   0  0  0  0  0  0  0  0  0  0  0  0
   58.1020   26.3700   47.4670 C   0  0  0  0  0  0  0  0  0  0  0  0
   57.8380   25.3800   46.3690 C   0  0  0  0  0  0  0  0  0  0  0  0
   57.6880   24.0160   46.6750 C   0  0  0  0  0  0  0  0  0  0  0  0
   57.4120   23.0910   45.6640 C   0  0  0  0  0  0  0  0  0  0  0  0
   57.2640   23.5210   44.3430 C   0  0  0  0  0  0  0  0  0  0  0  0
   57.3950   24.8760   44.0300 C   0  0  0  0  0  0  0  0  0  0  0  0
   57.6860   25.8150   45.0340 C   0  0  0  0  0  0  0  0  0  0  0  0
   57.8170   27.2740   44.6580 C   0  0  0  0  0  0  0  0  0  0  0  0
   59.4090   30.3410   46.0890 C   0  0  0  0  0  0  0  0  0  0  0  0
   60.4610   30.0570   46.9550 C   0  0  0  0  0  0  0  0  0  0  0  0
   61.2560   31.1300   47.4050 C   0  0  0  0  0  0  0  0  0  0  0  0
   62.3320   30.9020   48.2760 C   0  0  0  0  0  0  0  0  0  0  0  0
   63.1160   31.9700   48.7200 C   0  0  0  0  0  0  0  0  0  0  0  0
   62.8360   33.2740   48.3000 C   0  0  0  0  0  0  0  0  0  0  0  0
   61.7670   33.5230   47.4340 C   0  0  0  0  0  0  0  0  0  0  0  0
   60.9670   32.4640   46.9770 C   0  0  0  0  0  0  0  0  0  0  0  0
   59.8810   32.7100   46.1110 C   0  0  0  0  0  0  0  0  0  0  0  0
   59.1140   31.6210   45.6840 C   0  0  0  0  0  0  0  0  0  0  0  0
   57.0264   34.5275   47.3283 H   0  0  0  0  0  0  0  0  0  0  0  0
   56.1068   33.0125   47.0355 H   0  0  0  0  0  0  0  0  0  0  0  0
   57.9029   32.9871   47.0355 H   0  0  0  0  0  0  0  0  0  0  0  0
   56.5254   32.5250   43.7036 H   0  0  0  0  0  0  0  0  0  0  0  0
   58.1722   33.2806   43.6087 H   0  0  0  0  0  0  0  0  0  0  0  0
   59.9441   27.1581   46.6719 H   0  0  0  0  0  0  0  0  0  0  0  0
   59.0293   28.2964   47.7245 H   0  0  0  0  0  0  0  0  0  0  0  0
   58.6417   25.8700   48.2848 H   0  0  0  0  0  0  0  0  0  0  0  0
   57.1423   26.7623   47.8345 H   0  0  0  0  0  0  0  0  0  0  0  0
   57.7884   23.6748   47.7159 H   0  0  0  0  0  0  0  0  0  0  0  0
   57.3112   22.0233   45.9088 H   0  0  0  0  0  0  0  0  0  0  0  0
   57.0442   22.7921   43.5490 H   0  0  0  0  0  0  0  0  0  0  0  0
   57.2694   25.2105   42.9896 H   0  0  0  0  0  0  0  0  0  0  0  0
   58.5197   27.3563   43.8158 H   0  0  0  0  0  0  0  0  0  0  0  0
   56.8120   27.6352   44.3943 H   0  0  0  0  0  0  0  0  0  0  0  0
   60.6657   29.0258   47.2785 H   0  0  0  0  0  0  0  0  0  0  0  0
   62.5592   29.8790   48.6105 H   0  0  0  0  0  0  0  0  0  0  0  0
   63.9577   31.7840   49.4034 H   0  0  0  0  0  0  0  0  0  0  0  0
   63.4601   34.1083   48.6528 H   0  0  0  0  0  0  0  0  0  0  0  0
   61.5522   34.5520   47.1098 H   0  0  0  0  0  0  0  0  0  0  0  0
   59.6435   33.7318   45.7801 H   0  0  0  0  0  0  0  0  0  0  0  0
  1  2  1  0
  2  3  2  0
  2  4  1  0
  4  5  1  0
  5  6  1  0
  6  7  1  0
  7  8  2  0
  7  9  1  0
  6 10  2  0
 10 11  1  0
 11 12  1  0
 12 13  1  0
 13 14  1  0
 14 15  2  0
 15 16  1  0
 16 17  2  0
 17 18  1  0
 18 19  2  0
 19 20  1  0
 10 21  1  0
 21 22  2  0
 22 23  1  0
 23 24  2  0
 24 25  1  0
 25 26  2  0
 26 27  1  0
 27 28  2  0
 28 29  1  0
 29 30  2  0
 30  5  1  0
 20 11  1  0
 30 21  1  0
 19 14  1  0
 28 23  1  0
  1 31  1  0
  1 32  1  0
  1 33  1  0
  4 34  1  0
  4 35  1  0
 12 36  1  0
 12 37  1  0
 13 38  1  0
 13 39  1  0
 15 40  1  0
 16 41  1  0
 17 42  1  0
 18 43  1  0
 20 44  1  0
 20 45  1  0
 22 46  1  0
 24 47  1  0
 25 48  1  0
 26 49  1  0
 27 50  1  0
 29 51  1  0
M  CHG  2   7   1   9  -1
M  END
>  <UniqueID>  (41) 
36

>  <SMILES>  (41) 
CC(=O)Cn1c([N+](=O)[O-])c(N2CCc3ccccc3C2)c2cc3ccccc3cc21

>  <Energy>  (41) 
101.98460377226819

>  <Genealogy>  (41) 
CC(=O)Cn1c([N+](=O)[O-])c(N2CCc3ccccc3C2)c2cc3ccccc3cc21 (3D coordinates assigned)
CC(=O)Cn1c([N+](=O)[O-])c(N2CCc3ccccc3C2)c2cc3ccccc3cc21 (nonaromatic ring conformer: 101.98460377226819 kcal/mol)

>  <smiles>  (41) 
CC(=O)Cn1c([N+](=O)[O-])c(N2CCc3ccccc3C2)c2cc3ccccc3cc21

>  <score_type>  (41) 
oracle

>  <origin>  (41) 
adg

>  <m_score__min__energy>  (41) 
-9.3300000000000001

>  <m_primary>  (41) 
energy

$$$$
41:0
     RDKit          3D

 44 46  0  0  0  0  0  0  0  0999 V2000
   60.4250   27.7910   46.4920 C   0  0  0  0  0  0  0  0  0  0  0  0
   59.4820   28.6650   45.7340 C   0  0  0  0  0  0  0  0  0  0  0  0
   59.1240   29.9510   46.0900 C   0  0  0  0  0  0  0  0  0  0  0  0
   58.1690   30.3530   45.1720 C   0  0  0  0  0  0  0  0  0  0  0  0
   57.4500   31.6420   45.1870 C   0  0  0  0  0  0  0  0  0  0  0  0
   56.2340   31.6850   44.8560 O   0  0  0  0  0  0  0  0  0  0  0  0
   58.1090   32.8450   45.6090 N   0  0  0  0  0  0  0  0  0  0  0  0
   58.6670   33.7560   44.5980 C   0  0  0  0  0  0  0  0  0  0  0  0
   59.3000   34.9920   45.2480 C   0  0  0  0  0  0  0  0  0  0  0  0
   60.1620   34.5670   46.4400 C   0  0  0  0  0  0  0  0  0  0  0  0
   59.3500   33.8090   47.5310 C   0  0  2  0  0  0  0  0  0  0  0  0
   60.1740   32.6560   48.1460 C   0  0  0  0  0  0  0  0  0  0  0  0
   61.6500   32.8720   47.9780 C   0  0  0  0  0  0  0  0  0  0  0  0
   62.4140   33.8340   48.6090 C   0  0  0  0  0  0  0  0  0  0  0  0
   63.6950   33.6880   48.1150 C   0  0  0  0  0  0  0  0  0  0  0  0
   63.7330   32.6880   47.2150 N   0  0  0  0  0  0  0  0  0  0  0  0
   62.4880   32.1860   47.1210 C   0  0  0  0  0  0  0  0  0  0  0  0
   57.9920   33.2840   47.0040 C   0  0  0  0  0  0  0  0  0  0  0  0
   57.9800   29.2830   44.3070 C   0  0  0  0  0  0  0  0  0  0  0  0
   57.0100   29.2180   43.1690 C   0  0  0  0  0  0  0  0  0  0  0  0
   58.7770   28.2570   44.6620 N   0  0  0  0  0  0  0  0  0  0  0  0
   60.2704   27.9343   47.5716 H   0  0  0  0  0  0  0  0  0  0  0  0
   60.2393   26.7385   46.2315 H   0  0  0  0  0  0  0  0  0  0  0  0
   61.4603   28.0560   46.2315 H   0  0  0  0  0  0  0  0  0  0  0  0
   59.5184   30.5373   46.9330 H   0  0  0  0  0  0  0  0  0  0  0  0
   59.4358   33.2220   44.0203 H   0  0  0  0  0  0  0  0  0  0  0  0
   57.8486   34.0898   43.9431 H   0  0  0  0  0  0  0  0  0  0  0  0
   59.9285   35.5115   44.5096 H   0  0  0  0  0  0  0  0  0  0  0  0
   58.5043   35.6664   45.5973 H   0  0  0  0  0  0  0  0  0  0  0  0
   60.9638   33.9073   46.0766 H   0  0  0  0  0  0  0  0  0  0  0  0
   60.5639   35.4812   46.9012 H   0  0  0  0  0  0  0  0  0  0  0  0
   59.1317   34.5436   48.3201 H   0  0  0  0  0  0  0  0  0  0  0  0
   59.9444   32.5879   49.2196 H   0  0  0  0  0  0  0  0  0  0  0  0
   59.9035   31.7267   47.6232 H   0  0  0  0  0  0  0  0  0  0  0  0
   62.0715   34.5675   49.3538 H   0  0  0  0  0  0  0  0  0  0  0  0
   64.5589   34.3000   48.4136 H   0  0  0  0  0  0  0  0  0  0  0  0
   64.5710   32.3670   46.6810 H   0  0  0  0  0  0  0  0  0  0  0  0
   62.1848   31.3578   46.4636 H   0  0  0  0  0  0  0  0  0  0  0  0
   57.6688   32.4344   47.6235 H   0  0  0  0  0  0  0  0  0  0  0  0
   57.2547   34.0986   47.0566 H   0  0  0  0  0  0  0  0  0  0  0  0
   55.9856   29.1494   43.5638 H   0  0  0  0  0  0  0  0  0  0  0  0
   57.1057   30.1246   42.5534 H   0  0  0  0  0  0  0  0  0  0  0  0
   57.2258   28.3323   42.5534 H   0  0  0  0  0  0  0  0  0  0  0  0
   58.8260   27.3190   44.2060 H   0  0  0  0  0  0  0  0  0  0  0  0
  1  2  1  0
  2  3  2  0
  3  4  1  0
  4  5  1  0
  5  6  2  0
  5  7  1  0
  7  8  1  0
  8  9  1  0
  9 10  1  0
 10 11  1  0
 11 12  1  0
 12 13  1  0
 13 14  1  0
 14 15  2  0
 15 16  1  0
 16 17  1  0
 11 18  1  0
  4 19  2  0
 19 20  1  0
 19 21  1  0
 21  2  1  0
 18  7  1  0
 17 13  2  0
  1 22  1  0
  1 23  1  0
  1 24  1  0
  3 25  1  0
  8 26  1  0
  8 27  1  0
  9 28  1  0
  9 29  1  0
 10 30  1  0
 10 31  1  0
 11 32  1  1
 12 33  1  0
 12 34  1  0
 14 35  1  0
 15 36  1  0
 16 37  1  0
 17 38  1  0
 18 39  1  0
 18 40  1  0
 20 41  1  0
 20 42  1  0
 20 43  1  0
 21 44  1  0
M  END
>  <UniqueID>  (42) 
37

>  <SMILES>  (42) 
Cc1cc(C(=O)N2CCC[C@H](Cc3cc[nH]c3)C2)c(C)[nH]1

>  <Energy>  (42) 
96.41587798642922

>  <Genealogy>  (42) 
Cc1cc(C(=O)N2CCC[C@H](Cc3cc[nH]c3)C2)c(C)[nH]1 (chirality)
Cc1cc(C(=O)N2CCC[C@H](Cc3cc[nH]c3)C2)c(C)[nH]1 (3D coordinates assigned)
Cc1cc(C(=O)N2CCC[C@H](Cc3cc[nH]c3)C2)c(C)[nH]1 (nonaromatic ring conformer: 96.41587798642922 kcal/mol)

>  <smiles>  (42) 
Cc1cc(C(=O)N2CCCC(Cc3cc[nH]c3)C2)c(C)[nH]1

>  <score_type>  (42) 
oracle

>  <origin>  (42) 
adg

>  <m_score__min__energy>  (42) 
-7.9500000000000002

>  <m_primary>  (42) 
energy

$$$$
42:0
     RDKit          3D

 33 34  0  0  0  0  0  0  0  0999 V2000
   59.9897   26.1321   47.3630 H   0  0  0  0  0  0  0  0  0  0  0  0
   59.0470   26.4170   46.8730 C   0  0  0  0  0  0  0  0  0  0  0  0
   58.9940   27.5680   46.0820 C   0  0  0  0  0  0  0  0  0  0  0  0
   59.8976   28.1791   45.9405 H   0  0  0  0  0  0  0  0  0  0  0  0
   57.7880   27.9460   45.4670 C   0  0  0  0  0  0  0  0  0  0  0  0
   57.6910   29.1080   44.6290 N   0  0  0  0  0  0  0  0  0  0  0  0
   56.6650   30.1100   44.6620 C   0  0  0  0  0  0  0  0  0  0  0  0
   55.4530   29.7890   44.5390 O   0  0  0  0  0  0  0  0  0  0  0  0
   56.9940   31.4860   44.8920 N   0  0  0  0  0  0  0  0  0  0  0  0
   58.0550   31.9780   45.4710 C   0  0  0  0  0  0  0  0  0  0  0  0
   58.2860   33.3570   45.3750 C   0  0  0  0  0  0  0  0  0  0  0  0
   57.5779   33.9964   44.8274 H   0  0  0  0  0  0  0  0  0  0  0  0
   59.4180   33.9210   45.9760 C   0  0  0  0  0  0  0  0  0  0  0  0
   59.6430   35.4030   45.9250 C   0  0  0  0  0  0  0  0  0  0  0  0
   59.7033   35.8002   46.9490 H   0  0  0  0  0  0  0  0  0  0  0  0
   60.5833   35.6131   45.3943 H   0  0  0  0  0  0  0  0  0  0  0  0
   58.8074   35.8827   45.3943 H   0  0  0  0  0  0  0  0  0  0  0  0
   60.2980   33.0960   46.6830 C   0  0  0  0  0  0  0  0  0  0  0  0
   61.1730   33.5264   47.1920 H   0  0  0  0  0  0  0  0  0  0  0  0
   60.0580   31.7230   46.7380 C   0  0  0  0  0  0  0  0  0  0  0  0
   60.7592   31.0671   47.2748 H   0  0  0  0  0  0  0  0  0  0  0  0
   58.9620   31.1890   46.1320 N   0  0  0  0  0  0  0  0  0  0  0  0
   58.8710   30.1520   46.1570 H   0  0  0  0  0  0  0  0  0  0  0  0
   56.6560   27.1360   45.6230 C   0  0  0  0  0  0  0  0  0  0  0  0
   55.7184   27.4106   45.1176 H   0  0  0  0  0  0  0  0  0  0  0  0
   56.7020   25.9810   46.4140 C   0  0  0  0  0  0  0  0  0  0  0  0
   55.5310   25.2170   46.5440 O   0  0  0  0  0  0  0  0  0  0  0  0
   54.9680   24.4260   45.5020 C   0  0  0  0  0  0  0  0  0  0  0  0
   54.3831   23.6042   45.9407 H   0  0  0  0  0  0  0  0  0  0  0  0
   54.3113   25.0523   44.8802 H   0  0  0  0  0  0  0  0  0  0  0  0
   55.7748   24.0106   44.8802 H   0  0  0  0  0  0  0  0  0  0  0  0
   57.9080   25.6270   47.0440 C   0  0  0  0  0  0  0  0  0  0  0  0
   57.9546   24.7258   47.6730 H   0  0  0  0  0  0  0  0  0  0  0  0
  1  2  1  0
  2  3  2  0
  3  4  1  0
  3  5  1  0
  5  6  1  0
  6  7  1  0
  7  8  2  0
  7  9  1  0
  9 10  2  0
 10 11  1  0
 11 12  1  0
 11 13  2  0
 13 14  1  0
 14 15  1  0
 14 16  1  0
 14 17  1  0
 13 18  1  0
 18 19  1  0
 18 20  2  0
 20 21  1  0
 20 22  1  0
 22 23  1  0
  5 24  2  0
 24 25  1  0
 24 26  1  0
 26 27  1  0
 27 28  1  0
 28 29  1  0
 28 30  1  0
 28 31  1  0
 26 32  2  0
 32 33  1  0
 32  2  1  0
 22 10  1  0
M  CHG  1   6  -1
M  END
>  <UniqueID>  (43) 
38

>  <SMILES>  (43) 
COc1cccc([N-]C(=O)/N=c2/cc(C)cc[nH]2)c1

>  <Energy>  (43) 
43.17097337010839

>  <Genealogy>  (43) 
COc1cccc([N-]C(=O)N=c2cc(C)cc[nH]2)c1 (protonated)
COc1cccc([N-]C(=O)/N=c2/cc(C)cc[nH]2)c1 (cis-trans isomerization)
COc1cccc([N-]C(=O)/N=c2/cc(C)cc[nH]2)c1 (3D coordinates assigned)
COc1cccc([N-]C(=O)/N=c2/cc(C)cc[nH]2)c1 (optimized conformer: 43.17097337010839 kcal/mol)

>  <smiles>  (43) 
COc1cccc(NC(=O)N=c2cc(C)cc[nH]2)c1

>  <score_type>  (43) 
oracle

>  <origin>  (43) 
adg

>  <m_score__min__energy>  (43) 
-8.1699999999999999

>  <m_primary>  (43) 
energy

$$$$
43:0
     RDKit          3D

 59 61  0  0  0  0  0  0  0  0999 V2000
   58.5910   27.0010   48.1120 H   0  0  0  0  0  0  0  0  0  0  0  0
   58.6250   28.0360   48.0340 N   0  0  0  0  0  0  0  0  0  0  0  0
   58.3780   28.7470   46.9740 C   0  0  0  0  0  0  0  0  0  0  0  0
   57.8240   28.1420   45.8110 C   0  0  0  0  0  0  0  0  0  0  0  0
   57.4310   26.4070   45.6570 S   0  0  0  0  0  0  0  0  0  0  0  0
   58.2420   25.6430   46.6660 O   0  0  0  0  0  0  0  0  0  0  0  0
   57.7930   25.8650   44.3020 O   0  0  0  0  0  0  0  0  0  0  0  0
   55.7510   26.1220   46.0040 N   0  0  0  0  0  0  0  0  0  0  0  0
   55.5290   24.7270   46.3730 C   0  0  0  0  0  0  0  0  0  0  0  0
   56.0479   24.5091   47.3181 H   0  0  0  0  0  0  0  0  0  0  0  0
   54.4517   24.5447   46.5003 H   0  0  0  0  0  0  0  0  0  0  0  0
   56.0670   23.8390   45.2880 C   0  0  0  0  0  0  0  0  0  0  0  0
   57.1650   22.9980   45.5350 C   0  0  0  0  0  0  0  0  0  0  0  0
   57.6511   23.0068   46.5217 H   0  0  0  0  0  0  0  0  0  0  0  0
   57.6420   22.1500   44.5310 C   0  0  0  0  0  0  0  0  0  0  0  0
   58.5066   21.4987   44.7267 H   0  0  0  0  0  0  0  0  0  0  0  0
   57.0210   22.1290   43.2780 C   0  0  0  0  0  0  0  0  0  0  0  0
   57.3993   21.4639   42.4878 H   0  0  0  0  0  0  0  0  0  0  0  0
   55.9200   22.9530   43.0300 C   0  0  0  0  0  0  0  0  0  0  0  0
   55.4315   22.9342   42.0446 H   0  0  0  0  0  0  0  0  0  0  0  0
   55.4380   23.8010   44.0310 C   0  0  0  0  0  0  0  0  0  0  0  0
   54.5645   24.4402   43.8350 H   0  0  0  0  0  0  0  0  0  0  0  0
   57.5690   28.9410   44.6990 C   0  0  0  0  0  0  0  0  0  0  0  0
   57.1997   28.4778   43.7722 H   0  0  0  0  0  0  0  0  0  0  0  0
   57.7740   30.3130   44.7430 C   0  0  0  0  0  0  0  0  0  0  0  0
   57.4450   31.0990   43.6280 C   0  0  0  0  0  0  0  0  0  0  0  0
   57.0514   30.6199   42.7194 H   0  0  0  0  0  0  0  0  0  0  0  0
   57.6130   32.4810   43.6630 C   0  0  0  0  0  0  0  0  0  0  0  0
   57.3503   33.0887   42.7845 H   0  0  0  0  0  0  0  0  0  0  0  0
   58.1150   33.0970   44.8130 C   0  0  0  0  0  0  0  0  0  0  0  0
   58.2510   34.5910   44.8710 C   0  0  0  0  0  0  0  0  0  0  0  0
   58.2806   34.9160   45.9215 H   0  0  0  0  0  0  0  0  0  0  0  0
   59.1805   34.8944   44.3670 H   0  0  0  0  0  0  0  0  0  0  0  0
   57.3916   35.0573   44.3670 H   0  0  0  0  0  0  0  0  0  0  0  0
   58.4340   32.3200   45.9350 C   0  0  0  0  0  0  0  0  0  0  0  0
   58.7969   32.8150   46.8479 H   0  0  0  0  0  0  0  0  0  0  0  0
   58.2980   30.9050   45.9170 C   0  0  0  0  0  0  0  0  0  0  0  0
   58.6580   30.1050   46.9910 N   0  0  0  0  0  0  0  0  0  0  0  0
   59.3660   30.6900   48.1640 C   0  0  0  0  0  0  0  0  0  0  0  0
   58.7891   31.5540   48.5254 H   0  0  0  0  0  0  0  0  0  0  0  0
   59.4466   29.8997   48.9249 H   0  0  0  0  0  0  0  0  0  0  0  0
   60.8100   31.1630   47.8340 C   0  0  0  0  0  0  0  0  0  0  0  0
   61.5073   30.5844   48.4578 H   0  0  0  0  0  0  0  0  0  0  0  0
   60.9424   31.0001   46.7542 H   0  0  0  0  0  0  0  0  0  0  0  0
   61.0770   32.6030   48.0650 N   0  0  0  0  0  0  0  0  0  0  0  0
   59.9830   33.3140   48.7640 C   0  0  0  0  0  0  0  0  0  0  0  0
   59.0855   32.6782   48.7806 H   0  0  0  0  0  0  0  0  0  0  0  0
   60.2948   33.5395   49.7945 H   0  0  0  0  0  0  0  0  0  0  0  0
   59.6690   34.6140   48.0360 C   0  0  0  0  0  0  0  0  0  0  0  0
   59.4770   35.4090   48.7716 H   0  0  0  0  0  0  0  0  0  0  0  0
   60.5246   34.8969   47.4053 H   0  0  0  0  0  0  0  0  0  0  0  0
   58.7786   34.4752   47.4053 H   0  0  0  0  0  0  0  0  0  0  0  0
   61.6090   33.3130   46.8830 C   0  0  0  0  0  0  0  0  0  0  0  0
   61.4031   32.7172   45.9815 H   0  0  0  0  0  0  0  0  0  0  0  0
   61.1200   34.2958   46.8124 H   0  0  0  0  0  0  0  0  0  0  0  0
   63.1150   33.5240   47.0100 C   0  0  0  0  0  0  0  0  0  0  0  0
   63.3914   33.5627   48.0740 H   0  0  0  0  0  0  0  0  0  0  0  0
   63.6442   32.6912   46.5238 H   0  0  0  0  0  0  0  0  0  0  0  0
   63.3950   34.4701   46.5238 H   0  0  0  0  0  0  0  0  0  0  0  0
  1  2  1  0
  2  3  2  0
  3  4  1  0
  4  5  1  0
  5  6  2  0
  5  7  2  0
  5  8  1  0
  8  9  1  0
  9 10  1  0
  9 11  1  0
  9 12  1  0
 12 13  2  0
 13 14  1  0
 13 15  1  0
 15 16  1  0
 15 17  2  0
 17 18  1  0
 17 19  1  0
 19 20  1  0
 19 21  2  0
 21 22  1  0
  4 23  2  0
 23 24  1  0
 23 25  1  0
 25 26  2  0
 26 27  1  0
 26 28  1  0
 28 29  1  0
 28 30  2  0
 30 31  1  0
 31 32  1  0
 31 33  1  0
 31 34  1  0
 30 35  1  0
 35 36  1  0
 35 37  2  0
 37 38  1  0
 38 39  1  0
 39 40  1  0
 39 41  1  0
 39 42  1  0
 42 43  1  0
 42 44  1  0
 42 45  1  0
 45 46  1  0
 46 47  1  0
 46 48  1  0
 46 49  1  0
 49 50  1  0
 49 51  1  0
 49 52  1  0
 45 53  1  0
 53 54  1  0
 53 55  1  0
 53 56  1  0
 56 57  1  0
 56 58  1  0
 56 59  1  0
 38  3  1  0
 21 12  1  0
 37 25  1  0
M  CHG  1   8  -1
M  END
>  <UniqueID>  (44) 
39

>  <SMILES>  (44) 
[H]/N=c1\c(S(=O)(=O)[N-]Cc2ccccc2)cc2ccc(C)cc2n1CCN(CC)CC

>  <Energy>  (44) 
76.10351556516176

>  <Genealogy>  (44) 
CCN(CC)CCn1c(=N)c(S(=O)(=O)[N-]Cc2ccccc2)cc2ccc(C)cc21 (protonated)
[H]/N=c1\c(S(=O)(=O)[N-]Cc2ccccc2)cc2ccc(C)cc2n1CCN(CC)CC (cis-trans isomerization)
[H]/N=c1\c(S(=O)(=O)[N-]Cc2ccccc2)cc2ccc(C)cc2n1CCN(CC)CC (3D coordinates assigned)
[H]/N=c1\c(S(=O)(=O)[N-]Cc2ccccc2)cc2ccc(C)cc2n1CCN(CC)CC (optimized conformer: 76.10351556516176 kcal/mol)

>  <smiles>  (44) 
CCN(CC)CCn1c(=N)c(S(=O)(=O)NCc2ccccc2)cc2ccc(C)cc21

>  <score_type>  (44) 
oracle

>  <origin>  (44) 
adg

>  <m_score__min__energy>  (44) 
-9.7400000000000002

>  <m_primary>  (44) 
energy

$$$$
44:0
     RDKit          3D

 24 25  0  0  0  0  0  0  0  0999 V2000
   58.3250   33.0870   42.6980 O   0  0  0  0  0  0  0  0  0  0  0  0
   58.4870   32.5320   43.8160 C   0  0  0  0  0  0  0  0  0  0  0  0
   58.4960   31.0970   43.8750 N   0  0  0  0  0  0  0  0  0  0  0  0
   57.5270   30.3220   44.2760 C   0  0  0  0  0  0  0  0  0  0  0  0
   56.1760   30.5540   43.9400 C   0  0  0  0  0  0  0  0  0  0  0  0
   55.1910   29.6760   44.4010 C   0  0  0  0  0  0  0  0  0  0  0  0
   55.5340   28.6000   45.1570 N   0  0  0  0  0  0  0  0  0  0  0  0
   56.8270   28.3430   45.4830 C   0  0  0  0  0  0  0  0  0  0  0  0
   57.8440   29.1940   45.0450 C   0  0  0  0  0  0  0  0  0  0  0  0
   58.7430   33.3650   45.0180 C   0  0  0  0  0  0  0  0  0  0  0  0
   59.3950   34.6060   44.8940 C   0  0  0  0  0  0  0  0  0  0  0  0
   59.6400   35.3920   46.0240 C   0  0  0  0  0  0  0  0  0  0  0  0
   59.2430   34.9480   47.2880 C   0  0  0  0  0  0  0  0  0  0  0  0
   58.6040   33.7130   47.4230 C   0  0  0  0  0  0  0  0  0  0  0  0
   58.3570   32.9230   46.2970 C   0  0  0  0  0  0  0  0  0  0  0  0
   55.9002   31.4196   43.3198 H   0  0  0  0  0  0  0  0  0  0  0  0
   54.1351   29.8565   44.1512 H   0  0  0  0  0  0  0  0  0  0  0  0
   57.0740   27.4621   46.0937 H   0  0  0  0  0  0  0  0  0  0  0  0
   58.8916   28.9794   45.3030 H   0  0  0  0  0  0  0  0  0  0  0  0
   59.7137   34.9596   43.9023 H   0  0  0  0  0  0  0  0  0  0  0  0
   60.1467   36.3626   45.9177 H   0  0  0  0  0  0  0  0  0  0  0  0
   59.4333   35.5698   48.1752 H   0  0  0  0  0  0  0  0  0  0  0  0
   58.2945   33.3615   48.4183 H   0  0  0  0  0  0  0  0  0  0  0  0
   57.8577   31.9495   46.4112 H   0  0  0  0  0  0  0  0  0  0  0  0
  1  2  2  0
  2  3  1  0
  3  4  2  3
  4  5  1  0
  5  6  2  0
  6  7  1  0
  7  8  1  0
  8  9  2  0
  2 10  1  0
 10 11  2  0
 11 12  1  0
 12 13  2  0
 13 14  1  0
 14 15  2  0
  9  4  1  0
 15 10  1  0
  5 16  1  0
  6 17  1  0
  8 18  1  0
  9 19  1  0
 11 20  1  0
 12 21  1  0
 13 22  1  0
 14 23  1  0
 15 24  1  0
M  CHG  1   7  -1
M  END
>  <UniqueID>  (45) 
40

>  <SMILES>  (45) 
O=C(N=c1cc[n-]cc1)c1ccccc1

>  <Energy>  (45) 
36.3683823390835

>  <Genealogy>  (45) 
O=C(N=c1cc[n-]cc1)c1ccccc1 (protonated)
O=C(N=c1cc[n-]cc1)c1ccccc1 (3D coordinates assigned)
O=C(N=c1cc[n-]cc1)c1ccccc1 (optimized conformer: 36.3683823390835 kcal/mol)

>  <smiles>  (45) 
O=C(N=c1cc[nH]cc1)c1ccccc1

>  <score_type>  (45) 
oracle

>  <origin>  (45) 
adg

>  <m_score__min__energy>  (45) 
-7.7400000000000002

>  <m_primary>  (45) 
energy

$$$$
45:0
     RDKit          3D

 36 38  0  0  0  0  0  0  0  0999 V2000
   54.1778   29.9121   43.8517 H   0  0  0  0  0  0  0  0  0  0  0  0
   55.1960   29.7700   44.2430 C   0  0  0  0  0  0  0  0  0  0  0  0
   55.5210   28.6180   44.8770 N   0  0  0  0  0  0  0  0  0  0  0  0
   56.7770   28.3800   45.3330 C   0  0  0  0  0  0  0  0  0  0  0  0
   57.0620   27.1420   45.9200 C   0  0  0  0  0  0  0  0  0  0  0  0
   56.2521   26.4174   46.0901 H   0  0  0  0  0  0  0  0  0  0  0  0
   58.3670   26.8230   46.2900 C   0  0  0  0  0  0  0  0  0  0  0  0
   58.5814   25.8612   46.7788 H   0  0  0  0  0  0  0  0  0  0  0  0
   59.4000   27.7240   46.0400 C   0  0  0  0  0  0  0  0  0  0  0  0
   60.4348   27.4548   46.2982 H   0  0  0  0  0  0  0  0  0  0  0  0
   59.1290   28.9680   45.4630 C   0  0  0  0  0  0  0  0  0  0  0  0
   59.9582   29.6539   45.2349 H   0  0  0  0  0  0  0  0  0  0  0  0
   57.8000   29.3550   45.1690 C   0  0  0  0  0  0  0  0  0  0  0  0
   57.4360   30.6240   44.6150 C   0  0  0  0  0  0  0  0  0  0  0  0
   58.1980   31.6880   44.5940 N   0  0  0  0  0  0  0  0  0  0  0  0
   58.7400   32.4570   45.6760 C   0  0  0  0  0  0  0  0  0  0  0  0
   59.3800   33.6830   45.4370 C   0  0  0  0  0  0  0  0  0  0  0  0
   59.4317   34.0837   44.4139 H   0  0  0  0  0  0  0  0  0  0  0  0
   59.9520   34.3970   46.4940 C   0  0  0  0  0  0  0  0  0  0  0  0
   60.4314   35.3682   46.3017 H   0  0  0  0  0  0  0  0  0  0  0  0
   59.9180   33.8800   47.8040 C   0  0  0  0  0  0  0  0  0  0  0  0
   60.4960   34.5900   48.9160 N   0  0  0  0  0  0  0  0  0  0  0  0
   59.9230   35.3360   49.3730 H   0  0  0  0  0  0  0  0  0  0  0  0
   61.8410   34.3200   49.4270 C   0  0  0  0  0  0  0  0  0  0  0  0
   61.7733   33.5937   50.2503 H   0  0  0  0  0  0  0  0  0  0  0  0
   62.2767   35.2661   49.7806 H   0  0  0  0  0  0  0  0  0  0  0  0
   62.7410   33.7510   48.3330 C   0  0  0  0  0  0  0  0  0  0  0  0
   63.5853   33.2172   48.7936 H   0  0  0  0  0  0  0  0  0  0  0  0
   62.1631   33.0538   47.7086 H   0  0  0  0  0  0  0  0  0  0  0  0
   63.1230   34.5721   47.7086 H   0  0  0  0  0  0  0  0  0  0  0  0
   59.3100   32.6320   48.0260 C   0  0  0  0  0  0  0  0  0  0  0  0
   59.2850   32.2106   49.0418 H   0  0  0  0  0  0  0  0  0  0  0  0
   58.7370   31.9220   46.9670 C   0  0  0  0  0  0  0  0  0  0  0  0
   58.2816   30.9377   47.1507 H   0  0  0  0  0  0  0  0  0  0  0  0
   56.1470   30.7750   44.0850 C   0  0  0  0  0  0  0  0  0  0  0  0
   55.8848   31.6940   43.5403 H   0  0  0  0  0  0  0  0  0  0  0  0
  1  2  1  0
  2  3  1  0
  3  4  1  0
  4  5  2  0
  5  6  1  0
  5  7  1  0
  7  8  1  0
  7  9  2  0
  9 10  1  0
  9 11  1  0
 11 12  1  0
 11 13  2  0
 13 14  1  0
 14 15  2  0
 15 16  1  0
 16 17  2  0
 17 18  1  0
 17 19  1  0
 19 20  1  0
 19 21  2  0
 21 22  1  0
 22 23  1  0
 22 24  1  0
 24 25  1  0
 24 26  1  0
 24 27  1  0
 27 28  1  0
 27 29  1  0
 27 30  1  0
 21 31  1  0
 31 32  1  0
 31 33  2  0
 33 34  1  0
 14 35  1  0
 35 36  1  0
 35  2  2  0
 13  4  1  0
 33 16  1  0
M  CHG  1   3  -1
M  END
>  <UniqueID>  (46) 
41

>  <SMILES>  (46) 
CCNc1ccc(/N=c2/cc[n-]c3ccccc23)cc1

>  <Energy>  (46) 
58.57925978987523

>  <Genealogy>  (46) 
CCNc1ccc(N=c2cc[n-]c3ccccc23)cc1 (protonated)
CCNc1ccc(/N=c2/cc[n-]c3ccccc23)cc1 (cis-trans isomerization)
CCNc1ccc(/N=c2/cc[n-]c3ccccc23)cc1 (3D coordinates assigned)
CCNc1ccc(/N=c2/cc[n-]c3ccccc23)cc1 (optimized conformer: 58.57925978987523 kcal/mol)

>  <smiles>  (46) 
CCNc1ccc(N=c2cc[nH]c3ccccc23)cc1

>  <score_type>  (46) 
oracle

>  <origin>  (46) 
adg

>  <m_score__min__energy>  (46) 
-8.7400000000000002

>  <m_primary>  (46) 
energy

$$$$
46:0
     RDKit          3D

 36 38  0  0  0  0  0  0  0  0999 V2000
   57.6780   31.5010   43.0780 C   0  0  0  0  0  0  0  0  0  0  0  0
   57.8050   32.1900   44.4100 C   0  0  0  0  0  0  0  0  0  0  0  0
   57.5500   33.5700   44.5000 C   0  0  0  0  0  0  0  0  0  0  0  0
   57.6650   34.2320   45.7240 C   0  0  0  0  0  0  0  0  0  0  0  0
   58.0460   33.5300   46.8670 C   0  0  0  0  0  0  0  0  0  0  0  0
   58.3140   32.1620   46.7910 C   0  0  0  0  0  0  0  0  0  0  0  0
   58.1890   31.4750   45.5690 C   0  0  0  0  0  0  0  0  0  0  0  0
   58.5050   30.0720   45.4930 N   0  0  0  0  0  0  0  0  0  0  0  0
   57.5090   29.0390   45.4290 C   0  0  0  0  0  0  0  0  0  0  0  0
   56.2950   29.3330   45.2510 O   0  0  0  0  0  0  0  0  0  0  0  0
   57.9040   27.6270   45.5400 C   0  0  0  0  0  0  0  0  0  0  0  0
   58.8420   27.1130   46.4130 C   0  0  0  0  0  0  0  0  0  0  0  0
   58.8840   25.7580   46.1630 C   0  0  0  0  0  0  0  0  0  0  0  0
   57.9660   25.5280   45.1490 C   0  0  0  0  0  0  0  0  0  0  0  0
   57.6350   24.2280   44.5210 C   0  0  0  0  0  0  0  0  0  0  0  0
   56.5830   24.1560   43.5900 C   0  0  0  0  0  0  0  0  0  0  0  0
   56.2540   22.9390   42.9850 C   0  0  0  0  0  0  0  0  0  0  0  0
   56.9690   21.7820   43.3010 C   0  0  0  0  0  0  0  0  0  0  0  0
   56.6490   20.6030   42.7130 F   0  0  0  0  0  0  0  0  0  0  0  0
   58.0160   21.8410   44.2250 C   0  0  0  0  0  0  0  0  0  0  0  0
   58.3500   23.0550   44.8330 C   0  0  0  0  0  0  0  0  0  0  0  0
   57.4010   26.6640   44.8030 O   0  0  0  0  0  0  0  0  0  0  0  0
   57.4807   30.4305   43.2363 H   0  0  0  0  0  0  0  0  0  0  0  0
   56.8470   31.9473   42.5121 H   0  0  0  0  0  0  0  0  0  0  0  0
   58.6135   31.6217   42.5121 H   0  0  0  0  0  0  0  0  0  0  0  0
   57.2580   34.1316   43.6003 H   0  0  0  0  0  0  0  0  0  0  0  0
   57.4545   35.3099   45.7867 H   0  0  0  0  0  0  0  0  0  0  0  0
   58.1355   34.0547   47.8296 H   0  0  0  0  0  0  0  0  0  0  0  0
   58.6255   31.6164   47.6939 H   0  0  0  0  0  0  0  0  0  0  0  0
   59.5080   29.7920   45.4200 H   0  0  0  0  0  0  0  0  0  0  0  0
   59.4336   27.6697   47.1547 H   0  0  0  0  0  0  0  0  0  0  0  0
   59.5166   25.0113   46.6653 H   0  0  0  0  0  0  0  0  0  0  0  0
   56.0152   25.0633   43.3361 H   0  0  0  0  0  0  0  0  0  0  0  0
   55.4297   22.8930   42.2581 H   0  0  0  0  0  0  0  0  0  0  0  0
   58.5790   20.9296   44.4747 H   0  0  0  0  0  0  0  0  0  0  0  0
   59.1756   23.0943   45.5589 H   0  0  0  0  0  0  0  0  0  0  0  0
  1  2  1  0
  2  3  2  0
  3  4  1  0
  4  5  2  0
  5  6  1  0
  6  7  2  0
  7  8  1  0
  8  9  1  0
  9 10  2  0
  9 11  1  0
 11 12  2  0
 12 13  1  0
 13 14  2  0
 14 15  1  0
 15 16  2  0
 16 17  1  0
 17 18  2  0
 18 19  1  0
 18 20  1  0
 20 21  2  0
 14 22  1  0
  7  2  1  0
 22 11  1  0
 21 15  1  0
  1 23  1  0
  1 24  1  0
  1 25  1  0
  3 26  1  0
  4 27  1  0
  5 28  1  0
  6 29  1  0
  8 30  1  0
 12 31  1  0
 13 32  1  0
 16 33  1  0
 17 34  1  0
 20 35  1  0
 21 36  1  0
M  END
>  <UniqueID>  (47) 
42

>  <SMILES>  (47) 
Cc1ccccc1NC(=O)c1ccc(-c2ccc(F)cc2)o1

>  <Energy>  (47) 
68.87878527334003

>  <Genealogy>  (47) 
Cc1ccccc1NC(=O)c1ccc(-c2ccc(F)cc2)o1 (3D coordinates assigned)
Cc1ccccc1NC(=O)c1ccc(-c2ccc(F)cc2)o1 (optimized conformer: 68.87878527334003 kcal/mol)

>  <smiles>  (47) 
Cc1ccccc1NC(=O)c1ccc(-c2ccc(F)cc2)o1

>  <score_type>  (47) 
oracle

>  <origin>  (47) 
adg

>  <m_score__min__energy>  (47) 
-7.2199999999999998

>  <m_primary>  (47) 
energy

$$$$
47:0
     RDKit          3D

 60 62  0  0  0  0  0  0  0  0999 V2000
   58.9630   33.8850   47.2790 C   0  0  0  0  0  0  0  0  0  0  0  0
   59.3640   33.4530   48.6840 C   0  0  0  0  0  0  0  0  0  0  0  0
   58.4280   32.3930   49.3020 C   0  0  0  0  0  0  0  0  0  0  0  0
   59.0210   31.6820   50.4690 N   0  0  0  0  0  0  0  0  0  0  0  0
   58.5380   32.2500   51.7540 C   0  0  0  0  0  0  0  0  0  0  0  0
   58.9290   33.7320   51.9180 C   0  0  0  0  0  0  0  0  0  0  0  0
   58.8430   34.1630   53.3790 C   0  0  0  0  0  0  0  0  0  0  0  0
   58.7320   30.2550   50.4000 C   0  0  0  0  0  0  0  0  0  0  0  0
   57.7750   29.8090   51.0210 O   0  0  0  0  0  0  0  0  0  0  0  0
   59.5490   29.3260   49.5210 C   0  0  0  0  0  0  0  0  0  0  0  0
   60.5150   30.0800   48.6350 C   0  0  0  0  0  0  0  0  0  0  0  0
   60.3480   30.3980   47.2870 C   0  0  0  0  0  0  0  0  0  0  0  0
   59.2390   29.9880   46.4050 C   0  0  0  0  0  0  0  0  0  0  0  0
   58.7670   30.8730   45.4240 C   0  0  0  0  0  0  0  0  0  0  0  0
   57.7130   30.4980   44.5870 C   0  0  0  0  0  0  0  0  0  0  0  0
   57.1220   29.2400   44.7220 C   0  0  0  0  0  0  0  0  0  0  0  0
   57.5820   28.3420   45.6990 C   0  0  0  0  0  0  0  0  0  0  0  0
   56.9720   26.9680   45.8380 C   0  0  0  0  0  0  0  0  0  0  0  0
   57.4410   26.1110   44.8580 F   0  0  0  0  0  0  0  0  0  0  0  0
   55.5950   27.0430   45.7190 F   0  0  0  0  0  0  0  0  0  0  0  0
   57.2880   26.4490   47.0790 F   0  0  0  0  0  0  0  0  0  0  0  0
   58.6690   28.7100   46.5100 C   0  0  0  0  0  0  0  0  0  0  0  0
   61.3190   31.2550   46.8880 N   0  0  0  0  0  0  0  0  0  0  0  0
   62.0660   31.4310   47.9980 C   0  0  0  0  0  0  0  0  0  0  0  0
   63.1990   32.2490   48.1000 C   0  0  0  0  0  0  0  0  0  0  0  0
   63.7650   32.9780   46.9100 C   0  0  0  0  0  0  0  0  0  0  0  0
   62.7620   33.9910   46.3720 C   0  0  0  0  0  0  0  0  0  0  0  0
   63.8380   32.3120   49.3550 C   0  0  0  0  0  0  0  0  0  0  0  0
   63.3250   31.6010   50.4540 C   0  0  0  0  0  0  0  0  0  0  0  0
   62.1800   30.8110   50.2940 C   0  0  0  0  0  0  0  0  0  0  0  0
   61.6030   30.7480   49.0630 N   0  0  0  0  0  0  0  0  0  0  0  0
   58.2159   34.6899   47.3421 H   0  0  0  0  0  0  0  0  0  0  0  0
   59.8501   34.2495   46.7403 H   0  0  0  0  0  0  0  0  0  0  0  0
   58.5335   33.0275   46.7403 H   0  0  0  0  0  0  0  0  0  0  0  0
   60.3806   33.0350   48.6412 H   0  0  0  0  0  0  0  0  0  0  0  0
   59.3019   34.3461   49.3232 H   0  0  0  0  0  0  0  0  0  0  0  0
   57.5055   32.8934   49.6316 H   0  0  0  0  0  0  0  0  0  0  0  0
   58.2392   31.6371   48.5255 H   0  0  0  0  0  0  0  0  0  0  0  0
   60.0620   31.7970   50.4410 H   0  0  0  0  0  0  0  0  0  0  0  0
   57.4417   32.1668   51.7885 H   0  0  0  0  0  0  0  0  0  0  0  0
   59.0079   31.6839   52.5717 H   0  0  0  0  0  0  0  0  0  0  0  0
   59.9600   33.8733   51.5616 H   0  0  0  0  0  0  0  0  0  0  0  0
   58.2300   34.3454   51.3305 H   0  0  0  0  0  0  0  0  0  0  0  0
   59.0167   33.2927   54.0289 H   0  0  0  0  0  0  0  0  0  0  0  0
   59.6059   34.9293   53.5808 H   0  0  0  0  0  0  0  0  0  0  0  0
   57.8444   34.5778   53.5808 H   0  0  0  0  0  0  0  0  0  0  0  0
   60.1199   28.6406   50.1646 H   0  0  0  0  0  0  0  0  0  0  0  0
   58.8521   28.7774   48.8703 H   0  0  0  0  0  0  0  0  0  0  0  0
   59.2283   31.8655   45.3135 H   0  0  0  0  0  0  0  0  0  0  0  0
   57.3476   31.1959   43.8193 H   0  0  0  0  0  0  0  0  0  0  0  0
   56.2923   28.9510   44.0601 H   0  0  0  0  0  0  0  0  0  0  0  0
   59.0770   27.9894   47.2341 H   0  0  0  0  0  0  0  0  0  0  0  0
   64.6828   33.5039   47.2117 H   0  0  0  0  0  0  0  0  0  0  0  0
   63.9869   32.2459   46.1195 H   0  0  0  0  0  0  0  0  0  0  0  0
   62.2630   34.4950   47.2128 H   0  0  0  0  0  0  0  0  0  0  0  0
   63.2877   34.7366   45.7574 H   0  0  0  0  0  0  0  0  0  0  0  0
   62.0112   33.4727   45.7574 H   0  0  0  0  0  0  0  0  0  0  0  0
   64.7452   32.9223   49.4753 H   0  0  0  0  0  0  0  0  0  0  0  0
   63.8203   31.6649   51.4341 H   0  0  0  0  0  0  0  0  0  0  0  0
   61.7569   30.2544   51.1432 H   0  0  0  0  0  0  0  0  0  0  0  0
  1  2  1  0
  2  3  1  0
  3  4  1  0
  4  5  1  0
  5  6  1  0
  6  7  1  0
  4  8  1  0
  8  9  2  0
  8 10  1  0
 10 11  1  0
 11 12  2  0
 12 13  1  0
 13 14  2  0
 14 15  1  0
 15 16  2  0
 16 17  1  0
 17 18  1  0
 18 19  1  0
 18 20  1  0
 18 21  1  0
 17 22  2  0
 12 23  1  0
 23 24  2  0
 24 25  1  0
 25 26  1  0
 26 27  1  0
 25 28  2  0
 28 29  1  0
 29 30  2  0
 30 31  1  0
 31 11  1  0
 22 13  1  0
 31 24  1  0
  1 32  1  0
  1 33  1  0
  1 34  1  0
  2 35  1  0
  2 36  1  0
  3 37  1  0
  3 38  1  0
  4 39  1  0
  5 40  1  0
  5 41  1  0
  6 42  1  0
  6 43  1  0
  7 44  1  0
  7 45  1  0
  7 46  1  0
 10 47  1  0
 10 48  1  0
 14 49  1  0
 15 50  1  0
 16 51  1  0
 22 52  1  0
 26 53  1  0
 26 54  1  0
 27 55  1  0
 27 56  1  0
 27 57  1  0
 28 58  1  0
 29 59  1  0
 30 60  1  0
M  CHG  1   4   1
M  END
>  <UniqueID>  (48) 
43

>  <SMILES>  (48) 
CCC[NH+](CCC)C(=O)Cc1c(-c2cccc(C(F)(F)F)c2)nc2c(CC)cccn12

>  <Energy>  (48) 
95.69858488016422

>  <Genealogy>  (48) 
CCC[NH+](CCC)C(=O)Cc1c(-c2cccc(C(F)(F)F)c2)nc2c(CC)cccn12 (protonated)
CCC[NH+](CCC)C(=O)Cc1c(-c2cccc(C(F)(F)F)c2)nc2c(CC)cccn12 (3D coordinates assigned)
CCC[NH+](CCC)C(=O)Cc1c(-c2cccc(C(F)(F)F)c2)nc2c(CC)cccn12 (optimized conformer: 95.69858488016422 kcal/mol)

>  <smiles>  (48) 
CCCN(CCC)C(=O)Cc1c(-c2cccc(C(F)(F)F)c2)nc2c(CC)cccn12

>  <score_type>  (48) 
oracle

>  <origin>  (48) 
adg

>  <m_score__min__energy>  (48) 
-6.1299999999999999

>  <m_primary>  (48) 
energy

$$$$
48:0
     RDKit          3D

 44 48  0  0  1  0  0  0  0  0999 V2000
   63.4900   33.0850   48.4540 C   0  0  0  0  0  0  0  0  0  0  0  0
   63.7470   33.2980   47.1040 C   0  0  0  0  0  0  0  0  0  0  0  0
   62.7260   33.8040   46.3510 N   0  0  0  0  0  0  0  0  0  0  0  0
   61.5280   34.0800   46.8980 C   0  0  0  0  0  0  0  0  0  0  0  0
   61.2420   33.8800   48.2340 C   0  0  0  0  0  0  0  0  0  0  0  0
   62.2530   33.3710   49.0190 C   0  0  0  0  0  0  0  0  0  0  0  0
   59.8910   34.2140   48.7560 C   0  0  0  0  0  0  0  0  0  0  0  0
   58.7910   33.8670   47.7890 C   0  0  0  0  0  0  0  0  0  0  0  0
   59.2620   33.7930   46.4010 N   0  0  0  0  0  0  0  0  0  0  0  0
   58.6200   32.9340   45.4710 C   0  0  0  0  0  0  0  0  0  0  0  0
   58.0260   31.7440   45.7920 C   0  0  0  0  0  0  0  0  0  0  0  0
   57.4140   30.9400   44.8490 C   0  0  0  0  0  0  0  0  0  0  0  0
   56.8140   29.7090   45.2640 N   0  0  0  0  0  0  0  0  0  0  0  0
   57.2340   28.5980   44.7410 C   0  0  0  0  0  0  0  0  0  0  0  0
   57.1250   27.3290   45.2840 C   0  0  0  0  0  0  0  0  0  0  0  0
   57.6980   26.3990   44.4180 C   0  0  0  0  0  0  0  0  0  0  0  0
   57.8000   24.9230   44.6040 C   0  0  0  0  0  0  0  0  0  0  0  0
   56.5450   24.2110   45.1360 C   0  0  0  0  0  0  0  0  0  0  0  0
   57.0330   23.9970   43.7670 C   0  0  0  0  0  0  0  0  0  0  0  0
   58.1390   27.1310   43.3770 N   0  0  0  0  0  0  0  0  0  0  0  0
   57.8680   28.4170   43.5650 N   0  0  0  0  0  0  0  0  0  0  0  0
   57.4040   31.3490   43.5610 N   0  0  0  0  0  0  0  0  0  0  0  0
   57.9910   32.5230   43.2480 C   0  0  0  0  0  0  0  0  0  0  0  0
   58.5870   33.3030   44.1700 N   0  0  0  0  0  0  0  0  0  0  0  0
   60.3920   34.6370   46.0740 C   0  0  0  0  0  0  0  0  0  0  0  0
   64.2883   32.6787   49.0925 H   0  0  0  0  0  0  0  0  0  0  0  0
   64.7282   33.0693   46.6625 H   0  0  0  0  0  0  0  0  0  0  0  0
   62.0816   33.1913   50.0906 H   0  0  0  0  0  0  0  0  0  0  0  0
   59.7271   33.6564   49.6899 H   0  0  0  0  0  0  0  0  0  0  0  0
   59.8581   35.3013   48.9195 H   0  0  0  0  0  0  0  0  0  0  0  0
   58.3695   32.8907   48.0705 H   0  0  0  0  0  0  0  0  0  0  0  0
   58.0363   34.6655   47.8425 H   0  0  0  0  0  0  0  0  0  0  0  0
   58.0359   31.4143   46.8414 H   0  0  0  0  0  0  0  0  0  0  0  0
   56.6577   27.0911   46.2510 H   0  0  0  0  0  0  0  0  0  0  0  0
   58.8647   25.0026   44.8687 H   0  0  0  0  0  0  0  0  0  0  0  0
   56.6364   23.4139   45.8885 H   0  0  0  0  0  0  0  0  0  0  0  0
   55.5954   24.5251   45.5939 H   0  0  0  0  0  0  0  0  0  0  0  0
   57.4705   23.0252   43.4945 H   0  0  0  0  0  0  0  0  0  0  0  0
   56.5671   24.0806   42.7741 H   0  0  0  0  0  0  0  0  0  0  0  0
   58.6290   26.7210   42.5370 H   0  0  0  0  0  0  0  0  0  0  0  0
   58.0870   29.2230   42.9330 H   0  0  0  0  0  0  0  0  0  0  0  0
   57.9824   32.8557   42.1996 H   0  0  0  0  0  0  0  0  0  0  0  0
   60.6243   34.5777   45.0005 H   0  0  0  0  0  0  0  0  0  0  0  0
   60.1988   35.6982   46.2896 H   0  0  0  0  0  0  0  0  0  0  0  0
  1  2  2  0
  2  3  1  0
  3  4  2  0
  4  5  1  0
  5  6  2  0
  5  7  1  0
  7  8  1  0
  8  9  1  0
  9 10  1  0
 10 11  2  0
 11 12  1  0
 12 13  1  0
 13 14  2  0
 14 15  1  0
 15 16  2  0
 16 17  1  0
 17 18  1  0
 18 19  1  0
 16 20  1  0
 20 21  1  0
 12 22  2  0
 22 23  1  0
 23 24  2  0
  9 25  1  0
  6  1  1  0
 24 10  1  0
 25  4  1  0
 21 14  1  0
 19 17  1  0
  1 26  1  0
  2 27  1  0
  6 28  1  0
  7 29  1  0
  7 30  1  0
  8 31  1  0
  8 32  1  0
 11 33  1  0
 15 34  1  0
 17 35  1  0
 18 36  1  0
 18 37  1  0
 19 38  1  0
 19 39  1  0
 20 40  1  0
 21 41  1  0
 23 42  1  0
 25 43  1  0
 25 44  1  0
M  END
>  <smiles>  (49) 
c1cnc2c(c1)CCN(c1cc(N=c3cc(C4CC4)[nH][nH]3)ncn1)C2

>  <score_type>  (49) 
oracle

>  <origin>  (49) 
adg

>  <m_score__min__energy>  (49) 
-8.8100000000000005

>  <m_primary>  (49) 
energy

$$$$
49:0
     RDKit          3D

 50 53  0  0  0  0  0  0  0  0999 V2000
   55.2300   29.7870   43.7440 C   0  0  0  0  0  0  0  0  0  0  0  0
   55.8420   29.4320   44.9800 O   0  0  0  0  0  0  0  0  0  0  0  0
   57.2260   29.3100   45.1760 C   0  0  0  0  0  0  0  0  0  0  0  0
   57.8820   28.0640   45.1300 C   0  0  0  0  0  0  0  0  0  0  0  0
   59.2620   27.9850   45.3210 C   0  0  0  0  0  0  0  0  0  0  0  0
   60.0010   29.1400   45.5780 C   0  0  0  0  0  0  0  0  0  0  0  0
   59.3630   30.3810   45.6240 C   0  0  0  0  0  0  0  0  0  0  0  0
   57.9770   30.4750   45.4020 C   0  0  0  0  0  0  0  0  0  0  0  0
   57.3050   31.7430   45.4270 N   0  0  0  0  0  0  0  0  0  0  0  0
   57.6000   32.8320   46.3090 C   0  0  0  0  0  0  0  0  0  0  0  0
   56.6450   33.4690   46.8310 O   0  0  0  0  0  0  0  0  0  0  0  0
   58.9880   33.2630   46.5800 C   0  0  0  0  0  0  0  0  0  0  0  0
   59.7070   34.2790   45.9600 C   0  0  0  0  0  0  0  0  0  0  0  0
   59.2670   35.1280   44.8090 C   0  0  0  0  0  0  0  0  0  0  0  0
   60.8990   34.4310   46.5720 N   0  0  0  0  0  0  0  0  0  0  0  0
   60.9630   33.5580   47.5670 N   0  0  0  0  0  0  0  0  0  0  0  0
   62.1200   33.4180   48.4060 C   0  0  0  0  0  0  0  0  0  0  0  0
   62.2640   34.1880   49.5720 C   0  0  0  0  0  0  0  0  0  0  0  0
   63.3950   34.0430   50.3810 C   0  0  0  0  0  0  0  0  0  0  0  0
   64.3840   33.1050   50.0510 C   0  0  0  0  0  0  0  0  0  0  0  0
   65.6210   32.9740   50.8900 C   0  0  0  0  0  0  0  0  0  0  0  0
   64.2370   32.3270   48.8930 C   0  0  0  0  0  0  0  0  0  0  0  0
   63.1070   32.4750   48.0830 C   0  0  0  0  0  0  0  0  0  0  0  0
   59.8150   32.8440   47.6080 C   0  0  0  0  0  0  0  0  0  0  0  0
   59.4900   31.8610   48.6020 N   0  0  0  0  0  0  0  0  0  0  0  0
   58.5590   31.9810   49.5680 C   0  0  0  0  0  0  0  0  0  0  0  0
   58.5310   30.8320   50.3320 C   0  0  0  0  0  0  0  0  0  0  0  0
   59.4800   29.9810   49.8010 C   0  0  0  0  0  0  0  0  0  0  0  0
   60.0520   30.6450   48.7340 C   0  0  0  0  0  0  0  0  0  0  0  0
   54.2939   30.3300   43.9410 H   0  0  0  0  0  0  0  0  0  0  0  0
   55.9124   30.4295   43.1682 H   0  0  0  0  0  0  0  0  0  0  0  0
   55.0111   28.8757   43.1682 H   0  0  0  0  0  0  0  0  0  0  0  0
   57.3028   27.1479   44.9424 H   0  0  0  0  0  0  0  0  0  0  0  0
   59.7683   27.0098   45.2688 H   0  0  0  0  0  0  0  0  0  0  0  0
   61.0863   29.0730   45.7444 H   0  0  0  0  0  0  0  0  0  0  0  0
   59.9466   31.2893   45.8348 H   0  0  0  0  0  0  0  0  0  0  0  0
   58.7921   36.0443   45.1897 H   0  0  0  0  0  0  0  0  0  0  0  0
   60.1401   35.3952   44.1956 H   0  0  0  0  0  0  0  0  0  0  0  0
   58.5453   34.5686   44.1956 H   0  0  0  0  0  0  0  0  0  0  0  0
   61.4819   34.9097   49.8503 H   0  0  0  0  0  0  0  0  0  0  0  0
   63.5096   34.6669   51.2797 H   0  0  0  0  0  0  0  0  0  0  0  0
   65.3466   33.0031   51.9548 H   0  0  0  0  0  0  0  0  0  0  0  0
   66.1171   32.0183   50.6651 H   0  0  0  0  0  0  0  0  0  0  0  0
   66.3062   33.8046   50.6651 H   0  0  0  0  0  0  0  0  0  0  0  0
   65.0140   31.5974   48.6211 H   0  0  0  0  0  0  0  0  0  0  0  0
   62.9912   31.8479   47.1867 H   0  0  0  0  0  0  0  0  0  0  0  0
   57.9182   32.8613   49.7242 H   0  0  0  0  0  0  0  0  0  0  0  0
   57.8796   30.6329   51.1957 H   0  0  0  0  0  0  0  0  0  0  0  0
   59.7312   28.9714   50.1582 H   0  0  0  0  0  0  0  0  0  0  0  0
   60.8467   30.2413   48.0894 H   0  0  0  0  0  0  0  0  0  0  0  0
  1  2  1  0
  2  3  1  0
  3  4  2  0
  4  5  1  0
  5  6  2  0
  6  7  1  0
  7  8  2  0
  8  9  1  0
  9 10  1  0
 10 11  2  0
 10 12  1  0
 12 13  1  0
 13 14  1  0
 13 15  2  0
 15 16  1  0
 16 17  1  0
 17 18  2  0
 18 19  1  0
 19 20  2  0
 20 21  1  0
 20 22  1  0
 22 23  2  0
 16 24  1  0
 24 25  1  0
 25 26  1  0
 26 27  2  0
 27 28  1  0
 28 29  2  0
  8  3  1  0
 24 12  2  0
 29 25  1  0
 23 17  1  0
  1 30  1  0
  1 31  1  0
  1 32  1  0
  4 33  1  0
  5 34  1  0
  6 35  1  0
  7 36  1  0
 14 37  1  0
 14 38  1  0
 14 39  1  0
 18 40  1  0
 19 41  1  0
 21 42  1  0
 21 43  1  0
 21 44  1  0
 22 45  1  0
 23 46  1  0
 26 47  1  0
 27 48  1  0
 28 49  1  0
 29 50  1  0
M  CHG  1   9  -1
M  END
>  <UniqueID>  (50) 
44

>  <SMILES>  (50) 
COc1ccccc1[N-]C(=O)c1c(C)nn(-c2ccc(C)cc2)c1-n1cccc1

>  <Energy>  (50) 
123.52445095205924

>  <Genealogy>  (50) 
COc1ccccc1[N-]C(=O)c1c(C)nn(-c2ccc(C)cc2)c1-n1cccc1 (protonated)
COc1ccccc1[N-]C(=O)c1c(C)nn(-c2ccc(C)cc2)c1-n1cccc1 (3D coordinates assigned)
COc1ccccc1[N-]C(=O)c1c(C)nn(-c2ccc(C)cc2)c1-n1cccc1 (optimized conformer: 123.52445095205924 kcal/mol)

>  <smiles>  (50) 
COc1ccccc1NC(=O)c1c(C)nn(-c2ccc(C)cc2)c1-n1cccc1

>  <score_type>  (50) 
oracle

>  <origin>  (50) 
adg

>  <m_score__min__energy>  (50) 
-9.5700000000000003

>  <m_primary>  (50) 
energy

$$$$
50:0
     RDKit          3D

 33 34  0  0  0  0  0  0  0  0999 V2000
   56.9210   23.1880   45.3170 C   0  0  0  0  0  0  0  0  0  0  0  0
   56.6160   24.4700   46.0280 C   0  0  0  0  0  0  0  0  0  0  0  0
   55.5490   24.5490   46.6940 O   0  0  0  0  0  0  0  0  0  0  0  0
   57.5240   25.6440   45.9510 C   0  0  0  0  0  0  0  0  0  0  0  0
   58.9240   25.4900   45.9580 C   0  0  0  0  0  0  0  0  0  0  0  0
   59.5030   24.2280   46.0180 O   0  0  0  0  0  0  0  0  0  0  0  0
   59.7180   26.5500   45.8800 O   0  0  0  0  0  0  0  0  0  0  0  0
   59.2660   27.7930   45.7960 C   0  0  0  0  0  0  0  0  0  0  0  0
   60.0960   28.7400   45.7500 O   0  0  0  0  0  0  0  0  0  0  0  0
   57.8810   28.0500   45.7770 C   0  0  0  0  0  0  0  0  0  0  0  0
   57.3840   29.4440   45.7340 C   0  0  0  0  0  0  0  0  0  0  0  0
   56.2610   29.6930   45.2210 O   0  0  0  0  0  0  0  0  0  0  0  0
   58.1450   30.4880   46.3560 N   0  0  0  0  0  0  0  0  0  0  0  0
   58.2640   31.8460   45.9010 C   0  0  0  0  0  0  0  0  0  0  0  0
   57.8610   32.2150   44.6030 C   0  0  0  0  0  0  0  0  0  0  0  0
   58.0010   33.5320   44.1670 C   0  0  0  0  0  0  0  0  0  0  0  0
   58.5540   34.4940   45.0100 C   0  0  0  0  0  0  0  0  0  0  0  0
   58.9800   34.1400   46.2920 C   0  0  0  0  0  0  0  0  0  0  0  0
   58.8500   32.8150   46.7490 C   0  0  0  0  0  0  0  0  0  0  0  0
   59.3130   32.4310   48.1380 C   0  0  0  0  0  0  0  0  0  0  0  0
   60.1930   31.3660   48.0560 F   0  0  0  0  0  0  0  0  0  0  0  0
   58.2220   32.0570   48.9020 F   0  0  0  0  0  0  0  0  0  0  0  0
   59.9550   33.4770   48.7770 F   0  0  0  0  0  0  0  0  0  0  0  0
   57.0000   26.9470   45.8360 C   0  0  0  0  0  0  0  0  0  0  0  0
   55.6120   27.1160   45.7670 O   0  0  0  0  0  0  0  0  0  0  0  0
   57.1097   22.3950   46.0556 H   0  0  0  0  0  0  0  0  0  0  0  0
   56.0649   22.9057   44.6865 H   0  0  0  0  0  0  0  0  0  0  0  0
   57.8125   23.3215   44.6865 H   0  0  0  0  0  0  0  0  0  0  0  0
   57.4328   31.4590   43.9284 H   0  0  0  0  0  0  0  0  0  0  0  0
   57.6740   33.8124   43.1548 H   0  0  0  0  0  0  0  0  0  0  0  0
   58.6551   35.5336   44.6652 H   0  0  0  0  0  0  0  0  0  0  0  0
   59.4209   34.9031   46.9503 H   0  0  0  0  0  0  0  0  0  0  0  0
   55.1420   27.9810   45.9960 H   0  0  0  0  0  0  0  0  0  0  0  0
  1  2  1  0
  2  3  2  0
  2  4  1  0
  4  5  2  0
  5  6  1  0
  5  7  1  0
  7  8  1  0
  8  9  2  0
  8 10  1  0
 10 11  1  0
 11 12  2  0
 11 13  1  0
 13 14  1  0
 14 15  2  0
 15 16  1  0
 16 17  2  0
 17 18  1  0
 18 19  2  0
 19 20  1  0
 20 21  1  0
 20 22  1  0
 20 23  1  0
 10 24  2  0
 24 25  1  0
 24  4  1  0
 19 14  1  0
  1 26  1  0
  1 27  1  0
  1 28  1  0
 15 29  1  0
 16 30  1  0
 17 31  1  0
 18 32  1  0
 25 33  1  0
M  CHG  2   6  -1  13  -1
M  END
>  <UniqueID>  (51) 
45

>  <SMILES>  (51) 
CC(=O)c1c([O-])oc(=O)c(C(=O)[N-]c2ccccc2C(F)(F)F)c1O

>  <Energy>  (51) 
52.12268706763498

>  <Genealogy>  (51) 
CC(=O)c1c([O-])oc(=O)c(C(=O)[N-]c2ccccc2C(F)(F)F)c1O (protonated)
CC(=O)c1c([O-])oc(=O)c(C(=O)[N-]c2ccccc2C(F)(F)F)c1O (3D coordinates assigned)
CC(=O)c1c([O-])oc(=O)c(C(=O)[N-]c2ccccc2C(F)(F)F)c1O (optimized conformer: 52.12268706763498 kcal/mol)

>  <smiles>  (51) 
CC(=O)c1c(O)oc(=O)c(C(=O)Nc2ccccc2C(F)(F)F)c1O

>  <score_type>  (51) 
oracle

>  <origin>  (51) 
adg

>  <m_score__min__energy>  (51) 
-10.470000000000001

>  <m_primary>  (51) 
energy

$$$$
51:0
     RDKit          3D

 38 40  0  0  0  0  0  0  0  0999 V2000
   57.4100   26.1660   44.9180 C   0  0  0  0  0  0  0  0  0  0  0  0
   56.6420   27.1240   45.8230 C   0  0  0  0  0  0  0  0  0  0  0  0
   55.3400   26.6760   45.9620 F   0  0  0  0  0  0  0  0  0  0  0  0
   57.2350   27.1480   47.0730 F   0  0  0  0  0  0  0  0  0  0  0  0
   56.6360   28.5040   45.2360 C   0  0  0  0  0  0  0  0  0  0  0  0
   55.5430   29.0340   44.8960 O   0  0  0  0  0  0  0  0  0  0  0  0
   57.8590   29.2500   45.1770 N   0  0  0  0  0  0  0  0  0  0  0  0
   57.9850   30.6730   45.0370 C   0  0  0  0  0  0  0  0  0  0  0  0
   57.6230   31.3230   43.8310 C   0  0  0  0  0  0  0  0  0  0  0  0
   57.7700   32.7070   43.6910 C   0  0  0  0  0  0  0  0  0  0  0  0
   58.2900   33.4210   44.7620 C   0  0  0  0  0  0  0  0  0  0  0  0
   58.5220   34.7720   44.8700 C   0  0  0  0  0  0  0  0  0  0  0  0
   59.0410   34.9520   46.1400 C   0  0  0  0  0  0  0  0  0  0  0  0
   59.1340   33.7710   46.7940 N   0  0  0  0  0  0  0  0  0  0  0  0
   59.6920   33.6340   48.4370 S   0  0  0  0  0  0  0  0  0  0  0  0
   58.8080   32.6760   49.1860 O   0  0  0  0  0  0  0  0  0  0  0  0
   59.6100   34.9790   49.1030 O   0  0  0  0  0  0  0  0  0  0  0  0
   61.3370   33.0070   48.4780 C   0  0  0  0  0  0  0  0  0  0  0  0
   62.2630   33.3900   47.4980 C   0  0  0  0  0  0  0  0  0  0  0  0
   63.5710   32.8960   47.5370 C   0  0  0  0  0  0  0  0  0  0  0  0
   63.9550   32.0130   48.5510 C   0  0  0  0  0  0  0  0  0  0  0  0
   63.0320   31.6210   49.5240 C   0  0  0  0  0  0  0  0  0  0  0  0
   61.7240   32.1140   49.4880 C   0  0  0  0  0  0  0  0  0  0  0  0
   58.6690   32.8200   45.9420 C   0  0  0  0  0  0  0  0  0  0  0  0
   58.5370   31.4220   46.1060 C   0  0  0  0  0  0  0  0  0  0  0  0
   59.0250   30.5600   47.5610 Cl  0  0  0  0  0  0  0  0  0  0  0  0
   57.9795   25.4556   45.5353 H   0  0  0  0  0  0  0  0  0  0  0  0
   56.7014   25.6140   44.2830 H   0  0  0  0  0  0  0  0  0  0  0  0
   58.1029   26.7375   44.2830 H   0  0  0  0  0  0  0  0  0  0  0  0
   57.2215   30.7320   42.9947 H   0  0  0  0  0  0  0  0  0  0  0  0
   57.4818   33.2151   42.7589 H   0  0  0  0  0  0  0  0  0  0  0  0
   58.3350   35.5444   44.1095 H   0  0  0  0  0  0  0  0  0  0  0  0
   59.3379   35.9239   46.5611 H   0  0  0  0  0  0  0  0  0  0  0  0
   61.9605   34.0803   46.6968 H   0  0  0  0  0  0  0  0  0  0  0  0
   64.2976   33.2021   46.7700 H   0  0  0  0  0  0  0  0  0  0  0  0
   64.9845   31.6267   48.5827 H   0  0  0  0  0  0  0  0  0  0  0  0
   63.3347   30.9238   50.3192 H   0  0  0  0  0  0  0  0  0  0  0  0
   60.9977   31.8011   50.2526 H   0  0  0  0  0  0  0  0  0  0  0  0
  1  2  1  0
  2  3  1  0
  2  4  1  0
  2  5  1  0
  5  6  2  0
  5  7  1  0
  7  8  1  0
  8  9  2  0
  9 10  1  0
 10 11  2  0
 11 12  1  0
 12 13  2  0
 13 14  1  0
 14 15  1  0
 15 16  2  0
 15 17  2  0
 15 18  1  0
 18 19  2  0
 19 20  1  0
 20 21  2  0
 21 22  1  0
 22 23  2  0
 14 24  1  0
 24 25  2  0
 25 26  1  0
 25  8  1  0
 24 11  1  0
 23 18  1  0
  1 27  1  0
  1 28  1  0
  1 29  1  0
  9 30  1  0
 10 31  1  0
 12 32  1  0
 13 33  1  0
 19 34  1  0
 20 35  1  0
 21 36  1  0
 22 37  1  0
 23 38  1  0
M  CHG  1   7  -1
M  END
>  <UniqueID>  (52) 
46

>  <SMILES>  (52) 
CC(F)(F)C(=O)[N-]c1ccc2ccn(S(=O)(=O)c3ccccc3)c2c1Cl

>  <Energy>  (52) 
80.25572687560535

>  <Genealogy>  (52) 
CC(F)(F)C(=O)[N-]c1ccc2ccn(S(=O)(=O)c3ccccc3)c2c1Cl (protonated)
CC(F)(F)C(=O)[N-]c1ccc2ccn(S(=O)(=O)c3ccccc3)c2c1Cl (3D coordinates assigned)
CC(F)(F)C(=O)[N-]c1ccc2ccn(S(=O)(=O)c3ccccc3)c2c1Cl (optimized conformer: 80.25572687560535 kcal/mol)

>  <smiles>  (52) 
CC(F)(F)C(=O)Nc1ccc2ccn(S(=O)(=O)c3ccccc3)c2c1Cl

>  <score_type>  (52) 
oracle

>  <origin>  (52) 
adg

>  <m_score__min__energy>  (52) 
-10.109999999999999

>  <m_primary>  (52) 
energy

$$$$
52:0
     RDKit          3D

 16 16  0  0  0  0  0  0  0  0999 V2000
   51.4540   32.6910   48.5940 H   0  0  0  0  0  0  0  0  0  0  0  0
   50.8720   32.3200   49.3770 N   0  0  0  0  0  0  0  0  0  0  0  0
   51.4050   31.9790   50.5040 C   0  0  0  0  0  0  0  0  0  0  0  0
   51.0250   32.4760   51.6950 N   0  0  0  0  0  0  0  0  0  0  0  0
   51.8020   31.8880   52.5920 N   0  0  0  0  0  0  0  0  0  0  0  0
   52.6180   31.0590   51.9070 C   0  0  0  0  0  0  0  0  0  0  0  0
   53.6780   30.1990   52.5340 C   0  0  1  0  0  0  0  0  0  0  0  0
   54.5450   30.8327   52.7724 H   0  0  0  0  0  0  0  0  0  0  0  0
   53.1640   29.5910   53.8120 C   0  0  0  0  0  0  0  0  0  0  0  0
   52.7401   30.2416   54.5911 H   0  0  0  0  0  0  0  0  0  0  0  0
   53.2120   28.3850   53.9940 O   0  0  0  0  0  0  0  0  0  0  0  0
   54.1300   29.1590   51.6030 N   0  0  0  0  0  0  0  0  0  0  0  0
   54.0710   28.2120   52.0440 H   0  0  0  0  0  0  0  0  0  0  0  0
   55.1200   29.3450   51.3220 H   0  0  0  0  0  0  0  0  0  0  0  0
   53.5360   29.1740   50.7430 H   0  0  0  0  0  0  0  0  0  0  0  0
   52.3800   31.1130   50.6170 O   0  0  0  0  0  0  0  0  0  0  0  0
  1  2  1  0
  2  3  2  0
  3  4  1  0
  4  5  1  0
  5  6  2  0
  6  7  1  0
  7  8  1  1
  7  9  1  0
  9 10  1  0
  9 11  2  0
  7 12  1  0
 12 13  1  0
 12 14  1  0
 12 15  1  0
  6 16  1  0
 16  3  1  0
M  CHG  2   4  -1  12   1
M  END
>  <UniqueID>  (53) 
47

>  <SMILES>  (53) 
[H]/N=c1\[n-]nc([C@H]([NH3+])C=O)o1

>  <Energy>  (53) 
47.181504405242144

>  <Genealogy>  (53) 
N=c1[n-]nc(C([NH3+])C=O)o1 (protonated)
N=c1[n-]nc([C@H]([NH3+])C=O)o1 (chirality)
[H]/N=c1\[n-]nc([C@H]([NH3+])C=O)o1 (cis-trans isomerization)
[H]/N=c1\[n-]nc([C@H]([NH3+])C=O)o1 (3D coordinates assigned)
[H]/N=c1\[n-]nc([C@H]([NH3+])C=O)o1 (optimized conformer: 47.181504405242144 kcal/mol)

>  <smiles>  (53) 
N=c1[nH]nc(C(N)C=O)o1

>  <score_type>  (53) 
oracle

>  <origin>  (53) 
adg

>  <m_score__min__energy>  (53) 
-5.7699999999999996

>  <m_primary>  (53) 
energy

$$$$
53:0
     RDKit          3D

 53 55  0  0  0  0  0  0  0  0999 V2000
   56.9930   30.5680   52.0780 C   0  0  0  0  0  0  0  0  0  0  0  0
   57.6960   30.1140   50.9250 O   0  0  0  0  0  0  0  0  0  0  0  0
   58.6320   30.8810   50.2160 C   0  0  0  0  0  0  0  0  0  0  0  0
   58.6350   32.2680   50.4050 C   0  0  0  0  0  0  0  0  0  0  0  0
   59.5380   33.0770   49.7110 C   0  0  0  0  0  0  0  0  0  0  0  0
   60.4680   32.5060   48.8290 C   0  0  0  0  0  0  0  0  0  0  0  0
   61.3970   33.3800   48.0340 C   0  0  0  0  0  0  0  0  0  0  0  0
   60.8920   33.4950   46.6620 N   0  0  0  0  0  0  0  0  0  0  0  0
   60.3510   34.8360   46.4070 C   0  0  0  0  0  0  0  0  0  0  0  0
   58.8480   34.7630   46.1070 C   0  0  0  0  0  0  0  0  0  0  0  0
   58.4610   33.4020   45.5850 C   0  0  0  0  0  0  0  0  0  0  0  0
   58.2440   32.3390   46.4760 C   0  0  0  0  0  0  0  0  0  0  0  0
   57.7720   31.1110   46.0060 C   0  0  0  0  0  0  0  0  0  0  0  0
   57.4960   30.9350   44.6450 C   0  0  0  0  0  0  0  0  0  0  0  0
   56.8030   29.4180   44.0730 S   0  0  0  0  0  0  0  0  0  0  0  0
   55.5680   29.1050   44.8710 O   0  0  0  0  0  0  0  0  0  0  0  0
   56.3910   29.5840   42.6360 O   0  0  0  0  0  0  0  0  0  0  0  0
   57.9300   28.0810   44.2000 N   0  0  0  0  0  0  0  0  0  0  0  0
   59.3000   28.5160   44.5500 C   0  0  0  0  0  0  0  0  0  0  0  0
   59.6460   28.2760   46.0290 C   0  0  0  0  0  0  0  0  0  0  0  0
   58.4860   28.3540   46.8230 O   0  0  0  0  0  0  0  0  0  0  0  0
   57.6540   27.2400   46.5630 C   0  0  0  0  0  0  0  0  0  0  0  0
   57.4190   26.9910   45.0530 C   0  0  0  0  0  0  0  0  0  0  0  0
   57.7370   31.9860   43.7490 C   0  0  0  0  0  0  0  0  0  0  0  0
   58.2140   33.2140   44.2160 C   0  0  0  0  0  0  0  0  0  0  0  0
   60.4680   31.1160   48.6360 C   0  0  0  0  0  0  0  0  0  0  0  0
   59.5600   30.3060   49.3260 C   0  0  0  0  0  0  0  0  0  0  0  0
   57.5171   30.2295   52.9839 H   0  0  0  0  0  0  0  0  0  0  0  0
   56.9468   31.6670   52.0702 H   0  0  0  0  0  0  0  0  0  0  0  0
   55.9723   30.1580   52.0702 H   0  0  0  0  0  0  0  0  0  0  0  0
   57.9205   32.7246   51.1057 H   0  0  0  0  0  0  0  0  0  0  0  0
   59.5199   34.1672   49.8567 H   0  0  0  0  0  0  0  0  0  0  0  0
   61.4464   34.3784   48.4931 H   0  0  0  0  0  0  0  0  0  0  0  0
   62.4035   32.9363   48.0222 H   0  0  0  0  0  0  0  0  0  0  0  0
   61.6930   33.3350   46.0060 H   0  0  0  0  0  0  0  0  0  0  0  0
   60.5125   35.4659   47.2942 H   0  0  0  0  0  0  0  0  0  0  0  0
   60.8663   35.2670   45.5360 H   0  0  0  0  0  0  0  0  0  0  0  0
   58.2874   34.9653   47.0316 H   0  0  0  0  0  0  0  0  0  0  0  0
   58.6099   35.5117   45.3371 H   0  0  0  0  0  0  0  0  0  0  0  0
   58.4465   32.4736   47.5488 H   0  0  0  0  0  0  0  0  0  0  0  0
   57.6166   30.2789   46.7084 H   0  0  0  0  0  0  0  0  0  0  0  0
   60.0149   27.9580   43.9275 H   0  0  0  0  0  0  0  0  0  0  0  0
   59.3578   29.5996   44.3697 H   0  0  0  0  0  0  0  0  0  0  0  0
   60.0941   27.2775   46.1390 H   0  0  0  0  0  0  0  0  0  0  0  0
   60.3570   29.0477   46.3590 H   0  0  0  0  0  0  0  0  0  0  0  0
   58.1240   26.3445   46.9956 H   0  0  0  0  0  0  0  0  0  0  0  0
   56.6739   27.4526   47.0148 H   0  0  0  0  0  0  0  0  0  0  0  0
   57.9263   26.0572   44.7691 H   0  0  0  0  0  0  0  0  0  0  0  0
   56.3319   26.9336   44.8955 H   0  0  0  0  0  0  0  0  0  0  0  0
   57.5500   31.8437   42.6744 H   0  0  0  0  0  0  0  0  0  0  0  0
   58.3965   34.0360   43.5082 H   0  0  0  0  0  0  0  0  0  0  0  0
   61.1862   30.6608   47.9381 H   0  0  0  0  0  0  0  0  0  0  0  0
   59.5707   29.2167   49.1731 H   0  0  0  0  0  0  0  0  0  0  0  0
  1  2  1  0
  2  3  1  0
  3  4  2  0
  4  5  1  0
  5  6  2  0
  6  7  1  0
  7  8  1  0
  8  9  1  0
  9 10  1  0
 10 11  1  0
 11 12  2  0
 12 13  1  0
 13 14  2  0
 14 15  1  0
 15 16  2  0
 15 17  2  0
 15 18  1  0
 18 19  1  0
 19 20  1  0
 20 21  1  0
 21 22  1  0
 22 23  1  0
 14 24  1  0
 24 25  2  0
  6 26  1  0
 26 27  2  0
 27  3  1  0
 25 11  1  0
 23 18  1  0
  1 28  1  0
  1 29  1  0
  1 30  1  0
  4 31  1  0
  5 32  1  0
  7 33  1  0
  7 34  1  0
  8 35  1  0
  9 36  1  0
  9 37  1  0
 10 38  1  0
 10 39  1  0
 12 40  1  0
 13 41  1  0
 19 42  1  0
 19 43  1  0
 20 44  1  0
 20 45  1  0
 22 46  1  0
 22 47  1  0
 23 48  1  0
 23 49  1  0
 24 50  1  0
 25 51  1  0
 26 52  1  0
 27 53  1  0
M  END
>  <UniqueID>  (54) 
48

>  <SMILES>  (54) 
COc1ccc(CNCCc2ccc(S(=O)(=O)N3CCOCC3)cc2)cc1

>  <Energy>  (54) 
56.124883237091026

>  <Genealogy>  (54) 
COc1ccc(CNCCc2ccc(S(=O)(=O)N3CCOCC3)cc2)cc1 (3D coordinates assigned)
COc1ccc(CNCCc2ccc(S(=O)(=O)N3CCOCC3)cc2)cc1 (nonaromatic ring conformer: 56.124883237091026 kcal/mol)

>  <smiles>  (54) 
COc1ccc(CNCCc2ccc(S(=O)(=O)N3CCOCC3)cc2)cc1

>  <score_type>  (54) 
oracle

>  <origin>  (54) 
adg

>  <m_score__min__energy>  (54) 
-8.3900000000000006

>  <m_primary>  (54) 
energy

$$$$
54:0
     RDKit          3D

 49 53  0  0  0  0  0  0  0  0999 V2000
   56.3200   27.5660   46.8490 H   0  0  0  0  0  0  0  0  0  0  0  0
   55.9360   27.1100   45.9920 N   0  0  0  0  0  0  0  0  0  0  0  0
   55.8130   25.8250   45.9030 C   0  0  0  0  0  0  0  0  0  0  0  0
   54.5690   25.2710   45.8250 N   0  0  0  0  0  0  0  0  0  0  0  0
   54.3700   23.9290   45.6900 C   0  0  0  0  0  0  0  0  0  0  0  0
   53.3452   23.5310   45.6520 H   0  0  0  0  0  0  0  0  0  0  0  0
   55.4620   23.0500   45.5990 C   0  0  0  0  0  0  0  0  0  0  0  0
   55.2420   21.5950   45.4240 C   0  0  0  0  0  0  0  0  0  0  0  0
   54.1280   20.9680   46.0030 C   0  0  0  0  0  0  0  0  0  0  0  0
   53.4168   21.5575   46.6002 H   0  0  0  0  0  0  0  0  0  0  0  0
   53.9240   19.6350   45.8290 N   0  0  0  0  0  0  0  0  0  0  0  0
   54.7730   18.8710   45.0920 C   0  0  0  0  0  0  0  0  0  0  0  0
   54.5810   17.7945   44.9722 H   0  0  0  0  0  0  0  0  0  0  0  0
   55.8890   19.4530   44.4870 C   0  0  0  0  0  0  0  0  0  0  0  0
   56.5786   18.8403   43.8878 H   0  0  0  0  0  0  0  0  0  0  0  0
   56.1210   20.8200   44.6500 C   0  0  0  0  0  0  0  0  0  0  0  0
   56.9929   21.2904   44.1719 H   0  0  0  0  0  0  0  0  0  0  0  0
   56.7420   23.6140   45.6880 C   0  0  0  0  0  0  0  0  0  0  0  0
   58.2350   22.8380   45.6470 S   0  0  0  0  0  0  0  0  0  0  0  0
   59.1610   24.2310   45.8320 C   0  0  0  0  0  0  0  0  0  0  0  0
   60.2601   24.2683   45.8547 H   0  0  0  0  0  0  0  0  0  0  0  0
   58.3110   25.3310   45.9520 C   0  0  0  0  0  0  0  0  0  0  0  0
   58.8410   26.6850   46.2040 C   0  0  0  0  0  0  0  0  0  0  0  0
   59.4830   26.9830   47.4150 C   0  0  0  0  0  0  0  0  0  0  0  0
   59.5703   26.2108   48.1935 H   0  0  0  0  0  0  0  0  0  0  0  0
   60.0120   28.2570   47.6360 C   0  0  0  0  0  0  0  0  0  0  0  0
   60.5154   28.4815   48.5880 H   0  0  0  0  0  0  0  0  0  0  0  0
   59.9060   29.2520   46.6530 C   0  0  0  0  0  0  0  0  0  0  0  0
   60.4800   30.5470   46.8990 N   0  0  0  0  0  0  0  0  0  0  0  0
   61.2860   30.5940   47.5620 H   0  0  0  0  0  0  0  0  0  0  0  0
   59.9530   31.7760   46.3690 C   0  0  0  0  0  0  0  0  0  0  0  0
   58.9640   31.7660   45.5900 O   0  0  0  0  0  0  0  0  0  0  0  0
   60.5600   33.0330   46.6900 N   0  0  0  0  0  0  0  0  0  0  0  0
   61.6070   33.2400   47.6490 C   0  0  0  0  0  0  0  0  0  0  0  0
   62.8900   32.7550   47.3680 C   0  0  0  0  0  0  0  0  0  0  0  0
   63.0740   32.2022   46.4350 H   0  0  0  0  0  0  0  0  0  0  0  0
   63.9390   32.9700   48.2680 C   0  0  0  0  0  0  0  0  0  0  0  0
   64.9415   32.5744   48.0478 H   0  0  0  0  0  0  0  0  0  0  0  0
   63.7150   33.6870   49.4470 C   0  0  0  0  0  0  0  0  0  0  0  0
   64.7320   33.8960   50.3180 F   0  0  0  0  0  0  0  0  0  0  0  0
   62.4430   34.1990   49.7220 C   0  0  0  0  0  0  0  0  0  0  0  0
   62.2682   34.7696   50.6460 H   0  0  0  0  0  0  0  0  0  0  0  0
   61.3930   33.9860   48.8230 C   0  0  0  0  0  0  0  0  0  0  0  0
   60.3971   34.4027   49.0341 H   0  0  0  0  0  0  0  0  0  0  0  0
   59.3030   28.9380   45.4220 C   0  0  0  0  0  0  0  0  0  0  0  0
   59.2473   29.6989   44.6296 H   0  0  0  0  0  0  0  0  0  0  0  0
   58.7740   27.6630   45.2010 C   0  0  0  0  0  0  0  0  0  0  0  0
   58.3029   27.4257   44.2357 H   0  0  0  0  0  0  0  0  0  0  0  0
   56.9400   24.9810   45.8610 C   0  0  0  0  0  0  0  0  0  0  0  0
  1  2  1  0
  2  3  2  0
  3  4  1  0
  4  5  1  0
  5  6  1  0
  5  7  2  0
  7  8  1  0
  8  9  2  0
  9 10  1  0
  9 11  1  0
 11 12  2  0
 12 13  1  0
 12 14  1  0
 14 15  1  0
 14 16  2  0
 16 17  1  0
  7 18  1  0
 18 19  1  0
 19 20  1  0
 20 21  1  0
 20 22  2  0
 22 23  1  0
 23 24  2  0
 24 25  1  0
 24 26  1  0
 26 27  1  0
 26 28  2  0
 28 29  1  0
 29 30  1  0
 29 31  1  0
 31 32  2  0
 31 33  1  0
 33 34  1  0
 34 35  2  0
 35 36  1  0
 35 37  1  0
 37 38  1  0
 37 39  2  0
 39 40  1  0
 39 41  1  0
 41 42  1  0
 41 43  2  0
 43 44  1  0
 28 45  1  0
 45 46  1  0
 45 47  2  0
 47 48  1  0
 22 49  1  0
 49  3  1  0
 16  8  1  0
 49 18  2  0
 47 23  1  0
 43 34  1  0
M  CHG  2   4  -1  33  -1
M  END
>  <UniqueID>  (55) 
49

>  <SMILES>  (55) 
[H]/N=c1\[n-]cc(-c2cccnc2)c2scc(-c3ccc(NC(=O)[N-]c4ccc(F)cc4)cc3)c12

>  <Energy>  (55) 
112.03594782520345

>  <Genealogy>  (55) 
N=c1[n-]cc(-c2cccnc2)c2scc(-c3ccc(NC(=O)[N-]c4ccc(F)cc4)cc3)c12 (protonated)
[H]/N=c1\[n-]cc(-c2cccnc2)c2scc(-c3ccc(NC(=O)[N-]c4ccc(F)cc4)cc3)c12 (cis-trans isomerization)
[H]/N=c1\[n-]cc(-c2cccnc2)c2scc(-c3ccc(NC(=O)[N-]c4ccc(F)cc4)cc3)c12 (3D coordinates assigned)
[H]/N=c1\[n-]cc(-c2cccnc2)c2scc(-c3ccc(NC(=O)[N-]c4ccc(F)cc4)cc3)c12 (optimized conformer: 112.03594782520345 kcal/mol)

>  <smiles>  (55) 
N=c1[nH]cc(-c2cccnc2)c2scc(-c3ccc(NC(=O)Nc4ccc(F)cc4)cc3)c12

>  <score_type>  (55) 
oracle

>  <origin>  (55) 
adg

>  <m_score__min__energy>  (55) 
-10.609999999999999

>  <m_primary>  (55) 
energy

$$$$
55:0
     RDKit          3D

 38 41  0  0  0  0  0  0  0  0999 V2000
   60.5360   30.6070   48.7190 C   0  0  0  0  0  0  0  0  0  0  0  0
   59.5690   30.7840   47.5930 C   0  0  0  0  0  0  0  0  0  0  0  0
   59.3270   29.7540   46.7430 N   0  0  0  0  0  0  0  0  0  0  0  0
   58.4890   29.8950   45.6860 C   0  0  0  0  0  0  0  0  0  0  0  0
   58.2580   28.8120   44.8300 C   0  0  0  0  0  0  0  0  0  0  0  0
   57.4030   28.9540   43.7350 C   0  0  0  0  0  0  0  0  0  0  0  0
   56.7780   30.1790   43.4890 C   0  0  0  0  0  0  0  0  0  0  0  0
   57.0030   31.2680   44.3350 C   0  0  0  0  0  0  0  0  0  0  0  0
   57.8610   31.1370   45.4440 C   0  0  0  0  0  0  0  0  0  0  0  0
   58.1400   32.1980   46.3290 C   0  0  0  0  0  0  0  0  0  0  0  0
   57.4670   33.8540   46.0800 S   0  0  0  0  0  0  0  0  0  0  0  0
   59.0930   34.6470   45.8030 C   0  0  0  0  0  0  0  0  0  0  0  0
   59.9830   34.4170   46.9480 N   0  0  0  0  0  0  0  0  0  0  0  0
   59.4750   34.5750   48.1730 N   0  0  0  0  0  0  0  0  0  0  0  0
   60.1860   34.3180   49.2690 N   0  0  0  0  0  0  0  0  0  0  0  0
   61.4620   33.8740   49.1830 C   0  0  0  0  0  0  0  0  0  0  0  0
   62.1880   33.5880   50.3450 C   0  0  0  0  0  0  0  0  0  0  0  0
   63.5020   33.1180   50.2490 C   0  0  0  0  0  0  0  0  0  0  0  0
   64.0910   32.9340   48.9930 C   0  0  0  0  0  0  0  0  0  0  0  0
   63.3700   33.2220   47.8290 C   0  0  0  0  0  0  0  0  0  0  0  0
   62.0480   33.6950   47.9190 C   0  0  0  0  0  0  0  0  0  0  0  0
   61.2750   33.9880   46.7870 C   0  0  0  0  0  0  0  0  0  0  0  0
   61.7630   33.8390   45.6330 O   0  0  0  0  0  0  0  0  0  0  0  0
   58.9730   31.9910   47.3860 N   0  0  0  0  0  0  0  0  0  0  0  0
   60.0047   30.7042   49.6773 H   0  0  0  0  0  0  0  0  0  0  0  0
   60.9957   29.6098   48.6542 H   0  0  0  0  0  0  0  0  0  0  0  0
   61.3192   31.3767   48.6542 H   0  0  0  0  0  0  0  0  0  0  0  0
   58.7509   27.8472   45.0201 H   0  0  0  0  0  0  0  0  0  0  0  0
   57.2214   28.1004   43.0654 H   0  0  0  0  0  0  0  0  0  0  0  0
   56.1056   30.2867   42.6252 H   0  0  0  0  0  0  0  0  0  0  0  0
   56.5087   32.2300   44.1343 H   0  0  0  0  0  0  0  0  0  0  0  0
   59.5521   34.2233   44.8977 H   0  0  0  0  0  0  0  0  0  0  0  0
   58.9430   35.7301   45.6829 H   0  0  0  0  0  0  0  0  0  0  0  0
   61.7258   33.7327   51.3326 H   0  0  0  0  0  0  0  0  0  0  0  0
   64.0730   32.8928   51.1618 H   0  0  0  0  0  0  0  0  0  0  0  0
   65.1236   32.5619   48.9206 H   0  0  0  0  0  0  0  0  0  0  0  0
   63.8368   33.0786   46.8433 H   0  0  0  0  0  0  0  0  0  0  0  0
   59.1800   32.7830   48.0350 H   0  0  0  0  0  0  0  0  0  0  0  0
  1  2  1  0
  2  3  2  0
  3  4  1  0
  4  5  2  0
  5  6  1  0
  6  7  2  0
  7  8  1  0
  8  9  2  0
  9 10  1  0
 10 11  1  0
 11 12  1  0
 12 13  1  0
 13 14  1  0
 14 15  2  0
 15 16  1  0
 16 17  2  0
 17 18  1  0
 18 19  2  0
 19 20  1  0
 20 21  2  0
 21 22  1  0
 22 23  2  0
 10 24  2  0
 24  2  1  0
  9  4  1  0
 22 13  1  0
 21 16  1  0
  1 25  1  0
  1 26  1  0
  1 27  1  0
  5 28  1  0
  6 29  1  0
  7 30  1  0
  8 31  1  0
 12 32  1  0
 12 33  1  0
 17 34  1  0
 18 35  1  0
 19 36  1  0
 20 37  1  0
 24 38  1  0
M  CHG  1  24   1
M  END
>  <UniqueID>  (56) 
50

>  <SMILES>  (56) 
Cc1nc2ccccc2c(SCn2nnc3ccccc3c2=O)[nH+]1

>  <Energy>  (56) 
45.348461842551146

>  <Genealogy>  (56) 
Cc1nc2ccccc2c(SCn2nnc3ccccc3c2=O)[nH+]1 (protonated)
Cc1nc2ccccc2c(SCn2nnc3ccccc3c2=O)[nH+]1 (3D coordinates assigned)
Cc1nc2ccccc2c(SCn2nnc3ccccc3c2=O)[nH+]1 (optimized conformer: 45.348461842551146 kcal/mol)

>  <smiles>  (56) 
Cc1nc(SCn2nnc3ccccc3c2=O)c2ccccc2n1

>  <score_type>  (56) 
oracle

>  <origin>  (56) 
adg

>  <m_score__min__energy>  (56) 
-6.4500000000000002

>  <m_primary>  (56) 
energy

$$$$
56:0
     RDKit          3D

 49 52  0  0  0  0  0  0  0  0999 V2000
   53.8710   24.8480   45.6140 C   0  0  0  0  0  0  0  0  0  0  0  0
   54.7120   25.9460   45.9500 O   0  0  0  0  0  0  0  0  0  0  0  0
   56.1140   25.8880   46.0090 C   0  0  0  0  0  0  0  0  0  0  0  0
   56.7950   24.7060   46.3650 C   0  0  0  0  0  0  0  0  0  0  0  0
   58.1910   24.6720   46.3800 C   0  0  0  0  0  0  0  0  0  0  0  0
   58.9230   25.8130   46.0510 C   0  0  0  0  0  0  0  0  0  0  0  0
   58.2610   26.9920   45.7050 C   0  0  0  0  0  0  0  0  0  0  0  0
   56.8560   27.0370   45.6740 C   0  0  0  0  0  0  0  0  0  0  0  0
   56.1780   28.2300   45.2470 N   0  0  0  0  0  0  0  0  0  0  0  0
   57.0600   29.6090   44.6750 S   0  0  0  0  0  0  0  0  0  0  0  0
   58.1590   29.1670   43.7510 O   0  0  0  0  0  0  0  0  0  0  0  0
   56.1200   30.5050   43.9180 O   0  0  0  0  0  0  0  0  0  0  0  0
   57.7700   30.4610   46.0630 C   0  0  0  0  0  0  0  0  0  0  0  0
   58.2050   29.7030   47.1440 C   0  0  0  0  0  0  0  0  0  0  0  0
   58.9500   30.2850   48.1610 C   0  0  0  0  0  0  0  0  0  0  0  0
   59.3400   29.5420   49.1050 O   0  0  0  0  0  0  0  0  0  0  0  0
   59.2790   31.6210   48.1330 N   0  0  0  0  0  0  0  0  0  0  0  0
   60.2290   32.1120   49.1620 C   0  0  0  0  0  0  0  0  0  0  0  0
   61.5360   32.5090   48.5170 C   0  0  0  0  0  0  0  0  0  0  0  0
   62.2700   31.5810   47.7640 C   0  0  0  0  0  0  0  0  0  0  0  0
   63.4450   31.9710   47.1200 C   0  0  0  0  0  0  0  0  0  0  0  0
   63.8790   33.2930   47.2310 C   0  0  0  0  0  0  0  0  0  0  0  0
   63.1600   34.1840   47.9630 N   0  0  0  0  0  0  0  0  0  0  0  0
   62.0130   33.8280   48.6010 C   0  0  0  0  0  0  0  0  0  0  0  0
   58.8030   32.4250   47.1040 C   0  0  0  0  0  0  0  0  0  0  0  0
   59.0660   33.8200   47.0440 C   0  0  0  0  0  0  0  0  0  0  0  0
   58.5910   34.6010   45.9930 C   0  0  0  0  0  0  0  0  0  0  0  0
   57.8320   34.0310   44.9810 C   0  0  0  0  0  0  0  0  0  0  0  0
   57.5420   32.6720   45.0110 C   0  0  0  0  0  0  0  0  0  0  0  0
   58.0250   31.8490   46.0520 C   0  0  0  0  0  0  0  0  0  0  0  0
   53.5055   24.3708   46.5352 H   0  0  0  0  0  0  0  0  0  0  0  0
   53.0158   25.2085   45.0235 H   0  0  0  0  0  0  0  0  0  0  0  0
   54.4418   24.1162   45.0235 H   0  0  0  0  0  0  0  0  0  0  0  0
   56.2233   23.8051   46.6326 H   0  0  0  0  0  0  0  0  0  0  0  0
   58.7145   23.7435   46.6518 H   0  0  0  0  0  0  0  0  0  0  0  0
   60.0225   25.7835   46.0643 H   0  0  0  0  0  0  0  0  0  0  0  0
   58.8422   27.8918   45.4549 H   0  0  0  0  0  0  0  0  0  0  0  0
   55.1600   28.1880   45.0190 H   0  0  0  0  0  0  0  0  0  0  0  0
   57.9568   28.6325   47.1942 H   0  0  0  0  0  0  0  0  0  0  0  0
   59.7946   32.9853   49.6706 H   0  0  0  0  0  0  0  0  0  0  0  0
   60.4169   31.3090   49.8899 H   0  0  0  0  0  0  0  0  0  0  0  0
   61.9183   30.5421   47.6807 H   0  0  0  0  0  0  0  0  0  0  0  0
   64.0233   31.2440   46.5309 H   0  0  0  0  0  0  0  0  0  0  0  0
   64.8024   33.6134   46.7263 H   0  0  0  0  0  0  0  0  0  0  0  0
   61.4564   34.5756   49.1852 H   0  0  0  0  0  0  0  0  0  0  0  0
   59.6562   34.2924   47.8431 H   0  0  0  0  0  0  0  0  0  0  0  0
   58.8191   35.6767   45.9651 H   0  0  0  0  0  0  0  0  0  0  0  0
   57.4598   34.6547   44.1549 H   0  0  0  0  0  0  0  0  0  0  0  0
   56.9274   32.2312   44.2123 H   0  0  0  0  0  0  0  0  0  0  0  0
  1  2  1  0
  2  3  1  0
  3  4  2  0
  4  5  1  0
  5  6  2  0
  6  7  1  0
  7  8  2  0
  8  9  1  0
  9 10  1  0
 10 11  2  0
 10 12  2  0
 10 13  1  0
 13 14  2  0
 14 15  1  0
 15 16  2  0
 15 17  1  0
 17 18  1  0
 18 19  1  0
 19 20  2  0
 20 21  1  0
 21 22  2  0
 22 23  1  0
 23 24  2  0
 17 25  1  0
 25 26  2  0
 26 27  1  0
 27 28  2  0
 28 29  1  0
 29 30  2  0
  8  3  1  0
 30 13  1  0
 24 19  1  0
 30 25  1  0
  1 31  1  0
  1 32  1  0
  1 33  1  0
  4 34  1  0
  5 35  1  0
  6 36  1  0
  7 37  1  0
  9 38  1  0
 14 39  1  0
 18 40  1  0
 18 41  1  0
 20 42  1  0
 21 43  1  0
 22 44  1  0
 24 45  1  0
 26 46  1  0
 27 47  1  0
 28 48  1  0
 29 49  1  0
M  END
>  <UniqueID>  (57) 
51

>  <SMILES>  (57) 
COc1ccccc1NS(=O)(=O)c1cc(=O)n(Cc2cccnc2)c2ccccc12

>  <Energy>  (57) 
71.25207283371978

>  <Genealogy>  (57) 
COc1ccccc1NS(=O)(=O)c1cc(=O)n(Cc2cccnc2)c2ccccc12 (3D coordinates assigned)
COc1ccccc1NS(=O)(=O)c1cc(=O)n(Cc2cccnc2)c2ccccc12 (optimized conformer: 71.25207283371978 kcal/mol)

>  <smiles>  (57) 
COc1ccccc1NS(=O)(=O)c1cc(=O)n(Cc2cccnc2)c2ccccc12

>  <score_type>  (57) 
oracle

>  <origin>  (57) 
adg

>  <m_score__min__energy>  (57) 
-10.01

>  <m_primary>  (57) 
energy

$$$$
57:0
     RDKit          3D

 47 50  0  0  0  0  0  0  0  0999 V2000
   58.5000   32.7770   44.0820 C   0  0  0  0  0  0  0  0  0  0  0  0
   57.8850   31.6110   44.8980 C   0  0  0  0  0  0  0  0  0  0  0  0
   56.3930   31.5150   44.4870 C   0  0  0  0  0  0  0  0  0  0  0  0
   57.9170   32.0050   46.4040 C   0  0  0  0  0  0  0  0  0  0  0  0
   59.3140   31.9880   47.0460 C   0  0  0  0  0  0  0  0  0  0  0  0
   60.2320   30.8520   46.5630 C   0  0  0  0  0  0  0  0  0  0  0  0
   59.4900   29.7110   45.8380 C   0  0  2  0  0  0  0  0  0  0  0  0
   60.4950   28.6770   45.3130 C   0  0  0  0  0  0  0  0  0  0  0  0
   59.5910   27.4950   45.0180 C   0  0  2  0  0  0  0  0  0  0  0  0
   58.7510   27.8230   43.7520 C   0  0  0  0  0  0  0  0  0  0  0  0
   57.9230   29.1250   43.8860 C   0  0  0  0  0  0  0  0  0  0  0  0
   58.7040   30.2720   44.6010 C   0  0  1  0  0  0  0  0  0  0  0  0
   58.7610   27.3940   46.3100 C   0  0  2  0  0  0  0  0  0  0  0  0
   57.5410   26.4810   46.1900 C   0  0  0  0  0  0  0  0  0  0  0  0
   57.5850   25.0700   46.2390 C   0  0  0  0  0  0  0  0  0  0  0  0
   56.4080   24.3250   46.1360 C   0  0  0  0  0  0  0  0  0  0  0  0
   55.1880   24.9850   45.9840 C   0  0  0  0  0  0  0  0  0  0  0  0
   54.1200   24.3250   45.8910 O   0  0  0  0  0  0  0  0  0  0  0  0
   55.1520   26.3400   45.9360 N   0  0  0  0  0  0  0  0  0  0  0  0
   56.2810   27.0900   46.0350 C   0  0  0  0  0  0  0  0  0  0  0  0
   58.5830   28.8610   46.7770 C   0  0  0  0  0  0  0  0  0  0  0  0
   58.9001   33.5356   44.7708 H   0  0  0  0  0  0  0  0  0  0  0  0
   59.3125   32.3924   43.4481 H   0  0  0  0  0  0  0  0  0  0  0  0
   57.7237   33.2304   43.4481 H   0  0  0  0  0  0  0  0  0  0  0  0
   55.7659   31.4746   45.3898 H   0  0  0  0  0  0  0  0  0  0  0  0
   56.1197   32.3974   43.8898 H   0  0  0  0  0  0  0  0  0  0  0  0
   56.2350   30.6048   43.8898 H   0  0  0  0  0  0  0  0  0  0  0  0
   57.5086   33.0218   46.5003 H   0  0  0  0  0  0  0  0  0  0  0  0
   57.3232   31.2464   46.9350 H   0  0  0  0  0  0  0  0  0  0  0  0
   59.8062   32.9454   46.8198 H   0  0  0  0  0  0  0  0  0  0  0  0
   59.1582   31.8238   48.1225 H   0  0  0  0  0  0  0  0  0  0  0  0
   60.9735   31.2772   45.8706 H   0  0  0  0  0  0  0  0  0  0  0  0
   60.6930   30.4124   47.4598 H   0  0  0  0  0  0  0  0  0  0  0  0
   60.9992   29.0336   44.4027 H   0  0  0  0  0  0  0  0  0  0  0  0
   61.3121   28.4513   46.0140 H   0  0  0  0  0  0  0  0  0  0  0  0
   60.0901   26.5413   44.7916 H   0  0  0  0  0  0  0  0  0  0  0  0
   59.4352   27.9308   42.8974 H   0  0  0  0  0  0  0  0  0  0  0  0
   58.0384   26.9970   43.6111 H   0  0  0  0  0  0  0  0  0  0  0  0
   57.6416   29.4669   42.8791 H   0  0  0  0  0  0  0  0  0  0  0  0
   57.0413   28.8931   44.5015 H   0  0  0  0  0  0  0  0  0  0  0  0
   59.4354   30.6348   43.8639 H   0  0  0  0  0  0  0  0  0  0  0  0
   59.2551   26.8454   47.1254 H   0  0  0  0  0  0  0  0  0  0  0  0
   58.5500   24.5559   46.3587 H   0  0  0  0  0  0  0  0  0  0  0  0
   56.4426   23.2262   46.1744 H   0  0  0  0  0  0  0  0  0  0  0  0
   56.2095   28.1869   45.9935 H   0  0  0  0  0  0  0  0  0  0  0  0
   57.5320   29.1705   46.6793 H   0  0  0  0  0  0  0  0  0  0  0  0
   58.8582   28.9884   47.8344 H   0  0  0  0  0  0  0  0  0  0  0  0
  1  2  1  0
  2  3  1  0
  2  4  1  0
  4  5  1  0
  5  6  1  0
  7  6  1  1
  7  8  1  0
  8  9  1  0
  9 10  1  0
 10 11  1  0
 11 12  1  0
  9 13  1  0
 13 14  1  0
 14 15  1  0
 15 16  2  0
 16 17  1  0
 17 18  2  0
 17 19  1  0
 19 20  1  0
 13 21  1  0
 12  2  1  0
 20 14  2  0
 12  7  1  0
 21  7  1  0
  1 22  1  0
  1 23  1  0
  1 24  1  0
  3 25  1  0
  3 26  1  0
  3 27  1  0
  4 28  1  0
  4 29  1  0
  5 30  1  0
  5 31  1  0
  6 32  1  0
  6 33  1  0
  8 34  1  0
  8 35  1  0
  9 36  1  6
 10 37  1  0
 10 38  1  0
 11 39  1  0
 11 40  1  0
 12 41  1  6
 13 42  1  1
 15 43  1  0
 16 44  1  0
 20 45  1  0
 21 46  1  0
 21 47  1  0
M  CHG  1  19  -1
M  END
>  <UniqueID>  (58) 
52

>  <SMILES>  (58) 
CC1(C)CCC[C@@]23CC(c4ccc(=O)[n-]c4)[C@@H](CCC12)C3

>  <Energy>  (58) 
79.89991061546081

>  <Genealogy>  (58) 
CC1(C)CCCC23CC(CCC12)C(c1ccc(=O)[n-]c1)C3 (protonated)
CC1(C)CCC[C@@]23CC(c4ccc(=O)[n-]c4)[C@@H](CCC12)C3 (chirality)
CC1(C)CCC[C@@]23CC(c4ccc(=O)[n-]c4)[C@@H](CCC12)C3 (3D coordinates assigned)
CC1(C)CCC[C@@]23CC(c4ccc(=O)[n-]c4)[C@@H](CCC12)C3 (nonaromatic ring conformer: 79.89991061546081 kcal/mol)

>  <smiles>  (58) 
CC1(C)CCCC23CC(CCC12)C(c1ccc(=O)[nH]c1)C3

>  <score_type>  (58) 
oracle

>  <origin>  (58) 
adg

>  <m_score__min__energy>  (58) 
-10.48

>  <m_primary>  (58) 
energy

$$$$
58:0
     RDKit          3D

 39 42  0  0  0  0  0  0  0  0999 V2000
   58.1370   26.7290   42.6710 C   0  0  0  0  0  0  0  0  0  0  0  0
   57.3750   27.9310   42.6240 O   0  0  0  0  0  0  0  0  0  0  0  0
   57.5060   28.9870   43.5370 C   0  0  0  0  0  0  0  0  0  0  0  0
   56.7810   30.1870   43.4150 C   0  0  0  0  0  0  0  0  0  0  0  0
   56.9460   31.2090   44.3530 C   0  0  0  0  0  0  0  0  0  0  0  0
   57.8260   31.0540   45.4360 C   0  0  0  0  0  0  0  0  0  0  0  0
   58.0050   32.2030   46.4180 C   0  0  2  0  0  0  0  0  0  0  0  0
   57.4250   33.4650   45.8980 N   0  0  0  0  0  0  0  0  0  0  0  0
   58.2870   34.1510   44.9160 C   0  0  0  0  0  0  0  0  0  0  0  0
   59.6170   34.5990   45.5520 C   0  0  0  0  0  0  0  0  0  0  0  0
   60.1850   33.4790   46.3600 C   0  0  0  0  0  0  0  0  0  0  0  0
   59.4430   32.4070   46.8080 C   0  0  0  0  0  0  0  0  0  0  0  0
   60.1920   31.5700   47.5600 N   0  0  0  0  0  0  0  0  0  0  0  0
   61.4130   32.1370   47.6050 C   0  0  0  0  0  0  0  0  0  0  0  0
   62.5410   31.6610   48.2730 C   0  0  0  0  0  0  0  0  0  0  0  0
   63.7220   32.4240   48.1960 C   0  0  0  0  0  0  0  0  0  0  0  0
   63.7500   33.6310   47.4630 C   0  0  0  0  0  0  0  0  0  0  0  0
   62.5980   34.0880   46.7960 C   0  0  0  0  0  0  0  0  0  0  0  0
   61.4450   33.3110   46.8890 C   0  0  0  0  0  0  0  0  0  0  0  0
   58.5610   29.8570   45.5450 C   0  0  0  0  0  0  0  0  0  0  0  0
   58.3940   28.8350   44.6060 C   0  0  0  0  0  0  0  0  0  0  0  0
   58.3149   26.4484   43.7196 H   0  0  0  0  0  0  0  0  0  0  0  0
   57.5838   25.9241   42.1648 H   0  0  0  0  0  0  0  0  0  0  0  0
   59.1009   26.8859   42.1648 H   0  0  0  0  0  0  0  0  0  0  0  0
   56.0811   30.3209   42.5771 H   0  0  0  0  0  0  0  0  0  0  0  0
   56.3801   32.1457   44.2419 H   0  0  0  0  0  0  0  0  0  0  0  0
   57.4534   31.9174   47.3258 H   0  0  0  0  0  0  0  0  0  0  0  0
   56.5000   33.2670   45.4510 H   0  0  0  0  0  0  0  0  0  0  0  0
   58.5014   33.4625   44.0853 H   0  0  0  0  0  0  0  0  0  0  0  0
   57.7573   35.0449   44.5550 H   0  0  0  0  0  0  0  0  0  0  0  0
   60.3274   34.8761   44.7592 H   0  0  0  0  0  0  0  0  0  0  0  0
   59.4376   35.4668   46.2037 H   0  0  0  0  0  0  0  0  0  0  0  0
   59.8880   30.6760   48.0070 H   0  0  0  0  0  0  0  0  0  0  0  0
   62.5091   30.7199   48.8416 H   0  0  0  0  0  0  0  0  0  0  0  0
   64.6301   32.0772   48.7109 H   0  0  0  0  0  0  0  0  0  0  0  0
   64.6789   34.2181   47.4131 H   0  0  0  0  0  0  0  0  0  0  0  0
   62.6075   35.0259   46.2213 H   0  0  0  0  0  0  0  0  0  0  0  0
   59.2712   29.7257   46.3747 H   0  0  0  0  0  0  0  0  0  0  0  0
   58.9671   27.9018   44.7093 H   0  0  0  0  0  0  0  0  0  0  0  0
  1  2  1  0
  2  3  1  0
  3  4  2  0
  4  5  1  0
  5  6  2  0
  6  7  1  0
  7  8  1  0
  8  9  1  0
  9 10  1  0
 10 11  1  0
 11 12  2  0
 12 13  1  0
 13 14  1  0
 14 15  2  0
 15 16  1  0
 16 17  2  0
 17 18  1  0
 18 19  2  0
  6 20  1  0
 20 21  2  0
 21  3  1  0
 12  7  1  0
 19 14  1  0
 19 11  1  0
  1 22  1  0
  1 23  1  0
  1 24  1  0
  4 25  1  0
  5 26  1  0
  7 27  1  1
  8 28  1  0
  9 29  1  0
  9 30  1  0
 10 31  1  0
 10 32  1  0
 13 33  1  0
 15 34  1  0
 16 35  1  0
 17 36  1  0
 18 37  1  0
 20 38  1  0
 21 39  1  0
M  END
>  <UniqueID>  (59) 
53

>  <SMILES>  (59) 
COc1ccc([C@@H]2NCCc3c2[nH]c2ccccc32)cc1

>  <Energy>  (59) 
80.59986741165082

>  <Genealogy>  (59) 
COc1ccc([C@@H]2NCCc3c2[nH]c2ccccc32)cc1 (chirality)
COc1ccc([C@@H]2NCCc3c2[nH]c2ccccc32)cc1 (3D coordinates assigned)
COc1ccc([C@@H]2NCCc3c2[nH]c2ccccc32)cc1 (nonaromatic ring conformer: 80.59986741165082 kcal/mol)

>  <smiles>  (59) 
COc1ccc(C2NCCc3c2[nH]c2ccccc32)cc1

>  <score_type>  (59) 
oracle

>  <origin>  (59) 
adg

>  <m_score__min__energy>  (59) 
-7.1100000000000003

>  <m_primary>  (59) 
energy

$$$$
59:0
     RDKit          3D

 65 70  0  0  0  0  0  0  0  0999 V2000
   61.4177   33.8754   51.5330 H   0  0  0  0  0  0  0  0  0  0  0  0
   61.2950   33.0600   50.8050 C   0  0  0  0  0  0  0  0  0  0  0  0
   60.6740   31.9740   51.1760 N   0  0  0  0  0  0  0  0  0  0  0  0
   60.3030   30.9120   50.2830 C   0  0  0  0  0  0  0  0  0  0  0  0
   61.0710   29.7420   50.2410 C   0  0  0  0  0  0  0  0  0  0  0  0
   61.8929   29.5976   50.9577 H   0  0  0  0  0  0  0  0  0  0  0  0
   60.7930   28.7560   49.2870 C   0  0  0  0  0  0  0  0  0  0  0  0
   61.4158   27.8508   49.2351 H   0  0  0  0  0  0  0  0  0  0  0  0
   59.7210   28.9210   48.3970 C   0  0  0  0  0  0  0  0  0  0  0  0
   55.8630   25.1680   46.7090 N   0  0  0  0  0  0  0  0  0  0  0  0
   56.4580   26.3030   46.4840 C   0  0  0  0  0  0  0  0  0  0  0  0
   57.7380   28.6520   46.0210 N   0  0  0  0  0  0  0  0  0  0  0  0
   56.5500   28.4000   45.4100 C   0  0  0  0  0  0  0  0  0  0  0  0
   55.9420   29.3670   44.5440 N   0  0  0  0  0  0  0  0  0  0  0  0
   54.9010   29.3450   44.4560 H   0  0  0  0  0  0  0  0  0  0  0  0
   56.6450   30.4630   43.9330 C   0  0  0  0  0  0  0  0  0  0  0  0
   57.2830   31.4080   44.7490 C   0  0  0  0  0  0  0  0  0  0  0  0
   57.2231   31.3155   45.8435 H   0  0  0  0  0  0  0  0  0  0  0  0
   57.9940   32.4660   44.1790 C   0  0  0  0  0  0  0  0  0  0  0  0
   58.5127   33.1904   44.8241 H   0  0  0  0  0  0  0  0  0  0  0  0
   58.0470   32.6050   42.7910 C   0  0  0  0  0  0  0  0  0  0  0  0
   58.6135   33.4347   42.3431 H   0  0  0  0  0  0  0  0  0  0  0  0
   57.3810   31.6910   41.9700 C   0  0  0  0  0  0  0  0  0  0  0  0
   57.4079   31.8124   40.8771 H   0  0  0  0  0  0  0  0  0  0  0  0
   56.6810   30.6230   42.5370 C   0  0  0  0  0  0  0  0  0  0  0  0
   56.1565   29.9053   41.8890 H   0  0  0  0  0  0  0  0  0  0  0  0
   55.9140   27.2240   45.6460 N   0  0  0  0  0  0  0  0  0  0  0  0
   58.2940   27.7350   46.8520 C   0  0  0  0  0  0  0  0  0  0  0  0
   59.4680   27.9620   47.3620 N   0  0  0  0  0  0  0  0  0  0  0  0
   56.5340   23.8670   46.7280 C   0  0  0  0  0  0  0  0  0  0  0  0
   57.5621   23.9936   47.0981 H   0  0  0  0  0  0  0  0  0  0  0  0
   55.9785   23.1858   47.3893 H   0  0  0  0  0  0  0  0  0  0  0  0
   56.5730   23.2820   45.3390 C   0  0  0  0  0  0  0  0  0  0  0  0
   57.4190   22.2010   45.0400 C   0  0  0  0  0  0  0  0  0  0  0  0
   58.0654   21.7771   45.8226 H   0  0  0  0  0  0  0  0  0  0  0  0
   57.4410   21.6630   43.7500 C   0  0  0  0  0  0  0  0  0  0  0  0
   58.1028   20.8150   43.5201 H   0  0  0  0  0  0  0  0  0  0  0  0
   56.6230   22.2010   42.7510 C   0  0  0  0  0  0  0  0  0  0  0  0
   56.6566   21.7887   41.7317 H   0  0  0  0  0  0  0  0  0  0  0  0
   55.7640   23.2610   43.0470 C   0  0  0  0  0  0  0  0  0  0  0  0
   55.1060   23.6694   42.2658 H   0  0  0  0  0  0  0  0  0  0  0  0
   55.7390   23.8040   44.3350 C   0  0  0  0  0  0  0  0  0  0  0  0
   55.0646   24.6424   44.5635 H   0  0  0  0  0  0  0  0  0  0  0  0
   57.6460   26.5620   47.0840 N   0  0  0  0  0  0  0  0  0  0  0  0
   58.9030   30.0530   48.4970 C   0  0  0  0  0  0  0  0  0  0  0  0
   58.0253   30.1557   47.8419 H   0  0  0  0  0  0  0  0  0  0  0  0
   59.1990   31.0510   49.4260 C   0  0  0  0  0  0  0  0  0  0  0  0
   58.5663   31.9487   49.4874 H   0  0  0  0  0  0  0  0  0  0  0  0
   61.8420   33.2350   49.4360 C   0  0  0  0  0  0  0  0  0  0  0  0
   63.1820   32.8780   49.1840 C   0  0  0  0  0  0  0  0  0  0  0  0
   64.0070   32.4550   50.2180 O   0  0  0  0  0  0  0  0  0  0  0  0
   63.7030   32.9460   47.8940 C   0  0  0  0  0  0  0  0  0  0  0  0
   64.7478   32.6556   47.7094 H   0  0  0  0  0  0  0  0  0  0  0  0
   62.9070   33.3800   46.8370 C   0  0  0  0  0  0  0  0  0  0  0  0
   63.3227   33.4178   45.8193 H   0  0  0  0  0  0  0  0  0  0  0  0
   61.5790   33.7690   47.0620 C   0  0  0  0  0  0  0  0  0  0  0  0
   60.7840   34.2050   45.9910 C   0  0  0  0  0  0  0  0  0  0  0  0
   61.2107   34.2569   44.9784 H   0  0  0  0  0  0  0  0  0  0  0  0
   59.4550   34.5730   46.2040 C   0  0  0  0  0  0  0  0  0  0  0  0
   58.8375   34.9147   45.3602 H   0  0  0  0  0  0  0  0  0  0  0  0
   58.9090   34.5080   47.4850 C   0  0  0  0  0  0  0  0  0  0  0  0
   57.8594   34.7941   47.6480 H   0  0  0  0  0  0  0  0  0  0  0  0
   59.6890   34.0810   48.5630 C   0  0  0  0  0  0  0  0  0  0  0  0
   59.2500   34.0386   49.5707 H   0  0  0  0  0  0  0  0  0  0  0  0
   61.0340   33.7040   48.3700 C   0  0  0  0  0  0  0  0  0  0  0  0
  1  2  1  0
  2  3  2  3
  3  4  1  0
  4  5  2  0
  5  6  1  0
  5  7  1  0
  7  8  1  0
  7  9  2  0
  9 10  1  0
 10 11  2  0
 11 12  1  0
 12 13  2  0
 13 14  1  0
 14 15  1  0
 14 16  1  0
 16 17  2  0
 17 18  1  0
 17 19  1  0
 19 20  1  0
 19 21  2  0
 21 22  1  0
 21 23  1  0
 23 24  1  0
 23 25  2  0
 25 26  1  0
 13 27  1  0
 27 28  1  0
 28 29  2  0
 29 30  1  0
 30 31  1  0
 30 32  1  0
 30 33  1  0
 33 34  2  0
 34 35  1  0
 34 36  1  0
 36 37  1  0
 36 38  2  0
 38 39  1  0
 38 40  1  0
 40 41  1  0
 40 42  2  0
 42 43  1  0
 28 44  1  0
  9 45  1  0
 45 46  1  0
 45 47  2  0
 47 48  1  0
  2 49  1  0
 49 50  2  0
 50 51  1  0
 50 52  1  0
 52 53  1  0
 52 54  2  0
 54 55  1  0
 54 56  1  0
 56 57  2  0
 57 58  1  0
 57 59  1  0
 59 60  1  0
 59 61  2  0
 61 62  1  0
 61 63  1  0
 63 64  1  0
 63 65  2  0
 47  4  1  0
 65 49  1  0
 44 11  1  0
 65 56  1  0
 25 16  1  0
 42 33  1  0
M  CHG  3  27  -1  44  -1  51  -1
M  END
>  <UniqueID>  (60) 
54

>  <SMILES>  (60) 
[O-]c1ccc2ccccc2c1C=Nc1ccc(/N=c2/nc(Nc3ccccc3)[n-]/c(=N\Cc3ccccc3)[n-]2)cc1

>  <Energy>  (60) 
103.77172569510984

>  <Genealogy>  (60) 
[O-]c1ccc2ccccc2c1C=Nc1ccc(N=c2nc(Nc3ccccc3)[n-]c(=NCc3ccccc3)[n-]2)cc1 (protonated)
[O-]c1ccc2ccccc2c1C=Nc1ccc(/N=c2/nc(Nc3ccccc3)[n-]/c(=N\Cc3ccccc3)[n-]2)cc1 (cis-trans isomerization)
[O-]c1ccc2ccccc2c1C=Nc1ccc(/N=c2/nc(Nc3ccccc3)[n-]/c(=N\Cc3ccccc3)[n-]2)cc1 (3D coordinates assigned)
[O-]c1ccc2ccccc2c1C=Nc1ccc(/N=c2/nc(Nc3ccccc3)[n-]/c(=N\Cc3ccccc3)[n-]2)cc1 (optimized conformer: 103.77172569510984 kcal/mol)

>  <smiles>  (60) 
Oc1ccc2ccccc2c1C=Nc1ccc(N=c2nc(Nc3ccccc3)[nH]c(=NCc3ccccc3)[nH]2)cc1

>  <score_type>  (60) 
oracle

>  <origin>  (60) 
adg

>  <m_score__min__energy>  (60) 
-15.890000000000001

>  <m_primary>  (60) 
energy

$$$$
60:0
     RDKit          3D

 48 50  0  0  0  0  0  0  0  0999 V2000
   56.7320   25.1000   45.4530 C   0  0  0  0  0  0  0  0  0  0  0  0
   56.0340   26.3250   45.9590 C   0  0  0  0  0  0  0  0  0  0  0  0
   54.7760   26.3550   45.9820 O   0  0  0  0  0  0  0  0  0  0  0  0
   56.7660   27.4650   46.4200 N   0  0  0  0  0  0  0  0  0  0  0  0
   57.6410   28.2670   45.5710 C   0  0  0  0  0  0  0  0  0  0  0  0
   56.8280   28.9010   44.4360 C   0  0  1  0  0  0  0  0  0  0  0  0
   55.5260   29.1980   44.8740 O   0  0  0  0  0  0  0  0  0  0  0  0
   57.4850   30.1180   43.9390 N   0  0  0  0  0  0  0  0  0  0  0  0
   57.8590   31.2270   44.7790 C   0  0  0  0  0  0  0  0  0  0  0  0
   57.0130   32.3550   44.9510 C   0  0  0  0  0  0  0  0  0  0  0  0
   57.4010   33.4240   45.7750 C   0  0  0  0  0  0  0  0  0  0  0  0
   58.6330   33.3610   46.4210 C   0  0  0  0  0  0  0  0  0  0  0  0
   59.4590   32.2680   46.2550 C   0  0  0  0  0  0  0  0  0  0  0  0
   59.1030   31.1910   45.4450 C   0  0  0  0  0  0  0  0  0  0  0  0
   60.6560   32.4840   47.0400 C   0  0  0  0  0  0  0  0  0  0  0  0
   61.7800   31.6780   47.2050 C   0  0  0  0  0  0  0  0  0  0  0  0
   62.8130   32.1360   48.0360 C   0  0  0  0  0  0  0  0  0  0  0  0
   62.7130   33.3940   48.6890 C   0  0  0  0  0  0  0  0  0  0  0  0
   63.7150   33.9030   49.5330 O   0  0  0  0  0  0  0  0  0  0  0  0
   63.9840   33.4960   50.8770 C   0  0  0  0  0  0  0  0  0  0  0  0
   65.2890   32.6940   50.9660 C   0  0  0  0  0  0  0  0  0  0  0  0
   66.0710   32.7660   49.7310 N   0  0  0  0  0  0  0  0  0  0  0  0
   61.5590   34.1780   48.5020 C   0  0  0  0  0  0  0  0  0  0  0  0
   60.5420   33.7060   47.6730 C   0  0  0  0  0  0  0  0  0  0  0  0
   59.2430   34.3810   47.3390 C   0  0  0  0  0  0  0  0  0  0  0  0
   57.0763   24.4958   46.3053 H   0  0  0  0  0  0  0  0  0  0  0  0
   56.0358   24.5077   44.8411 H   0  0  0  0  0  0  0  0  0  0  0  0
   57.5965   25.3970   44.8411 H   0  0  0  0  0  0  0  0  0  0  0  0
   58.1067   29.0607   46.1736 H   0  0  0  0  0  0  0  0  0  0  0  0
   58.4206   27.6209   45.1412 H   0  0  0  0  0  0  0  0  0  0  0  0
   56.7691   28.1767   43.6102 H   0  0  0  0  0  0  0  0  0  0  0  0
   55.1540   28.3680   45.2730 H   0  0  0  0  0  0  0  0  0  0  0  0
   57.6900   30.1910   42.9150 H   0  0  0  0  0  0  0  0  0  0  0  0
   56.0433   32.3916   44.4331 H   0  0  0  0  0  0  0  0  0  0  0  0
   56.7433   34.2957   45.9078 H   0  0  0  0  0  0  0  0  0  0  0  0
   59.7779   30.3304   45.3272 H   0  0  0  0  0  0  0  0  0  0  0  0
   61.8557   30.7058   46.6959 H   0  0  0  0  0  0  0  0  0  0  0  0
   63.7091   31.5154   48.1836 H   0  0  0  0  0  0  0  0  0  0  0  0
   64.0689   34.3902   51.5120 H   0  0  0  0  0  0  0  0  0  0  0  0
   63.1581   32.8541   51.2173 H   0  0  0  0  0  0  0  0  0  0  0  0
   65.8948   33.0948   51.7921 H   0  0  0  0  0  0  0  0  0  0  0  0
   65.0250   31.6398   51.1359 H   0  0  0  0  0  0  0  0  0  0  0  0
   65.4360   32.7680   48.9010 H   0  0  0  0  0  0  0  0  0  0  0  0
   66.6180   33.6560   49.7290 H   0  0  0  0  0  0  0  0  0  0  0  0
   66.7390   31.9640   49.6780 H   0  0  0  0  0  0  0  0  0  0  0  0
   61.4606   35.1518   49.0041 H   0  0  0  0  0  0  0  0  0  0  0  0
   58.6261   34.5410   48.2356 H   0  0  0  0  0  0  0  0  0  0  0  0
   59.3471   35.3857   46.9035 H   0  0  0  0  0  0  0  0  0  0  0  0
  1  2  1  0
  2  3  2  0
  2  4  1  0
  4  5  1  0
  5  6  1  0
  6  7  1  0
  6  8  1  0
  8  9  1  0
  9 10  2  0
 10 11  1  0
 11 12  2  0
 12 13  1  0
 13 14  2  0
 13 15  1  0
 15 16  2  0
 16 17  1  0
 17 18  2  0
 18 19  1  0
 19 20  1  0
 20 21  1  0
 21 22  1  0
 18 23  1  0
 23 24  2  0
 24 25  1  0
 14  9  1  0
 24 15  1  0
 25 12  1  0
  1 26  1  0
  1 27  1  0
  1 28  1  0
  5 29  1  0
  5 30  1  0
  6 31  1  6
  7 32  1  0
  8 33  1  0
 10 34  1  0
 11 35  1  0
 14 36  1  0
 16 37  1  0
 17 38  1  0
 20 39  1  0
 20 40  1  0
 21 41  1  0
 21 42  1  0
 22 43  1  0
 22 44  1  0
 22 45  1  0
 23 46  1  0
 25 47  1  0
 25 48  1  0
M  CHG  2   4  -1  22   1
M  END
>  <UniqueID>  (61) 
55

>  <SMILES>  (61) 
CC(=O)[N-]C[C@@H](O)Nc1ccc2c(c1)-c1ccc(OCC[NH3+])cc1C2

>  <Energy>  (61) 
65.72455351920858

>  <Genealogy>  (61) 
CC(=O)[N-]CC(O)Nc1ccc2c(c1)-c1ccc(OCC[NH3+])cc1C2 (protonated)
CC(=O)[N-]C[C@@H](O)Nc1ccc2c(c1)-c1ccc(OCC[NH3+])cc1C2 (chirality)
CC(=O)[N-]C[C@@H](O)Nc1ccc2c(c1)-c1ccc(OCC[NH3+])cc1C2 (3D coordinates assigned)
CC(=O)[N-]C[C@@H](O)Nc1ccc2c(c1)-c1ccc(OCC[NH3+])cc1C2 (nonaromatic ring conformer: 65.72455351920858 kcal/mol)

>  <smiles>  (61) 
CC(=O)NCC(O)Nc1ccc2c(c1)-c1ccc(OCCN)cc1C2

>  <score_type>  (61) 
oracle

>  <origin>  (61) 
adg

>  <m_score__min__energy>  (61) 
-9.3100000000000005

>  <m_primary>  (61) 
energy

$$$$
61:0
     RDKit          3D

 34 36  0  0  0  0  0  0  0  0999 V2000
   57.5530   27.0060   46.7990 C   0  0  0  0  0  0  0  0  0  0  0  0
   58.2300   28.2980   46.7970 N   0  0  0  0  0  0  0  0  0  0  0  0
   59.3590   28.6020   47.4650 C   0  0  0  0  0  0  0  0  0  0  0  0
   59.6550   29.9470   47.3030 C   0  0  0  0  0  0  0  0  0  0  0  0
   60.8470   30.6340   47.8540 C   0  0  0  0  0  0  0  0  0  0  0  0
   61.6620   31.4300   47.0310 C   0  0  0  0  0  0  0  0  0  0  0  0
   62.7870   32.0720   47.5600 C   0  0  0  0  0  0  0  0  0  0  0  0
   63.1130   31.9180   48.9100 C   0  0  0  0  0  0  0  0  0  0  0  0
   64.6480   32.7960   49.6290 Br  0  0  0  0  0  0  0  0  0  0  0  0
   62.3160   31.1150   49.7310 C   0  0  0  0  0  0  0  0  0  0  0  0
   61.1920   30.4720   49.2060 C   0  0  0  0  0  0  0  0  0  0  0  0
   58.6420   30.4860   46.5110 C   0  0  0  0  0  0  0  0  0  0  0  0
   58.4560   31.9010   46.1310 C   0  0  0  0  0  0  0  0  0  0  0  0
   58.4990   32.9100   47.1090 C   0  0  0  0  0  0  0  0  0  0  0  0
   58.3390   34.2510   46.7450 C   0  0  0  0  0  0  0  0  0  0  0  0
   58.1340   34.5930   45.4060 C   0  0  0  0  0  0  0  0  0  0  0  0
   58.0910   33.5960   44.4280 C   0  0  0  0  0  0  0  0  0  0  0  0
   58.2520   32.2540   44.7880 C   0  0  0  0  0  0  0  0  0  0  0  0
   57.7780   29.4370   46.2390 C   0  0  0  0  0  0  0  0  0  0  0  0
   56.5770   29.5200   45.5340 O   0  0  0  0  0  0  0  0  0  0  0  0
   57.3835   26.6825   47.8366 H   0  0  0  0  0  0  0  0  0  0  0  0
   56.5869   27.0974   46.2810 H   0  0  0  0  0  0  0  0  0  0  0  0
   58.1780   26.2637   46.2810 H   0  0  0  0  0  0  0  0  0  0  0  0
   59.9574   27.8895   48.0518 H   0  0  0  0  0  0  0  0  0  0  0  0
   61.4142   31.5489   45.9659 H   0  0  0  0  0  0  0  0  0  0  0  0
   63.4163   32.6994   46.9116 H   0  0  0  0  0  0  0  0  0  0  0  0
   62.5743   30.9890   50.7928 H   0  0  0  0  0  0  0  0  0  0  0  0
   60.5735   29.8350   49.8554 H   0  0  0  0  0  0  0  0  0  0  0  0
   58.6590   32.6439   48.1643 H   0  0  0  0  0  0  0  0  0  0  0  0
   58.3746   35.0371   47.5137 H   0  0  0  0  0  0  0  0  0  0  0  0
   58.0064   35.6479   45.1215 H   0  0  0  0  0  0  0  0  0  0  0  0
   57.9304   33.8667   43.3740 H   0  0  0  0  0  0  0  0  0  0  0  0
   58.2186   31.4719   44.0152 H   0  0  0  0  0  0  0  0  0  0  0  0
   55.6990   29.7180   45.9970 H   0  0  0  0  0  0  0  0  0  0  0  0
  1  2  1  0
  2  3  1  0
  3  4  2  0
  4  5  1  0
  5  6  2  0
  6  7  1  0
  7  8  2  0
  8  9  1  0
  8 10  1  0
 10 11  2  0
  4 12  1  0
 12 13  1  0
 13 14  2  0
 14 15  1  0
 15 16  2  0
 16 17  1  0
 17 18  2  0
 12 19  2  0
 19 20  1  0
 19  2  1  0
 11  5  1  0
 18 13  1  0
  1 21  1  0
  1 22  1  0
  1 23  1  0
  3 24  1  0
  6 25  1  0
  7 26  1  0
 10 27  1  0
 11 28  1  0
 14 29  1  0
 15 30  1  0
 16 31  1  0
 17 32  1  0
 18 33  1  0
 20 34  1  0
M  END
>  <UniqueID>  (62) 
56

>  <SMILES>  (62) 
Cn1cc(-c2ccc(Br)cc2)c(-c2ccccc2)c1O

>  <Energy>  (62) 
71.40505637438088

>  <Genealogy>  (62) 
Cn1cc(-c2ccc(Br)cc2)c(-c2ccccc2)c1O (3D coordinates assigned)
Cn1cc(-c2ccc(Br)cc2)c(-c2ccccc2)c1O (optimized conformer: 71.40505637438088 kcal/mol)

>  <smiles>  (62) 
Cn1cc(-c2ccc(Br)cc2)c(-c2ccccc2)c1O

>  <score_type>  (62) 
oracle

>  <origin>  (62) 
adg

>  <m_score__min__energy>  (62) 
-7.4900000000000002

>  <m_primary>  (62) 
energy

$$$$
62:0
     RDKit          3D

 27 28  0  0  0  0  0  0  0  0999 V2000
   58.9790   30.3040   46.3370 C   0  0  0  0  0  0  0  0  0  0  0  0
   57.9450   29.4130   46.7620 O   0  0  0  0  0  0  0  0  0  0  0  0
   58.0140   28.0880   46.4000 C   0  0  0  0  0  0  0  0  0  0  0  0
   59.0750   27.2710   46.7850 C   0  0  0  0  0  0  0  0  0  0  0  0
   59.1130   25.9510   46.4050 C   0  0  0  0  0  0  0  0  0  0  0  0
   58.0890   25.4480   45.6410 C   0  0  0  0  0  0  0  0  0  0  0  0
   58.0650   24.0250   45.1930 C   0  0  0  0  0  0  0  0  0  0  0  0
   58.5850   22.9950   45.2470 N   0  0  0  0  0  0  0  0  0  0  0  0
   58.3050   21.8550   44.7040 N   0  0  0  0  0  0  0  0  0  0  0  0
   57.2520   21.8580   43.9650 C   0  0  0  0  0  0  0  0  0  0  0  0
   56.6210   20.8700   43.2220 N   0  0  0  0  0  0  0  0  0  0  0  0
   56.6060   23.5490   44.0240 S   0  0  0  0  0  0  0  0  0  0  0  0
   57.0420   26.2100   45.2500 C   0  0  0  0  0  0  0  0  0  0  0  0
   57.0100   27.5350   45.6330 C   0  0  0  0  0  0  0  0  0  0  0  0
   55.9450   28.3330   45.2410 O   0  0  0  0  0  0  0  0  0  0  0  0
   56.0810   29.4310   44.3770 C   0  0  0  0  0  0  0  0  0  0  0  0
   59.4778   30.7338   47.2182 H   0  0  0  0  0  0  0  0  0  0  0  0
   59.7137   29.7515   45.7329 H   0  0  0  0  0  0  0  0  0  0  0  0
   58.5411   31.1123   45.7329 H   0  0  0  0  0  0  0  0  0  0  0  0
   59.8887   27.6860   47.3980 H   0  0  0  0  0  0  0  0  0  0  0  0
   59.9514   25.3068   46.7084 H   0  0  0  0  0  0  0  0  0  0  0  0
   58.9140   20.9880   44.8700 H   0  0  0  0  0  0  0  0  0  0  0  0
   57.0250   19.9410   43.3110 H   0  0  0  0  0  0  0  0  0  0  0  0
   56.2331   25.7822   44.6395 H   0  0  0  0  0  0  0  0  0  0  0  0
   56.1950   30.3513   44.9687 H   0  0  0  0  0  0  0  0  0  0  0  0
   56.9686   29.2907   43.7426 H   0  0  0  0  0  0  0  0  0  0  0  0
   55.1860   29.5115   43.7426 H   0  0  0  0  0  0  0  0  0  0  0  0
  1  2  1  0
  2  3  1  0
  3  4  2  0
  4  5  1  0
  5  6  2  0
  6  7  1  0
  7  8  2  0
  8  9  1  0
  9 10  1  0
 10 11  2  3
 10 12  1  0
  6 13  1  0
 13 14  2  0
 14 15  1  0
 15 16  1  0
 14  3  1  0
 12  7  1  0
  1 17  1  0
  1 18  1  0
  1 19  1  0
  4 20  1  0
  5 21  1  0
  9 22  1  0
 11 23  1  0
 13 24  1  0
 16 25  1  0
 16 26  1  0
 16 27  1  0
M  END
>  <smiles>  (63) 
COc1ccc(-c2n[nH]c(=N)s2)cc1OC

>  <score_type>  (63) 
oracle

>  <origin>  (63) 
adg

>  <m_score__min__energy>  (63) 
-5.7300000000000004

>  <m_primary>  (63) 
energy

$$$$
63:0
     RDKit          3D

 55 58  0  0  0  0  0  0  0  0999 V2000
   65.8110   32.1840   50.4250 C   0  0  0  0  0  0  0  0  0  0  0  0
   65.3390   32.9790   49.3430 O   0  0  0  0  0  0  0  0  0  0  0  0
   63.9850   33.0700   49.0070 C   0  0  0  0  0  0  0  0  0  0  0  0
   63.2290   34.1450   49.4720 C   0  0  0  0  0  0  0  0  0  0  0  0
   61.8810   34.2260   49.1330 C   0  0  0  0  0  0  0  0  0  0  0  0
   61.3160   33.2290   48.3300 C   0  0  0  0  0  0  0  0  0  0  0  0
   59.9270   33.2800   47.9640 N   0  0  0  0  0  0  0  0  0  0  0  0
   58.9230   32.5290   48.4790 C   0  0  0  0  0  0  0  0  0  0  0  0
   59.0330   31.6170   49.6400 C   0  0  0  0  0  0  0  0  0  0  0  0
   58.0150   31.5650   50.6040 C   0  0  0  0  0  0  0  0  0  0  0  0
   58.1370   30.6950   51.6860 C   0  0  0  0  0  0  0  0  0  0  0  0
   59.2640   29.8830   51.8020 C   0  0  0  0  0  0  0  0  0  0  0  0
   60.2680   29.9560   50.8290 C   0  0  0  0  0  0  0  0  0  0  0  0
   61.4700   29.0630   50.9190 C   0  0  0  0  0  0  0  0  0  0  0  0
   60.1200   30.7990   49.7640 N   0  0  0  0  0  0  0  0  0  0  0  0
   57.7700   32.7080   47.7410 C   0  0  0  0  0  0  0  0  0  0  0  0
   58.0850   33.5870   46.7220 C   0  0  0  0  0  0  0  0  0  0  0  0
   57.1540   33.9710   45.6030 C   0  0  0  0  0  0  0  0  0  0  0  0
   56.6600   32.8120   44.9490 O   0  0  0  0  0  0  0  0  0  0  0  0
   57.6920   32.1060   44.2810 C   0  0  0  0  0  0  0  0  0  0  0  0
   57.9900   30.7830   44.9550 C   0  0  0  0  0  0  0  0  0  0  0  0
   59.2230   30.6230   45.6110 C   0  0  0  0  0  0  0  0  0  0  0  0
   59.5750   29.3930   46.1720 C   0  0  0  0  0  0  0  0  0  0  0  0
   58.7010   28.3100   46.0860 C   0  0  0  0  0  0  0  0  0  0  0  0
   57.4680   28.4550   45.4490 C   0  0  0  0  0  0  0  0  0  0  0  0
   57.1000   29.6850   44.8880 C   0  0  0  0  0  0  0  0  0  0  0  0
   55.5200   29.8010   44.1180 Cl  0  0  0  0  0  0  0  0  0  0  0  0
   59.4130   33.9550   46.9070 C   0  0  0  0  0  0  0  0  0  0  0  0
   60.2230   34.8410   46.0020 C   0  0  0  0  0  0  0  0  0  0  0  0
   62.0960   32.1980   47.9090 N   0  0  0  0  0  0  0  0  0  0  0  0
   63.3880   32.1210   48.2350 N   0  0  0  0  0  0  0  0  0  0  0  0
   65.5301   32.6571   51.3775 H   0  0  0  0  0  0  0  0  0  0  0  0
   65.3616   31.1817   50.3669 H   0  0  0  0  0  0  0  0  0  0  0  0
   66.9061   32.0987   50.3669 H   0  0  0  0  0  0  0  0  0  0  0  0
   63.6922   34.9205   50.0997 H   0  0  0  0  0  0  0  0  0  0  0  0
   61.2668   35.0647   49.4925 H   0  0  0  0  0  0  0  0  0  0  0  0
   57.1267   32.2064   50.5065 H   0  0  0  0  0  0  0  0  0  0  0  0
   57.3447   30.6492   52.4477 H   0  0  0  0  0  0  0  0  0  0  0  0
   59.3637   29.1906   52.6509 H   0  0  0  0  0  0  0  0  0  0  0  0
   61.7139   28.8818   51.9762 H   0  0  0  0  0  0  0  0  0  0  0  0
   61.2532   28.1052   50.4234 H   0  0  0  0  0  0  0  0  0  0  0  0
   62.3244   29.5471   50.4234 H   0  0  0  0  0  0  0  0  0  0  0  0
   60.8710   30.8300   49.0370 H   0  0  0  0  0  0  0  0  0  0  0  0
   56.7913   32.2418   47.9276 H   0  0  0  0  0  0  0  0  0  0  0  0
   56.3091   34.5424   46.0148 H   0  0  0  0  0  0  0  0  0  0  0  0
   57.7059   34.5832   44.8746 H   0  0  0  0  0  0  0  0  0  0  0  0
   57.3803   31.9156   43.2434 H   0  0  0  0  0  0  0  0  0  0  0  0
   58.6040   32.7203   44.3112 H   0  0  0  0  0  0  0  0  0  0  0  0
   59.9166   31.4737   45.6832 H   0  0  0  0  0  0  0  0  0  0  0  0
   60.5428   29.2787   46.6822 H   0  0  0  0  0  0  0  0  0  0  0  0
   58.9839   27.3400   46.5209 H   0  0  0  0  0  0  0  0  0  0  0  0
   56.7807   27.5984   45.3869 H   0  0  0  0  0  0  0  0  0  0  0  0
   60.8418   35.5179   46.6094 H   0  0  0  0  0  0  0  0  0  0  0  0
   60.8728   34.2207   45.3672 H   0  0  0  0  0  0  0  0  0  0  0  0
   59.5471   35.4327   45.3672 H   0  0  0  0  0  0  0  0  0  0  0  0
  1  2  1  0
  2  3  1  0
  3  4  2  0
  4  5  1  0
  5  6  2  0
  6  7  1  0
  7  8  1  0
  8  9  1  0
  9 10  2  0
 10 11  1  0
 11 12  2  0
 12 13  1  0
 13 14  1  0
 13 15  2  0
  8 16  2  0
 16 17  1  0
 17 18  1  0
 18 19  1  0
 19 20  1  0
 20 21  1  0
 21 22  2  0
 22 23  1  0
 23 24  2  0
 24 25  1  0
 25 26  2  0
 26 27  1  0
 17 28  2  0
 28 29  1  0
  6 30  1  0
 30 31  2  0
 31  3  1  0
 28  7  1  0
 15  9  1  0
 26 21  1  0
  1 32  1  0
  1 33  1  0
  1 34  1  0
  4 35  1  0
  5 36  1  0
 10 37  1  0
 11 38  1  0
 12 39  1  0
 14 40  1  0
 14 41  1  0
 14 42  1  0
 15 43  1  0
 16 44  1  0
 18 45  1  0
 18 46  1  0
 20 47  1  0
 20 48  1  0
 22 49  1  0
 23 50  1  0
 24 51  1  0
 25 52  1  0
 29 53  1  0
 29 54  1  0
 29 55  1  0
M  CHG  1  15   1
M  END
>  <UniqueID>  (64) 
57

>  <SMILES>  (64) 
COc1ccc(-n2c(-c3cccc(C)[nH+]3)cc(COCc3ccccc3Cl)c2C)nn1

>  <Energy>  (64) 
93.06139062547139

>  <Genealogy>  (64) 
COc1ccc(-n2c(-c3cccc(C)[nH+]3)cc(COCc3ccccc3Cl)c2C)nn1 (protonated)
COc1ccc(-n2c(-c3cccc(C)[nH+]3)cc(COCc3ccccc3Cl)c2C)nn1 (3D coordinates assigned)
COc1ccc(-n2c(-c3cccc(C)[nH+]3)cc(COCc3ccccc3Cl)c2C)nn1 (optimized conformer: 93.06139062547139 kcal/mol)

>  <smiles>  (64) 
COc1ccc(-n2c(-c3cccc(C)n3)cc(COCc3ccccc3Cl)c2C)nn1

>  <score_type>  (64) 
oracle

>  <origin>  (64) 
adg

>  <m_score__min__energy>  (64) 
-7.3099999999999996

>  <m_primary>  (64) 
energy

$$$$
64:0
     RDKit          3D

 35 37  0  0  0  0  0  0  0  0999 V2000
   59.9470   22.4060   44.9030 C   0  0  0  0  0  0  0  0  0  0  0  0
   60.0130   23.4520   45.8670 O   0  0  0  0  0  0  0  0  0  0  0  0
   59.2180   24.6100   45.8390 C   0  0  0  0  0  0  0  0  0  0  0  0
   59.7750   25.8920   45.6870 C   0  0  0  0  0  0  0  0  0  0  0  0
   58.9570   27.0200   45.6740 C   0  0  0  0  0  0  0  0  0  0  0  0
   57.5700   26.9020   45.8180 C   0  0  0  0  0  0  0  0  0  0  0  0
   56.7870   28.1040   45.8490 N   0  0  0  0  0  0  0  0  0  0  0  0
   57.1080   29.2750   45.0740 C   0  0  0  0  0  0  0  0  0  0  0  0
   56.7060   29.3390   43.7320 C   0  0  0  0  0  0  0  0  0  0  0  0
   56.9920   30.4680   42.9590 C   0  0  0  0  0  0  0  0  0  0  0  0
   57.6880   31.5430   43.5170 C   0  0  0  0  0  0  0  0  0  0  0  0
   57.9460   32.6350   42.7530 F   0  0  0  0  0  0  0  0  0  0  0  0
   58.1160   31.4900   44.8530 C   0  0  0  0  0  0  0  0  0  0  0  0
   58.8390   32.6560   45.4620 C   0  0  0  0  0  0  0  0  0  0  0  0
   57.8130   30.3600   45.6310 C   0  0  0  0  0  0  0  0  0  0  0  0
   56.9840   25.6160   45.9400 C   0  0  0  0  0  0  0  0  0  0  0  0
   55.5900   25.3930   46.0290 C   0  0  0  0  0  0  0  0  0  0  0  0
   54.7670   26.3440   45.9730 O   0  0  0  0  0  0  0  0  0  0  0  0
   55.1150   24.1290   46.1640 N   0  0  0  0  0  0  0  0  0  0  0  0
   55.9460   23.0600   46.2050 C   0  0  0  0  0  0  0  0  0  0  0  0
   57.2860   23.2370   46.0980 N   0  0  0  0  0  0  0  0  0  0  0  0
   57.8260   24.4760   45.9620 C   0  0  0  0  0  0  0  0  0  0  0  0
   59.8858   21.4360   45.4181 H   0  0  0  0  0  0  0  0  0  0  0  0
   59.0557   22.5436   44.2731 H   0  0  0  0  0  0  0  0  0  0  0  0
   60.8485   22.4304   44.2731 H   0  0  0  0  0  0  0  0  0  0  0  0
   60.8637   26.0053   45.5776 H   0  0  0  0  0  0  0  0  0  0  0  0
   59.4072   28.0158   45.5490 H   0  0  0  0  0  0  0  0  0  0  0  0
   55.8630   28.0590   46.3350 H   0  0  0  0  0  0  0  0  0  0  0  0
   56.1616   28.4945   43.2843 H   0  0  0  0  0  0  0  0  0  0  0  0
   56.6682   30.5100   41.9086 H   0  0  0  0  0  0  0  0  0  0  0  0
   58.7939   32.5832   46.5587 H   0  0  0  0  0  0  0  0  0  0  0  0
   59.8898   32.6463   45.1368 H   0  0  0  0  0  0  0  0  0  0  0  0
   58.3632   33.5929   45.1368 H   0  0  0  0  0  0  0  0  0  0  0  0
   58.1289   30.3222   46.6840 H   0  0  0  0  0  0  0  0  0  0  0  0
   55.5333   22.0475   46.3252 H   0  0  0  0  0  0  0  0  0  0  0  0
  1  2  1  0
  2  3  1  0
  3  4  2  0
  4  5  1  0
  5  6  2  0
  6  7  1  0
  7  8  1  0
  8  9  2  0
  9 10  1  0
 10 11  2  0
 11 12  1  0
 11 13  1  0
 13 14  1  0
 13 15  2  0
  6 16  1  0
 16 17  1  0
 17 18  2  0
 17 19  1  0
 19 20  2  0
 20 21  1  0
 21 22  1  0
 22  3  1  0
 15  8  1  0
 22 16  2  0
  1 23  1  0
  1 24  1  0
  1 25  1  0
  4 26  1  0
  5 27  1  0
  7 28  1  0
  9 29  1  0
 10 30  1  0
 14 31  1  0
 14 32  1  0
 14 33  1  0
 15 34  1  0
 20 35  1  0
M  CHG  1  21  -1
M  END
>  <UniqueID>  (65) 
58

>  <SMILES>  (65) 
COc1ccc(Nc2ccc(F)c(C)c2)c2c(=O)nc[n-]c12

>  <Energy>  (65) 
51.70490292109027

>  <Genealogy>  (65) 
COc1ccc(Nc2ccc(F)c(C)c2)c2c(=O)nc[n-]c12 (protonated)
COc1ccc(Nc2ccc(F)c(C)c2)c2c(=O)nc[n-]c12 (3D coordinates assigned)
COc1ccc(Nc2ccc(F)c(C)c2)c2c(=O)nc[n-]c12 (optimized conformer: 51.70490292109027 kcal/mol)

>  <smiles>  (65) 
COc1ccc(Nc2ccc(F)c(C)c2)c2c(=O)nc[nH]c12

>  <score_type>  (65) 
oracle

>  <origin>  (65) 
adg

>  <m_score__min__energy>  (65) 
-8.8699999999999992

>  <m_primary>  (65) 
energy

$$$$
65:0
     RDKit          3D

 51 54  0  0  1  0  0  0  0  0999 V2000
   56.7190   33.7280   45.3530 N   0  0  0  0  0  0  0  0  0  0  0  0
   57.4760   32.9910   46.3190 C   0  0  0  0  0  0  0  0  0  0  0  0
   57.4110   33.3940   47.5050 O   0  0  0  0  0  0  0  0  0  0  0  0
   58.2730   31.8420   45.9460 C   0  0  0  0  0  0  0  0  0  0  0  0
   59.5590   31.6190   46.4180 C   0  0  0  0  0  0  0  0  0  0  0  0
   60.2320   30.4980   46.0030 C   0  0  0  0  0  0  0  0  0  0  0  0
   59.7270   29.5600   45.1400 C   0  0  0  0  0  0  0  0  0  0  0  0
   58.4320   29.7900   44.6680 C   0  0  0  0  0  0  0  0  0  0  0  0
   57.8850   28.8710   43.7980 C   0  0  0  0  0  0  0  0  0  0  0  0
   58.4690   27.8190   43.3850 N   0  0  0  0  0  0  0  0  0  0  0  0
   58.0370   26.4680   43.5300 C   0  0  0  0  0  0  0  0  0  0  0  0
   57.9240   26.0580   44.9680 C   0  0  0  0  0  0  0  0  0  0  0  0
   57.0090   25.1430   45.4150 C   0  0  0  0  0  0  0  0  0  0  0  0
   56.9190   24.7770   46.7510 C   0  0  0  0  0  0  0  0  0  0  0  0
   57.7670   25.3370   47.6850 C   0  0  0  0  0  0  0  0  0  0  0  0
   58.6880   26.2520   47.2580 C   0  0  0  0  0  0  0  0  0  0  0  0
   59.5710   26.8430   48.1980 N   0  0  0  0  0  0  0  0  0  0  0  0
   59.3720   28.2450   48.4560 C   0  0  0  0  0  0  0  0  0  0  0  0
   58.4300   28.8120   47.8220 O   0  0  0  0  0  0  0  0  0  0  0  0
   60.1860   28.9620   49.3740 N   0  0  0  0  0  0  0  0  0  0  0  0
   59.9350   30.3640   49.5880 C   0  0  0  0  0  0  0  0  0  0  0  0
   58.7130   30.7950   50.1020 C   0  0  0  0  0  0  0  0  0  0  0  0
   58.5290   32.1500   50.2860 C   0  0  0  0  0  0  0  0  0  0  0  0
   59.5030   33.0620   49.9790 C   0  0  0  0  0  0  0  0  0  0  0  0
   60.7100   32.6340   49.4720 C   0  0  0  0  0  0  0  0  0  0  0  0
   61.9800   33.7810   49.0700 Cl  0  0  0  0  0  0  0  0  0  0  0  0
   60.9200   31.2760   49.2780 C   0  0  0  0  0  0  0  0  0  0  0  0
   58.7680   26.6060   45.9410 C   0  0  0  0  0  0  0  0  0  0  0  0
   56.6420   29.1140   43.3590 N   0  0  0  0  0  0  0  0  0  0  0  0
   55.9650   30.2050   43.7530 C   0  0  0  0  0  0  0  0  0  0  0  0
   56.5030   31.1020   44.6040 N   0  0  0  0  0  0  0  0  0  0  0  0
   57.7500   30.9160   45.0820 C   0  0  0  0  0  0  0  0  0  0  0  0
   56.3300   33.2600   44.4880 H   0  0  0  0  0  0  0  0  0  0  0  0
   56.5290   34.7580   45.4740 H   0  0  0  0  0  0  0  0  0  0  0  0
   60.0306   32.3292   47.1131 H   0  0  0  0  0  0  0  0  0  0  0  0
   61.2494   30.3404   46.3903 H   0  0  0  0  0  0  0  0  0  0  0  0
   60.3081   28.6767   44.8364 H   0  0  0  0  0  0  0  0  0  0  0  0
   57.0522   26.3583   43.0524 H   0  0  0  0  0  0  0  0  0  0  0  0
   58.7886   25.8213   43.0537 H   0  0  0  0  0  0  0  0  0  0  0  0
   56.3215   24.6820   44.6906 H   0  0  0  0  0  0  0  0  0  0  0  0
   56.1685   24.0374   47.0667 H   0  0  0  0  0  0  0  0  0  0  0  0
   57.7032   25.0540   48.7461 H   0  0  0  0  0  0  0  0  0  0  0  0
   60.3320   26.3290   48.6930 H   0  0  0  0  0  0  0  0  0  0  0  0
   60.9560   28.4640   49.8830 H   0  0  0  0  0  0  0  0  0  0  0  0
   57.9191   30.0763   50.3534 H   0  0  0  0  0  0  0  0  0  0  0  0
   57.5712   32.5082   50.6914 H   0  0  0  0  0  0  0  0  0  0  0  0
   59.3217   34.1354   50.1371 H   0  0  0  0  0  0  0  0  0  0  0  0
   61.8807   30.9249   48.8734 H   0  0  0  0  0  0  0  0  0  0  0  0
   59.5212   27.3468   45.6348 H   0  0  0  0  0  0  0  0  0  0  0  0
   56.1820   28.4700   42.7130 H   0  0  0  0  0  0  0  0  0  0  0  0
   54.9465   30.3709   43.3721 H   0  0  0  0  0  0  0  0  0  0  0  0
  1  2  1  0
  2  3  2  0
  2  4  1  0
  4  5  2  0
  5  6  1  0
  6  7  2  0
  7  8  1  0
  8  9  1  0
  9 10  2  0
 10 11  1  0
 11 12  1  0
 12 13  2  0
 13 14  1  0
 14 15  2  0
 15 16  1  0
 16 17  1  0
 17 18  1  0
 18 19  2  0
 18 20  1  0
 20 21  1  0
 21 22  2  0
 22 23  1  0
 23 24  2  0
 24 25  1  0
 25 26  1  0
 25 27  2  0
 16 28  2  0
  9 29  1  0
 29 30  1  0
 30 31  2  0
 31 32  1  0
 32  4  1  0
 32  8  2  0
 28 12  1  0
 27 21  1  0
  1 33  1  0
  1 34  1  0
  5 35  1  0
  6 36  1  0
  7 37  1  0
 11 38  1  0
 11 39  1  0
 13 40  1  0
 14 41  1  0
 15 42  1  0
 17 43  1  0
 20 44  1  0
 22 45  1  0
 23 46  1  0
 24 47  1  0
 27 48  1  0
 28 49  1  0
 29 50  1  0
 30 51  1  0
M  END
>  <smiles>  (66) 
NC(=O)c1cccc2c(=NCc3cccc(NC(=O)Nc4cccc(Cl)c4)c3)[nH]cnc12

>  <score_type>  (66) 
oracle

>  <origin>  (66) 
adg

>  <m_score__min__energy>  (66) 
-9.6899999999999995

>  <m_primary>  (66) 
energy

$$$$
66:0
     RDKit          3D

 39 42  0  0  0  0  0  0  0  0999 V2000
   59.5000   21.8730   44.8460 C   0  0  0  0  0  0  0  0  0  0  0  0
   58.1160   22.1410   44.3450 C   0  0  0  0  0  0  0  0  0  0  0  0
   57.4620   21.3650   43.4620 N   0  0  0  0  0  0  0  0  0  0  0  0
   56.2690   21.8540   43.2960 O   0  0  0  0  0  0  0  0  0  0  0  0
   56.1050   22.9300   44.0330 C   0  0  0  0  0  0  0  0  0  0  0  0
   54.8310   23.7050   44.1120 C   0  0  0  0  0  0  0  0  0  0  0  0
   57.2760   23.1700   44.7340 C   0  0  0  0  0  0  0  0  0  0  0  0
   57.5270   24.2160   45.7800 C   0  0  0  0  0  0  0  0  0  0  0  0
   57.6400   25.5290   45.1550 N   0  0  0  0  0  0  0  0  0  0  0  0
   57.7180   26.7070   45.7990 C   0  0  0  0  0  0  0  0  0  0  0  0
   57.8780   27.6940   44.8480 C   0  0  0  0  0  0  0  0  0  0  0  0
   58.0160   29.1080   45.0760 N   0  0  0  0  0  0  0  0  0  0  0  0
   57.0290   30.1310   44.8840 C   0  0  0  0  0  0  0  0  0  0  0  0
   55.8550   29.9270   44.4760 O   0  0  0  0  0  0  0  0  0  0  0  0
   57.5830   31.4340   45.2330 C   0  0  0  0  0  0  0  0  0  0  0  0
   57.0060   32.7020   45.2090 C   0  0  0  0  0  0  0  0  0  0  0  0
   57.7980   33.7950   45.6090 C   0  0  0  0  0  0  0  0  0  0  0  0
   59.1340   33.5980   46.0170 C   0  0  0  0  0  0  0  0  0  0  0  0
   59.6920   32.3070   46.0340 C   0  0  0  0  0  0  0  0  0  0  0  0
   58.8870   31.2420   45.6330 C   0  0  0  0  0  0  0  0  0  0  0  0
   59.1730   29.8150   45.5430 C   0  0  0  0  0  0  0  0  0  0  0  0
   60.2740   29.2770   45.8290 O   0  0  0  0  0  0  0  0  0  0  0  0
   57.8940   27.0360   43.6300 C   0  0  0  0  0  0  0  0  0  0  0  0
   57.7510   25.7140   43.8470 N   0  0  0  0  0  0  0  0  0  0  0  0
   59.4982   21.8733   45.9460 H   0  0  0  0  0  0  0  0  0  0  0  0
   59.8389   20.8925   44.4802 H   0  0  0  0  0  0  0  0  0  0  0  0
   60.1804   22.6561   44.4802 H   0  0  0  0  0  0  0  0  0  0  0  0
   57.8240   20.5050   42.9930 H   0  0  0  0  0  0  0  0  0  0  0  0
   54.5651   23.8668   45.1670 H   0  0  0  0  0  0  0  0  0  0  0  0
   54.9615   24.6769   43.6136 H   0  0  0  0  0  0  0  0  0  0  0  0
   54.0280   23.1422   43.6136 H   0  0  0  0  0  0  0  0  0  0  0  0
   56.6914   24.2237   46.4954 H   0  0  0  0  0  0  0  0  0  0  0  0
   58.4653   23.9839   46.3051 H   0  0  0  0  0  0  0  0  0  0  0  0
   57.6640   26.8567   46.8874 H   0  0  0  0  0  0  0  0  0  0  0  0
   55.9638   32.8446   44.8874 H   0  0  0  0  0  0  0  0  0  0  0  0
   57.3723   34.8093   45.6034 H   0  0  0  0  0  0  0  0  0  0  0  0
   59.7438   34.4604   46.3241 H   0  0  0  0  0  0  0  0  0  0  0  0
   60.7316   32.1428   46.3539 H   0  0  0  0  0  0  0  0  0  0  0  0
   58.0053   27.5144   42.6458 H   0  0  0  0  0  0  0  0  0  0  0  0
  1  2  1  0
  2  3  2  0
  3  4  1  0
  4  5  1  0
  5  6  1  0
  5  7  2  0
  7  8  1  0
  8  9  1  0
  9 10  1  0
 10 11  2  0
 11 12  1  0
 12 13  1  0
 13 14  2  0
 13 15  1  0
 15 16  2  0
 16 17  1  0
 17 18  2  0
 18 19  1  0
 19 20  2  0
 20 21  1  0
 21 22  2  0
 11 23  1  0
 23 24  2  0
  7  2  1  0
 24  9  1  0
 21 12  1  0
 20 15  1  0
  1 25  1  0
  1 26  1  0
  1 27  1  0
  3 28  1  0
  6 29  1  0
  6 30  1  0
  6 31  1  0
  8 32  1  0
  8 33  1  0
 10 34  1  0
 16 35  1  0
 17 36  1  0
 18 37  1  0
 19 38  1  0
 23 39  1  0
M  CHG  1   3   1
M  END
>  <UniqueID>  (67) 
59

>  <SMILES>  (67) 
Cc1[nH+]oc(C)c1Cn1cc(N2C(=O)c3ccccc3C2=O)cn1

>  <Energy>  (67) 
134.96074276360633

>  <Genealogy>  (67) 
Cc1[nH+]oc(C)c1Cn1cc(N2C(=O)c3ccccc3C2=O)cn1 (protonated)
Cc1[nH+]oc(C)c1Cn1cc(N2C(=O)c3ccccc3C2=O)cn1 (3D coordinates assigned)
Cc1[nH+]oc(C)c1Cn1cc(N2C(=O)c3ccccc3C2=O)cn1 (nonaromatic ring conformer: 134.96074276360633 kcal/mol)

>  <smiles>  (67) 
Cc1noc(C)c1Cn1cc(N2C(=O)c3ccccc3C2=O)cn1

>  <score_type>  (67) 
oracle

>  <origin>  (67) 
adg

>  <m_score__min__energy>  (67) 
-7.5999999999999996

>  <m_primary>  (67) 
energy

$$$$
67:0
     RDKit          3D

 45 48  0  0  0  0  0  0  0  0999 V2000
   62.5140   33.4480   47.1770 C   0  0  0  0  0  0  0  0  0  0  0  0
   61.1750   33.8330   47.4730 O   0  0  0  0  0  0  0  0  0  0  0  0
   60.0440   33.3540   46.7950 C   0  0  0  0  0  0  0  0  0  0  0  0
   59.1350   34.2070   46.1480 C   0  0  0  0  0  0  0  0  0  0  0  0
   58.0170   33.6820   45.4960 C   0  0  0  0  0  0  0  0  0  0  0  0
   57.7880   32.2930   45.4740 C   0  0  0  0  0  0  0  0  0  0  0  0
   56.6440   31.7410   44.8740 O   0  0  0  0  0  0  0  0  0  0  0  0
   56.6630   30.8410   43.7710 C   0  0  0  0  0  0  0  0  0  0  0  0
   58.7200   31.4330   46.0930 C   0  0  0  0  0  0  0  0  0  0  0  0
   58.5320   30.0090   46.0930 N   0  0  0  0  0  0  0  0  0  0  0  0
   59.4970   29.0910   45.5530 C   0  0  0  0  0  0  0  0  0  0  0  0
   60.6460   29.5020   45.2420 O   0  0  0  0  0  0  0  0  0  0  0  0
   59.1370   27.6720   45.3560 C   0  0  0  0  0  0  0  0  0  0  0  0
   59.6180   26.4360   46.4140 S   0  0  0  0  0  0  0  0  0  0  0  0
   58.7970   25.2190   45.6130 C   0  0  0  0  0  0  0  0  0  0  0  0
   58.7600   23.9030   45.9510 N   0  0  0  0  0  0  0  0  0  0  0  0
   58.0360   23.0610   45.1620 C   0  0  0  0  0  0  0  0  0  0  0  0
   57.3570   23.5110   44.0510 C   0  0  0  0  0  0  0  0  0  0  0  0
   57.3860   24.8640   43.6880 C   0  0  0  0  0  0  0  0  0  0  0  0
   58.1290   25.7330   44.5060 C   0  0  0  0  0  0  0  0  0  0  0  0
   58.3180   27.1200   44.3490 C   0  0  0  0  0  0  0  0  0  0  0  0
   57.7750   27.8680   43.2530 N   0  0  0  0  0  0  0  0  0  0  0  0
   56.6510   22.4110   43.3560 C   0  0  0  0  0  0  0  0  0  0  0  0
   56.9780   21.1620   44.2020 C   0  0  0  0  0  0  0  0  0  0  0  0
   57.8840   21.6060   45.3700 C   0  0  0  0  0  0  0  0  0  0  0  0
   59.8230   31.9730   46.7670 C   0  0  0  0  0  0  0  0  0  0  0  0
   63.0658   33.2893   48.1152 H   0  0  0  0  0  0  0  0  0  0  0  0
   62.5069   32.5155   46.5936 H   0  0  0  0  0  0  0  0  0  0  0  0
   63.0033   34.2418   46.5936 H   0  0  0  0  0  0  0  0  0  0  0  0
   59.3044   35.2939   46.1548 H   0  0  0  0  0  0  0  0  0  0  0  0
   57.3095   34.3594   44.9955 H   0  0  0  0  0  0  0  0  0  0  0  0
   56.6848   29.8059   44.1427 H   0  0  0  0  0  0  0  0  0  0  0  0
   55.7615   30.9919   43.1591 H   0  0  0  0  0  0  0  0  0  0  0  0
   57.5574   31.0298   43.1591 H   0  0  0  0  0  0  0  0  0  0  0  0
   57.7410   29.6200   46.6540 H   0  0  0  0  0  0  0  0  0  0  0  0
   56.8499   25.2308   42.8003 H   0  0  0  0  0  0  0  0  0  0  0  0
   57.0060   27.4830   42.6650 H   0  0  0  0  0  0  0  0  0  0  0  0
   58.1770   28.7840   42.9630 H   0  0  0  0  0  0  0  0  0  0  0  0
   55.5667   22.5950   43.3339 H   0  0  0  0  0  0  0  0  0  0  0  0
   56.9634   22.3045   42.3067 H   0  0  0  0  0  0  0  0  0  0  0  0
   56.0492   20.7229   44.5951 H   0  0  0  0  0  0  0  0  0  0  0  0
   57.4872   20.4049   43.5876 H   0  0  0  0  0  0  0  0  0  0  0  0
   57.4066   21.3960   46.3385 H   0  0  0  0  0  0  0  0  0  0  0  0
   58.8472   21.0751   45.3879 H   0  0  0  0  0  0  0  0  0  0  0  0
   60.5256   31.3012   47.2818 H   0  0  0  0  0  0  0  0  0  0  0  0
  1  2  1  0
  2  3  1  0
  3  4  2  0
  4  5  1  0
  5  6  2  0
  6  7  1  0
  7  8  1  0
  6  9  1  0
  9 10  1  0
 10 11  1  0
 11 12  2  0
 11 13  1  0
 13 14  1  0
 14 15  1  0
 15 16  2  0
 16 17  1  0
 17 18  2  0
 18 19  1  0
 19 20  2  0
 20 21  1  0
 21 22  1  0
 18 23  1  0
 23 24  1  0
 24 25  1  0
  9 26  2  0
 26  3  1  0
 21 13  2  0
 20 15  1  0
 25 17  1  0
  1 27  1  0
  1 28  1  0
  1 29  1  0
  4 30  1  0
  5 31  1  0
  8 32  1  0
  8 33  1  0
  8 34  1  0
 10 35  1  0
 19 36  1  0
 22 37  1  0
 22 38  1  0
 23 39  1  0
 23 40  1  0
 24 41  1  0
 24 42  1  0
 25 43  1  0
 25 44  1  0
 26 45  1  0
M  END
>  <UniqueID>  (68) 
60

>  <SMILES>  (68) 
COc1ccc(OC)c(NC(=O)c2sc3nc4c(cc3c2N)CCC4)c1

>  <Energy>  (68) 
95.29750123617141

>  <Genealogy>  (68) 
COc1ccc(OC)c(NC(=O)c2sc3nc4c(cc3c2N)CCC4)c1 (3D coordinates assigned)
COc1ccc(OC)c(NC(=O)c2sc3nc4c(cc3c2N)CCC4)c1 (nonaromatic ring conformer: 95.29750123617141 kcal/mol)

>  <smiles>  (68) 
COc1ccc(OC)c(NC(=O)c2sc3nc4c(cc3c2N)CCC4)c1

>  <score_type>  (68) 
oracle

>  <origin>  (68) 
adg

>  <m_score__min__energy>  (68) 
-8.4000000000000004

>  <m_primary>  (68) 
energy

$$$$
68:0
     RDKit          3D

 47 50  0  0  0  0  0  0  0  0999 V2000
   60.7670   28.0090   45.7970 C   0  0  0  0  0  0  0  0  0  0  0  0
   60.0460   29.3060   45.4350 C   0  0  0  0  0  0  0  0  0  0  0  0
   59.2570   29.1890   44.1250 C   0  0  0  0  0  0  0  0  0  0  0  0
   57.8270   29.4520   44.3330 N   0  0  0  0  0  0  0  0  0  0  0  0
   57.1230   30.5310   43.9300 C   0  0  0  0  0  0  0  0  0  0  0  0
   57.7500   31.8390   42.8700 S   0  0  0  0  0  0  0  0  0  0  0  0
   57.7450   33.1040   44.1840 C   0  0  0  0  0  0  0  0  0  0  0  0
   58.4500   32.5990   45.4000 C   0  0  0  0  0  0  0  0  0  0  0  0
   57.9510   31.6880   46.2520 N   0  0  0  0  0  0  0  0  0  0  0  0
   58.8640   31.4710   47.1820 N   0  0  0  0  0  0  0  0  0  0  0  0
   59.9050   32.2680   46.8590 C   0  0  0  0  0  0  0  0  0  0  0  0
   61.1640   32.3480   47.6250 C   0  0  0  0  0  0  0  0  0  0  0  0
   61.3640   31.5440   48.7600 C   0  0  0  0  0  0  0  0  0  0  0  0
   62.5610   31.6220   49.4790 C   0  0  0  0  0  0  0  0  0  0  0  0
   63.5700   32.5000   49.0690 C   0  0  0  0  0  0  0  0  0  0  0  0
   65.0720   32.5940   49.9690 Cl  0  0  0  0  0  0  0  0  0  0  0  0
   63.3780   33.3040   47.9400 C   0  0  0  0  0  0  0  0  0  0  0  0
   62.1810   33.2290   47.2210 C   0  0  0  0  0  0  0  0  0  0  0  0
   59.6560   32.9610   45.7670 O   0  0  0  0  0  0  0  0  0  0  0  0
   55.8820   30.5380   44.4490 N   0  0  0  0  0  0  0  0  0  0  0  0
   55.7730   29.4540   45.2020 N   0  0  0  0  0  0  0  0  0  0  0  0
   56.9470   28.7970   45.1250 C   0  0  0  0  0  0  0  0  0  0  0  0
   57.2200   27.5580   45.8760 C   0  0  0  0  0  0  0  0  0  0  0  0
   58.0140   27.6070   47.0320 C   0  0  0  0  0  0  0  0  0  0  0  0
   58.2730   26.4400   47.7580 C   0  0  0  0  0  0  0  0  0  0  0  0
   57.7290   25.2220   47.3420 C   0  0  0  0  0  0  0  0  0  0  0  0
   56.9200   25.1700   46.2050 C   0  0  0  0  0  0  0  0  0  0  0  0
   56.6590   26.3350   45.4760 C   0  0  0  0  0  0  0  0  0  0  0  0
   60.8207   27.9125   46.8914 H   0  0  0  0  0  0  0  0  0  0  0  0
   60.2148   27.1539   45.3801 H   0  0  0  0  0  0  0  0  0  0  0  0
   61.7848   28.0266   45.3801 H   0  0  0  0  0  0  0  0  0  0  0  0
   59.3483   29.5608   46.2463 H   0  0  0  0  0  0  0  0  0  0  0  0
   60.8082   30.0874   45.2994 H   0  0  0  0  0  0  0  0  0  0  0  0
   59.6532   29.9179   43.4027 H   0  0  0  0  0  0  0  0  0  0  0  0
   59.3677   28.1624   43.7458 H   0  0  0  0  0  0  0  0  0  0  0  0
   58.2556   34.0072   43.8187 H   0  0  0  0  0  0  0  0  0  0  0  0
   56.7031   33.3376   44.4485 H   0  0  0  0  0  0  0  0  0  0  0  0
   57.0210   31.2160   46.2030 H   0  0  0  0  0  0  0  0  0  0  0  0
   60.5750   30.8497   49.0846 H   0  0  0  0  0  0  0  0  0  0  0  0
   62.7094   30.9919   50.3684 H   0  0  0  0  0  0  0  0  0  0  0  0
   64.1699   33.9961   47.6176 H   0  0  0  0  0  0  0  0  0  0  0  0
   62.0349   33.8633   46.3342 H   0  0  0  0  0  0  0  0  0  0  0  0
   58.4341   28.5664   47.3683 H   0  0  0  0  0  0  0  0  0  0  0  0
   58.9054   26.4810   48.6571 H   0  0  0  0  0  0  0  0  0  0  0  0
   57.9381   24.3037   47.9104 H   0  0  0  0  0  0  0  0  0  0  0  0
   56.4873   24.2116   45.8821 H   0  0  0  0  0  0  0  0  0  0  0  0
   56.0125   26.2926   44.5870 H   0  0  0  0  0  0  0  0  0  0  0  0
  1  2  1  0
  2  3  1  0
  3  4  1  0
  4  5  1  0
  5  6  1  0
  6  7  1  0
  7  8  1  0
  8  9  2  0
  9 10  1  0
 10 11  2  0
 11 12  1  0
 12 13  2  0
 13 14  1  0
 14 15  2  0
 15 16  1  0
 15 17  1  0
 17 18  2  0
 11 19  1  0
  5 20  2  0
 20 21  1  0
 21 22  2  0
 22 23  1  0
 23 24  2  0
 24 25  1  0
 25 26  2  0
 26 27  1  0
 27 28  2  0
 22  4  1  0
 28 23  1  0
 19  8  1  0
 18 12  1  0
  1 29  1  0
  1 30  1  0
  1 31  1  0
  2 32  1  0
  2 33  1  0
  3 34  1  0
  3 35  1  0
  7 36  1  0
  7 37  1  0
  9 38  1  0
 13 39  1  0
 14 40  1  0
 17 41  1  0
 18 42  1  0
 24 43  1  0
 25 44  1  0
 26 45  1  0
 27 46  1  0
 28 47  1  0
M  CHG  1   9   1
M  END
>  <UniqueID>  (69) 
61

>  <SMILES>  (69) 
CCCn1c(SCc2[nH+]nc(-c3ccc(Cl)cc3)o2)nnc1-c1ccccc1

>  <Energy>  (69) 
115.9536105332182

>  <Genealogy>  (69) 
CCCn1c(SCc2[nH+]nc(-c3ccc(Cl)cc3)o2)nnc1-c1ccccc1 (protonated)
CCCn1c(SCc2[nH+]nc(-c3ccc(Cl)cc3)o2)nnc1-c1ccccc1 (3D coordinates assigned)
CCCn1c(SCc2[nH+]nc(-c3ccc(Cl)cc3)o2)nnc1-c1ccccc1 (optimized conformer: 115.9536105332182 kcal/mol)

>  <smiles>  (69) 
CCCn1c(SCc2nnc(-c3ccc(Cl)cc3)o2)nnc1-c1ccccc1

>  <score_type>  (69) 
oracle

>  <origin>  (69) 
adg

>  <m_score__min__energy>  (69) 
-7.2699999999999996

>  <m_primary>  (69) 
energy

$$$$
69:0
     RDKit          3D

 38 39  0  0  0  0  0  0  0  0999 V2000
   58.9700   31.0690   47.9990 C   0  0  0  0  0  0  0  0  0  0  0  0
   58.8190   32.2130   47.0310 C   0  0  0  0  0  0  0  0  0  0  0  0
   58.9740   33.5270   47.5070 C   0  0  0  0  0  0  0  0  0  0  0  0
   58.8600   34.6160   46.6440 C   0  0  0  0  0  0  0  0  0  0  0  0
   58.6010   34.4110   45.2900 C   0  0  0  0  0  0  0  0  0  0  0  0
   58.4480   33.1160   44.7960 C   0  0  0  0  0  0  0  0  0  0  0  0
   58.5380   32.0040   45.6540 C   0  0  0  0  0  0  0  0  0  0  0  0
   58.3280   30.6260   45.0540 C   0  0  0  0  0  0  0  0  0  0  0  0
   56.8860   30.3520   44.8610 N   0  0  0  0  0  0  0  0  0  0  0  0
   56.4410   30.8690   43.5570 C   0  0  0  0  0  0  0  0  0  0  0  0
   56.5670   28.9110   45.0020 C   0  0  0  0  0  0  0  0  0  0  0  0
   57.7840   28.1760   45.5770 C   0  0  0  0  0  0  0  0  0  0  0  0
   57.4040   27.2130   46.7080 C   0  0  0  0  0  0  0  0  0  0  0  0
   56.4690   26.1460   46.2230 C   0  0  0  0  0  0  0  0  0  0  0  0
   56.8350   24.8530   46.0830 N   0  0  0  0  0  0  0  0  0  0  0  0
   55.7040   24.2410   45.6960 C   0  0  0  0  0  0  0  0  0  0  0  0
   54.6910   25.1650   45.6180 C   0  0  0  0  0  0  0  0  0  0  0  0
   55.1660   26.3750   45.9580 N   0  0  0  0  0  0  0  0  0  0  0  0
   58.9195   31.4513   49.0292 H   0  0  0  0  0  0  0  0  0  0  0  0
   58.1599   30.3426   47.8374 H   0  0  0  0  0  0  0  0  0  0  0  0
   59.9408   30.5776   47.8374 H   0  0  0  0  0  0  0  0  0  0  0  0
   59.1876   33.6977   48.5725 H   0  0  0  0  0  0  0  0  0  0  0  0
   58.9747   35.6387   47.0324 H   0  0  0  0  0  0  0  0  0  0  0  0
   58.5172   35.2718   44.6102 H   0  0  0  0  0  0  0  0  0  0  0  0
   58.2549   32.9619   43.7241 H   0  0  0  0  0  0  0  0  0  0  0  0
   58.8385   30.5745   44.0810 H   0  0  0  0  0  0  0  0  0  0  0  0
   58.7411   29.8744   45.7428 H   0  0  0  0  0  0  0  0  0  0  0  0
   55.7306   31.6943   43.7128 H   0  0  0  0  0  0  0  0  0  0  0  0
   57.3106   31.2355   42.9917 H   0  0  0  0  0  0  0  0  0  0  0  0
   55.9492   30.0637   42.9917 H   0  0  0  0  0  0  0  0  0  0  0  0
   55.7099   28.7892   45.6806 H   0  0  0  0  0  0  0  0  0  0  0  0
   56.3149   28.4914   44.0169 H   0  0  0  0  0  0  0  0  0  0  0  0
   58.2637   27.6021   44.7705 H   0  0  0  0  0  0  0  0  0  0  0  0
   58.4659   28.9315   45.9944 H   0  0  0  0  0  0  0  0  0  0  0  0
   58.3172   26.7394   47.0975 H   0  0  0  0  0  0  0  0  0  0  0  0
   56.8967   27.7870   47.4974 H   0  0  0  0  0  0  0  0  0  0  0  0
   55.6046   23.1678   45.4760 H   0  0  0  0  0  0  0  0  0  0  0  0
   53.6535   24.9485   45.3234 H   0  0  0  0  0  0  0  0  0  0  0  0
  1  2  1  0
  2  3  2  0
  3  4  1  0
  4  5  2  0
  5  6  1  0
  6  7  2  0
  7  8  1  0
  8  9  1  0
  9 10  1  0
  9 11  1  0
 11 12  1  0
 12 13  1  0
 13 14  1  0
 14 15  2  0
 15 16  1  0
 16 17  2  0
 17 18  1  0
  7  2  1  0
 18 14  1  0
  1 19  1  0
  1 20  1  0
  1 21  1  0
  3 22  1  0
  4 23  1  0
  5 24  1  0
  6 25  1  0
  8 26  1  0
  8 27  1  0
 10 28  1  0
 10 29  1  0
 10 30  1  0
 11 31  1  0
 11 32  1  0
 12 33  1  0
 12 34  1  0
 13 35  1  0
 13 36  1  0
 16 37  1  0
 17 38  1  0
M  CHG  1  18  -1
M  END
>  <UniqueID>  (70) 
62

>  <SMILES>  (70) 
Cc1ccccc1CN(C)CCCc1ncc[n-]1

>  <Energy>  (70) 
61.38783002236669

>  <Genealogy>  (70) 
Cc1ccccc1CN(C)CCCc1ncc[n-]1 (protonated)
Cc1ccccc1CN(C)CCCc1ncc[n-]1 (3D coordinates assigned)
Cc1ccccc1CN(C)CCCc1ncc[n-]1 (optimized conformer: 61.38783002236669 kcal/mol)

>  <smiles>  (70) 
Cc1ccccc1CN(C)CCCc1ncc[nH]1

>  <score_type>  (70) 
oracle

>  <origin>  (70) 
adg

>  <m_score__min__energy>  (70) 
-8.2699999999999996

>  <m_primary>  (70) 
energy

$$$$
70:0
     RDKit          3D

 61 64  0  0  0  0  0  0  0  0999 V2000
   64.4690   32.8920   49.2990 C   0  0  0  0  0  0  0  0  0  0  0  0
   63.2500   33.3270   48.5410 C   0  0  0  0  0  0  0  0  0  0  0  0
   63.2030   33.2210   47.1430 C   0  0  0  0  0  0  0  0  0  0  0  0
   62.0510   33.5960   46.4460 C   0  0  0  0  0  0  0  0  0  0  0  0
   60.9290   34.0670   47.1390 C   0  0  0  0  0  0  0  0  0  0  0  0
   59.4660   34.5010   46.2480 S   0  0  0  0  0  0  0  0  0  0  0  0
   59.6720   35.8540   45.6280 O   0  0  0  0  0  0  0  0  0  0  0  0
   58.3030   34.5940   47.1960 O   0  0  0  0  0  0  0  0  0  0  0  0
   59.0770   33.3610   44.9870 N   0  0  0  0  0  0  0  0  0  0  0  0
   57.8270   32.6390   45.2410 C   0  0  0  0  0  0  0  0  0  0  0  0
   57.5670   31.5450   44.2010 C   0  0  0  0  0  0  0  0  0  0  0  0
   56.8160   30.4200   44.8060 N   0  0  0  0  0  0  0  0  0  0  0  0
   56.4470   29.3840   43.8210 C   0  0  0  0  0  0  0  0  0  0  0  0
   57.6430   28.4980   43.4140 C   0  0  0  0  0  0  0  0  0  0  0  0
   58.5940   28.1580   44.5910 C   0  0  0  0  0  0  0  0  0  0  0  0
   59.9400   28.9050   44.4710 C   0  0  0  0  0  0  0  0  0  0  0  0
   60.7090   28.7940   45.7190 N   0  0  0  0  0  0  0  0  0  0  0  0
   60.8730   30.0940   46.3890 C   0  0  0  0  0  0  0  0  0  0  0  0
   60.1670   30.1410   47.7230 C   0  0  0  0  0  0  0  0  0  0  0  0
   60.2430   29.0340   48.6070 C   0  0  0  0  0  0  0  0  0  0  0  0
   59.6280   29.0870   49.8710 C   0  0  0  0  0  0  0  0  0  0  0  0
   58.9540   30.2540   50.2180 C   0  0  0  0  0  0  0  0  0  0  0  0
   58.8790   31.3170   49.3780 C   0  0  0  0  0  0  0  0  0  0  0  0
   59.4710   31.3070   48.1190 C   0  0  0  0  0  0  0  0  0  0  0  0
   58.1630   32.3320   49.9840 O   0  0  0  0  0  0  0  0  0  0  0  0
   57.7650   31.8780   51.2850 C   0  0  0  0  0  0  0  0  0  0  0  0
   58.2880   30.5470   51.3920 O   0  0  0  0  0  0  0  0  0  0  0  0
   57.9050   28.4220   45.9410 C   0  0  0  0  0  0  0  0  0  0  0  0
   57.4100   29.8770   46.0600 C   0  0  0  0  0  0  0  0  0  0  0  0
   60.9700   34.1670   48.5370 C   0  0  0  0  0  0  0  0  0  0  0  0
   62.1220   33.7910   49.2350 C   0  0  0  0  0  0  0  0  0  0  0  0
   64.2734   32.9618   50.3792 H   0  0  0  0  0  0  0  0  0  0  0  0
   64.7119   31.8517   49.0368 H   0  0  0  0  0  0  0  0  0  0  0  0
   65.3157   33.5435   49.0368 H   0  0  0  0  0  0  0  0  0  0  0  0
   64.0766   32.8411   46.5929 H   0  0  0  0  0  0  0  0  0  0  0  0
   62.0256   33.5209   45.3489 H   0  0  0  0  0  0  0  0  0  0  0  0
   57.8825   32.1748   46.2367 H   0  0  0  0  0  0  0  0  0  0  0  0
   57.0014   33.3635   45.1815 H   0  0  0  0  0  0  0  0  0  0  0  0
   56.9807   31.9666   43.3713 H   0  0  0  0  0  0  0  0  0  0  0  0
   58.5326   31.1695   43.8315 H   0  0  0  0  0  0  0  0  0  0  0  0
   55.6673   28.7435   44.2590 H   0  0  0  0  0  0  0  0  0  0  0  0
   56.0900   29.8974   42.9160 H   0  0  0  0  0  0  0  0  0  0  0  0
   57.2530   27.5568   42.9992 H   0  0  0  0  0  0  0  0  0  0  0  0
   58.2307   29.0678   42.6793 H   0  0  0  0  0  0  0  0  0  0  0  0
   58.8265   27.0840   44.5408 H   0  0  0  0  0  0  0  0  0  0  0  0
   60.5234   28.4678   43.6473 H   0  0  0  0  0  0  0  0  0  0  0  0
   59.7381   29.9681   44.2734 H   0  0  0  0  0  0  0  0  0  0  0  0
   61.6540   28.3970   45.5020 H   0  0  0  0  0  0  0  0  0  0  0  0
   61.9457   30.2772   46.5492 H   0  0  0  0  0  0  0  0  0  0  0  0
   60.4273   30.8653   45.7436 H   0  0  0  0  0  0  0  0  0  0  0  0
   60.7867   28.1278   48.3018 H   0  0  0  0  0  0  0  0  0  0  0  0
   59.6782   28.2334   50.5629 H   0  0  0  0  0  0  0  0  0  0  0  0
   59.4000   32.1789   47.4521 H   0  0  0  0  0  0  0  0  0  0  0  0
   58.1909   32.5243   52.0666 H   0  0  0  0  0  0  0  0  0  0  0  0
   56.6729   31.9035   51.4143 H   0  0  0  0  0  0  0  0  0  0  0  0
   57.0440   27.7445   46.0391 H   0  0  0  0  0  0  0  0  0  0  0  0
   58.6413   28.2465   46.7391 H   0  0  0  0  0  0  0  0  0  0  0  0
   56.6465   29.9189   46.8507 H   0  0  0  0  0  0  0  0  0  0  0  0
   58.2909   30.4950   46.2883 H   0  0  0  0  0  0  0  0  0  0  0  0
   60.0938   34.5422   49.0861 H   0  0  0  0  0  0  0  0  0  0  0  0
   62.1440   33.8592   50.3327 H   0  0  0  0  0  0  0  0  0  0  0  0
  1  2  1  0
  2  3  2  0
  3  4  1  0
  4  5  2  0
  5  6  1  0
  6  7  2  0
  6  8  2  0
  6  9  1  0
  9 10  1  0
 10 11  1  0
 11 12  1  0
 12 13  1  0
 13 14  1  0
 14 15  1  0
 15 16  1  0
 16 17  1  0
 17 18  1  0
 18 19  1  0
 19 20  2  0
 20 21  1  0
 21 22  2  0
 22 23  1  0
 23 24  2  0
 23 25  1  0
 25 26  1  0
 26 27  1  0
 15 28  1  0
 28 29  1  0
  5 30  1  0
 30 31  2  0
 31  2  1  0
 29 12  1  0
 24 19  1  0
 27 22  1  0
  1 32  1  0
  1 33  1  0
  1 34  1  0
  3 35  1  0
  4 36  1  0
 10 37  1  0
 10 38  1  0
 11 39  1  0
 11 40  1  0
 13 41  1  0
 13 42  1  0
 14 43  1  0
 14 44  1  0
 15 45  1  0
 16 46  1  0
 16 47  1  0
 17 48  1  0
 18 49  1  0
 18 50  1  0
 20 51  1  0
 21 52  1  0
 24 53  1  0
 26 54  1  0
 26 55  1  0
 28 56  1  0
 28 57  1  0
 29 58  1  0
 29 59  1  0
 30 60  1  0
 31 61  1  0
M  CHG  1   9  -1
M  END
>  <UniqueID>  (71) 
63

>  <SMILES>  (71) 
Cc1ccc(S(=O)(=O)[N-]CCN2CCC(CNCc3ccc4c(c3)OCO4)CC2)cc1

>  <Energy>  (71) 
98.8608740441646

>  <Genealogy>  (71) 
Cc1ccc(S(=O)(=O)[N-]CCN2CCC(CNCc3ccc4c(c3)OCO4)CC2)cc1 (protonated)
Cc1ccc(S(=O)(=O)[N-]CCN2CCC(CNCc3ccc4c(c3)OCO4)CC2)cc1 (3D coordinates assigned)
Cc1ccc(S(=O)(=O)[N-]CCN2CCC(CNCc3ccc4c(c3)OCO4)CC2)cc1 (nonaromatic ring conformer: 98.8608740441646 kcal/mol)

>  <smiles>  (71) 
Cc1ccc(S(=O)(=O)NCCN2CCC(CNCc3ccc4c(c3)OCO4)CC2)cc1

>  <score_type>  (71) 
oracle

>  <origin>  (71) 
adg

>  <m_score__min__energy>  (71) 
-10.67

>  <m_primary>  (71) 
energy

$$$$
71:0
     RDKit          3D

 38 40  0  0  0  0  0  0  0  0999 V2000
   56.4737   25.5351   46.5062 H   0  0  0  0  0  0  0  0  0  0  0  0
   56.7850   26.4790   46.0350 C   0  0  0  0  0  0  0  0  0  0  0  0
   55.8920   27.4220   45.6310 N   0  0  0  0  0  0  0  0  0  0  0  0
   56.5150   28.4850   45.0730 C   0  0  0  0  0  0  0  0  0  0  0  0
   55.9030   29.5400   44.6260 N   0  0  0  0  0  0  0  0  0  0  0  0
   56.5200   30.6280   43.9190 C   0  0  0  0  0  0  0  0  0  0  0  0
   56.2810   30.7580   42.6890 O   0  0  0  0  0  0  0  0  0  0  0  0
   57.3780   31.6280   44.5990 C   0  0  0  0  0  0  0  0  0  0  0  0
   57.7830   31.4400   45.9330 C   0  0  0  0  0  0  0  0  0  0  0  0
   57.4713   30.5361   46.4770 H   0  0  0  0  0  0  0  0  0  0  0  0
   58.5790   32.3950   46.5710 C   0  0  0  0  0  0  0  0  0  0  0  0
   58.8983   32.2352   47.6114 H   0  0  0  0  0  0  0  0  0  0  0  0
   58.9720   33.5550   45.8910 C   0  0  0  0  0  0  0  0  0  0  0  0
   59.9630   34.7530   46.7200 S   0  0  0  0  0  0  0  0  0  0  0  0
   59.8800   36.0540   45.9740 O   0  0  0  0  0  0  0  0  0  0  0  0
   59.4650   34.9660   48.1240 O   0  0  0  0  0  0  0  0  0  0  0  0
   61.6170   34.2220   46.7650 N   0  0  0  0  0  0  0  0  0  0  0  0
   61.9190   33.6510   48.0750 C   0  0  0  0  0  0  0  0  0  0  0  0
   63.0092   33.6020   48.2129 H   0  0  0  0  0  0  0  0  0  0  0  0
   61.4820   34.2813   48.8635 H   0  0  0  0  0  0  0  0  0  0  0  0
   61.3400   32.2690   48.1540 C   0  0  0  0  0  0  0  0  0  0  0  0
   61.5700   31.3430   47.1210 C   0  0  0  0  0  0  0  0  0  0  0  0
   62.1975   31.6240   46.2624 H   0  0  0  0  0  0  0  0  0  0  0  0
   61.0030   30.0650   47.1820 C   0  0  0  0  0  0  0  0  0  0  0  0
   61.1930   29.3407   46.3762 H   0  0  0  0  0  0  0  0  0  0  0  0
   60.1960   29.7080   48.2650 C   0  0  0  0  0  0  0  0  0  0  0  0
   59.7546   28.7016   48.3135 H   0  0  0  0  0  0  0  0  0  0  0  0
   59.9490   30.6300   49.2880 C   0  0  0  0  0  0  0  0  0  0  0  0
   59.3097   30.3493   50.1380 H   0  0  0  0  0  0  0  0  0  0  0  0
   60.5140   31.9080   49.2310 C   0  0  0  0  0  0  0  0  0  0  0  0
   60.3107   32.6332   50.0327 H   0  0  0  0  0  0  0  0  0  0  0  0
   58.5560   33.7560   44.5680 C   0  0  0  0  0  0  0  0  0  0  0  0
   58.8570   34.6678   44.0313 H   0  0  0  0  0  0  0  0  0  0  0  0
   57.7600   32.8020   43.9280 C   0  0  0  0  0  0  0  0  0  0  0  0
   57.4304   32.9713   42.8923 H   0  0  0  0  0  0  0  0  0  0  0  0
   58.1840   28.3110   45.0770 S   0  0  0  0  0  0  0  0  0  0  0  0
   58.1200   26.7950   45.8090 C   0  0  0  0  0  0  0  0  0  0  0  0
   58.9845   26.1645   46.0640 H   0  0  0  0  0  0  0  0  0  0  0  0
  1  2  1  0
  2  3  1  0
  3  4  1  0
  4  5  2  0
  5  6  1  0
  6  7  2  0
  6  8  1  0
  8  9  2  0
  9 10  1  0
  9 11  1  0
 11 12  1  0
 11 13  2  0
 13 14  1  0
 14 15  2  0
 14 16  2  0
 14 17  1  0
 17 18  1  0
 18 19  1  0
 18 20  1  0
 18 21  1  0
 21 22  2  0
 22 23  1  0
 22 24  1  0
 24 25  1  0
 24 26  2  0
 26 27  1  0
 26 28  1  0
 28 29  1  0
 28 30  2  0
 30 31  1  0
 13 32  1  0
 32 33  1  0
 32 34  2  0
 34 35  1  0
  4 36  1  0
 36 37  1  0
 37 38  1  0
 37  2  2  0
 34  8  1  0
 30 21  1  0
M  CHG  2   3  -1  17  -1
M  END
>  <UniqueID>  (72) 
64

>  <SMILES>  (72) 
O=C(/N=c1\[n-]ccs1)c1ccc(S(=O)(=O)[N-]Cc2ccccc2)cc1

>  <Energy>  (72) 
75.67982287072292

>  <Genealogy>  (72) 
O=C(N=c1[n-]ccs1)c1ccc(S(=O)(=O)[N-]Cc2ccccc2)cc1 (protonated)
O=C(/N=c1\[n-]ccs1)c1ccc(S(=O)(=O)[N-]Cc2ccccc2)cc1 (cis-trans isomerization)
O=C(/N=c1\[n-]ccs1)c1ccc(S(=O)(=O)[N-]Cc2ccccc2)cc1 (3D coordinates assigned)
O=C(/N=c1\[n-]ccs1)c1ccc(S(=O)(=O)[N-]Cc2ccccc2)cc1 (optimized conformer: 75.67982287072292 kcal/mol)

>  <smiles>  (72) 
O=C(N=c1[nH]ccs1)c1ccc(S(=O)(=O)NCc2ccccc2)cc1

>  <score_type>  (72) 
oracle

>  <origin>  (72) 
adg

>  <m_score__min__energy>  (72) 
-10.84

>  <m_primary>  (72) 
energy

$$$$
72:0
     RDKit          3D

 54 57  0  0  0  0  0  0  0  0999 V2000
   64.8650   33.1180   52.3880 C   0  0  0  0  0  0  0  0  0  0  0  0
   63.6090   33.7870   52.3190 O   0  0  0  0  0  0  0  0  0  0  0  0
   62.7790   33.7990   51.1880 C   0  0  0  0  0  0  0  0  0  0  0  0
   61.3780   33.7720   51.2830 C   0  0  0  0  0  0  0  0  0  0  0  0
   60.5950   33.7810   50.1290 C   0  0  0  0  0  0  0  0  0  0  0  0
   61.1890   33.8150   48.8560 C   0  0  0  0  0  0  0  0  0  0  0  0
   60.3240   33.8070   47.6500 C   0  0  0  0  0  0  0  0  0  0  0  0
   60.7000   34.2180   46.3710 C   0  0  0  0  0  0  0  0  0  0  0  0
   59.6660   34.1420   45.4300 C   0  0  0  0  0  0  0  0  0  0  0  0
   58.4700   33.6680   45.9590 C   0  0  0  0  0  0  0  0  0  0  0  0
   57.1920   33.5070   45.2400 C   0  0  0  0  0  0  0  0  0  0  0  0
   56.5800   34.5310   44.8400 O   0  0  0  0  0  0  0  0  0  0  0  0
   56.6520   32.2150   44.9350 N   0  0  0  0  0  0  0  0  0  0  0  0
   57.3720   30.9750   44.9550 C   0  0  0  0  0  0  0  0  0  0  0  0
   57.1950   30.0050   43.9540 C   0  0  0  0  0  0  0  0  0  0  0  0
   57.9180   28.8110   43.9970 C   0  0  0  0  0  0  0  0  0  0  0  0
   58.8400   28.5850   45.0220 C   0  0  0  0  0  0  0  0  0  0  0  0
   59.0630   29.5670   46.0030 C   0  0  0  0  0  0  0  0  0  0  0  0
   59.9920   29.3530   47.0810 N   0  0  0  0  0  0  0  0  0  0  0  0
   59.7380   29.7420   48.4440 C   0  0  0  0  0  0  0  0  0  0  0  0
   58.6080   30.2010   48.7670 O   0  0  0  0  0  0  0  0  0  0  0  0
   60.7820   29.6090   49.4900 C   0  0  0  0  0  0  0  0  0  0  0  0
   60.7610   28.5510   50.4190 C   0  0  0  0  0  0  0  0  0  0  0  0
   61.7540   28.4520   51.3990 C   0  0  0  0  0  0  0  0  0  0  0  0
   62.7710   29.4060   51.4680 C   0  0  0  0  0  0  0  0  0  0  0  0
   62.7950   30.4660   50.5600 C   0  0  0  0  0  0  0  0  0  0  0  0
   61.8060   30.5720   49.5790 C   0  0  0  0  0  0  0  0  0  0  0  0
   58.3140   30.7530   45.9670 C   0  0  0  0  0  0  0  0  0  0  0  0
   58.6960   33.3690   47.5990 S   0  0  0  0  0  0  0  0  0  0  0  0
   62.5980   33.8550   48.7510 C   0  0  0  0  0  0  0  0  0  0  0  0
   63.1920   33.9310   47.4810 O   0  0  0  0  0  0  0  0  0  0  0  0
   63.7530   32.8260   46.7780 C   0  0  0  0  0  0  0  0  0  0  0  0
   63.3780   33.8400   49.9260 C   0  0  0  0  0  0  0  0  0  0  0  0
   65.1439   32.9694   53.4416 H   0  0  0  0  0  0  0  0  0  0  0  0
   64.7882   32.1413   51.8878 H   0  0  0  0  0  0  0  0  0  0  0  0
   65.6326   33.7267   51.8878 H   0  0  0  0  0  0  0  0  0  0  0  0
   60.8964   33.7436   52.2716 H   0  0  0  0  0  0  0  0  0  0  0  0
   59.4987   33.7612   50.2164 H   0  0  0  0  0  0  0  0  0  0  0  0
   61.7132   34.5687   46.1250 H   0  0  0  0  0  0  0  0  0  0  0  0
   59.7876   34.4292   44.3751 H   0  0  0  0  0  0  0  0  0  0  0  0
   56.4847   30.1867   43.1339 H   0  0  0  0  0  0  0  0  0  0  0  0
   57.7611   28.0465   43.2218 H   0  0  0  0  0  0  0  0  0  0  0  0
   59.3935   27.6352   45.0616 H   0  0  0  0  0  0  0  0  0  0  0  0
   60.8720   28.8440   46.8480 H   0  0  0  0  0  0  0  0  0  0  0  0
   59.9597   27.7987   50.3738 H   0  0  0  0  0  0  0  0  0  0  0  0
   61.7336   27.6196   52.1178 H   0  0  0  0  0  0  0  0  0  0  0  0
   63.5528   29.3224   52.2373 H   0  0  0  0  0  0  0  0  0  0  0  0
   63.5944   31.2195   50.6170 H   0  0  0  0  0  0  0  0  0  0  0  0
   61.8272   31.4136   48.8710 H   0  0  0  0  0  0  0  0  0  0  0  0
   58.4686   31.5173   46.7428 H   0  0  0  0  0  0  0  0  0  0  0  0
   64.1290   32.0853   47.4991 H   0  0  0  0  0  0  0  0  0  0  0  0
   62.9807   32.3632   46.1461 H   0  0  0  0  0  0  0  0  0  0  0  0
   64.5824   33.1763   46.1461 H   0  0  0  0  0  0  0  0  0  0  0  0
   64.4750   33.8609   49.8479 H   0  0  0  0  0  0  0  0  0  0  0  0
  1  2  1  0
  2  3  1  0
  3  4  2  0
  4  5  1  0
  5  6  2  0
  6  7  1  0
  7  8  2  0
  8  9  1  0
  9 10  2  0
 10 11  1  0
 11 12  2  0
 11 13  1  0
 13 14  1  0
 14 15  2  0
 15 16  1  0
 16 17  2  0
 17 18  1  0
 18 19  1  0
 19 20  1  0
 20 21  2  0
 20 22  1  0
 22 23  2  0
 23 24  1  0
 24 25  2  0
 25 26  1  0
 26 27  2  0
 18 28  2  0
 10 29  1  0
  6 30  1  0
 30 31  1  0
 31 32  1  0
 30 33  2  0
 33  3  1  0
 29  7  1  0
 28 14  1  0
 27 22  1  0
  1 34  1  0
  1 35  1  0
  1 36  1  0
  4 37  1  0
  5 38  1  0
  8 39  1  0
  9 40  1  0
 15 41  1  0
 16 42  1  0
 17 43  1  0
 19 44  1  0
 23 45  1  0
 24 46  1  0
 25 47  1  0
 26 48  1  0
 27 49  1  0
 28 50  1  0
 32 51  1  0
 32 52  1  0
 32 53  1  0
 33 54  1  0
M  CHG  1  13  -1
M  END
>  <UniqueID>  (73) 
65

>  <SMILES>  (73) 
COc1ccc(-c2ccc(C(=O)[N-]c3cccc(NC(=O)c4ccccc4)c3)s2)c(OC)c1

>  <Energy>  (73) 
100.32923624173235

>  <Genealogy>  (73) 
COc1ccc(-c2ccc(C(=O)[N-]c3cccc(NC(=O)c4ccccc4)c3)s2)c(OC)c1 (protonated)
COc1ccc(-c2ccc(C(=O)[N-]c3cccc(NC(=O)c4ccccc4)c3)s2)c(OC)c1 (3D coordinates assigned)
COc1ccc(-c2ccc(C(=O)[N-]c3cccc(NC(=O)c4ccccc4)c3)s2)c(OC)c1 (optimized conformer: 100.32923624173235 kcal/mol)

>  <smiles>  (73) 
COc1ccc(-c2ccc(C(=O)Nc3cccc(NC(=O)c4ccccc4)c3)s2)c(OC)c1

>  <score_type>  (73) 
oracle

>  <origin>  (73) 
adg

>  <m_score__min__energy>  (73) 
-10.460000000000001

>  <m_primary>  (73) 
energy

$$$$
73:0
     RDKit          3D

 43 46  0  0  0  0  0  0  0  0999 V2000
   55.1670   26.7190   45.9980 O   0  0  0  0  0  0  0  0  0  0  0  0
   56.3470   26.2820   46.0730 C   0  0  0  0  0  0  0  0  0  0  0  0
   56.5530   24.9420   46.1700 N   0  0  0  0  0  0  0  0  0  0  0  0
   57.7990   24.4120   46.2560 C   0  0  0  0  0  0  0  0  0  0  0  0
   58.9180   25.2430   46.2460 C   0  0  0  0  0  0  0  0  0  0  0  0
   58.7500   26.6350   46.1420 C   0  0  0  0  0  0  0  0  0  0  0  0
   59.8530   27.5130   46.1280 C   0  0  0  0  0  0  0  0  0  0  0  0
   61.0170   27.0380   46.2510 O   0  0  0  0  0  0  0  0  0  0  0  0
   59.6720   28.8730   45.9940 N   0  0  0  0  0  0  0  0  0  0  0  0
   60.8740   29.7440   45.9350 C   0  0  0  0  0  0  0  0  0  0  0  0
   61.4000   30.1150   47.3290 C   0  0  0  0  0  0  0  0  0  0  0  0
   62.0860   31.4550   47.3500 C   0  0  0  0  0  0  0  0  0  0  0  0
   63.3280   31.6080   47.9870 C   0  0  0  0  0  0  0  0  0  0  0  0
   63.9240   32.8700   48.0730 C   0  0  0  0  0  0  0  0  0  0  0  0
   63.2930   33.9830   47.5090 C   0  0  0  0  0  0  0  0  0  0  0  0
   62.0690   33.8330   46.8500 C   0  0  0  0  0  0  0  0  0  0  0  0
   61.4650   32.5750   46.7710 C   0  0  0  0  0  0  0  0  0  0  0  0
   58.3930   29.3970   45.9430 C   0  0  0  0  0  0  0  0  0  0  0  0
   58.1250   30.8590   45.9160 C   0  0  0  0  0  0  0  0  0  0  0  0
   57.6160   31.4750   44.7510 C   0  0  0  0  0  0  0  0  0  0  0  0
   57.2210   30.5460   43.3090 Cl  0  0  0  0  0  0  0  0  0  0  0  0
   57.3850   32.8540   44.7330 C   0  0  0  0  0  0  0  0  0  0  0  0
   57.6190   33.6230   45.8720 C   0  0  0  0  0  0  0  0  0  0  0  0
   58.0680   33.0160   47.0450 C   0  0  0  0  0  0  0  0  0  0  0  0
   58.3090   31.6390   47.0800 C   0  0  0  0  0  0  0  0  0  0  0  0
   58.8130   30.9150   48.6040 Cl  0  0  0  0  0  0  0  0  0  0  0  0
   57.2800   28.5470   45.9720 C   0  0  0  0  0  0  0  0  0  0  0  0
   57.4480   27.1640   46.0560 C   0  0  0  0  0  0  0  0  0  0  0  0
   57.9266   23.3222   46.3339 H   0  0  0  0  0  0  0  0  0  0  0  0
   59.9274   24.8119   46.3191 H   0  0  0  0  0  0  0  0  0  0  0  0
   61.6675   29.2136   45.3881 H   0  0  0  0  0  0  0  0  0  0  0  0
   60.5866   30.6764   45.4270 H   0  0  0  0  0  0  0  0  0  0  0  0
   60.5526   30.1418   48.0299 H   0  0  0  0  0  0  0  0  0  0  0  0
   62.1416   29.3560   47.6187 H   0  0  0  0  0  0  0  0  0  0  0  0
   63.8337   30.7322   48.4198 H   0  0  0  0  0  0  0  0  0  0  0  0
   64.8905   32.9873   48.5850 H   0  0  0  0  0  0  0  0  0  0  0  0
   63.7594   34.9764   47.5837 H   0  0  0  0  0  0  0  0  0  0  0  0
   61.5807   34.7063   46.3930 H   0  0  0  0  0  0  0  0  0  0  0  0
   60.5007   32.4612   46.2541 H   0  0  0  0  0  0  0  0  0  0  0  0
   57.0165   33.3348   43.8148 H   0  0  0  0  0  0  0  0  0  0  0  0
   57.4494   34.7095   45.8458 H   0  0  0  0  0  0  0  0  0  0  0  0
   58.2333   33.6236   47.9469 H   0  0  0  0  0  0  0  0  0  0  0  0
   56.2665   28.9724   45.9283 H   0  0  0  0  0  0  0  0  0  0  0  0
  1  2  2  0
  2  3  1  0
  3  4  1  0
  4  5  2  0
  5  6  1  0
  6  7  1  0
  7  8  2  0
  7  9  1  0
  9 10  1  0
 10 11  1  0
 11 12  1  0
 12 13  2  0
 13 14  1  0
 14 15  2  0
 15 16  1  0
 16 17  2  0
  9 18  1  0
 18 19  1  0
 19 20  2  0
 20 21  1  0
 20 22  1  0
 22 23  2  0
 23 24  1  0
 24 25  2  0
 25 26  1  0
 18 27  2  0
 27 28  1  0
 28  2  1  0
 28  6  2  0
 17 12  1  0
 25 19  1  0
  4 29  1  0
  5 30  1  0
 10 31  1  0
 10 32  1  0
 11 33  1  0
 11 34  1  0
 13 35  1  0
 14 36  1  0
 15 37  1  0
 16 38  1  0
 17 39  1  0
 22 40  1  0
 23 41  1  0
 24 42  1  0
 27 43  1  0
M  CHG  1   3  -1
M  END
>  <UniqueID>  (74) 
66

>  <SMILES>  (74) 
O=c1[n-]ccc2c(=O)n(CCc3ccccc3)c(-c3c(Cl)cccc3Cl)cc12

>  <Energy>  (74) 
64.76152015669817

>  <Genealogy>  (74) 
O=c1[n-]ccc2c(=O)n(CCc3ccccc3)c(-c3c(Cl)cccc3Cl)cc12 (protonated)
O=c1[n-]ccc2c(=O)n(CCc3ccccc3)c(-c3c(Cl)cccc3Cl)cc12 (3D coordinates assigned)
O=c1[n-]ccc2c(=O)n(CCc3ccccc3)c(-c3c(Cl)cccc3Cl)cc12 (optimized conformer: 64.76152015669817 kcal/mol)

>  <smiles>  (74) 
O=c1[nH]ccc2c(=O)n(CCc3ccccc3)c(-c3c(Cl)cccc3Cl)cc12

>  <score_type>  (74) 
oracle

>  <origin>  (74) 
adg

>  <m_score__min__energy>  (74) 
-10.77

>  <m_primary>  (74) 
energy

$$$$
74:0
     RDKit          3D

 30 31  0  0  1  0  0  0  0  0999 V2000
   54.9290   23.2560   46.8990 C   0  0  0  0  0  0  0  0  0  0  0  0
   56.2060   23.8970   47.4630 C   0  0  0  0  0  0  0  0  0  0  0  0
   56.3080   25.1970   46.7350 C   0  0  0  0  0  0  0  0  0  0  0  0
   55.5840   26.0070   46.2490 N   0  0  0  0  0  0  0  0  0  0  0  0
   55.8830   27.1120   45.6540 N   0  0  0  0  0  0  0  0  0  0  0  0
   57.1770   27.3730   45.5790 C   0  0  0  0  0  0  0  0  0  0  0  0
   57.8780   28.4190   45.0740 N   0  0  0  0  0  0  0  0  0  0  0  0
   57.0840   29.5310   44.7130 C   0  0  0  0  0  0  0  0  0  0  0  0
   55.8940   29.7110   45.0680 O   0  0  0  0  0  0  0  0  0  0  0  0
   57.7280   30.5890   43.8330 C   0  0  0  0  0  0  0  0  0  0  0  0
   57.9530   31.7390   44.7790 C   0  0  0  0  0  0  0  0  0  0  0  0
   57.2790   32.9250   44.7170 C   0  0  0  0  0  0  0  0  0  0  0  0
   57.5970   33.8620   45.6930 C   0  0  0  0  0  0  0  0  0  0  0  0
   58.5260   33.6290   46.6650 C   0  0  0  0  0  0  0  0  0  0  0  0
   58.8220   34.5710   47.6220 F   0  0  0  0  0  0  0  0  0  0  0  0
   59.2300   32.4080   46.7370 C   0  0  0  0  0  0  0  0  0  0  0  0
   58.9180   31.4740   45.7700 C   0  0  0  0  0  0  0  0  0  0  0  0
   59.5740   30.2870   45.8050 F   0  0  0  0  0  0  0  0  0  0  0  0
   58.0290   25.9480   46.4150 S   0  0  0  0  0  0  0  0  0  0  0  0
   54.2839   22.9322   47.7290 H   0  0  0  0  0  0  0  0  0  0  0  0
   54.3914   23.9911   46.2820 H   0  0  0  0  0  0  0  0  0  0  0  0
   55.1973   22.3857   46.2820 H   0  0  0  0  0  0  0  0  0  0  0  0
   56.1153   24.0616   48.5468 H   0  0  0  0  0  0  0  0  0  0  0  0
   57.0946   23.2634   47.3257 H   0  0  0  0  0  0  0  0  0  0  0  0
   55.1450   27.7660   45.2490 H   0  0  0  0  0  0  0  0  0  0  0  0
   58.6807   30.2289   43.4174 H   0  0  0  0  0  0  0  0  0  0  0  0
   57.1091   30.8611   42.9653 H   0  0  0  0  0  0  0  0  0  0  0  0
   56.5277   33.1271   43.9394 H   0  0  0  0  0  0  0  0  0  0  0  0
   57.0782   34.8319   45.6814 H   0  0  0  0  0  0  0  0  0  0  0  0
   59.9815   32.2127   47.5162 H   0  0  0  0  0  0  0  0  0  0  0  0
  1  2  1  0
  2  3  1  0
  3  4  2  0
  4  5  1  0
  5  6  1  0
  6  7  2  0
  7  8  1  0
  8  9  2  0
  8 10  1  0
 10 11  1  0
 11 12  2  0
 12 13  1  0
 13 14  2  0
 14 15  1  0
 14 16  1  0
 16 17  2  0
 17 18  1  0
  6 19  1  0
 19  3  1  0
 17 11  1  0
  1 20  1  0
  1 21  1  0
  1 22  1  0
  2 23  1  0
  2 24  1  0
  5 25  1  0
 10 26  1  0
 10 27  1  0
 12 28  1  0
 13 29  1  0
 16 30  1  0
M  END
>  <smiles>  (75) 
CCc1n[nH]c(=NC(=O)Cc2ccc(F)cc2F)s1

>  <score_type>  (75) 
oracle

>  <origin>  (75) 
adg

>  <m_score__min__energy>  (75) 
-7.4500000000000002

>  <m_primary>  (75) 
energy

$$$$
75:0
     RDKit          3D

 16 16  0  0  0  0  0  0  0  0999 V2000
   53.0850   27.3700   53.8260 C   0  0  0  0  0  0  0  0  0  0  0  0
   52.5980   28.6100   53.1380 C   0  0  0  0  0  0  0  0  0  0  0  0
   53.4740   29.3790   52.3650 C   0  0  0  0  0  0  0  0  0  0  0  0
   53.0110   30.5490   51.7630 C   0  0  0  0  0  0  0  0  0  0  0  0
   53.7980   31.2370   51.0590 O   0  0  0  0  0  0  0  0  0  0  0  0
   51.6710   30.9360   51.9560 C   0  0  0  0  0  0  0  0  0  0  0  0
   51.0940   32.1570   51.3560 C   0  0  0  0  0  0  0  0  0  0  0  0
   50.6620   33.0970   52.0740 O   0  0  0  0  0  0  0  0  0  0  0  0
   51.0230   32.2750   49.9730 O   0  0  0  0  0  0  0  0  0  0  0  0
   50.8730   30.1560   52.7330 N   0  0  0  0  0  0  0  0  0  0  0  0
   51.3160   29.0360   53.3100 N   0  0  0  0  0  0  0  0  0  0  0  0
   53.0301   27.5097   54.9157 H   0  0  0  0  0  0  0  0  0  0  0  0
   52.4551   26.5170   53.5335 H   0  0  0  0  0  0  0  0  0  0  0  0
   54.1271   27.1736   53.5335 H   0  0  0  0  0  0  0  0  0  0  0  0
   54.5195   29.0637   52.2329 H   0  0  0  0  0  0  0  0  0  0  0  0
   50.6570   28.4840   53.9030 H   0  0  0  0  0  0  0  0  0  0  0  0
  1  2  1  0
  2  3  2  0
  3  4  1  0
  4  5  2  0
  4  6  1  0
  6  7  1  0
  7  8  2  0
  7  9  1  0
  6 10  2  0
 10 11  1  0
 11  2  1  0
  1 12  1  0
  1 13  1  0
  1 14  1  0
  3 15  1  0
 11 16  1  0
M  CHG  1   9  -1
M  END
>  <UniqueID>  (76) 
67

>  <SMILES>  (76) 
Cc1cc(=O)c(C(=O)[O-])n[nH]1

>  <Energy>  (76) 
15.605642749077147

>  <Genealogy>  (76) 
Cc1cc(=O)c(C(=O)[O-])n[nH]1 (protonated)
Cc1cc(=O)c(C(=O)[O-])n[nH]1 (3D coordinates assigned)
Cc1cc(=O)c(C(=O)[O-])n[nH]1 (optimized conformer: 15.605642749077147 kcal/mol)

>  <smiles>  (76) 
Cc1cc(=O)c(C(=O)O)n[nH]1

>  <score_type>  (76) 
oracle

>  <origin>  (76) 
adg

>  <m_score__min__energy>  (76) 
-8.3399999999999999

>  <m_primary>  (76) 
energy

$$$$
76:0
     RDKit          3D

 25 26  0  0  0  0  0  0  0  0999 V2000
   54.8640   26.3200   46.0060 N   0  0  0  0  0  0  0  0  0  0  0  0
   56.1400   25.9200   46.5050 C   0  0  0  0  0  0  0  0  0  0  0  0
   56.2160   24.9090   47.2540 O   0  0  0  0  0  0  0  0  0  0  0  0
   57.3610   26.6810   46.1480 C   0  0  0  0  0  0  0  0  0  0  0  0
   58.6250   26.0710   46.1970 C   0  0  0  0  0  0  0  0  0  0  0  0
   59.7720   26.7890   45.8560 C   0  0  0  0  0  0  0  0  0  0  0  0
   59.6820   28.1280   45.4650 C   0  0  0  0  0  0  0  0  0  0  0  0
   61.1600   28.9540   44.9790 Cl  0  0  0  0  0  0  0  0  0  0  0  0
   58.4220   28.7630   45.4210 C   0  0  0  0  0  0  0  0  0  0  0  0
   58.2820   30.1830   45.0260 C   0  0  0  0  0  0  0  0  0  0  0  0
   58.6910   31.2030   45.9040 C   0  0  0  0  0  0  0  0  0  0  0  0
   58.5760   32.5450   45.5270 C   0  0  0  0  0  0  0  0  0  0  0  0
   58.0620   32.8790   44.2720 C   0  0  0  0  0  0  0  0  0  0  0  0
   57.6650   31.8700   43.3890 C   0  0  0  0  0  0  0  0  0  0  0  0
   57.7780   30.5270   43.7600 C   0  0  0  0  0  0  0  0  0  0  0  0
   57.2710   28.0290   45.7560 C   0  0  0  0  0  0  0  0  0  0  0  0
   54.7630   26.7120   45.0440 H   0  0  0  0  0  0  0  0  0  0  0  0
   58.7116   25.0190   46.5066 H   0  0  0  0  0  0  0  0  0  0  0  0
   60.7551   26.2972   45.8952 H   0  0  0  0  0  0  0  0  0  0  0  0
   59.1028   30.9443   46.8907 H   0  0  0  0  0  0  0  0  0  0  0  0
   58.8910   33.3389   46.2202 H   0  0  0  0  0  0  0  0  0  0  0  0
   57.9695   33.9351   43.9784 H   0  0  0  0  0  0  0  0  0  0  0  0
   57.2627   32.1338   42.3998 H   0  0  0  0  0  0  0  0  0  0  0  0
   57.4714   29.7369   43.0588 H   0  0  0  0  0  0  0  0  0  0  0  0
   56.2856   28.5157   45.7110 H   0  0  0  0  0  0  0  0  0  0  0  0
  1  2  1  0
  2  3  2  0
  2  4  1  0
  4  5  2  0
  5  6  1  0
  6  7  2  0
  7  8  1  0
  7  9  1  0
  9 10  1  0
 10 11  2  0
 11 12  1  0
 12 13  2  0
 13 14  1  0
 14 15  2  0
  9 16  2  0
 16  4  1  0
 15 10  1  0
  1 17  1  0
  5 18  1  0
  6 19  1  0
 11 20  1  0
 12 21  1  0
 13 22  1  0
 14 23  1  0
 15 24  1  0
 16 25  1  0
M  CHG  1   1  -1
M  END
>  <UniqueID>  (77) 
68

>  <SMILES>  (77) 
[NH-]C(=O)c1ccc(Cl)c(-c2ccccc2)c1

>  <Energy>  (77) 
33.70410090961964

>  <Genealogy>  (77) 
[NH-]C(=O)c1ccc(Cl)c(-c2ccccc2)c1 (protonated)
[NH-]C(=O)c1ccc(Cl)c(-c2ccccc2)c1 (3D coordinates assigned)
[NH-]C(=O)c1ccc(Cl)c(-c2ccccc2)c1 (optimized conformer: 33.70410090961964 kcal/mol)

>  <smiles>  (77) 
NC(=O)c1ccc(Cl)c(-c2ccccc2)c1

>  <score_type>  (77) 
oracle

>  <origin>  (77) 
adg

>  <m_score__min__energy>  (77) 
-10.18

>  <m_primary>  (77) 
energy

$$$$
77:0
     RDKit          3D

 43 45  0  0  0  0  0  0  0  0999 V2000
   62.2570   33.8640   51.1570 C   0  0  0  0  0  0  0  0  0  0  0  0
   62.5430   33.6420   49.7250 N   0  0  0  0  0  0  0  0  0  0  0  0
   63.8490   33.5160   49.3040 C   0  0  0  0  0  0  0  0  0  0  0  0
   64.8060   33.5870   50.1240 O   0  0  0  0  0  0  0  0  0  0  0  0
   64.1490   33.3060   47.9580 C   0  0  0  0  0  0  0  0  0  0  0  0
   63.1270   33.2220   47.0250 C   0  0  0  0  0  0  0  0  0  0  0  0
   61.8000   33.3480   47.4340 C   0  0  0  0  0  0  0  0  0  0  0  0
   60.7630   33.2630   46.4920 C   0  0  0  0  0  0  0  0  0  0  0  0
   59.4300   33.3880   46.8950 C   0  0  0  0  0  0  0  0  0  0  0  0
   58.1210   33.2550   45.7210 S   0  0  0  0  0  0  0  0  0  0  0  0
   56.9090   33.9560   46.2690 O   0  0  0  0  0  0  0  0  0  0  0  0
   58.5160   33.9210   44.4310 O   0  0  0  0  0  0  0  0  0  0  0  0
   57.7530   31.5720   45.4330 N   0  0  2  0  0  0  0  0  0  0  0  0
   58.9630   30.7540   45.6190 C   0  0  0  0  0  0  0  0  0  0  0  0
   58.6220   29.2540   45.5720 C   0  0  0  0  0  0  0  0  0  0  0  0
   57.6010   28.8970   44.4600 C   0  0  1  0  0  0  0  0  0  0  0  0
   56.2610   28.4810   45.0170 C   0  0  0  0  0  0  0  0  0  0  0  0
   55.1420   29.3550   44.8900 N   0  0  0  0  0  0  0  0  0  0  0  0
   56.1240   27.3810   45.6180 O   0  0  0  0  0  0  0  0  0  0  0  0
   57.4420   30.0330   43.4350 C   0  0  0  0  0  0  0  0  0  0  0  0
   57.1490   31.4040   44.0850 C   0  0  0  0  0  0  0  0  0  0  0  0
   59.1310   33.5900   48.2430 C   0  0  0  0  0  0  0  0  0  0  0  0
   60.1520   33.6790   49.1910 C   0  0  0  0  0  0  0  0  0  0  0  0
   61.5100   33.5600   48.8080 C   0  0  0  0  0  0  0  0  0  0  0  0
   62.9803   33.3026   51.7667 H   0  0  0  0  0  0  0  0  0  0  0  0
   62.3396   34.9369   51.3854 H   0  0  0  0  0  0  0  0  0  0  0  0
   61.2382   33.5179   51.3854 H   0  0  0  0  0  0  0  0  0  0  0  0
   65.1964   33.2071   47.6369 H   0  0  0  0  0  0  0  0  0  0  0  0
   63.3627   33.0562   45.9634 H   0  0  0  0  0  0  0  0  0  0  0  0
   61.0003   33.0971   45.4308 H   0  0  0  0  0  0  0  0  0  0  0  0
   57.0510   31.2980   46.1600 H   0  0  0  0  0  0  0  0  0  0  0  0
   59.6813   30.9857   44.8188 H   0  0  0  0  0  0  0  0  0  0  0  0
   59.3972   30.9859   46.6027 H   0  0  0  0  0  0  0  0  0  0  0  0
   59.5487   28.6898   45.3908 H   0  0  0  0  0  0  0  0  0  0  0  0
   58.1622   28.9916   46.5362 H   0  0  0  0  0  0  0  0  0  0  0  0
   58.0190   28.0266   43.9331 H   0  0  0  0  0  0  0  0  0  0  0  0
   54.3940   29.3770   45.6180 H   0  0  0  0  0  0  0  0  0  0  0  0
   58.3732   30.1131   42.8549 H   0  0  0  0  0  0  0  0  0  0  0  0
   56.5795   29.7816   42.8002 H   0  0  0  0  0  0  0  0  0  0  0  0
   57.5456   32.1913   43.4270 H   0  0  0  0  0  0  0  0  0  0  0  0
   56.0585   31.4707   44.2128 H   0  0  0  0  0  0  0  0  0  0  0  0
   58.0819   33.6799   48.5614 H   0  0  0  0  0  0  0  0  0  0  0  0
   59.8984   33.8436   50.2486 H   0  0  0  0  0  0  0  0  0  0  0  0
  1  2  1  0
  2  3  1  0
  3  4  2  0
  3  5  1  0
  5  6  2  0
  6  7  1  0
  7  8  2  0
  8  9  1  0
  9 10  1  0
 10 11  2  0
 10 12  2  0
 10 13  1  0
 13 14  1  0
 14 15  1  0
 15 16  1  0
 16 17  1  0
 17 18  1  0
 17 19  2  0
 16 20  1  0
 20 21  1  0
  9 22  2  0
 22 23  1  0
 23 24  2  0
 24  2  1  0
 24  7  1  0
 21 13  1  0
  1 25  1  0
  1 26  1  0
  1 27  1  0
  5 28  1  0
  6 29  1  0
  8 30  1  0
 13 31  1  1
 14 32  1  0
 14 33  1  0
 15 34  1  0
 15 35  1  0
 16 36  1  6
 18 37  1  0
 20 38  1  0
 20 39  1  0
 21 40  1  0
 21 41  1  0
 22 42  1  0
 23 43  1  0
M  CHG  2  13   1  18  -1
M  END
>  <UniqueID>  (78) 
69

>  <SMILES>  (78) 
Cn1c(=O)ccc2cc(S(=O)(=O)[NH+]3CCC(C([NH-])=O)CC3)ccc21

>  <Energy>  (78) 
59.37598987232245

>  <Genealogy>  (78) 
Cn1c(=O)ccc2cc(S(=O)(=O)[NH+]3CCC(C([NH-])=O)CC3)ccc21 (protonated)
Cn1c(=O)ccc2cc(S(=O)(=O)[NH+]3CCC(C([NH-])=O)CC3)ccc21 (3D coordinates assigned)
Cn1c(=O)ccc2cc(S(=O)(=O)[NH+]3CCC(C([NH-])=O)CC3)ccc21 (nonaromatic ring conformer: 59.37598987232245 kcal/mol)

>  <smiles>  (78) 
Cn1c(=O)ccc2cc(S(=O)(=O)N3CCC(C(N)=O)CC3)ccc21

>  <score_type>  (78) 
oracle

>  <origin>  (78) 
adg

>  <m_score__min__energy>  (78) 
-10.93

>  <m_primary>  (78) 
energy

$$$$
78:0
     RDKit          3D

 28 29  0  0  0  0  0  0  0  0999 V2000
   54.3970   26.7280   46.7410 H   0  0  0  0  0  0  0  0  0  0  0  0
   55.2590   26.2890   46.3460 N   0  0  0  0  0  0  0  0  0  0  0  0
   56.2760   27.0030   45.9730 C   0  0  0  0  0  0  0  0  0  0  0  0
   56.0610   28.1220   45.2310 N   0  0  0  0  0  0  0  0  0  0  0  0
   57.0830   28.8990   44.7980 C   0  0  0  0  0  0  0  0  0  0  0  0
   56.7970   30.1070   43.9540 C   0  0  0  0  0  0  0  0  0  0  0  0
   57.1295   29.9157   42.9231 H   0  0  0  0  0  0  0  0  0  0  0  0
   55.7154   30.3064   43.9717 H   0  0  0  0  0  0  0  0  0  0  0  0
   57.5260   31.3130   44.4960 C   0  0  0  0  0  0  0  0  0  0  0  0
   57.7710   31.3990   45.8780 C   0  0  0  0  0  0  0  0  0  0  0  0
   57.4098   30.6040   46.5469 H   0  0  0  0  0  0  0  0  0  0  0  0
   58.4700   32.4870   46.4080 C   0  0  0  0  0  0  0  0  0  0  0  0
   58.6498   32.5493   47.4914 H   0  0  0  0  0  0  0  0  0  0  0  0
   58.9400   33.4940   45.5650 C   0  0  0  0  0  0  0  0  0  0  0  0
   59.4894   34.3497   45.9844 H   0  0  0  0  0  0  0  0  0  0  0  0
   58.7140   33.4170   44.1900 C   0  0  0  0  0  0  0  0  0  0  0  0
   59.0873   34.2129   43.5288 H   0  0  0  0  0  0  0  0  0  0  0  0
   58.0140   32.3310   43.6470 C   0  0  0  0  0  0  0  0  0  0  0  0
   57.7740   32.2860   41.9030 Cl  0  0  0  0  0  0  0  0  0  0  0  0
   58.3950   28.5290   45.0950 C   0  0  0  0  0  0  0  0  0  0  0  0
   59.2414   29.1335   44.7370 H   0  0  0  0  0  0  0  0  0  0  0  0
   58.6150   27.3790   45.8540 C   0  0  0  0  0  0  0  0  0  0  0  0
   59.8030   27.0380   46.1050 O   0  0  0  0  0  0  0  0  0  0  0  0
   57.5560   26.6350   46.3120 N   0  0  0  0  0  0  0  0  0  0  0  0
   57.7960   25.4080   47.0930 C   0  0  0  0  0  0  0  0  0  0  0  0
   57.7502   25.6420   48.1668 H   0  0  0  0  0  0  0  0  0  0  0  0
   57.0270   24.6608   46.8475 H   0  0  0  0  0  0  0  0  0  0  0  0
   58.7899   25.0056   46.8475 H   0  0  0  0  0  0  0  0  0  0  0  0
  1  2  1  0
  2  3  2  0
  3  4  1  0
  4  5  1  0
  5  6  1  0
  6  7  1  0
  6  8  1  0
  6  9  1  0
  9 10  2  0
 10 11  1  0
 10 12  1  0
 12 13  1  0
 12 14  2  0
 14 15  1  0
 14 16  1  0
 16 17  1  0
 16 18  2  0
 18 19  1  0
  5 20  2  0
 20 21  1  0
 20 22  1  0
 22 23  2  0
 22 24  1  0
 24 25  1  0
 25 26  1  0
 25 27  1  0
 25 28  1  0
 24  3  1  0
 18  9  1  0
M  CHG  1   4  -1
M  END
>  <UniqueID>  (79) 
70

>  <SMILES>  (79) 
[H]/N=c1\[n-]c(Cc2ccccc2Cl)cc(=O)n1C

>  <Energy>  (79) 
32.44927315931695

>  <Genealogy>  (79) 
Cn1c(=O)cc(Cc2ccccc2Cl)[n-]c1=N (protonated)
[H]/N=c1\[n-]c(Cc2ccccc2Cl)cc(=O)n1C (cis-trans isomerization)
[H]/N=c1\[n-]c(Cc2ccccc2Cl)cc(=O)n1C (3D coordinates assigned)
[H]/N=c1\[n-]c(Cc2ccccc2Cl)cc(=O)n1C (optimized conformer: 32.44927315931695 kcal/mol)

>  <smiles>  (79) 
Cn1c(=O)cc(Cc2ccccc2Cl)[nH]c1=N

>  <score_type>  (79) 
oracle

>  <origin>  (79) 
adg

>  <m_score__min__energy>  (79) 
-9.0199999999999996

>  <m_primary>  (79) 
energy

$$$$
79:0
     RDKit          3D

 31 31  0  0  0  0  0  0  0  0999 V2000
   58.1440   27.2750   43.2040 C   0  0  0  0  0  0  0  0  0  0  0  0
   58.0900   27.0040   44.7000 C   0  0  0  0  0  0  0  0  0  0  0  0
   57.9400   28.2310   45.3870 O   0  0  0  0  0  0  0  0  0  0  0  0
   58.8280   29.1980   44.8620 C   0  0  0  0  0  0  0  0  0  0  0  0
   58.2120   30.5660   44.9310 C   0  0  0  0  0  0  0  0  0  0  0  0
   58.8390   31.6520   45.4160 N   0  0  0  0  0  0  0  0  0  0  0  0
   57.9290   32.6410   45.3170 C   0  0  0  0  0  0  0  0  0  0  0  0
   58.1730   34.0490   45.7590 C   0  0  0  0  0  0  0  0  0  0  0  0
   59.4990   34.1950   46.2310 O   0  0  0  0  0  0  0  0  0  0  0  0
   59.4920   34.5830   47.5880 C   0  0  0  0  0  0  0  0  0  0  0  0
   56.7900   32.2200   44.8090 O   0  0  0  0  0  0  0  0  0  0  0  0
   56.9300   30.9370   44.5630 C   0  0  0  0  0  0  0  0  0  0  0  0
   55.8650   30.0730   43.9640 C   0  0  0  0  0  0  0  0  0  0  0  0
   55.5280   28.9890   44.8810 N   0  0  0  0  0  0  0  0  0  0  0  0
   58.3563   28.3405   43.0318 H   0  0  0  0  0  0  0  0  0  0  0  0
   58.9382   26.6647   42.7492 H   0  0  0  0  0  0  0  0  0  0  0  0
   57.1765   27.0157   42.7492 H   0  0  0  0  0  0  0  0  0  0  0  0
   57.2356   26.3488   44.9251 H   0  0  0  0  0  0  0  0  0  0  0  0
   59.0191   26.5104   45.0212 H   0  0  0  0  0  0  0  0  0  0  0  0
   59.7597   29.1900   45.4468 H   0  0  0  0  0  0  0  0  0  0  0  0
   59.0399   28.9545   43.8104 H   0  0  0  0  0  0  0  0  0  0  0  0
   59.8110   31.7140   45.7920 H   0  0  0  0  0  0  0  0  0  0  0  0
   58.0140   34.7285   44.9087 H   0  0  0  0  0  0  0  0  0  0  0  0
   57.4753   34.2933   46.5736 H   0  0  0  0  0  0  0  0  0  0  0  0
   59.5082   33.6868   48.2257 H   0  0  0  0  0  0  0  0  0  0  0  0
   60.3792   35.1985   47.7980 H   0  0  0  0  0  0  0  0  0  0  0  0
   58.5832   35.1661   47.7980 H   0  0  0  0  0  0  0  0  0  0  0  0
   54.9681   30.6803   43.7724 H   0  0  0  0  0  0  0  0  0  0  0  0
   56.2347   29.6459   43.0201 H   0  0  0  0  0  0  0  0  0  0  0  0
   55.9960   29.1800   45.7980 H   0  0  0  0  0  0  0  0  0  0  0  0
   55.9570   28.1120   44.5050 H   0  0  0  0  0  0  0  0  0  0  0  0
  1  2  1  0
  2  3  1  0
  3  4  1  0
  4  5  1  0
  5  6  1  0
  6  7  2  0
  7  8  1  0
  8  9  1  0
  9 10  1  0
  7 11  1  0
 11 12  1  0
 12 13  1  0
 13 14  1  0
 12  5  2  0
  1 15  1  0
  1 16  1  0
  1 17  1  0
  2 18  1  0
  2 19  1  0
  4 20  1  0
  4 21  1  0
  6 22  1  0
  8 23  1  0
  8 24  1  0
 10 25  1  0
 10 26  1  0
 10 27  1  0
 13 28  1  0
 13 29  1  0
 14 30  1  0
 14 31  1  0
M  CHG  1   6   1
M  END
>  <UniqueID>  (80) 
71

>  <SMILES>  (80) 
CCOCc1[nH+]c(COC)oc1CN

>  <Energy>  (80) 
55.43854915194264

>  <Genealogy>  (80) 
CCOCc1[nH+]c(COC)oc1CN (protonated)
CCOCc1[nH+]c(COC)oc1CN (3D coordinates assigned)
CCOCc1[nH+]c(COC)oc1CN (optimized conformer: 55.43854915194264 kcal/mol)

>  <smiles>  (80) 
CCOCc1nc(COC)oc1CN

>  <score_type>  (80) 
oracle

>  <origin>  (80) 
adg

>  <m_score__min__energy>  (80) 
-2.8599999999999999

>  <m_primary>  (80) 
energy

$$$$
80:0
     RDKit          3D

 43 46  0  0  0  0  0  0  0  0999 V2000
   60.2970   31.7760   46.0940 O   0  0  0  0  0  0  0  0  0  0  0  0
   59.8220   30.7150   46.5740 C   0  0  0  0  0  0  0  0  0  0  0  0
   59.8020   30.5130   47.9940 N   0  0  0  0  0  0  0  0  0  0  0  0
   59.5320   31.5060   48.9960 C   0  0  0  0  0  0  0  0  0  0  0  0
   58.4130   31.3910   49.8440 C   0  0  0  0  0  0  0  0  0  0  0  0
   58.1990   32.3210   50.8640 C   0  0  0  0  0  0  0  0  0  0  0  0
   59.1050   33.3620   51.0630 C   0  0  0  0  0  0  0  0  0  0  0  0
   60.2300   33.4770   50.2450 C   0  0  0  0  0  0  0  0  0  0  0  0
   60.4570   32.5560   49.2060 C   0  0  0  0  0  0  0  0  0  0  0  0
   61.6520   32.7210   48.3450 C   0  0  0  0  0  0  0  0  0  0  0  0
   61.8920   33.8730   47.5740 C   0  0  0  0  0  0  0  0  0  0  0  0
   63.0550   33.8080   46.8200 C   0  0  0  0  0  0  0  0  0  0  0  0
   63.7750   32.3160   47.1000 S   0  0  0  0  0  0  0  0  0  0  0  0
   62.6290   31.7390   48.1840 C   0  0  0  0  0  0  0  0  0  0  0  0
   59.3280   29.6390   45.6880 C   0  0  0  0  0  0  0  0  0  0  0  0
   59.8530   28.3570   45.6630 C   0  0  0  0  0  0  0  0  0  0  0  0
   59.1380   27.6560   44.7130 C   0  0  0  0  0  0  0  0  0  0  0  0
   58.2080   28.5300   44.1930 C   0  0  0  0  0  0  0  0  0  0  0  0
   58.3230   29.7340   44.7840 N   0  0  0  0  0  0  0  0  0  0  0  0
   57.3450   31.1160   44.3900 S   0  0  0  0  0  0  0  0  0  0  0  0
   57.3350   31.3010   42.8970 O   0  0  0  0  0  0  0  0  0  0  0  0
   55.9350   30.8890   44.8550 O   0  0  0  0  0  0  0  0  0  0  0  0
   57.9790   32.5460   45.1950 C   0  0  0  0  0  0  0  0  0  0  0  0
   58.8080   33.4300   44.4920 C   0  0  0  0  0  0  0  0  0  0  0  0
   59.3210   34.5690   45.1230 C   0  0  0  0  0  0  0  0  0  0  0  0
   59.0080   34.8250   46.4610 C   0  0  0  0  0  0  0  0  0  0  0  0
   58.1800   33.9470   47.1670 C   0  0  0  0  0  0  0  0  0  0  0  0
   57.6680   32.8060   46.5380 C   0  0  0  0  0  0  0  0  0  0  0  0
   57.7028   30.5631   49.7019 H   0  0  0  0  0  0  0  0  0  0  0  0
   57.3142   32.2320   51.5114 H   0  0  0  0  0  0  0  0  0  0  0  0
   58.9328   34.0938   51.8660 H   0  0  0  0  0  0  0  0  0  0  0  0
   60.9456   34.2951   50.4142 H   0  0  0  0  0  0  0  0  0  0  0  0
   61.2203   34.7441   47.5693 H   0  0  0  0  0  0  0  0  0  0  0  0
   63.4386   34.5958   46.1550 H   0  0  0  0  0  0  0  0  0  0  0  0
   62.6462   30.7575   48.6804 H   0  0  0  0  0  0  0  0  0  0  0  0
   60.6787   27.9728   46.2800 H   0  0  0  0  0  0  0  0  0  0  0  0
   59.2825   26.6038   44.4265 H   0  0  0  0  0  0  0  0  0  0  0  0
   57.4779   28.2801   43.4091 H   0  0  0  0  0  0  0  0  0  0  0  0
   59.0567   33.2280   43.4397 H   0  0  0  0  0  0  0  0  0  0  0  0
   59.9696   35.2618   44.5668 H   0  0  0  0  0  0  0  0  0  0  0  0
   59.4135   35.7181   46.9590 H   0  0  0  0  0  0  0  0  0  0  0  0
   57.9305   34.1531   48.2183 H   0  0  0  0  0  0  0  0  0  0  0  0
   57.0217   32.1132   47.0969 H   0  0  0  0  0  0  0  0  0  0  0  0
  1  2  2  0
  2  3  1  0
  3  4  1  0
  4  5  2  0
  5  6  1  0
  6  7  2  0
  7  8  1  0
  8  9  2  0
  9 10  1  0
 10 11  1  0
 11 12  2  0
 12 13  1  0
 13 14  1  0
  2 15  1  0
 15 16  2  0
 16 17  1  0
 17 18  2  0
 18 19  1  0
 19 20  1  0
 20 21  2  0
 20 22  2  0
 20 23  1  0
 23 24  2  0
 24 25  1  0
 25 26  2  0
 26 27  1  0
 27 28  2  0
  9  4  1  0
 14 10  2  0
 19 15  1  0
 28 23  1  0
  5 29  1  0
  6 30  1  0
  7 31  1  0
  8 32  1  0
 11 33  1  0
 12 34  1  0
 14 35  1  0
 16 36  1  0
 17 37  1  0
 18 38  1  0
 24 39  1  0
 25 40  1  0
 26 41  1  0
 27 42  1  0
 28 43  1  0
M  CHG  1   3  -1
M  END
>  <UniqueID>  (81) 
72

>  <SMILES>  (81) 
O=C([N-]c1ccccc1-c1ccsc1)c1cccn1S(=O)(=O)c1ccccc1

>  <Energy>  (81) 
110.71594061744734

>  <Genealogy>  (81) 
O=C([N-]c1ccccc1-c1ccsc1)c1cccn1S(=O)(=O)c1ccccc1 (protonated)
O=C([N-]c1ccccc1-c1ccsc1)c1cccn1S(=O)(=O)c1ccccc1 (3D coordinates assigned)
O=C([N-]c1ccccc1-c1ccsc1)c1cccn1S(=O)(=O)c1ccccc1 (optimized conformer: 110.71594061744734 kcal/mol)

>  <smiles>  (81) 
O=C(Nc1ccccc1-c1ccsc1)c1cccn1S(=O)(=O)c1ccccc1

>  <score_type>  (81) 
oracle

>  <origin>  (81) 
adg

>  <m_score__min__energy>  (81) 
-11.16

>  <m_primary>  (81) 
energy

$$$$
81:0
     RDKit          3D

 42 45  0  0  0  0  0  0  0  0999 V2000
   55.3890   29.5430   44.8310 O   0  0  0  0  0  0  0  0  0  0  0  0
   56.6170   29.6610   44.5750 C   0  0  0  0  0  0  0  0  0  0  0  0
   57.3720   28.4780   44.2760 N   0  0  0  0  0  0  0  0  0  0  0  0
   57.8310   27.5050   45.2280 C   0  0  0  0  0  0  0  0  0  0  0  0
   59.2030   27.2240   45.3710 C   0  0  0  0  0  0  0  0  0  0  0  0
   59.6360   26.2780   46.3020 C   0  0  0  0  0  0  0  0  0  0  0  0
   58.7080   25.5890   47.0840 C   0  0  0  0  0  0  0  0  0  0  0  0
   57.3420   25.8400   46.9290 C   0  0  0  0  0  0  0  0  0  0  0  0
   56.8970   26.7870   46.0000 C   0  0  0  0  0  0  0  0  0  0  0  0
   55.5250   27.0080   45.8690 O   0  0  0  0  0  0  0  0  0  0  0  0
   57.2590   30.9910   44.6680 C   0  0  0  0  0  0  0  0  0  0  0  0
   57.4180   31.8030   43.5340 C   0  0  0  0  0  0  0  0  0  0  0  0
   58.0230   33.0550   43.6600 C   0  0  0  0  0  0  0  0  0  0  0  0
   58.4630   33.4960   44.9140 C   0  0  0  0  0  0  0  0  0  0  0  0
   59.0690   34.7510   45.0700 C   0  0  0  0  0  0  0  0  0  0  0  0
   59.4880   35.1720   46.3340 C   0  0  0  0  0  0  0  0  0  0  0  0
   59.3130   34.3450   47.4470 C   0  0  0  0  0  0  0  0  0  0  0  0
   58.7240   33.0780   47.3100 C   0  0  0  0  0  0  0  0  0  0  0  0
   58.5200   32.2120   48.5300 C   0  0  0  0  0  0  0  0  0  0  0  0
   59.1810   30.9230   48.3450 N   0  0  0  0  0  0  0  0  0  0  0  0
   60.2650   30.6890   47.5800 C   0  0  0  0  0  0  0  0  0  0  0  0
   60.6460   29.3680   47.7060 C   0  0  0  0  0  0  0  0  0  0  0  0
   59.7560   28.7830   48.5880 C   0  0  0  0  0  0  0  0  0  0  0  0
   58.8680   29.7700   48.9680 C   0  0  0  0  0  0  0  0  0  0  0  0
   58.2840   32.6590   46.0370 C   0  0  0  0  0  0  0  0  0  0  0  0
   57.6860   31.4470   45.8780 N   0  0  0  0  0  0  0  0  0  0  0  0
   59.9378   27.7526   44.7459 H   0  0  0  0  0  0  0  0  0  0  0  0
   60.7108   26.0753   46.4194 H   0  0  0  0  0  0  0  0  0  0  0  0
   59.0514   24.8489   47.8218 H   0  0  0  0  0  0  0  0  0  0  0  0
   56.6122   25.2897   47.5410 H   0  0  0  0  0  0  0  0  0  0  0  0
   55.1450   27.6950   45.2300 H   0  0  0  0  0  0  0  0  0  0  0  0
   57.0677   31.4547   42.5512 H   0  0  0  0  0  0  0  0  0  0  0  0
   58.1539   33.6946   42.7747 H   0  0  0  0  0  0  0  0  0  0  0  0
   59.2143   35.4039   44.1967 H   0  0  0  0  0  0  0  0  0  0  0  0
   59.9580   36.1592   46.4541 H   0  0  0  0  0  0  0  0  0  0  0  0
   59.6397   34.6899   48.4391 H   0  0  0  0  0  0  0  0  0  0  0  0
   58.9457   32.7165   49.4099 H   0  0  0  0  0  0  0  0  0  0  0  0
   57.4427   32.0468   48.6789 H   0  0  0  0  0  0  0  0  0  0  0  0
   60.7698   31.4368   46.9507 H   0  0  0  0  0  0  0  0  0  0  0  0
   61.4921   28.8769   47.2031 H   0  0  0  0  0  0  0  0  0  0  0  0
   59.7555   27.7350   48.9221 H   0  0  0  0  0  0  0  0  0  0  0  0
   58.0331   29.6355   49.6715 H   0  0  0  0  0  0  0  0  0  0  0  0
  1  2  2  0
  2  3  1  0
  3  4  1  0
  4  5  2  0
  5  6  1  0
  6  7  2  0
  7  8  1  0
  8  9  2  0
  9 10  1  0
  2 11  1  0
 11 12  2  0
 12 13  1  0
 13 14  2  0
 14 15  1  0
 15 16  2  0
 16 17  1  0
 17 18  2  0
 18 19  1  0
 19 20  1  0
 20 21  1  0
 21 22  2  0
 22 23  1  0
 23 24  2  0
 18 25  1  0
 25 26  2  0
  9  4  1  0
 26 11  1  0
 25 14  1  0
 24 20  1  0
  5 27  1  0
  6 28  1  0
  7 29  1  0
  8 30  1  0
 10 31  1  0
 12 32  1  0
 13 33  1  0
 15 34  1  0
 16 35  1  0
 17 36  1  0
 19 37  1  0
 19 38  1  0
 21 39  1  0
 22 40  1  0
 23 41  1  0
 24 42  1  0
M  CHG  1   3  -1
M  END
>  <UniqueID>  (82) 
73

>  <SMILES>  (82) 
O=C([N-]c1ccccc1O)c1ccc2cccc(Cn3cccc3)c2n1

>  <Energy>  (82) 
76.95602359818076

>  <Genealogy>  (82) 
O=C([N-]c1ccccc1O)c1ccc2cccc(Cn3cccc3)c2n1 (protonated)
O=C([N-]c1ccccc1O)c1ccc2cccc(Cn3cccc3)c2n1 (3D coordinates assigned)
O=C([N-]c1ccccc1O)c1ccc2cccc(Cn3cccc3)c2n1 (optimized conformer: 76.95602359818076 kcal/mol)

>  <smiles>  (82) 
O=C(Nc1ccccc1O)c1ccc2cccc(Cn3cccc3)c2n1

>  <score_type>  (82) 
oracle

>  <origin>  (82) 
adg

>  <m_score__min__energy>  (82) 
-12.289999999999999

>  <m_primary>  (82) 
energy

$$$$
82:0
     RDKit          3D

 16 17  0  0  0  0  0  0  0  0999 V2000
   57.8550   24.7230   46.9430 O   0  0  0  0  0  0  0  0  0  0  0  0
   57.6100   25.8850   46.5220 C   0  0  0  0  0  0  0  0  0  0  0  0
   58.6170   26.7870   46.5240 N   0  0  0  0  0  0  0  0  0  0  0  0
   58.3860   28.0290   46.0810 C   0  0  0  0  0  0  0  0  0  0  0  0
   59.3820   28.9470   46.0750 N   0  0  0  0  0  0  0  0  0  0  0  0
   59.0940   30.1850   45.6190 C   0  0  0  0  0  0  0  0  0  0  0  0
   57.8460   30.5230   45.1750 C   0  0  0  0  0  0  0  0  0  0  0  0
   57.4570   32.2760   44.5340 Br  0  0  0  0  0  0  0  0  0  0  0  0
   56.8580   29.6140   45.1800 N   0  0  0  0  0  0  0  0  0  0  0  0
   57.1110   28.3700   45.6290 C   0  0  0  0  0  0  0  0  0  0  0  0
   56.0980   27.4880   45.6210 N   0  0  0  0  0  0  0  0  0  0  0  0
   56.3350   26.2310   46.0690 C   0  0  0  0  0  0  0  0  0  0  0  0
   55.3920   25.3800   46.0690 O   0  0  0  0  0  0  0  0  0  0  0  0
   59.5630   26.4820   46.8760 H   0  0  0  0  0  0  0  0  0  0  0  0
   59.8887   30.9455   45.6043 H   0  0  0  0  0  0  0  0  0  0  0  0
   55.1470   27.7030   45.2950 H   0  0  0  0  0  0  0  0  0  0  0  0
  1  2  2  0
  2  3  1  0
  3  4  1  0
  4  5  2  0
  5  6  1  0
  6  7  2  0
  7  8  1  0
  7  9  1  0
  9 10  2  0
 10 11  1  0
 11 12  1  0
 12 13  2  0
 12  2  1  0
 10  4  1  0
  3 14  1  0
  6 15  1  0
 11 16  1  0
M  END
>  <smiles>  (83) 
O=c1[nH]c2ncc(Br)nc2[nH]c1=O

>  <score_type>  (83) 
oracle

>  <origin>  (83) 
adg

>  <m_score__min__energy>  (83) 
-5.5800000000000001

>  <m_primary>  (83) 
energy

$$$$
83:0
     RDKit          3D

 38 39  0  0  0  0  0  0  0  0999 V2000
   59.4330   29.7710   46.0140 C   0  0  0  0  0  0  0  0  0  0  0  0
   59.8630   31.1850   46.3800 C   0  0  0  0  0  0  0  0  0  0  0  0
   58.8690   31.9240   47.3110 C   0  0  0  0  0  0  0  0  0  0  0  0
   58.4910   33.3100   46.9340 N   0  0  0  0  0  0  0  0  0  0  0  0
   57.2830   33.4570   46.1020 C   0  0  0  0  0  0  0  0  0  0  0  0
   57.3400   32.5540   44.9090 C   0  0  0  0  0  0  0  0  0  0  0  0
   58.1360   32.7420   43.8430 N   0  0  0  0  0  0  0  0  0  0  0  0
   57.9250   31.7390   43.0080 N   0  0  0  0  0  0  0  0  0  0  0  0
   57.0020   30.9620   43.6100 C   0  0  0  0  0  0  0  0  0  0  0  0
   56.4390   29.7190   43.0110 C   0  0  0  0  0  0  0  0  0  0  0  0
   56.6380   31.4540   44.7740 O   0  0  0  0  0  0  0  0  0  0  0  0
   59.8410   34.3180   46.4360 S   0  0  0  0  0  0  0  0  0  0  0  0
   59.5300   35.7560   46.7460 O   0  0  0  0  0  0  0  0  0  0  0  0
   60.0210   34.2120   44.9470 O   0  0  0  0  0  0  0  0  0  0  0  0
   61.3680   33.8790   47.2010 C   0  0  0  0  0  0  0  0  0  0  0  0
   61.4540   33.7540   48.5970 C   0  0  0  0  0  0  0  0  0  0  0  0
   62.6690   33.4150   49.1990 C   0  0  0  0  0  0  0  0  0  0  0  0
   63.8080   33.2150   48.4140 C   0  0  0  0  0  0  0  0  0  0  0  0
   64.9860   32.8860   49.0000 F   0  0  0  0  0  0  0  0  0  0  0  0
   63.7330   33.3600   47.0260 C   0  0  0  0  0  0  0  0  0  0  0  0
   62.5190   33.6980   46.4210 C   0  0  0  0  0  0  0  0  0  0  0  0
   59.2569   29.1920   46.9325 H   0  0  0  0  0  0  0  0  0  0  0  0
   58.5064   29.8110   45.4225 H   0  0  0  0  0  0  0  0  0  0  0  0
   60.2250   29.2884   45.4225 H   0  0  0  0  0  0  0  0  0  0  0  0
   60.8372   31.1299   46.8879 H   0  0  0  0  0  0  0  0  0  0  0  0
   59.9067   31.7576   45.4418 H   0  0  0  0  0  0  0  0  0  0  0  0
   57.9455   31.3277   47.3497 H   0  0  0  0  0  0  0  0  0  0  0  0
   59.3985   32.0245   48.2699 H   0  0  0  0  0  0  0  0  0  0  0  0
   56.3984   33.2022   46.7041 H   0  0  0  0  0  0  0  0  0  0  0  0
   57.2236   34.4979   45.7512 H   0  0  0  0  0  0  0  0  0  0  0  0
   58.8060   33.5250   43.6800 H   0  0  0  0  0  0  0  0  0  0  0  0
   56.1285   29.0334   43.8132 H   0  0  0  0  0  0  0  0  0  0  0  0
   55.5683   29.9736   42.3888 H   0  0  0  0  0  0  0  0  0  0  0  0
   57.2046   29.2325   42.3888 H   0  0  0  0  0  0  0  0  0  0  0  0
   60.5625   33.9234   49.2187 H   0  0  0  0  0  0  0  0  0  0  0  0
   62.7289   33.3055   50.2919 H   0  0  0  0  0  0  0  0  0  0  0  0
   64.6306   33.2079   46.4087 H   0  0  0  0  0  0  0  0  0  0  0  0
   62.4665   33.8224   45.3293 H   0  0  0  0  0  0  0  0  0  0  0  0
  1  2  1  0
  2  3  1  0
  3  4  1  0
  4  5  1  0
  5  6  1  0
  6  7  2  0
  7  8  1  0
  8  9  2  0
  9 10  1  0
  9 11  1  0
  4 12  1  0
 12 13  2  0
 12 14  2  0
 12 15  1  0
 15 16  2  0
 16 17  1  0
 17 18  2  0
 18 19  1  0
 18 20  1  0
 20 21  2  0
 11  6  1  0
 21 15  1  0
  1 22  1  0
  1 23  1  0
  1 24  1  0
  2 25  1  0
  2 26  1  0
  3 27  1  0
  3 28  1  0
  5 29  1  0
  5 30  1  0
  7 31  1  0
 10 32  1  0
 10 33  1  0
 10 34  1  0
 16 35  1  0
 17 36  1  0
 20 37  1  0
 21 38  1  0
M  CHG  1   7   1
M  END
>  <UniqueID>  (84) 
74

>  <SMILES>  (84) 
CCCN(Cc1[nH+]nc(C)o1)S(=O)(=O)c1ccc(F)cc1

>  <Energy>  (84) 
76.68381031042553

>  <Genealogy>  (84) 
CCCN(Cc1[nH+]nc(C)o1)S(=O)(=O)c1ccc(F)cc1 (protonated)
CCCN(Cc1[nH+]nc(C)o1)S(=O)(=O)c1ccc(F)cc1 (3D coordinates assigned)
CCCN(Cc1[nH+]nc(C)o1)S(=O)(=O)c1ccc(F)cc1 (optimized conformer: 76.68381031042553 kcal/mol)

>  <smiles>  (84) 
CCCN(Cc1nnc(C)o1)S(=O)(=O)c1ccc(F)cc1

>  <score_type>  (84) 
oracle

>  <origin>  (84) 
adg

>  <m_score__min__energy>  (84) 
-5.7400000000000002

>  <m_primary>  (84) 
energy

$$$$
84:0
     RDKit          3D

 35 37  0  0  0  0  0  0  0  0999 V2000
   55.0071   21.1043   45.7929 H   0  0  0  0  0  0  0  0  0  0  0  0
   55.4990   21.9070   45.2240 C   0  0  0  0  0  0  0  0  0  0  0  0
   55.9270   21.6750   44.0190 N   0  0  0  0  0  0  0  0  0  0  0  0
   56.6950   22.6660   43.2640 C   0  0  0  0  0  0  0  0  0  0  0  0
   57.7587   22.5755   43.5292 H   0  0  0  0  0  0  0  0  0  0  0  0
   56.5496   22.4793   42.1898 H   0  0  0  0  0  0  0  0  0  0  0  0
   56.2160   24.0910   43.5840 C   0  0  0  0  0  0  0  0  0  0  0  0
   56.9596   24.8116   43.2129 H   0  0  0  0  0  0  0  0  0  0  0  0
   55.2442   24.2508   43.0941 H   0  0  0  0  0  0  0  0  0  0  0  0
   56.0400   24.2860   45.0770 C   0  0  0  0  0  0  0  0  0  0  0  0
   56.1770   25.6430   45.6630 C   0  0  0  0  0  0  0  0  0  0  0  0
   55.1430   26.2870   45.9820 O   0  0  0  0  0  0  0  0  0  0  0  0
   57.4560   26.2780   45.8210 N   0  0  0  0  0  0  0  0  0  0  0  0
   57.6970   27.5610   45.8280 C   0  0  0  0  0  0  0  0  0  0  0  0
   58.8580   28.1070   46.4050 C   0  0  0  0  0  0  0  0  0  0  0  0
   59.6071   27.4502   46.8713 H   0  0  0  0  0  0  0  0  0  0  0  0
   59.0510   29.4850   46.3810 C   0  0  0  0  0  0  0  0  0  0  0  0
   59.9605   29.9240   46.8171 H   0  0  0  0  0  0  0  0  0  0  0  0
   58.0800   30.3100   45.7980 C   0  0  0  0  0  0  0  0  0  0  0  0
   58.2320   31.7860   45.7370 C   0  0  0  0  0  0  0  0  0  0  0  0
   57.3730   32.5450   44.9180 C   0  0  0  0  0  0  0  0  0  0  0  0
   56.5972   32.0394   44.3243 H   0  0  0  0  0  0  0  0  0  0  0  0
   57.4990   33.9360   44.8540 C   0  0  0  0  0  0  0  0  0  0  0  0
   56.8274   34.5186   44.2063 H   0  0  0  0  0  0  0  0  0  0  0  0
   58.4750   34.5870   45.6100 C   0  0  0  0  0  0  0  0  0  0  0  0
   58.5738   35.6812   45.5559 H   0  0  0  0  0  0  0  0  0  0  0  0
   59.3260   33.8490   46.4350 C   0  0  0  0  0  0  0  0  0  0  0  0
   60.0930   34.3636   47.0323 H   0  0  0  0  0  0  0  0  0  0  0  0
   59.2060   32.4580   46.5040 C   0  0  0  0  0  0  0  0  0  0  0  0
   59.8758   31.8838   47.1610 H   0  0  0  0  0  0  0  0  0  0  0  0
   56.9730   29.7280   45.2600 N   0  0  0  0  0  0  0  0  0  0  0  0
   56.7820   28.4070   45.2800 N   0  0  0  0  0  0  0  0  0  0  0  0
   55.9100   28.0230   44.8530 H   0  0  0  0  0  0  0  0  0  0  0  0
   55.6680   23.2370   45.8330 C   0  0  0  0  0  0  0  0  0  0  0  0
   55.4895   23.3734   46.9098 H   0  0  0  0  0  0  0  0  0  0  0  0
  1  2  1  0
  2  3  2  0
  3  4  1  0
  4  5  1  0
  4  6  1  0
  4  7  1  0
  7  8  1  0
  7  9  1  0
  7 10  1  0
 10 11  1  0
 11 12  2  0
 11 13  1  0
 13 14  2  0
 14 15  1  0
 15 16  1  0
 15 17  2  0
 17 18  1  0
 17 19  1  0
 19 20  1  0
 20 21  2  0
 21 22  1  0
 21 23  1  0
 23 24  1  0
 23 25  2  0
 25 26  1  0
 25 27  1  0
 27 28  1  0
 27 29  2  0
 29 30  1  0
 19 31  2  0
 31 32  1  0
 32 33  1  0
 10 34  2  0
 34 35  1  0
 34  2  1  0
 32 14  1  0
 29 20  1  0
M  END
>  <UniqueID>  (85) 
75

>  <SMILES>  (85) 
O=C(/N=c1\ccc(-c2ccccc2)n[nH]1)C1=CC=NCC1

>  <Energy>  (85) 
52.94727255814113

>  <Genealogy>  (85) 
O=C(/N=c1\ccc(-c2ccccc2)n[nH]1)C1=CC=NCC1 (cis-trans isomerization)
O=C(/N=c1\ccc(-c2ccccc2)n[nH]1)C1=CC=NCC1 (3D coordinates assigned)
O=C(/N=c1\ccc(-c2ccccc2)n[nH]1)C1=CC=NCC1 (nonaromatic ring conformer: 52.94727255814113 kcal/mol)

>  <smiles>  (85) 
O=C(N=c1ccc(-c2ccccc2)n[nH]1)C1=CC=NCC1

>  <score_type>  (85) 
oracle

>  <origin>  (85) 
adg

>  <m_score__min__energy>  (85) 
-8.7300000000000004

>  <m_primary>  (85) 
energy

$$$$
85:0
     RDKit          3D

 29 32  0  0  0  0  0  0  0  0999 V2000
   54.6875   28.7682   52.8346 H   0  0  0  0  0  0  0  0  0  0  0  0
   54.7100   29.8660   52.9000 C   0  0  0  0  0  0  0  0  0  0  0  0
   53.4560   30.6000   52.6310 C   0  0  0  0  0  0  0  0  0  0  0  0
   53.2200   31.2290   51.3950 C   0  0  0  0  0  0  0  0  0  0  0  0
   53.9685   31.1566   50.5922 H   0  0  0  0  0  0  0  0  0  0  0  0
   52.0380   31.9460   51.1820 C   0  0  0  0  0  0  0  0  0  0  0  0
   51.8526   32.4224   50.2080 H   0  0  0  0  0  0  0  0  0  0  0  0
   51.0920   32.0580   52.2050 C   0  0  0  0  0  0  0  0  0  0  0  0
   49.9190   32.7700   51.9930 O   0  0  0  0  0  0  0  0  0  0  0  0
   51.3320   31.4590   53.4460 C   0  0  0  0  0  0  0  0  0  0  0  0
   50.5905   31.5517   54.2532 H   0  0  0  0  0  0  0  0  0  0  0  0
   52.5140   30.7420   53.6620 C   0  0  0  0  0  0  0  0  0  0  0  0
   52.7061   30.2872   54.6450 H   0  0  0  0  0  0  0  0  0  0  0  0
   55.8750   30.4520   53.2190 C   0  0  0  0  0  0  0  0  0  0  0  0
   56.4390   30.8150   54.8110 S   0  0  0  0  0  0  0  0  0  0  0  0
   57.8350   31.5260   54.2100 C   0  0  0  0  0  0  0  0  0  0  0  0
   57.8820   31.5060   52.8820 N   0  0  0  0  0  0  0  0  0  0  0  0
   56.8180   30.9270   52.2860 C   0  0  0  0  0  0  0  0  0  0  0  0
   56.7010   30.8360   51.0340 O   0  0  0  0  0  0  0  0  0  0  0  0
   59.0260   32.1160   52.5700 C   0  0  0  0  0  0  0  0  0  0  0  0
   59.5500   32.3770   51.3510 N   0  0  0  0  0  0  0  0  0  0  0  0
   60.7480   33.0390   51.3130 C   0  0  0  0  0  0  0  0  0  0  0  0
   61.2145   33.2702   50.3440 H   0  0  0  0  0  0  0  0  0  0  0  0
   61.3920   33.4290   52.5180 C   0  0  0  0  0  0  0  0  0  0  0  0
   62.3548   33.9593   52.4769 H   0  0  0  0  0  0  0  0  0  0  0  0
   60.8200   33.1480   53.7310 N   0  0  0  0  0  0  0  0  0  0  0  0
   59.6370   32.4900   53.7340 C   0  0  0  0  0  0  0  0  0  0  0  0
   58.8950   32.1240   54.8090 N   0  0  0  0  0  0  0  0  0  0  0  0
   59.0830   32.2720   55.8250 H   0  0  0  0  0  0  0  0  0  0  0  0
  1  2  1  0
  2  3  1  0
  3  4  2  0
  4  5  1  0
  4  6  1  0
  6  7  1  0
  6  8  2  0
  8  9  1  0
  8 10  1  0
 10 11  1  0
 10 12  2  0
 12 13  1  0
  2 14  2  0
 14 15  1  0
 15 16  1  0
 16 17  1  0
 17 18  1  0
 18 19  2  0
 17 20  1  0
 20 21  2  0
 21 22  1  0
 22 23  1  0
 22 24  2  0
 24 25  1  0
 24 26  1  0
 26 27  2  0
 27 28  1  0
 28 29  1  0
 12  3  1  0
 18 14  1  0
 27 20  1  0
 28 16  2  0
M  CHG  2   9  -1  28   1
M  END
>  <UniqueID>  (86) 
76

>  <SMILES>  (86) 
O=c1/c(=C/c2ccc([O-])cc2)sc2[nH+]c3nccnc3n12

>  <Energy>  (86) 
136.8078918955674

>  <Genealogy>  (86) 
O=c1c(=Cc2ccc([O-])cc2)sc2[nH+]c3nccnc3n12 (protonated)
O=c1/c(=C/c2ccc([O-])cc2)sc2[nH+]c3nccnc3n12 (cis-trans isomerization)
O=c1/c(=C/c2ccc([O-])cc2)sc2[nH+]c3nccnc3n12 (3D coordinates assigned)
O=c1/c(=C/c2ccc([O-])cc2)sc2[nH+]c3nccnc3n12 (optimized conformer: 136.8078918955674 kcal/mol)

>  <smiles>  (86) 
O=c1c(=Cc2ccc(O)cc2)sc2nc3nccnc3n12

>  <score_type>  (86) 
oracle

>  <origin>  (86) 
adg

>  <m_score__min__energy>  (86) 
-8.8499999999999996

>  <m_primary>  (86) 
energy

$$$$
86:0
     RDKit          3D

 35 37  0  0  1  0  0  0  0  0999 V2000
   55.1810   25.0810   46.1850 N   0  0  0  0  0  0  0  0  0  0  0  0
   56.0820   25.7970   46.0670 C   0  0  0  0  0  0  0  0  0  0  0  0
   57.1990   26.7120   45.9030 C   0  0  0  0  0  0  0  0  0  0  0  0
   58.4940   26.3330   46.2350 C   0  0  0  0  0  0  0  0  0  0  0  0
   59.5670   27.2160   46.0760 C   0  0  0  0  0  0  0  0  0  0  0  0
   59.3320   28.4990   45.5750 C   0  0  0  0  0  0  0  0  0  0  0  0
   58.0670   28.8790   45.2460 C   0  0  0  0  0  0  0  0  0  0  0  0
   57.8060   30.2130   44.7210 C   0  0  0  0  0  0  0  0  0  0  0  0
   57.5400   31.3210   45.4540 N   0  0  0  0  0  0  0  0  0  0  0  0
   57.3560   32.3510   44.6100 C   0  0  0  0  0  0  0  0  0  0  0  0
   57.0880   33.5590   44.9020 N   0  0  0  0  0  0  0  0  0  0  0  0
   58.0280   34.5890   45.2350 C   0  0  0  0  0  0  0  0  0  0  0  0
   59.0600   34.0950   46.1790 C   0  0  0  0  0  0  0  0  0  0  0  0
   60.4120   34.3000   46.0000 C   0  0  0  0  0  0  0  0  0  0  0  0
   61.3730   33.8420   46.8760 C   0  0  0  0  0  0  0  0  0  0  0  0
   62.6890   34.0650   46.6640 F   0  0  0  0  0  0  0  0  0  0  0  0
   60.9320   33.1350   48.0000 C   0  0  0  0  0  0  0  0  0  0  0  0
   59.5850   32.9120   48.2080 C   0  0  0  0  0  0  0  0  0  0  0  0
   58.6660   33.3900   47.3040 C   0  0  0  0  0  0  0  0  0  0  0  0
   57.3200   33.1420   47.5550 O   0  0  0  0  0  0  0  0  0  0  0  0
   57.5050   31.9010   43.3500 N   0  0  0  0  0  0  0  0  0  0  0  0
   57.7790   30.5930   43.4430 N   0  0  0  0  0  0  0  0  0  0  0  0
   57.0280   27.9880   45.4130 C   0  0  0  0  0  0  0  0  0  0  0  0
   58.6782   25.3227   46.6291 H   0  0  0  0  0  0  0  0  0  0  0  0
   60.5872   26.9031   46.3431 H   0  0  0  0  0  0  0  0  0  0  0  0
   60.1687   29.2015   45.4465 H   0  0  0  0  0  0  0  0  0  0  0  0
   58.5211   34.9348   44.3145 H   0  0  0  0  0  0  0  0  0  0  0  0
   57.4823   35.4127   45.7185 H   0  0  0  0  0  0  0  0  0  0  0  0
   60.7410   34.8585   45.1113 H   0  0  0  0  0  0  0  0  0  0  0  0
   61.6655   32.7530   48.7253 H   0  0  0  0  0  0  0  0  0  0  0  0
   59.2485   32.3538   49.0941 H   0  0  0  0  0  0  0  0  0  0  0  0
   56.6950   32.7490   46.8650 H   0  0  0  0  0  0  0  0  0  0  0  0
   57.4220   32.4550   42.4910 H   0  0  0  0  0  0  0  0  0  0  0  0
   57.9480   29.9540   42.6280 H   0  0  0  0  0  0  0  0  0  0  0  0
   56.0125   28.3121   45.1415 H   0  0  0  0  0  0  0  0  0  0  0  0
  1  2  3  0
  2  3  1  0
  3  4  2  0
  4  5  1  0
  5  6  2  0
  6  7  1  0
  7  8  1  0
  8  9  2  0
  9 10  1  0
 10 11  2  0
 11 12  1  0
 12 13  1  0
 13 14  2  0
 14 15  1  0
 15 16  1  0
 15 17  2  0
 17 18  1  0
 18 19  2  0
 19 20  1  0
 10 21  1  0
 21 22  1  0
  7 23  2  0
 23  3  1  0
 22  8  1  0
 19 13  1  0
  4 24  1  0
  5 25  1  0
  6 26  1  0
 12 27  1  0
 12 28  1  0
 14 29  1  0
 17 30  1  0
 18 31  1  0
 20 32  1  0
 21 33  1  0
 22 34  1  0
 23 35  1  0
M  END
>  <smiles>  (87) 
N#Cc1cccc(-c2nc(=NCc3cc(F)ccc3O)[nH][nH]2)c1

>  <score_type>  (87) 
oracle

>  <origin>  (87) 
adg

>  <m_score__min__energy>  (87) 
-8.8300000000000001

>  <m_primary>  (87) 
energy

$$$$
87:0
     RDKit          3D

 44 46  0  0  0  0  0  0  0  0999 V2000
   54.6490   25.1420   45.6160 C   0  0  0  0  0  0  0  0  0  0  0  0
   55.1620   26.4240   45.9650 O   0  0  0  0  0  0  0  0  0  0  0  0
   56.5270   26.7500   46.0040 C   0  0  0  0  0  0  0  0  0  0  0  0
   57.5050   25.8220   46.4150 C   0  0  0  0  0  0  0  0  0  0  0  0
   58.8540   26.1850   46.4440 C   0  0  0  0  0  0  0  0  0  0  0  0
   59.2400   27.4730   46.0760 C   0  0  0  0  0  0  0  0  0  0  0  0
   58.2800   28.4030   45.6700 C   0  0  0  0  0  0  0  0  0  0  0  0
   56.9220   28.0410   45.6140 C   0  0  0  0  0  0  0  0  0  0  0  0
   55.9150   28.9840   45.2110 N   0  0  0  0  0  0  0  0  0  0  0  0
   55.9780   29.8540   44.0740 C   0  0  0  0  0  0  0  0  0  0  0  0
   55.2650   29.5880   43.0690 O   0  0  0  0  0  0  0  0  0  0  0  0
   56.8810   31.0270   44.0290 C   0  0  0  0  0  0  0  0  0  0  0  0
   57.3320   31.5990   45.2310 C   0  0  0  0  0  0  0  0  0  0  0  0
   58.1860   32.7110   45.2150 C   0  0  0  0  0  0  0  0  0  0  0  0
   58.7370   33.4300   46.7300 S   0  0  0  0  0  0  0  0  0  0  0  0
   58.9300   34.9080   46.5320 O   0  0  0  0  0  0  0  0  0  0  0  0
   57.6770   33.2390   47.7800 O   0  0  0  0  0  0  0  0  0  0  0  0
   60.2360   32.7190   47.2890 N   0  0  0  0  0  0  0  0  0  0  0  0
   60.2550   32.6030   48.7500 C   0  0  0  0  0  0  0  0  0  0  0  0
   59.8600   31.1820   49.1230 C   0  0  0  0  0  0  0  0  0  0  0  0
   59.9770   30.3730   47.8470 C   0  0  0  0  0  0  0  0  0  0  0  0
   60.4050   31.3580   46.7680 C   0  0  0  0  0  0  0  0  0  0  0  0
   58.5950   33.2510   43.9890 C   0  0  0  0  0  0  0  0  0  0  0  0
   58.1380   32.6990   42.7910 C   0  0  0  0  0  0  0  0  0  0  0  0
   57.2790   31.5980   42.8050 C   0  0  0  0  0  0  0  0  0  0  0  0
   56.8110   31.1160   41.6250 F   0  0  0  0  0  0  0  0  0  0  0  0
   54.4225   24.5760   46.5316 H   0  0  0  0  0  0  0  0  0  0  0  0
   53.7303   25.2636   45.0234 H   0  0  0  0  0  0  0  0  0  0  0  0
   55.3980   24.5962   45.0234 H   0  0  0  0  0  0  0  0  0  0  0  0
   57.2048   24.8070   46.7144 H   0  0  0  0  0  0  0  0  0  0  0  0
   59.6128   25.4531   46.7578 H   0  0  0  0  0  0  0  0  0  0  0  0
   60.3022   27.7574   46.1054 H   0  0  0  0  0  0  0  0  0  0  0  0
   58.5872   29.4223   45.3930 H   0  0  0  0  0  0  0  0  0  0  0  0
   57.0123   31.1707   46.1924 H   0  0  0  0  0  0  0  0  0  0  0  0
   61.2656   32.8189   49.1269 H   0  0  0  0  0  0  0  0  0  0  0  0
   59.5507   33.3209   49.1958 H   0  0  0  0  0  0  0  0  0  0  0  0
   60.5390   30.7849   49.8920 H   0  0  0  0  0  0  0  0  0  0  0  0
   58.8418   31.1401   49.5372 H   0  0  0  0  0  0  0  0  0  0  0  0
   60.7315   29.5811   47.9636 H   0  0  0  0  0  0  0  0  0  0  0  0
   59.0270   29.8809   47.5916 H   0  0  0  0  0  0  0  0  0  0  0  0
   61.4602   31.1884   46.5077 H   0  0  0  0  0  0  0  0  0  0  0  0
   59.7910   31.2201   45.8658 H   0  0  0  0  0  0  0  0  0  0  0  0
   59.2784   34.1127   43.9701 H   0  0  0  0  0  0  0  0  0  0  0  0
   58.4559   33.1332   41.8316 H   0  0  0  0  0  0  0  0  0  0  0  0
  1  2  1  0
  2  3  1  0
  3  4  2  0
  4  5  1  0
  5  6  2  0
  6  7  1  0
  7  8  2  0
  8  9  1  0
  9 10  1  0
 10 11  2  0
 10 12  1  0
 12 13  2  0
 13 14  1  0
 14 15  1  0
 15 16  2  0
 15 17  2  0
 15 18  1  0
 18 19  1  0
 19 20  1  0
 20 21  1  0
 21 22  1  0
 14 23  2  0
 23 24  1  0
 24 25  2  0
 25 26  1  0
  8  3  1  0
 25 12  1  0
 22 18  1  0
  1 27  1  0
  1 28  1  0
  1 29  1  0
  4 30  1  0
  5 31  1  0
  6 32  1  0
  7 33  1  0
 13 34  1  0
 19 35  1  0
 19 36  1  0
 20 37  1  0
 20 38  1  0
 21 39  1  0
 21 40  1  0
 22 41  1  0
 22 42  1  0
 23 43  1  0
 24 44  1  0
M  CHG  1   9  -1
M  END
>  <UniqueID>  (88) 
77

>  <SMILES>  (88) 
COc1ccccc1[N-]C(=O)c1cc(S(=O)(=O)N2CCCC2)ccc1F

>  <Energy>  (88) 
52.678350341289054

>  <Genealogy>  (88) 
COc1ccccc1[N-]C(=O)c1cc(S(=O)(=O)N2CCCC2)ccc1F (protonated)
COc1ccccc1[N-]C(=O)c1cc(S(=O)(=O)N2CCCC2)ccc1F (3D coordinates assigned)
COc1ccccc1[N-]C(=O)c1cc(S(=O)(=O)N2CCCC2)ccc1F (nonaromatic ring conformer: 52.678350341289054 kcal/mol)

>  <smiles>  (88) 
COc1ccccc1NC(=O)c1cc(S(=O)(=O)N2CCCC2)ccc1F

>  <score_type>  (88) 
oracle

>  <origin>  (88) 
adg

>  <m_score__min__energy>  (88) 
-11.130000000000001

>  <m_primary>  (88) 
energy

$$$$
88:0
     RDKit          3D

 49 51  0  0  0  0  0  0  0  0999 V2000
   50.3230   32.2990   48.4890 C   0  0  0  0  0  0  0  0  0  0  0  0
   51.0180   32.3380   49.7670 N   0  0  0  0  0  0  0  0  0  0  0  0
   51.4580   31.1870   50.5000 C   0  0  0  0  0  0  0  0  0  0  0  0
   51.7230   30.1350   49.8600 O   0  0  0  0  0  0  0  0  0  0  0  0
   51.6040   31.1970   51.9740 C   0  0  0  0  0  0  0  0  0  0  0  0
   50.6270   31.7790   52.7250 N   0  0  0  0  0  0  0  0  0  0  0  0
   50.6430   31.7580   54.0830 C   0  0  0  0  0  0  0  0  0  0  0  0
   51.6700   31.1000   54.7590 C   0  0  0  0  0  0  0  0  0  0  0  0
   52.6860   30.4880   54.0250 C   0  0  0  0  0  0  0  0  0  0  0  0
   52.6820   30.5510   52.6270 C   0  0  0  0  0  0  0  0  0  0  0  0
   53.7710   29.9500   51.9090 N   0  0  0  0  0  0  0  0  0  0  0  0
   54.9730   29.7800   52.3800 C   0  0  0  0  0  0  0  0  0  0  0  0
   55.3860   28.5570   52.8050 N   0  0  0  0  0  0  0  0  0  0  0  0
   56.6370   28.3610   53.2860 C   0  0  0  0  0  0  0  0  0  0  0  0
   57.5320   29.4290   53.3470 C   0  0  0  0  0  0  0  0  0  0  0  0
   59.1540   29.1000   53.9610 Cl  0  0  0  0  0  0  0  0  0  0  0  0
   57.1380   30.6790   52.9270 N   0  0  0  0  0  0  0  0  0  0  0  0
   58.0830   31.8130   52.9570 C   0  0  0  0  0  0  0  0  0  0  0  0
   58.7420   31.9740   51.6190 C   0  0  0  0  0  0  0  0  0  0  0  0
   59.9890   31.8190   51.5210 O   0  0  0  0  0  0  0  0  0  0  0  0
   57.9550   32.2580   50.4530 N   0  0  0  0  0  0  0  0  0  0  0  0
   58.5510   32.3500   49.1140 C   0  0  1  0  0  0  0  0  0  0  0  0
   59.5720   33.5080   49.0540 C   0  0  0  0  0  0  0  0  0  0  0  0
   60.5640   33.2940   47.9110 C   0  0  0  0  0  0  0  0  0  0  0  0
   61.3370   31.9660   48.0820 C   0  0  0  0  0  0  0  0  0  0  0  0
   60.6400   30.9830   48.9320 N   0  0  0  0  0  0  0  0  0  0  0  0
   59.1880   30.9960   48.7050 C   0  0  0  0  0  0  0  0  0  0  0  0
   55.8680   30.8600   52.4300 C   0  0  0  0  0  0  0  0  0  0  0  0
   55.4950   31.9950   52.0180 O   0  0  0  0  0  0  0  0  0  0  0  0
   49.2386   32.2381   48.6631 H   0  0  0  0  0  0  0  0  0  0  0  0
   50.5522   33.2114   47.9190 H   0  0  0  0  0  0  0  0  0  0  0  0
   50.6529   31.4180   47.9190 H   0  0  0  0  0  0  0  0  0  0  0  0
   49.8454   32.2603   54.6499 H   0  0  0  0  0  0  0  0  0  0  0  0
   51.6788   31.0640   55.8584 H   0  0  0  0  0  0  0  0  0  0  0  0
   53.4935   29.9538   54.5470 H   0  0  0  0  0  0  0  0  0  0  0  0
   56.9463   27.3622   53.6276 H   0  0  0  0  0  0  0  0  0  0  0  0
   57.5367   32.7347   53.2062 H   0  0  0  0  0  0  0  0  0  0  0  0
   58.8548   31.6170   53.7159 H   0  0  0  0  0  0  0  0  0  0  0  0
   56.9230   32.3670   50.5700 H   0  0  0  0  0  0  0  0  0  0  0  0
   57.7563   32.5720   48.3866 H   0  0  0  0  0  0  0  0  0  0  0  0
   59.0354   34.4548   48.8940 H   0  0  0  0  0  0  0  0  0  0  0  0
   60.1271   33.5400   50.0031 H   0  0  0  0  0  0  0  0  0  0  0  0
   60.0140   33.2688   46.9587 H   0  0  0  0  0  0  0  0  0  0  0  0
   61.2883   34.1219   47.9192 H   0  0  0  0  0  0  0  0  0  0  0  0
   61.4880   31.5208   47.0875 H   0  0  0  0  0  0  0  0  0  0  0  0
   62.2873   32.2075   48.5806 H   0  0  0  0  0  0  0  0  0  0  0  0
   60.8270   31.2010   49.9400 H   0  0  0  0  0  0  0  0  0  0  0  0
   58.9934   30.8196   47.6368 H   0  0  0  0  0  0  0  0  0  0  0  0
   58.7388   30.2065   49.3254 H   0  0  0  0  0  0  0  0  0  0  0  0
  1  2  1  0
  2  3  1  0
  3  4  2  0
  3  5  1  0
  5  6  2  0
  6  7  1  0
  7  8  2  0
  8  9  1  0
  9 10  2  0
 10 11  1  0
 11 12  2  3
 12 13  1  0
 13 14  1  0
 14 15  2  0
 15 16  1  0
 15 17  1  0
 17 18  1  0
 18 19  1  0
 19 20  2  0
 19 21  1  0
 21 22  1  0
 22 23  1  0
 23 24  1  0
 24 25  1  0
 25 26  1  0
 26 27  1  0
 17 28  1  0
 28 29  2  0
 10  5  1  0
 28 12  1  0
 27 22  1  0
  1 30  1  0
  1 31  1  0
  1 32  1  0
  7 33  1  0
  8 34  1  0
  9 35  1  0
 14 36  1  0
 18 37  1  0
 18 38  1  0
 21 39  1  0
 22 40  1  6
 23 41  1  0
 23 42  1  0
 24 43  1  0
 24 44  1  0
 25 45  1  0
 25 46  1  0
 26 47  1  0
 27 48  1  0
 27 49  1  0
M  CHG  2   2  -1  13  -1
M  END
>  <UniqueID>  (89) 
78

>  <SMILES>  (89) 
C[N-]C(=O)c1ncccc1N=c1[n-]cc(Cl)n(CC(=O)N[C@H]2CCCNC2)c1=O

>  <Energy>  (89) 
69.60219493476788

>  <Genealogy>  (89) 
C[N-]C(=O)c1ncccc1N=c1[n-]cc(Cl)n(CC(=O)NC2CCCNC2)c1=O (protonated)
C[N-]C(=O)c1ncccc1N=c1[n-]cc(Cl)n(CC(=O)N[C@H]2CCCNC2)c1=O (chirality)
C[N-]C(=O)c1ncccc1N=c1[n-]cc(Cl)n(CC(=O)N[C@H]2CCCNC2)c1=O (3D coordinates assigned)
C[N-]C(=O)c1ncccc1N=c1[n-]cc(Cl)n(CC(=O)N[C@H]2CCCNC2)c1=O (nonaromatic ring conformer: 69.60219493476788 kcal/mol)

>  <smiles>  (89) 
CNC(=O)c1ncccc1N=c1[nH]cc(Cl)n(CC(=O)NC2CCCNC2)c1=O

>  <score_type>  (89) 
oracle

>  <origin>  (89) 
adg

>  <m_score__min__energy>  (89) 
-11.26

>  <m_primary>  (89) 
energy

$$$$
89:0
     RDKit          3D

 75 78  0  0  0  0  0  0  0  0999 V2000
   55.5770   29.8320   43.9170 C   0  0  0  0  0  0  0  0  0  0  0  0
   56.8600   30.4720   43.3880 C   0  0  0  0  0  0  0  0  0  0  0  0
   57.9200   30.5360   44.4800 C   0  0  0  0  0  0  0  0  0  0  0  0
   58.7280   29.4100   44.7150 C   0  0  0  0  0  0  0  0  0  0  0  0
   58.5200   28.2330   43.9780 O   0  0  0  0  0  0  0  0  0  0  0  0
   57.7730   27.1330   44.4250 C   0  0  0  0  0  0  0  0  0  0  0  0
   57.0200   27.1670   45.6130 C   0  0  0  0  0  0  0  0  0  0  0  0
   56.2780   26.0480   46.0070 C   0  0  0  0  0  0  0  0  0  0  0  0
   56.2970   24.8870   45.2320 C   0  0  0  0  0  0  0  0  0  0  0  0
   57.0450   24.8480   44.0520 C   0  0  0  0  0  0  0  0  0  0  0  0
   57.7690   25.9710   43.6430 C   0  0  0  0  0  0  0  0  0  0  0  0
   59.7910   29.4720   45.6330 C   0  0  0  0  0  0  0  0  0  0  0  0
   60.5970   28.2020   45.9200 C   0  0  0  0  0  0  0  0  0  0  0  0
   60.0250   27.2750   47.0200 C   0  0  0  0  0  0  0  0  0  0  0  0
   59.3660   27.9850   48.1690 C   0  0  0  0  0  0  0  0  0  0  0  0
   58.2410   28.5280   48.0150 O   0  0  0  0  0  0  0  0  0  0  0  0
   60.0870   28.1710   49.3930 N   0  0  0  0  0  0  0  0  0  0  0  0
   59.7610   29.2290   50.3440 C   0  0  0  0  0  0  0  0  0  0  0  0
   59.2230   30.4680   49.6150 C   0  0  0  0  0  0  0  0  0  0  0  0
   58.8550   31.5590   50.5960 C   0  0  0  0  0  0  0  0  0  0  0  0
   59.5230   32.8020   50.5540 C   0  0  0  0  0  0  0  0  0  0  0  0
   60.5620   32.9870   49.6270 O   0  0  0  0  0  0  0  0  0  0  0  0
   61.8720   33.4370   49.9590 C   0  0  0  0  0  0  0  0  0  0  0  0
   59.1330   33.8260   51.4380 C   0  0  0  0  0  0  0  0  0  0  0  0
   58.0900   33.6210   52.3390 C   0  0  0  0  0  0  0  0  0  0  0  0
   57.4200   32.4010   52.3750 C   0  0  0  0  0  0  0  0  0  0  0  0
   57.7910   31.3600   51.5050 C   0  0  0  0  0  0  0  0  0  0  0  0
   57.1250   30.1240   51.5160 O   0  0  0  0  0  0  0  0  0  0  0  0
   56.7210   29.4230   52.6870 C   0  0  0  0  0  0  0  0  0  0  0  0
   60.0920   30.7220   46.2360 C   0  0  0  0  0  0  0  0  0  0  0  0
   61.3850   30.8950   47.0150 C   0  0  0  0  0  0  0  0  0  0  0  0
   59.2000   31.7720   46.1300 N   0  0  0  0  0  0  0  0  0  0  0  0
   58.1620   31.7240   45.2160 C   0  0  0  0  0  0  0  0  0  0  0  0
   57.2110   32.9030   45.0350 C   0  0  0  0  0  0  0  0  0  0  0  0
   57.6610   34.1830   45.7250 C   0  0  0  0  0  0  0  0  0  0  0  0
   58.1860   33.8550   47.1060 C   0  0  0  0  0  0  0  0  0  0  0  0
   59.4250   32.9800   46.9620 C   0  0  0  0  0  0  0  0  0  0  0  0
   55.5904   29.8387   45.0169 H   0  0  0  0  0  0  0  0  0  0  0  0
   54.7076   30.4020   43.5574 H   0  0  0  0  0  0  0  0  0  0  0  0
   55.5095   28.7946   43.5574 H   0  0  0  0  0  0  0  0  0  0  0  0
   57.2425   29.8732   42.5482 H   0  0  0  0  0  0  0  0  0  0  0  0
   56.6332   31.4956   43.0550 H   0  0  0  0  0  0  0  0  0  0  0  0
   57.0146   28.0753   46.2335 H   0  0  0  0  0  0  0  0  0  0  0  0
   55.6788   26.0832   46.9288 H   0  0  0  0  0  0  0  0  0  0  0  0
   55.7237   24.0036   45.5498 H   0  0  0  0  0  0  0  0  0  0  0  0
   57.0638   23.9315   43.4441 H   0  0  0  0  0  0  0  0  0  0  0  0
   58.3385   25.9423   42.7024 H   0  0  0  0  0  0  0  0  0  0  0  0
   60.6564   27.6220   44.9872 H   0  0  0  0  0  0  0  0  0  0  0  0
   61.5719   28.5456   46.2962 H   0  0  0  0  0  0  0  0  0  0  0  0
   59.2795   26.6132   46.5550 H   0  0  0  0  0  0  0  0  0  0  0  0
   60.8841   26.7347   47.4443 H   0  0  0  0  0  0  0  0  0  0  0  0
   58.9963   28.8618   51.0443 H   0  0  0  0  0  0  0  0  0  0  0  0
   60.6750   29.5085   50.8885 H   0  0  0  0  0  0  0  0  0  0  0  0
   59.9964   30.8462   48.9303 H   0  0  0  0  0  0  0  0  0  0  0  0
   58.3199   30.1806   49.0566 H   0  0  0  0  0  0  0  0  0  0  0  0
   61.9806   33.4743   51.0530 H   0  0  0  0  0  0  0  0  0  0  0  0
   62.6153   32.7427   49.5402 H   0  0  0  0  0  0  0  0  0  0  0  0
   62.0318   34.4415   49.5402 H   0  0  0  0  0  0  0  0  0  0  0  0
   59.6550   34.7941   51.4173 H   0  0  0  0  0  0  0  0  0  0  0  0
   57.7942   34.4277   53.0258 H   0  0  0  0  0  0  0  0  0  0  0  0
   56.5959   32.2505   53.0879 H   0  0  0  0  0  0  0  0  0  0  0  0
   57.0430   29.9817   53.5782 H   0  0  0  0  0  0  0  0  0  0  0  0
   55.6257   29.3213   52.6939 H   0  0  0  0  0  0  0  0  0  0  0  0
   57.1821   28.4243   52.6939 H   0  0  0  0  0  0  0  0  0  0  0  0
   61.1700   30.8662   48.0934 H   0  0  0  0  0  0  0  0  0  0  0  0
   62.0796   30.0818   46.7578 H   0  0  0  0  0  0  0  0  0  0  0  0
   61.8414   31.8622   46.7578 H   0  0  0  0  0  0  0  0  0  0  0  0
   57.1165   33.1071   43.9582 H   0  0  0  0  0  0  0  0  0  0  0  0
   56.2576   32.6128   45.5007 H   0  0  0  0  0  0  0  0  0  0  0  0
   58.4576   34.6578   45.1333 H   0  0  0  0  0  0  0  0  0  0  0  0
   56.8078   34.8719   45.8116 H   0  0  0  0  0  0  0  0  0  0  0  0
   58.4483   34.7844   47.6328 H   0  0  0  0  0  0  0  0  0  0  0  0
   57.4158   33.3224   47.6832 H   0  0  0  0  0  0  0  0  0  0  0  0
   60.2229   33.5789   46.4986 H   0  0  0  0  0  0  0  0  0  0  0  0
   59.6970   32.6339   47.9701 H   0  0  0  0  0  0  0  0  0  0  0  0
  1  2  1  0
  2  3  1  0
  3  4  2  0
  4  5  1  0
  5  6  1  0
  6  7  2  0
  7  8  1  0
  8  9  2  0
  9 10  1  0
 10 11  2  0
  4 12  1  0
 12 13  1  0
 13 14  1  0
 14 15  1  0
 15 16  2  0
 15 17  1  0
 17 18  1  0
 18 19  1  0
 19 20  1  0
 20 21  2  0
 21 22  1  0
 22 23  1  0
 21 24  1  0
 24 25  2  0
 25 26  1  0
 26 27  2  0
 27 28  1  0
 28 29  1  0
 12 30  2  0
 30 31  1  0
 30 32  1  0
 32 33  2  0
 33 34  1  0
 34 35  1  0
 35 36  1  0
 36 37  1  0
 33  3  1  0
 11  6  1  0
 27 20  1  0
 37 32  1  0
  1 38  1  0
  1 39  1  0
  1 40  1  0
  2 41  1  0
  2 42  1  0
  7 43  1  0
  8 44  1  0
  9 45  1  0
 10 46  1  0
 11 47  1  0
 13 48  1  0
 13 49  1  0
 14 50  1  0
 14 51  1  0
 18 52  1  0
 18 53  1  0
 19 54  1  0
 19 55  1  0
 23 56  1  0
 23 57  1  0
 23 58  1  0
 24 59  1  0
 25 60  1  0
 26 61  1  0
 29 62  1  0
 29 63  1  0
 29 64  1  0
 31 65  1  0
 31 66  1  0
 31 67  1  0
 34 68  1  0
 34 69  1  0
 35 70  1  0
 35 71  1  0
 36 72  1  0
 36 73  1  0
 37 74  1  0
 37 75  1  0
M  CHG  2  17  -1  32   1
M  END
>  <UniqueID>  (90) 
79

>  <SMILES>  (90) 
CCc1c(Oc2ccccc2)c(CCC(=O)[N-]CCc2c(OC)cccc2OC)c(C)[n+]2c1CCCC2

>  <Energy>  (90) 
89.93317968812467

>  <Genealogy>  (90) 
CCc1c(Oc2ccccc2)c(CCC(=O)[N-]CCc2c(OC)cccc2OC)c(C)[n+]2c1CCCC2 (protonated)
CCc1c(Oc2ccccc2)c(CCC(=O)[N-]CCc2c(OC)cccc2OC)c(C)[n+]2c1CCCC2 (3D coordinates assigned)
CCc1c(Oc2ccccc2)c(CCC(=O)[N-]CCc2c(OC)cccc2OC)c(C)[n+]2c1CCCC2 (nonaromatic ring conformer: 89.93317968812467 kcal/mol)

>  <smiles>  (90) 
CCc1c(Oc2ccccc2)c(CCC(=O)NCCc2c(OC)cccc2OC)c(C)[n+]2c1CCCC2

>  <score_type>  (90) 
oracle

>  <origin>  (90) 
adg

>  <m_score__min__energy>  (90) 
-8.8800000000000008

>  <m_primary>  (90) 
energy

$$$$
90:0
     RDKit          3D

 24 25  0  0  0  0  0  0  0  0999 V2000
   57.1820   25.0910   45.0420 C   0  0  0  0  0  0  0  0  0  0  0  0
   56.6360   26.6070   45.7960 S   0  0  0  0  0  0  0  0  0  0  0  0
   55.1460   26.5560   45.9810 O   0  0  0  0  0  0  0  0  0  0  0  0
   57.2910   26.7830   47.1360 O   0  0  0  0  0  0  0  0  0  0  0  0
   57.0310   27.9470   44.7730 N   0  0  0  0  0  0  0  0  0  0  0  0
   56.4130   29.2290   44.9090 C   0  0  0  0  0  0  0  0  0  0  0  0
   55.1620   29.3450   44.8100 O   0  0  0  0  0  0  0  0  0  0  0  0
   57.2420   30.4150   45.1630 C   0  0  0  0  0  0  0  0  0  0  0  0
   57.1180   31.6460   44.5170 C   0  0  0  0  0  0  0  0  0  0  0  0
   58.0500   32.5840   44.9760 C   0  0  0  0  0  0  0  0  0  0  0  0
   58.1820   33.9020   44.5300 C   0  0  0  0  0  0  0  0  0  0  0  0
   59.1780   34.7120   45.1020 C   0  0  0  0  0  0  0  0  0  0  0  0
   60.0240   34.2020   46.1060 C   0  0  0  0  0  0  0  0  0  0  0  0
   59.8840   32.8780   46.5460 C   0  0  0  0  0  0  0  0  0  0  0  0
   58.8900   32.0930   45.9650 C   0  0  0  0  0  0  0  0  0  0  0  0
   58.5000   30.4950   46.2950 S   0  0  0  0  0  0  0  0  0  0  0  0
   57.4435   24.3650   45.8259 H   0  0  0  0  0  0  0  0  0  0  0  0
   56.3751   24.6810   44.4169 H   0  0  0  0  0  0  0  0  0  0  0  0
   58.0651   25.2897   44.4169 H   0  0  0  0  0  0  0  0  0  0  0  0
   56.3724   31.8553   43.7358 H   0  0  0  0  0  0  0  0  0  0  0  0
   57.5191   34.2977   43.7464 H   0  0  0  0  0  0  0  0  0  0  0  0
   59.2977   35.7517   44.7632 H   0  0  0  0  0  0  0  0  0  0  0  0
   60.7989   34.8460   46.5474 H   0  0  0  0  0  0  0  0  0  0  0  0
   60.5409   32.4702   47.3284 H   0  0  0  0  0  0  0  0  0  0  0  0
  1  2  1  0
  2  3  2  0
  2  4  2  0
  2  5  1  0
  5  6  1  0
  6  7  2  0
  6  8  1  0
  8  9  2  0
  9 10  1  0
 10 11  2  0
 11 12  1  0
 12 13  2  0
 13 14  1  0
 14 15  2  0
 15 16  1  0
 16  8  1  0
 15 10  1  0
  1 17  1  0
  1 18  1  0
  1 19  1  0
  9 20  1  0
 11 21  1  0
 12 22  1  0
 13 23  1  0
 14 24  1  0
M  CHG  1   5  -1
M  END
>  <UniqueID>  (91) 
80

>  <SMILES>  (91) 
CS(=O)(=O)[N-]C(=O)c1cc2ccccc2s1

>  <Energy>  (91) 
51.524903228133184

>  <Genealogy>  (91) 
CS(=O)(=O)[N-]C(=O)c1cc2ccccc2s1 (protonated)
CS(=O)(=O)[N-]C(=O)c1cc2ccccc2s1 (3D coordinates assigned)
CS(=O)(=O)[N-]C(=O)c1cc2ccccc2s1 (optimized conformer: 51.524903228133184 kcal/mol)

>  <smiles>  (91) 
CS(=O)(=O)NC(=O)c1cc2ccccc2s1

>  <score_type>  (91) 
oracle

>  <origin>  (91) 
adg

>  <m_score__min__energy>  (91) 
-8.9600000000000009

>  <m_primary>  (91) 
energy

$$$$
91:0
     RDKit          3D

 44 46  0  0  0  0  0  0  0  0999 V2000
   59.8247   35.0214   44.1012 H   0  0  0  0  0  0  0  0  0  0  0  0
   59.2860   34.7300   45.0150 C   0  0  0  0  0  0  0  0  0  0  0  0
   58.0230   33.9740   44.8880 C   0  0  0  0  0  0  0  0  0  0  0  0
   56.9220   34.5860   44.8070 O   0  0  0  0  0  0  0  0  0  0  0  0
   58.0220   32.4960   44.9170 C   0  0  0  0  0  0  0  0  0  0  0  0
   58.0910   31.8520   46.1580 C   0  0  0  0  0  0  0  0  0  0  0  0
   58.1186   32.4486   47.0817 H   0  0  0  0  0  0  0  0  0  0  0  0
   58.1250   30.4620   46.2320 C   0  0  0  0  0  0  0  0  0  0  0  0
   58.1885   29.9626   47.2101 H   0  0  0  0  0  0  0  0  0  0  0  0
   58.0780   29.7010   45.0550 C   0  0  0  0  0  0  0  0  0  0  0  0
   58.1390   28.2170   45.0990 C   0  0  0  0  0  0  0  0  0  0  0  0
   57.8050   27.5070   43.9840 N   0  0  0  0  0  0  0  0  0  0  0  0
   57.8320   26.1470   43.9540 C   0  0  0  0  0  0  0  0  0  0  0  0
   57.5580   25.6119   43.0328 H   0  0  0  0  0  0  0  0  0  0  0  0
   58.2070   25.4310   45.0910 C   0  0  0  0  0  0  0  0  0  0  0  0
   58.2357   24.3315   45.0718 H   0  0  0  0  0  0  0  0  0  0  0  0
   58.5450   26.1250   46.2520 C   0  0  0  0  0  0  0  0  0  0  0  0
   58.8390   25.5733   47.1571 H   0  0  0  0  0  0  0  0  0  0  0  0
   58.5100   27.5220   46.2650 C   0  0  0  0  0  0  0  0  0  0  0  0
   58.7705   28.0743   47.1799 H   0  0  0  0  0  0  0  0  0  0  0  0
   58.0000   30.3410   43.8500 N   0  0  0  0  0  0  0  0  0  0  0  0
   57.9570   29.7700   42.9750 H   0  0  0  0  0  0  0  0  0  0  0  0
   57.9430   31.7020   43.7460 C   0  0  0  0  0  0  0  0  0  0  0  0
   57.7960   32.3190   42.3790 C   0  0  0  0  0  0  0  0  0  0  0  0
   57.5422   33.3843   42.4829 H   0  0  0  0  0  0  0  0  0  0  0  0
   58.7429   32.2197   41.8281 H   0  0  0  0  0  0  0  0  0  0  0  0
   56.9956   31.8034   41.8281 H   0  0  0  0  0  0  0  0  0  0  0  0
   59.7980   35.0730   46.2050 C   0  0  0  0  0  0  0  0  0  0  0  0
   59.4770   36.0244   46.6542 H   0  0  0  0  0  0  0  0  0  0  0  0
   60.7740   34.2400   46.9500 C   0  0  0  0  0  0  0  0  0  0  0  0
   60.4720   33.8650   48.2680 C   0  0  0  0  0  0  0  0  0  0  0  0
   59.5221   34.1850   48.7210 H   0  0  0  0  0  0  0  0  0  0  0  0
   61.3660   33.0890   49.0110 C   0  0  0  0  0  0  0  0  0  0  0  0
   61.1091   32.7945   50.0392 H   0  0  0  0  0  0  0  0  0  0  0  0
   62.5850   32.6840   48.4570 C   0  0  0  0  0  0  0  0  0  0  0  0
   63.4480   31.9060   49.2420 O   0  0  0  0  0  0  0  0  0  0  0  0
   64.6980   32.3590   49.7540 C   0  0  0  0  0  0  0  0  0  0  0  0
   64.6693   32.3486   50.8536 H   0  0  0  0  0  0  0  0  0  0  0  0
   65.5009   31.6947   49.4019 H   0  0  0  0  0  0  0  0  0  0  0  0
   64.8889   33.3835   49.4019 H   0  0  0  0  0  0  0  0  0  0  0  0
   62.9030   33.0710   47.1420 C   0  0  0  0  0  0  0  0  0  0  0  0
   63.8607   32.7624   46.6975 H   0  0  0  0  0  0  0  0  0  0  0  0
   62.0080   33.8460   46.3970 C   0  0  0  0  0  0  0  0  0  0  0  0
   62.2696   34.1497   45.3726 H   0  0  0  0  0  0  0  0  0  0  0  0
  1  2  1  0
  2  3  1  0
  3  4  2  0
  3  5  1  0
  5  6  2  0
  6  7  1  0
  6  8  1  0
  8  9  1  0
  8 10  2  0
 10 11  1  0
 11 12  2  0
 12 13  1  0
 13 14  1  0
 13 15  2  0
 15 16  1  0
 15 17  1  0
 17 18  1  0
 17 19  2  0
 19 20  1  0
 10 21  1  0
 21 22  1  0
 21 23  2  0
 23 24  1  0
 24 25  1  0
 24 26  1  0
 24 27  1  0
  2 28  2  0
 28 29  1  0
 28 30  1  0
 30 31  2  0
 31 32  1  0
 31 33  1  0
 33 34  1  0
 33 35  2  0
 35 36  1  0
 36 37  1  0
 37 38  1  0
 37 39  1  0
 37 40  1  0
 35 41  1  0
 41 42  1  0
 41 43  2  0
 43 44  1  0
 23  5  1  0
 43 30  1  0
 19 11  1  0
M  CHG  1  21   1
M  END
>  <UniqueID>  (92) 
81

>  <SMILES>  (92) 
COc1ccc(/C=C/C(=O)c2ccc(-c3ccccn3)[nH+]c2C)cc1

>  <Energy>  (92) 
58.4723915096599

>  <Genealogy>  (92) 
COc1ccc(C=CC(=O)c2ccc(-c3ccccn3)[nH+]c2C)cc1 (protonated)
COc1ccc(/C=C/C(=O)c2ccc(-c3ccccn3)[nH+]c2C)cc1 (cis-trans isomerization)
COc1ccc(/C=C/C(=O)c2ccc(-c3ccccn3)[nH+]c2C)cc1 (3D coordinates assigned)
COc1ccc(/C=C/C(=O)c2ccc(-c3ccccn3)[nH+]c2C)cc1 (optimized conformer: 58.4723915096599 kcal/mol)

>  <smiles>  (92) 
COc1ccc(C=CC(=O)c2ccc(-c3ccccn3)nc2C)cc1

>  <score_type>  (92) 
oracle

>  <origin>  (92) 
adg

>  <m_score__min__energy>  (92) 
-6.7199999999999998

>  <m_primary>  (92) 
energy

$$$$
92:0
     RDKit          3D

 52 55  0  0  0  0  0  0  0  0999 V2000
   57.3770   21.2000   43.0130 C   0  0  0  0  0  0  0  0  0  0  0  0
   56.1360   21.9020   43.3800 N   0  0  0  0  0  0  0  0  0  0  0  0
   56.2250   23.3120   42.9690 C   0  0  0  0  0  0  0  0  0  0  0  0
   55.8760   21.7960   44.8330 C   0  0  0  0  0  0  0  0  0  0  0  0
   55.7710   23.1840   45.4740 C   0  0  0  0  0  0  0  0  0  0  0  0
   57.0180   23.5710   46.0570 O   0  0  0  0  0  0  0  0  0  0  0  0
   57.4910   24.8850   46.1990 C   0  0  0  0  0  0  0  0  0  0  0  0
   57.5010   25.7070   45.0660 C   0  0  0  0  0  0  0  0  0  0  0  0
   57.9460   27.0290   45.1480 C   0  0  0  0  0  0  0  0  0  0  0  0
   58.4020   27.5510   46.3700 C   0  0  0  0  0  0  0  0  0  0  0  0
   58.8660   28.9530   46.4620 C   0  0  0  0  0  0  0  0  0  0  0  0
   59.9080   29.3400   47.2290 N   0  0  0  0  0  0  0  0  0  0  0  0
   59.9920   30.6670   47.0330 C   0  0  0  0  0  0  0  0  0  0  0  0
   61.0640   31.4950   47.6240 C   0  0  0  0  0  0  0  0  0  0  0  0
   62.3720   31.4040   47.1220 C   0  0  0  0  0  0  0  0  0  0  0  0
   63.3920   32.1940   47.6600 C   0  0  0  0  0  0  0  0  0  0  0  0
   63.1120   33.0930   48.6930 C   0  0  0  0  0  0  0  0  0  0  0  0
   64.1030   33.8600   49.2110 F   0  0  0  0  0  0  0  0  0  0  0  0
   61.8090   33.2070   49.1840 C   0  0  0  0  0  0  0  0  0  0  0  0
   60.7860   32.4180   48.6490 C   0  0  0  0  0  0  0  0  0  0  0  0
   58.9880   31.0570   46.1580 C   0  0  0  0  0  0  0  0  0  0  0  0
   58.6240   32.4250   45.7300 C   0  0  0  0  0  0  0  0  0  0  0  0
   59.6100   33.4210   45.6700 C   0  0  0  0  0  0  0  0  0  0  0  0
   59.2680   34.7050   45.2400 C   0  0  0  0  0  0  0  0  0  0  0  0
   57.9900   34.9830   44.8690 N   0  0  0  0  0  0  0  0  0  0  0  0
   57.0170   34.0340   44.9000 C   0  0  0  0  0  0  0  0  0  0  0  0
   57.3170   32.7360   45.3210 C   0  0  0  0  0  0  0  0  0  0  0  0
   58.2820   29.9710   45.7930 N   0  0  0  0  0  0  0  0  0  0  0  0
   58.4110   26.7210   47.5050 C   0  0  0  0  0  0  0  0  0  0  0  0
   57.9640   25.4000   47.4200 C   0  0  0  0  0  0  0  0  0  0  0  0
   57.9111   20.8979   43.9260 H   0  0  0  0  0  0  0  0  0  0  0  0
   57.1314   20.3071   42.4194 H   0  0  0  0  0  0  0  0  0  0  0  0
   58.0158   21.8705   42.4194 H   0  0  0  0  0  0  0  0  0  0  0  0
   56.2654   23.9525   43.8624 H   0  0  0  0  0  0  0  0  0  0  0  0
   57.1344   23.4622   42.3687 H   0  0  0  0  0  0  0  0  0  0  0  0
   55.3417   23.5754   42.3687 H   0  0  0  0  0  0  0  0  0  0  0  0
   54.9318   21.2543   44.9910 H   0  0  0  0  0  0  0  0  0  0  0  0
   56.7125   21.2560   45.3006 H   0  0  0  0  0  0  0  0  0  0  0  0
   55.4908   23.9168   44.7030 H   0  0  0  0  0  0  0  0  0  0  0  0
   55.0080   23.1494   46.2656 H   0  0  0  0  0  0  0  0  0  0  0  0
   57.1549   25.3081   44.1011 H   0  0  0  0  0  0  0  0  0  0  0  0
   57.9392   27.6648   44.2504 H   0  0  0  0  0  0  0  0  0  0  0  0
   62.5954   30.7071   46.3007 H   0  0  0  0  0  0  0  0  0  0  0  0
   64.4168   32.1080   47.2697 H   0  0  0  0  0  0  0  0  0  0  0  0
   61.5874   33.9187   49.9929 H   0  0  0  0  0  0  0  0  0  0  0  0
   59.7595   32.5193   49.0311 H   0  0  0  0  0  0  0  0  0  0  0  0
   60.6462   33.1921   45.9598 H   0  0  0  0  0  0  0  0  0  0  0  0
   60.0344   35.4931   45.2014 H   0  0  0  0  0  0  0  0  0  0  0  0
   55.9918   34.2885   44.5931 H   0  0  0  0  0  0  0  0  0  0  0  0
   56.5347   31.9628   45.3320 H   0  0  0  0  0  0  0  0  0  0  0  0
   58.7725   27.1145   48.4665 H   0  0  0  0  0  0  0  0  0  0  0  0
   57.9820   24.7585   48.3134 H   0  0  0  0  0  0  0  0  0  0  0  0
  1  2  1  0
  2  3  1  0
  2  4  1  0
  4  5  1  0
  5  6  1  0
  6  7  1  0
  7  8  2  0
  8  9  1  0
  9 10  2  0
 10 11  1  0
 11 12  2  0
 12 13  1  0
 13 14  1  0
 14 15  2  0
 15 16  1  0
 16 17  2  0
 17 18  1  0
 17 19  1  0
 19 20  2  0
 13 21  2  0
 21 22  1  0
 22 23  2  0
 23 24  1  0
 24 25  2  0
 25 26  1  0
 26 27  2  0
 21 28  1  0
 10 29  1  0
 29 30  2  0
 30  7  1  0
 28 11  1  0
 20 14  1  0
 27 22  1  0
  1 31  1  0
  1 32  1  0
  1 33  1  0
  3 34  1  0
  3 35  1  0
  3 36  1  0
  4 37  1  0
  4 38  1  0
  5 39  1  0
  5 40  1  0
  8 41  1  0
  9 42  1  0
 15 43  1  0
 16 44  1  0
 19 45  1  0
 20 46  1  0
 23 47  1  0
 24 48  1  0
 26 49  1  0
 27 50  1  0
 29 51  1  0
 30 52  1  0
M  CHG  1  28  -1
M  END
>  <UniqueID>  (93) 
82

>  <SMILES>  (93) 
CN(C)CCOc1ccc(-c2nc(-c3ccc(F)cc3)c(-c3ccncc3)[n-]2)cc1

>  <Energy>  (93) 
93.42194095993842

>  <Genealogy>  (93) 
CN(C)CCOc1ccc(-c2nc(-c3ccc(F)cc3)c(-c3ccncc3)[n-]2)cc1 (protonated)
CN(C)CCOc1ccc(-c2nc(-c3ccc(F)cc3)c(-c3ccncc3)[n-]2)cc1 (3D coordinates assigned)
CN(C)CCOc1ccc(-c2nc(-c3ccc(F)cc3)c(-c3ccncc3)[n-]2)cc1 (optimized conformer: 93.42194095993842 kcal/mol)

>  <smiles>  (93) 
CN(C)CCOc1ccc(-c2nc(-c3ccc(F)cc3)c(-c3ccncc3)[nH]2)cc1

>  <score_type>  (93) 
oracle

>  <origin>  (93) 
adg

>  <m_score__min__energy>  (93) 
-8.4000000000000004

>  <m_primary>  (93) 
energy

$$$$
