0:0
     RDKit          3D

 40 42  0  0  0  0  0  0  0  0999 V2000
   62.4900   34.5150   49.2810 C   0  0  0  0  0  0  0  0  0  0  0  0
   61.1420   33.8730   49.2930 C   0  0  0  0  0  0  0  0  0  0  0  0
   60.6580   33.1640   50.3360 N   0  0  0  0  0  0  0  0  0  0  0  0
   59.4290   32.7750   50.0270 N   0  0  0  0  0  0  0  0  0  0  0  0
   58.5800   32.0230   50.9100 C   0  0  0  0  0  0  0  0  0  0  0  0
   57.8250   32.6880   51.8910 C   0  0  0  0  0  0  0  0  0  0  0  0
   57.0090   31.9690   52.7680 C   0  0  0  0  0  0  0  0  0  0  0  0
   56.9360   30.5770   52.6750 C   0  0  0  0  0  0  0  0  0  0  0  0
   55.9100   29.6760   53.7750 Cl  0  0  0  0  0  0  0  0  0  0  0  0
   57.6810   29.9030   51.7030 C   0  0  0  0  0  0  0  0  0  0  0  0
   58.5030   30.6160   50.8200 C   0  0  0  0  0  0  0  0  0  0  0  0
   59.3710   29.7210   49.5790 Cl  0  0  0  0  0  0  0  0  0  0  0  0
   59.1180   33.2430   48.8010 C   0  0  0  0  0  0  0  0  0  0  0  0
   58.0000   33.0840   48.2400 O   0  0  0  0  0  0  0  0  0  0  0  0
   60.1950   33.9340   48.2830 C   0  0  0  0  0  0  0  0  0  0  0  0
   60.2990   34.6770   47.0100 C   0  0  0  0  0  0  0  0  0  0  0  0
   60.0160   34.1720   45.8430 N   0  0  0  0  0  0  0  0  0  0  0  0
   59.2010   33.0220   45.5690 C   0  0  0  0  0  0  0  0  0  0  0  0
   58.0510   33.1730   44.7870 C   0  0  0  0  0  0  0  0  0  0  0  0
   57.2510   32.0680   44.4840 C   0  0  0  0  0  0  0  0  0  0  0  0
   57.6070   30.7930   44.9450 C   0  0  0  0  0  0  0  0  0  0  0  0
   56.6070   29.3970   44.5560 S   0  0  0  0  0  0  0  0  0  0  0  0
   56.7770   29.0180   42.8790 N   0  0  0  0  0  0  0  0  0  0  0  0
   55.1670   29.7010   44.8580 O   0  0  0  0  0  0  0  0  0  0  0  0
   57.0360   28.2200   45.3860 O   0  0  0  0  0  0  0  0  0  0  0  0
   58.7820   30.6290   45.6900 C   0  0  0  0  0  0  0  0  0  0  0  0
   59.5820   31.7350   45.9920 C   0  0  0  0  0  0  0  0  0  0  0  0
   62.8286   34.6762   50.3151 H   0  0  0  0  0  0  0  0  0  0  0  0
   63.2035   33.8600   48.7595 H   0  0  0  0  0  0  0  0  0  0  0  0
   62.4311   35.4817   48.7595 H   0  0  0  0  0  0  0  0  0  0  0  0
   57.8769   33.7840   51.9691 H   0  0  0  0  0  0  0  0  0  0  0  0
   56.4231   32.4998   53.5329 H   0  0  0  0  0  0  0  0  0  0  0  0
   57.6217   28.8070   51.6309 H   0  0  0  0  0  0  0  0  0  0  0  0
   60.6369   35.7230   47.0503 H   0  0  0  0  0  0  0  0  0  0  0  0
   57.7746   34.1680   44.4081 H   0  0  0  0  0  0  0  0  0  0  0  0
   56.3396   32.1991   43.8822 H   0  0  0  0  0  0  0  0  0  0  0  0
   56.6630   27.9840   42.7840 H   0  0  0  0  0  0  0  0  0  0  0  0
   57.7640   29.2380   42.6140 H   0  0  0  0  0  0  0  0  0  0  0  0
   59.0758   29.6278   46.0381 H   0  0  0  0  0  0  0  0  0  0  0  0
   60.5127   31.5988   46.5623 H   0  0  0  0  0  0  0  0  0  0  0  0
  1  2  1  0
  2  3  1  0
  3  4  1  0
  4  5  1  0
  5  6  2  0
  6  7  1  0
  7  8  2  0
  8  9  1  0
  8 10  1  0
 10 11  2  0
 11 12  1  0
  4 13  1  0
 13 14  2  0
 13 15  1  0
 15 16  1  0
 16 17  2  3
 17 18  1  0
 18 19  2  0
 19 20  1  0
 20 21  2  0
 21 22  1  0
 22 23  1  0
 22 24  2  0
 22 25  2  0
 21 26  1  0
 26 27  2  0
 15  2  2  0
 27 18  1  0
 11  5  1  0
  1 28  1  0
  1 29  1  0
  1 30  1  0
  6 31  1  0
  7 32  1  0
 10 33  1  0
 16 34  1  0
 19 35  1  0
 20 36  1  0
 23 37  1  0
 23 38  1  0
 26 39  1  0
 27 40  1  0
M  CHG  1   3  -1
M  END
>  <UniqueID>  (1) 
1

>  <SMILES>  (1) 
Cc1[n-]n(-c2ccc(Cl)cc2Cl)c(=O)c1C=Nc1ccc(S(N)(=O)=O)cc1

>  <Energy>  (1) 
89.10280587319335

>  <Genealogy>  (1) 
Cc1[n-]n(-c2ccc(Cl)cc2Cl)c(=O)c1C=Nc1ccc(S(N)(=O)=O)cc1 (protonated)
Cc1[n-]n(-c2ccc(Cl)cc2Cl)c(=O)c1C=Nc1ccc(S(N)(=O)=O)cc1 (3D coordinates assigned)
Cc1[n-]n(-c2ccc(Cl)cc2Cl)c(=O)c1C=Nc1ccc(S(N)(=O)=O)cc1 (optimized conformer: 89.10280587319335 kcal/mol)

>  <smiles>  (1) 
Cc1[nH]n(-c2ccc(Cl)cc2Cl)c(=O)c1C=Nc1ccc(S(N)(=O)=O)cc1

>  <score_type>  (1) 
oracle

>  <origin>  (1) 
adg

>  <m_score__min__energy>  (1) 
-9.8100000000000005

>  <m_primary>  (1) 
energy

$$$$
1:0
     RDKit          3D

 50 52  0  0  0  0  0  0  0  0999 V2000
   54.7310   26.1720   45.9850 N   0  0  0  0  0  0  0  0  0  0  0  0
   56.2920   25.4580   46.1690 S   0  0  0  0  0  0  0  0  0  0  0  0
   56.4830   24.3920   45.1280 O   0  0  0  0  0  0  0  0  0  0  0  0
   56.3940   24.8300   47.5320 O   0  0  0  0  0  0  0  0  0  0  0  0
   57.5310   26.6960   45.9800 C   0  0  0  0  0  0  0  0  0  0  0  0
   58.7200   26.6130   46.7210 C   0  0  0  0  0  0  0  0  0  0  0  0
   59.6960   27.6070   46.5990 C   0  0  0  0  0  0  0  0  0  0  0  0
   59.4990   28.6780   45.7220 C   0  0  0  0  0  0  0  0  0  0  0  0
   58.3320   28.7540   44.9480 C   0  0  0  0  0  0  0  0  0  0  0  0
   58.1410   29.8830   44.0860 N   0  0  0  0  0  0  0  0  0  0  0  0
   57.1660   30.9190   44.2590 C   0  0  0  0  0  0  0  0  0  0  0  0
   56.0690   30.6350   44.8070 O   0  0  0  0  0  0  0  0  0  0  0  0
   57.4790   32.3620   43.9520 C   0  0  0  0  0  0  0  0  0  0  0  0
   57.6190   33.1410   45.2020 N   0  0  0  0  0  0  0  0  0  0  0  0
   58.2170   32.3250   46.2930 C   0  0  0  0  0  0  0  0  0  0  0  0
   59.7350   32.5200   46.4080 C   0  0  0  0  0  0  0  0  0  0  0  0
   60.1020   33.9970   46.7120 C   0  0  0  0  0  0  0  0  0  0  0  0
   60.4050   34.2000   48.2130 C   0  0  0  0  0  0  0  0  0  0  0  0
   61.8360   33.8580   48.5500 C   0  0  0  0  0  0  0  0  0  0  0  0
   62.2950   33.9670   49.8760 C   0  0  0  0  0  0  0  0  0  0  0  0
   63.6100   33.6180   50.1960 C   0  0  0  0  0  0  0  0  0  0  0  0
   64.4750   33.1560   49.1990 C   0  0  0  0  0  0  0  0  0  0  0  0
   64.0250   33.0410   47.8790 C   0  0  0  0  0  0  0  0  0  0  0  0
   62.7100   33.3880   47.5540 C   0  0  0  0  0  0  0  0  0  0  0  0
   58.9980   34.9690   46.2250 C   0  0  0  0  0  0  0  0  0  0  0  0
   58.3220   34.4310   44.9590 C   0  0  0  0  0  0  0  0  0  0  0  0
   57.3370   27.7700   45.0980 C   0  0  0  0  0  0  0  0  0  0  0  0
   54.7600   27.1040   46.4540 H   0  0  0  0  0  0  0  0  0  0  0  0
   58.8847   25.7633   47.3999 H   0  0  0  0  0  0  0  0  0  0  0  0
   60.6195   27.5463   47.1935 H   0  0  0  0  0  0  0  0  0  0  0  0
   60.2631   29.4649   45.6387 H   0  0  0  0  0  0  0  0  0  0  0  0
   58.4203   32.4152   43.3853 H   0  0  0  0  0  0  0  0  0  0  0  0
   56.6545   32.7859   43.3600 H   0  0  0  0  0  0  0  0  0  0  0  0
   57.7509   32.6147   47.2463 H   0  0  0  0  0  0  0  0  0  0  0  0
   58.0328   31.2663   46.0581 H   0  0  0  0  0  0  0  0  0  0  0  0
   60.1158   31.8835   47.2203 H   0  0  0  0  0  0  0  0  0  0  0  0
   60.1903   32.2444   45.4453 H   0  0  0  0  0  0  0  0  0  0  0  0
   61.0182   34.2318   46.1503 H   0  0  0  0  0  0  0  0  0  0  0  0
   60.2201   35.2525   48.4739 H   0  0  0  0  0  0  0  0  0  0  0  0
   59.7499   33.5280   48.7868 H   0  0  0  0  0  0  0  0  0  0  0  0
   61.6166   34.3280   50.6630 H   0  0  0  0  0  0  0  0  0  0  0  0
   63.9650   33.7068   51.2333 H   0  0  0  0  0  0  0  0  0  0  0  0
   65.5099   32.8828   49.4526 H   0  0  0  0  0  0  0  0  0  0  0  0
   64.7066   32.6772   47.0960 H   0  0  0  0  0  0  0  0  0  0  0  0
   62.3583   33.2930   46.5161 H   0  0  0  0  0  0  0  0  0  0  0  0
   58.2429   35.0835   47.0166 H   0  0  0  0  0  0  0  0  0  0  0  0
   59.4592   35.9405   45.9939 H   0  0  0  0  0  0  0  0  0  0  0  0
   57.5901   35.1723   44.6058 H   0  0  0  0  0  0  0  0  0  0  0  0
   59.1053   34.2526   44.2076 H   0  0  0  0  0  0  0  0  0  0  0  0
   56.4032   27.8432   44.5213 H   0  0  0  0  0  0  0  0  0  0  0  0
  1  2  1  0
  2  3  2  0
  2  4  2  0
  2  5  1  0
  5  6  2  0
  6  7  1  0
  7  8  2  0
  8  9  1  0
  9 10  1  0
 10 11  1  0
 11 12  2  0
 11 13  1  0
 13 14  1  0
 14 15  1  0
 15 16  1  0
 16 17  1  0
 17 18  1  0
 18 19  1  0
 19 20  2  0
 20 21  1  0
 21 22  2  0
 22 23  1  0
 23 24  2  0
 17 25  1  0
 25 26  1  0
  9 27  2  0
 27  5  1  0
 26 14  1  0
 24 19  1  0
  1 28  1  0
  6 29  1  0
  7 30  1  0
  8 31  1  0
 13 32  1  0
 13 33  1  0
 15 34  1  0
 15 35  1  0
 16 36  1  0
 16 37  1  0
 17 38  1  0
 18 39  1  0
 18 40  1  0
 20 41  1  0
 21 42  1  0
 22 43  1  0
 23 44  1  0
 24 45  1  0
 25 46  1  0
 25 47  1  0
 26 48  1  0
 26 49  1  0
 27 50  1  0
M  CHG  2   1  -1  10  -1
M  END
>  <UniqueID>  (2) 
2

>  <SMILES>  (2) 
[NH-]S(=O)(=O)c1cccc([N-]C(=O)CN2CCC(Cc3ccccc3)CC2)c1

>  <Energy>  (2) 
63.58544599757763

>  <Genealogy>  (2) 
[NH-]S(=O)(=O)c1cccc([N-]C(=O)CN2CCC(Cc3ccccc3)CC2)c1 (protonated)
[NH-]S(=O)(=O)c1cccc([N-]C(=O)CN2CCC(Cc3ccccc3)CC2)c1 (3D coordinates assigned)
[NH-]S(=O)(=O)c1cccc([N-]C(=O)CN2CCC(Cc3ccccc3)CC2)c1 (nonaromatic ring conformer: 63.58544599757763 kcal/mol)

>  <smiles>  (2) 
NS(=O)(=O)c1cccc(NC(=O)CN2CCC(Cc3ccccc3)CC2)c1

>  <score_type>  (2) 
oracle

>  <origin>  (2) 
adg

>  <m_score__min__energy>  (2) 
-14.289999999999999

>  <m_primary>  (2) 
energy

$$$$
2:0
     RDKit          3D

 37 38  0  0  0  0  0  0  0  0999 V2000
   58.5850   31.5110   47.5590 C   0  0  0  0  0  0  0  0  0  0  0  0
   58.8230   32.6570   46.6090 C   0  0  0  0  0  0  0  0  0  0  0  0
   59.7030   33.6840   46.9950 C   0  0  0  0  0  0  0  0  0  0  0  0
   59.9310   34.7760   46.1570 C   0  0  0  0  0  0  0  0  0  0  0  0
   59.2920   34.8560   44.9210 C   0  0  0  0  0  0  0  0  0  0  0  0
   58.4270   33.8400   44.5140 C   0  0  0  0  0  0  0  0  0  0  0  0
   58.1860   32.7260   45.3410 C   0  0  0  0  0  0  0  0  0  0  0  0
   57.2830   31.6570   44.8500 C   0  0  0  0  0  0  0  0  0  0  0  0
   56.0350   31.8380   44.8670 O   0  0  0  0  0  0  0  0  0  0  0  0
   57.8280   30.4200   44.3590 N   0  0  0  0  0  0  0  0  0  0  0  0
   57.0270   29.3000   43.9450 C   0  0  0  0  0  0  0  0  0  0  0  0
   55.7850   29.2880   44.1620 O   0  0  0  0  0  0  0  0  0  0  0  0
   57.6380   28.1970   43.2550 N   0  0  0  0  0  0  0  0  0  0  0  0
   58.0640   27.1500   44.1960 C   0  0  0  0  0  0  0  0  0  0  0  0
   58.8630   27.7190   45.3460 C   0  0  0  0  0  0  0  0  0  0  0  0
   60.0060   28.4950   45.0960 C   0  0  0  0  0  0  0  0  0  0  0  0
   60.7280   29.0500   46.1590 C   0  0  0  0  0  0  0  0  0  0  0  0
   60.3080   28.8390   47.4750 C   0  0  0  0  0  0  0  0  0  0  0  0
   59.1650   28.0760   47.7320 C   0  0  0  0  0  0  0  0  0  0  0  0
   58.4420   27.5190   46.6710 C   0  0  0  0  0  0  0  0  0  0  0  0
   58.6600   31.8722   48.5953 H   0  0  0  0  0  0  0  0  0  0  0  0
   57.5813   31.0949   47.3875 H   0  0  0  0  0  0  0  0  0  0  0  0
   59.3400   30.7297   47.3875 H   0  0  0  0  0  0  0  0  0  0  0  0
   60.2161   33.6258   47.9663 H   0  0  0  0  0  0  0  0  0  0  0  0
   60.6169   35.5759   46.4727 H   0  0  0  0  0  0  0  0  0  0  0  0
   59.4699   35.7213   44.2656 H   0  0  0  0  0  0  0  0  0  0  0  0
   57.9277   33.9098   43.5363 H   0  0  0  0  0  0  0  0  0  0  0  0
   58.8630   30.3480   44.2340 H   0  0  0  0  0  0  0  0  0  0  0  0
   58.4600   28.5310   42.6970 H   0  0  0  0  0  0  0  0  0  0  0  0
   56.9400   27.7910   42.5890 H   0  0  0  0  0  0  0  0  0  0  0  0
   57.1715   26.6473   44.5970 H   0  0  0  0  0  0  0  0  0  0  0  0
   58.7059   26.4419   43.6514 H   0  0  0  0  0  0  0  0  0  0  0  0
   60.3354   28.6675   44.0608 H   0  0  0  0  0  0  0  0  0  0  0  0
   61.6263   29.6524   45.9584 H   0  0  0  0  0  0  0  0  0  0  0  0
   60.8774   29.2738   48.3097 H   0  0  0  0  0  0  0  0  0  0  0  0
   58.8339   27.9134   48.7683 H   0  0  0  0  0  0  0  0  0  0  0  0
   57.5408   26.9224   46.8755 H   0  0  0  0  0  0  0  0  0  0  0  0
  1  2  1  0
  2  3  2  0
  3  4  1  0
  4  5  2  0
  5  6  1  0
  6  7  2  0
  7  8  1  0
  8  9  2  0
  8 10  1  0
 10 11  1  0
 11 12  2  0
 11 13  1  0
 13 14  1  0
 14 15  1  0
 15 16  2  0
 16 17  1  0
 17 18  2  0
 18 19  1  0
 19 20  2  0
  7  2  1  0
 20 15  1  0
  1 21  1  0
  1 22  1  0
  1 23  1  0
  3 24  1  0
  4 25  1  0
  5 26  1  0
  6 27  1  0
 10 28  1  0
 13 29  1  0
 13 30  1  0
 14 31  1  0
 14 32  1  0
 16 33  1  0
 17 34  1  0
 18 35  1  0
 19 36  1  0
 20 37  1  0
M  CHG  1  13   1
M  END
>  <UniqueID>  (3) 
3

>  <SMILES>  (3) 
Cc1ccccc1C(=O)NC(=O)[NH2+]Cc1ccccc1

>  <Energy>  (3) 
41.833942075038635

>  <Genealogy>  (3) 
Cc1ccccc1C(=O)NC(=O)[NH2+]Cc1ccccc1 (protonated)
Cc1ccccc1C(=O)NC(=O)[NH2+]Cc1ccccc1 (3D coordinates assigned)
Cc1ccccc1C(=O)NC(=O)[NH2+]Cc1ccccc1 (optimized conformer: 41.833942075038635 kcal/mol)

>  <smiles>  (3) 
Cc1ccccc1C(=O)NC(=O)NCc1ccccc1

>  <score_type>  (3) 
oracle

>  <origin>  (3) 
adg

>  <m_score__min__energy>  (3) 
-6.5599999999999996

>  <m_primary>  (3) 
energy

$$$$
3:0
     RDKit          3D

 46 48  0  0  0  0  0  0  0  0999 V2000
   59.8340   34.8230   46.0020 C   0  0  0  0  0  0  0  0  0  0  0  0
   58.5920   34.8020   46.6730 O   0  0  0  0  0  0  0  0  0  0  0  0
   57.6410   34.0760   45.9180 C   0  0  0  0  0  0  0  0  0  0  0  0
   57.8150   32.6000   46.1350 C   0  0  0  0  0  0  0  0  0  0  0  0
   58.5030   32.1130   47.2470 C   0  0  0  0  0  0  0  0  0  0  0  0
   58.6620   30.7280   47.3900 C   0  0  0  0  0  0  0  0  0  0  0  0
   59.3850   30.1740   48.5630 C   0  0  0  0  0  0  0  0  0  0  0  0
   59.6020   30.9610   49.7100 C   0  0  0  0  0  0  0  0  0  0  0  0
   60.2890   30.4340   50.8090 C   0  0  0  0  0  0  0  0  0  0  0  0
   60.7650   29.1220   50.7750 C   0  0  0  0  0  0  0  0  0  0  0  0
   60.5570   28.3330   49.6410 C   0  0  0  0  0  0  0  0  0  0  0  0
   59.8720   28.8550   48.5390 C   0  0  0  0  0  0  0  0  0  0  0  0
   58.1420   29.8930   46.4400 N   0  0  0  0  0  0  0  0  0  0  0  0
   57.4760   30.3830   45.3500 C   0  0  0  0  0  0  0  0  0  0  0  0
   56.9380   29.4980   44.3370 N   0  0  0  0  0  0  0  0  0  0  0  0
   55.6360   29.7720   43.7180 C   0  0  0  0  0  0  0  0  0  0  0  0
   57.7100   28.3360   43.8700 C   0  0  0  0  0  0  0  0  0  0  0  0
   57.8710   27.3340   44.9860 C   0  0  0  0  0  0  0  0  0  0  0  0
   59.1320   26.7590   45.2300 C   0  0  0  0  0  0  0  0  0  0  0  0
   59.3080   25.8580   46.2840 C   0  0  0  0  0  0  0  0  0  0  0  0
   58.2310   25.5250   47.1080 C   0  0  0  0  0  0  0  0  0  0  0  0
   56.9770   26.0950   46.8820 C   0  0  0  0  0  0  0  0  0  0  0  0
   56.7920   26.9980   45.8280 C   0  0  0  0  0  0  0  0  0  0  0  0
   55.5320   27.5510   45.6260 O   0  0  0  0  0  0  0  0  0  0  0  0
   57.3310   31.7290   45.2150 N   0  0  0  0  0  0  0  0  0  0  0  0
   60.6494   34.8368   46.7402 H   0  0  0  0  0  0  0  0  0  0  0  0
   59.9253   33.9263   45.3715 H   0  0  0  0  0  0  0  0  0  0  0  0
   59.8950   35.7223   45.3715 H   0  0  0  0  0  0  0  0  0  0  0  0
   56.6285   34.3712   46.2306 H   0  0  0  0  0  0  0  0  0  0  0  0
   57.7878   34.2990   44.8509 H   0  0  0  0  0  0  0  0  0  0  0  0
   58.9133   32.8040   47.9981 H   0  0  0  0  0  0  0  0  0  0  0  0
   59.2295   31.9955   49.7423 H   0  0  0  0  0  0  0  0  0  0  0  0
   60.4545   31.0548   51.7019 H   0  0  0  0  0  0  0  0  0  0  0  0
   61.3037   28.7096   51.6409 H   0  0  0  0  0  0  0  0  0  0  0  0
   60.9326   27.2994   49.6148 H   0  0  0  0  0  0  0  0  0  0  0  0
   59.7132   28.2299   47.6479 H   0  0  0  0  0  0  0  0  0  0  0  0
   58.2800   28.8650   46.5510 H   0  0  0  0  0  0  0  0  0  0  0  0
   54.8826   29.9306   44.5036 H   0  0  0  0  0  0  0  0  0  0  0  0
   55.7097   30.6743   43.0932 H   0  0  0  0  0  0  0  0  0  0  0  0
   55.3398   28.9165   43.0932 H   0  0  0  0  0  0  0  0  0  0  0  0
   57.1809   27.8622   43.0300 H   0  0  0  0  0  0  0  0  0  0  0  0
   58.7051   28.6737   43.5450 H   0  0  0  0  0  0  0  0  0  0  0  0
   59.9852   27.0204   44.5868 H   0  0  0  0  0  0  0  0  0  0  0  0
   60.2965   25.4105   46.4646 H   0  0  0  0  0  0  0  0  0  0  0  0
   58.3708   24.8135   47.9352 H   0  0  0  0  0  0  0  0  0  0  0  0
   56.1308   25.8338   47.5345 H   0  0  0  0  0  0  0  0  0  0  0  0
  1  2  1  0
  2  3  1  0
  3  4  1  0
  4  5  2  0
  5  6  1  0
  6  7  1  0
  7  8  2  0
  8  9  1  0
  9 10  2  0
 10 11  1  0
 11 12  2  0
  6 13  2  0
 13 14  1  0
 14 15  1  0
 15 16  1  0
 15 17  1  0
 17 18  1  0
 18 19  2  0
 19 20  1  0
 20 21  2  0
 21 22  1  0
 22 23  2  0
 23 24  1  0
 14 25  2  0
 25  4  1  0
 12  7  1  0
 23 18  1  0
  1 26  1  0
  1 27  1  0
  1 28  1  0
  3 29  1  0
  3 30  1  0
  5 31  1  0
  8 32  1  0
  9 33  1  0
 10 34  1  0
 11 35  1  0
 12 36  1  0
 13 37  1  0
 16 38  1  0
 16 39  1  0
 16 40  1  0
 17 41  1  0
 17 42  1  0
 19 43  1  0
 20 44  1  0
 21 45  1  0
 22 46  1  0
M  CHG  2  13   1  24  -1
M  END
>  <UniqueID>  (4) 
4

>  <SMILES>  (4) 
COCc1cc(-c2ccccc2)[nH+]c(N(C)Cc2ccccc2[O-])n1

>  <Energy>  (4) 
54.627895772132845

>  <Genealogy>  (4) 
COCc1cc(-c2ccccc2)[nH+]c(N(C)Cc2ccccc2[O-])n1 (protonated)
COCc1cc(-c2ccccc2)[nH+]c(N(C)Cc2ccccc2[O-])n1 (3D coordinates assigned)
COCc1cc(-c2ccccc2)[nH+]c(N(C)Cc2ccccc2[O-])n1 (optimized conformer: 54.627895772132845 kcal/mol)

>  <smiles>  (4) 
COCc1cc(-c2ccccc2)nc(N(C)Cc2ccccc2O)n1

>  <score_type>  (4) 
oracle

>  <origin>  (4) 
adg

>  <m_score__min__energy>  (4) 
-9.5800000000000001

>  <m_primary>  (4) 
energy

$$$$
4:0
     RDKit          3D

 42 46  0  0  0  0  0  0  0  0999 V2000
   58.1117   26.7744   44.0222 H   0  0  0  0  0  0  0  0  0  0  0  0
   57.6140   27.0780   44.9550 C   0  0  0  0  0  0  0  0  0  0  0  0
   57.1350   26.0010   45.8430 C   0  0  0  0  0  0  0  0  0  0  0  0
   57.9030   25.0470   46.4000 N   0  0  0  0  0  0  0  0  0  0  0  0
   57.0440   24.3730   47.1930 C   0  0  0  0  0  0  0  0  0  0  0  0
   57.3950   23.3810   47.8840 O   0  0  0  0  0  0  0  0  0  0  0  0
   55.7810   24.8500   47.1940 N   0  0  0  0  0  0  0  0  0  0  0  0
   55.8600   25.8860   46.3430 C   0  0  0  0  0  0  0  0  0  0  0  0
   54.7870   26.7120   46.0320 O   0  0  0  0  0  0  0  0  0  0  0  0
   57.4960   28.3970   45.1850 C   0  0  0  0  0  0  0  0  0  0  0  0
   56.6120   29.2530   44.5270 C   0  0  0  0  0  0  0  0  0  0  0  0
   55.8926   28.9421   43.7552 H   0  0  0  0  0  0  0  0  0  0  0  0
   56.7670   30.5210   44.9750 N   0  0  0  0  0  0  0  0  0  0  0  0
   57.7240   30.4870   45.8890 N   0  0  0  0  0  0  0  0  0  0  0  0
   58.2470   31.5320   46.5750 C   0  0  0  0  0  0  0  0  0  0  0  0
   57.7740   32.7360   46.3880 N   0  0  0  0  0  0  0  0  0  0  0  0
   58.4020   34.0700   46.3970 C   0  0  0  0  0  0  0  0  0  0  0  0
   57.7666   34.4389   47.2156 H   0  0  0  0  0  0  0  0  0  0  0  0
   58.8570   34.5850   45.0420 C   0  0  0  0  0  0  0  0  0  0  0  0
   58.7160   33.9673   44.1428 H   0  0  0  0  0  0  0  0  0  0  0  0
   58.6649   35.4913   44.4490 H   0  0  0  0  0  0  0  0  0  0  0  0
   59.8890   34.1790   46.0950 C   0  0  0  0  0  0  0  0  0  0  0  0
   60.4906   33.2689   45.9543 H   0  0  0  0  0  0  0  0  0  0  0  0
   60.7477   34.6712   46.5750 H   0  0  0  0  0  0  0  0  0  0  0  0
   59.2730   31.2720   47.4340 N   0  0  0  0  0  0  0  0  0  0  0  0
   59.7570   30.0000   47.5880 C   0  0  0  0  0  0  0  0  0  0  0  0
   60.7260   29.7490   48.4180 N   0  0  0  0  0  0  0  0  0  0  0  0
   61.1040   30.5920   49.5520 C   0  0  0  0  0  0  0  0  0  0  0  0
   61.8240   30.0452   50.1786 H   0  0  0  0  0  0  0  0  0  0  0  0
   60.1930   30.8337   50.1191 H   0  0  0  0  0  0  0  0  0  0  0  0
   61.7300   31.8780   49.1010 C   0  0  0  0  0  0  0  0  0  0  0  0
   62.2480   32.0130   47.8500 N   0  0  0  0  0  0  0  0  0  0  0  0
   62.7180   33.2610   47.6330 C   0  0  0  0  0  0  0  0  0  0  0  0
   63.4090   33.6750   46.3790 C   0  0  0  0  0  0  0  0  0  0  0  0
   64.3275   34.2253   46.6310 H   0  0  0  0  0  0  0  0  0  0  0  0
   63.6663   32.7822   45.7902 H   0  0  0  0  0  0  0  0  0  0  0  0
   62.7431   34.3231   45.7902 H   0  0  0  0  0  0  0  0  0  0  0  0
   62.5180   34.2380   48.9850 S   0  0  0  0  0  0  0  0  0  0  0  0
   61.7740   33.0300   49.8860 C   0  0  0  0  0  0  0  0  0  0  0  0
   61.3902   33.1301   50.9120 H   0  0  0  0  0  0  0  0  0  0  0  0
   59.2160   28.9740   46.8720 N   0  0  0  0  0  0  0  0  0  0  0  0
   58.1840   29.2430   46.0380 C   0  0  0  0  0  0  0  0  0  0  0  0
  1  2  1  0
  2  3  1  0
  3  4  1  0
  4  5  1  0
  5  6  2  0
  5  7  1  0
  7  8  1  0
  8  9  1  0
  2 10  2  0
 10 11  1  0
 11 12  1  0
 11 13  2  0
 13 14  1  0
 14 15  1  0
 15 16  2  3
 16 17  1  0
 17 18  1  0
 17 19  1  0
 19 20  1  0
 19 21  1  0
 19 22  1  0
 22 23  1  0
 22 24  1  0
 15 25  1  0
 25 26  1  0
 26 27  2  0
 27 28  1  0
 28 29  1  0
 28 30  1  0
 28 31  1  0
 31 32  1  0
 32 33  2  0
 33 34  1  0
 34 35  1  0
 34 36  1  0
 34 37  1  0
 33 38  1  0
 38 39  1  0
 39 40  1  0
 26 41  1  0
 41 42  2  0
  8  3  2  0
 42 10  1  0
 42 14  1  0
 22 17  1  0
 39 31  2  0
M  CHG  4   4  -1   7  -1   9  -1  25  -1
M  END
>  <UniqueID>  (5) 
5

>  <SMILES>  (5) 
Cc1nc(C/N=c2/nc3/c(=C\c4[n-]c(=O)[n-]c4[O-])cnn3c(=NC3CC3)[n-]2)cs1

>  <Energy>  (5) 
419.18445556117683

>  <Genealogy>  (5) 
Cc1nc(CN=c2nc3c(=Cc4[n-]c(=O)[n-]c4[O-])cnn3c(=NC3CC3)[n-]2)cs1 (protonated)
Cc1nc(C/N=c2/nc3/c(=C\c4[n-]c(=O)[n-]c4[O-])cnn3c(=NC3CC3)[n-]2)cs1 (cis-trans isomerization)
Cc1nc(C/N=c2/nc3/c(=C\c4[n-]c(=O)[n-]c4[O-])cnn3c(=NC3CC3)[n-]2)cs1 (3D coordinates assigned)
Cc1nc(C/N=c2/nc3/c(=C\c4[n-]c(=O)[n-]c4[O-])cnn3c(=NC3CC3)[n-]2)cs1 (nonaromatic ring conformer: 419.18445556117683 kcal/mol)

>  <smiles>  (5) 
Cc1nc(CN=c2nc3c(=Cc4[nH]c(=O)[nH]c4O)cnn3c(=NC3CC3)[nH]2)cs1

>  <score_type>  (5) 
oracle

>  <origin>  (5) 
adg

>  <m_score__min__energy>  (5) 
-17.93

>  <m_primary>  (5) 
energy

$$$$
5:0
     RDKit          3D

 42 44  0  0  0  0  0  0  0  0999 V2000
   66.3500   32.9650   50.1290 C   0  0  0  0  0  0  0  0  0  0  0  0
   65.3860   31.9880   49.7510 O   0  0  0  0  0  0  0  0  0  0  0  0
   64.1270   32.2860   49.2090 C   0  0  0  0  0  0  0  0  0  0  0  0
   64.0320   33.3310   48.2830 C   0  0  0  0  0  0  0  0  0  0  0  0
   62.8010   33.6680   47.7140 C   0  0  0  0  0  0  0  0  0  0  0  0
   61.6390   32.9590   48.0620 C   0  0  0  0  0  0  0  0  0  0  0  0
   60.3350   33.3140   47.4600 C   0  0  0  0  0  0  0  0  0  0  0  0
   59.1660   33.2880   48.1300 N   0  0  0  0  0  0  0  0  0  0  0  0
   58.2290   33.6560   47.2750 N   0  0  0  0  0  0  0  0  0  0  0  0
   58.8510   33.9030   46.1080 C   0  0  0  0  0  0  0  0  0  0  0  0
   58.1380   34.3020   44.8540 C   0  0  0  0  0  0  0  0  0  0  0  0
   57.4280   33.1100   44.2050 C   0  0  0  0  0  0  0  0  0  0  0  0
   56.9600   32.1670   45.2260 N   0  0  0  0  0  0  0  0  0  0  0  0
   57.1150   30.5400   44.6370 S   0  0  0  0  0  0  0  0  0  0  0  0
   55.8540   29.7690   44.9140 O   0  0  0  0  0  0  0  0  0  0  0  0
   57.3440   30.5680   43.1530 O   0  0  0  0  0  0  0  0  0  0  0  0
   58.4750   29.7420   45.4050 C   0  0  0  0  0  0  0  0  0  0  0  0
   58.6300   29.5360   46.7570 C   0  0  0  0  0  0  0  0  0  0  0  0
   59.8070   28.9170   46.9330 N   0  0  0  0  0  0  0  0  0  0  0  0
   60.4360   28.5830   48.2040 C   0  0  0  0  0  0  0  0  0  0  0  0
   60.3470   28.7850   45.7050 C   0  0  0  0  0  0  0  0  0  0  0  0
   59.5500   29.2780   44.7340 N   0  0  0  0  0  0  0  0  0  0  0  0
   60.1800   33.6930   46.1750 N   0  0  0  0  0  0  0  0  0  0  0  0
   61.7320   31.9100   48.9920 C   0  0  0  0  0  0  0  0  0  0  0  0
   62.9650   31.5740   49.5610 C   0  0  0  0  0  0  0  0  0  0  0  0
   66.4049   33.0206   51.2262 H   0  0  0  0  0  0  0  0  0  0  0  0
   67.3343   32.6838   49.7264 H   0  0  0  0  0  0  0  0  0  0  0  0
   66.0557   33.9455   49.7264 H   0  0  0  0  0  0  0  0  0  0  0  0
   64.9348   33.8924   48.0004 H   0  0  0  0  0  0  0  0  0  0  0  0
   62.7414   34.4933   46.9893 H   0  0  0  0  0  0  0  0  0  0  0  0
   57.3917   35.0726   45.0975 H   0  0  0  0  0  0  0  0  0  0  0  0
   58.8831   34.6874   44.1425 H   0  0  0  0  0  0  0  0  0  0  0  0
   56.5656   33.4741   43.6273 H   0  0  0  0  0  0  0  0  0  0  0  0
   58.1386   32.5920   43.5442 H   0  0  0  0  0  0  0  0  0  0  0  0
   57.5930   32.2410   46.0550 H   0  0  0  0  0  0  0  0  0  0  0  0
   57.9206   29.8252   47.5464 H   0  0  0  0  0  0  0  0  0  0  0  0
   59.7952   28.9233   49.0308 H   0  0  0  0  0  0  0  0  0  0  0  0
   60.5726   27.4935   48.2704 H   0  0  0  0  0  0  0  0  0  0  0  0
   61.4151   29.0800   48.2704 H   0  0  0  0  0  0  0  0  0  0  0  0
   61.3286   28.3262   45.5154 H   0  0  0  0  0  0  0  0  0  0  0  0
   60.8290   31.3490   49.2747 H   0  0  0  0  0  0  0  0  0  0  0  0
   63.0267   30.7497   50.2867 H   0  0  0  0  0  0  0  0  0  0  0  0
  1  2  1  0
  2  3  1  0
  3  4  2  0
  4  5  1  0
  5  6  2  0
  6  7  1  0
  7  8  2  0
  8  9  1  0
  9 10  1  0
 10 11  1  0
 11 12  1  0
 12 13  1  0
 13 14  1  0
 14 15  2  0
 14 16  2  0
 14 17  1  0
 17 18  2  0
 18 19  1  0
 19 20  1  0
 19 21  1  0
 21 22  2  0
 10 23  2  0
  6 24  1  0
 24 25  2  0
 25  3  1  0
 23  7  1  0
 22 17  1  0
  1 26  1  0
  1 27  1  0
  1 28  1  0
  4 29  1  0
  5 30  1  0
 11 31  1  0
 11 32  1  0
 12 33  1  0
 12 34  1  0
 13 35  1  0
 18 36  1  0
 20 37  1  0
 20 38  1  0
 20 39  1  0
 21 40  1  0
 24 41  1  0
 25 42  1  0
M  CHG  1   9  -1
M  END
>  <UniqueID>  (6) 
6

>  <SMILES>  (6) 
COc1ccc(-c2n[n-]c(CCNS(=O)(=O)c3cn(C)cn3)n2)cc1

>  <Energy>  (6) 
98.53417871074299

>  <Genealogy>  (6) 
COc1ccc(-c2n[n-]c(CCNS(=O)(=O)c3cn(C)cn3)n2)cc1 (protonated)
COc1ccc(-c2n[n-]c(CCNS(=O)(=O)c3cn(C)cn3)n2)cc1 (3D coordinates assigned)
COc1ccc(-c2n[n-]c(CCNS(=O)(=O)c3cn(C)cn3)n2)cc1 (optimized conformer: 98.53417871074299 kcal/mol)

>  <smiles>  (6) 
COc1ccc(-c2n[nH]c(CCNS(=O)(=O)c3cn(C)cn3)n2)cc1

>  <score_type>  (6) 
oracle

>  <origin>  (6) 
adg

>  <m_score__min__energy>  (6) 
-9.0299999999999994

>  <m_primary>  (6) 
energy

$$$$
6:0
     RDKit          3D

 42 45  0  0  0  0  0  0  0  0999 V2000
   60.0862   35.0924   48.1778 H   0  0  0  0  0  0  0  0  0  0  0  0
   59.5490   34.6330   47.3350 C   0  0  0  0  0  0  0  0  0  0  0  0
   59.9110   34.9450   46.0220 C   0  0  0  0  0  0  0  0  0  0  0  0
   60.7288   35.6556   45.8317 H   0  0  0  0  0  0  0  0  0  0  0  0
   59.2350   34.3550   44.9500 C   0  0  0  0  0  0  0  0  0  0  0  0
   59.5171   34.6100   43.9178 H   0  0  0  0  0  0  0  0  0  0  0  0
   58.1960   33.4370   45.1850 C   0  0  0  0  0  0  0  0  0  0  0  0
   57.4750   32.7860   44.0290 C   0  0  0  0  0  0  0  0  0  0  0  0
   58.2158   32.4302   43.2978 H   0  0  0  0  0  0  0  0  0  0  0  0
   56.8062   33.5293   43.5705 H   0  0  0  0  0  0  0  0  0  0  0  0
   56.6680   31.6510   44.4840 N   0  0  0  0  0  0  0  0  0  0  0  0
   57.1020   30.4910   44.8930 C   0  0  0  0  0  0  0  0  0  0  0  0
   56.2070   29.4620   44.9900 N   0  0  0  0  0  0  0  0  0  0  0  0
   56.6150   28.2570   45.4550 C   0  0  0  0  0  0  0  0  0  0  0  0
   57.9010   28.0210   45.8480 C   0  0  0  0  0  0  0  0  0  0  0  0
   57.9500   26.7120   46.2870 C   0  0  0  0  0  0  0  0  0  0  0  0
   58.8244   26.1714   46.6784 H   0  0  0  0  0  0  0  0  0  0  0  0
   56.6550   26.2230   46.1280 C   0  0  0  0  0  0  0  0  0  0  0  0
   56.3379   25.2010   46.3831 H   0  0  0  0  0  0  0  0  0  0  0  0
   55.8410   27.1740   45.6180 N   0  0  0  0  0  0  0  0  0  0  0  0
   54.8230   27.0840   45.4050 H   0  0  0  0  0  0  0  0  0  0  0  0
   58.8750   29.0230   45.7650 C   0  0  0  0  0  0  0  0  0  0  0  0
   60.2240   28.8260   46.2350 N   0  0  0  0  0  0  0  0  0  0  0  0
   60.3220   27.9060   46.7200 H   0  0  0  0  0  0  0  0  0  0  0  0
   60.8770   28.8050   45.4160 H   0  0  0  0  0  0  0  0  0  0  0  0
   60.5810   29.8980   47.1310 C   0  0  0  0  0  0  0  0  0  0  0  0
   60.0100   29.9740   48.4150 C   0  0  0  0  0  0  0  0  0  0  0  0
   59.2550   29.2354   48.7224 H   0  0  0  0  0  0  0  0  0  0  0  0
   60.3970   30.9830   49.3020 C   0  0  0  0  0  0  0  0  0  0  0  0
   59.9446   31.0373   50.3032 H   0  0  0  0  0  0  0  0  0  0  0  0
   61.3570   31.9220   48.9190 C   0  0  0  0  0  0  0  0  0  0  0  0
   61.6602   32.7149   49.6186 H   0  0  0  0  0  0  0  0  0  0  0  0
   61.9330   31.8550   47.6470 C   0  0  0  0  0  0  0  0  0  0  0  0
   62.8690   32.7640   47.2790 F   0  0  0  0  0  0  0  0  0  0  0  0
   61.5510   30.8470   46.7570 C   0  0  0  0  0  0  0  0  0  0  0  0
   62.0109   30.7951   45.7591 H   0  0  0  0  0  0  0  0  0  0  0  0
   58.4610   30.2760   45.2620 C   0  0  0  0  0  0  0  0  0  0  0  0
   59.1922   31.0907   45.1545 H   0  0  0  0  0  0  0  0  0  0  0  0
   57.8250   33.1460   46.5080 C   0  0  0  0  0  0  0  0  0  0  0  0
   56.9962   32.4497   46.7036 H   0  0  0  0  0  0  0  0  0  0  0  0
   58.5040   33.7370   47.5770 C   0  0  0  0  0  0  0  0  0  0  0  0
   58.2154   33.4965   48.6109 H   0  0  0  0  0  0  0  0  0  0  0  0
  1  2  1  0
  2  3  2  0
  3  4  1  0
  3  5  1  0
  5  6  1  0
  5  7  2  0
  7  8  1  0
  8  9  1  0
  8 10  1  0
  8 11  1  0
 11 12  2  0
 12 13  1  0
 13 14  1  0
 14 15  2  0
 15 16  1  0
 16 17  1  0
 16 18  2  0
 18 19  1  0
 18 20  1  0
 20 21  1  0
 15 22  1  0
 22 23  1  0
 23 24  1  0
 23 25  1  0
 23 26  1  0
 26 27  2  0
 27 28  1  0
 27 29  1  0
 29 30  1  0
 29 31  2  0
 31 32  1  0
 31 33  1  0
 33 34  1  0
 33 35  2  0
 35 36  1  0
 22 37  2  0
 37 38  1  0
  7 39  1  0
 39 40  1  0
 39 41  2  0
 41 42  1  0
 41  2  1  0
 37 12  1  0
 20 14  1  0
 35 26  1  0
M  CHG  2  13  -1  23   1
M  END
>  <UniqueID>  (7) 
7

>  <SMILES>  (7) 
Fc1cccc([NH2+]c2c/c(=N\Cc3ccccc3)[n-]c3[nH]ccc23)c1

>  <Energy>  (7) 
82.13607916548011

>  <Genealogy>  (7) 
Fc1cccc([NH2+]c2cc(=NCc3ccccc3)[n-]c3[nH]ccc23)c1 (protonated)
Fc1cccc([NH2+]c2c/c(=N\Cc3ccccc3)[n-]c3[nH]ccc23)c1 (cis-trans isomerization)
Fc1cccc([NH2+]c2c/c(=N\Cc3ccccc3)[n-]c3[nH]ccc23)c1 (3D coordinates assigned)
Fc1cccc([NH2+]c2c/c(=N\Cc3ccccc3)[n-]c3[nH]ccc23)c1 (optimized conformer: 82.13607916548011 kcal/mol)

>  <smiles>  (7) 
Fc1cccc(Nc2cc(=NCc3ccccc3)[nH]c3[nH]ccc23)c1

>  <score_type>  (7) 
oracle

>  <origin>  (7) 
adg

>  <m_score__min__energy>  (7) 
-8.8900000000000006

>  <m_primary>  (7) 
energy

$$$$
7:0
     RDKit          3D

 44 46  0  0  0  0  0  0  0  0999 V2000
   56.3920   29.4820   42.9520 O   0  0  0  0  0  0  0  0  0  0  0  0
   56.1090   29.8140   44.1330 C   0  0  0  0  0  0  0  0  0  0  0  0
   55.9100   28.7880   45.1110 N   0  0  0  0  0  0  0  0  0  0  0  0
   56.8930   27.8420   45.5540 C   0  0  0  0  0  0  0  0  0  0  0  0
   58.2460   28.1140   45.3120 C   0  0  0  0  0  0  0  0  0  0  0  0
   59.2350   27.2260   45.7470 C   0  0  0  0  0  0  0  0  0  0  0  0
   58.8800   26.0670   46.4410 C   0  0  0  0  0  0  0  0  0  0  0  0
   57.5340   25.8000   46.7120 C   0  0  0  0  0  0  0  0  0  0  0  0
   56.5430   26.6860   46.2770 C   0  0  0  0  0  0  0  0  0  0  0  0
   55.9940   31.1650   44.4910 O   0  0  0  0  0  0  0  0  0  0  0  0
   57.0280   31.9640   45.0020 C   0  0  0  0  0  0  0  0  0  0  0  0
   58.0620   31.3410   45.7070 C   0  0  0  0  0  0  0  0  0  0  0  0
   59.1100   32.0940   46.2440 C   0  0  0  0  0  0  0  0  0  0  0  0
   59.1330   33.4940   46.1000 C   0  0  0  0  0  0  0  0  0  0  0  0
   60.2390   34.3130   46.6630 C   0  0  0  0  0  0  0  0  0  0  0  0
   59.9630   35.3190   47.3720 O   0  0  0  0  0  0  0  0  0  0  0  0
   61.6850   34.0010   46.3670 C   0  0  0  0  0  0  0  0  0  0  0  0
   62.4670   33.8780   47.6180 N   0  0  0  0  0  0  0  0  0  0  0  0
   63.7010   33.0910   47.4220 C   0  0  0  0  0  0  0  0  0  0  0  0
   63.3980   31.5870   47.2170 C   0  0  0  0  0  0  0  0  0  0  0  0
   62.0950   31.2150   47.6350 O   0  0  0  0  0  0  0  0  0  0  0  0
   61.7980   31.8060   48.8820 C   0  0  0  0  0  0  0  0  0  0  0  0
   61.6610   33.3350   48.7380 C   0  0  0  0  0  0  0  0  0  0  0  0
   58.0830   34.1180   45.4020 C   0  0  0  0  0  0  0  0  0  0  0  0
   57.0360   33.3630   44.8650 C   0  0  0  0  0  0  0  0  0  0  0  0
   58.5320   29.0314   44.7767 H   0  0  0  0  0  0  0  0  0  0  0  0
   60.2942   27.4407   45.5423 H   0  0  0  0  0  0  0  0  0  0  0  0
   59.6584   25.3648   46.7742 H   0  0  0  0  0  0  0  0  0  0  0  0
   57.2547   24.8926   47.2676 H   0  0  0  0  0  0  0  0  0  0  0  0
   55.4861   26.4787   46.5007 H   0  0  0  0  0  0  0  0  0  0  0  0
   58.0508   30.2492   45.8402 H   0  0  0  0  0  0  0  0  0  0  0  0
   59.9240   31.5881   46.7839 H   0  0  0  0  0  0  0  0  0  0  0  0
   61.7423   33.0530   45.8120 H   0  0  0  0  0  0  0  0  0  0  0  0
   62.1061   34.8229   45.7693 H   0  0  0  0  0  0  0  0  0  0  0  0
   64.2289   33.4718   46.5353 H   0  0  0  0  0  0  0  0  0  0  0  0
   64.3195   33.1948   48.3257 H   0  0  0  0  0  0  0  0  0  0  0  0
   63.5016   31.3527   46.1473 H   0  0  0  0  0  0  0  0  0  0  0  0
   64.1118   31.0237   47.8359 H   0  0  0  0  0  0  0  0  0  0  0  0
   60.8523   31.3924   49.2622 H   0  0  0  0  0  0  0  0  0  0  0  0
   62.6174   31.5874   49.5826 H   0  0  0  0  0  0  0  0  0  0  0  0
   60.6030   33.5785   48.5608 H   0  0  0  0  0  0  0  0  0  0  0  0
   62.0329   33.7913   49.6672 H   0  0  0  0  0  0  0  0  0  0  0  0
   58.0858   35.2109   45.2775 H   0  0  0  0  0  0  0  0  0  0  0  0
   56.2150   33.8659   44.3330 H   0  0  0  0  0  0  0  0  0  0  0  0
  1  2  2  0
  2  3  1  0
  3  4  1  0
  4  5  2  0
  5  6  1  0
  6  7  2  0
  7  8  1  0
  8  9  2  0
  2 10  1  0
 10 11  1  0
 11 12  2  0
 12 13  1  0
 13 14  2  0
 14 15  1  0
 15 16  2  0
 15 17  1  0
 17 18  1  0
 18 19  1  0
 19 20  1  0
 20 21  1  0
 21 22  1  0
 22 23  1  0
 14 24  1  0
 24 25  2  0
  9  4  1  0
 25 11  1  0
 23 18  1  0
  5 26  1  0
  6 27  1  0
  7 28  1  0
  8 29  1  0
  9 30  1  0
 12 31  1  0
 13 32  1  0
 17 33  1  0
 17 34  1  0
 19 35  1  0
 19 36  1  0
 20 37  1  0
 20 38  1  0
 22 39  1  0
 22 40  1  0
 23 41  1  0
 23 42  1  0
 24 43  1  0
 25 44  1  0
M  CHG  1   3  -1
M  END
>  <UniqueID>  (8) 
8

>  <SMILES>  (8) 
O=C([N-]c1ccccc1)Oc1ccc(C(=O)CN2CCOCC2)cc1

>  <Energy>  (8) 
67.07380471511244

>  <Genealogy>  (8) 
O=C([N-]c1ccccc1)Oc1ccc(C(=O)CN2CCOCC2)cc1 (protonated)
O=C([N-]c1ccccc1)Oc1ccc(C(=O)CN2CCOCC2)cc1 (3D coordinates assigned)
O=C([N-]c1ccccc1)Oc1ccc(C(=O)CN2CCOCC2)cc1 (nonaromatic ring conformer: 67.07380471511244 kcal/mol)

>  <smiles>  (8) 
O=C(Nc1ccccc1)Oc1ccc(C(=O)CN2CCOCC2)cc1

>  <score_type>  (8) 
oracle

>  <origin>  (8) 
adg

>  <m_score__min__energy>  (8) 
-9.6799999999999997

>  <m_primary>  (8) 
energy

$$$$
8:0
     RDKit          3D

 48 51  0  0  0  0  0  0  0  0999 V2000
   55.3920   26.6980   45.9820 O   0  0  0  0  0  0  0  0  0  0  0  0
   56.6060   27.0350   46.0270 C   0  0  0  0  0  0  0  0  0  0  0  0
   57.5990   26.0990   46.4710 N   0  0  0  0  0  0  0  0  0  0  0  0
   57.9700   24.8710   45.8270 C   0  0  0  0  0  0  0  0  0  0  0  0
   59.2650   24.3360   45.9330 C   0  0  0  0  0  0  0  0  0  0  0  0
   59.5900   23.1510   45.2690 C   0  0  0  0  0  0  0  0  0  0  0  0
   58.6320   22.4890   44.5000 C   0  0  0  0  0  0  0  0  0  0  0  0
   57.3300   23.0070   44.3870 C   0  0  0  0  0  0  0  0  0  0  0  0
   56.3030   22.3260   43.5160 C   0  0  0  0  0  0  0  0  0  0  0  0
   56.8040   22.1000   42.2440 F   0  0  0  0  0  0  0  0  0  0  0  0
   55.9430   21.1050   44.0590 F   0  0  0  0  0  0  0  0  0  0  0  0
   55.1810   23.1280   43.4220 F   0  0  0  0  0  0  0  0  0  0  0  0
   57.0210   24.2200   45.0280 C   0  0  0  0  0  0  0  0  0  0  0  0
   57.0150   28.3820   45.5610 C   0  0  0  0  0  0  0  0  0  0  0  0
   58.2420   28.9370   45.9660 C   0  0  0  0  0  0  0  0  0  0  0  0
   58.6320   30.2000   45.5150 C   0  0  0  0  0  0  0  0  0  0  0  0
   57.8090   30.9380   44.6520 C   0  0  0  0  0  0  0  0  0  0  0  0
   58.2480   32.2320   44.2020 N   0  0  0  0  0  0  0  0  0  0  0  0
   58.3590   33.6310   45.2220 S   0  0  0  0  0  0  0  0  0  0  0  0
   57.0010   34.2630   45.3390 O   0  0  0  0  0  0  0  0  0  0  0  0
   59.3020   34.6240   44.6030 O   0  0  0  0  0  0  0  0  0  0  0  0
   58.9860   33.1760   46.8100 C   0  0  0  0  0  0  0  0  0  0  0  0
   58.1060   32.7120   47.8010 C   0  0  0  0  0  0  0  0  0  0  0  0
   58.5890   32.3380   49.0570 C   0  0  0  0  0  0  0  0  0  0  0  0
   59.9520   32.4260   49.3460 C   0  0  0  0  0  0  0  0  0  0  0  0
   60.8450   32.8900   48.3700 C   0  0  0  0  0  0  0  0  0  0  0  0
   62.2180   32.9880   48.6350 C   0  0  0  0  0  0  0  0  0  0  0  0
   63.0860   33.4500   47.6450 C   0  0  0  0  0  0  0  0  0  0  0  0
   62.5740   33.8120   46.3980 C   0  0  0  0  0  0  0  0  0  0  0  0
   61.2390   33.7160   46.1530 N   0  0  0  0  0  0  0  0  0  0  0  0
   60.3620   33.2680   47.0950 C   0  0  0  0  0  0  0  0  0  0  0  0
   56.5840   30.3820   44.2410 C   0  0  0  0  0  0  0  0  0  0  0  0
   56.1900   29.1200   44.6950 C   0  0  0  0  0  0  0  0  0  0  0  0
   60.0240   24.8513   46.5399 H   0  0  0  0  0  0  0  0  0  0  0  0
   60.6059   22.7376   45.3526 H   0  0  0  0  0  0  0  0  0  0  0  0
   58.8970   21.5569   43.9795 H   0  0  0  0  0  0  0  0  0  0  0  0
   56.0222   24.6630   44.9005 H   0  0  0  0  0  0  0  0  0  0  0  0
   58.8996   28.3721   46.6431 H   0  0  0  0  0  0  0  0  0  0  0  0
   59.5951   30.6204   45.8402 H   0  0  0  0  0  0  0  0  0  0  0  0
   58.5620   32.3440   43.2120 H   0  0  0  0  0  0  0  0  0  0  0  0
   57.0293   32.6426   47.5867 H   0  0  0  0  0  0  0  0  0  0  0  0
   57.8906   31.9716   49.8238 H   0  0  0  0  0  0  0  0  0  0  0  0
   60.3247   32.1317   50.3382 H   0  0  0  0  0  0  0  0  0  0  0  0
   62.6105   32.7012   49.6218 H   0  0  0  0  0  0  0  0  0  0  0  0
   64.1647   33.5283   47.8456 H   0  0  0  0  0  0  0  0  0  0  0  0
   63.2514   34.1758   45.6114 H   0  0  0  0  0  0  0  0  0  0  0  0
   55.9312   30.9445   43.5573 H   0  0  0  0  0  0  0  0  0  0  0  0
   55.2258   28.7008   44.3716 H   0  0  0  0  0  0  0  0  0  0  0  0
  1  2  2  0
  2  3  1  0
  3  4  1  0
  4  5  2  0
  5  6  1  0
  6  7  2  0
  7  8  1  0
  8  9  1  0
  9 10  1  0
  9 11  1  0
  9 12  1  0
  8 13  2  0
  2 14  1  0
 14 15  2  0
 15 16  1  0
 16 17  2  0
 17 18  1  0
 18 19  1  0
 19 20  2  0
 19 21  2  0
 19 22  1  0
 22 23  2  0
 23 24  1  0
 24 25  2  0
 25 26  1  0
 26 27  2  0
 27 28  1  0
 28 29  2  0
 29 30  1  0
 30 31  2  0
 17 32  1  0
 32 33  2  0
 13  4  1  0
 33 14  1  0
 31 22  1  0
 31 26  1  0
  5 34  1  0
  6 35  1  0
  7 36  1  0
 13 37  1  0
 15 38  1  0
 16 39  1  0
 18 40  1  0
 23 41  1  0
 24 42  1  0
 25 43  1  0
 27 44  1  0
 28 45  1  0
 29 46  1  0
 32 47  1  0
 33 48  1  0
M  CHG  1   3  -1
M  END
>  <UniqueID>  (9) 
9

>  <SMILES>  (9) 
O=C([N-]c1cccc(C(F)(F)F)c1)c1ccc(NS(=O)(=O)c2cccc3cccnc23)cc1

>  <Energy>  (9) 
64.33985185009578

>  <Genealogy>  (9) 
O=C([N-]c1cccc(C(F)(F)F)c1)c1ccc(NS(=O)(=O)c2cccc3cccnc23)cc1 (protonated)
O=C([N-]c1cccc(C(F)(F)F)c1)c1ccc(NS(=O)(=O)c2cccc3cccnc23)cc1 (3D coordinates assigned)
O=C([N-]c1cccc(C(F)(F)F)c1)c1ccc(NS(=O)(=O)c2cccc3cccnc23)cc1 (optimized conformer: 64.33985185009578 kcal/mol)

>  <smiles>  (9) 
O=C(Nc1cccc(C(F)(F)F)c1)c1ccc(NS(=O)(=O)c2cccc3cccnc23)cc1

>  <score_type>  (9) 
oracle

>  <origin>  (9) 
adg

>  <m_score__min__energy>  (9) 
-10.880000000000001

>  <m_primary>  (9) 
energy

$$$$
9:0
     RDKit          3D

 54 57  0  0  0  0  0  0  0  0999 V2000
   61.4220   34.2430   46.2540 N   0  0  0  0  0  0  0  0  0  0  0  0
   59.7490   34.6660   46.1670 S   0  0  0  0  0  0  0  0  0  0  0  0
   59.5820   35.8730   45.2880 O   0  0  0  0  0  0  0  0  0  0  0  0
   59.2430   34.9990   47.5430 O   0  0  0  0  0  0  0  0  0  0  0  0
   58.8340   33.3140   45.5050 C   0  0  0  0  0  0  0  0  0  0  0  0
   58.5310   32.2080   46.3090 C   0  0  0  0  0  0  0  0  0  0  0  0
   57.7980   31.1390   45.7860 C   0  0  0  0  0  0  0  0  0  0  0  0
   57.3560   31.1670   44.4530 C   0  0  0  0  0  0  0  0  0  0  0  0
   56.5930   30.0060   43.8720 C   0  0  0  0  0  0  0  0  0  0  0  0
   55.8940   29.2710   44.9270 N   0  0  0  0  0  0  0  0  0  0  0  0
   56.3620   28.2230   45.5370 C   0  0  0  0  0  0  0  0  0  0  0  0
   55.6340   27.0750   45.6160 N   0  0  0  0  0  0  0  0  0  0  0  0
   56.1260   25.9930   46.2680 C   0  0  0  0  0  0  0  0  0  0  0  0
   55.4250   24.8970   46.3100 N   0  0  0  0  0  0  0  0  0  0  0  0
   55.7010   23.6760   45.6020 C   0  0  0  0  0  0  0  0  0  0  0  0
   56.0550   23.6630   44.2360 C   0  0  0  0  0  0  0  0  0  0  0  0
   56.3140   22.4520   43.5870 C   0  0  0  0  0  0  0  0  0  0  0  0
   56.2490   21.2500   44.2960 C   0  0  0  0  0  0  0  0  0  0  0  0
   55.9370   21.2570   45.6580 C   0  0  0  0  0  0  0  0  0  0  0  0
   55.6730   22.4660   46.3100 C   0  0  0  0  0  0  0  0  0  0  0  0
   57.3620   26.0590   46.8270 N   0  0  0  0  0  0  0  0  0  0  0  0
   58.1030   27.1950   46.7470 C   0  0  0  0  0  0  0  0  0  0  0  0
   59.2700   27.2760   47.3150 N   0  0  0  0  0  0  0  0  0  0  0  0
   59.9530   28.4880   47.6840 C   0  0  0  0  0  0  0  0  0  0  0  0
   60.1460   28.8570   49.0290 C   0  0  0  0  0  0  0  0  0  0  0  0
   60.8000   30.0500   49.3460 C   0  0  0  0  0  0  0  0  0  0  0  0
   61.2940   30.8760   48.3280 C   0  0  0  0  0  0  0  0  0  0  0  0
   62.0910   32.3920   48.7330 S   0  0  0  0  0  0  0  0  0  0  0  0
   60.8970   33.6200   48.9650 N   0  0  0  0  0  0  0  0  0  0  0  0
   62.8880   32.2220   49.9960 O   0  0  0  0  0  0  0  0  0  0  0  0
   63.0230   32.7960   47.6250 O   0  0  0  0  0  0  0  0  0  0  0  0
   61.1330   30.4940   46.9890 C   0  0  0  0  0  0  0  0  0  0  0  0
   60.4770   29.3010   46.6720 C   0  0  0  0  0  0  0  0  0  0  0  0
   57.5940   28.2760   46.1060 N   0  0  0  0  0  0  0  0  0  0  0  0
   57.6570   32.2800   43.6530 C   0  0  0  0  0  0  0  0  0  0  0  0
   58.3880   33.3500   44.1780 C   0  0  0  0  0  0  0  0  0  0  0  0
   61.7500   34.4910   47.2140 H   0  0  0  0  0  0  0  0  0  0  0  0
   58.8708   32.1806   47.3548 H   0  0  0  0  0  0  0  0  0  0  0  0
   57.5661   30.2715   46.4214 H   0  0  0  0  0  0  0  0  0  0  0  0
   55.8578   30.3833   43.1459 H   0  0  0  0  0  0  0  0  0  0  0  0
   57.3025   29.3271   43.3763 H   0  0  0  0  0  0  0  0  0  0  0  0
   56.1274   24.6092   43.6797 H   0  0  0  0  0  0  0  0  0  0  0  0
   56.5692   22.4457   42.5170 H   0  0  0  0  0  0  0  0  0  0  0  0
   56.4436   20.2973   43.7816 H   0  0  0  0  0  0  0  0  0  0  0  0
   55.8990   20.3109   46.2179 H   0  0  0  0  0  0  0  0  0  0  0  0
   55.4419   22.4676   47.3854 H   0  0  0  0  0  0  0  0  0  0  0  0
   59.7801   28.2028   49.8340 H   0  0  0  0  0  0  0  0  0  0  0  0
   60.9276   30.3419   50.3989 H   0  0  0  0  0  0  0  0  0  0  0  0
   61.1810   34.4370   48.3790 H   0  0  0  0  0  0  0  0  0  0  0  0
   60.0040   33.2570   48.5650 H   0  0  0  0  0  0  0  0  0  0  0  0
   61.5241   31.1350   46.1851 H   0  0  0  0  0  0  0  0  0  0  0  0
   60.3718   28.9988   45.6196 H   0  0  0  0  0  0  0  0  0  0  0  0
   57.3161   32.3108   42.6076 H   0  0  0  0  0  0  0  0  0  0  0  0
   58.6134   34.2224   43.5470 H   0  0  0  0  0  0  0  0  0  0  0  0
  1  2  1  0
  2  3  2  0
  2  4  2  0
  2  5  1  0
  5  6  2  0
  6  7  1  0
  7  8  2  0
  8  9  1  0
  9 10  1  0
 10 11  2  3
 11 12  1  0
 12 13  1  0
 13 14  2  3
 14 15  1  0
 15 16  2  0
 16 17  1  0
 17 18  2  0
 18 19  1  0
 19 20  2  0
 13 21  1  0
 21 22  1  0
 22 23  2  3
 23 24  1  0
 24 25  2  0
 25 26  1  0
 26 27  2  0
 27 28  1  0
 28 29  1  0
 28 30  2  0
 28 31  2  0
 27 32  1  0
 32 33  2  0
 22 34  1  0
  8 35  1  0
 35 36  2  0
 36  5  1  0
 34 11  1  0
 20 15  1  0
 33 24  1  0
  1 37  1  0
  6 38  1  0
  7 39  1  0
  9 40  1  0
  9 41  1  0
 16 42  1  0
 17 43  1  0
 18 44  1  0
 19 45  1  0
 20 46  1  0
 25 47  1  0
 26 48  1  0
 29 49  1  0
 29 50  1  0
 32 51  1  0
 33 52  1  0
 35 53  1  0
 36 54  1  0
M  CHG  4   1  -1  12  -1  21  -1  34  -1
M  END
>  <UniqueID>  (10) 
10

>  <SMILES>  (10) 
[NH-]S(=O)(=O)c1ccc(CN=c2[n-]c(=Nc3ccccc3)[n-]c(=Nc3ccc(S(N)(=O)=O)cc3)[n-]2)cc1

>  <Energy>  (10) 
67.4023908925763

>  <Genealogy>  (10) 
[NH-]S(=O)(=O)c1ccc(CN=c2[n-]c(=Nc3ccccc3)[n-]c(=Nc3ccc(S(N)(=O)=O)cc3)[n-]2)cc1 (protonated)
[NH-]S(=O)(=O)c1ccc(CN=c2[n-]c(=Nc3ccccc3)[n-]c(=Nc3ccc(S(N)(=O)=O)cc3)[n-]2)cc1 (3D coordinates assigned)
[NH-]S(=O)(=O)c1ccc(CN=c2[n-]c(=Nc3ccccc3)[n-]c(=Nc3ccc(S(N)(=O)=O)cc3)[n-]2)cc1 (optimized conformer: 67.4023908925763 kcal/mol)

>  <smiles>  (10) 
NS(=O)(=O)c1ccc(CN=c2[nH]c(=Nc3ccccc3)[nH]c(=Nc3ccc(S(N)(=O)=O)cc3)[nH]2)cc1

>  <score_type>  (10) 
oracle

>  <origin>  (10) 
adg

>  <m_score__min__energy>  (10) 
-14.58

>  <m_primary>  (10) 
energy

$$$$
10:0
     RDKit          3D

 69 73  0  0  0  0  0  0  0  0999 V2000
   55.7250   29.7830   43.7460 C   0  0  0  0  0  0  0  0  0  0  0  0
   56.3260   29.4740   44.9990 O   0  0  0  0  0  0  0  0  0  0  0  0
   57.6890   29.6420   45.2930 C   0  0  0  0  0  0  0  0  0  0  0  0
   58.1790   30.8240   45.8860 C   0  0  0  0  0  0  0  0  0  0  0  0
   59.5390   30.9610   46.1750 C   0  0  0  0  0  0  0  0  0  0  0  0
   60.4260   29.9290   45.8730 C   0  0  0  0  0  0  0  0  0  0  0  0
   59.9560   28.7550   45.2840 C   0  0  0  0  0  0  0  0  0  0  0  0
   58.5900   28.5960   44.9990 C   0  0  0  0  0  0  0  0  0  0  0  0
   58.1160   27.3480   44.3600 C   0  0  0  0  0  0  0  0  0  0  0  0
   57.9120   27.3360   43.1140 O   0  0  0  0  0  0  0  0  0  0  0  0
   57.9100   26.1470   45.1270 N   0  0  0  0  0  0  0  0  0  0  0  0
   56.6460   25.4280   45.1560 C   0  0  0  0  0  0  0  0  0  0  0  0
   56.9870   24.0140   45.6060 C   0  0  0  0  0  0  0  0  0  0  0  0
   58.3470   24.1190   46.2880 C   0  0  0  0  0  0  0  0  0  0  0  0
   59.0040   25.3620   45.6870 C   0  0  2  0  0  0  0  0  0  0  0  0
   59.7710   26.1320   46.7280 C   0  0  0  0  0  0  0  0  0  0  0  0
   61.0200   26.2720   46.6220 O   0  0  0  0  0  0  0  0  0  0  0  0
   59.0580   26.7050   47.8340 N   0  0  0  0  0  0  0  0  0  0  0  0
   59.4320   27.8500   48.6140 C   0  0  0  0  0  0  0  0  0  0  0  0
   58.5720   28.9550   48.6310 C   0  0  0  0  0  0  0  0  0  0  0  0
   58.9040   30.1030   49.3540 C   0  0  0  0  0  0  0  0  0  0  0  0
   60.1120   30.1660   50.0660 C   0  0  0  0  0  0  0  0  0  0  0  0
   60.4650   31.3510   50.8020 N   0  0  0  0  0  0  0  0  0  0  0  0
   61.4620   31.2660   51.8750 C   0  0  0  0  0  0  0  0  0  0  0  0
   59.9470   32.6350   50.3930 C   0  0  0  0  0  0  0  0  0  0  0  0
   59.3500   33.3720   51.2260 O   0  0  0  0  0  0  0  0  0  0  0  0
   60.0720   33.1020   49.0000 C   0  0  0  0  0  0  0  0  0  0  0  0
   58.9060   33.4260   48.2980 C   0  0  0  0  0  0  0  0  0  0  0  0
   58.9570   33.8330   46.9950 N   0  0  0  0  0  0  0  0  0  0  0  0
   57.7040   34.1630   46.3000 C   0  0  0  0  0  0  0  0  0  0  0  0
   60.1580   33.9760   46.3500 C   0  0  0  0  0  0  0  0  0  0  0  0
   60.1860   34.3860   45.1540 O   0  0  0  0  0  0  0  0  0  0  0  0
   61.3630   33.6710   47.0140 C   0  0  0  0  0  0  0  0  0  0  0  0
   62.6090   33.8030   46.3650 C   0  0  0  0  0  0  0  0  0  0  0  0
   63.7920   33.4950   47.0370 C   0  0  0  0  0  0  0  0  0  0  0  0
   63.7540   33.0550   48.3590 C   0  0  0  0  0  0  0  0  0  0  0  0
   62.5310   32.9200   49.0180 C   0  0  0  0  0  0  0  0  0  0  0  0
   61.3220   33.2230   48.3560 C   0  0  0  0  0  0  0  0  0  0  0  0
   60.9850   29.0690   50.0370 C   0  0  0  0  0  0  0  0  0  0  0  0
   60.6560   27.9220   49.3070 C   0  0  0  0  0  0  0  0  0  0  0  0
   54.7584   30.2800   43.9156 H   0  0  0  0  0  0  0  0  0  0  0  0
   56.3868   30.4527   43.1771 H   0  0  0  0  0  0  0  0  0  0  0  0
   55.5654   28.8551   43.1771 H   0  0  0  0  0  0  0  0  0  0  0  0
   57.4853   31.6442   46.1228 H   0  0  0  0  0  0  0  0  0  0  0  0
   59.9106   31.8851   46.6418 H   0  0  0  0  0  0  0  0  0  0  0  0
   61.4967   30.0403   46.0992 H   0  0  0  0  0  0  0  0  0  0  0  0
   60.6614   27.9468   45.0407 H   0  0  0  0  0  0  0  0  0  0  0  0
   55.9524   25.9001   45.8673 H   0  0  0  0  0  0  0  0  0  0  0  0
   56.1530   25.4335   44.1727 H   0  0  0  0  0  0  0  0  0  0  0  0
   56.2303   23.6428   46.3129 H   0  0  0  0  0  0  0  0  0  0  0  0
   57.0084   23.3111   44.7602 H   0  0  0  0  0  0  0  0  0  0  0  0
   58.2251   24.2349   47.3751 H   0  0  0  0  0  0  0  0  0  0  0  0
   58.9557   23.2164   46.1308 H   0  0  0  0  0  0  0  0  0  0  0  0
   59.7426   25.1008   44.9148 H   0  0  0  0  0  0  0  0  0  0  0  0
   57.6265   28.9186   48.0700 H   0  0  0  0  0  0  0  0  0  0  0  0
   58.2160   30.9612   49.3655 H   0  0  0  0  0  0  0  0  0  0  0  0
   60.9554   31.3092   52.8505 H   0  0  0  0  0  0  0  0  0  0  0  0
   62.0127   30.3176   51.7895 H   0  0  0  0  0  0  0  0  0  0  0  0
   62.1653   32.1074   51.7895 H   0  0  0  0  0  0  0  0  0  0  0  0
   57.9320   33.3518   48.8037 H   0  0  0  0  0  0  0  0  0  0  0  0
   56.9175   34.3701   47.0406 H   0  0  0  0  0  0  0  0  0  0  0  0
   57.8573   35.0514   45.6697 H   0  0  0  0  0  0  0  0  0  0  0  0
   57.3998   33.3143   45.6697 H   0  0  0  0  0  0  0  0  0  0  0  0
   62.6477   34.1511   45.3222 H   0  0  0  0  0  0  0  0  0  0  0  0
   64.7582   33.5997   46.5218 H   0  0  0  0  0  0  0  0  0  0  0  0
   64.6899   32.8136   48.8841 H   0  0  0  0  0  0  0  0  0  0  0  0
   62.5093   32.5745   50.0621 H   0  0  0  0  0  0  0  0  0  0  0  0
   61.9341   29.1107   50.5915 H   0  0  0  0  0  0  0  0  0  0  0  0
   61.3554   27.0736   49.2741 H   0  0  0  0  0  0  0  0  0  0  0  0
  1  2  1  0
  2  3  1  0
  3  4  2  0
  4  5  1  0
  5  6  2  0
  6  7  1  0
  7  8  2  0
  8  9  1  0
  9 10  2  0
  9 11  1  0
 11 12  1  0
 12 13  1  0
 13 14  1  0
 14 15  1  0
 15 16  1  0
 16 17  2  0
 16 18  1  0
 18 19  1  0
 19 20  2  0
 20 21  1  0
 21 22  2  0
 22 23  1  0
 23 24  1  0
 23 25  1  0
 25 26  2  0
 25 27  1  0
 27 28  2  0
 28 29  1  0
 29 30  1  0
 29 31  1  0
 31 32  2  0
 31 33  1  0
 33 34  2  0
 34 35  1  0
 35 36  2  0
 36 37  1  0
 37 38  2  0
 22 39  1  0
 39 40  2  0
  8  3  1  0
 15 11  1  0
 40 19  1  0
 38 27  1  0
 38 33  1  0
  1 41  1  0
  1 42  1  0
  1 43  1  0
  4 44  1  0
  5 45  1  0
  6 46  1  0
  7 47  1  0
 12 48  1  0
 12 49  1  0
 13 50  1  0
 13 51  1  0
 14 52  1  0
 14 53  1  0
 15 54  1  6
 20 55  1  0
 21 56  1  0
 24 57  1  0
 24 58  1  0
 24 59  1  0
 28 60  1  0
 30 61  1  0
 30 62  1  0
 30 63  1  0
 34 64  1  0
 35 65  1  0
 36 66  1  0
 37 67  1  0
 39 68  1  0
 40 69  1  0
M  CHG  1  18  -1
M  END
>  <UniqueID>  (11) 
11

>  <SMILES>  (11) 
COc1ccccc1C(=O)N1CCC[C@@H]1C(=O)[N-]c1ccc(N(C)C(=O)c2cn(C)c(=O)c3ccccc23)cc1

>  <Energy>  (11) 
103.04938615269228

>  <Genealogy>  (11) 
COc1ccccc1C(=O)N1CCCC1C(=O)[N-]c1ccc(N(C)C(=O)c2cn(C)c(=O)c3ccccc23)cc1 (protonated)
COc1ccccc1C(=O)N1CCC[C@@H]1C(=O)[N-]c1ccc(N(C)C(=O)c2cn(C)c(=O)c3ccccc23)cc1 (chirality)
COc1ccccc1C(=O)N1CCC[C@@H]1C(=O)[N-]c1ccc(N(C)C(=O)c2cn(C)c(=O)c3ccccc23)cc1 (3D coordinates assigned)
COc1ccccc1C(=O)N1CCC[C@@H]1C(=O)[N-]c1ccc(N(C)C(=O)c2cn(C)c(=O)c3ccccc23)cc1 (nonaromatic ring conformer: 103.04938615269228 kcal/mol)

>  <smiles>  (11) 
COc1ccccc1C(=O)N1CCCC1C(=O)Nc1ccc(N(C)C(=O)c2cn(C)c(=O)c3ccccc23)cc1

>  <score_type>  (11) 
oracle

>  <origin>  (11) 
adg

>  <m_score__min__energy>  (11) 
-11.720000000000001

>  <m_primary>  (11) 
energy

$$$$
11:0
     RDKit          3D

 42 44  0  0  0  0  0  0  0  0999 V2000
   54.0140   26.5930   46.7500 H   0  0  0  0  0  0  0  0  0  0  0  0
   54.7710   26.4650   46.0890 O   0  0  0  0  0  0  0  0  0  0  0  0
   56.0970   26.4630   46.4750 N   0  0  0  0  0  0  0  0  0  0  0  0
   57.0900   26.3530   45.6420 C   0  0  0  0  0  0  0  0  0  0  0  0
   57.4240   25.0260   45.0600 C   0  0  0  0  0  0  0  0  0  0  0  0
   58.5220   24.2820   45.5350 C   0  0  0  0  0  0  0  0  0  0  0  0
   59.1448   24.6843   46.3475 H   0  0  0  0  0  0  0  0  0  0  0  0
   58.8160   23.0700   44.9950 N   0  0  0  0  0  0  0  0  0  0  0  0
   58.0770   22.5290   43.9910 C   0  0  0  0  0  0  0  0  0  0  0  0
   58.4450   21.1930   43.4290 C   0  0  0  0  0  0  0  0  0  0  0  0
   58.6387   20.4896   44.2523 H   0  0  0  0  0  0  0  0  0  0  0  0
   57.6176   20.8148   42.8107 H   0  0  0  0  0  0  0  0  0  0  0  0
   59.3494   21.2918   42.8107 H   0  0  0  0  0  0  0  0  0  0  0  0
   56.9790   23.2310   43.4830 C   0  0  0  0  0  0  0  0  0  0  0  0
   56.3768   22.8042   42.6674 H   0  0  0  0  0  0  0  0  0  0  0  0
   56.6540   24.4780   44.0200 C   0  0  0  0  0  0  0  0  0  0  0  0
   55.7905   25.0346   43.6269 H   0  0  0  0  0  0  0  0  0  0  0  0
   57.8560   27.5110   45.2800 N   0  0  0  0  0  0  0  0  0  0  0  0
   59.0360   27.8630   46.0820 C   0  0  0  0  0  0  0  0  0  0  0  0
   58.7132   28.1304   47.0990 H   0  0  0  0  0  0  0  0  0  0  0  0
   59.7134   26.9967   46.1085 H   0  0  0  0  0  0  0  0  0  0  0  0
   59.7830   29.0480   45.4660 C   0  0  0  0  0  0  0  0  0  0  0  0
   60.5008   29.4485   46.1970 H   0  0  0  0  0  0  0  0  0  0  0  0
   60.3216   28.7135   44.5671 H   0  0  0  0  0  0  0  0  0  0  0  0
   58.8230   30.0970   45.0980 N   0  0  0  0  0  0  0  0  0  0  0  0
   58.9840   31.4430   45.5890 C   0  0  0  0  0  0  0  0  0  0  0  0
   59.9420   31.7300   46.5770 C   0  0  0  0  0  0  0  0  0  0  0  0
   60.5802   30.9255   46.9712 H   0  0  0  0  0  0  0  0  0  0  0  0
   60.0870   33.0350   47.0610 C   0  0  0  0  0  0  0  0  0  0  0  0
   60.8404   33.2540   47.8320 H   0  0  0  0  0  0  0  0  0  0  0  0
   59.2770   34.0600   46.5670 C   0  0  0  0  0  0  0  0  0  0  0  0
   59.3934   35.0854   46.9478 H   0  0  0  0  0  0  0  0  0  0  0  0
   58.3180   33.7820   45.5880 C   0  0  0  0  0  0  0  0  0  0  0  0
   57.6798   34.5894   45.1997 H   0  0  0  0  0  0  0  0  0  0  0  0
   58.1690   32.4800   45.1020 C   0  0  0  0  0  0  0  0  0  0  0  0
   57.4104   32.2656   44.3348 H   0  0  0  0  0  0  0  0  0  0  0  0
   57.6400   29.7570   44.2910 C   0  0  0  0  0  0  0  0  0  0  0  0
   56.7383   30.1023   44.8179 H   0  0  0  0  0  0  0  0  0  0  0  0
   57.7398   30.2507   43.3131 H   0  0  0  0  0  0  0  0  0  0  0  0
   57.5280   28.2450   44.0530 C   0  0  0  0  0  0  0  0  0  0  0  0
   56.4997   28.0008   43.7479 H   0  0  0  0  0  0  0  0  0  0  0  0
   58.2348   27.9539   43.2620 H   0  0  0  0  0  0  0  0  0  0  0  0
  1  2  1  0
  2  3  1  0
  3  4  2  0
  4  5  1  0
  5  6  2  0
  6  7  1  0
  6  8  1  0
  8  9  2  0
  9 10  1  0
 10 11  1  0
 10 12  1  0
 10 13  1  0
  9 14  1  0
 14 15  1  0
 14 16  2  0
 16 17  1  0
  4 18  1  0
 18 19  1  0
 19 20  1  0
 19 21  1  0
 19 22  1  0
 22 23  1  0
 22 24  1  0
 22 25  1  0
 25 26  1  0
 26 27  2  0
 27 28  1  0
 27 29  1  0
 29 30  1  0
 29 31  2  0
 31 32  1  0
 31 33  1  0
 33 34  1  0
 33 35  2  0
 35 36  1  0
 25 37  1  0
 37 38  1  0
 37 39  1  0
 37 40  1  0
 40 41  1  0
 40 42  1  0
 16  5  1  0
 40 18  1  0
 35 26  1  0
M  END
>  <UniqueID>  (12) 
12

>  <SMILES>  (12) 
Cc1ccc(/C(=N/O)N2CCN(c3ccccc3)CC2)cn1

>  <Energy>  (12) 
54.20397510782887

>  <Genealogy>  (12) 
Cc1ccc(/C(=N/O)N2CCN(c3ccccc3)CC2)cn1 (cis-trans isomerization)
Cc1ccc(/C(=N/O)N2CCN(c3ccccc3)CC2)cn1 (3D coordinates assigned)
Cc1ccc(/C(=N/O)N2CCN(c3ccccc3)CC2)cn1 (nonaromatic ring conformer: 54.20397510782887 kcal/mol)

>  <smiles>  (12) 
Cc1ccc(C(=NO)N2CCN(c3ccccc3)CC2)cn1

>  <score_type>  (12) 
oracle

>  <origin>  (12) 
adg

>  <m_score__min__energy>  (12) 
-8.5999999999999996

>  <m_primary>  (12) 
energy

$$$$
12:0
     RDKit          3D

 36 37  0  0  0  0  0  0  0  0999 V2000
   57.6830   28.1800   46.5180 C   0  0  0  0  0  0  0  0  0  0  0  0
   57.1090   27.9910   45.1840 N   0  0  0  0  0  0  0  0  0  0  0  0
   58.2180   27.1370   44.1380 S   0  0  0  0  0  0  0  0  0  0  0  0
   57.7870   27.2580   42.4630 N   0  0  0  0  0  0  0  0  0  0  0  0
   59.5970   27.7060   44.3160 O   0  0  0  0  0  0  0  0  0  0  0  0
   58.2520   25.6860   44.5300 O   0  0  0  0  0  0  0  0  0  0  0  0
   56.5990   29.5120   44.4870 S   0  0  0  0  0  0  0  0  0  0  0  0
   56.6770   29.4260   42.9880 O   0  0  0  0  0  0  0  0  0  0  0  0
   55.1620   29.7510   44.8550 O   0  0  0  0  0  0  0  0  0  0  0  0
   57.5440   30.8970   45.0440 C   0  0  0  0  0  0  0  0  0  0  0  0
   58.8210   30.7150   45.5940 C   0  0  0  0  0  0  0  0  0  0  0  0
   59.5700   31.8160   46.0180 C   0  0  0  0  0  0  0  0  0  0  0  0
   59.0700   33.1140   45.8710 C   0  0  0  0  0  0  0  0  0  0  0  0
   59.8450   34.1910   46.3260 O   0  0  0  0  0  0  0  0  0  0  0  0
   61.0370   34.0820   47.0570 C   0  0  0  0  0  0  0  0  0  0  0  0
   60.9820   34.1880   48.4530 C   0  0  0  0  0  0  0  0  0  0  0  0
   62.1460   34.0700   49.2180 C   0  0  0  0  0  0  0  0  0  0  0  0
   63.3730   33.8320   48.5920 C   0  0  0  0  0  0  0  0  0  0  0  0
   63.4360   33.7050   47.2030 C   0  0  0  0  0  0  0  0  0  0  0  0
   62.2730   33.8230   46.4350 C   0  0  0  0  0  0  0  0  0  0  0  0
   57.7910   33.2980   45.3140 C   0  0  0  0  0  0  0  0  0  0  0  0
   57.0420   32.1980   44.8910 C   0  0  0  0  0  0  0  0  0  0  0  0
   56.9294   27.9319   47.2799 H   0  0  0  0  0  0  0  0  0  0  0  0
   58.5563   27.5220   46.6380 H   0  0  0  0  0  0  0  0  0  0  0  0
   57.9945   29.2281   46.6380 H   0  0  0  0  0  0  0  0  0  0  0  0
   56.7480   27.3110   42.4080 H   0  0  0  0  0  0  0  0  0  0  0  0
   58.1730   28.1460   42.0780 H   0  0  0  0  0  0  0  0  0  0  0  0
   59.2352   29.7007   45.6922 H   0  0  0  0  0  0  0  0  0  0  0  0
   60.5604   31.6606   46.4708 H   0  0  0  0  0  0  0  0  0  0  0  0
   60.0169   34.3652   48.9501 H   0  0  0  0  0  0  0  0  0  0  0  0
   62.0964   34.1644   50.3128 H   0  0  0  0  0  0  0  0  0  0  0  0
   64.2895   33.7447   49.1941 H   0  0  0  0  0  0  0  0  0  0  0  0
   64.4013   33.5119   46.7122 H   0  0  0  0  0  0  0  0  0  0  0  0
   62.3243   33.7131   45.3417 H   0  0  0  0  0  0  0  0  0  0  0  0
   57.3793   34.3129   45.2113 H   0  0  0  0  0  0  0  0  0  0  0  0
   56.0528   32.3525   44.4353 H   0  0  0  0  0  0  0  0  0  0  0  0
  1  2  1  0
  2  3  1  0
  3  4  1  0
  3  5  2  0
  3  6  2  0
  2  7  1  0
  7  8  2  0
  7  9  2  0
  7 10  1  0
 10 11  2  0
 11 12  1  0
 12 13  2  0
 13 14  1  0
 14 15  1  0
 15 16  2  0
 16 17  1  0
 17 18  2  0
 18 19  1  0
 19 20  2  0
 13 21  1  0
 21 22  2  0
 22 10  1  0
 20 15  1  0
  1 23  1  0
  1 24  1  0
  1 25  1  0
  4 26  1  0
  4 27  1  0
 11 28  1  0
 12 29  1  0
 16 30  1  0
 17 31  1  0
 18 32  1  0
 19 33  1  0
 20 34  1  0
 21 35  1  0
 22 36  1  0
M  END
>  <UniqueID>  (13) 
13

>  <SMILES>  (13) 
CN(S(N)(=O)=O)S(=O)(=O)c1ccc(Oc2ccccc2)cc1

>  <Energy>  (13) 
39.403122870121685

>  <Genealogy>  (13) 
CN(S(N)(=O)=O)S(=O)(=O)c1ccc(Oc2ccccc2)cc1 (3D coordinates assigned)
CN(S(N)(=O)=O)S(=O)(=O)c1ccc(Oc2ccccc2)cc1 (optimized conformer: 39.403122870121685 kcal/mol)

>  <smiles>  (13) 
CN(S(N)(=O)=O)S(=O)(=O)c1ccc(Oc2ccccc2)cc1

>  <score_type>  (13) 
oracle

>  <origin>  (13) 
adg

>  <m_score__min__energy>  (13) 
-8.3000000000000007

>  <m_primary>  (13) 
energy

$$$$
13:0
     RDKit          3D

 38 39  0  0  0  0  0  0  0  0999 V2000
   58.0040   32.1490   42.3700 C   0  0  0  0  0  0  0  0  0  0  0  0
   58.0920   32.5650   43.8150 C   0  0  0  0  0  0  0  0  0  0  0  0
   58.5580   33.8560   44.1220 C   0  0  0  0  0  0  0  0  0  0  0  0
   58.6310   34.2890   45.4470 C   0  0  0  0  0  0  0  0  0  0  0  0
   58.2450   33.4390   46.4830 C   0  0  0  0  0  0  0  0  0  0  0  0
   57.7930   32.1490   46.1980 C   0  0  0  0  0  0  0  0  0  0  0  0
   57.7170   31.6930   44.8700 C   0  0  0  0  0  0  0  0  0  0  0  0
   57.2530   30.3100   44.6140 C   0  0  0  0  0  0  0  0  0  0  0  0
   56.0600   29.9920   44.8760 O   0  0  0  0  0  0  0  0  0  0  0  0
   58.1510   29.3320   44.0670 N   0  0  0  0  0  0  0  0  0  0  0  0
   57.7730   27.9340   43.8710 C   0  0  0  0  0  0  0  0  0  0  0  0
   57.5330   27.2040   45.2080 C   0  0  0  0  0  0  0  0  0  0  0  0
   58.6410   27.3180   46.1830 N   0  0  0  0  0  0  0  0  0  0  0  0
   58.5350   28.4230   47.1610 C   0  0  0  0  0  0  0  0  0  0  0  0
   59.6850   29.4280   47.0340 C   0  0  0  0  0  0  0  0  0  0  0  0
   60.0900   29.5330   45.6900 O   0  0  0  0  0  0  0  0  0  0  0  0
   60.7680   28.3540   45.3030 C   0  0  0  0  0  0  0  0  0  0  0  0
   59.9940   27.0600   45.6510 C   0  0  0  0  0  0  0  0  0  0  0  0
   57.7767   31.0744   42.3110 H   0  0  0  0  0  0  0  0  0  0  0  0
   57.2068   32.7203   41.8719 H   0  0  0  0  0  0  0  0  0  0  0  0
   58.9642   32.3485   41.8719 H   0  0  0  0  0  0  0  0  0  0  0  0
   58.8678   34.5308   43.3104 H   0  0  0  0  0  0  0  0  0  0  0  0
   58.9936   35.3023   45.6743 H   0  0  0  0  0  0  0  0  0  0  0  0
   58.2967   33.7852   47.5258 H   0  0  0  0  0  0  0  0  0  0  0  0
   57.4934   31.4828   47.0205 H   0  0  0  0  0  0  0  0  0  0  0  0
   59.1030   29.6320   43.7610 H   0  0  0  0  0  0  0  0  0  0  0  0
   56.8486   27.8968   43.2759 H   0  0  0  0  0  0  0  0  0  0  0  0
   58.6019   27.4287   43.3537 H   0  0  0  0  0  0  0  0  0  0  0  0
   56.6264   27.6230   45.6691 H   0  0  0  0  0  0  0  0  0  0  0  0
   57.4412   26.1349   44.9659 H   0  0  0  0  0  0  0  0  0  0  0  0
   57.5844   28.9512   46.9956 H   0  0  0  0  0  0  0  0  0  0  0  0
   58.5825   27.9846   48.1688 H   0  0  0  0  0  0  0  0  0  0  0  0
   59.3485   30.4127   47.3905 H   0  0  0  0  0  0  0  0  0  0  0  0
   60.5349   29.0807   47.6398 H   0  0  0  0  0  0  0  0  0  0  0  0
   60.9268   28.3838   44.2149 H   0  0  0  0  0  0  0  0  0  0  0  0
   61.7162   28.3260   45.8599 H   0  0  0  0  0  0  0  0  0  0  0  0
   59.9012   26.4519   44.7391 H   0  0  0  0  0  0  0  0  0  0  0  0
   60.5614   26.5406   46.4373 H   0  0  0  0  0  0  0  0  0  0  0  0
  1  2  1  0
  2  3  2  0
  3  4  1  0
  4  5  2  0
  5  6  1  0
  6  7  2  0
  7  8  1  0
  8  9  2  0
  8 10  1  0
 10 11  1  0
 11 12  1  0
 12 13  1  0
 13 14  1  0
 14 15  1  0
 15 16  1  0
 16 17  1  0
 17 18  1  0
  7  2  1  0
 18 13  1  0
  1 19  1  0
  1 20  1  0
  1 21  1  0
  3 22  1  0
  4 23  1  0
  5 24  1  0
  6 25  1  0
 10 26  1  0
 11 27  1  0
 11 28  1  0
 12 29  1  0
 12 30  1  0
 14 31  1  0
 14 32  1  0
 15 33  1  0
 15 34  1  0
 17 35  1  0
 17 36  1  0
 18 37  1  0
 18 38  1  0
M  END
>  <UniqueID>  (14) 
14

>  <SMILES>  (14) 
Cc1ccccc1C(=O)NCCN1CCOCC1

>  <Energy>  (14) 
55.09100210976833

>  <Genealogy>  (14) 
Cc1ccccc1C(=O)NCCN1CCOCC1 (3D coordinates assigned)
Cc1ccccc1C(=O)NCCN1CCOCC1 (nonaromatic ring conformer: 55.09100210976833 kcal/mol)

>  <smiles>  (14) 
Cc1ccccc1C(=O)NCCN1CCOCC1

>  <score_type>  (14) 
oracle

>  <origin>  (14) 
adg

>  <m_score__min__energy>  (14) 
-6.8399999999999999

>  <m_primary>  (14) 
energy

$$$$
14:0
     RDKit          3D

 48 50  0  0  0  0  0  0  0  0999 V2000
   63.7590   33.4620   48.4100 C   0  0  0  0  0  0  0  0  0  0  0  0
   62.3660   33.7840   47.9570 C   0  0  0  0  0  0  0  0  0  0  0  0
   62.0510   33.8260   46.5910 C   0  0  0  0  0  0  0  0  0  0  0  0
   60.7480   34.1140   46.1750 C   0  0  0  0  0  0  0  0  0  0  0  0
   59.7350   34.3590   47.1250 C   0  0  0  0  0  0  0  0  0  0  0  0
   58.4100   34.6660   46.7660 O   0  0  0  0  0  0  0  0  0  0  0  0
   57.6200   33.9530   45.8100 C   0  0  0  0  0  0  0  0  0  0  0  0
   57.7890   32.4370   45.9570 C   0  0  0  0  0  0  0  0  0  0  0  0
   56.9030   31.7660   45.0860 O   0  0  0  0  0  0  0  0  0  0  0  0
   57.4720   31.5980   43.8030 C   0  0  0  0  0  0  0  0  0  0  0  0
   56.9270   30.3190   43.1530 C   0  0  0  0  0  0  0  0  0  0  0  0
   55.4240   29.7190   44.0030 S   0  0  0  0  0  0  0  0  0  0  0  0
   56.3340   28.7990   45.2440 C   0  0  0  0  0  0  0  0  0  0  0  0
   55.9580   27.5350   45.5670 N   0  0  0  0  0  0  0  0  0  0  0  0
   56.6590   26.8100   46.4740 C   0  0  0  0  0  0  0  0  0  0  0  0
   56.3000   25.6340   46.7480 O   0  0  0  0  0  0  0  0  0  0  0  0
   57.7790   27.3660   47.0960 C   0  0  0  0  0  0  0  0  0  0  0  0
   58.1470   28.6820   46.7720 C   0  0  0  0  0  0  0  0  0  0  0  0
   59.3340   29.3350   47.3830 C   0  0  0  0  0  0  0  0  0  0  0  0
   60.2820   29.9730   46.5580 C   0  0  0  0  0  0  0  0  0  0  0  0
   61.4050   30.5900   47.1140 C   0  0  0  0  0  0  0  0  0  0  0  0
   61.5940   30.5880   48.4970 C   0  0  0  0  0  0  0  0  0  0  0  0
   60.6590   29.9670   49.3280 C   0  0  0  0  0  0  0  0  0  0  0  0
   59.5340   29.3460   48.7770 C   0  0  0  0  0  0  0  0  0  0  0  0
   57.4150   29.3600   45.8450 N   0  0  0  0  0  0  0  0  0  0  0  0
   60.0530   34.2990   48.4870 C   0  0  0  0  0  0  0  0  0  0  0  0
   61.3580   34.0120   48.9020 C   0  0  0  0  0  0  0  0  0  0  0  0
   63.7944   33.4538   49.5094 H   0  0  0  0  0  0  0  0  0  0  0  0
   64.0499   32.4729   48.0264 H   0  0  0  0  0  0  0  0  0  0  0  0
   64.4544   34.2231   48.0264 H   0  0  0  0  0  0  0  0  0  0  0  0
   62.8336   33.6312   45.8429 H   0  0  0  0  0  0  0  0  0  0  0  0
   60.5116   34.1497   45.1013 H   0  0  0  0  0  0  0  0  0  0  0  0
   56.5609   34.2103   45.9591 H   0  0  0  0  0  0  0  0  0  0  0  0
   57.9561   34.2406   44.8029 H   0  0  0  0  0  0  0  0  0  0  0  0
   58.8241   32.1600   45.7082 H   0  0  0  0  0  0  0  0  0  0  0  0
   57.5645   32.1474   46.9942 H   0  0  0  0  0  0  0  0  0  0  0  0
   57.2165   32.4639   43.1745 H   0  0  0  0  0  0  0  0  0  0  0  0
   58.5648   31.5178   43.8993 H   0  0  0  0  0  0  0  0  0  0  0  0
   56.6823   30.5295   42.1014 H   0  0  0  0  0  0  0  0  0  0  0  0
   57.6991   29.5391   43.2285 H   0  0  0  0  0  0  0  0  0  0  0  0
   58.3616   26.7844   47.8256 H   0  0  0  0  0  0  0  0  0  0  0  0
   60.1364   29.9851   45.4677 H   0  0  0  0  0  0  0  0  0  0  0  0
   62.1424   31.0788   46.4603 H   0  0  0  0  0  0  0  0  0  0  0  0
   62.4790   31.0753   48.9321 H   0  0  0  0  0  0  0  0  0  0  0  0
   60.8079   29.9664   50.4179 H   0  0  0  0  0  0  0  0  0  0  0  0
   58.7994   28.8622   49.4375 H   0  0  0  0  0  0  0  0  0  0  0  0
   59.2696   34.4792   49.2379 H   0  0  0  0  0  0  0  0  0  0  0  0
   61.5933   33.9652   49.9755 H   0  0  0  0  0  0  0  0  0  0  0  0
  1  2  1  0
  2  3  2  0
  3  4  1  0
  4  5  2  0
  5  6  1  0
  6  7  1  0
  7  8  1  0
  8  9  1  0
  9 10  1  0
 10 11  1  0
 11 12  1  0
 12 13  1  0
 13 14  2  0
 14 15  1  0
 15 16  2  0
 15 17  1  0
 17 18  2  0
 18 19  1  0
 19 20  2  0
 20 21  1  0
 21 22  2  0
 22 23  1  0
 23 24  2  0
 18 25  1  0
  5 26  1  0
 26 27  2  0
 27  2  1  0
 25 13  1  0
 24 19  1  0
  1 28  1  0
  1 29  1  0
  1 30  1  0
  3 31  1  0
  4 32  1  0
  7 33  1  0
  7 34  1  0
  8 35  1  0
  8 36  1  0
 10 37  1  0
 10 38  1  0
 11 39  1  0
 11 40  1  0
 17 41  1  0
 20 42  1  0
 21 43  1  0
 22 44  1  0
 23 45  1  0
 24 46  1  0
 26 47  1  0
 27 48  1  0
M  CHG  1  25  -1
M  END
>  <UniqueID>  (15) 
15

>  <SMILES>  (15) 
Cc1ccc(OCCOCCSc2nc(=O)cc(-c3ccccc3)[n-]2)cc1

>  <Energy>  (15) 
48.86648393011311

>  <Genealogy>  (15) 
Cc1ccc(OCCOCCSc2nc(=O)cc(-c3ccccc3)[n-]2)cc1 (protonated)
Cc1ccc(OCCOCCSc2nc(=O)cc(-c3ccccc3)[n-]2)cc1 (3D coordinates assigned)
Cc1ccc(OCCOCCSc2nc(=O)cc(-c3ccccc3)[n-]2)cc1 (optimized conformer: 48.86648393011311 kcal/mol)

>  <smiles>  (15) 
Cc1ccc(OCCOCCSc2nc(=O)cc(-c3ccccc3)[nH]2)cc1

>  <score_type>  (15) 
oracle

>  <origin>  (15) 
adg

>  <m_score__min__energy>  (15) 
-9.5299999999999994

>  <m_primary>  (15) 
energy

$$$$
15:0
     RDKit          3D

 65 69  0  0  0  0  0  0  0  0999 V2000
   58.0382   34.0383   44.4397 H   0  0  0  0  0  0  0  0  0  0  0  0
   58.3470   33.9220   45.4890 C   0  0  0  0  0  0  0  0  0  0  0  0
   57.7700   32.9270   46.2810 C   0  0  0  0  0  0  0  0  0  0  0  0
   57.0007   32.2651   45.8565 H   0  0  0  0  0  0  0  0  0  0  0  0
   58.1680   32.7700   47.6130 C   0  0  0  0  0  0  0  0  0  0  0  0
   57.6933   32.0000   48.2390 H   0  0  0  0  0  0  0  0  0  0  0  0
   59.1710   33.5910   48.1550 C   0  0  0  0  0  0  0  0  0  0  0  0
   59.6260   33.4210   49.5560 C   0  0  0  0  0  0  0  0  0  0  0  0
   58.7000   32.9990   50.5280 C   0  0  0  0  0  0  0  0  0  0  0  0
   57.6730   32.7434   50.2282 H   0  0  0  0  0  0  0  0  0  0  0  0
   59.0740   32.9020   51.8700 C   0  0  0  0  0  0  0  0  0  0  0  0
   58.3430   32.5662   52.6202 H   0  0  0  0  0  0  0  0  0  0  0  0
   60.3730   33.2300   52.2620 C   0  0  0  0  0  0  0  0  0  0  0  0
   60.6629   33.1558   53.3205 H   0  0  0  0  0  0  0  0  0  0  0  0
   61.3040   33.6520   51.3120 C   0  0  0  0  0  0  0  0  0  0  0  0
   62.3256   33.9130   51.6254 H   0  0  0  0  0  0  0  0  0  0  0  0
   60.9440   33.7450   49.9600 C   0  0  0  0  0  0  0  0  0  0  0  0
   61.9140   34.2190   49.0240 N   0  0  0  0  0  0  0  0  0  0  0  0
   62.0940   35.2440   48.9320 H   0  0  0  0  0  0  0  0  0  0  0  0
   63.0230   33.1320   48.2690 S   0  0  0  0  0  0  0  0  0  0  0  0
   64.1850   33.9070   47.7120 O   0  0  0  0  0  0  0  0  0  0  0  0
   62.3490   32.4050   47.1390 O   0  0  0  0  0  0  0  0  0  0  0  0
   63.5800   31.9770   49.4710 C   0  0  0  0  0  0  0  0  0  0  0  0
   64.9210   31.9630   49.8660 C   0  0  0  0  0  0  0  0  0  0  0  0
   65.6394   32.6466   49.3900 H   0  0  0  0  0  0  0  0  0  0  0  0
   65.3520   31.0850   50.8620 C   0  0  0  0  0  0  0  0  0  0  0  0
   66.4114   31.0754   51.1580 H   0  0  0  0  0  0  0  0  0  0  0  0
   64.4440   30.2110   51.4920 C   0  0  0  0  0  0  0  0  0  0  0  0
   64.8630   29.3230   52.4970 O   0  0  0  0  0  0  0  0  0  0  0  0
   64.5750   29.4720   53.8850 C   0  0  0  0  0  0  0  0  0  0  0  0
   65.3979   29.0463   54.4780 H   0  0  0  0  0  0  0  0  0  0  0  0
   64.4651   30.5401   54.1241 H   0  0  0  0  0  0  0  0  0  0  0  0
   63.6397   28.9446   54.1241 H   0  0  0  0  0  0  0  0  0  0  0  0
   63.0830   30.2350   51.0970 C   0  0  0  0  0  0  0  0  0  0  0  0
   62.0840   29.4030   51.7050 N   0  0  0  0  0  0  0  0  0  0  0  0
   60.8610   29.4120   51.3540 N   0  0  0  0  0  0  0  0  0  0  0  0
   60.4520   29.1430   50.0090 C   0  0  0  0  0  0  0  0  0  0  0  0
   59.7440   30.0910   49.2490 C   0  0  0  0  0  0  0  0  0  0  0  0
   59.4957   31.0695   49.6858 H   0  0  0  0  0  0  0  0  0  0  0  0
   59.3550   29.7930   47.9400 C   0  0  0  0  0  0  0  0  0  0  0  0
   58.7958   30.5366   47.3532 H   0  0  0  0  0  0  0  0  0  0  0  0
   59.6740   28.5490   47.3690 C   0  0  0  0  0  0  0  0  0  0  0  0
   59.2520   28.2060   46.0380 N   0  0  0  0  0  0  0  0  0  0  0  0
   59.6200   27.3200   45.6200 H   0  0  0  0  0  0  0  0  0  0  0  0
   58.3440   28.9930   45.2480 C   0  0  0  0  0  0  0  0  0  0  0  0
   56.9970   28.6140   45.1630 C   0  0  0  0  0  0  0  0  0  0  0  0
   56.6407   27.7323   45.7159 H   0  0  0  0  0  0  0  0  0  0  0  0
   56.1040   29.3510   44.3790 C   0  0  0  0  0  0  0  0  0  0  0  0
   55.0449   29.0578   44.3300 H   0  0  0  0  0  0  0  0  0  0  0  0
   56.5550   30.4590   43.6580 C   0  0  0  0  0  0  0  0  0  0  0  0
   55.8507   31.0390   43.0436 H   0  0  0  0  0  0  0  0  0  0  0  0
   57.9010   30.8310   43.7170 C   0  0  0  0  0  0  0  0  0  0  0  0
   58.2569   31.6997   43.1436 H   0  0  0  0  0  0  0  0  0  0  0  0
   58.7960   30.0990   44.5050 C   0  0  0  0  0  0  0  0  0  0  0  0
   59.8563   30.3891   44.5437 H   0  0  0  0  0  0  0  0  0  0  0  0
   60.3590   27.5990   48.1390 C   0  0  0  0  0  0  0  0  0  0  0  0
   60.5875   26.6115   47.7117 H   0  0  0  0  0  0  0  0  0  0  0  0
   60.7540   27.8980   49.4470 C   0  0  0  0  0  0  0  0  0  0  0  0
   61.3049   27.1505   50.0367 H   0  0  0  0  0  0  0  0  0  0  0  0
   62.6700   31.1130   50.0880 C   0  0  0  0  0  0  0  0  0  0  0  0
   61.6152   31.1234   49.7762 H   0  0  0  0  0  0  0  0  0  0  0  0
   59.7310   34.6030   47.3550 C   0  0  0  0  0  0  0  0  0  0  0  0
   60.5003   35.2682   47.7742 H   0  0  0  0  0  0  0  0  0  0  0  0
   59.3160   34.7690   46.0300 C   0  0  0  0  0  0  0  0  0  0  0  0
   59.7535   35.5679   45.4133 H   0  0  0  0  0  0  0  0  0  0  0  0
  1  2  1  0
  2  3  2  0
  3  4  1  0
  3  5  1  0
  5  6  1  0
  5  7  2  0
  7  8  1  0
  8  9  2  0
  9 10  1  0
  9 11  1  0
 11 12  1  0
 11 13  2  0
 13 14  1  0
 13 15  1  0
 15 16  1  0
 15 17  2  0
 17 18  1  0
 18 19  1  0
 18 20  1  0
 20 21  2  0
 20 22  2  0
 20 23  1  0
 23 24  2  0
 24 25  1  0
 24 26  1  0
 26 27  1  0
 26 28  2  0
 28 29  1  0
 29 30  1  0
 30 31  1  0
 30 32  1  0
 30 33  1  0
 28 34  1  0
 34 35  1  0
 35 36  2  0
 36 37  1  0
 37 38  2  0
 38 39  1  0
 38 40  1  0
 40 41  1  0
 40 42  2  0
 42 43  1  0
 43 44  1  0
 43 45  1  0
 45 46  2  0
 46 47  1  0
 46 48  1  0
 48 49  1  0
 48 50  2  0
 50 51  1  0
 50 52  1  0
 52 53  1  0
 52 54  2  0
 54 55  1  0
 42 56  1  0
 56 57  1  0
 56 58  2  0
 58 59  1  0
 34 60  2  0
 60 61  1  0
  7 62  1  0
 62 63  1  0
 62 64  2  0
 64 65  1  0
 64  2  1  0
 17  8  1  0
 60 23  1  0
 58 37  1  0
 54 45  1  0
M  END
>  <UniqueID>  (16) 
16

>  <SMILES>  (16) 
COc1ccc(S(=O)(=O)Nc2ccccc2-c2ccccc2)cc1/N=N/c1ccc(Nc2ccccc2)cc1

>  <Energy>  (16) 
89.09072372589749

>  <Genealogy>  (16) 
COc1ccc(S(=O)(=O)Nc2ccccc2-c2ccccc2)cc1/N=N/c1ccc(Nc2ccccc2)cc1 (cis-trans isomerization)
COc1ccc(S(=O)(=O)Nc2ccccc2-c2ccccc2)cc1/N=N/c1ccc(Nc2ccccc2)cc1 (3D coordinates assigned)
COc1ccc(S(=O)(=O)Nc2ccccc2-c2ccccc2)cc1/N=N/c1ccc(Nc2ccccc2)cc1 (optimized conformer: 89.09072372589749 kcal/mol)

>  <smiles>  (16) 
COc1ccc(S(=O)(=O)Nc2ccccc2-c2ccccc2)cc1N=Nc1ccc(Nc2ccccc2)cc1

>  <score_type>  (16) 
oracle

>  <origin>  (16) 
adg

>  <m_score__min__energy>  (16) 
-11.23

>  <m_primary>  (16) 
energy

$$$$
16:0
     RDKit          3D

 35 37  0  0  0  0  0  0  0  0999 V2000
   55.2720   26.3810   46.0090 N   0  0  0  0  0  0  0  0  0  0  0  0
   56.9570   26.0580   46.2210 S   0  0  0  0  0  0  0  0  0  0  0  0
   57.1130   24.9790   47.2560 O   0  0  0  0  0  0  0  0  0  0  0  0
   57.5450   25.5900   44.9210 O   0  0  0  0  0  0  0  0  0  0  0  0
   57.7840   27.5200   46.7470 C   0  0  0  0  0  0  0  0  0  0  0  0
   58.6740   27.4810   47.8290 C   0  0  0  0  0  0  0  0  0  0  0  0
   59.3360   28.6410   48.2400 C   0  0  0  0  0  0  0  0  0  0  0  0
   59.1290   29.8550   47.5590 C   0  0  0  0  0  0  0  0  0  0  0  0
   59.7690   31.0730   47.9610 N   0  0  0  0  0  0  0  0  0  0  0  0
   61.1260   31.4520   47.6980 C   0  0  0  0  0  0  0  0  0  0  0  0
   62.0860   30.8250   48.2230 O   0  0  0  0  0  0  0  0  0  0  0  0
   61.4040   32.5970   46.7840 C   0  0  0  0  0  0  0  0  0  0  0  0
   60.3960   34.0270   47.2870 S   0  0  0  0  0  0  0  0  0  0  0  0
   59.1100   33.6810   46.0930 C   0  0  0  0  0  0  0  0  0  0  0  0
   58.3660   34.6260   45.4900 N   0  0  0  0  0  0  0  0  0  0  0  0
   57.5360   33.9830   44.6840 N   0  0  0  0  0  0  0  0  0  0  0  0
   57.8080   32.6720   44.8310 C   0  0  0  0  0  0  0  0  0  0  0  0
   57.1150   31.5970   44.1170 C   0  0  0  0  0  0  0  0  0  0  0  0
   57.3860   31.1690   42.8330 C   0  0  0  0  0  0  0  0  0  0  0  0
   56.4920   30.1490   42.5870 C   0  0  0  0  0  0  0  0  0  0  0  0
   55.7340   30.0180   43.7340 C   0  0  0  0  0  0  0  0  0  0  0  0
   56.1290   30.8950   44.6280 O   0  0  0  0  0  0  0  0  0  0  0  0
   58.7730   32.4780   45.6970 O   0  0  0  0  0  0  0  0  0  0  0  0
   58.2250   29.8920   46.4890 C   0  0  0  0  0  0  0  0  0  0  0  0
   57.5640   28.7300   46.0790 C   0  0  0  0  0  0  0  0  0  0  0  0
   55.1550   27.4180   46.0310 H   0  0  0  0  0  0  0  0  0  0  0  0
   58.8523   26.5327   48.3572 H   0  0  0  0  0  0  0  0  0  0  0  0
   60.0217   28.6050   49.0994 H   0  0  0  0  0  0  0  0  0  0  0  0
   62.4703   32.8612   46.8399 H   0  0  0  0  0  0  0  0  0  0  0  0
   61.1522   32.3137   45.7514 H   0  0  0  0  0  0  0  0  0  0  0  0
   58.1542   31.5598   42.1495 H   0  0  0  0  0  0  0  0  0  0  0  0
   56.4007   29.5585   41.6634 H   0  0  0  0  0  0  0  0  0  0  0  0
   54.9224   29.2894   43.8770 H   0  0  0  0  0  0  0  0  0  0  0  0
   58.0340   30.8417   45.9679 H   0  0  0  0  0  0  0  0  0  0  0  0
   56.8682   28.7671   45.2279 H   0  0  0  0  0  0  0  0  0  0  0  0
  1  2  1  0
  2  3  2  0
  2  4  2  0
  2  5  1  0
  5  6  2  0
  6  7  1  0
  7  8  2  0
  8  9  1  0
  9 10  1  0
 10 11  2  0
 10 12  1  0
 12 13  1  0
 13 14  1  0
 14 15  2  0
 15 16  1  0
 16 17  2  0
 17 18  1  0
 18 19  2  0
 19 20  1  0
 20 21  2  0
 21 22  1  0
 17 23  1  0
  8 24  1  0
 24 25  2  0
 25  5  1  0
 23 14  1  0
 22 18  1  0
  1 26  1  0
  6 27  1  0
  7 28  1  0
 12 29  1  0
 12 30  1  0
 19 31  1  0
 20 32  1  0
 21 33  1  0
 24 34  1  0
 25 35  1  0
M  CHG  2   1  -1   9  -1
M  END
>  <UniqueID>  (17) 
17

>  <SMILES>  (17) 
[NH-]S(=O)(=O)c1ccc([N-]C(=O)CSc2nnc(-c3ccco3)o2)cc1

>  <Energy>  (17) 
95.12576871411423

>  <Genealogy>  (17) 
[NH-]S(=O)(=O)c1ccc([N-]C(=O)CSc2nnc(-c3ccco3)o2)cc1 (protonated)
[NH-]S(=O)(=O)c1ccc([N-]C(=O)CSc2nnc(-c3ccco3)o2)cc1 (3D coordinates assigned)
[NH-]S(=O)(=O)c1ccc([N-]C(=O)CSc2nnc(-c3ccco3)o2)cc1 (optimized conformer: 95.12576871411423 kcal/mol)

>  <smiles>  (17) 
NS(=O)(=O)c1ccc(NC(=O)CSc2nnc(-c3ccco3)o2)cc1

>  <score_type>  (17) 
oracle

>  <origin>  (17) 
adg

>  <m_score__min__energy>  (17) 
-11.800000000000001

>  <m_primary>  (17) 
energy

$$$$
17:0
     RDKit          3D

 35 37  0  0  1  0  0  0  0  0999 V2000
   58.0250   31.3780   43.4310 C   0  0  0  0  0  0  0  0  0  0  0  0
   58.0350   30.0720   44.1530 C   0  0  0  0  0  0  0  0  0  0  0  0
   59.2490   29.5050   44.5200 C   0  0  0  0  0  0  0  0  0  0  0  0
   59.3240   28.2940   45.1910 C   0  0  0  0  0  0  0  0  0  0  0  0
   58.1290   27.6470   45.4950 C   0  0  0  0  0  0  0  0  0  0  0  0
   58.1080   26.3980   46.1840 N   0  0  0  0  0  0  0  0  0  0  0  0
   58.1220   25.2560   45.6200 C   0  0  0  0  0  0  0  0  0  0  0  0
   59.1540   24.4380   45.8250 N   0  0  0  0  0  0  0  0  0  0  0  0
   59.1960   23.2220   45.2420 C   0  0  0  0  0  0  0  0  0  0  0  0
   60.2040   22.4880   45.4740 N   0  0  0  0  0  0  0  0  0  0  0  0
   58.1280   22.8870   44.4380 C   0  0  0  0  0  0  0  0  0  0  0  0
   58.1120   21.6750   43.8240 C   0  0  0  0  0  0  0  0  0  0  0  0
   57.0420   21.3400   43.0190 C   0  0  0  0  0  0  0  0  0  0  0  0
   56.0020   22.1980   42.8300 N   0  0  0  0  0  0  0  0  0  0  0  0
   55.9850   23.4210   43.4320 C   0  0  0  0  0  0  0  0  0  0  0  0
   57.0520   23.7370   44.2240 C   0  0  0  0  0  0  0  0  0  0  0  0
   57.0660   24.9380   44.8340 N   0  0  0  0  0  0  0  0  0  0  0  0
   56.9310   28.2280   45.1220 C   0  0  0  0  0  0  0  0  0  0  0  0
   56.8600   29.4320   44.4540 C   0  0  0  0  0  0  0  0  0  0  0  0
   55.5430   30.0340   44.0630 C   0  0  0  0  0  0  0  0  0  0  0  0
   58.0187   32.2006   44.1612 H   0  0  0  0  0  0  0  0  0  0  0  0
   58.9226   31.4549   42.7998 H   0  0  0  0  0  0  0  0  0  0  0  0
   57.1263   31.4411   42.7998 H   0  0  0  0  0  0  0  0  0  0  0  0
   60.1807   30.0338   44.2702 H   0  0  0  0  0  0  0  0  0  0  0  0
   60.2942   27.8593   45.4735 H   0  0  0  0  0  0  0  0  0  0  0  0
   59.9270   24.7620   46.4470 H   0  0  0  0  0  0  0  0  0  0  0  0
   60.9220   22.1290   44.8480 H   0  0  0  0  0  0  0  0  0  0  0  0
   58.9428   20.9684   43.9669 H   0  0  0  0  0  0  0  0  0  0  0  0
   57.0293   20.3598   42.5200 H   0  0  0  0  0  0  0  0  0  0  0  0
   55.1497   24.1217   43.2865 H   0  0  0  0  0  0  0  0  0  0  0  0
   56.2700   25.6280   44.7050 H   0  0  0  0  0  0  0  0  0  0  0  0
   55.9941   27.7071   45.3689 H   0  0  0  0  0  0  0  0  0  0  0  0
   54.9752   30.2936   44.9687 H   0  0  0  0  0  0  0  0  0  0  0  0
   55.7174   30.9418   43.4668 H   0  0  0  0  0  0  0  0  0  0  0  0
   54.9706   29.3081   43.4668 H   0  0  0  0  0  0  0  0  0  0  0  0
  1  2  1  0
  2  3  2  0
  3  4  1  0
  4  5  2  0
  5  6  1  0
  6  7  2  0
  7  8  1  0
  8  9  1  0
  9 10  2  3
  9 11  1  0
 11 12  2  0
 12 13  1  0
 13 14  2  0
 14 15  1  0
 15 16  2  0
 16 17  1  0
  5 18  1  0
 18 19  2  0
 19 20  1  0
 19  2  1  0
 17  7  1  0
 16 11  1  0
  1 21  1  0
  1 22  1  0
  1 23  1  0
  3 24  1  0
  4 25  1  0
  8 26  1  0
 10 27  1  0
 12 28  1  0
 13 29  1  0
 15 30  1  0
 17 31  1  0
 18 32  1  0
 20 33  1  0
 20 34  1  0
 20 35  1  0
M  END
>  <smiles>  (18) 
Cc1ccc(N=c2[nH]c(=N)c3ccncc3[nH]2)cc1C

>  <score_type>  (18) 
oracle

>  <origin>  (18) 
adg

>  <m_score__min__energy>  (18) 
-8.0600000000000005

>  <m_primary>  (18) 
energy

$$$$
18:0
     RDKit          3D

 44 46  0  0  0  0  0  0  0  0999 V2000
   57.2125   34.8720   44.9939 H   0  0  0  0  0  0  0  0  0  0  0  0
   57.5350   33.8650   45.2970 C   0  0  0  0  0  0  0  0  0  0  0  0
   57.6770   33.5710   46.7370 C   0  0  0  0  0  0  0  0  0  0  0  0
   56.6330   33.4590   47.4340 O   0  0  0  0  0  0  0  0  0  0  0  0
   58.9940   33.3370   47.3660 C   0  0  0  0  0  0  0  0  0  0  0  0
   60.1090   33.6770   46.6610 N   0  0  0  0  0  0  0  0  0  0  0  0
   61.3560   33.4810   47.1590 C   0  0  0  0  0  0  0  0  0  0  0  0
   62.4850   33.8210   46.4080 C   0  0  0  0  0  0  0  0  0  0  0  0
   62.3697   34.2582   45.4052 H   0  0  0  0  0  0  0  0  0  0  0  0
   63.7640   33.6030   46.9370 C   0  0  0  0  0  0  0  0  0  0  0  0
   64.6538   33.8676   46.3469 H   0  0  0  0  0  0  0  0  0  0  0  0
   63.9130   33.0500   48.2130 C   0  0  0  0  0  0  0  0  0  0  0  0
   64.9193   32.8854   48.6257 H   0  0  0  0  0  0  0  0  0  0  0  0
   62.7860   32.7060   48.9650 C   0  0  0  0  0  0  0  0  0  0  0  0
   62.9045   32.2713   49.9685 H   0  0  0  0  0  0  0  0  0  0  0  0
   61.5060   32.9160   48.4380 C   0  0  0  0  0  0  0  0  0  0  0  0
   60.3990   32.5800   49.1510 N   0  0  0  0  0  0  0  0  0  0  0  0
   59.1400   32.7700   48.6590 C   0  0  0  0  0  0  0  0  0  0  0  0
   57.9970   32.4370   49.4760 N   0  0  0  0  0  0  0  0  0  0  0  0
   57.0470   32.7140   49.1490 H   0  0  0  0  0  0  0  0  0  0  0  0
   58.1220   31.8470   50.6310 C   0  0  0  0  0  0  0  0  0  0  0  0
   58.0167   32.4435   51.5492 H   0  0  0  0  0  0  0  0  0  0  0  0
   58.3940   30.4370   50.7410 N   0  0  0  0  0  0  0  0  0  0  0  0
   58.1420   29.7900   52.0290 C   0  0  0  0  0  0  0  0  0  0  0  0
   58.4102   30.4785   52.8439 H   0  0  0  0  0  0  0  0  0  0  0  0
   57.0763   29.5285   52.1057 H   0  0  0  0  0  0  0  0  0  0  0  0
   58.7501   28.8766   52.1057 H   0  0  0  0  0  0  0  0  0  0  0  0
   58.9400   29.6650   49.6200 C   0  0  0  0  0  0  0  0  0  0  0  0
   59.5343   28.8248   50.0084 H   0  0  0  0  0  0  0  0  0  0  0  0
   58.1144   29.2770   49.0054 H   0  0  0  0  0  0  0  0  0  0  0  0
   59.5809   30.3142   49.0054 H   0  0  0  0  0  0  0  0  0  0  0  0
   57.7830   32.9550   44.3430 C   0  0  0  0  0  0  0  0  0  0  0  0
   58.0790   33.3203   43.3485 H   0  0  0  0  0  0  0  0  0  0  0  0
   57.6840   31.4860   44.5420 C   0  0  0  0  0  0  0  0  0  0  0  0
   56.5410   30.8240   44.0620 C   0  0  0  0  0  0  0  0  0  0  0  0
   55.7646   31.3937   43.5303 H   0  0  0  0  0  0  0  0  0  0  0  0
   56.3810   29.4470   44.2540 C   0  0  0  0  0  0  0  0  0  0  0  0
   55.4814   28.9400   43.8750 H   0  0  0  0  0  0  0  0  0  0  0  0
   57.3620   28.7170   44.9260 C   0  0  0  0  0  0  0  0  0  0  0  0
   57.2416   27.6325   45.0653 H   0  0  0  0  0  0  0  0  0  0  0  0
   58.4970   29.3630   45.4220 C   0  0  0  0  0  0  0  0  0  0  0  0
   59.2652   28.7872   45.9589 H   0  0  0  0  0  0  0  0  0  0  0  0
   58.6590   30.7380   45.2380 C   0  0  0  0  0  0  0  0  0  0  0  0
   59.5516   31.2415   45.6377 H   0  0  0  0  0  0  0  0  0  0  0  0
  1  2  1  0
  2  3  1  0
  3  4  2  0
  3  5  1  0
  5  6  2  0
  6  7  1  0
  7  8  2  0
  8  9  1  0
  8 10  1  0
 10 11  1  0
 10 12  2  0
 12 13  1  0
 12 14  1  0
 14 15  1  0
 14 16  2  0
 16 17  1  0
 17 18  2  0
 18 19  1  0
 19 20  1  0
 19 21  2  0
 21 22  1  0
 21 23  1  0
 23 24  1  0
 24 25  1  0
 24 26  1  0
 24 27  1  0
 23 28  1  0
 28 29  1  0
 28 30  1  0
 28 31  1  0
  2 32  2  0
 32 33  1  0
 32 34  1  0
 34 35  2  0
 35 36  1  0
 35 37  1  0
 37 38  1  0
 37 39  2  0
 39 40  1  0
 39 41  1  0
 41 42  1  0
 41 43  2  0
 43 44  1  0
 18  5  1  0
 43 34  1  0
 16  7  1  0
M  CHG  1  19   1
M  END
>  <UniqueID>  (19) 
18

>  <SMILES>  (19) 
CN(C)/C=[NH+]/c1nc2ccccc2nc1C(=O)/C=C/c1ccccc1

>  <Energy>  (19) 
58.37934337408627

>  <Genealogy>  (19) 
CN(C)C=[NH+]c1nc2ccccc2nc1C(=O)C=Cc1ccccc1 (protonated)
CN(C)/C=[NH+]/c1nc2ccccc2nc1C(=O)/C=C/c1ccccc1 (cis-trans isomerization)
CN(C)/C=[NH+]/c1nc2ccccc2nc1C(=O)/C=C/c1ccccc1 (3D coordinates assigned)
CN(C)/C=[NH+]/c1nc2ccccc2nc1C(=O)/C=C/c1ccccc1 (optimized conformer: 58.37934337408627 kcal/mol)

>  <smiles>  (19) 
CN(C)C=Nc1nc2ccccc2nc1C(=O)C=Cc1ccccc1

>  <score_type>  (19) 
oracle

>  <origin>  (19) 
adg

>  <m_score__min__energy>  (19) 
-6.3700000000000001

>  <m_primary>  (19) 
energy

$$$$
19:0
     RDKit          3D

 64 67  0  0  0  0  0  0  0  0999 V2000
   56.0240   30.5546   53.4876 H   0  0  0  0  0  0  0  0  0  0  0  0
   56.7820   30.7510   52.7150 C   0  0  0  0  0  0  0  0  0  0  0  0
   56.7750   31.9610   52.0220 C   0  0  0  0  0  0  0  0  0  0  0  0
   56.0128   32.7202   52.2517 H   0  0  0  0  0  0  0  0  0  0  0  0
   57.7340   32.2120   51.0360 C   0  0  0  0  0  0  0  0  0  0  0  0
   57.7336   33.1775   50.5089 H   0  0  0  0  0  0  0  0  0  0  0  0
   58.7010   31.2400   50.7110 C   0  0  0  0  0  0  0  0  0  0  0  0
   59.6830   31.4970   49.6860 N   0  0  0  0  0  0  0  0  0  0  0  0
   59.7690   30.8220   48.8950 H   0  0  0  0  0  0  0  0  0  0  0  0
   60.5030   32.6780   49.6490 C   0  0  0  0  0  0  0  0  0  0  0  0
   60.3360   33.6020   50.4920 O   0  0  0  0  0  0  0  0  0  0  0  0
   61.5470   32.8420   48.6210 C   0  0  0  0  0  0  0  0  0  0  0  0
   62.7060   32.0450   48.7100 C   0  0  0  0  0  0  0  0  0  0  0  0
   62.7981   31.3049   49.5185 H   0  0  0  0  0  0  0  0  0  0  0  0
   63.7390   32.1870   47.7800 C   0  0  0  0  0  0  0  0  0  0  0  0
   64.6285   31.5429   47.8432 H   0  0  0  0  0  0  0  0  0  0  0  0
   63.6420   33.1470   46.7700 C   0  0  0  0  0  0  0  0  0  0  0  0
   64.4550   33.2571   46.0372 H   0  0  0  0  0  0  0  0  0  0  0  0
   62.5150   33.9670   46.6890 C   0  0  0  0  0  0  0  0  0  0  0  0
   62.4549   34.7342   45.9030 H   0  0  0  0  0  0  0  0  0  0  0  0
   61.4590   33.8220   47.6000 C   0  0  0  0  0  0  0  0  0  0  0  0
   60.0670   34.9570   47.4370 S   0  0  0  0  0  0  0  0  0  0  0  0
   59.0540   33.8210   46.4860 C   0  0  0  0  0  0  0  0  0  0  0  0
   59.4980   32.5090   46.3000 C   0  0  0  0  0  0  0  0  0  0  0  0
   60.4747   32.1990   46.7000 H   0  0  0  0  0  0  0  0  0  0  0  0
   58.7060   31.5900   45.6080 C   0  0  0  0  0  0  0  0  0  0  0  0
   59.0762   30.5682   45.4383 H   0  0  0  0  0  0  0  0  0  0  0  0
   57.4440   31.9610   45.1290 C   0  0  0  0  0  0  0  0  0  0  0  0
   56.6250   30.9570   44.5180 N   0  0  0  0  0  0  0  0  0  0  0  0
   56.8780   29.5520   44.5900 C   0  0  0  0  0  0  0  0  0  0  0  0
   57.0020   28.8880   43.5250 O   0  0  0  0  0  0  0  0  0  0  0  0
   57.0090   28.8780   45.8520 N   0  0  0  0  0  0  0  0  0  0  0  0
   57.3930   27.6500   46.0860 C   0  0  0  0  0  0  0  0  0  0  0  0
   56.9580   26.4840   45.4710 C   0  0  0  0  0  0  0  0  0  0  0  0
   56.1965   26.3786   44.6843 H   0  0  0  0  0  0  0  0  0  0  0  0
   57.7040   25.4810   46.0760 C   0  0  0  0  0  0  0  0  0  0  0  0
   57.5570   23.9850   45.8340 C   0  0  0  0  0  0  0  0  0  0  0  0
   56.9320   23.3050   47.0700 C   0  0  0  0  0  0  0  0  0  0  0  0
   57.3457   23.7551   47.9845 H   0  0  0  0  0  0  0  0  0  0  0  0
   55.8411   23.4454   47.0533 H   0  0  0  0  0  0  0  0  0  0  0  0
   57.1636   22.2298   47.0533 H   0  0  0  0  0  0  0  0  0  0  0  0
   58.9360   23.3410   45.5630 C   0  0  0  0  0  0  0  0  0  0  0  0
   59.4278   23.1113   46.5198 H   0  0  0  0  0  0  0  0  0  0  0  0
   58.8007   22.4129   44.9882 H   0  0  0  0  0  0  0  0  0  0  0  0
   59.5608   24.0405   44.9882 H   0  0  0  0  0  0  0  0  0  0  0  0
   56.6410   23.7700   44.6160 C   0  0  0  0  0  0  0  0  0  0  0  0
   55.6238   23.5312   44.9598 H   0  0  0  0  0  0  0  0  0  0  0  0
   56.6170   24.6869   44.0088 H   0  0  0  0  0  0  0  0  0  0  0  0
   57.0275   22.9382   44.0088 H   0  0  0  0  0  0  0  0  0  0  0  0
   58.5050   26.0220   47.0220 N   0  0  0  0  0  0  0  0  0  0  0  0
   58.3120   27.3310   47.0200 N   0  0  0  0  0  0  0  0  0  0  0  0
   59.0240   28.2570   47.8940 C   0  0  0  0  0  0  0  0  0  0  0  0
   58.8242   27.9972   48.9440 H   0  0  0  0  0  0  0  0  0  0  0  0
   60.1043   28.1886   47.6985 H   0  0  0  0  0  0  0  0  0  0  0  0
   58.6803   29.2835   47.6985 H   0  0  0  0  0  0  0  0  0  0  0  0
   57.0010   33.2850   45.3060 C   0  0  0  0  0  0  0  0  0  0  0  0
   56.0110   33.5876   44.9340 H   0  0  0  0  0  0  0  0  0  0  0  0
   57.8190   34.2170   45.9550 C   0  0  0  0  0  0  0  0  0  0  0  0
   57.4917   35.2630   46.0485 H   0  0  0  0  0  0  0  0  0  0  0  0
   58.7180   30.0270   51.4350 C   0  0  0  0  0  0  0  0  0  0  0  0
   59.7210   29.0180   51.1860 C   0  0  0  0  0  0  0  0  0  0  0  0
   60.5270   28.2120   50.9770 N   0  0  0  0  0  0  0  0  0  0  0  0
   57.7530   29.7880   52.4270 C   0  0  0  0  0  0  0  0  0  0  0  0
   57.7615   28.8374   52.9804 H   0  0  0  0  0  0  0  0  0  0  0  0
  1  2  1  0
  2  3  2  0
  3  4  1  0
  3  5  1  0
  5  6  1  0
  5  7  2  0
  7  8  1  0
  8  9  1  0
  8 10  1  0
 10 11  2  0
 10 12  1  0
 12 13  2  0
 13 14  1  0
 13 15  1  0
 15 16  1  0
 15 17  2  0
 17 18  1  0
 17 19  1  0
 19 20  1  0
 19 21  2  0
 21 22  1  0
 22 23  1  0
 23 24  2  0
 24 25  1  0
 24 26  1  0
 26 27  1  0
 26 28  2  0
 28 29  1  0
 29 30  1  0
 30 31  2  0
 30 32  1  0
 32 33  2  0
 33 34  1  0
 34 35  1  0
 34 36  2  0
 36 37  1  0
 37 38  1  0
 38 39  1  0
 38 40  1  0
 38 41  1  0
 37 42  1  0
 42 43  1  0
 42 44  1  0
 42 45  1  0
 37 46  1  0
 46 47  1  0
 46 48  1  0
 46 49  1  0
 36 50  1  0
 50 51  1  0
 51 52  1  0
 52 53  1  0
 52 54  1  0
 52 55  1  0
 28 56  1  0
 56 57  1  0
 56 58  2  0
 58 59  1  0
  7 60  1  0
 60 61  1  0
 61 62  3  0
 60 63  2  0
 63 64  1  0
 63  2  1  0
 21 12  1  0
 58 23  1  0
 51 33  1  0
M  CHG  2  29  -1  50  -1
M  END
>  <UniqueID>  (20) 
19

>  <SMILES>  (20) 
Cn1[n-]c(C(C)(C)C)c/c1=N\C(=O)[N-]c1ccc(Sc2ccccc2C(=O)Nc2ccccc2C#N)cc1

>  <Energy>  (20) 
113.49985881714592

>  <Genealogy>  (20) 
Cn1[n-]c(C(C)(C)C)cc1=NC(=O)[N-]c1ccc(Sc2ccccc2C(=O)Nc2ccccc2C#N)cc1 (protonated)
Cn1[n-]c(C(C)(C)C)c/c1=N\C(=O)[N-]c1ccc(Sc2ccccc2C(=O)Nc2ccccc2C#N)cc1 (cis-trans isomerization)
Cn1[n-]c(C(C)(C)C)c/c1=N\C(=O)[N-]c1ccc(Sc2ccccc2C(=O)Nc2ccccc2C#N)cc1 (3D coordinates assigned)
Cn1[n-]c(C(C)(C)C)c/c1=N\C(=O)[N-]c1ccc(Sc2ccccc2C(=O)Nc2ccccc2C#N)cc1 (optimized conformer: 113.49985881714592 kcal/mol)

>  <smiles>  (20) 
Cn1[nH]c(C(C)(C)C)cc1=NC(=O)Nc1ccc(Sc2ccccc2C(=O)Nc2ccccc2C#N)cc1

>  <score_type>  (20) 
oracle

>  <origin>  (20) 
adg

>  <m_score__min__energy>  (20) 
-12.609999999999999

>  <m_primary>  (20) 
energy

$$$$
20:0
     RDKit          3D

 48 51  0  0  0  0  0  0  0  0999 V2000
   63.8609   34.7130   46.2323 H   0  0  0  0  0  0  0  0  0  0  0  0
   63.3550   33.8860   46.7520 C   0  0  0  0  0  0  0  0  0  0  0  0
   62.0480   33.5370   46.4030 C   0  0  0  0  0  0  0  0  0  0  0  0
   61.5222   34.0955   45.6146 H   0  0  0  0  0  0  0  0  0  0  0  0
   61.4070   32.4780   47.0550 C   0  0  0  0  0  0  0  0  0  0  0  0
   60.3712   32.2184   46.7911 H   0  0  0  0  0  0  0  0  0  0  0  0
   62.0800   31.7470   48.0430 C   0  0  0  0  0  0  0  0  0  0  0  0
   61.3870   30.6950   48.7290 N   0  0  0  0  0  0  0  0  0  0  0  0
   60.5150   29.8500   48.2490 C   0  0  0  0  0  0  0  0  0  0  0  0
   60.7390   28.5170   48.3290 N   0  0  0  0  0  0  0  0  0  0  0  0
   59.7200   27.9950   47.6340 C   0  0  0  0  0  0  0  0  0  0  0  0
   59.4420   26.6420   47.4680 C   0  0  0  0  0  0  0  0  0  0  0  0
   60.1102   25.8708   47.8788 H   0  0  0  0  0  0  0  0  0  0  0  0
   58.2840   26.2930   46.7610 C   0  0  0  0  0  0  0  0  0  0  0  0
   58.0183   25.2329   46.6363 H   0  0  0  0  0  0  0  0  0  0  0  0
   57.4580   27.2910   46.2090 C   0  0  0  0  0  0  0  0  0  0  0  0
   56.5569   26.9997   45.6494 H   0  0  0  0  0  0  0  0  0  0  0  0
   57.7690   28.6620   46.3630 C   0  0  0  0  0  0  0  0  0  0  0  0
   57.0170   29.6510   45.5640 C   0  0  0  0  0  0  0  0  0  0  0  0
   57.5640   30.7340   45.2270 O   0  0  0  0  0  0  0  0  0  0  0  0
   55.7130   29.3210   45.0720 N   0  0  0  0  0  0  0  0  0  0  0  0
   55.2030   29.7380   43.7700 C   0  0  0  0  0  0  0  0  0  0  0  0
   54.7880   30.7532   43.8552 H   0  0  0  0  0  0  0  0  0  0  0  0
   54.4248   29.0268   43.4559 H   0  0  0  0  0  0  0  0  0  0  0  0
   56.3080   29.7390   42.7220 C   0  0  0  0  0  0  0  0  0  0  0  0
   57.2877   29.7399   43.2222 H   0  0  0  0  0  0  0  0  0  0  0  0
   56.2180   28.8408   42.0934 H   0  0  0  0  0  0  0  0  0  0  0  0
   56.2164   30.6371   42.0934 H   0  0  0  0  0  0  0  0  0  0  0  0
   58.9100   28.9820   47.1360 C   0  0  0  0  0  0  0  0  0  0  0  0
   59.3570   30.1820   47.5900 N   0  0  0  0  0  0  0  0  0  0  0  0
   58.5180   31.3710   47.8560 C   0  0  0  0  0  0  0  0  0  0  0  0
   58.7445   32.1399   47.1027 H   0  0  0  0  0  0  0  0  0  0  0  0
   57.4645   31.0587   47.8055 H   0  0  0  0  0  0  0  0  0  0  0  0
   58.7650   31.9490   49.2310 C   0  0  0  0  0  0  0  0  0  0  0  0
   59.3530   33.2180   49.3820 C   0  0  0  0  0  0  0  0  0  0  0  0
   59.6553   33.7905   48.4927 H   0  0  0  0  0  0  0  0  0  0  0  0
   59.5550   33.7550   50.6570 C   0  0  0  0  0  0  0  0  0  0  0  0
   60.0359   34.7380   50.7690 H   0  0  0  0  0  0  0  0  0  0  0  0
   59.1470   33.0450   51.7890 C   0  0  0  0  0  0  0  0  0  0  0  0
   59.4010   33.7200   53.3890 Cl  0  0  0  0  0  0  0  0  0  0  0  0
   58.5250   31.8020   51.6450 C   0  0  0  0  0  0  0  0  0  0  0  0
   58.1937   31.2475   52.5354 H   0  0  0  0  0  0  0  0  0  0  0  0
   58.3230   31.2620   50.3720 C   0  0  0  0  0  0  0  0  0  0  0  0
   57.8145   30.2926   50.2637 H   0  0  0  0  0  0  0  0  0  0  0  0
   63.3820   32.1260   48.4160 C   0  0  0  0  0  0  0  0  0  0  0  0
   63.8995   31.5886   49.2243 H   0  0  0  0  0  0  0  0  0  0  0  0
   64.0200   33.1840   47.7620 C   0  0  0  0  0  0  0  0  0  0  0  0
   65.0461   33.4645   48.0422 H   0  0  0  0  0  0  0  0  0  0  0  0
  1  2  1  0
  2  3  2  0
  3  4  1  0
  3  5  1  0
  5  6  1  0
  5  7  2  0
  7  8  1  0
  8  9  2  0
  9 10  1  0
 10 11  1  0
 11 12  2  0
 12 13  1  0
 12 14  1  0
 14 15  1  0
 14 16  2  0
 16 17  1  0
 16 18  1  0
 18 19  1  0
 19 20  2  0
 19 21  1  0
 21 22  1  0
 22 23  1  0
 22 24  1  0
 22 25  1  0
 25 26  1  0
 25 27  1  0
 25 28  1  0
 18 29  2  0
 29 30  1  0
 30 31  1  0
 31 32  1  0
 31 33  1  0
 31 34  1  0
 34 35  2  0
 35 36  1  0
 35 37  1  0
 37 38  1  0
 37 39  2  0
 39 40  1  0
 39 41  1  0
 41 42  1  0
 41 43  2  0
 43 44  1  0
  7 45  1  0
 45 46  1  0
 45 47  2  0
 47 48  1  0
 47  2  1  0
 30  9  1  0
 43 34  1  0
 29 11  1  0
M  CHG  2  10  -1  21  -1
M  END
>  <UniqueID>  (21) 
20

>  <SMILES>  (21) 
CC[N-]C(=O)c1cccc2[n-]/c(=N/c3ccccc3)n(Cc3ccc(Cl)cc3)c12

>  <Energy>  (21) 
108.17142636454977

>  <Genealogy>  (21) 
CC[N-]C(=O)c1cccc2[n-]c(=Nc3ccccc3)n(Cc3ccc(Cl)cc3)c12 (protonated)
CC[N-]C(=O)c1cccc2[n-]/c(=N/c3ccccc3)n(Cc3ccc(Cl)cc3)c12 (cis-trans isomerization)
CC[N-]C(=O)c1cccc2[n-]/c(=N/c3ccccc3)n(Cc3ccc(Cl)cc3)c12 (3D coordinates assigned)
CC[N-]C(=O)c1cccc2[n-]/c(=N/c3ccccc3)n(Cc3ccc(Cl)cc3)c12 (optimized conformer: 108.17142636454977 kcal/mol)

>  <smiles>  (21) 
CCNC(=O)c1cccc2[nH]c(=Nc3ccccc3)n(Cc3ccc(Cl)cc3)c12

>  <score_type>  (21) 
oracle

>  <origin>  (21) 
adg

>  <m_score__min__energy>  (21) 
-11

>  <m_primary>  (21) 
energy

$$$$
21:0
     RDKit          3D

 29 31  0  0  1  0  0  0  0  0999 V2000
   55.1520   29.7460   44.8660 O   0  0  0  0  0  0  0  0  0  0  0  0
   56.3510   29.3760   44.5590 C   0  0  0  0  0  0  0  0  0  0  0  0
   56.6620   29.4350   43.1300 C   0  0  0  0  0  0  0  0  0  0  0  0
   56.9390   31.1600   42.5850 S   0  0  0  0  0  0  0  0  0  0  0  0
   57.6590   32.1380   43.8920 C   0  0  0  0  0  0  0  0  0  0  0  0
   58.5420   33.1710   43.7920 N   0  0  0  0  0  0  0  0  0  0  0  0
   58.8030   33.5950   45.0570 C   0  0  0  0  0  0  0  0  0  0  0  0
   59.5940   34.5800   45.6090 C   0  0  0  0  0  0  0  0  0  0  0  0
   59.6560   34.7820   46.9910 C   0  0  0  0  0  0  0  0  0  0  0  0
   58.9090   33.9800   47.8440 C   0  0  0  0  0  0  0  0  0  0  0  0
   58.1050   32.9810   47.3050 C   0  0  0  0  0  0  0  0  0  0  0  0
   58.0760   32.8200   45.9330 C   0  0  0  0  0  0  0  0  0  0  0  0
   57.3720   31.9210   45.1990 N   0  0  0  0  0  0  0  0  0  0  0  0
   57.1440   28.9920   45.6280 N   0  0  0  0  0  0  0  0  0  0  0  0
   58.3240   29.2120   45.9050 C   0  0  0  0  0  0  0  0  0  0  0  0
   59.3940   29.3440   45.1600 N   0  0  0  0  0  0  0  0  0  0  0  0
   60.5650   29.5740   45.6680 C   0  0  0  0  0  0  0  0  0  0  0  0
   60.7390   29.6900   47.0180 C   0  0  0  0  0  0  0  0  0  0  0  0
   58.9690   29.4330   47.6510 S   0  0  0  0  0  0  0  0  0  0  0  0
   57.5710   28.8468   42.9358 H   0  0  0  0  0  0  0  0  0  0  0  0
   55.8085   29.0251   42.5701 H   0  0  0  0  0  0  0  0  0  0  0  0
   60.1912   35.2229   44.9456 H   0  0  0  0  0  0  0  0  0  0  0  0
   60.2963   35.5760   47.4027 H   0  0  0  0  0  0  0  0  0  0  0  0
   58.9526   34.1329   48.9325 H   0  0  0  0  0  0  0  0  0  0  0  0
   57.5039   32.3317   47.9585 H   0  0  0  0  0  0  0  0  0  0  0  0
   56.7140   31.1860   45.5730 H   0  0  0  0  0  0  0  0  0  0  0  0
   59.2770   29.2510   44.0790 H   0  0  0  0  0  0  0  0  0  0  0  0
   61.4330   29.6774   45.0003 H   0  0  0  0  0  0  0  0  0  0  0  0
   61.6607   29.8816   47.5870 H   0  0  0  0  0  0  0  0  0  0  0  0
  1  2  2  0
  2  3  1  0
  3  4  1  0
  4  5  1  0
  5  6  2  0
  6  7  1  0
  7  8  2  0
  8  9  1  0
  9 10  2  0
 10 11  1  0
 11 12  2  0
 12 13  1  0
  2 14  1  0
 14 15  2  0
 15 16  1  0
 16 17  1  0
 17 18  2  0
 18 19  1  0
 13  5  1  0
 19 15  1  0
 12  7  1  0
  3 20  1  0
  3 21  1  0
  8 22  1  0
  9 23  1  0
 10 24  1  0
 11 25  1  0
 13 26  1  0
 16 27  1  0
 17 28  1  0
 18 29  1  0
M  END
>  <smiles>  (22) 
O=C(CSc1nc2ccccc2[nH]1)N=c1[nH]ccs1

>  <score_type>  (22) 
oracle

>  <origin>  (22) 
adg

>  <m_score__min__energy>  (22) 
-7.4699999999999998

>  <m_primary>  (22) 
energy

$$$$
22:0
     RDKit          3D

 46 48  0  0  0  0  0  0  0  0999 V2000
   57.8310   31.9360   42.6840 C   0  0  0  0  0  0  0  0  0  0  0  0
   57.9880   32.5730   44.0390 C   0  0  0  0  0  0  0  0  0  0  0  0
   58.6040   33.8330   44.1290 C   0  0  0  0  0  0  0  0  0  0  0  0
   58.8090   34.4360   45.3720 C   0  0  0  0  0  0  0  0  0  0  0  0
   58.4010   33.7890   46.5390 C   0  0  0  0  0  0  0  0  0  0  0  0
   57.7690   32.5460   46.4650 C   0  0  0  0  0  0  0  0  0  0  0  0
   57.5260   31.9450   45.2240 C   0  0  0  0  0  0  0  0  0  0  0  0
   56.8580   30.6780   45.2000 N   0  0  0  0  0  0  0  0  0  0  0  0
   57.4000   29.4590   45.7240 C   0  0  0  0  0  0  0  0  0  0  0  0
   58.2770   29.5270   46.6240 O   0  0  0  0  0  0  0  0  0  0  0  0
   56.9500   28.1840   45.2340 N   0  0  0  0  0  0  0  0  0  0  0  0
   57.5520   26.9320   45.5970 C   0  0  0  0  0  0  0  0  0  0  0  0
   58.9470   26.7700   45.6290 C   0  0  0  0  0  0  0  0  0  0  0  0
   59.5050   25.5390   45.9860 C   0  0  0  0  0  0  0  0  0  0  0  0
   58.6780   24.4650   46.3190 C   0  0  0  0  0  0  0  0  0  0  0  0
   57.2850   24.6180   46.3080 C   0  0  0  0  0  0  0  0  0  0  0  0
   56.2380   23.2560   46.7050 S   0  0  0  0  0  0  0  0  0  0  0  0
   55.0730   23.7500   47.5190 O   0  0  0  0  0  0  0  0  0  0  0  0
   57.0090   22.2840   47.5540 O   0  0  0  0  0  0  0  0  0  0  0  0
   55.6440   22.4280   45.2800 N   0  0  0  0  0  0  0  0  0  0  0  0
   55.4120   23.3450   44.1470 C   0  0  0  0  0  0  0  0  0  0  0  0
   56.6960   23.6570   43.3430 C   0  0  0  0  0  0  0  0  0  0  0  0
   57.8010   22.8610   43.7240 O   0  0  0  0  0  0  0  0  0  0  0  0
   57.4190   21.5060   43.7570 C   0  0  0  0  0  0  0  0  0  0  0  0
   56.4570   21.2450   44.9260 C   0  0  0  0  0  0  0  0  0  0  0  0
   56.7290   25.8590   45.9670 C   0  0  0  0  0  0  0  0  0  0  0  0
   57.5694   30.8745   42.8059 H   0  0  0  0  0  0  0  0  0  0  0  0
   57.0324   32.4489   42.1280 H   0  0  0  0  0  0  0  0  0  0  0  0
   58.7765   32.0191   42.1280 H   0  0  0  0  0  0  0  0  0  0  0  0
   58.9274   34.3486   43.2127 H   0  0  0  0  0  0  0  0  0  0  0  0
   59.2927   35.4222   45.4311 H   0  0  0  0  0  0  0  0  0  0  0  0
   58.5773   34.2585   47.5180 H   0  0  0  0  0  0  0  0  0  0  0  0
   57.4597   32.0351   47.3888 H   0  0  0  0  0  0  0  0  0  0  0  0
   56.2440   28.1690   44.4640 H   0  0  0  0  0  0  0  0  0  0  0  0
   59.6028   27.6150   45.3722 H   0  0  0  0  0  0  0  0  0  0  0  0
   60.5980   25.4165   46.0045 H   0  0  0  0  0  0  0  0  0  0  0  0
   59.1210   23.4956   46.5909 H   0  0  0  0  0  0  0  0  0  0  0  0
   54.6782   22.8845   43.4691 H   0  0  0  0  0  0  0  0  0  0  0  0
   55.0488   24.2955   44.5648 H   0  0  0  0  0  0  0  0  0  0  0  0
   56.4912   23.4827   42.2764 H   0  0  0  0  0  0  0  0  0  0  0  0
   56.9625   24.7044   43.5477 H   0  0  0  0  0  0  0  0  0  0  0  0
   56.9184   21.2482   42.8121 H   0  0  0  0  0  0  0  0  0  0  0  0
   58.3181   20.8867   43.8919 H   0  0  0  0  0  0  0  0  0  0  0  0
   55.7794   20.4250   44.6460 H   0  0  0  0  0  0  0  0  0  0  0  0
   57.0681   20.9907   45.8046 H   0  0  0  0  0  0  0  0  0  0  0  0
   55.6373   25.9920   45.9900 H   0  0  0  0  0  0  0  0  0  0  0  0
  1  2  1  0
  2  3  2  0
  3  4  1  0
  4  5  2  0
  5  6  1  0
  6  7  2  0
  7  8  1  0
  8  9  1  0
  9 10  2  0
  9 11  1  0
 11 12  1  0
 12 13  2  0
 13 14  1  0
 14 15  2  0
 15 16  1  0
 16 17  1  0
 17 18  2  0
 17 19  2  0
 17 20  1  0
 20 21  1  0
 21 22  1  0
 22 23  1  0
 23 24  1  0
 24 25  1  0
 16 26  2  0
  7  2  1  0
 26 12  1  0
 25 20  1  0
  1 27  1  0
  1 28  1  0
  1 29  1  0
  3 30  1  0
  4 31  1  0
  5 32  1  0
  6 33  1  0
 11 34  1  0
 13 35  1  0
 14 36  1  0
 15 37  1  0
 21 38  1  0
 21 39  1  0
 22 40  1  0
 22 41  1  0
 24 42  1  0
 24 43  1  0
 25 44  1  0
 25 45  1  0
 26 46  1  0
M  CHG  1   8  -1
M  END
>  <UniqueID>  (23) 
21

>  <SMILES>  (23) 
Cc1ccccc1[N-]C(=O)Nc1cccc(S(=O)(=O)N2CCOCC2)c1

>  <Energy>  (23) 
67.38772622148599

>  <Genealogy>  (23) 
Cc1ccccc1[N-]C(=O)Nc1cccc(S(=O)(=O)N2CCOCC2)c1 (protonated)
Cc1ccccc1[N-]C(=O)Nc1cccc(S(=O)(=O)N2CCOCC2)c1 (3D coordinates assigned)
Cc1ccccc1[N-]C(=O)Nc1cccc(S(=O)(=O)N2CCOCC2)c1 (nonaromatic ring conformer: 67.38772622148599 kcal/mol)

>  <smiles>  (23) 
Cc1ccccc1NC(=O)Nc1cccc(S(=O)(=O)N2CCOCC2)c1

>  <score_type>  (23) 
oracle

>  <origin>  (23) 
adg

>  <m_score__min__energy>  (23) 
-10.91

>  <m_primary>  (23) 
energy

$$$$
23:0
     RDKit          3D

 41 43  0  0  0  0  0  0  0  0999 V2000
   58.4770   21.7430   45.2980 H   0  0  0  0  0  0  0  0  0  0  0  0
   58.4960   22.5270   45.9390 O   0  0  0  0  0  0  0  0  0  0  0  0
   57.4890   23.4920   45.9480 C   0  0  0  0  0  0  0  0  0  0  0  0
   56.1580   23.1000   45.7370 C   0  0  0  0  0  0  0  0  0  0  0  0
   55.9221   22.0395   45.5648 H   0  0  0  0  0  0  0  0  0  0  0  0
   55.1320   24.0450   45.7440 C   0  0  0  0  0  0  0  0  0  0  0  0
   54.0919   23.7276   45.5782 H   0  0  0  0  0  0  0  0  0  0  0  0
   55.4230   25.3920   45.9610 C   0  0  0  0  0  0  0  0  0  0  0  0
   54.3990   26.3320   45.9670 O   0  0  0  0  0  0  0  0  0  0  0  0
   56.7440   25.7970   46.1720 C   0  0  0  0  0  0  0  0  0  0  0  0
   56.9666   26.8606   46.3429 H   0  0  0  0  0  0  0  0  0  0  0  0
   57.7920   24.8580   46.1680 C   0  0  0  0  0  0  0  0  0  0  0  0
   59.1720   25.3490   46.3980 C   0  0  0  0  0  0  0  0  0  0  0  0
   59.8000   24.8546   47.1538 H   0  0  0  0  0  0  0  0  0  0  0  0
   59.6560   26.3510   45.7260 N   0  0  0  0  0  0  0  0  0  0  0  0
   59.6800   27.7280   46.1400 C   0  0  0  0  0  0  0  0  0  0  0  0
   60.7000   28.5480   45.6440 C   0  0  0  0  0  0  0  0  0  0  0  0
   61.4468   28.1297   44.9532 H   0  0  0  0  0  0  0  0  0  0  0  0
   60.7800   29.8930   46.0170 C   0  0  0  0  0  0  0  0  0  0  0  0
   61.5882   30.5242   45.6190 H   0  0  0  0  0  0  0  0  0  0  0  0
   59.8340   30.4420   46.8970 C   0  0  0  0  0  0  0  0  0  0  0  0
   59.9180   31.8630   47.3080 C   0  0  0  0  0  0  0  0  0  0  0  0
   60.2050   32.1360   48.5060 O   0  0  0  0  0  0  0  0  0  0  0  0
   59.6690   32.9360   46.3790 N   0  0  0  0  0  0  0  0  0  0  0  0
   58.6780   32.8070   45.3050 C   0  0  0  0  0  0  0  0  0  0  0  0
   59.1897   32.5696   44.3606 H   0  0  0  0  0  0  0  0  0  0  0  0
   57.9721   32.0005   45.5526 H   0  0  0  0  0  0  0  0  0  0  0  0
   57.9140   34.1250   45.1540 C   0  0  0  0  0  0  0  0  0  0  0  0
   57.2633   34.0657   44.2691 H   0  0  0  0  0  0  0  0  0  0  0  0
   57.3125   34.2907   46.0600 H   0  0  0  0  0  0  0  0  0  0  0  0
   58.8120   35.2100   44.9990 O   0  0  0  0  0  0  0  0  0  0  0  0
   59.5740   35.3750   46.1790 C   0  0  0  0  0  0  0  0  0  0  0  0
   60.2002   36.2740   46.0807 H   0  0  0  0  0  0  0  0  0  0  0  0
   58.8855   35.4778   47.0307 H   0  0  0  0  0  0  0  0  0  0  0  0
   60.4760   34.1590   46.4220 C   0  0  0  0  0  0  0  0  0  0  0  0
   61.2503   34.1150   45.6419 H   0  0  0  0  0  0  0  0  0  0  0  0
   60.9543   34.2484   47.4085 H   0  0  0  0  0  0  0  0  0  0  0  0
   58.8300   29.6140   47.4240 C   0  0  0  0  0  0  0  0  0  0  0  0
   58.1010   30.0261   48.1373 H   0  0  0  0  0  0  0  0  0  0  0  0
   58.7500   28.2700   47.0490 C   0  0  0  0  0  0  0  0  0  0  0  0
   57.9567   27.6320   47.4658 H   0  0  0  0  0  0  0  0  0  0  0  0
  1  2  1  0
  2  3  1  0
  3  4  2  0
  4  5  1  0
  4  6  1  0
  6  7  1  0
  6  8  2  0
  8  9  1  0
  8 10  1  0
 10 11  1  0
 10 12  2  0
 12 13  1  0
 13 14  1  0
 13 15  2  0
 15 16  1  0
 16 17  2  0
 17 18  1  0
 17 19  1  0
 19 20  1  0
 19 21  2  0
 21 22  1  0
 22 23  2  0
 22 24  1  0
 24 25  1  0
 25 26  1  0
 25 27  1  0
 25 28  1  0
 28 29  1  0
 28 30  1  0
 28 31  1  0
 31 32  1  0
 32 33  1  0
 32 34  1  0
 32 35  1  0
 35 36  1  0
 35 37  1  0
 21 38  1  0
 38 39  1  0
 38 40  2  0
 40 41  1  0
 12  3  1  0
 40 16  1  0
 35 24  1  0
M  CHG  1   9  -1
M  END
>  <UniqueID>  (24) 
22

>  <SMILES>  (24) 
O=C(c1ccc(/N=C/c2cc([O-])ccc2O)cc1)N1CCOCC1

>  <Energy>  (24) 
53.644998596239276

>  <Genealogy>  (24) 
O=C(c1ccc(N=Cc2cc([O-])ccc2O)cc1)N1CCOCC1 (protonated)
O=C(c1ccc(/N=C/c2cc([O-])ccc2O)cc1)N1CCOCC1 (cis-trans isomerization)
O=C(c1ccc(/N=C/c2cc([O-])ccc2O)cc1)N1CCOCC1 (3D coordinates assigned)
O=C(c1ccc(/N=C/c2cc([O-])ccc2O)cc1)N1CCOCC1 (nonaromatic ring conformer: 53.644998596239276 kcal/mol)

>  <smiles>  (24) 
O=C(c1ccc(N=Cc2cc(O)ccc2O)cc1)N1CCOCC1

>  <score_type>  (24) 
oracle

>  <origin>  (24) 
adg

>  <m_score__min__energy>  (24) 
-11.01

>  <m_primary>  (24) 
energy

$$$$
24:0
     RDKit          3D

 34 35  0  0  0  0  0  0  0  0999 V2000
   60.0090   29.4190   45.3860 C   0  0  0  0  0  0  0  0  0  0  0  0
   58.7910   29.6430   45.8860 C   0  0  0  0  0  0  0  0  0  0  0  0
   58.5300   30.7220   46.9000 C   0  0  0  0  0  0  0  0  0  0  0  0
   58.4710   32.0330   46.2390 N   0  0  0  0  0  0  0  0  0  0  0  0
   57.4810   32.3270   45.2600 C   0  0  0  0  0  0  0  0  0  0  0  0
   56.6420   31.4670   44.8790 O   0  0  0  0  0  0  0  0  0  0  0  0
   57.4660   33.7020   44.7310 C   0  0  0  0  0  0  0  0  0  0  0  0
   58.9400   34.5260   45.3990 S   0  0  0  0  0  0  0  0  0  0  0  0
   59.3120   33.1820   46.6120 C   0  0  0  0  0  0  0  0  0  0  0  0
   60.8090   32.7870   46.4550 C   0  0  0  0  0  0  0  0  0  0  0  0
   61.8400   33.8100   46.9720 C   0  0  0  0  0  0  0  0  0  0  0  0
   61.7330   34.1710   48.4610 C   0  0  0  0  0  0  0  0  0  0  0  0
   61.1000   33.0750   49.3370 C   0  0  0  0  0  0  0  0  0  0  0  0
   59.5650   32.9200   49.2220 C   0  0  0  0  0  0  0  0  0  0  0  0
   58.9130   33.6750   48.0450 C   0  0  0  0  0  0  0  0  0  0  0  0
   60.1611   28.6200   44.6454 H   0  0  0  0  0  0  0  0  0  0  0  0
   60.8601   30.0335   45.7148 H   0  0  0  0  0  0  0  0  0  0  0  0
   57.9522   29.0183   45.5452 H   0  0  0  0  0  0  0  0  0  0  0  0
   57.5717   30.5246   47.4027 H   0  0  0  0  0  0  0  0  0  0  0  0
   59.3458   30.7274   47.6379 H   0  0  0  0  0  0  0  0  0  0  0  0
   57.5041   33.6869   43.6318 H   0  0  0  0  0  0  0  0  0  0  0  0
   56.5470   34.2312   45.0233 H   0  0  0  0  0  0  0  0  0  0  0  0
   60.9669   31.8456   47.0016 H   0  0  0  0  0  0  0  0  0  0  0  0
   60.9828   32.7155   45.3712 H   0  0  0  0  0  0  0  0  0  0  0  0
   62.8439   33.3961   46.7962 H   0  0  0  0  0  0  0  0  0  0  0  0
   61.6384   34.7416   46.4230 H   0  0  0  0  0  0  0  0  0  0  0  0
   62.7459   34.3720   48.8399 H   0  0  0  0  0  0  0  0  0  0  0  0
   61.0697   35.0462   48.5250 H   0  0  0  0  0  0  0  0  0  0  0  0
   61.5575   32.1144   49.0578 H   0  0  0  0  0  0  0  0  0  0  0  0
   61.2913   33.3780   50.3770 H   0  0  0  0  0  0  0  0  0  0  0  0
   59.3391   31.8497   49.1062 H   0  0  0  0  0  0  0  0  0  0  0  0
   59.1449   33.3622   50.1374 H   0  0  0  0  0  0  0  0  0  0  0  0
   57.8219   33.5762   48.1440 H   0  0  0  0  0  0  0  0  0  0  0  0
   59.2776   34.7104   48.1164 H   0  0  0  0  0  0  0  0  0  0  0  0
  1  2  2  0
  2  3  1  0
  3  4  1  0
  4  5  1  0
  5  6  2  0
  5  7  1  0
  7  8  1  0
  8  9  1  0
  9 10  1  0
 10 11  1  0
 11 12  1  0
 12 13  1  0
 13 14  1  0
 14 15  1  0
  9  4  1  0
 15  9  1  0
  1 16  1  0
  1 17  1  0
  2 18  1  0
  3 19  1  0
  3 20  1  0
  7 21  1  0
  7 22  1  0
 10 23  1  0
 10 24  1  0
 11 25  1  0
 11 26  1  0
 12 27  1  0
 12 28  1  0
 13 29  1  0
 13 30  1  0
 14 31  1  0
 14 32  1  0
 15 33  1  0
 15 34  1  0
M  END
>  <UniqueID>  (25) 
23

>  <SMILES>  (25) 
C=CCN1C(=O)CSC12CCCCCC2

>  <Energy>  (25) 
36.9634032984309

>  <Genealogy>  (25) 
C=CCN1C(=O)CSC12CCCCCC2 (3D coordinates assigned)
C=CCN1C(=O)CSC12CCCCCC2 (nonaromatic ring conformer: 36.9634032984309 kcal/mol)

>  <smiles>  (25) 
C=CCN1C(=O)CSC12CCCCCC2

>  <score_type>  (25) 
oracle

>  <origin>  (25) 
adg

>  <m_score__min__energy>  (25) 
-4.0999999999999996

>  <m_primary>  (25) 
energy

$$$$
25:0
     RDKit          3D

 28 30  0  0  0  0  0  0  0  0999 V2000
   58.1243   27.5572   42.7277 H   0  0  0  0  0  0  0  0  0  0  0  0
   57.7560   28.1060   43.6070 C   0  0  0  0  0  0  0  0  0  0  0  0
   57.0990   29.2140   43.4050 N   0  0  0  0  0  0  0  0  0  0  0  0
   57.3650   30.5010   43.9800 C   0  0  0  0  0  0  0  0  0  0  0  0
   56.9680   30.8700   45.2290 N   0  0  0  0  0  0  0  0  0  0  0  0
   57.4940   32.1010   45.3510 C   0  0  0  0  0  0  0  0  0  0  0  0
   57.3980   32.9650   46.4390 C   0  0  0  0  0  0  0  0  0  0  0  0
   56.8359   32.6835   47.3416 H   0  0  0  0  0  0  0  0  0  0  0  0
   58.0460   34.2120   46.3430 C   0  0  0  0  0  0  0  0  0  0  0  0
   57.9912   34.9221   47.1813 H   0  0  0  0  0  0  0  0  0  0  0  0
   58.7660   34.5570   45.1770 C   0  0  0  0  0  0  0  0  0  0  0  0
   59.2676   35.5340   45.1140 H   0  0  0  0  0  0  0  0  0  0  0  0
   58.8460   33.6590   44.0950 C   0  0  0  0  0  0  0  0  0  0  0  0
   59.4045   33.9128   43.1819 H   0  0  0  0  0  0  0  0  0  0  0  0
   58.1900   32.4360   44.2260 C   0  0  0  0  0  0  0  0  0  0  0  0
   58.1260   31.4280   43.3490 N   0  0  0  0  0  0  0  0  0  0  0  0
   58.5630   31.3660   42.4030 H   0  0  0  0  0  0  0  0  0  0  0  0
   58.0370   27.5410   44.9450 C   0  0  0  0  0  0  0  0  0  0  0  0
   57.1400   26.6260   45.5250 C   0  0  0  0  0  0  0  0  0  0  0  0
   56.2148   26.3558   44.9949 H   0  0  0  0  0  0  0  0  0  0  0  0
   57.4180   26.0590   46.7700 C   0  0  0  0  0  0  0  0  0  0  0  0
   56.7048   25.3553   47.2241 H   0  0  0  0  0  0  0  0  0  0  0  0
   58.5990   26.3830   47.4400 C   0  0  0  0  0  0  0  0  0  0  0  0
   58.8124   25.9399   48.4239 H   0  0  0  0  0  0  0  0  0  0  0  0
   59.5100   27.2700   46.8610 C   0  0  0  0  0  0  0  0  0  0  0  0
   60.4434   27.5178   47.3877 H   0  0  0  0  0  0  0  0  0  0  0  0
   59.2400   27.8450   45.6130 C   0  0  0  0  0  0  0  0  0  0  0  0
   60.4150   28.9630   44.9270 Cl  0  0  0  0  0  0  0  0  0  0  0  0
  1  2  1  0
  2  3  2  0
  3  4  1  0
  4  5  2  0
  5  6  1  0
  6  7  2  0
  7  8  1  0
  7  9  1  0
  9 10  1  0
  9 11  2  0
 11 12  1  0
 11 13  1  0
 13 14  1  0
 13 15  2  0
 15 16  1  0
 16 17  1  0
  2 18  1  0
 18 19  2  0
 19 20  1  0
 19 21  1  0
 21 22  1  0
 21 23  2  0
 23 24  1  0
 23 25  1  0
 25 26  1  0
 25 27  2  0
 27 28  1  0
 16  4  1  0
 27 18  1  0
 15  6  1  0
M  END
>  <UniqueID>  (26) 
24

>  <SMILES>  (26) 
Clc1ccccc1/C=N\c1nc2ccccc2[nH]1

>  <Energy>  (26) 
77.32160283102886

>  <Genealogy>  (26) 
Clc1ccccc1/C=N\c1nc2ccccc2[nH]1 (cis-trans isomerization)
Clc1ccccc1/C=N\c1nc2ccccc2[nH]1 (3D coordinates assigned)
Clc1ccccc1/C=N\c1nc2ccccc2[nH]1 (optimized conformer: 77.32160283102886 kcal/mol)

>  <smiles>  (26) 
Clc1ccccc1C=Nc1nc2ccccc2[nH]1

>  <score_type>  (26) 
oracle

>  <origin>  (26) 
adg

>  <m_score__min__energy>  (26) 
-7.0199999999999996

>  <m_primary>  (26) 
energy

$$$$
26:0
     RDKit          3D

 53 57  0  0  0  0  0  0  0  0999 V2000
   52.8160   24.7960   45.3990 O   0  0  0  0  0  0  0  0  0  0  0  0
   54.0300   25.0440   45.6170 C   0  0  0  0  0  0  0  0  0  0  0  0
   54.4050   26.3270   45.9890 O   0  0  0  0  0  0  0  0  0  0  0  0
   55.0580   23.9530   45.4980 C   0  0  2  0  0  0  0  0  0  0  0  0
   54.4590   22.5940   45.8890 C   0  0  0  0  0  0  0  0  0  0  0  0
   54.9740   22.0980   47.2080 C   0  0  0  0  0  0  0  0  0  0  0  0
   54.1700   21.7730   48.3100 C   0  0  0  0  0  0  0  0  0  0  0  0
   55.0640   21.5580   49.3330 C   0  0  0  0  0  0  0  0  0  0  0  0
   54.8390   21.3430   50.6510 N   0  0  0  0  0  0  0  0  0  0  0  0
   55.9170   21.2870   51.4890 C   0  0  0  0  0  0  0  0  0  0  0  0
   57.2240   21.4600   50.9750 C   0  0  0  0  0  0  0  0  0  0  0  0
   57.4090   21.7000   49.6390 N   0  0  0  0  0  0  0  0  0  0  0  0
   56.3190   21.7380   48.8370 C   0  0  0  0  0  0  0  0  0  0  0  0
   56.2910   22.0680   47.5330 N   0  0  0  0  0  0  0  0  0  0  0  0
   56.2390   24.2260   46.3270 N   0  0  0  0  0  0  0  0  0  0  0  0
   57.6650   24.5490   45.3780 S   0  0  0  0  0  0  0  0  0  0  0  0
   58.8540   23.9120   46.0420 O   0  0  0  0  0  0  0  0  0  0  0  0
   57.5200   23.9840   43.9920 O   0  0  0  0  0  0  0  0  0  0  0  0
   57.9170   26.2890   45.3090 C   0  0  0  0  0  0  0  0  0  0  0  0
   57.9380   27.0320   46.4950 C   0  0  0  0  0  0  0  0  0  0  0  0
   58.1080   28.4170   46.4550 C   0  0  0  0  0  0  0  0  0  0  0  0
   58.2630   29.0820   45.2270 C   0  0  0  0  0  0  0  0  0  0  0  0
   58.4120   30.5570   45.1870 C   0  0  0  0  0  0  0  0  0  0  0  0
   57.9220   31.2950   44.0950 C   0  0  0  0  0  0  0  0  0  0  0  0
   58.0980   32.6810   44.0320 C   0  0  0  0  0  0  0  0  0  0  0  0
   58.7690   33.3540   45.0590 C   0  0  0  0  0  0  0  0  0  0  0  0
   58.9720   34.7430   44.9930 C   0  0  0  0  0  0  0  0  0  0  0  0
   59.6500   35.4050   46.0230 C   0  0  0  0  0  0  0  0  0  0  0  0
   60.1230   34.6880   47.1250 C   0  0  0  0  0  0  0  0  0  0  0  0
   59.9250   33.3040   47.2030 C   0  0  0  0  0  0  0  0  0  0  0  0
   59.2520   32.6270   46.1710 C   0  0  0  0  0  0  0  0  0  0  0  0
   59.0690   31.2360   46.2280 C   0  0  0  0  0  0  0  0  0  0  0  0
   58.2530   28.3260   44.0410 C   0  0  0  0  0  0  0  0  0  0  0  0
   58.0840   26.9400   44.0820 C   0  0  0  0  0  0  0  0  0  0  0  0
   55.3739   23.9219   44.4448 H   0  0  0  0  0  0  0  0  0  0  0  0
   53.3655   22.6955   45.9527 H   0  0  0  0  0  0  0  0  0  0  0  0
   54.7530   21.8650   45.1195 H   0  0  0  0  0  0  0  0  0  0  0  0
   53.0727   21.7053   48.3478 H   0  0  0  0  0  0  0  0  0  0  0  0
   53.8680   21.2450   51.0230 H   0  0  0  0  0  0  0  0  0  0  0  0
   55.7686   21.1073   52.5640 H   0  0  0  0  0  0  0  0  0  0  0  0
   58.0918   21.4017   51.6485 H   0  0  0  0  0  0  0  0  0  0  0  0
   57.1040   22.3200   46.9260 H   0  0  0  0  0  0  0  0  0  0  0  0
   57.8200   26.5224   47.4627 H   0  0  0  0  0  0  0  0  0  0  0  0
   58.1207   28.9924   47.3924 H   0  0  0  0  0  0  0  0  0  0  0  0
   57.3943   30.7763   43.2811 H   0  0  0  0  0  0  0  0  0  0  0  0
   57.7074   33.2443   43.1717 H   0  0  0  0  0  0  0  0  0  0  0  0
   58.5969   35.3116   44.1293 H   0  0  0  0  0  0  0  0  0  0  0  0
   59.8108   36.4916   45.9648 H   0  0  0  0  0  0  0  0  0  0  0  0
   60.6527   35.2125   47.9340 H   0  0  0  0  0  0  0  0  0  0  0  0
   60.2971   32.7450   48.0742 H   0  0  0  0  0  0  0  0  0  0  0  0
   59.4432   30.6723   47.0953 H   0  0  0  0  0  0  0  0  0  0  0  0
   58.3795   28.8310   43.0720 H   0  0  0  0  0  0  0  0  0  0  0  0
   58.0822   26.3593   43.1478 H   0  0  0  0  0  0  0  0  0  0  0  0
  1  2  2  0
  2  3  1  0
  2  4  1  0
  4  5  1  0
  5  6  1  0
  6  7  2  0
  7  8  1  0
  8  9  2  0
  9 10  1  0
 10 11  2  0
 11 12  1  0
 12 13  2  0
 13 14  1  0
  4 15  1  0
 15 16  1  0
 16 17  2  0
 16 18  2  0
 16 19  1  0
 19 20  2  0
 20 21  1  0
 21 22  2  0
 22 23  1  0
 23 24  2  0
 24 25  1  0
 25 26  2  0
 26 27  1  0
 27 28  2  0
 28 29  1  0
 29 30  2  0
 30 31  1  0
 31 32  2  0
 22 33  1  0
 33 34  2  0
 14  6  1  0
 34 19  1  0
 13  8  1  0
 32 23  1  0
 31 26  1  0
  4 35  1  6
  5 36  1  0
  5 37  1  0
  7 38  1  0
  9 39  1  0
 10 40  1  0
 11 41  1  0
 14 42  1  0
 20 43  1  0
 21 44  1  0
 24 45  1  0
 25 46  1  0
 27 47  1  0
 28 48  1  0
 29 49  1  0
 30 50  1  0
 32 51  1  0
 33 52  1  0
 34 53  1  0
M  CHG  3   3  -1   9   1  15  -1
M  END
>  <UniqueID>  (27) 
25

>  <SMILES>  (27) 
O=C([O-])[C@H](Cc1cc2[nH+]ccnc2[nH]1)[N-]S(=O)(=O)c1ccc(-c2ccc3ccccc3c2)cc1

>  <Energy>  (27) 
102.85260199832223

>  <Genealogy>  (27) 
O=C([O-])C(Cc1cc2[nH+]ccnc2[nH]1)[N-]S(=O)(=O)c1ccc(-c2ccc3ccccc3c2)cc1 (protonated)
O=C([O-])[C@H](Cc1cc2[nH+]ccnc2[nH]1)[N-]S(=O)(=O)c1ccc(-c2ccc3ccccc3c2)cc1 (chirality)
O=C([O-])[C@H](Cc1cc2[nH+]ccnc2[nH]1)[N-]S(=O)(=O)c1ccc(-c2ccc3ccccc3c2)cc1 (3D coordinates assigned)
O=C([O-])[C@H](Cc1cc2[nH+]ccnc2[nH]1)[N-]S(=O)(=O)c1ccc(-c2ccc3ccccc3c2)cc1 (optimized conformer: 102.85260199832223 kcal/mol)

>  <smiles>  (27) 
O=C(O)C(Cc1cc2nccnc2[nH]1)NS(=O)(=O)c1ccc(-c2ccc3ccccc3c2)cc1

>  <score_type>  (27) 
oracle

>  <origin>  (27) 
adg

>  <m_score__min__energy>  (27) 
-12.039999999999999

>  <m_primary>  (27) 
energy

$$$$
27:0
     RDKit          3D

 54 56  0  0  0  0  0  0  0  0999 V2000
   54.9280   24.0100   44.7870 C   0  0  0  0  0  0  0  0  0  0  0  0
   55.8280   25.1180   45.8500 S   0  0  0  0  0  0  0  0  0  0  0  0
   55.0840   26.4150   45.9870 O   0  0  0  0  0  0  0  0  0  0  0  0
   55.9690   24.4890   47.2070 O   0  0  0  0  0  0  0  0  0  0  0  0
   57.4050   25.4200   45.2010 N   0  0  0  0  0  0  0  0  0  0  0  0
   58.4590   25.9970   45.9730 C   0  0  0  0  0  0  0  0  0  0  0  0
   59.5720   26.2540   45.4370 O   0  0  0  0  0  0  0  0  0  0  0  0
   58.2430   26.2830   47.3590 N   0  0  0  0  0  0  0  0  0  0  0  0
   59.3120   26.8130   48.2070 C   0  0  0  0  0  0  0  0  0  0  0  0
   59.1330   28.3150   48.4750 C   0  0  0  0  0  0  0  0  0  0  0  0
   59.1570   29.1320   47.1780 C   0  0  0  0  0  0  0  0  0  0  0  0
   60.3990   28.8860   46.4340 N   0  0  0  0  0  0  0  0  0  0  0  0
   60.2640   29.2720   45.0210 C   0  0  0  0  0  0  0  0  0  0  0  0
   58.9040   29.8880   44.7450 C   0  0  0  0  0  0  0  0  0  0  0  0
   57.9620   29.0930   44.0680 C   0  0  0  0  0  0  0  0  0  0  0  0
   56.6800   29.5710   43.8010 C   0  0  0  0  0  0  0  0  0  0  0  0
   56.3130   30.8550   44.1960 C   0  0  0  0  0  0  0  0  0  0  0  0
   57.2330   31.6860   44.8500 C   0  0  0  0  0  0  0  0  0  0  0  0
   56.8700   32.9520   45.2060 N   0  0  0  0  0  0  0  0  0  0  0  0
   57.7410   33.8040   45.8070 C   0  0  0  0  0  0  0  0  0  0  0  0
   59.0460   33.4030   46.0890 C   0  0  0  0  0  0  0  0  0  0  0  0
   59.9350   34.3400   46.6410 O   0  0  0  0  0  0  0  0  0  0  0  0
   61.0880   34.0320   47.3750 C   0  0  0  0  0  0  0  0  0  0  0  0
   61.1060   34.0830   48.7790 C   0  0  0  0  0  0  0  0  0  0  0  0
   62.2730   33.7610   49.4810 C   0  0  0  0  0  0  0  0  0  0  0  0
   63.4310   33.4020   48.7840 C   0  0  0  0  0  0  0  0  0  0  0  0
   64.8940   32.9910   49.6620 Cl  0  0  0  0  0  0  0  0  0  0  0  0
   63.4260   33.3770   47.3860 C   0  0  0  0  0  0  0  0  0  0  0  0
   62.2600   33.6970   46.6840 C   0  0  0  0  0  0  0  0  0  0  0  0
   59.4410   32.1000   45.7520 C   0  0  0  0  0  0  0  0  0  0  0  0
   58.5440   31.2140   45.1260 C   0  0  0  0  0  0  0  0  0  0  0  0
   54.3521   23.3009   45.3998 H   0  0  0  0  0  0  0  0  0  0  0  0
   54.2407   24.5884   44.1521 H   0  0  0  0  0  0  0  0  0  0  0  0
   55.6350   23.4559   44.1521 H   0  0  0  0  0  0  0  0  0  0  0  0
   57.2910   26.1080   47.7520 H   0  0  0  0  0  0  0  0  0  0  0  0
   59.3046   26.2762   49.1671 H   0  0  0  0  0  0  0  0  0  0  0  0
   60.2683   26.6699   47.6827 H   0  0  0  0  0  0  0  0  0  0  0  0
   58.1679   28.4743   48.9782 H   0  0  0  0  0  0  0  0  0  0  0  0
   59.9686   28.6514   49.1063 H   0  0  0  0  0  0  0  0  0  0  0  0
   58.2986   28.8438   46.5535 H   0  0  0  0  0  0  0  0  0  0  0  0
   59.1018   30.2009   47.4316 H   0  0  0  0  0  0  0  0  0  0  0  0
   60.5820   27.8550   46.4530 H   0  0  0  0  0  0  0  0  0  0  0  0
   61.0462   30.0047   44.7734 H   0  0  0  0  0  0  0  0  0  0  0  0
   60.3677   28.3681   44.4027 H   0  0  0  0  0  0  0  0  0  0  0  0
   58.2408   28.0793   43.7445 H   0  0  0  0  0  0  0  0  0  0  0  0
   55.9552   28.9313   43.2761 H   0  0  0  0  0  0  0  0  0  0  0  0
   55.2950   31.2192   43.9935 H   0  0  0  0  0  0  0  0  0  0  0  0
   55.9040   33.2970   45.0050 H   0  0  0  0  0  0  0  0  0  0  0  0
   57.4134   34.8197   46.0736 H   0  0  0  0  0  0  0  0  0  0  0  0
   60.1995   34.3771   49.3284 H   0  0  0  0  0  0  0  0  0  0  0  0
   62.2794   33.7903   50.5806 H   0  0  0  0  0  0  0  0  0  0  0  0
   64.3403   33.1053   46.8380 H   0  0  0  0  0  0  0  0  0  0  0  0
   62.2627   33.6857   45.5841 H   0  0  0  0  0  0  0  0  0  0  0  0
   60.4642   31.7664   45.9797 H   0  0  0  0  0  0  0  0  0  0  0  0
  1  2  1  0
  2  3  2  0
  2  4  2  0
  2  5  1  0
  5  6  1  0
  6  7  2  0
  6  8  1  0
  8  9  1  0
  9 10  1  0
 10 11  1  0
 11 12  1  0
 12 13  1  0
 13 14  1  0
 14 15  2  0
 15 16  1  0
 16 17  2  0
 17 18  1  0
 18 19  2  0
 19 20  1  0
 20 21  2  0
 21 22  1  0
 22 23  1  0
 23 24  2  0
 24 25  1  0
 25 26  2  0
 26 27  1  0
 26 28  1  0
 28 29  2  0
 21 30  1  0
 30 31  2  0
 31 14  1  0
 31 18  1  0
 29 23  1  0
  1 32  1  0
  1 33  1  0
  1 34  1  0
  8 35  1  0
  9 36  1  0
  9 37  1  0
 10 38  1  0
 10 39  1  0
 11 40  1  0
 11 41  1  0
 12 42  1  0
 13 43  1  0
 13 44  1  0
 15 45  1  0
 16 46  1  0
 17 47  1  0
 19 48  1  0
 20 49  1  0
 24 50  1  0
 25 51  1  0
 28 52  1  0
 29 53  1  0
 30 54  1  0
M  CHG  2   5  -1  19   1
M  END
>  <UniqueID>  (28) 
26

>  <SMILES>  (28) 
CS(=O)(=O)[N-]C(=O)NCCCNCc1cccc2[nH+]cc(Oc3ccc(Cl)cc3)cc12

>  <Energy>  (28) 
55.957505614675696

>  <Genealogy>  (28) 
CS(=O)(=O)[N-]C(=O)NCCCNCc1cccc2[nH+]cc(Oc3ccc(Cl)cc3)cc12 (protonated)
CS(=O)(=O)[N-]C(=O)NCCCNCc1cccc2[nH+]cc(Oc3ccc(Cl)cc3)cc12 (3D coordinates assigned)
CS(=O)(=O)[N-]C(=O)NCCCNCc1cccc2[nH+]cc(Oc3ccc(Cl)cc3)cc12 (optimized conformer: 55.957505614675696 kcal/mol)

>  <smiles>  (28) 
CS(=O)(=O)NC(=O)NCCCNCc1cccc2ncc(Oc3ccc(Cl)cc3)cc12

>  <score_type>  (28) 
oracle

>  <origin>  (28) 
adg

>  <m_score__min__energy>  (28) 
-9.5

>  <m_primary>  (28) 
energy

$$$$
28:0
     RDKit          3D

 52 55  0  0  0  0  0  0  0  0999 V2000
   59.1670   32.9310   49.5690 C   0  0  0  0  0  0  0  0  0  0  0  0
   59.0780   31.5180   50.0920 C   0  0  0  0  0  0  0  0  0  0  0  0
   58.9520   30.4870   48.9590 C   0  0  0  0  0  0  0  0  0  0  0  0
   60.2740   29.9430   48.5750 N   0  0  0  0  0  0  0  0  0  0  0  0
   60.2970   29.2090   47.2860 C   0  0  0  0  0  0  0  0  0  0  0  0
   59.0500   28.3090   47.0810 C   0  0  0  0  0  0  0  0  0  0  0  0
   58.2890   29.0140   46.0210 C   0  0  0  0  0  0  0  0  0  0  0  0
   57.0010   28.7130   45.5740 C   0  0  0  0  0  0  0  0  0  0  0  0
   56.4510   29.4800   44.5340 C   0  0  0  0  0  0  0  0  0  0  0  0
   57.1970   30.5220   43.9540 C   0  0  0  0  0  0  0  0  0  0  0  0
   58.4950   30.8020   44.4110 C   0  0  0  0  0  0  0  0  0  0  0  0
   59.0180   30.0330   45.4530 C   0  0  0  0  0  0  0  0  0  0  0  0
   60.3680   30.1550   46.0560 C   0  0  0  0  0  0  0  0  0  0  0  0
   59.7920   33.2560   48.4180 C   0  0  0  0  0  0  0  0  0  0  0  0
   61.2790   33.2750   48.3490 C   0  0  0  0  0  0  0  0  0  0  0  0
   61.9640   32.7230   47.2490 C   0  0  0  0  0  0  0  0  0  0  0  0
   63.3620   32.7370   47.2050 C   0  0  0  0  0  0  0  0  0  0  0  0
   64.0910   33.2950   48.2560 C   0  0  0  0  0  0  0  0  0  0  0  0
   63.4240   33.8390   49.3570 C   0  0  0  0  0  0  0  0  0  0  0  0
   62.0270   33.8260   49.4080 C   0  0  0  0  0  0  0  0  0  0  0  0
   59.0240   33.6190   47.2030 C   0  0  0  0  0  0  0  0  0  0  0  0
   59.6030   34.4560   46.2360 C   0  0  0  0  0  0  0  0  0  0  0  0
   58.8930   34.7850   45.0760 C   0  0  0  0  0  0  0  0  0  0  0  0
   57.6080   34.2710   44.8720 C   0  0  0  0  0  0  0  0  0  0  0  0
   57.0340   33.4240   45.8250 C   0  0  0  0  0  0  0  0  0  0  0  0
   57.7400   33.0940   46.9850 C   0  0  0  0  0  0  0  0  0  0  0  0
   58.6992   33.7358   50.1551 H   0  0  0  0  0  0  0  0  0  0  0  0
   59.9858   31.2972   50.6727 H   0  0  0  0  0  0  0  0  0  0  0  0
   58.1758   31.4452   50.7170 H   0  0  0  0  0  0  0  0  0  0  0  0
   58.3092   29.6607   49.2967 H   0  0  0  0  0  0  0  0  0  0  0  0
   58.5154   30.9875   48.0822 H   0  0  0  0  0  0  0  0  0  0  0  0
   60.9670   30.7240   48.5110 H   0  0  0  0  0  0  0  0  0  0  0  0
   60.6050   29.2930   49.3270 H   0  0  0  0  0  0  0  0  0  0  0  0
   61.2063   28.5934   47.3508 H   0  0  0  0  0  0  0  0  0  0  0  0
   59.3418   27.3008   46.7519 H   0  0  0  0  0  0  0  0  0  0  0  0
   58.4684   28.1637   48.0033 H   0  0  0  0  0  0  0  0  0  0  0  0
   56.4280   27.8909   46.0277 H   0  0  0  0  0  0  0  0  0  0  0  0
   55.4346   29.2654   44.1722 H   0  0  0  0  0  0  0  0  0  0  0  0
   56.7620   31.1197   43.1394 H   0  0  0  0  0  0  0  0  0  0  0  0
   59.0876   31.6103   43.9577 H   0  0  0  0  0  0  0  0  0  0  0  0
   61.1457   29.8266   45.3507 H   0  0  0  0  0  0  0  0  0  0  0  0
   60.6280   31.1898   46.3234 H   0  0  0  0  0  0  0  0  0  0  0  0
   61.3957   32.2779   46.4190 H   0  0  0  0  0  0  0  0  0  0  0  0
   63.8880   32.3071   46.3398 H   0  0  0  0  0  0  0  0  0  0  0  0
   65.1903   33.3066   48.2179 H   0  0  0  0  0  0  0  0  0  0  0  0
   63.9994   34.2783   50.1852 H   0  0  0  0  0  0  0  0  0  0  0  0
   61.5083   34.2489   50.2810 H   0  0  0  0  0  0  0  0  0  0  0  0
   60.6168   34.8540   46.3905 H   0  0  0  0  0  0  0  0  0  0  0  0
   59.3455   35.4482   44.3241 H   0  0  0  0  0  0  0  0  0  0  0  0
   57.0490   34.5332   43.9616 H   0  0  0  0  0  0  0  0  0  0  0  0
   56.0253   33.0168   45.6614 H   0  0  0  0  0  0  0  0  0  0  0  0
   57.2887   32.4213   47.7292 H   0  0  0  0  0  0  0  0  0  0  0  0
  1  2  1  0
  2  3  1  0
  3  4  1  0
  4  5  1  0
  5  6  1  0
  6  7  1  0
  7  8  2  0
  8  9  1  0
  9 10  2  0
 10 11  1  0
 11 12  2  0
 12 13  1  0
  1 14  2  3
 14 15  1  0
 15 16  2  0
 16 17  1  0
 17 18  2  0
 18 19  1  0
 19 20  2  0
 14 21  1  0
 21 22  2  0
 22 23  1  0
 23 24  2  0
 24 25  1  0
 25 26  2  0
 13  5  1  0
 20 15  1  0
 26 21  1  0
 12  7  1  0
  1 27  1  0
  2 28  1  0
  2 29  1  0
  3 30  1  0
  3 31  1  0
  4 32  1  0
  4 33  1  0
  5 34  1  0
  6 35  1  0
  6 36  1  0
  8 37  1  0
  9 38  1  0
 10 39  1  0
 11 40  1  0
 13 41  1  0
 13 42  1  0
 16 43  1  0
 17 44  1  0
 18 45  1  0
 19 46  1  0
 20 47  1  0
 22 48  1  0
 23 49  1  0
 24 50  1  0
 25 51  1  0
 26 52  1  0
M  CHG  1   4   1
M  END
>  <UniqueID>  (29) 
27

>  <SMILES>  (29) 
C(CC[NH2+]C1Cc2ccccc2C1)=C(c1ccccc1)c1ccccc1

>  <Energy>  (29) 
76.06564415165002

>  <Genealogy>  (29) 
C(CC[NH2+]C1Cc2ccccc2C1)=C(c1ccccc1)c1ccccc1 (protonated)
C(CC[NH2+]C1Cc2ccccc2C1)=C(c1ccccc1)c1ccccc1 (3D coordinates assigned)
C(CC[NH2+]C1Cc2ccccc2C1)=C(c1ccccc1)c1ccccc1 (nonaromatic ring conformer: 76.06564415165002 kcal/mol)

>  <smiles>  (29) 
C(CCNC1Cc2ccccc2C1)=C(c1ccccc1)c1ccccc1

>  <score_type>  (29) 
oracle

>  <origin>  (29) 
adg

>  <m_score__min__energy>  (29) 
-7.1200000000000001

>  <m_primary>  (29) 
energy

$$$$
29:0
     RDKit          3D

 41 44  0  0  0  0  0  0  0  0999 V2000
   55.3600   28.9640   44.4410 O   0  0  0  0  0  0  0  0  0  0  0  0
   56.3040   28.8200   45.2640 C   0  0  0  0  0  0  0  0  0  0  0  0
   57.1030   29.9410   45.6560 N   0  0  0  0  0  0  0  0  0  0  0  0
   57.5510   31.0120   44.8070 C   0  0  0  0  0  0  0  0  0  0  0  0
   57.5720   30.8620   43.4080 C   0  0  0  0  0  0  0  0  0  0  0  0
   58.0360   31.8920   42.5890 C   0  0  0  0  0  0  0  0  0  0  0  0
   58.4980   33.0830   43.1490 C   0  0  0  0  0  0  0  0  0  0  0  0
   58.5110   33.2500   44.5410 C   0  0  0  0  0  0  0  0  0  0  0  0
   58.9920   34.4410   45.1060 C   0  0  0  0  0  0  0  0  0  0  0  0
   59.0090   34.6060   46.4920 C   0  0  0  0  0  0  0  0  0  0  0  0
   58.5450   33.5870   47.3250 C   0  0  0  0  0  0  0  0  0  0  0  0
   58.0640   32.3950   46.7790 C   0  0  0  0  0  0  0  0  0  0  0  0
   58.0410   32.2070   45.3820 C   0  0  0  0  0  0  0  0  0  0  0  0
   56.6010   27.4950   45.8350 C   0  0  0  0  0  0  0  0  0  0  0  0
   55.7320   26.4700   45.7690 N   0  0  0  0  0  0  0  0  0  0  0  0
   56.3130   25.4930   46.4960 C   0  0  0  0  0  0  0  0  0  0  0  0
   57.5050   25.8450   47.0180 N   0  0  0  0  0  0  0  0  0  0  0  0
   57.6950   27.1080   46.5950 C   0  0  0  0  0  0  0  0  0  0  0  0
   58.9290   27.8620   46.8780 C   0  0  0  0  0  0  0  0  0  0  0  0
   60.0210   27.4360   46.4120 O   0  0  0  0  0  0  0  0  0  0  0  0
   58.8780   29.1220   47.5650 N   0  0  0  0  0  0  0  0  0  0  0  0
   60.0280   29.7750   48.1310 C   0  0  0  0  0  0  0  0  0  0  0  0
   60.5400   29.4040   49.3880 C   0  0  0  0  0  0  0  0  0  0  0  0
   61.6490   30.0670   49.9220 C   0  0  0  0  0  0  0  0  0  0  0  0
   62.2490   31.1130   49.2150 C   0  0  0  0  0  0  0  0  0  0  0  0
   61.7340   31.5040   47.9760 C   0  0  0  0  0  0  0  0  0  0  0  0
   62.4820   32.8230   47.0940 Cl  0  0  0  0  0  0  0  0  0  0  0  0
   60.6230   30.8430   47.4390 C   0  0  0  0  0  0  0  0  0  0  0  0
   57.2191   29.9235   42.9556 H   0  0  0  0  0  0  0  0  0  0  0  0
   58.0374   31.7641   41.4965 H   0  0  0  0  0  0  0  0  0  0  0  0
   58.8534   33.8940   42.4963 H   0  0  0  0  0  0  0  0  0  0  0  0
   59.3572   35.2481   44.4539 H   0  0  0  0  0  0  0  0  0  0  0  0
   59.3890   35.5414   46.9286 H   0  0  0  0  0  0  0  0  0  0  0  0
   58.5582   33.7233   48.4164 H   0  0  0  0  0  0  0  0  0  0  0  0
   57.7006   31.5973   47.4435 H   0  0  0  0  0  0  0  0  0  0  0  0
   55.8574   24.5035   46.6482 H   0  0  0  0  0  0  0  0  0  0  0  0
   57.9710   29.6430   47.5580 H   0  0  0  0  0  0  0  0  0  0  0  0
   60.0654   28.5884   49.9533 H   0  0  0  0  0  0  0  0  0  0  0  0
   62.0503   29.7649   50.9006 H   0  0  0  0  0  0  0  0  0  0  0  0
   63.1261   31.6282   49.6336 H   0  0  0  0  0  0  0  0  0  0  0  0
   60.2134   31.1618   46.4692 H   0  0  0  0  0  0  0  0  0  0  0  0
  1  2  2  0
  2  3  1  0
  3  4  1  0
  4  5  2  0
  5  6  1  0
  6  7  2  0
  7  8  1  0
  8  9  2  0
  9 10  1  0
 10 11  2  0
 11 12  1  0
 12 13  2  0
  2 14  1  0
 14 15  1  0
 15 16  2  0
 16 17  1  0
 17 18  1  0
 18 19  1  0
 19 20  2  0
 19 21  1  0
 21 22  1  0
 22 23  2  0
 23 24  1  0
 24 25  2  0
 25 26  1  0
 26 27  1  0
 26 28  2  0
 13  4  1  0
 18 14  2  0
 28 22  1  0
 13  8  1  0
  5 29  1  0
  6 30  1  0
  7 31  1  0
  9 32  1  0
 10 33  1  0
 11 34  1  0
 12 35  1  0
 16 36  1  0
 21 37  1  0
 23 38  1  0
 24 39  1  0
 25 40  1  0
 28 41  1  0
M  CHG  2   3  -1  17  -1
M  END
>  <UniqueID>  (30) 
28

>  <SMILES>  (30) 
O=C([N-]c1cccc2ccccc12)c1nc[n-]c1C(=O)Nc1cccc(Cl)c1

>  <Energy>  (30) 
88.38896036360288

>  <Genealogy>  (30) 
O=C([N-]c1cccc2ccccc12)c1nc[n-]c1C(=O)Nc1cccc(Cl)c1 (protonated)
O=C([N-]c1cccc2ccccc12)c1nc[n-]c1C(=O)Nc1cccc(Cl)c1 (3D coordinates assigned)
O=C([N-]c1cccc2ccccc12)c1nc[n-]c1C(=O)Nc1cccc(Cl)c1 (optimized conformer: 88.38896036360288 kcal/mol)

>  <smiles>  (30) 
O=C(Nc1cccc2ccccc12)c1nc[nH]c1C(=O)Nc1cccc(Cl)c1

>  <score_type>  (30) 
oracle

>  <origin>  (30) 
adg

>  <m_score__min__energy>  (30) 
-11.800000000000001

>  <m_primary>  (30) 
energy

$$$$
30:0
     RDKit          3D

 52 55  0  0  0  0  0  0  0  0999 V2000
   54.7850   26.3410   45.9880 N   0  0  0  0  0  0  0  0  0  0  0  0
   56.0610   25.7810   45.6760 C   0  0  0  0  0  0  0  0  0  0  0  0
   56.1360   24.5610   45.3690 O   0  0  0  0  0  0  0  0  0  0  0  0
   57.2800   26.6220   45.7050 C   0  0  0  0  0  0  0  0  0  0  0  0
   58.0170   26.8430   44.5300 C   0  0  0  0  0  0  0  0  0  0  0  0
   59.1630   27.6380   44.5540 C   0  0  0  0  0  0  0  0  0  0  0  0
   59.5840   28.2270   45.7460 C   0  0  0  0  0  0  0  0  0  0  0  0
   58.8640   28.0310   46.9350 C   0  0  0  0  0  0  0  0  0  0  0  0
   59.3600   28.6280   48.1500 N   0  0  0  0  0  0  0  0  0  0  0  0
   60.2180   29.7790   48.2360 C   0  0  0  0  0  0  0  0  0  0  0  0
   60.8710   30.1690   47.2320 O   0  0  0  0  0  0  0  0  0  0  0  0
   60.4740   30.4440   49.5570 C   0  0  0  0  0  0  0  0  0  0  0  0
   60.6770   31.8910   49.4100 N   0  0  0  0  0  0  0  0  0  0  0  0
   61.9950   32.3970   49.1500 C   0  0  0  0  0  0  0  0  0  0  0  0
   62.8910   32.6090   50.2110 C   0  0  0  0  0  0  0  0  0  0  0  0
   64.1790   33.0930   49.9620 C   0  0  0  0  0  0  0  0  0  0  0  0
   64.5810   33.3680   48.6530 C   0  0  0  0  0  0  0  0  0  0  0  0
   63.6950   33.1610   47.5910 C   0  0  0  0  0  0  0  0  0  0  0  0
   62.4060   32.6760   47.8350 C   0  0  0  0  0  0  0  0  0  0  0  0
   61.5560   32.4990   46.7960 F   0  0  0  0  0  0  0  0  0  0  0  0
   59.3110   32.9230   49.0900 S   0  0  0  0  0  0  0  0  0  0  0  0
   59.6200   34.3140   49.5690 O   0  0  0  0  0  0  0  0  0  0  0  0
   58.1090   32.4270   49.8460 O   0  0  0  0  0  0  0  0  0  0  0  0
   58.9200   32.9500   47.3720 C   0  0  0  0  0  0  0  0  0  0  0  0
   59.2040   34.0910   46.6070 C   0  0  0  0  0  0  0  0  0  0  0  0
   58.9090   34.1200   45.2420 C   0  0  0  0  0  0  0  0  0  0  0  0
   58.3440   33.0020   44.6230 C   0  0  0  0  0  0  0  0  0  0  0  0
   58.0620   33.0260   43.2930 N   0  0  0  0  0  0  0  0  0  0  0  0
   57.5150   31.9540   42.6580 C   0  0  0  0  0  0  0  0  0  0  0  0
   57.2660   32.0180   41.4270 O   0  0  0  0  0  0  0  0  0  0  0  0
   57.2300   30.7870   43.3720 C   0  0  0  0  0  0  0  0  0  0  0  0
   57.5020   30.7340   44.7410 C   0  0  0  0  0  0  0  0  0  0  0  0
   58.0640   31.8440   45.3830 C   0  0  0  0  0  0  0  0  0  0  0  0
   58.3450   31.8270   46.7570 C   0  0  0  0  0  0  0  0  0  0  0  0
   57.7210   27.2060   46.9070 C   0  0  0  0  0  0  0  0  0  0  0  0
   54.0140   26.3430   45.2850 H   0  0  0  0  0  0  0  0  0  0  0  0
   57.6884   26.3863   43.5848 H   0  0  0  0  0  0  0  0  0  0  0  0
   59.7366   27.8009   43.6296 H   0  0  0  0  0  0  0  0  0  0  0  0
   60.4895   28.8515   45.7545 H   0  0  0  0  0  0  0  0  0  0  0  0
   59.1070   28.1600   49.0500 H   0  0  0  0  0  0  0  0  0  0  0  0
   59.6103   30.2709   50.2158 H   0  0  0  0  0  0  0  0  0  0  0  0
   61.3909   30.0123   49.9846 H   0  0  0  0  0  0  0  0  0  0  0  0
   62.5777   32.3931   51.2431 H   0  0  0  0  0  0  0  0  0  0  0  0
   64.8758   33.2572   50.7972 H   0  0  0  0  0  0  0  0  0  0  0  0
   65.5948   33.7475   48.4574 H   0  0  0  0  0  0  0  0  0  0  0  0
   64.0127   33.3802   46.5609 H   0  0  0  0  0  0  0  0  0  0  0  0
   59.6623   34.9691   47.0854 H   0  0  0  0  0  0  0  0  0  0  0  0
   59.1219   35.0245   44.6534 H   0  0  0  0  0  0  0  0  0  0  0  0
   56.7946   29.9164   42.8596 H   0  0  0  0  0  0  0  0  0  0  0  0
   57.2752   29.8224   45.3133 H   0  0  0  0  0  0  0  0  0  0  0  0
   58.1144   30.9321   47.3536 H   0  0  0  0  0  0  0  0  0  0  0  0
   57.1662   27.0162   47.8377 H   0  0  0  0  0  0  0  0  0  0  0  0
  1  2  1  0
  2  3  2  0
  2  4  1  0
  4  5  2  0
  5  6  1  0
  6  7  2  0
  7  8  1  0
  8  9  1  0
  9 10  1  0
 10 11  2  0
 10 12  1  0
 12 13  1  0
 13 14  1  0
 14 15  2  0
 15 16  1  0
 16 17  2  0
 17 18  1  0
 18 19  2  0
 19 20  1  0
 13 21  1  0
 21 22  2  0
 21 23  2  0
 21 24  1  0
 24 25  2  0
 25 26  1  0
 26 27  2  0
 27 28  1  0
 28 29  1  0
 29 30  2  0
 29 31  1  0
 31 32  2  0
 32 33  1  0
 33 34  2  0
  8 35  2  0
 35  4  1  0
 19 14  1  0
 34 24  1  0
 33 27  1  0
  1 36  1  0
  5 37  1  0
  6 38  1  0
  7 39  1  0
  9 40  1  0
 12 41  1  0
 12 42  1  0
 15 43  1  0
 16 44  1  0
 17 45  1  0
 18 46  1  0
 25 47  1  0
 26 48  1  0
 31 49  1  0
 32 50  1  0
 34 51  1  0
 35 52  1  0
M  CHG  2   1  -1  28  -1
M  END
>  <UniqueID>  (31) 
29

>  <SMILES>  (31) 
[NH-]C(=O)c1cccc(NC(=O)CN(c2ccccc2F)S(=O)(=O)c2ccc3[n-]c(=O)ccc3c2)c1

>  <Energy>  (31) 
63.54835306819418

>  <Genealogy>  (31) 
[NH-]C(=O)c1cccc(NC(=O)CN(c2ccccc2F)S(=O)(=O)c2ccc3[n-]c(=O)ccc3c2)c1 (protonated)
[NH-]C(=O)c1cccc(NC(=O)CN(c2ccccc2F)S(=O)(=O)c2ccc3[n-]c(=O)ccc3c2)c1 (3D coordinates assigned)
[NH-]C(=O)c1cccc(NC(=O)CN(c2ccccc2F)S(=O)(=O)c2ccc3[n-]c(=O)ccc3c2)c1 (optimized conformer: 63.54835306819418 kcal/mol)

>  <smiles>  (31) 
NC(=O)c1cccc(NC(=O)CN(c2ccccc2F)S(=O)(=O)c2ccc3[nH]c(=O)ccc3c2)c1

>  <score_type>  (31) 
oracle

>  <origin>  (31) 
adg

>  <m_score__min__energy>  (31) 
-14.220000000000001

>  <m_primary>  (31) 
energy

$$$$
31:0
     RDKit          3D

 51 53  0  0  0  0  0  0  0  0999 V2000
   58.5630   32.7160   48.9020 C   0  0  0  0  0  0  0  0  0  0  0  0
   58.7980   33.4440   47.6160 C   0  0  0  0  0  0  0  0  0  0  0  0
   59.4010   34.6650   47.6380 N   0  0  0  0  0  0  0  0  0  0  0  0
   59.6480   35.3660   46.5010 C   0  0  0  0  0  0  0  0  0  0  0  0
   59.2950   34.8310   45.2610 C   0  0  0  0  0  0  0  0  0  0  0  0
   58.6630   33.5880   45.2080 C   0  0  0  0  0  0  0  0  0  0  0  0
   58.3830   32.8900   46.3930 C   0  0  0  0  0  0  0  0  0  0  0  0
   57.7390   31.6420   46.3820 O   0  0  0  0  0  0  0  0  0  0  0  0
   57.4230   30.8970   45.2340 C   0  0  0  0  0  0  0  0  0  0  0  0
   57.0590   31.5140   44.0210 C   0  0  0  0  0  0  0  0  0  0  0  0
   56.7290   30.7400   42.9040 C   0  0  0  0  0  0  0  0  0  0  0  0
   56.7430   29.3460   42.9890 C   0  0  0  0  0  0  0  0  0  0  0  0
   57.0780   28.7240   44.1950 C   0  0  0  0  0  0  0  0  0  0  0  0
   57.4160   29.4940   45.3160 C   0  0  0  0  0  0  0  0  0  0  0  0
   57.7280   28.8440   46.5470 N   0  0  0  0  0  0  0  0  0  0  0  0
   59.3420   28.3330   46.9030 S   0  0  0  0  0  0  0  0  0  0  0  0
   59.9290   27.6460   45.7020 O   0  0  0  0  0  0  0  0  0  0  0  0
   59.3070   27.3490   48.0380 O   0  0  0  0  0  0  0  0  0  0  0  0
   60.3300   29.7170   47.3560 C   0  0  0  0  0  0  0  0  0  0  0  0
   60.7290   30.6490   46.3950 C   0  0  0  0  0  0  0  0  0  0  0  0
   61.5420   31.7280   46.7530 C   0  0  0  0  0  0  0  0  0  0  0  0
   61.9850   31.9000   48.0820 C   0  0  0  0  0  0  0  0  0  0  0  0
   62.9270   33.0720   48.4290 C   0  0  0  0  0  0  0  0  0  0  0  0
   62.1880   34.0790   49.3340 C   0  0  0  0  0  0  0  0  0  0  0  0
   64.2080   32.6230   49.1720 C   0  0  0  0  0  0  0  0  0  0  0  0
   63.3670   33.7830   47.1300 C   0  0  0  0  0  0  0  0  0  0  0  0
   61.5390   30.9660   49.0480 C   0  0  0  0  0  0  0  0  0  0  0  0
   60.7230   29.8920   48.6840 C   0  0  0  0  0  0  0  0  0  0  0  0
   58.7792   33.3858   49.7473 H   0  0  0  0  0  0  0  0  0  0  0  0
   57.5138   32.3894   48.9520 H   0  0  0  0  0  0  0  0  0  0  0  0
   59.2232   31.8376   48.9520 H   0  0  0  0  0  0  0  0  0  0  0  0
   60.1261   36.3551   46.5574 H   0  0  0  0  0  0  0  0  0  0  0  0
   59.5128   35.3836   44.3351 H   0  0  0  0  0  0  0  0  0  0  0  0
   58.3839   33.1547   44.2362 H   0  0  0  0  0  0  0  0  0  0  0  0
   57.0342   32.6116   43.9520 H   0  0  0  0  0  0  0  0  0  0  0  0
   56.4580   31.2298   41.9571 H   0  0  0  0  0  0  0  0  0  0  0  0
   56.4906   28.7382   42.1076 H   0  0  0  0  0  0  0  0  0  0  0  0
   57.0763   27.6262   44.2644 H   0  0  0  0  0  0  0  0  0  0  0  0
   60.4017   30.5331   45.3512 H   0  0  0  0  0  0  0  0  0  0  0  0
   61.8420   32.4563   45.9852 H   0  0  0  0  0  0  0  0  0  0  0  0
   62.3723   33.8278   50.3890 H   0  0  0  0  0  0  0  0  0  0  0  0
   62.5564   35.0950   49.1292 H   0  0  0  0  0  0  0  0  0  0  0  0
   61.1082   34.0323   49.1292 H   0  0  0  0  0  0  0  0  0  0  0  0
   64.0416   32.6813   50.2578 H   0  0  0  0  0  0  0  0  0  0  0  0
   64.4494   31.5867   48.8932 H   0  0  0  0  0  0  0  0  0  0  0  0
   65.0436   33.2818   48.8932 H   0  0  0  0  0  0  0  0  0  0  0  0
   63.9303   34.6933   47.3830 H   0  0  0  0  0  0  0  0  0  0  0  0
   64.0057   33.1084   46.5410 H   0  0  0  0  0  0  0  0  0  0  0  0
   62.4783   34.0536   46.5410 H   0  0  0  0  0  0  0  0  0  0  0  0
   61.8390   31.0876   50.0993 H   0  0  0  0  0  0  0  0  0  0  0  0
   60.3873   29.1781   49.4505 H   0  0  0  0  0  0  0  0  0  0  0  0
  1  2  1  0
  2  3  2  0
  3  4  1  0
  4  5  2  0
  5  6  1  0
  6  7  2  0
  7  8  1  0
  8  9  1  0
  9 10  2  0
 10 11  1  0
 11 12  2  0
 12 13  1  0
 13 14  2  0
 14 15  1  0
 15 16  1  0
 16 17  2  0
 16 18  2  0
 16 19  1  0
 19 20  2  0
 20 21  1  0
 21 22  2  0
 22 23  1  0
 23 24  1  0
 23 25  1  0
 23 26  1  0
 22 27  1  0
 27 28  2  0
  7  2  1  0
 14  9  1  0
 28 19  1  0
  1 29  1  0
  1 30  1  0
  1 31  1  0
  4 32  1  0
  5 33  1  0
  6 34  1  0
 10 35  1  0
 11 36  1  0
 12 37  1  0
 13 38  1  0
 20 39  1  0
 21 40  1  0
 24 41  1  0
 24 42  1  0
 24 43  1  0
 25 44  1  0
 25 45  1  0
 25 46  1  0
 26 47  1  0
 26 48  1  0
 26 49  1  0
 27 50  1  0
 28 51  1  0
M  CHG  1  15  -1
M  END
>  <UniqueID>  (32) 
30

>  <SMILES>  (32) 
Cc1ncccc1Oc1ccccc1[N-]S(=O)(=O)c1ccc(C(C)(C)C)cc1

>  <Energy>  (32) 
64.79770405312047

>  <Genealogy>  (32) 
Cc1ncccc1Oc1ccccc1[N-]S(=O)(=O)c1ccc(C(C)(C)C)cc1 (protonated)
Cc1ncccc1Oc1ccccc1[N-]S(=O)(=O)c1ccc(C(C)(C)C)cc1 (3D coordinates assigned)
Cc1ncccc1Oc1ccccc1[N-]S(=O)(=O)c1ccc(C(C)(C)C)cc1 (optimized conformer: 64.79770405312047 kcal/mol)

>  <smiles>  (32) 
Cc1ncccc1Oc1ccccc1NS(=O)(=O)c1ccc(C(C)(C)C)cc1

>  <score_type>  (32) 
oracle

>  <origin>  (32) 
adg

>  <m_score__min__energy>  (32) 
-10.77

>  <m_primary>  (32) 
energy

$$$$
32:0
     RDKit          3D

 50 53  0  0  0  0  0  0  0  0999 V2000
   58.3050   24.5010   47.7590 H   0  0  0  0  0  0  0  0  0  0  0  0
   57.3970   24.2920   47.2900 N   0  0  0  0  0  0  0  0  0  0  0  0
   56.6430   25.2110   46.7760 C   0  0  0  0  0  0  0  0  0  0  0  0
   55.3840   24.9940   46.3700 N   0  0  0  0  0  0  0  0  0  0  0  0
   54.9810   26.1400   45.8970 O   0  0  0  0  0  0  0  0  0  0  0  0
   55.8790   27.0850   45.9630 N   0  0  0  0  0  0  0  0  0  0  0  0
   56.9690   26.5250   46.5190 C   0  0  0  0  0  0  0  0  0  0  0  0
   58.2160   27.2540   46.8360 C   0  0  0  0  0  0  0  0  0  0  0  0
   59.0620   26.8760   47.8170 N   0  0  0  0  0  0  0  0  0  0  0  0
   59.9940   27.8100   47.8880 N   0  0  0  0  0  0  0  0  0  0  0  0
   60.8010   27.7980   48.5500 H   0  0  0  0  0  0  0  0  0  0  0  0
   59.7200   28.7450   46.9650 C   0  0  0  0  0  0  0  0  0  0  0  0
   60.7520   30.1920   46.6850 S   0  0  0  0  0  0  0  0  0  0  0  0
   61.4370   30.2470   48.3770 C   0  0  0  0  0  0  0  0  0  0  0  0
   62.0831   29.3716   48.5389 H   0  0  0  0  0  0  0  0  0  0  0  0
   62.0257   31.1677   48.5029 H   0  0  0  0  0  0  0  0  0  0  0  0
   60.3240   30.2320   49.3680 C   0  0  0  0  0  0  0  0  0  0  0  0
   60.1300   29.2060   50.0760 O   0  0  0  0  0  0  0  0  0  0  0  0
   59.4890   31.3850   49.5120 N   0  0  0  0  0  0  0  0  0  0  0  0
   59.4490   32.5030   48.6160 C   0  0  0  0  0  0  0  0  0  0  0  0
   58.3240   32.6540   47.7970 C   0  0  0  0  0  0  0  0  0  0  0  0
   57.5207   31.9036   47.8371 H   0  0  0  0  0  0  0  0  0  0  0  0
   58.2050   33.7430   46.9290 C   0  0  0  0  0  0  0  0  0  0  0  0
   57.0570   33.8330   46.1270 O   0  0  0  0  0  0  0  0  0  0  0  0
   57.0020   34.5120   44.8760 C   0  0  0  0  0  0  0  0  0  0  0  0
   56.9143   35.5946   45.0500 H   0  0  0  0  0  0  0  0  0  0  0  0
   57.9198   34.3054   44.3060 H   0  0  0  0  0  0  0  0  0  0  0  0
   56.1294   34.1604   44.3060 H   0  0  0  0  0  0  0  0  0  0  0  0
   59.2290   34.7030   46.8900 C   0  0  0  0  0  0  0  0  0  0  0  0
   59.1543   35.5552   46.1985 H   0  0  0  0  0  0  0  0  0  0  0  0
   60.3420   34.5810   47.7250 C   0  0  0  0  0  0  0  0  0  0  0  0
   61.1368   35.3406   47.6890 H   0  0  0  0  0  0  0  0  0  0  0  0
   60.4550   33.4930   48.6130 C   0  0  0  0  0  0  0  0  0  0  0  0
   61.5200   33.3950   49.5220 O   0  0  0  0  0  0  0  0  0  0  0  0
   62.8980   33.4370   49.1660 C   0  0  0  0  0  0  0  0  0  0  0  0
   63.5120   33.4557   50.0785 H   0  0  0  0  0  0  0  0  0  0  0  0
   63.1506   32.5461   48.5722 H   0  0  0  0  0  0  0  0  0  0  0  0
   63.0959   34.3416   48.5722 H   0  0  0  0  0  0  0  0  0  0  0  0
   58.6000   28.4310   46.2800 N   0  0  0  0  0  0  0  0  0  0  0  0
   57.9790   29.1640   45.2110 C   0  0  0  0  0  0  0  0  0  0  0  0
   57.7260   30.5390   45.3440 C   0  0  0  0  0  0  0  0  0  0  0  0
   58.0222   31.0635   46.2644 H   0  0  0  0  0  0  0  0  0  0  0  0
   57.1000   31.2440   44.3130 C   0  0  0  0  0  0  0  0  0  0  0  0
   56.9011   32.3200   44.4257 H   0  0  0  0  0  0  0  0  0  0  0  0
   56.7260   30.5850   43.1390 C   0  0  0  0  0  0  0  0  0  0  0  0
   56.2340   31.1423   42.3282 H   0  0  0  0  0  0  0  0  0  0  0  0
   56.9770   29.2180   42.9950 C   0  0  0  0  0  0  0  0  0  0  0  0
   56.6814   28.6988   42.0714 H   0  0  0  0  0  0  0  0  0  0  0  0
   57.6040   28.5100   44.0250 C   0  0  0  0  0  0  0  0  0  0  0  0
   57.8048   27.4350   43.9063 H   0  0  0  0  0  0  0  0  0  0  0  0
  1  2  1  0
  2  3  2  0
  3  4  1  0
  4  5  1  0
  5  6  1  0
  6  7  2  0
  7  8  1  0
  8  9  2  0
  9 10  1  0
 10 11  1  0
 10 12  2  0
 12 13  1  0
 13 14  1  0
 14 15  1  0
 14 16  1  0
 14 17  1  0
 17 18  2  0
 17 19  1  0
 19 20  1  0
 20 21  2  0
 21 22  1  0
 21 23  1  0
 23 24  1  0
 24 25  1  0
 25 26  1  0
 25 27  1  0
 25 28  1  0
 23 29  2  0
 29 30  1  0
 29 31  1  0
 31 32  1  0
 31 33  2  0
 33 34  1  0
 34 35  1  0
 35 36  1  0
 35 37  1  0
 35 38  1  0
 12 39  1  0
 39 40  1  0
 40 41  2  0
 41 42  1  0
 41 43  1  0
 43 44  1  0
 43 45  2  0
 45 46  1  0
 45 47  1  0
 47 48  1  0
 47 49  2  0
 49 50  1  0
  7  3  1  0
 39  8  1  0
 49 40  1  0
 33 20  1  0
M  CHG  3   4  -1  10   1  19  -1
M  END
>  <UniqueID>  (33) 
31

>  <SMILES>  (33) 
[H]/N=c1/[n-]onc1-c1n[nH+]c(SCC(=O)[N-]c2cc(OC)ccc2OC)n1-c1ccccc1

>  <Energy>  (33) 
129.03504649607717

>  <Genealogy>  (33) 
COc1ccc(OC)c([N-]C(=O)CSc2[nH+]nc(-c3no[n-]c3=N)n2-c2ccccc2)c1 (protonated)
[H]/N=c1/[n-]onc1-c1n[nH+]c(SCC(=O)[N-]c2cc(OC)ccc2OC)n1-c1ccccc1 (cis-trans isomerization)
[H]/N=c1/[n-]onc1-c1n[nH+]c(SCC(=O)[N-]c2cc(OC)ccc2OC)n1-c1ccccc1 (3D coordinates assigned)
[H]/N=c1/[n-]onc1-c1n[nH+]c(SCC(=O)[N-]c2cc(OC)ccc2OC)n1-c1ccccc1 (optimized conformer: 129.03504649607717 kcal/mol)

>  <smiles>  (33) 
COc1ccc(OC)c(NC(=O)CSc2nnc(-c3no[nH]c3=N)n2-c2ccccc2)c1

>  <score_type>  (33) 
oracle

>  <origin>  (33) 
adg

>  <m_score__min__energy>  (33) 
-9.6199999999999992

>  <m_primary>  (33) 
energy

$$$$
33:0
     RDKit          3D

 37 39  0  0  0  0  0  0  0  0999 V2000
   60.4530   33.2780   48.9170 O   0  0  0  0  0  0  0  0  0  0  0  0
   59.5190   33.2140   48.0750 C   0  0  0  0  0  0  0  0  0  0  0  0
   58.7320   32.1970   47.5690 C   0  0  0  0  0  0  0  0  0  0  0  0
   58.6480   30.7920   47.8260 N   0  0  0  0  0  0  0  0  0  0  0  0
   58.9570   29.7930   46.8440 C   0  0  0  0  0  0  0  0  0  0  0  0
   60.0780   29.9570   46.0170 C   0  0  0  0  0  0  0  0  0  0  0  0
   60.3850   28.9950   45.0500 C   0  0  0  0  0  0  0  0  0  0  0  0
   59.5660   27.8740   44.8910 C   0  0  0  0  0  0  0  0  0  0  0  0
   58.4300   27.7200   45.6930 C   0  0  0  0  0  0  0  0  0  0  0  0
   58.1210   28.6790   46.6600 C   0  0  0  0  0  0  0  0  0  0  0  0
   58.0480   33.1220   46.7890 C   0  0  0  0  0  0  0  0  0  0  0  0
   56.9420   33.0880   45.8730 N   0  0  0  0  0  0  0  0  0  0  0  0
   57.3900   32.8740   44.4820 C   0  0  0  0  0  0  0  0  0  0  0  0
   57.4510   31.3850   44.0770 C   0  0  2  0  0  0  0  0  0  0  0  0
   57.0810   31.1470   42.6160 C   0  0  0  0  0  0  0  0  0  0  0  0
   56.4030   29.8150   42.6590 C   0  0  0  0  0  0  0  0  0  0  0  0
   55.8640   29.7510   44.0720 C   0  0  0  0  0  0  0  0  0  0  0  0
   56.6250   30.5950   44.9050 O   0  0  0  0  0  0  0  0  0  0  0  0
   58.8680   34.1250   47.2720 C   0  0  0  0  0  0  0  0  0  0  0  0
   58.9660   35.3640   47.0730 O   0  0  0  0  0  0  0  0  0  0  0  0
   58.2800   30.4870   48.7550 H   0  0  0  0  0  0  0  0  0  0  0  0
   60.7174   30.8450   46.1296 H   0  0  0  0  0  0  0  0  0  0  0  0
   61.2730   29.1208   44.4131 H   0  0  0  0  0  0  0  0  0  0  0  0
   59.8142   27.1134   44.1361 H   0  0  0  0  0  0  0  0  0  0  0  0
   57.7796   26.8427   45.5617 H   0  0  0  0  0  0  0  0  0  0  0  0
   57.2198   28.5617   47.2798 H   0  0  0  0  0  0  0  0  0  0  0  0
   56.2760   32.3420   46.1750 H   0  0  0  0  0  0  0  0  0  0  0  0
   56.4380   34.0000   45.9340 H   0  0  0  0  0  0  0  0  0  0  0  0
   56.6907   33.3899   43.8076 H   0  0  0  0  0  0  0  0  0  0  0  0
   58.4126   33.2722   44.4064 H   0  0  0  0  0  0  0  0  0  0  0  0
   58.5009   31.0842   44.2085 H   0  0  0  0  0  0  0  0  0  0  0  0
   56.3986   31.9273   42.2479 H   0  0  0  0  0  0  0  0  0  0  0  0
   57.9465   31.1735   41.9376 H   0  0  0  0  0  0  0  0  0  0  0  0
   55.5877   29.7627   41.9224 H   0  0  0  0  0  0  0  0  0  0  0  0
   57.0748   28.9792   42.4137 H   0  0  0  0  0  0  0  0  0  0  0  0
   54.8141   30.0791   44.0789 H   0  0  0  0  0  0  0  0  0  0  0  0
   55.9281   28.7170   44.4418 H   0  0  0  0  0  0  0  0  0  0  0  0
  1  2  2  0
  2  3  1  0
  3  4  1  0
  4  5  1  0
  5  6  2  0
  6  7  1  0
  7  8  2  0
  8  9  1  0
  9 10  2  0
  3 11  2  0
 11 12  1  0
 12 13  1  0
 13 14  1  0
 14 15  1  0
 15 16  1  0
 16 17  1  0
 17 18  1  0
 11 19  1  0
 19 20  2  0
 19  2  1  0
 10  5  1  0
 18 14  1  0
  4 21  1  0
  6 22  1  0
  7 23  1  0
  8 24  1  0
  9 25  1  0
 10 26  1  0
 12 27  1  0
 12 28  1  0
 13 29  1  0
 13 30  1  0
 14 31  1  6
 15 32  1  0
 15 33  1  0
 16 34  1  0
 16 35  1  0
 17 36  1  0
 17 37  1  0
M  CHG  1  12   1
M  END
>  <UniqueID>  (34) 
32

>  <SMILES>  (34) 
O=c1c(Nc2ccccc2)c([NH2+]C[C@@H]2CCCO2)c1=O

>  <Energy>  (34) 
32.265591406855926

>  <Genealogy>  (34) 
O=c1c(Nc2ccccc2)c([NH2+]CC2CCCO2)c1=O (protonated)
O=c1c(Nc2ccccc2)c([NH2+]C[C@@H]2CCCO2)c1=O (chirality)
O=c1c(Nc2ccccc2)c([NH2+]C[C@@H]2CCCO2)c1=O (3D coordinates assigned)
O=c1c(Nc2ccccc2)c([NH2+]C[C@@H]2CCCO2)c1=O (nonaromatic ring conformer: 32.265591406855926 kcal/mol)

>  <smiles>  (34) 
O=c1c(NCC2CCCO2)c(Nc2ccccc2)c1=O

>  <score_type>  (34) 
oracle

>  <origin>  (34) 
adg

>  <m_score__min__energy>  (34) 
-5.3899999999999997

>  <m_primary>  (34) 
energy

$$$$
34:0
     RDKit          3D

 40 43  0  0  0  0  0  0  0  0999 V2000
   59.2820   34.6890   44.6110 C   0  0  0  0  0  0  0  0  0  0  0  0
   58.7550   34.5040   45.9730 N   0  0  0  0  0  0  0  0  0  0  0  0
   57.3180   34.1420   45.9760 C   0  0  0  0  0  0  0  0  0  0  0  0
   57.0380   32.7570   45.3510 C   0  0  0  0  0  0  0  0  0  0  0  0
   58.0520   31.7410   45.7990 C   0  0  0  0  0  0  0  0  0  0  0  0
   59.2470   32.1270   46.3980 C   0  0  0  0  0  0  0  0  0  0  0  0
   60.1940   30.7720   46.7540 S   0  0  0  0  0  0  0  0  0  0  0  0
   59.0910   29.6890   46.0980 C   0  0  0  0  0  0  0  0  0  0  0  0
   59.2270   28.3450   46.0230 N   0  0  0  0  0  0  0  0  0  0  0  0
   58.2330   27.6110   45.4470 C   0  0  0  0  0  0  0  0  0  0  0  0
   58.3550   26.1220   45.3590 C   0  0  0  0  0  0  0  0  0  0  0  0
   57.3570   25.5790   44.4370 N   0  0  0  0  0  0  0  0  0  0  0  0
   57.2660   24.1920   44.0570 C   0  0  0  0  0  0  0  0  0  0  0  0
   58.1210   23.2590   44.6670 C   0  0  0  0  0  0  0  0  0  0  0  0
   58.0610   21.9060   44.3180 C   0  0  0  0  0  0  0  0  0  0  0  0
   57.1440   21.4710   43.3580 C   0  0  0  0  0  0  0  0  0  0  0  0
   56.2850   22.3870   42.7490 C   0  0  0  0  0  0  0  0  0  0  0  0
   56.3400   23.7400   43.0950 C   0  0  0  0  0  0  0  0  0  0  0  0
   57.1250   28.2350   44.9400 N   0  0  0  0  0  0  0  0  0  0  0  0
   56.9730   29.5870   45.0040 C   0  0  0  0  0  0  0  0  0  0  0  0
   55.9420   30.1230   44.5230 O   0  0  0  0  0  0  0  0  0  0  0  0
   57.9790   30.3500   45.6080 C   0  0  0  0  0  0  0  0  0  0  0  0
   59.5700   33.5460   46.7550 C   0  0  0  0  0  0  0  0  0  0  0  0
   60.3186   35.0529   44.6652 H   0  0  0  0  0  0  0  0  0  0  0  0
   59.2581   33.7287   44.0750 H   0  0  0  0  0  0  0  0  0  0  0  0
   58.6631   35.4236   44.0750 H   0  0  0  0  0  0  0  0  0  0  0  0
   56.9615   34.1345   47.0166 H   0  0  0  0  0  0  0  0  0  0  0  0
   56.7914   34.8892   45.3642 H   0  0  0  0  0  0  0  0  0  0  0  0
   56.0358   32.4219   45.6564 H   0  0  0  0  0  0  0  0  0  0  0  0
   57.1000   32.8506   44.2568 H   0  0  0  0  0  0  0  0  0  0  0  0
   59.3609   25.8621   44.9976 H   0  0  0  0  0  0  0  0  0  0  0  0
   58.1876   25.6920   46.3575 H   0  0  0  0  0  0  0  0  0  0  0  0
   56.6500   26.2480   44.0550 H   0  0  0  0  0  0  0  0  0  0  0  0
   58.8435   23.5953   45.4252 H   0  0  0  0  0  0  0  0  0  0  0  0
   58.7364   21.1837   44.7998 H   0  0  0  0  0  0  0  0  0  0  0  0
   57.0990   20.4071   43.0823 H   0  0  0  0  0  0  0  0  0  0  0  0
   55.5624   22.0430   41.9943 H   0  0  0  0  0  0  0  0  0  0  0  0
   55.6572   24.4559   42.6142 H   0  0  0  0  0  0  0  0  0  0  0  0
   59.3708   33.6989   47.8260 H   0  0  0  0  0  0  0  0  0  0  0  0
   60.6300   33.7264   46.5229 H   0  0  0  0  0  0  0  0  0  0  0  0
  1  2  1  0
  2  3  1  0
  3  4  1  0
  4  5  1  0
  5  6  2  0
  6  7  1  0
  7  8  1  0
  8  9  1  0
  9 10  2  0
 10 11  1  0
 11 12  1  0
 12 13  1  0
 13 14  2  0
 14 15  1  0
 15 16  2  0
 16 17  1  0
 17 18  2  0
 10 19  1  0
 19 20  1  0
 20 21  2  0
 20 22  1  0
  6 23  1  0
 23  2  1  0
 22  5  1  0
 22  8  2  0
 18 13  1  0
  1 24  1  0
  1 25  1  0
  1 26  1  0
  3 27  1  0
  3 28  1  0
  4 29  1  0
  4 30  1  0
 11 31  1  0
 11 32  1  0
 12 33  1  0
 14 34  1  0
 15 35  1  0
 16 36  1  0
 17 37  1  0
 18 38  1  0
 23 39  1  0
 23 40  1  0
M  CHG  1  19  -1
M  END
>  <UniqueID>  (35) 
33

>  <SMILES>  (35) 
CN1CCc2c(sc3nc(CNc4ccccc4)[n-]c(=O)c23)C1

>  <Energy>  (35) 
82.01750084307679

>  <Genealogy>  (35) 
CN1CCc2c(sc3nc(CNc4ccccc4)[n-]c(=O)c23)C1 (protonated)
CN1CCc2c(sc3nc(CNc4ccccc4)[n-]c(=O)c23)C1 (3D coordinates assigned)
CN1CCc2c(sc3nc(CNc4ccccc4)[n-]c(=O)c23)C1 (nonaromatic ring conformer: 82.01750084307679 kcal/mol)

>  <smiles>  (35) 
CN1CCc2c(sc3nc(CNc4ccccc4)[nH]c(=O)c23)C1

>  <score_type>  (35) 
oracle

>  <origin>  (35) 
adg

>  <m_score__min__energy>  (35) 
-9.2899999999999991

>  <m_primary>  (35) 
energy

$$$$
35:0
     RDKit          3D

 45 48  0  0  0  0  0  0  0  0999 V2000
   55.9120   19.6320   44.1720 C   0  0  0  0  0  0  0  0  0  0  0  0
   56.1140   20.9010   43.5580 O   0  0  0  0  0  0  0  0  0  0  0  0
   56.8810   21.9410   44.1080 C   0  0  0  0  0  0  0  0  0  0  0  0
   58.2550   21.7850   44.3740 C   0  0  0  0  0  0  0  0  0  0  0  0
   58.9920   22.8300   44.9320 C   0  0  0  0  0  0  0  0  0  0  0  0
   58.3680   24.0470   45.2420 C   0  0  0  0  0  0  0  0  0  0  0  0
   59.1060   25.1470   45.7920 N   0  0  0  0  0  0  0  0  0  0  0  0
   58.6310   26.0570   46.7910 C   0  0  0  0  0  0  0  0  0  0  0  0
   58.4140   25.6240   47.9530 O   0  0  0  0  0  0  0  0  0  0  0  0
   58.4560   27.4970   46.5130 C   0  0  0  0  0  0  0  0  0  0  0  0
   59.3400   28.5030   46.9150 C   0  0  0  0  0  0  0  0  0  0  0  0
   58.9410   29.7670   46.4710 C   0  0  0  0  0  0  0  0  0  0  0  0
   59.5920   30.9790   46.7030 C   0  0  0  0  0  0  0  0  0  0  0  0
   59.0330   32.1540   46.1660 C   0  0  0  0  0  0  0  0  0  0  0  0
   59.6420   33.4010   46.3650 C   0  0  0  0  0  0  0  0  0  0  0  0
   59.0690   34.5550   45.8210 C   0  0  0  0  0  0  0  0  0  0  0  0
   57.8880   34.4730   45.0760 C   0  0  0  0  0  0  0  0  0  0  0  0
   57.2690   33.2350   44.8680 C   0  0  0  0  0  0  0  0  0  0  0  0
   57.8300   32.0720   45.4060 C   0  0  0  0  0  0  0  0  0  0  0  0
   57.2250   30.8660   45.2010 N   0  0  0  0  0  0  0  0  0  0  0  0
   57.7770   29.7460   45.7280 C   0  0  0  0  0  0  0  0  0  0  0  0
   57.2030   28.1780   45.5900 S   0  0  0  0  0  0  0  0  0  0  0  0
   57.0110   24.2170   44.9550 C   0  0  0  0  0  0  0  0  0  0  0  0
   56.2510   23.1670   44.4060 C   0  0  0  0  0  0  0  0  0  0  0  0
   54.8500   23.3360   44.1220 N   0  0  0  0  0  0  0  0  0  0  0  0
   53.6620   23.7240   45.3270 S   0  0  0  0  0  0  0  0  0  0  0  0
   53.9840   22.8130   46.8240 C   0  0  0  0  0  0  0  0  0  0  0  0
   53.6690   25.2010   45.6020 O   0  0  0  0  0  0  0  0  0  0  0  0
   52.3040   23.3310   44.8160 O   0  0  0  0  0  0  0  0  0  0  0  0
   55.9303   19.7469   45.2658 H   0  0  0  0  0  0  0  0  0  0  0  0
   54.9379   19.2257   43.8622 H   0  0  0  0  0  0  0  0  0  0  0  0
   56.7118   18.9433   43.8622 H   0  0  0  0  0  0  0  0  0  0  0  0
   58.7512   20.8316   44.1400 H   0  0  0  0  0  0  0  0  0  0  0  0
   60.0662   22.6988   45.1294 H   0  0  0  0  0  0  0  0  0  0  0  0
   60.2456   28.3207   47.5122 H   0  0  0  0  0  0  0  0  0  0  0  0
   60.5204   31.0155   47.2918 H   0  0  0  0  0  0  0  0  0  0  0  0
   60.5712   33.4718   46.9494 H   0  0  0  0  0  0  0  0  0  0  0  0
   59.5494   35.5318   45.9798 H   0  0  0  0  0  0  0  0  0  0  0  0
   57.4438   35.3855   44.6517 H   0  0  0  0  0  0  0  0  0  0  0  0
   56.3406   33.1766   44.2810 H   0  0  0  0  0  0  0  0  0  0  0  0
   56.5301   25.1846   45.1609 H   0  0  0  0  0  0  0  0  0  0  0  0
   54.4860   23.0990   43.1720 H   0  0  0  0  0  0  0  0  0  0  0  0
   53.7599   23.4471   47.6945 H   0  0  0  0  0  0  0  0  0  0  0  0
   53.3487   21.9154   46.8509 H   0  0  0  0  0  0  0  0  0  0  0  0
   55.0423   22.5141   46.8509 H   0  0  0  0  0  0  0  0  0  0  0  0
  1  2  1  0
  2  3  1  0
  3  4  2  0
  4  5  1  0
  5  6  2  0
  6  7  1  0
  7  8  1  0
  8  9  2  0
  8 10  1  0
 10 11  2  0
 11 12  1  0
 12 13  2  0
 13 14  1  0
 14 15  2  0
 15 16  1  0
 16 17  2  0
 17 18  1  0
 18 19  2  0
 19 20  1  0
 20 21  2  0
 21 22  1  0
  6 23  1  0
 23 24  2  0
 24 25  1  0
 25 26  1  0
 26 27  1  0
 26 28  2  0
 26 29  2  0
 24  3  1  0
 22 10  1  0
 21 12  1  0
 19 14  1  0
  1 30  1  0
  1 31  1  0
  1 32  1  0
  4 33  1  0
  5 34  1  0
 11 35  1  0
 13 36  1  0
 15 37  1  0
 16 38  1  0
 17 39  1  0
 18 40  1  0
 23 41  1  0
 25 42  1  0
 27 43  1  0
 27 44  1  0
 27 45  1  0
M  CHG  1   7  -1
M  END
>  <UniqueID>  (36) 
34

>  <SMILES>  (36) 
COc1ccc([N-]C(=O)c2cc3cc4ccccc4nc3s2)cc1NS(C)(=O)=O

>  <Energy>  (36) 
88.59964709909902

>  <Genealogy>  (36) 
COc1ccc([N-]C(=O)c2cc3cc4ccccc4nc3s2)cc1NS(C)(=O)=O (protonated)
COc1ccc([N-]C(=O)c2cc3cc4ccccc4nc3s2)cc1NS(C)(=O)=O (3D coordinates assigned)
COc1ccc([N-]C(=O)c2cc3cc4ccccc4nc3s2)cc1NS(C)(=O)=O (optimized conformer: 88.59964709909902 kcal/mol)

>  <smiles>  (36) 
COc1ccc(NC(=O)c2cc3cc4ccccc4nc3s2)cc1NS(C)(=O)=O

>  <score_type>  (36) 
oracle

>  <origin>  (36) 
adg

>  <m_score__min__energy>  (36) 
-10.369999999999999

>  <m_primary>  (36) 
energy

$$$$
36:0
     RDKit          3D

 40 42  0  0  0  0  0  0  0  0999 V2000
   55.5110   26.7060   45.9870 O   0  0  0  0  0  0  0  0  0  0  0  0
   56.2940   27.6190   45.6200 C   0  0  0  0  0  0  0  0  0  0  0  0
   55.7470   28.8790   45.2080 N   0  0  0  0  0  0  0  0  0  0  0  0
   56.4750   29.9290   44.5550 C   0  0  0  0  0  0  0  0  0  0  0  0
   57.3880   30.6870   45.2990 C   0  0  0  0  0  0  0  0  0  0  0  0
   58.1150   31.7130   44.6870 C   0  0  0  0  0  0  0  0  0  0  0  0
   57.9520   31.9700   43.3230 C   0  0  0  0  0  0  0  0  0  0  0  0
   57.0630   31.1990   42.5690 C   0  0  0  0  0  0  0  0  0  0  0  0
   56.9360   31.4210   41.2380 F   0  0  0  0  0  0  0  0  0  0  0  0
   56.3210   30.1840   43.1810 C   0  0  0  0  0  0  0  0  0  0  0  0
   57.7060   27.3690   45.6240 N   0  0  0  0  0  0  0  0  0  0  0  0
   58.7130   28.1900   46.2340 C   0  0  0  0  0  0  0  0  0  0  0  0
   59.6850   28.7820   45.4210 C   0  0  0  0  0  0  0  0  0  0  0  0
   60.6750   29.5980   45.9780 C   0  0  0  0  0  0  0  0  0  0  0  0
   60.7130   29.8240   47.3680 C   0  0  0  0  0  0  0  0  0  0  0  0
   61.6980   30.6140   47.9850 O   0  0  0  0  0  0  0  0  0  0  0  0
   62.2510   31.8320   47.4820 C   0  0  0  0  0  0  0  0  0  0  0  0
   61.6580   33.0480   48.2030 C   0  0  0  0  0  0  0  0  0  0  0  0
   60.4550   33.5340   47.5320 N   0  0  0  0  0  0  0  0  0  0  0  0
   60.3880   34.2920   46.4250 C   0  0  0  0  0  0  0  0  0  0  0  0
   59.0560   34.5030   46.1420 C   0  0  0  0  0  0  0  0  0  0  0  0
   58.2920   33.8830   47.0650 N   0  0  0  0  0  0  0  0  0  0  0  0
   59.1790   33.3030   47.8980 C   0  0  0  0  0  0  0  0  0  0  0  0
   59.7160   29.2550   48.1760 C   0  0  0  0  0  0  0  0  0  0  0  0
   59.7100   29.5340   49.9110 Cl  0  0  0  0  0  0  0  0  0  0  0  0
   58.7140   28.4610   47.6110 C   0  0  0  0  0  0  0  0  0  0  0  0
   57.5337   30.4746   46.3684 H   0  0  0  0  0  0  0  0  0  0  0  0
   58.8161   32.3186   45.2801 H   0  0  0  0  0  0  0  0  0  0  0  0
   58.5230   32.7785   42.8432 H   0  0  0  0  0  0  0  0  0  0  0  0
   55.6159   29.5843   42.5867 H   0  0  0  0  0  0  0  0  0  0  0  0
   59.6707   28.6045   44.3355 H   0  0  0  0  0  0  0  0  0  0  0  0
   61.4282   30.0659   45.3270 H   0  0  0  0  0  0  0  0  0  0  0  0
   63.3405   31.8210   47.6332 H   0  0  0  0  0  0  0  0  0  0  0  0
   62.0093   31.9090   46.4116 H   0  0  0  0  0  0  0  0  0  0  0  0
   61.4016   32.7624   49.2339 H   0  0  0  0  0  0  0  0  0  0  0  0
   62.4071   33.8534   48.1946 H   0  0  0  0  0  0  0  0  0  0  0  0
   61.2426   34.6753   45.8482 H   0  0  0  0  0  0  0  0  0  0  0  0
   58.6737   35.0881   45.2926 H   0  0  0  0  0  0  0  0  0  0  0  0
   58.8932   32.7079   48.7778 H   0  0  0  0  0  0  0  0  0  0  0  0
   57.9208   28.0457   48.2500 H   0  0  0  0  0  0  0  0  0  0  0  0
  1  2  2  0
  2  3  1  0
  3  4  1  0
  4  5  2  0
  5  6  1  0
  6  7  2  0
  7  8  1  0
  8  9  1  0
  8 10  2  0
  2 11  1  0
 11 12  1  0
 12 13  2  0
 13 14  1  0
 14 15  2  0
 15 16  1  0
 16 17  1  0
 17 18  1  0
 18 19  1  0
 19 20  1  0
 20 21  2  0
 21 22  1  0
 22 23  2  0
 15 24  1  0
 24 25  1  0
 24 26  2  0
 10  4  1  0
 26 12  1  0
 23 19  1  0
  5 27  1  0
  6 28  1  0
  7 29  1  0
 10 30  1  0
 13 31  1  0
 14 32  1  0
 17 33  1  0
 17 34  1  0
 18 35  1  0
 18 36  1  0
 20 37  1  0
 21 38  1  0
 23 39  1  0
 26 40  1  0
M  CHG  2   3  -1  11  -1
M  END
>  <UniqueID>  (37) 
35

>  <SMILES>  (37) 
O=C([N-]c1cccc(F)c1)[N-]c1ccc(OCCn2ccnc2)c(Cl)c1

>  <Energy>  (37) 
75.70221602655323

>  <Genealogy>  (37) 
O=C([N-]c1cccc(F)c1)[N-]c1ccc(OCCn2ccnc2)c(Cl)c1 (protonated)
O=C([N-]c1cccc(F)c1)[N-]c1ccc(OCCn2ccnc2)c(Cl)c1 (3D coordinates assigned)
O=C([N-]c1cccc(F)c1)[N-]c1ccc(OCCn2ccnc2)c(Cl)c1 (optimized conformer: 75.70221602655323 kcal/mol)

>  <smiles>  (37) 
O=C(Nc1cccc(F)c1)Nc1ccc(OCCn2ccnc2)c(Cl)c1

>  <score_type>  (37) 
oracle

>  <origin>  (37) 
adg

>  <m_score__min__energy>  (37) 
-10.529999999999999

>  <m_primary>  (37) 
energy

$$$$
37:0
     RDKit          3D

 45 46  0  0  0  0  0  0  0  0999 V2000
   56.6460   30.4250   42.6560 C   0  0  0  0  0  0  0  0  0  0  0  0
   55.9330   30.0760   43.9560 C   0  0  0  0  0  0  0  0  0  0  0  0
   56.6660   30.5630   45.0780 O   0  0  0  0  0  0  0  0  0  0  0  0
   58.0590   30.4850   45.1840 C   0  0  0  0  0  0  0  0  0  0  0  0
   58.6540   29.4150   44.8850 O   0  0  0  0  0  0  0  0  0  0  0  0
   58.8310   31.6580   45.6530 C   0  0  0  0  0  0  0  0  0  0  0  0
   58.5360   33.0010   45.4140 C   0  0  0  0  0  0  0  0  0  0  0  0
   57.3670   33.5410   44.6420 C   0  0  0  0  0  0  0  0  0  0  0  0
   59.5400   33.7450   46.0200 C   0  0  0  0  0  0  0  0  0  0  0  0
   59.6500   35.2410   46.0180 C   0  0  0  0  0  0  0  0  0  0  0  0
   60.4100   32.9120   46.6250 N   0  0  0  0  0  0  0  0  0  0  0  0
   61.5710   33.2970   47.3210 N   0  0  0  0  0  0  0  0  0  0  0  0
   62.8210   33.2320   46.8310 C   0  0  0  0  0  0  0  0  0  0  0  0
   63.7060   33.7170   47.7740 C   0  0  0  0  0  0  0  0  0  0  0  0
   62.9550   34.0880   48.8770 C   0  0  0  0  0  0  0  0  0  0  0  0
   61.6350   33.8140   48.5650 C   0  0  0  0  0  0  0  0  0  0  0  0
   60.4910   34.0310   49.4670 C   0  0  0  0  0  0  0  0  0  0  0  0
   59.6400   34.9280   49.2140 O   0  0  0  0  0  0  0  0  0  0  0  0
   60.3490   33.2260   50.6010 O   0  0  0  0  0  0  0  0  0  0  0  0
   59.7200   31.9490   50.5620 C   0  0  0  0  0  0  0  0  0  0  0  0
   58.5420   31.9920   49.6020 C   0  0  0  0  0  0  0  0  0  0  0  0
   60.0020   31.6450   46.4090 C   0  0  0  0  0  0  0  0  0  0  0  0
   60.7160   30.4280   46.9240 C   0  0  0  0  0  0  0  0  0  0  0  0
   57.6126   30.8981   42.8836 H   0  0  0  0  0  0  0  0  0  0  0  0
   56.8150   29.5078   42.0728 H   0  0  0  0  0  0  0  0  0  0  0  0
   56.0253   31.1211   42.0728 H   0  0  0  0  0  0  0  0  0  0  0  0
   54.9320   30.5321   43.9528 H   0  0  0  0  0  0  0  0  0  0  0  0
   55.8529   28.9816   44.0332 H   0  0  0  0  0  0  0  0  0  0  0  0
   56.5974   33.8965   45.3429 H   0  0  0  0  0  0  0  0  0  0  0  0
   57.7002   34.3764   44.0087 H   0  0  0  0  0  0  0  0  0  0  0  0
   56.9469   32.7457   44.0087 H   0  0  0  0  0  0  0  0  0  0  0  0
   59.6770   35.6081   47.0546 H   0  0  0  0  0  0  0  0  0  0  0  0
   60.5726   35.5401   45.4990 H   0  0  0  0  0  0  0  0  0  0  0  0
   58.7811   35.6719   45.4990 H   0  0  0  0  0  0  0  0  0  0  0  0
   63.0958   32.8524   45.8358 H   0  0  0  0  0  0  0  0  0  0  0  0
   64.7983   33.7939   47.6691 H   0  0  0  0  0  0  0  0  0  0  0  0
   63.3336   34.5164   49.8167 H   0  0  0  0  0  0  0  0  0  0  0  0
   60.4437   31.1943   50.2204 H   0  0  0  0  0  0  0  0  0  0  0  0
   59.3626   31.6860   51.5685 H   0  0  0  0  0  0  0  0  0  0  0  0
   57.6034   32.0263   50.1746 H   0  0  0  0  0  0  0  0  0  0  0  0
   58.6179   32.8880   48.9684 H   0  0  0  0  0  0  0  0  0  0  0  0
   58.5523   31.0929   48.9684 H   0  0  0  0  0  0  0  0  0  0  0  0
   60.7104   30.4376   48.0239 H   0  0  0  0  0  0  0  0  0  0  0  0
   60.2056   29.5231   46.5626 H   0  0  0  0  0  0  0  0  0  0  0  0
   61.7549   30.4321   46.5626 H   0  0  0  0  0  0  0  0  0  0  0  0
  1  2  1  0
  2  3  1  0
  3  4  1  0
  4  5  2  0
  4  6  1  0
  6  7  1  0
  7  8  1  0
  7  9  2  0
  9 10  1  0
  9 11  1  0
 11 12  1  0
 12 13  1  0
 13 14  2  0
 14 15  1  0
 15 16  2  0
 16 17  1  0
 17 18  2  0
 17 19  1  0
 19 20  1  0
 20 21  1  0
 11 22  1  0
 22 23  1  0
 22  6  2  0
 16 12  1  0
  1 24  1  0
  1 25  1  0
  1 26  1  0
  2 27  1  0
  2 28  1  0
  8 29  1  0
  8 30  1  0
  8 31  1  0
 10 32  1  0
 10 33  1  0
 10 34  1  0
 13 35  1  0
 14 36  1  0
 15 37  1  0
 20 38  1  0
 20 39  1  0
 21 40  1  0
 21 41  1  0
 21 42  1  0
 23 43  1  0
 23 44  1  0
 23 45  1  0
M  END
>  <UniqueID>  (38) 
36

>  <SMILES>  (38) 
CCOC(=O)c1c(C)c(C)n(-n2cccc2C(=O)OCC)c1C

>  <Energy>  (38) 
94.19646021540089

>  <Genealogy>  (38) 
CCOC(=O)c1c(C)c(C)n(-n2cccc2C(=O)OCC)c1C (3D coordinates assigned)
CCOC(=O)c1c(C)c(C)n(-n2cccc2C(=O)OCC)c1C (optimized conformer: 94.19646021540089 kcal/mol)

>  <smiles>  (38) 
CCOC(=O)c1c(C)c(C)n(-n2cccc2C(=O)OCC)c1C

>  <score_type>  (38) 
oracle

>  <origin>  (38) 
adg

>  <m_score__min__energy>  (38) 
-6.7000000000000002

>  <m_primary>  (38) 
energy

$$$$
38:0
     RDKit          3D

 57 61  0  0  0  0  0  0  0  0999 V2000
   57.8220   22.1770   46.5860 O   0  0  0  0  0  0  0  0  0  0  0  0
   58.5190   23.0610   46.0200 C   0  0  0  0  0  0  0  0  0  0  0  0
   59.7940   22.7330   45.5740 O   0  0  0  0  0  0  0  0  0  0  0  0
   57.9860   24.4280   45.8290 C   0  0  0  0  0  0  0  0  0  0  0  0
   56.5830   24.6460   45.7840 C   0  0  0  0  0  0  0  0  0  0  0  0
   56.0600   25.9390   45.6050 C   0  0  0  0  0  0  0  0  0  0  0  0
   56.9570   26.9960   45.4720 C   0  0  0  0  0  0  0  0  0  0  0  0
   58.3170   26.7960   45.5160 C   0  0  0  0  0  0  0  0  0  0  0  0
   58.8650   25.5270   45.6910 C   0  0  0  0  0  0  0  0  0  0  0  0
   58.9620   28.0950   45.3540 C   0  0  0  0  0  0  0  0  0  0  0  0
   60.2050   28.2900   45.2980 O   0  0  0  0  0  0  0  0  0  0  0  0
   57.9710   29.1200   45.2120 N   0  0  0  0  0  0  0  0  0  0  0  0
   58.1810   30.5360   45.0680 C   0  0  0  0  0  0  0  0  0  0  0  0
   57.5690   31.2410   44.0200 C   0  0  0  0  0  0  0  0  0  0  0  0
   57.7710   32.6160   43.8830 C   0  0  0  0  0  0  0  0  0  0  0  0
   58.5780   33.3020   44.7920 C   0  0  0  0  0  0  0  0  0  0  0  0
   59.1950   32.6180   45.8540 C   0  0  0  0  0  0  0  0  0  0  0  0
   60.0570   33.3380   46.8220 C   0  0  0  0  0  0  0  0  0  0  0  0
   59.5780   34.2970   47.4850 O   0  0  0  0  0  0  0  0  0  0  0  0
   61.4440   32.9890   46.9740 N   0  0  0  0  0  0  0  0  0  0  0  0
   62.2350   33.3540   48.1170 C   0  0  0  0  0  0  0  0  0  0  0  0
   63.6210   33.1400   48.0930 C   0  0  0  0  0  0  0  0  0  0  0  0
   64.4090   33.4700   49.2010 C   0  0  0  0  0  0  0  0  0  0  0  0
   63.8200   33.9900   50.3640 C   0  0  0  0  0  0  0  0  0  0  0  0
   64.6740   34.3670   51.5580 C   0  0  0  0  0  0  0  0  0  0  0  0
   65.9000   33.5560   51.7310 N   0  0  0  0  0  0  0  0  0  0  0  0
   65.7340   32.1110   51.5790 C   0  0  0  0  0  0  0  0  0  0  0  0
   67.1310   31.5520   51.3500 C   0  0  0  0  0  0  0  0  0  0  0  0
   67.9740   32.7370   50.8950 C   0  0  0  0  0  0  0  0  0  0  0  0
   67.0260   33.9260   50.8740 C   0  0  0  0  0  0  0  0  0  0  0  0
   62.4320   34.2050   50.3870 C   0  0  0  0  0  0  0  0  0  0  0  0
   61.6440   33.8790   49.2800 C   0  0  0  0  0  0  0  0  0  0  0  0
   58.9950   31.2310   45.9780 C   0  0  0  0  0  0  0  0  0  0  0  0
   56.7210   28.4230   45.2880 C   0  0  0  0  0  0  0  0  0  0  0  0
   55.5910   28.9780   45.2530 O   0  0  0  0  0  0  0  0  0  0  0  0
   55.8971   23.7927   45.8905 H   0  0  0  0  0  0  0  0  0  0  0  0
   54.9740   26.1106   45.5710 H   0  0  0  0  0  0  0  0  0  0  0  0
   59.9552   25.3835   45.7211 H   0  0  0  0  0  0  0  0  0  0  0  0
   56.9272   30.7079   43.3031 H   0  0  0  0  0  0  0  0  0  0  0  0
   57.2924   33.1604   43.0557 H   0  0  0  0  0  0  0  0  0  0  0  0
   58.7322   34.3850   44.6767 H   0  0  0  0  0  0  0  0  0  0  0  0
   61.9330   32.5550   46.1590 H   0  0  0  0  0  0  0  0  0  0  0  0
   64.0917   32.7097   47.1968 H   0  0  0  0  0  0  0  0  0  0  0  0
   65.4981   33.3208   49.1603 H   0  0  0  0  0  0  0  0  0  0  0  0
   64.9741   35.4192   51.4444 H   0  0  0  0  0  0  0  0  0  0  0  0
   64.0554   34.1831   52.4488 H   0  0  0  0  0  0  0  0  0  0  0  0
   65.2935   31.6787   52.4895 H   0  0  0  0  0  0  0  0  0  0  0  0
   65.0600   31.8677   50.7444 H   0  0  0  0  0  0  0  0  0  0  0  0
   67.5335   31.1293   52.2823 H   0  0  0  0  0  0  0  0  0  0  0  0
   67.1296   30.7423   50.6054 H   0  0  0  0  0  0  0  0  0  0  0  0
   68.7988   32.9154   51.6006 H   0  0  0  0  0  0  0  0  0  0  0  0
   68.4283   32.5599   49.9090 H   0  0  0  0  0  0  0  0  0  0  0  0
   67.5278   34.8224   51.2673 H   0  0  0  0  0  0  0  0  0  0  0  0
   66.6953   34.1608   49.8515 H   0  0  0  0  0  0  0  0  0  0  0  0
   61.9614   34.6336   51.2841 H   0  0  0  0  0  0  0  0  0  0  0  0
   60.5556   34.0339   49.3185 H   0  0  0  0  0  0  0  0  0  0  0  0
   59.4823   30.6835   46.7982 H   0  0  0  0  0  0  0  0  0  0  0  0
  1  2  2  0
  2  3  1  0
  2  4  1  0
  4  5  2  0
  5  6  1  0
  6  7  2  0
  7  8  1  0
  8  9  2  0
  8 10  1  0
 10 11  2  0
 10 12  1  0
 12 13  1  0
 13 14  2  0
 14 15  1  0
 15 16  2  0
 16 17  1  0
 17 18  1  0
 18 19  2  0
 18 20  1  0
 20 21  1  0
 21 22  2  0
 22 23  1  0
 23 24  2  0
 24 25  1  0
 25 26  1  0
 26 27  1  0
 27 28  1  0
 28 29  1  0
 29 30  1  0
 24 31  1  0
 31 32  2  0
 17 33  2  0
 12 34  1  0
 34 35  2  0
  9  4  1  0
 33 13  1  0
 34  7  1  0
 32 21  1  0
 30 26  1  0
  5 36  1  0
  6 37  1  0
  9 38  1  0
 14 39  1  0
 15 40  1  0
 16 41  1  0
 20 42  1  0
 22 43  1  0
 23 44  1  0
 25 45  1  0
 25 46  1  0
 27 47  1  0
 27 48  1  0
 28 49  1  0
 28 50  1  0
 29 51  1  0
 29 52  1  0
 30 53  1  0
 30 54  1  0
 31 55  1  0
 32 56  1  0
 33 57  1  0
M  CHG  1   3  -1
M  END
>  <UniqueID>  (39) 
37

>  <SMILES>  (39) 
O=C([O-])c1ccc2c(c1)C(=O)N(c1cccc(C(=O)Nc3ccc(CN4CCCC4)cc3)c1)C2=O

>  <Energy>  (39) 
112.44341070472022

>  <Genealogy>  (39) 
O=C([O-])c1ccc2c(c1)C(=O)N(c1cccc(C(=O)Nc3ccc(CN4CCCC4)cc3)c1)C2=O (protonated)
O=C([O-])c1ccc2c(c1)C(=O)N(c1cccc(C(=O)Nc3ccc(CN4CCCC4)cc3)c1)C2=O (3D coordinates assigned)
O=C([O-])c1ccc2c(c1)C(=O)N(c1cccc(C(=O)Nc3ccc(CN4CCCC4)cc3)c1)C2=O (nonaromatic ring conformer: 112.44341070472022 kcal/mol)

>  <smiles>  (39) 
O=C(O)c1ccc2c(c1)C(=O)N(c1cccc(C(=O)Nc3ccc(CN4CCCC4)cc3)c1)C2=O

>  <score_type>  (39) 
oracle

>  <origin>  (39) 
adg

>  <m_score__min__energy>  (39) 
-10.82

>  <m_primary>  (39) 
energy

$$$$
39:0
     RDKit          3D

 44 46  0  0  0  0  0  0  0  0999 V2000
   57.6950   22.1400   46.4630 N   0  0  0  0  0  0  0  0  0  0  0  0
   57.5390   23.4190   45.8470 C   0  0  0  0  0  0  0  0  0  0  0  0
   57.3080   23.4980   44.2240 S   0  0  0  0  0  0  0  0  0  0  0  0
   57.3860   24.5840   46.6740 N   0  0  0  0  0  0  0  0  0  0  0  0
   57.6220   25.9330   46.2360 C   0  0  0  0  0  0  0  0  0  0  0  0
   58.9370   26.4160   46.1730 C   0  0  0  0  0  0  0  0  0  0  0  0
   59.1910   27.7210   45.7460 C   0  0  0  0  0  0  0  0  0  0  0  0
   58.1340   28.5470   45.3530 C   0  0  0  0  0  0  0  0  0  0  0  0
   56.8200   28.0670   45.3590 C   0  0  0  0  0  0  0  0  0  0  0  0
   55.7640   28.9510   44.9510 N   0  0  0  0  0  0  0  0  0  0  0  0
   55.9060   30.1460   44.1760 C   0  0  0  0  0  0  0  0  0  0  0  0
   56.0280   30.0850   42.9230 O   0  0  0  0  0  0  0  0  0  0  0  0
   56.0150   31.4010   44.8560 N   0  0  0  0  0  0  0  0  0  0  0  0
   57.2320   32.0740   45.2140 C   0  0  0  0  0  0  0  0  0  0  0  0
   58.0240   31.6570   46.2980 C   0  0  0  0  0  0  0  0  0  0  0  0
   59.2150   32.3280   46.5990 C   0  0  0  0  0  0  0  0  0  0  0  0
   59.6460   33.4020   45.8070 C   0  0  0  0  0  0  0  0  0  0  0  0
   60.8570   34.0930   46.1540 N   0  0  0  0  0  0  0  0  0  0  0  0
   61.9820   33.4790   46.7990 C   0  0  0  0  0  0  0  0  0  0  0  0
   61.8940   32.4430   47.5600 N   0  0  0  0  0  0  0  0  0  0  0  0
   63.1970   32.1210   48.1240 C   0  0  0  0  0  0  0  0  0  0  0  0
   64.1420   33.2010   47.5660 C   0  0  0  0  0  0  0  0  0  0  0  0
   63.2810   34.0290   46.7430 N   0  0  0  0  0  0  0  0  0  0  0  0
   58.8510   33.8160   44.7250 C   0  0  0  0  0  0  0  0  0  0  0  0
   57.6630   33.1460   44.4230 C   0  0  0  0  0  0  0  0  0  0  0  0
   56.5650   26.7600   45.8130 C   0  0  0  0  0  0  0  0  0  0  0  0
   57.7400   21.2700   45.8870 H   0  0  0  0  0  0  0  0  0  0  0  0
   57.7820   22.0610   47.5000 H   0  0  0  0  0  0  0  0  0  0  0  0
   57.0530   24.4400   47.6530 H   0  0  0  0  0  0  0  0  0  0  0  0
   59.7736   25.7628   46.4618 H   0  0  0  0  0  0  0  0  0  0  0  0
   60.2236   28.0993   45.7189 H   0  0  0  0  0  0  0  0  0  0  0  0
   58.3367   29.5810   45.0370 H   0  0  0  0  0  0  0  0  0  0  0  0
   57.7068   30.8008   46.9115 H   0  0  0  0  0  0  0  0  0  0  0  0
   59.8172   32.0105   47.4630 H   0  0  0  0  0  0  0  0  0  0  0  0
   60.9240   35.1130   45.9380 H   0  0  0  0  0  0  0  0  0  0  0  0
   61.0120   31.9330   47.7860 H   0  0  0  0  0  0  0  0  0  0  0  0
   63.1653   32.1633   49.2227 H   0  0  0  0  0  0  0  0  0  0  0  0
   63.5249   31.1046   47.8606 H   0  0  0  0  0  0  0  0  0  0  0  0
   64.5877   33.7898   48.3813 H   0  0  0  0  0  0  0  0  0  0  0  0
   64.9853   32.7756   47.0022 H   0  0  0  0  0  0  0  0  0  0  0  0
   63.5700   34.8770   46.2070 H   0  0  0  0  0  0  0  0  0  0  0  0
   59.1661   34.6732   44.1118 H   0  0  0  0  0  0  0  0  0  0  0  0
   57.0620   33.4627   43.5579 H   0  0  0  0  0  0  0  0  0  0  0  0
   55.5323   26.3820   45.8375 H   0  0  0  0  0  0  0  0  0  0  0  0
  1  2  1  0
  2  3  2  0
  2  4  1  0
  4  5  1  0
  5  6  2  0
  6  7  1  0
  7  8  2  0
  8  9  1  0
  9 10  1  0
 10 11  1  0
 11 12  2  0
 11 13  1  0
 13 14  1  0
 14 15  2  0
 15 16  1  0
 16 17  2  0
 17 18  1  0
 18 19  1  0
 19 20  2  0
 20 21  1  0
 21 22  1  0
 22 23  1  0
 17 24  1  0
 24 25  2  0
  9 26  2  0
 26  5  1  0
 25 14  1  0
 23 19  1  0
  1 27  1  0
  1 28  1  0
  4 29  1  0
  6 30  1  0
  7 31  1  0
  8 32  1  0
 15 33  1  0
 16 34  1  0
 18 35  1  0
 20 36  1  0
 21 37  1  0
 21 38  1  0
 22 39  1  0
 22 40  1  0
 23 41  1  0
 24 42  1  0
 25 43  1  0
 26 44  1  0
M  CHG  3  10  -1  13  -1  20   1
M  END
>  <UniqueID>  (40) 
38

>  <SMILES>  (40) 
NC(=S)Nc1cccc([N-]C(=O)[N-]c2ccc(NC3=[NH+]CCN3)cc2)c1

>  <Energy>  (40) 
70.64572981724656

>  <Genealogy>  (40) 
NC(=S)Nc1cccc([N-]C(=O)[N-]c2ccc(NC3=[NH+]CCN3)cc2)c1 (protonated)
NC(=S)Nc1cccc([N-]C(=O)[N-]c2ccc(NC3=[NH+]CCN3)cc2)c1 (3D coordinates assigned)
NC(=S)Nc1cccc([N-]C(=O)[N-]c2ccc(NC3=[NH+]CCN3)cc2)c1 (nonaromatic ring conformer: 70.64572981724656 kcal/mol)

>  <smiles>  (40) 
NC(=S)Nc1cccc(NC(=O)Nc2ccc(NC3=NCCN3)cc2)c1

>  <score_type>  (40) 
oracle

>  <origin>  (40) 
adg

>  <m_score__min__energy>  (40) 
-9.5299999999999994

>  <m_primary>  (40) 
energy

$$$$
40:0
     RDKit          3D

 46 48  0  0  1  0  0  0  0  0999 V2000
   59.9380   34.5620   49.0240 C   0  0  0  0  0  0  0  0  0  0  0  0
   59.3200   34.9410   47.8600 O   0  0  0  0  0  0  0  0  0  0  0  0
   58.9360   34.1860   46.7940 C   0  0  0  0  0  0  0  0  0  0  0  0
   58.5150   32.8710   47.1180 C   0  0  0  0  0  0  0  0  0  0  0  0
   58.1180   32.0470   46.1310 C   0  0  0  0  0  0  0  0  0  0  0  0
   58.0790   32.3600   44.7850 C   0  0  0  0  0  0  0  0  0  0  0  0
   57.6870   31.3400   43.8460 C   0  0  0  0  0  0  0  0  0  0  0  0
   57.4660   30.0490   44.3850 N   0  0  0  0  0  0  0  0  0  0  0  0
   58.5520   29.2170   44.4750 C   0  0  0  0  0  0  0  0  0  0  0  0
   58.3870   27.9200   44.9390 C   0  0  0  0  0  0  0  0  0  0  0  0
   57.1140   27.4810   45.3110 C   0  0  0  0  0  0  0  0  0  0  0  0
   56.9920   26.3010   45.7180 N   0  0  0  0  0  0  0  0  0  0  0  0
   55.8400   25.6010   45.9330 C   0  0  0  0  0  0  0  0  0  0  0  0
   54.7740   26.3580   46.1610 O   0  0  0  0  0  0  0  0  0  0  0  0
   55.5210   24.1980   45.9640 C   0  0  0  0  0  0  0  0  0  0  0  0
   56.4030   23.1890   46.3220 C   0  0  0  0  0  0  0  0  0  0  0  0
   56.0090   21.8490   46.3470 C   0  0  0  0  0  0  0  0  0  0  0  0
   54.7180   21.5190   46.0080 C   0  0  0  0  0  0  0  0  0  0  0  0
   53.7950   22.5030   45.6390 C   0  0  0  0  0  0  0  0  0  0  0  0
   52.5010   22.1980   45.2950 O   0  0  0  0  0  0  0  0  0  0  0  0
   51.4210   23.0660   45.5740 C   0  0  0  0  0  0  0  0  0  0  0  0
   54.2420   23.8150   45.6350 C   0  0  0  0  0  0  0  0  0  0  0  0
   56.0660   28.3150   45.2170 N   0  0  0  0  0  0  0  0  0  0  0  0
   56.2600   29.5580   44.7660 C   0  0  0  0  0  0  0  0  0  0  0  0
   55.2830   30.3450   44.6750 O   0  0  0  0  0  0  0  0  0  0  0  0
   58.4960   33.6610   44.4800 C   0  0  0  0  0  0  0  0  0  0  0  0
   58.9170   34.5510   45.4670 C   0  0  0  0  0  0  0  0  0  0  0  0
   59.3528   34.9209   49.8835 H   0  0  0  0  0  0  0  0  0  0  0  0
   60.0089   33.4649   49.0611 H   0  0  0  0  0  0  0  0  0  0  0  0
   60.9480   34.9962   49.0611 H   0  0  0  0  0  0  0  0  0  0  0  0
   58.5130   32.5288   48.1634 H   0  0  0  0  0  0  0  0  0  0  0  0
   57.7963   31.0357   46.4205 H   0  0  0  0  0  0  0  0  0  0  0  0
   56.7539   31.6674   43.3642 H   0  0  0  0  0  0  0  0  0  0  0  0
   58.5369   31.2308   43.1562 H   0  0  0  0  0  0  0  0  0  0  0  0
   59.5492   29.5761   44.1808 H   0  0  0  0  0  0  0  0  0  0  0  0
   59.2510   27.2432   45.0133 H   0  0  0  0  0  0  0  0  0  0  0  0
   57.4368   23.4501   46.5925 H   0  0  0  0  0  0  0  0  0  0  0  0
   56.7249   21.0652   46.6352 H   0  0  0  0  0  0  0  0  0  0  0  0
   54.4061   20.4643   46.0273 H   0  0  0  0  0  0  0  0  0  0  0  0
   51.3004   23.1629   46.6631 H   0  0  0  0  0  0  0  0  0  0  0  0
   51.6237   24.0554   45.1380 H   0  0  0  0  0  0  0  0  0  0  0  0
   50.4984   22.6552   45.1380 H   0  0  0  0  0  0  0  0  0  0  0  0
   53.5271   24.6010   45.3501 H   0  0  0  0  0  0  0  0  0  0  0  0
   55.1430   27.9350   45.5090 H   0  0  0  0  0  0  0  0  0  0  0  0
   58.4914   33.9908   43.4306 H   0  0  0  0  0  0  0  0  0  0  0  0
   59.2397   35.5627   45.1802 H   0  0  0  0  0  0  0  0  0  0  0  0
  1  2  1  0
  2  3  1  0
  3  4  2  0
  4  5  1  0
  5  6  2  0
  6  7  1  0
  7  8  1  0
  8  9  1  0
  9 10  2  0
 10 11  1  0
 11 12  2  0
 12 13  1  0
 13 14  2  0
 13 15  1  0
 15 16  2  0
 16 17  1  0
 17 18  2  0
 18 19  1  0
 19 20  1  0
 20 21  1  0
 19 22  2  0
 11 23  1  0
 23 24  1  0
 24 25  2  0
  6 26  1  0
 26 27  2  0
 27  3  1  0
 24  8  1  0
 22 15  1  0
  1 28  1  0
  1 29  1  0
  1 30  1  0
  4 31  1  0
  5 32  1  0
  7 33  1  0
  7 34  1  0
  9 35  1  0
 10 36  1  0
 16 37  1  0
 17 38  1  0
 18 39  1  0
 21 40  1  0
 21 41  1  0
 21 42  1  0
 22 43  1  0
 23 44  1  0
 26 45  1  0
 27 46  1  0
M  END
>  <smiles>  (41) 
COc1ccc(Cn2ccc(=NC(=O)c3cccc(OC)c3)[nH]c2=O)cc1

>  <score_type>  (41) 
oracle

>  <origin>  (41) 
adg

>  <m_score__min__energy>  (41) 
-9.3000000000000007

>  <m_primary>  (41) 
energy

$$$$
41:0
     RDKit          3D

 42 44  0  0  0  0  0  0  0  0999 V2000
   56.9080   29.0360   42.8680 N   0  0  0  0  0  0  0  0  0  0  0  0
   56.6050   29.5210   44.5010 S   0  0  0  0  0  0  0  0  0  0  0  0
   55.9030   28.4140   45.2350 O   0  0  0  0  0  0  0  0  0  0  0  0
   55.7240   30.7380   44.5060 O   0  0  0  0  0  0  0  0  0  0  0  0
   58.1330   29.8840   45.2950 C   0  0  0  0  0  0  0  0  0  0  0  0
   59.0930   28.8760   45.4540 C   0  0  0  0  0  0  0  0  0  0  0  0
   60.3190   29.1640   46.0570 C   0  0  0  0  0  0  0  0  0  0  0  0
   60.5920   30.4610   46.5040 C   0  0  0  0  0  0  0  0  0  0  0  0
   59.6370   31.4770   46.3510 C   0  0  0  0  0  0  0  0  0  0  0  0
   59.9920   33.1110   46.9010 S   0  0  0  0  0  0  0  0  0  0  0  0
   58.8370   33.6040   47.7290 O   0  0  0  0  0  0  0  0  0  0  0  0
   60.1520   34.0220   45.7160 O   0  0  0  0  0  0  0  0  0  0  0  0
   61.4520   33.1160   47.8620 N   0  0  0  0  0  0  0  0  0  0  0  0
   62.5970   33.4880   47.0270 C   0  0  0  0  0  0  0  0  0  0  0  0
   63.8780   33.2000   47.8040 C   0  0  0  0  0  0  0  0  0  0  0  0
   63.7740   33.6550   49.1990 N   0  0  0  0  0  0  0  0  0  0  0  0
   64.9020   33.4660   50.0760 C   0  0  0  0  0  0  0  0  0  0  0  0
   65.0130   34.1910   51.2260 N   0  0  0  0  0  0  0  0  0  0  0  0
   66.0680   34.0240   52.0630 C   0  0  0  0  0  0  0  0  0  0  0  0
   67.0600   33.0950   51.7560 C   0  0  0  0  0  0  0  0  0  0  0  0
   66.9380   32.3620   50.5780 C   0  0  0  0  0  0  0  0  0  0  0  0
   65.8710   32.5610   49.7630 N   0  0  0  0  0  0  0  0  0  0  0  0
   62.6400   34.4940   49.6230 C   0  0  0  0  0  0  0  0  0  0  0  0
   61.2960   34.0530   48.9920 C   0  0  0  0  0  0  0  0  0  0  0  0
   58.4090   31.1840   45.7390 C   0  0  0  0  0  0  0  0  0  0  0  0
   57.9220   29.2020   42.6820 H   0  0  0  0  0  0  0  0  0  0  0  0
   56.7570   28.0040   42.8220 H   0  0  0  0  0  0  0  0  0  0  0  0
   58.8804   27.8554   45.1030 H   0  0  0  0  0  0  0  0  0  0  0  0
   61.0706   28.3704   46.1806 H   0  0  0  0  0  0  0  0  0  0  0  0
   61.5593   30.6851   46.9773 H   0  0  0  0  0  0  0  0  0  0  0  0
   62.5860   32.8984   46.0984 H   0  0  0  0  0  0  0  0  0  0  0  0
   62.5445   34.5564   46.7704 H   0  0  0  0  0  0  0  0  0  0  0  0
   64.0664   32.1163   47.7942 H   0  0  0  0  0  0  0  0  0  0  0  0
   64.7041   33.7445   47.3232 H   0  0  0  0  0  0  0  0  0  0  0  0
   66.1400   34.6219   52.9835 H   0  0  0  0  0  0  0  0  0  0  0  0
   67.9182   32.9442   52.4273 H   0  0  0  0  0  0  0  0  0  0  0  0
   67.7060   31.6221   50.3082 H   0  0  0  0  0  0  0  0  0  0  0  0
   62.5499   34.4355   50.7177 H   0  0  0  0  0  0  0  0  0  0  0  0
   62.8433   35.5204   49.2837 H   0  0  0  0  0  0  0  0  0  0  0  0
   60.6914   33.5627   49.7692 H   0  0  0  0  0  0  0  0  0  0  0  0
   60.8137   34.9586   48.5954 H   0  0  0  0  0  0  0  0  0  0  0  0
   57.6596   31.9783   45.6071 H   0  0  0  0  0  0  0  0  0  0  0  0
  1  2  1  0
  2  3  2  0
  2  4  2  0
  2  5  1  0
  5  6  2  0
  6  7  1  0
  7  8  2  0
  8  9  1  0
  9 10  1  0
 10 11  2  0
 10 12  2  0
 10 13  1  0
 13 14  1  0
 14 15  1  0
 15 16  1  0
 16 17  1  0
 17 18  2  0
 18 19  1  0
 19 20  2  0
 20 21  1  0
 21 22  2  0
 16 23  1  0
 23 24  1  0
  9 25  2  0
 25  5  1  0
 24 13  1  0
 22 17  1  0
  1 26  1  0
  1 27  1  0
  6 28  1  0
  7 29  1  0
  8 30  1  0
 14 31  1  0
 14 32  1  0
 15 33  1  0
 15 34  1  0
 19 35  1  0
 20 36  1  0
 21 37  1  0
 23 38  1  0
 23 39  1  0
 24 40  1  0
 24 41  1  0
 25 42  1  0
M  END
>  <UniqueID>  (42) 
39

>  <SMILES>  (42) 
NS(=O)(=O)c1cccc(S(=O)(=O)N2CCN(c3ncccn3)CC2)c1

>  <Energy>  (42) 
47.37703680147168

>  <Genealogy>  (42) 
NS(=O)(=O)c1cccc(S(=O)(=O)N2CCN(c3ncccn3)CC2)c1 (3D coordinates assigned)
NS(=O)(=O)c1cccc(S(=O)(=O)N2CCN(c3ncccn3)CC2)c1 (nonaromatic ring conformer: 47.37703680147168 kcal/mol)

>  <smiles>  (42) 
NS(=O)(=O)c1cccc(S(=O)(=O)N2CCN(c3ncccn3)CC2)c1

>  <score_type>  (42) 
oracle

>  <origin>  (42) 
adg

>  <m_score__min__energy>  (42) 
-8.8699999999999992

>  <m_primary>  (42) 
energy

$$$$
42:0
     RDKit          3D

 41 43  0  0  0  0  0  0  0  0999 V2000
   59.2500   34.5740   45.6480 C   0  0  0  0  0  0  0  0  0  0  0  0
   57.6630   34.1550   44.8650 S   0  0  0  0  0  0  0  0  0  0  0  0
   57.9620   32.3940   44.9400 C   0  0  0  0  0  0  0  0  0  0  0  0
   57.7470   31.6150   43.8300 N   0  0  0  0  0  0  0  0  0  0  0  0
   57.9640   30.2940   43.8470 N   0  0  0  0  0  0  0  0  0  0  0  0
   58.3970   29.7240   44.9990 C   0  0  0  0  0  0  0  0  0  0  0  0
   58.6160   30.4930   46.1030 C   0  0  0  0  0  0  0  0  0  0  0  0
   58.4110   31.8280   46.1000 N   0  0  0  0  0  0  0  0  0  0  0  0
   59.1000   29.6630   47.0810 C   0  0  0  0  0  0  0  0  0  0  0  0
   59.5260   29.9090   48.3830 C   0  0  0  0  0  0  0  0  0  0  0  0
   60.0170   28.8190   49.1240 C   0  0  0  0  0  0  0  0  0  0  0  0
   60.0790   27.5300   48.5500 C   0  0  0  0  0  0  0  0  0  0  0  0
   59.6480   27.3110   47.2280 C   0  0  0  0  0  0  0  0  0  0  0  0
   59.1520   28.4010   46.5080 C   0  0  0  0  0  0  0  0  0  0  0  0
   58.7040   28.4240   45.2230 N   0  0  0  0  0  0  0  0  0  0  0  0
   58.6820   27.3190   44.2620 C   0  0  0  0  0  0  0  0  0  0  0  0
   57.7410   26.2150   44.7550 C   0  0  0  0  0  0  0  0  0  0  0  0
   56.6170   26.7690   45.6430 C   0  0  0  0  0  0  0  0  0  0  0  0
   55.9200   25.6920   46.3830 N   0  0  0  0  0  0  0  0  0  0  0  0
   55.2090   24.8120   45.4410 C   0  0  0  0  0  0  0  0  0  0  0  0
   56.8680   24.8920   47.1780 C   0  0  0  0  0  0  0  0  0  0  0  0
   59.1382   34.5445   46.7419 H   0  0  0  0  0  0  0  0  0  0  0  0
   60.0151   33.8471   45.3378 H   0  0  0  0  0  0  0  0  0  0  0  0
   59.5566   35.5839   45.3378 H   0  0  0  0  0  0  0  0  0  0  0  0
   57.8050   29.7290   42.9850 H   0  0  0  0  0  0  0  0  0  0  0  0
   59.4804   30.9189   48.8166 H   0  0  0  0  0  0  0  0  0  0  0  0
   60.3556   28.9717   50.1594 H   0  0  0  0  0  0  0  0  0  0  0  0
   60.4681   26.6886   49.1421 H   0  0  0  0  0  0  0  0  0  0  0  0
   59.7002   26.3102   46.7746 H   0  0  0  0  0  0  0  0  0  0  0  0
   58.3298   27.6900   43.2882 H   0  0  0  0  0  0  0  0  0  0  0  0
   59.6976   26.9090   44.1596 H   0  0  0  0  0  0  0  0  0  0  0  0
   57.2916   25.7164   43.8835 H   0  0  0  0  0  0  0  0  0  0  0  0
   58.3322   25.5093   45.3571 H   0  0  0  0  0  0  0  0  0  0  0  0
   57.0501   27.4755   46.3664 H   0  0  0  0  0  0  0  0  0  0  0  0
   55.8828   27.2686   44.9938 H   0  0  0  0  0  0  0  0  0  0  0  0
   54.6149   24.0766   46.0034 H   0  0  0  0  0  0  0  0  0  0  0  0
   54.5418   25.4154   44.8079 H   0  0  0  0  0  0  0  0  0  0  0  0
   55.9391   24.2865   44.8079 H   0  0  0  0  0  0  0  0  0  0  0  0
   56.6762   25.0538   48.2490 H   0  0  0  0  0  0  0  0  0  0  0  0
   56.7385   23.8261   46.9393 H   0  0  0  0  0  0  0  0  0  0  0  0
   57.8970   25.1989   46.9393 H   0  0  0  0  0  0  0  0  0  0  0  0
  1  2  1  0
  2  3  1  0
  3  4  2  0
  4  5  1  0
  5  6  2  0
  6  7  1  0
  7  8  2  0
  7  9  1  0
  9 10  2  0
 10 11  1  0
 11 12  2  0
 12 13  1  0
 13 14  2  0
 14 15  1  0
 15 16  1  0
 16 17  1  0
 17 18  1  0
 18 19  1  0
 19 20  1  0
 19 21  1  0
  8  3  1  0
 14  9  1  0
 15  6  1  0
  1 22  1  0
  1 23  1  0
  1 24  1  0
  5 25  1  0
 10 26  1  0
 11 27  1  0
 12 28  1  0
 13 29  1  0
 16 30  1  0
 16 31  1  0
 17 32  1  0
 17 33  1  0
 18 34  1  0
 18 35  1  0
 20 36  1  0
 20 37  1  0
 20 38  1  0
 21 39  1  0
 21 40  1  0
 21 41  1  0
M  CHG  1   5   1
M  END
>  <UniqueID>  (43) 
40

>  <SMILES>  (43) 
CSc1n[nH+]c2c(n1)c1ccccc1n2CCCN(C)C

>  <Energy>  (43) 
81.3318024102589

>  <Genealogy>  (43) 
CSc1n[nH+]c2c(n1)c1ccccc1n2CCCN(C)C (protonated)
CSc1n[nH+]c2c(n1)c1ccccc1n2CCCN(C)C (3D coordinates assigned)
CSc1n[nH+]c2c(n1)c1ccccc1n2CCCN(C)C (optimized conformer: 81.3318024102589 kcal/mol)

>  <smiles>  (43) 
CSc1nnc2c(n1)c1ccccc1n2CCCN(C)C

>  <score_type>  (43) 
oracle

>  <origin>  (43) 
adg

>  <m_score__min__energy>  (43) 
-5.3099999999999996

>  <m_primary>  (43) 
energy

$$$$
43:0
     RDKit          3D

 33 35  0  0  0  0  0  0  0  0999 V2000
   54.9040   29.3280   44.2170 N   0  0  0  0  0  0  0  0  0  0  0  0
   56.5470   29.8610   44.2990 S   0  0  0  0  0  0  0  0  0  0  0  0
   57.4290   28.8230   43.6650 O   0  0  0  0  0  0  0  0  0  0  0  0
   56.6860   31.1580   43.5540 O   0  0  0  0  0  0  0  0  0  0  0  0
   57.0260   30.0810   45.9520 N   0  0  0  0  0  0  0  0  0  0  0  0
   58.3340   30.5250   46.3290 C   0  0  0  0  0  0  0  0  0  0  0  0
   58.6330   31.8870   46.1970 C   0  0  0  0  0  0  0  0  0  0  0  0
   59.9180   32.3600   46.4730 C   0  0  0  0  0  0  0  0  0  0  0  0
   60.9120   31.4760   46.8920 C   0  0  0  0  0  0  0  0  0  0  0  0
   60.6210   30.1200   47.0570 C   0  0  0  0  0  0  0  0  0  0  0  0
   59.3280   29.6310   46.7960 C   0  0  0  0  0  0  0  0  0  0  0  0
   59.0290   28.2120   47.0890 C   0  0  0  0  0  0  0  0  0  0  0  0
   59.5380   27.6670   48.1070 O   0  0  0  0  0  0  0  0  0  0  0  0
   58.1530   27.4660   46.2300 N   0  0  0  0  0  0  0  0  0  0  0  0
   57.9900   26.0390   46.2930 C   0  0  0  0  0  0  0  0  0  0  0  0
   58.1860   25.2220   45.1440 C   0  0  0  0  0  0  0  0  0  0  0  0
   58.0020   23.8280   45.2130 C   0  0  0  0  0  0  0  0  0  0  0  0
   57.6110   23.2870   46.4340 C   0  0  0  0  0  0  0  0  0  0  0  0
   57.3720   21.9980   46.7280 N   0  0  0  0  0  0  0  0  0  0  0  0
   57.0140   21.9480   48.0080 N   0  0  0  0  0  0  0  0  0  0  0  0
   57.0230   23.2000   48.5260 C   0  0  0  0  0  0  0  0  0  0  0  0
   57.4020   24.0670   47.5300 C   0  0  0  0  0  0  0  0  0  0  0  0
   57.5720   25.4480   47.5060 C   0  0  0  0  0  0  0  0  0  0  0  0
   54.5290   29.3460   45.1910 H   0  0  0  0  0  0  0  0  0  0  0  0
   57.8504   32.5891   45.8737 H   0  0  0  0  0  0  0  0  0  0  0  0
   60.1460   33.4301   46.3598 H   0  0  0  0  0  0  0  0  0  0  0  0
   61.9276   31.8476   47.0930 H   0  0  0  0  0  0  0  0  0  0  0  0
   61.4084   29.4295   47.3934 H   0  0  0  0  0  0  0  0  0  0  0  0
   57.5120   28.0040   45.6040 H   0  0  0  0  0  0  0  0  0  0  0  0
   58.4845   25.6849   44.1918 H   0  0  0  0  0  0  0  0  0  0  0  0
   58.1618   23.1886   44.3323 H   0  0  0  0  0  0  0  0  0  0  0  0
   56.7713   23.4739   49.5612 H   0  0  0  0  0  0  0  0  0  0  0  0
   57.3870   26.0590   48.4018 H   0  0  0  0  0  0  0  0  0  0  0  0
  1  2  1  0
  2  3  2  0
  2  4  2  0
  2  5  1  0
  5  6  1  0
  6  7  2  0
  7  8  1  0
  8  9  2  0
  9 10  1  0
 10 11  2  0
 11 12  1  0
 12 13  2  0
 12 14  1  0
 14 15  1  0
 15 16  1  0
 16 17  2  0
 17 18  1  0
 18 19  2  0
 19 20  1  0
 20 21  1  0
 21 22  2  0
 22 23  1  0
 11  6  1  0
 23 15  2  0
 22 18  1  0
  1 24  1  0
  7 25  1  0
  8 26  1  0
  9 27  1  0
 10 28  1  0
 14 29  1  0
 16 30  1  0
 17 31  1  0
 21 32  1  0
 23 33  1  0
M  CHG  3   1  -1   5  -1  20  -1
M  END
>  <UniqueID>  (44) 
41

>  <SMILES>  (44) 
[NH-]S(=O)(=O)[N-]c1ccccc1C(=O)Nc1ccc2n[n-]cc2c1

>  <Energy>  (44) 
87.6202839883958

>  <Genealogy>  (44) 
[NH-]S(=O)(=O)[N-]c1ccccc1C(=O)Nc1ccc2n[n-]cc2c1 (protonated)
[NH-]S(=O)(=O)[N-]c1ccccc1C(=O)Nc1ccc2n[n-]cc2c1 (3D coordinates assigned)
[NH-]S(=O)(=O)[N-]c1ccccc1C(=O)Nc1ccc2n[n-]cc2c1 (optimized conformer: 87.6202839883958 kcal/mol)

>  <smiles>  (44) 
NS(=O)(=O)Nc1ccccc1C(=O)Nc1ccc2n[nH]cc2c1

>  <score_type>  (44) 
oracle

>  <origin>  (44) 
adg

>  <m_score__min__energy>  (44) 
-12.66

>  <m_primary>  (44) 
energy

$$$$
44:0
     RDKit          3D

 57 60  0  0  0  0  0  0  0  0999 V2000
   58.8800   34.1640   52.1630 C   0  0  0  0  0  0  0  0  0  0  0  0
   59.3590   33.8820   50.8530 O   0  0  0  0  0  0  0  0  0  0  0  0
   59.3660   32.6090   50.2600 C   0  0  0  0  0  0  0  0  0  0  0  0
   58.5420   31.5710   50.7340 C   0  0  0  0  0  0  0  0  0  0  0  0
   58.5510   30.3200   50.1160 C   0  0  0  0  0  0  0  0  0  0  0  0
   59.3850   30.0720   49.0140 C   0  0  0  0  0  0  0  0  0  0  0  0
   59.3750   28.7460   48.3520 C   0  0  0  0  0  0  0  0  0  0  0  0
   59.8860   27.7530   48.9420 O   0  0  0  0  0  0  0  0  0  0  0  0
   58.8350   28.5890   47.0290 N   0  0  0  0  0  0  0  0  0  0  0  0
   58.4130   27.3270   46.4820 C   0  0  0  0  0  0  0  0  0  0  0  0
   59.3430   26.3180   46.1660 C   0  0  0  0  0  0  0  0  0  0  0  0
   58.9050   25.0900   45.6610 C   0  0  0  0  0  0  0  0  0  0  0  0
   57.5410   24.8540   45.4720 C   0  0  0  0  0  0  0  0  0  0  0  0
   56.6100   25.8430   45.8010 C   0  0  0  0  0  0  0  0  0  0  0  0
   55.2850   25.6070   45.6310 F   0  0  0  0  0  0  0  0  0  0  0  0
   57.0430   27.0710   46.3110 C   0  0  0  0  0  0  0  0  0  0  0  0
   60.2060   31.1080   48.5390 C   0  0  0  0  0  0  0  0  0  0  0  0
   60.2110   32.3650   49.1580 C   0  0  0  0  0  0  0  0  0  0  0  0
   61.2710   33.6230   48.5060 S   0  0  0  0  0  0  0  0  0  0  0  0
   61.7300   34.4900   49.6460 O   0  0  0  0  0  0  0  0  0  0  0  0
   62.4710   33.0160   47.8340 O   0  0  0  0  0  0  0  0  0  0  0  0
   60.3940   34.5960   47.3450 N   0  0  0  0  0  0  0  0  0  0  0  0
   58.9400   34.6060   47.6350 C   0  0  0  0  0  0  0  0  0  0  0  0
   58.1680   33.4780   46.9260 C   0  0  0  0  0  0  0  0  0  0  0  0
   58.5380   33.3830   45.5080 N   0  0  0  0  0  0  0  0  0  0  0  0
   57.9860   32.3290   44.6950 C   0  0  0  0  0  0  0  0  0  0  0  0
   57.6270   31.0980   45.2710 C   0  0  0  0  0  0  0  0  0  0  0  0
   57.1000   30.0720   44.4790 C   0  0  0  0  0  0  0  0  0  0  0  0
   56.9340   30.2620   43.1050 C   0  0  0  0  0  0  0  0  0  0  0  0
   57.2970   31.4780   42.5200 C   0  0  0  0  0  0  0  0  0  0  0  0
   57.8220   32.5070   43.3080 C   0  0  0  0  0  0  0  0  0  0  0  0
   59.5850   34.2680   44.9930 C   0  0  0  0  0  0  0  0  0  0  0  0
   60.7700   34.2280   45.9580 C   0  0  0  0  0  0  0  0  0  0  0  0
   59.5793   33.7523   52.9056 H   0  0  0  0  0  0  0  0  0  0  0  0
   58.8009   35.2528   52.2980 H   0  0  0  0  0  0  0  0  0  0  0  0
   57.8896   33.7049   52.2980 H   0  0  0  0  0  0  0  0  0  0  0  0
   57.8855   31.7474   51.5988 H   0  0  0  0  0  0  0  0  0  0  0  0
   57.8983   29.5202   50.4959 H   0  0  0  0  0  0  0  0  0  0  0  0
   58.8530   29.4170   46.3910 H   0  0  0  0  0  0  0  0  0  0  0  0
   60.4179   26.4965   46.3170 H   0  0  0  0  0  0  0  0  0  0  0  0
   59.6366   24.3073   45.4117 H   0  0  0  0  0  0  0  0  0  0  0  0
   57.2002   23.8907   45.0646 H   0  0  0  0  0  0  0  0  0  0  0  0
   56.3055   27.8415   46.5800 H   0  0  0  0  0  0  0  0  0  0  0  0
   60.8544   30.9299   47.6685 H   0  0  0  0  0  0  0  0  0  0  0  0
   58.8000   34.4957   48.7205 H   0  0  0  0  0  0  0  0  0  0  0  0
   58.5402   35.5594   47.2594 H   0  0  0  0  0  0  0  0  0  0  0  0
   58.3971   32.5223   47.4202 H   0  0  0  0  0  0  0  0  0  0  0  0
   57.0930   33.7026   46.9884 H   0  0  0  0  0  0  0  0  0  0  0  0
   57.7613   30.9403   46.3513 H   0  0  0  0  0  0  0  0  0  0  0  0
   56.8159   29.1141   44.9391 H   0  0  0  0  0  0  0  0  0  0  0  0
   56.5178   29.4550   42.4841 H   0  0  0  0  0  0  0  0  0  0  0  0
   57.1695   31.6261   41.4375 H   0  0  0  0  0  0  0  0  0  0  0  0
   58.1085   33.4611   42.8415 H   0  0  0  0  0  0  0  0  0  0  0  0
   59.9048   33.9251   43.9979 H   0  0  0  0  0  0  0  0  0  0  0  0
   59.2023   35.2957   44.9076 H   0  0  0  0  0  0  0  0  0  0  0  0
   61.1837   33.2088   45.9646 H   0  0  0  0  0  0  0  0  0  0  0  0
   61.5075   34.9653   45.6079 H   0  0  0  0  0  0  0  0  0  0  0  0
  1  2  1  0
  2  3  1  0
  3  4  2  0
  4  5  1  0
  5  6  2  0
  6  7  1  0
  7  8  2  0
  7  9  1  0
  9 10  1  0
 10 11  2  0
 11 12  1  0
 12 13  2  0
 13 14  1  0
 14 15  1  0
 14 16  2  0
  6 17  1  0
 17 18  2  0
 18 19  1  0
 19 20  2  0
 19 21  2  0
 19 22  1  0
 22 23  1  0
 23 24  1  0
 24 25  1  0
 25 26  1  0
 26 27  2  0
 27 28  1  0
 28 29  2  0
 29 30  1  0
 30 31  2  0
 25 32  1  0
 32 33  1  0
 18  3  1  0
 33 22  1  0
 16 10  1  0
 31 26  1  0
  1 34  1  0
  1 35  1  0
  1 36  1  0
  4 37  1  0
  5 38  1  0
  9 39  1  0
 11 40  1  0
 12 41  1  0
 13 42  1  0
 16 43  1  0
 17 44  1  0
 23 45  1  0
 23 46  1  0
 24 47  1  0
 24 48  1  0
 27 49  1  0
 28 50  1  0
 29 51  1  0
 30 52  1  0
 31 53  1  0
 32 54  1  0
 32 55  1  0
 33 56  1  0
 33 57  1  0
M  END
>  <UniqueID>  (45) 
42

>  <SMILES>  (45) 
COc1ccc(C(=O)Nc2cccc(F)c2)cc1S(=O)(=O)N1CCN(c2ccccc2)CC1

>  <Energy>  (45) 
77.51791444695641

>  <Genealogy>  (45) 
COc1ccc(C(=O)Nc2cccc(F)c2)cc1S(=O)(=O)N1CCN(c2ccccc2)CC1 (3D coordinates assigned)
COc1ccc(C(=O)Nc2cccc(F)c2)cc1S(=O)(=O)N1CCN(c2ccccc2)CC1 (nonaromatic ring conformer: 77.51791444695641 kcal/mol)

>  <smiles>  (45) 
COc1ccc(C(=O)Nc2cccc(F)c2)cc1S(=O)(=O)N1CCN(c2ccccc2)CC1

>  <score_type>  (45) 
oracle

>  <origin>  (45) 
adg

>  <m_score__min__energy>  (45) 
-9.1099999999999994

>  <m_primary>  (45) 
energy

$$$$
45:0
     RDKit          3D

 39 40  0  0  0  0  0  0  0  0999 V2000
   54.6800   24.6274   46.2855 H   0  0  0  0  0  0  0  0  0  0  0  0
   55.5600   25.2420   46.0450 C   0  0  0  0  0  0  0  0  0  0  0  0
   55.4320   26.5900   45.9290 N   0  0  0  0  0  0  0  0  0  0  0  0
   56.4910   27.3960   45.6370 C   0  0  0  0  0  0  0  0  0  0  0  0
   56.3420   28.6830   45.5280 N   0  0  0  0  0  0  0  0  0  0  0  0
   57.4040   29.6690   45.7340 C   0  0  0  0  0  0  0  0  0  0  0  0
   58.3678   29.1476   45.8299 H   0  0  0  0  0  0  0  0  0  0  0  0
   57.1867   30.2383   46.6498 H   0  0  0  0  0  0  0  0  0  0  0  0
   57.4720   30.6270   44.5700 C   0  0  0  0  0  0  0  0  0  0  0  0
   56.9500   30.2490   43.3210 C   0  0  0  0  0  0  0  0  0  0  0  0
   56.4799   29.2617   43.2016 H   0  0  0  0  0  0  0  0  0  0  0  0
   57.0240   31.1170   42.2320 C   0  0  0  0  0  0  0  0  0  0  0  0
   56.6140   30.8121   41.2579 H   0  0  0  0  0  0  0  0  0  0  0  0
   57.6170   32.3710   42.3760 C   0  0  0  0  0  0  0  0  0  0  0  0
   57.6707   33.0546   41.5159 H   0  0  0  0  0  0  0  0  0  0  0  0
   58.1430   32.7610   43.6100 C   0  0  0  0  0  0  0  0  0  0  0  0
   58.6105   33.7509   43.7170 H   0  0  0  0  0  0  0  0  0  0  0  0
   58.0780   31.8930   44.7190 C   0  0  0  0  0  0  0  0  0  0  0  0
   58.6010   32.2520   45.9730 O   0  0  0  0  0  0  0  0  0  0  0  0
   58.2480   33.4320   46.6870 C   0  0  0  0  0  0  0  0  0  0  0  0
   58.3062   33.2376   47.7681 H   0  0  0  0  0  0  0  0  0  0  0  0
   58.9430   34.2425   46.4223 H   0  0  0  0  0  0  0  0  0  0  0  0
   57.2221   33.7277   46.4223 H   0  0  0  0  0  0  0  0  0  0  0  0
   57.7560   26.8300   45.4550 C   0  0  0  0  0  0  0  0  0  0  0  0
   58.6205   27.4701   45.2248 H   0  0  0  0  0  0  0  0  0  0  0  0
   57.9160   25.4480   45.5670 C   0  0  0  0  0  0  0  0  0  0  0  0
   58.9099   24.9982   45.4262 H   0  0  0  0  0  0  0  0  0  0  0  0
   56.8120   24.6290   45.8590 C   0  0  0  0  0  0  0  0  0  0  0  0
   56.9600   23.1600   45.9900 C   0  0  0  0  0  0  0  0  0  0  0  0
   57.3880   22.6710   47.0710 O   0  0  0  0  0  0  0  0  0  0  0  0
   56.5460   22.2840   44.9260 N   0  0  0  0  0  0  0  0  0  0  0  0
   55.6720   22.5440   44.4160 H   0  0  0  0  0  0  0  0  0  0  0  0
   57.1620   21.1820   44.5820 C   0  0  0  0  0  0  0  0  0  0  0  0
   57.2860   20.8480   43.1960 N   0  0  0  0  0  0  0  0  0  0  0  0
   57.7930   19.9840   42.9050 H   0  0  0  0  0  0  0  0  0  0  0  0
   56.8720   21.4560   42.4550 H   0  0  0  0  0  0  0  0  0  0  0  0
   57.7650   20.3190   45.5560 N   0  0  0  0  0  0  0  0  0  0  0  0
   58.1650   19.4020   45.2580 H   0  0  0  0  0  0  0  0  0  0  0  0
   57.9390   20.6210   46.5390 H   0  0  0  0  0  0  0  0  0  0  0  0
  1  2  1  0
  2  3  1  0
  3  4  1  0
  4  5  2  0
  5  6  1  0
  6  7  1  0
  6  8  1  0
  6  9  1  0
  9 10  2  0
 10 11  1  0
 10 12  1  0
 12 13  1  0
 12 14  2  0
 14 15  1  0
 14 16  1  0
 16 17  1  0
 16 18  2  0
 18 19  1  0
 19 20  1  0
 20 21  1  0
 20 22  1  0
 20 23  1  0
  4 24  1  0
 24 25  1  0
 24 26  2  0
 26 27  1  0
 26 28  1  0
 28 29  1  0
 29 30  2  0
 29 31  1  0
 31 32  1  0
 31 33  2  3
 33 34  1  0
 34 35  1  0
 34 36  1  0
 33 37  1  0
 37 38  1  0
 37 39  1  0
 28  2  2  0
 18  9  1  0
M  CHG  2   3  -1  31   1
M  END
>  <UniqueID>  (46) 
43

>  <SMILES>  (46) 
COc1ccccc1C/N=c1/ccc(C(=O)[NH+]=C(N)N)c[n-]1

>  <Energy>  (46) 
43.85092468135516

>  <Genealogy>  (46) 
COc1ccccc1CN=c1ccc(C(=O)[NH+]=C(N)N)c[n-]1 (protonated)
COc1ccccc1C/N=c1/ccc(C(=O)[NH+]=C(N)N)c[n-]1 (cis-trans isomerization)
COc1ccccc1C/N=c1/ccc(C(=O)[NH+]=C(N)N)c[n-]1 (3D coordinates assigned)
COc1ccccc1C/N=c1/ccc(C(=O)[NH+]=C(N)N)c[n-]1 (optimized conformer: 43.85092468135516 kcal/mol)

>  <smiles>  (46) 
COc1ccccc1CN=c1ccc(C(=O)N=C(N)N)c[nH]1

>  <score_type>  (46) 
oracle

>  <origin>  (46) 
adg

>  <m_score__min__energy>  (46) 
-7.9500000000000002

>  <m_primary>  (46) 
energy

$$$$
46:0
     RDKit          3D

 67 70  0  0  0  0  0  0  0  0999 V2000
   56.8530   29.7760   53.2410 C   0  0  0  0  0  0  0  0  0  0  0  0
   58.2090   30.1860   53.0960 O   0  0  0  0  0  0  0  0  0  0  0  0
   58.6250   31.4600   52.6780 C   0  0  0  0  0  0  0  0  0  0  0  0
   59.0570   32.4190   53.6150 C   0  0  0  0  0  0  0  0  0  0  0  0
   59.4680   33.6830   53.2010 C   0  0  0  0  0  0  0  0  0  0  0  0
   59.4770   34.0090   51.8480 C   0  0  0  0  0  0  0  0  0  0  0  0
   59.0740   33.0710   50.8850 C   0  0  0  0  0  0  0  0  0  0  0  0
   59.1760   33.4380   49.4500 C   0  0  0  0  0  0  0  0  0  0  0  0
   60.0590   34.2600   49.0820 O   0  0  0  0  0  0  0  0  0  0  0  0
   58.3470   32.7840   48.4760 N   0  0  0  0  0  0  0  0  0  0  0  0
   58.3790   33.0410   47.0590 C   0  0  0  0  0  0  0  0  0  0  0  0
   58.3060   34.3520   46.5540 C   0  0  0  0  0  0  0  0  0  0  0  0
   58.2850   34.5760   45.1740 C   0  0  0  0  0  0  0  0  0  0  0  0
   58.3200   33.4990   44.2870 C   0  0  0  0  0  0  0  0  0  0  0  0
   58.3720   32.1910   44.7760 C   0  0  0  0  0  0  0  0  0  0  0  0
   58.3960   31.9580   46.1560 C   0  0  0  0  0  0  0  0  0  0  0  0
   58.4640   30.6240   46.6590 N   0  0  0  0  0  0  0  0  0  0  0  0
   59.7030   29.9190   46.7750 C   0  0  0  0  0  0  0  0  0  0  0  0
   59.8300   28.7840   46.2360 O   0  0  0  0  0  0  0  0  0  0  0  0
   60.8020   30.4880   47.5900 C   0  0  0  0  0  0  0  0  0  0  0  0
   61.4590   31.6610   47.1760 C   0  0  0  0  0  0  0  0  0  0  0  0
   62.4190   32.2630   47.9920 C   0  0  0  0  0  0  0  0  0  0  0  0
   62.7500   31.6990   49.2310 C   0  0  0  0  0  0  0  0  0  0  0  0
   63.7080   32.3460   50.0870 N   0  0  0  0  0  0  0  0  0  0  0  0
   64.8980   32.9770   49.4920 C   0  0  0  0  0  0  0  0  0  0  0  0
   66.0950   33.0290   50.4650 C   0  0  0  0  0  0  0  0  0  0  0  0
   65.9100   33.9410   51.6810 C   0  0  0  0  0  0  0  0  0  0  0  0
   64.6140   34.6540   51.6740 N   0  0  0  0  0  0  0  0  0  0  0  0
   64.7180   35.8960   52.4610 C   0  0  0  0  0  0  0  0  0  0  0  0
   63.4450   33.8460   52.0990 C   0  0  0  0  0  0  0  0  0  0  0  0
   63.4240   32.4120   51.5330 C   0  0  0  0  0  0  0  0  0  0  0  0
   62.1210   30.5140   49.6350 C   0  0  0  0  0  0  0  0  0  0  0  0
   61.1530   29.9140   48.8240 C   0  0  0  0  0  0  0  0  0  0  0  0
   58.6140   31.7940   51.2960 C   0  0  0  0  0  0  0  0  0  0  0  0
   58.1430   30.9170   50.2990 O   0  0  0  0  0  0  0  0  0  0  0  0
   58.5290   29.5600   50.0980 C   0  0  0  0  0  0  0  0  0  0  0  0
   56.6049   29.7010   54.3100 H   0  0  0  0  0  0  0  0  0  0  0  0
   56.1934   30.5149   52.7625 H   0  0  0  0  0  0  0  0  0  0  0  0
   56.7133   28.7954   52.7625 H   0  0  0  0  0  0  0  0  0  0  0  0
   59.0697   32.1664   54.6855 H   0  0  0  0  0  0  0  0  0  0  0  0
   59.7868   34.4269   53.9460 H   0  0  0  0  0  0  0  0  0  0  0  0
   59.8028   35.0106   51.5307 H   0  0  0  0  0  0  0  0  0  0  0  0
   57.8170   31.9450   48.7990 H   0  0  0  0  0  0  0  0  0  0  0  0
   58.2653   35.2046   47.2478 H   0  0  0  0  0  0  0  0  0  0  0  0
   58.2407   35.6044   44.7862 H   0  0  0  0  0  0  0  0  0  0  0  0
   58.3066   33.6800   43.2021 H   0  0  0  0  0  0  0  0  0  0  0  0
   58.3941   31.3432   44.0754 H   0  0  0  0  0  0  0  0  0  0  0  0
   61.2144   32.1078   46.2011 H   0  0  0  0  0  0  0  0  0  0  0  0
   62.9182   33.1853   47.6601 H   0  0  0  0  0  0  0  0  0  0  0  0
   65.1930   32.4021   48.6018 H   0  0  0  0  0  0  0  0  0  0  0  0
   64.6318   34.0135   49.2376 H   0  0  0  0  0  0  0  0  0  0  0  0
   66.2804   32.0083   50.8307 H   0  0  0  0  0  0  0  0  0  0  0  0
   66.9343   33.4511   49.8928 H   0  0  0  0  0  0  0  0  0  0  0  0
   65.9680   33.3273   52.5921 H   0  0  0  0  0  0  0  0  0  0  0  0
   66.7048   34.7007   51.6478 H   0  0  0  0  0  0  0  0  0  0  0  0
   64.6977   35.6532   53.5337 H   0  0  0  0  0  0  0  0  0  0  0  0
   65.6620   36.4059   52.2183 H   0  0  0  0  0  0  0  0  0  0  0  0
   63.8720   36.5558   52.2183 H   0  0  0  0  0  0  0  0  0  0  0  0
   63.4512   33.7826   53.1972 H   0  0  0  0  0  0  0  0  0  0  0  0
   62.5521   34.3530   51.7045 H   0  0  0  0  0  0  0  0  0  0  0  0
   64.1815   31.8169   52.0641 H   0  0  0  0  0  0  0  0  0  0  0  0
   62.4068   32.0205   51.6812 H   0  0  0  0  0  0  0  0  0  0  0  0
   62.3905   30.0527   50.5965 H   0  0  0  0  0  0  0  0  0  0  0  0
   60.6627   28.9863   49.1540 H   0  0  0  0  0  0  0  0  0  0  0  0
   58.6683   29.0702   51.0730 H   0  0  0  0  0  0  0  0  0  0  0  0
   57.7444   29.0355   49.5329 H   0  0  0  0  0  0  0  0  0  0  0  0
   59.4722   29.5269   49.5329 H   0  0  0  0  0  0  0  0  0  0  0  0
  1  2  1  0
  2  3  1  0
  3  4  2  0
  4  5  1  0
  5  6  2  0
  6  7  1  0
  7  8  1  0
  8  9  2  0
  8 10  1  0
 10 11  1  0
 11 12  2  0
 12 13  1  0
 13 14  2  0
 14 15  1  0
 15 16  2  0
 16 17  1  0
 17 18  1  0
 18 19  2  0
 18 20  1  0
 20 21  2  0
 21 22  1  0
 22 23  2  0
 23 24  1  0
 24 25  1  0
 25 26  1  0
 26 27  1  0
 27 28  1  0
 28 29  1  0
 28 30  1  0
 30 31  1  0
 23 32  1  0
 32 33  2  0
  7 34  2  0
 34 35  1  0
 35 36  1  0
 34  3  1  0
 16 11  1  0
 33 20  1  0
 31 24  1  0
  1 37  1  0
  1 38  1  0
  1 39  1  0
  4 40  1  0
  5 41  1  0
  6 42  1  0
 10 43  1  0
 12 44  1  0
 13 45  1  0
 14 46  1  0
 15 47  1  0
 21 48  1  0
 22 49  1  0
 25 50  1  0
 25 51  1  0
 26 52  1  0
 26 53  1  0
 27 54  1  0
 27 55  1  0
 29 56  1  0
 29 57  1  0
 29 58  1  0
 30 59  1  0
 30 60  1  0
 31 61  1  0
 31 62  1  0
 32 63  1  0
 33 64  1  0
 36 65  1  0
 36 66  1  0
 36 67  1  0
M  CHG  1  17  -1
M  END
>  <UniqueID>  (47) 
44

>  <SMILES>  (47) 
COc1cccc(C(=O)Nc2ccccc2[N-]C(=O)c2ccc(N3CCCN(C)CC3)cc2)c1OC

>  <Energy>  (47) 
104.72255261908413

>  <Genealogy>  (47) 
COc1cccc(C(=O)Nc2ccccc2[N-]C(=O)c2ccc(N3CCCN(C)CC3)cc2)c1OC (protonated)
COc1cccc(C(=O)Nc2ccccc2[N-]C(=O)c2ccc(N3CCCN(C)CC3)cc2)c1OC (3D coordinates assigned)
COc1cccc(C(=O)Nc2ccccc2[N-]C(=O)c2ccc(N3CCCN(C)CC3)cc2)c1OC (nonaromatic ring conformer: 104.72255261908413 kcal/mol)

>  <smiles>  (47) 
COc1cccc(C(=O)Nc2ccccc2NC(=O)c2ccc(N3CCCN(C)CC3)cc2)c1OC

>  <score_type>  (47) 
oracle

>  <origin>  (47) 
adg

>  <m_score__min__energy>  (47) 
-6.4900000000000002

>  <m_primary>  (47) 
energy

$$$$
47:0
     RDKit          3D

 37 40  0  0  0  0  0  0  0  0999 V2000
   57.3920   30.6370   41.6190 H   0  0  0  0  0  0  0  0  0  0  0  0
   57.4720   31.6260   41.9430 N   0  0  0  0  0  0  0  0  0  0  0  0
   57.6750   31.9740   43.1770 C   0  0  0  0  0  0  0  0  0  0  0  0
   58.3960   33.0690   43.4130 O   0  0  0  0  0  0  0  0  0  0  0  0
   58.6490   33.5220   44.6350 C   0  0  0  0  0  0  0  0  0  0  0  0
   59.4130   34.6820   44.8070 C   0  0  0  0  0  0  0  0  0  0  0  0
   59.8041   35.2170   43.9291 H   0  0  0  0  0  0  0  0  0  0  0  0
   59.6800   35.1620   46.0930 C   0  0  0  0  0  0  0  0  0  0  0  0
   60.2807   36.0741   46.2246 H   0  0  0  0  0  0  0  0  0  0  0  0
   59.1850   34.4850   47.2120 C   0  0  0  0  0  0  0  0  0  0  0  0
   59.3974   34.8664   48.2216 H   0  0  0  0  0  0  0  0  0  0  0  0
   58.4210   33.3250   47.0520 C   0  0  0  0  0  0  0  0  0  0  0  0
   58.0344   32.7940   47.9344 H   0  0  0  0  0  0  0  0  0  0  0  0
   58.1480   32.8390   45.7640 C   0  0  0  0  0  0  0  0  0  0  0  0
   57.3930   31.6850   45.5620 C   0  0  0  0  0  0  0  0  0  0  0  0
   56.9962   31.1290   46.4242 H   0  0  0  0  0  0  0  0  0  0  0  0
   57.1400   31.2340   44.2610 C   0  0  0  0  0  0  0  0  0  0  0  0
   56.3640   29.9920   44.0680 C   0  0  0  0  0  0  0  0  0  0  0  0
   55.9360   29.7050   42.9190 O   0  0  0  0  0  0  0  0  0  0  0  0
   56.0830   29.1030   45.1560 N   0  0  0  0  0  0  0  0  0  0  0  0
   56.9900   28.0570   45.6120 C   0  0  0  0  0  0  0  0  0  0  0  0
   56.5747   27.5766   46.5102 H   0  0  0  0  0  0  0  0  0  0  0  0
   57.1124   27.3045   44.8190 H   0  0  0  0  0  0  0  0  0  0  0  0
   58.3230   28.6630   45.9390 C   0  0  0  0  0  0  0  0  0  0  0  0
   59.3680   28.6430   44.9810 C   0  0  0  0  0  0  0  0  0  0  0  0
   59.2066   28.1571   44.0074 H   0  0  0  0  0  0  0  0  0  0  0  0
   60.6100   29.2400   45.2660 C   0  0  0  0  0  0  0  0  0  0  0  0
   61.4303   29.2225   44.5334 H   0  0  0  0  0  0  0  0  0  0  0  0
   60.7660   29.8530   46.5050 C   0  0  0  0  0  0  0  0  0  0  0  0
   59.7650   29.8880   47.4210 C   0  0  0  0  0  0  0  0  0  0  0  0
   58.5220   29.3100   47.1790 C   0  0  0  0  0  0  0  0  0  0  0  0
   57.7196   29.3556   47.9300 H   0  0  0  0  0  0  0  0  0  0  0  0
   60.1960   30.5620   48.5480 O   0  0  0  0  0  0  0  0  0  0  0  0
   61.5510   30.9740   48.3260 C   0  0  0  0  0  0  0  0  0  0  0  0
   61.6340   32.0698   48.3748 H   0  0  0  0  0  0  0  0  0  0  0  0
   62.2338   30.5702   49.0880 H   0  0  0  0  0  0  0  0  0  0  0  0
   61.8760   30.5030   47.0110 O   0  0  0  0  0  0  0  0  0  0  0  0
  1  2  1  0
  2  3  2  0
  3  4  1  0
  4  5  1  0
  5  6  2  0
  6  7  1  0
  6  8  1  0
  8  9  1  0
  8 10  2  0
 10 11  1  0
 10 12  1  0
 12 13  1  0
 12 14  2  0
 14 15  1  0
 15 16  1  0
 15 17  2  0
 17 18  1  0
 18 19  2  0
 18 20  1  0
 20 21  1  0
 21 22  1  0
 21 23  1  0
 21 24  1  0
 24 25  2  0
 25 26  1  0
 25 27  1  0
 27 28  1  0
 27 29  2  0
 29 30  1  0
 30 31  2  0
 31 32  1  0
 30 33  1  0
 33 34  1  0
 34 35  1  0
 34 36  1  0
 34 37  1  0
 17  3  1  0
 31 24  1  0
 14  5  1  0
 37 29  1  0
M  CHG  1  20  -1
M  END
>  <UniqueID>  (48) 
45

>  <SMILES>  (48) 
[H]/N=c1/oc2ccccc2cc1C(=O)[N-]Cc1ccc2c(c1)OCO2

>  <Energy>  (48) 
78.87691912073159

>  <Genealogy>  (48) 
N=c1oc2ccccc2cc1C(=O)[N-]Cc1ccc2c(c1)OCO2 (protonated)
[H]/N=c1/oc2ccccc2cc1C(=O)[N-]Cc1ccc2c(c1)OCO2 (cis-trans isomerization)
[H]/N=c1/oc2ccccc2cc1C(=O)[N-]Cc1ccc2c(c1)OCO2 (3D coordinates assigned)
[H]/N=c1/oc2ccccc2cc1C(=O)[N-]Cc1ccc2c(c1)OCO2 (nonaromatic ring conformer: 78.87691912073159 kcal/mol)

>  <smiles>  (48) 
N=c1oc2ccccc2cc1C(=O)NCc1ccc2c(c1)OCO2

>  <score_type>  (48) 
oracle

>  <origin>  (48) 
adg

>  <m_score__min__energy>  (48) 
-9.4600000000000009

>  <m_primary>  (48) 
energy

$$$$
48:0
     RDKit          3D

 37 39  0  0  0  0  0  0  0  0999 V2000
   56.1520   25.4600   46.7160 O   0  0  0  0  0  0  0  0  0  0  0  0
   56.5840   26.6190   46.4810 C   0  0  0  0  0  0  0  0  0  0  0  0
   57.7820   27.1460   47.2180 C   0  0  0  0  0  0  0  0  0  0  0  0
   58.5890   28.1090   46.3350 C   0  0  0  0  0  0  0  0  0  0  0  0
   57.7080   29.1200   45.6390 C   0  0  0  0  0  0  0  0  0  0  0  0
   58.2120   30.3830   45.2960 C   0  0  0  0  0  0  0  0  0  0  0  0
   57.4240   31.2860   44.5710 C   0  0  0  0  0  0  0  0  0  0  0  0
   58.0590   32.8850   44.1850 S   0  0  0  0  0  0  0  0  0  0  0  0
   58.4050   32.9340   42.7240 O   0  0  0  0  0  0  0  0  0  0  0  0
   57.0210   33.9380   44.4640 O   0  0  0  0  0  0  0  0  0  0  0  0
   59.4850   33.2090   45.1230 N   0  0  0  0  0  0  0  0  0  0  0  0
   59.2510   34.3570   46.0020 C   0  0  0  0  0  0  0  0  0  0  0  0
   60.0430   34.1930   47.2690 C   0  0  0  0  0  0  0  0  0  0  0  0
   59.4220   34.3550   48.5180 C   0  0  0  0  0  0  0  0  0  0  0  0
   60.1520   34.1670   49.6960 C   0  0  0  0  0  0  0  0  0  0  0  0
   61.5000   33.8070   49.6350 C   0  0  0  0  0  0  0  0  0  0  0  0
   62.1220   33.6280   48.3950 C   0  0  0  0  0  0  0  0  0  0  0  0
   63.9620   33.1220   48.3130 Br  0  0  0  0  0  0  0  0  0  0  0  0
   61.3940   33.8140   47.2140 C   0  0  0  0  0  0  0  0  0  0  0  0
   56.1290   30.9190   44.1770 C   0  0  0  0  0  0  0  0  0  0  0  0
   55.6280   29.6550   44.4990 C   0  0  0  0  0  0  0  0  0  0  0  0
   56.4110   28.7550   45.2270 C   0  0  0  0  0  0  0  0  0  0  0  0
   55.8880   27.4670   45.5670 N   0  0  0  0  0  0  0  0  0  0  0  0
   57.4446   27.6802   48.1184 H   0  0  0  0  0  0  0  0  0  0  0  0
   58.4263   26.2980   47.4930 H   0  0  0  0  0  0  0  0  0  0  0  0
   59.3133   28.6452   46.9658 H   0  0  0  0  0  0  0  0  0  0  0  0
   59.0954   27.5133   45.5613 H   0  0  0  0  0  0  0  0  0  0  0  0
   59.2312   30.6659   45.5978 H   0  0  0  0  0  0  0  0  0  0  0  0
   59.6490   32.3670   45.7220 H   0  0  0  0  0  0  0  0  0  0  0  0
   59.5650   35.2791   45.4910 H   0  0  0  0  0  0  0  0  0  0  0  0
   58.1802   34.4172   46.2463 H   0  0  0  0  0  0  0  0  0  0  0  0
   58.3583   34.6306   48.5700 H   0  0  0  0  0  0  0  0  0  0  0  0
   59.6636   34.3029   50.6722 H   0  0  0  0  0  0  0  0  0  0  0  0
   62.0731   33.6641   50.5630 H   0  0  0  0  0  0  0  0  0  0  0  0
   61.8818   33.6628   46.2397 H   0  0  0  0  0  0  0  0  0  0  0  0
   55.5058   31.6284   43.6128 H   0  0  0  0  0  0  0  0  0  0  0  0
   54.6155   29.3678   44.1789 H   0  0  0  0  0  0  0  0  0  0  0  0
  1  2  2  0
  2  3  1  0
  3  4  1  0
  4  5  1  0
  5  6  2  0
  6  7  1  0
  7  8  1  0
  8  9  2  0
  8 10  2  0
  8 11  1  0
 11 12  1  0
 12 13  1  0
 13 14  2  0
 14 15  1  0
 15 16  2  0
 16 17  1  0
 17 18  1  0
 17 19  2  0
  7 20  2  0
 20 21  1  0
 21 22  2  0
 22 23  1  0
 23  2  1  0
 22  5  1  0
 19 13  1  0
  3 24  1  0
  3 25  1  0
  4 26  1  0
  4 27  1  0
  6 28  1  0
 11 29  1  0
 12 30  1  0
 12 31  1  0
 14 32  1  0
 15 33  1  0
 16 34  1  0
 19 35  1  0
 20 36  1  0
 21 37  1  0
M  CHG  1  23  -1
M  END
>  <UniqueID>  (49) 
46

>  <SMILES>  (49) 
O=C1CCc2cc(S(=O)(=O)NCc3cccc(Br)c3)ccc2[N-]1

>  <Energy>  (49) 
35.77888718139266

>  <Genealogy>  (49) 
O=C1CCc2cc(S(=O)(=O)NCc3cccc(Br)c3)ccc2[N-]1 (protonated)
O=C1CCc2cc(S(=O)(=O)NCc3cccc(Br)c3)ccc2[N-]1 (3D coordinates assigned)
O=C1CCc2cc(S(=O)(=O)NCc3cccc(Br)c3)ccc2[N-]1 (nonaromatic ring conformer: 35.77888718139266 kcal/mol)

>  <smiles>  (49) 
O=C1CCc2cc(S(=O)(=O)NCc3cccc(Br)c3)ccc2N1

>  <score_type>  (49) 
oracle

>  <origin>  (49) 
adg

>  <m_score__min__energy>  (49) 
-10.56

>  <m_primary>  (49) 
energy

$$$$
49:0
     RDKit          3D

 40 43  0  0  1  0  0  0  0  0999 V2000
   56.4720   29.3010   42.5150 N   0  0  0  0  0  0  0  0  0  0  0  0
   56.9920   29.1790   43.7020 C   0  0  0  0  0  0  0  0  0  0  0  0
   57.2340   30.2530   44.4760 N   0  0  0  0  0  0  0  0  0  0  0  0
   57.7730   30.1310   45.7070 C   0  0  0  0  0  0  0  0  0  0  0  0
   57.9820   31.1450   46.3920 N   0  0  0  0  0  0  0  0  0  0  0  0
   58.4040   32.4100   45.9730 C   0  0  0  0  0  0  0  0  0  0  0  0
   59.6690   32.8610   46.3620 C   0  0  0  0  0  0  0  0  0  0  0  0
   60.1140   34.1200   46.0170 C   0  0  0  0  0  0  0  0  0  0  0  0
   59.2740   34.9220   45.2770 C   0  0  0  0  0  0  0  0  0  0  0  0
   58.0180   34.4890   44.8850 C   0  0  0  0  0  0  0  0  0  0  0  0
   57.5510   33.2280   45.2190 C   0  0  0  0  0  0  0  0  0  0  0  0
   58.0780   28.8890   46.1780 C   0  0  0  0  0  0  0  0  0  0  0  0
   58.6090   28.4340   47.3290 C   0  0  0  0  0  0  0  0  0  0  0  0
   58.6610   27.0380   47.1830 C   0  0  0  0  0  0  0  0  0  0  0  0
   58.1820   26.6790   45.9940 N   0  0  0  0  0  0  0  0  0  0  0  0
   58.0710   25.3440   45.4790 C   0  0  0  0  0  0  0  0  0  0  0  0
   59.1080   24.4440   45.6870 C   0  0  0  0  0  0  0  0  0  0  0  0
   59.0780   23.1480   45.2250 C   0  0  0  0  0  0  0  0  0  0  0  0
   57.9570   22.7430   44.5260 C   0  0  0  0  0  0  0  0  0  0  0  0
   56.9030   23.6090   44.2990 C   0  0  0  0  0  0  0  0  0  0  0  0
   55.7470   23.1930   43.5790 N   0  0  0  0  0  0  0  0  0  0  0  0
   54.6380   23.7010   43.8210 O   0  0  0  0  0  0  0  0  0  0  0  0
   55.9110   22.2230   42.6190 O   0  0  0  0  0  0  0  0  0  0  0  0
   56.9820   24.8980   44.7830 C   0  0  0  0  0  0  0  0  0  0  0  0
   57.8180   27.8100   45.3640 C   0  0  0  0  0  0  0  0  0  0  0  0
   57.2790   27.9330   44.1310 N   0  0  0  0  0  0  0  0  0  0  0  0
   55.5690   28.9140   42.2380 H   0  0  0  0  0  0  0  0  0  0  0  0
   57.0060   31.2060   44.1270 H   0  0  0  0  0  0  0  0  0  0  0  0
   60.3203   32.2005   46.9532 H   0  0  0  0  0  0  0  0  0  0  0  0
   61.1097   34.4728   46.3236 H   0  0  0  0  0  0  0  0  0  0  0  0
   59.6083   35.9301   44.9905 H   0  0  0  0  0  0  0  0  0  0  0  0
   57.3771   35.1611   44.2955 H   0  0  0  0  0  0  0  0  0  0  0  0
   56.5542   32.8837   44.9061 H   0  0  0  0  0  0  0  0  0  0  0  0
   58.9324   29.0278   48.1966 H   0  0  0  0  0  0  0  0  0  0  0  0
   59.0432   26.3406   47.9430 H   0  0  0  0  0  0  0  0  0  0  0  0
   59.9930   24.7821   46.2460 H   0  0  0  0  0  0  0  0  0  0  0  0
   59.9164   22.4592   45.4057 H   0  0  0  0  0  0  0  0  0  0  0  0
   57.9020   21.7132   44.1432 H   0  0  0  0  0  0  0  0  0  0  0  0
   56.1440   25.5877   44.6038 H   0  0  0  0  0  0  0  0  0  0  0  0
   57.0880   27.0980   43.5240 H   0  0  0  0  0  0  0  0  0  0  0  0
  1  2  2  3
  2  3  1  0
  3  4  1  0
  4  5  2  0
  5  6  1  0
  6  7  2  0
  7  8  1  0
  8  9  2  0
  9 10  1  0
 10 11  2  0
  4 12  1  0
 12 13  1  0
 13 14  2  0
 14 15  1  0
 15 16  1  0
 16 17  2  0
 17 18  1  0
 18 19  2  0
 19 20  1  0
 20 21  1  0
 21 22  2  0
 21 23  1  0
 20 24  2  0
 15 25  1  0
 25 26  1  0
 26  2  1  0
 11  6  1  0
 25 12  2  0
 24 16  1  0
  1 27  1  0
  3 28  1  0
  7 29  1  0
  8 30  1  0
  9 31  1  0
 10 32  1  0
 11 33  1  0
 13 34  1  0
 14 35  1  0
 17 36  1  0
 18 37  1  0
 19 38  1  0
 24 39  1  0
 26 40  1  0
M  CHG  2  21   1  23  -1
M  END
>  <smiles>  (50) 
N=c1[nH]c(=Nc2ccccc2)c2ccn(-c3cccc([N+](=O)[O-])c3)c2[nH]1

>  <score_type>  (50) 
oracle

>  <origin>  (50) 
adg

>  <m_score__min__energy>  (50) 
-8.4700000000000006

>  <m_primary>  (50) 
energy

$$$$
50:0
     RDKit          3D

 37 39  0  0  0  0  0  0  0  0999 V2000
   59.8770   21.8450   45.0100 N   0  0  0  0  0  0  0  0  0  0  0  0
   58.6130   22.4760   44.7870 C   0  0  0  0  0  0  0  0  0  0  0  0
   57.7840   22.0400   43.7440 C   0  0  0  0  0  0  0  0  0  0  0  0
   56.5500   22.6550   43.5270 C   0  0  0  0  0  0  0  0  0  0  0  0
   56.1340   23.7090   44.3460 C   0  0  0  0  0  0  0  0  0  0  0  0
   56.9540   24.1590   45.3960 C   0  0  0  0  0  0  0  0  0  0  0  0
   56.5200   25.2720   46.2690 C   0  0  0  0  0  0  0  0  0  0  0  0
   55.4640   25.9100   46.0020 O   0  0  0  0  0  0  0  0  0  0  0  0
   57.2860   25.6190   47.3900 O   0  0  0  0  0  0  0  0  0  0  0  0
   58.6480   26.0360   47.3130 C   0  0  0  0  0  0  0  0  0  0  0  0
   58.7440   27.3850   46.6690 C   0  0  0  0  0  0  0  0  0  0  0  0
   59.8630   27.9640   46.6250 O   0  0  0  0  0  0  0  0  0  0  0  0
   57.5630   28.0350   46.1710 N   0  0  0  0  0  0  0  0  0  0  0  0
   57.5770   29.2520   45.4050 C   0  0  0  0  0  0  0  0  0  0  0  0
   56.9850   29.3220   44.1150 C   0  0  0  0  0  0  0  0  0  0  0  0
   56.9880   30.5280   43.3910 C   0  0  0  0  0  0  0  0  0  0  0  0
   57.5720   31.6420   43.9860 C   0  0  0  0  0  0  0  0  0  0  0  0
   58.1220   31.5880   45.2240 C   0  0  0  0  0  0  0  0  0  0  0  0
   58.1400   30.4160   45.9730 C   0  0  0  0  0  0  0  0  0  0  0  0
   58.6160   32.8340   45.5630 O   0  0  0  0  0  0  0  0  0  0  0  0
   58.3610   33.7240   44.4670 C   0  0  0  0  0  0  0  0  0  0  0  0
   57.6930   32.9230   43.4820 O   0  0  0  0  0  0  0  0  0  0  0  0
   58.1970   23.5330   45.6090 C   0  0  0  0  0  0  0  0  0  0  0  0
   59.9300   20.8480   45.3170 H   0  0  0  0  0  0  0  0  0  0  0  0
   60.7690   22.3690   44.8690 H   0  0  0  0  0  0  0  0  0  0  0  0
   58.1065   21.2120   43.0956 H   0  0  0  0  0  0  0  0  0  0  0  0
   55.9021   22.3090   42.7082 H   0  0  0  0  0  0  0  0  0  0  0  0
   55.1602   24.1887   44.1681 H   0  0  0  0  0  0  0  0  0  0  0  0
   59.0694   26.0877   48.3278 H   0  0  0  0  0  0  0  0  0  0  0  0
   59.2104   25.3100   46.7075 H   0  0  0  0  0  0  0  0  0  0  0  0
   56.6360   27.6510   46.4590 H   0  0  0  0  0  0  0  0  0  0  0  0
   56.5204   28.4254   43.6789 H   0  0  0  0  0  0  0  0  0  0  0  0
   56.5430   30.5885   42.3868 H   0  0  0  0  0  0  0  0  0  0  0  0
   58.5809   30.3964   46.9806 H   0  0  0  0  0  0  0  0  0  0  0  0
   57.7183   34.5571   44.7877 H   0  0  0  0  0  0  0  0  0  0  0  0
   59.2866   34.1711   44.0755 H   0  0  0  0  0  0  0  0  0  0  0  0
   58.8473   23.8761   46.4272 H   0  0  0  0  0  0  0  0  0  0  0  0
  1  2  1  0
  2  3  2  0
  3  4  1  0
  4  5  2  0
  5  6  1  0
  6  7  1  0
  7  8  2  0
  7  9  1  0
  9 10  1  0
 10 11  1  0
 11 12  2  0
 11 13  1  0
 13 14  1  0
 14 15  2  0
 15 16  1  0
 16 17  2  0
 17 18  1  0
 18 19  2  0
 18 20  1  0
 20 21  1  0
 21 22  1  0
  6 23  2  0
 23  2  1  0
 19 14  1  0
 22 17  1  0
  1 24  1  0
  1 25  1  0
  3 26  1  0
  4 27  1  0
  5 28  1  0
 10 29  1  0
 10 30  1  0
 13 31  1  0
 15 32  1  0
 16 33  1  0
 19 34  1  0
 21 35  1  0
 21 36  1  0
 23 37  1  0
M  END
>  <UniqueID>  (51) 
47

>  <SMILES>  (51) 
Nc1cccc(C(=O)OCC(=O)Nc2ccc3c(c2)OCO3)c1

>  <Energy>  (51) 
67.25807374630172

>  <Genealogy>  (51) 
Nc1cccc(C(=O)OCC(=O)Nc2ccc3c(c2)OCO3)c1 (3D coordinates assigned)
Nc1cccc(C(=O)OCC(=O)Nc2ccc3c(c2)OCO3)c1 (nonaromatic ring conformer: 67.25807374630172 kcal/mol)

>  <smiles>  (51) 
Nc1cccc(C(=O)OCC(=O)Nc2ccc3c(c2)OCO3)c1

>  <score_type>  (51) 
oracle

>  <origin>  (51) 
adg

>  <m_score__min__energy>  (51) 
-7.2300000000000004

>  <m_primary>  (51) 
energy

$$$$
51:0
     RDKit          3D

 44 46  0  0  0  0  0  0  0  0999 V2000
   54.8370   25.0120   45.6290 C   0  0  0  0  0  0  0  0  0  0  0  0
   55.1430   26.3790   46.0210 N   0  0  0  0  0  0  0  0  0  0  0  0
   56.4780   26.8890   46.0630 C   0  0  0  0  0  0  0  0  0  0  0  0
   57.3250   26.3880   46.8520 O   0  0  0  0  0  0  0  0  0  0  0  0
   56.8790   27.9990   45.1290 C   0  0  1  0  0  0  0  0  0  0  0  0
   55.8090   29.0100   45.0260 N   0  0  0  0  0  0  0  0  0  0  0  0
   55.8980   29.7630   43.7670 C   0  0  0  0  0  0  0  0  0  0  0  0
   56.7350   30.9890   43.9720 C   0  0  0  0  0  0  0  0  0  0  0  0
   57.3930   31.5960   42.8940 C   0  0  0  0  0  0  0  0  0  0  0  0
   58.1980   32.7120   43.1220 C   0  0  0  0  0  0  0  0  0  0  0  0
   58.3630   33.2050   44.4220 C   0  0  0  0  0  0  0  0  0  0  0  0
   57.6810   32.5730   45.4780 C   0  0  0  0  0  0  0  0  0  0  0  0
   56.9040   31.4840   45.2300 N   0  0  0  0  0  0  0  0  0  0  0  0
   57.8290   33.0510   46.8210 N   0  0  0  0  0  0  0  0  0  0  0  0
   58.5450   34.2920   47.1110 C   0  0  0  0  0  0  0  0  0  0  0  0
   59.7030   34.4830   46.1260 C   0  0  0  0  0  0  0  0  0  0  0  0
   59.1970   34.4350   44.6780 C   0  0  0  0  0  0  0  0  0  0  0  0
   58.1590   28.6270   45.6400 C   0  0  0  0  0  0  0  0  0  0  0  0
   59.3320   28.6070   44.8610 C   0  0  0  0  0  0  0  0  0  0  0  0
   60.5020   29.2110   45.3290 C   0  0  0  0  0  0  0  0  0  0  0  0
   60.5120   29.8500   46.5720 C   0  0  0  0  0  0  0  0  0  0  0  0
   59.3500   29.8880   47.3480 C   0  0  0  0  0  0  0  0  0  0  0  0
   59.3590   30.5140   48.5510 F   0  0  0  0  0  0  0  0  0  0  0  0
   58.1770   29.2840   46.8840 C   0  0  0  0  0  0  0  0  0  0  0  0
   54.6988   24.3947   46.5289 H   0  0  0  0  0  0  0  0  0  0  0  0
   53.9139   25.0000   45.0308 H   0  0  0  0  0  0  0  0  0  0  0  0
   55.6668   24.6076   45.0308 H   0  0  0  0  0  0  0  0  0  0  0  0
   57.0450   27.5883   44.1221 H   0  0  0  0  0  0  0  0  0  0  0  0
   55.9380   29.7010   45.8040 H   0  0  0  0  0  0  0  0  0  0  0  0
   56.3587   29.1304   42.9940 H   0  0  0  0  0  0  0  0  0  0  0  0
   54.8883   30.0596   43.4469 H   0  0  0  0  0  0  0  0  0  0  0  0
   57.2756   31.1956   41.8762 H   0  0  0  0  0  0  0  0  0  0  0  0
   58.7040   33.2056   42.2792 H   0  0  0  0  0  0  0  0  0  0  0  0
   57.3470   32.5490   47.6010 H   0  0  0  0  0  0  0  0  0  0  0  0
   57.8504   35.1404   47.0227 H   0  0  0  0  0  0  0  0  0  0  0  0
   58.9501   34.2400   48.1324 H   0  0  0  0  0  0  0  0  0  0  0  0
   60.1770   35.4583   46.3107 H   0  0  0  0  0  0  0  0  0  0  0  0
   60.4303   33.6711   46.2735 H   0  0  0  0  0  0  0  0  0  0  0  0
   58.5849   35.3281   44.4840 H   0  0  0  0  0  0  0  0  0  0  0  0
   60.0699   34.4042   44.0093 H   0  0  0  0  0  0  0  0  0  0  0  0
   59.3272   28.1130   43.8782 H   0  0  0  0  0  0  0  0  0  0  0  0
   61.4164   29.1835   44.7182 H   0  0  0  0  0  0  0  0  0  0  0  0
   61.4345   30.3231   46.9397 H   0  0  0  0  0  0  0  0  0  0  0  0
   57.2632   29.3228   47.4952 H   0  0  0  0  0  0  0  0  0  0  0  0
  1  2  1  0
  2  3  1  0
  3  4  2  0
  3  5  1  0
  5  6  1  0
  6  7  1  0
  7  8  1  0
  8  9  2  0
  9 10  1  0
 10 11  2  0
 11 12  1  0
 12 13  2  0
 12 14  1  0
 14 15  1  0
 15 16  1  0
 16 17  1  0
  5 18  1  0
 18 19  2  0
 19 20  1  0
 20 21  2  0
 21 22  1  0
 22 23  1  0
 22 24  2  0
 13  8  1  0
 24 18  1  0
 17 11  1  0
  1 25  1  0
  1 26  1  0
  1 27  1  0
  5 28  1  6
  6 29  1  0
  7 30  1  0
  7 31  1  0
  9 32  1  0
 10 33  1  0
 14 34  1  0
 15 35  1  0
 15 36  1  0
 16 37  1  0
 16 38  1  0
 17 39  1  0
 17 40  1  0
 19 41  1  0
 20 42  1  0
 21 43  1  0
 24 44  1  0
M  CHG  1   2  -1
M  END
>  <UniqueID>  (52) 
48

>  <SMILES>  (52) 
C[N-]C(=O)[C@@H](NCc1ccc2c(n1)NCCC2)c1cccc(F)c1

>  <Energy>  (52) 
40.56288931504995

>  <Genealogy>  (52) 
C[N-]C(=O)C(NCc1ccc2c(n1)NCCC2)c1cccc(F)c1 (protonated)
C[N-]C(=O)[C@@H](NCc1ccc2c(n1)NCCC2)c1cccc(F)c1 (chirality)
C[N-]C(=O)[C@@H](NCc1ccc2c(n1)NCCC2)c1cccc(F)c1 (3D coordinates assigned)
C[N-]C(=O)[C@@H](NCc1ccc2c(n1)NCCC2)c1cccc(F)c1 (nonaromatic ring conformer: 40.56288931504995 kcal/mol)

>  <smiles>  (52) 
CNC(=O)C(NCc1ccc2c(n1)NCCC2)c1cccc(F)c1

>  <score_type>  (52) 
oracle

>  <origin>  (52) 
adg

>  <m_score__min__energy>  (52) 
-11.34

>  <m_primary>  (52) 
energy

$$$$
52:0
     RDKit          3D

 39 41  0  0  0  0  0  0  0  0999 V2000
   57.3650   26.1160   45.2860 C   0  0  0  0  0  0  0  0  0  0  0  0
   56.8830   27.2170   46.0480 O   0  0  0  0  0  0  0  0  0  0  0  0
   57.4240   28.5120   46.0020 C   0  0  0  0  0  0  0  0  0  0  0  0
   58.6300   28.8500   46.6430 C   0  0  0  0  0  0  0  0  0  0  0  0
   59.1240   30.1580   46.5660 C   0  0  0  0  0  0  0  0  0  0  0  0
   60.3240   30.5150   47.1960 C   0  0  0  0  0  0  0  0  0  0  0  0
   60.8100   31.8310   47.1070 C   0  0  0  0  0  0  0  0  0  0  0  0
   62.0820   32.2070   47.7750 C   0  0  0  0  0  0  0  0  0  0  0  0
   62.4810   31.5720   48.9670 C   0  0  0  0  0  0  0  0  0  0  0  0
   63.6780   31.9280   49.5940 C   0  0  0  0  0  0  0  0  0  0  0  0
   64.4900   32.9210   49.0400 C   0  0  0  0  0  0  0  0  0  0  0  0
   64.1070   33.5580   47.8580 C   0  0  0  0  0  0  0  0  0  0  0  0
   62.9090   33.2060   47.2270 C   0  0  0  0  0  0  0  0  0  0  0  0
   60.0780   32.7860   46.3800 C   0  0  0  0  0  0  0  0  0  0  0  0
   58.8700   32.4390   45.7430 C   0  0  0  0  0  0  0  0  0  0  0  0
   58.1170   33.3720   45.0100 O   0  0  0  0  0  0  0  0  0  0  0  0
   57.0250   34.1190   45.5350 C   0  0  0  0  0  0  0  0  0  0  0  0
   58.3980   31.1230   45.8380 C   0  0  0  0  0  0  0  0  0  0  0  0
   57.2350   30.7700   45.2280 N   0  0  0  0  0  0  0  0  0  0  0  0
   56.7360   29.5040   45.2910 C   0  0  0  0  0  0  0  0  0  0  0  0
   55.5360   29.1820   44.6490 O   0  0  0  0  0  0  0  0  0  0  0  0
   55.1740   29.7160   43.3810 C   0  0  0  0  0  0  0  0  0  0  0  0
   57.7119   25.3236   45.9656 H   0  0  0  0  0  0  0  0  0  0  0  0
   56.5551   25.7265   44.6517 H   0  0  0  0  0  0  0  0  0  0  0  0
   58.2006   26.4469   44.6517 H   0  0  0  0  0  0  0  0  0  0  0  0
   59.1858   28.0854   47.2056 H   0  0  0  0  0  0  0  0  0  0  0  0
   60.8889   29.7608   47.7635 H   0  0  0  0  0  0  0  0  0  0  0  0
   61.8455   30.7898   49.4079 H   0  0  0  0  0  0  0  0  0  0  0  0
   63.9813   31.4260   50.5246 H   0  0  0  0  0  0  0  0  0  0  0  0
   65.4314   33.2010   49.5353 H   0  0  0  0  0  0  0  0  0  0  0  0
   64.7484   34.3381   47.4221 H   0  0  0  0  0  0  0  0  0  0  0  0
   62.6114   33.7128   46.2972 H   0  0  0  0  0  0  0  0  0  0  0  0
   60.4531   33.8175   46.3075 H   0  0  0  0  0  0  0  0  0  0  0  0
   57.0594   34.0955   46.6342 H   0  0  0  0  0  0  0  0  0  0  0  0
   57.0929   35.1607   45.1883 H   0  0  0  0  0  0  0  0  0  0  0  0
   56.0788   33.6781   45.1883 H   0  0  0  0  0  0  0  0  0  0  0  0
   54.5620   30.6187   43.5245 H   0  0  0  0  0  0  0  0  0  0  0  0
   56.0835   29.9750   42.8191 H   0  0  0  0  0  0  0  0  0  0  0  0
   54.5966   28.9671   42.8191 H   0  0  0  0  0  0  0  0  0  0  0  0
  1  2  1  0
  2  3  1  0
  3  4  2  0
  4  5  1  0
  5  6  2  0
  6  7  1  0
  7  8  1  0
  8  9  2  0
  9 10  1  0
 10 11  2  0
 11 12  1  0
 12 13  2  0
  7 14  2  0
 14 15  1  0
 15 16  1  0
 16 17  1  0
 15 18  2  0
 18 19  1  0
 19 20  2  0
 20 21  1  0
 21 22  1  0
 20  3  1  0
 18  5  1  0
 13  8  1  0
  1 23  1  0
  1 24  1  0
  1 25  1  0
  4 26  1  0
  6 27  1  0
  9 28  1  0
 10 29  1  0
 11 30  1  0
 12 31  1  0
 13 32  1  0
 14 33  1  0
 17 34  1  0
 17 35  1  0
 17 36  1  0
 22 37  1  0
 22 38  1  0
 22 39  1  0
M  END
>  <UniqueID>  (53) 
49

>  <SMILES>  (53) 
COc1cc2cc(-c3ccccc3)cc(OC)c2nc1OC

>  <Energy>  (53) 
46.64355386052219

>  <Genealogy>  (53) 
COc1cc2cc(-c3ccccc3)cc(OC)c2nc1OC (3D coordinates assigned)
COc1cc2cc(-c3ccccc3)cc(OC)c2nc1OC (optimized conformer: 46.64355386052219 kcal/mol)

>  <smiles>  (53) 
COc1cc2cc(-c3ccccc3)cc(OC)c2nc1OC

>  <score_type>  (53) 
oracle

>  <origin>  (53) 
adg

>  <m_score__min__energy>  (53) 
-6.9100000000000001

>  <m_primary>  (53) 
energy

$$$$
53:0
     RDKit          3D

 38 40  0  0  0  0  0  0  0  0999 V2000
   56.8810   27.3730   45.6230 C   0  0  0  0  0  0  0  0  0  0  0  0
   57.9710   27.2240   46.5960 N   0  0  0  0  0  0  0  0  0  0  0  0
   58.1000   25.9580   47.3290 C   0  0  0  0  0  0  0  0  0  0  0  0
   58.9040   28.3120   46.8340 C   0  0  0  0  0  0  0  0  0  0  0  0
   59.5210   28.9850   45.7580 C   0  0  0  0  0  0  0  0  0  0  0  0
   60.4140   30.0330   45.9880 C   0  0  0  0  0  0  0  0  0  0  0  0
   60.7030   30.4480   47.2960 C   0  0  0  0  0  0  0  0  0  0  0  0
   61.6520   31.5550   47.5530 C   0  0  0  0  0  0  0  0  0  0  0  0
   62.8460   31.2550   48.1330 N   0  0  0  0  0  0  0  0  0  0  0  0
   63.7890   32.2050   48.3550 C   0  0  0  0  0  0  0  0  0  0  0  0
   63.5570   33.4890   47.9910 N   0  0  0  0  0  0  0  0  0  0  0  0
   62.3820   33.8520   47.4180 C   0  0  0  0  0  0  0  0  0  0  0  0
   61.3790   32.8980   47.1930 C   0  0  0  0  0  0  0  0  0  0  0  0
   60.0700   33.3360   46.6530 C   0  0  0  0  0  0  0  0  0  0  0  0
   60.0110   34.0990   45.4730 C   0  0  0  0  0  0  0  0  0  0  0  0
   58.7770   34.5110   44.9610 C   0  0  0  0  0  0  0  0  0  0  0  0
   57.5940   34.1710   45.6240 C   0  0  0  0  0  0  0  0  0  0  0  0
   56.3980   34.5710   45.1240 F   0  0  0  0  0  0  0  0  0  0  0  0
   57.6440   33.4240   46.8040 C   0  0  0  0  0  0  0  0  0  0  0  0
   58.8760   33.0110   47.3200 C   0  0  0  0  0  0  0  0  0  0  0  0
   60.1140   29.7720   48.3720 C   0  0  0  0  0  0  0  0  0  0  0  0
   59.2200   28.7220   48.1450 C   0  0  0  0  0  0  0  0  0  0  0  0
   55.9281   27.5033   46.1569 H   0  0  0  0  0  0  0  0  0  0  0  0
   57.0709   28.2535   44.9917 H   0  0  0  0  0  0  0  0  0  0  0  0
   56.8276   26.4738   44.9917 H   0  0  0  0  0  0  0  0  0  0  0  0
   58.0797   26.1569   48.4107 H   0  0  0  0  0  0  0  0  0  0  0  0
   57.2649   25.2934   47.0627 H   0  0  0  0  0  0  0  0  0  0  0  0
   59.0520   25.4755   47.0627 H   0  0  0  0  0  0  0  0  0  0  0  0
   59.2955   28.6801   44.7254 H   0  0  0  0  0  0  0  0  0  0  0  0
   60.8947   30.5372   45.1367 H   0  0  0  0  0  0  0  0  0  0  0  0
   64.7425   31.9323   48.8309 H   0  0  0  0  0  0  0  0  0  0  0  0
   62.2152   34.9000   47.1284 H   0  0  0  0  0  0  0  0  0  0  0  0
   60.9396   34.3727   44.9508 H   0  0  0  0  0  0  0  0  0  0  0  0
   58.7368   35.1036   44.0351 H   0  0  0  0  0  0  0  0  0  0  0  0
   56.7130   33.1607   47.3274 H   0  0  0  0  0  0  0  0  0  0  0  0
   58.9112   32.4288   48.2526 H   0  0  0  0  0  0  0  0  0  0  0  0
   60.3567   30.0695   49.4028 H   0  0  0  0  0  0  0  0  0  0  0  0
   58.7569   28.2088   49.0007 H   0  0  0  0  0  0  0  0  0  0  0  0
  1  2  1  0
  2  3  1  0
  2  4  1  0
  4  5  2  0
  5  6  1  0
  6  7  2  0
  7  8  1  0
  8  9  2  0
  9 10  1  0
 10 11  2  0
 11 12  1  0
 12 13  2  0
 13 14  1  0
 14 15  2  0
 15 16  1  0
 16 17  2  0
 17 18  1  0
 17 19  1  0
 19 20  2  0
  7 21  1  0
 21 22  2  0
 22  4  1  0
 13  8  1  0
 20 14  1  0
  1 23  1  0
  1 24  1  0
  1 25  1  0
  3 26  1  0
  3 27  1  0
  3 28  1  0
  5 29  1  0
  6 30  1  0
 10 31  1  0
 12 32  1  0
 15 33  1  0
 16 34  1  0
 19 35  1  0
 20 36  1  0
 21 37  1  0
 22 38  1  0
M  END
>  <UniqueID>  (54) 
50

>  <SMILES>  (54) 
CN(C)c1ccc(-c2ncncc2-c2ccc(F)cc2)cc1

>  <Energy>  (54) 
55.181430543181214

>  <Genealogy>  (54) 
CN(C)c1ccc(-c2ncncc2-c2ccc(F)cc2)cc1 (3D coordinates assigned)
CN(C)c1ccc(-c2ncncc2-c2ccc(F)cc2)cc1 (optimized conformer: 55.181430543181214 kcal/mol)

>  <smiles>  (54) 
CN(C)c1ccc(-c2ncncc2-c2ccc(F)cc2)cc1

>  <score_type>  (54) 
oracle

>  <origin>  (54) 
adg

>  <m_score__min__energy>  (54) 
-6.2999999999999998

>  <m_primary>  (54) 
energy

$$$$
54:0
     RDKit          3D

 42 44  0  0  0  0  0  0  0  0999 V2000
   56.4240   31.9680   52.3770 C   0  0  0  0  0  0  0  0  0  0  0  0
   57.6300   32.3340   51.5810 C   0  0  0  0  0  0  0  0  0  0  0  0
   58.6290   33.1450   52.1340 C   0  0  0  0  0  0  0  0  0  0  0  0
   59.7760   33.4190   51.3910 C   0  0  0  0  0  0  0  0  0  0  0  0
   59.9010   32.9250   50.0870 C   0  0  0  0  0  0  0  0  0  0  0  0
   61.1030   33.2710   49.2960 C   0  0  0  0  0  0  0  0  0  0  0  0
   61.6150   34.4080   49.4820 O   0  0  0  0  0  0  0  0  0  0  0  0
   61.7400   32.2950   48.4200 N   0  0  0  0  0  0  0  0  0  0  0  0
   61.8490   32.7720   47.0200 C   0  0  0  0  0  0  0  0  0  0  0  0
   62.9130   33.8730   46.8800 C   0  0  0  0  0  0  0  0  0  0  0  0
   64.2210   33.4060   47.3480 N   0  0  0  0  0  0  0  0  0  0  0  0
   64.1420   32.9440   48.7380 C   0  0  0  0  0  0  0  0  0  0  0  0
   63.0690   31.8520   48.9050 C   0  0  0  0  0  0  0  0  0  0  0  0
   58.8650   32.1280   49.5610 C   0  0  0  0  0  0  0  0  0  0  0  0
   58.9660   31.5710   48.2850 O   0  0  0  0  0  0  0  0  0  0  0  0
   58.5150   32.1820   47.1010 C   0  0  0  0  0  0  0  0  0  0  0  0
   58.0980   31.3470   46.0570 C   0  0  0  0  0  0  0  0  0  0  0  0
   57.6530   31.8890   44.8470 C   0  0  0  0  0  0  0  0  0  0  0  0
   57.1640   30.8260   43.5390 Cl  0  0  0  0  0  0  0  0  0  0  0  0
   57.6030   33.2770   44.6770 C   0  0  0  0  0  0  0  0  0  0  0  0
   58.0070   34.1220   45.7120 C   0  0  0  0  0  0  0  0  0  0  0  0
   58.4760   33.5880   46.9170 C   0  0  0  0  0  0  0  0  0  0  0  0
   58.8750   34.4460   47.8850 F   0  0  0  0  0  0  0  0  0  0  0  0
   57.7730   31.8520   50.3190 N   0  0  0  0  0  0  0  0  0  0  0  0
   56.6573   32.0388   53.4496 H   0  0  0  0  0  0  0  0  0  0  0  0
   55.6016   32.6570   52.1344 H   0  0  0  0  0  0  0  0  0  0  0  0
   56.1232   30.9381   52.1344 H   0  0  0  0  0  0  0  0  0  0  0  0
   58.5096   33.5617   53.1450 H   0  0  0  0  0  0  0  0  0  0  0  0
   60.5835   34.0237   51.8294 H   0  0  0  0  0  0  0  0  0  0  0  0
   61.1340   31.4430   48.4170 H   0  0  0  0  0  0  0  0  0  0  0  0
   62.1243   31.9250   46.3744 H   0  0  0  0  0  0  0  0  0  0  0  0
   60.8770   33.1922   46.7223 H   0  0  0  0  0  0  0  0  0  0  0  0
   62.9927   34.1630   45.8219 H   0  0  0  0  0  0  0  0  0  0  0  0
   62.6087   34.7328   47.4950 H   0  0  0  0  0  0  0  0  0  0  0  0
   64.5290   32.6090   46.7430 H   0  0  0  0  0  0  0  0  0  0  0  0
   65.1188   32.5350   49.0356 H   0  0  0  0  0  0  0  0  0  0  0  0
   63.8683   33.7995   49.3730 H   0  0  0  0  0  0  0  0  0  0  0  0
   63.3762   30.9631   48.3345 H   0  0  0  0  0  0  0  0  0  0  0  0
   62.9795   31.6273   49.9781 H   0  0  0  0  0  0  0  0  0  0  0  0
   58.1207   30.2553   46.1898 H   0  0  0  0  0  0  0  0  0  0  0  0
   57.2453   33.7023   43.7277 H   0  0  0  0  0  0  0  0  0  0  0  0
   57.9564   35.2128   45.5795 H   0  0  0  0  0  0  0  0  0  0  0  0
  1  2  1  0
  2  3  2  0
  3  4  1  0
  4  5  2  0
  5  6  1  0
  6  7  2  0
  6  8  1  0
  8  9  1  0
  9 10  1  0
 10 11  1  0
 11 12  1  0
 12 13  1  0
  5 14  1  0
 14 15  1  0
 15 16  1  0
 16 17  2  0
 17 18  1  0
 18 19  1  0
 18 20  2  0
 20 21  1  0
 21 22  2  0
 22 23  1  0
 14 24  2  0
 24  2  1  0
 13  8  1  0
 22 16  1  0
  1 25  1  0
  1 26  1  0
  1 27  1  0
  3 28  1  0
  4 29  1  0
  8 30  1  0
  9 31  1  0
  9 32  1  0
 10 33  1  0
 10 34  1  0
 11 35  1  0
 12 36  1  0
 12 37  1  0
 13 38  1  0
 13 39  1  0
 17 40  1  0
 20 41  1  0
 21 42  1  0
M  CHG  1   8   1
M  END
>  <UniqueID>  (55) 
51

>  <SMILES>  (55) 
Cc1ccc(C(=O)[NH+]2CCNCC2)c(Oc2cc(Cl)ccc2F)n1

>  <Energy>  (55) 
65.49368973153035

>  <Genealogy>  (55) 
Cc1ccc(C(=O)[NH+]2CCNCC2)c(Oc2cc(Cl)ccc2F)n1 (protonated)
Cc1ccc(C(=O)[NH+]2CCNCC2)c(Oc2cc(Cl)ccc2F)n1 (3D coordinates assigned)
Cc1ccc(C(=O)[NH+]2CCNCC2)c(Oc2cc(Cl)ccc2F)n1 (nonaromatic ring conformer: 65.49368973153035 kcal/mol)

>  <smiles>  (55) 
Cc1ccc(C(=O)N2CCNCC2)c(Oc2cc(Cl)ccc2F)n1

>  <score_type>  (55) 
oracle

>  <origin>  (55) 
adg

>  <m_score__min__energy>  (55) 
-6.0099999999999998

>  <m_primary>  (55) 
energy

$$$$
55:0
     RDKit          3D

 46 48  0  0  0  0  0  0  0  0999 V2000
   63.9040   33.8430   48.6500 N   0  0  0  0  0  0  0  0  0  0  0  0
   62.8180   33.8440   48.2500 C   0  0  0  0  0  0  0  0  0  0  0  0
   61.4680   33.8460   47.7530 C   0  0  0  0  0  0  0  0  0  0  0  0
   60.4020   33.5450   48.6110 C   0  0  0  0  0  0  0  0  0  0  0  0
   59.0900   33.5470   48.1290 C   0  0  0  0  0  0  0  0  0  0  0  0
   58.8320   33.8220   46.7770 C   0  0  0  0  0  0  0  0  0  0  0  0
   57.4050   33.8640   46.2840 C   0  0  1  0  0  0  0  0  0  0  0  0
   57.1980   34.4560   44.8920 C   0  0  0  0  0  0  0  0  0  0  0  0
   57.0270   32.9580   45.1050 C   0  0  1  0  0  0  0  0  0  0  0  0
   58.1250   32.0730   44.4820 C   0  0  0  0  0  0  0  0  0  0  0  0
   57.7330   31.5660   43.0850 C   0  0  0  0  0  0  0  0  0  0  0  0
   56.6040   30.5240   43.1060 C   0  0  0  0  0  0  0  0  0  0  0  0
   57.1330   29.1590   42.9810 N   0  0  0  0  0  0  0  0  0  0  0  0
   57.2240   28.3630   44.5270 S   0  0  0  0  0  0  0  0  0  0  0  0
   57.4060   26.8840   44.3320 O   0  0  0  0  0  0  0  0  0  0  0  0
   55.9370   28.5870   45.2700 O   0  0  0  0  0  0  0  0  0  0  0  0
   58.5530   29.0160   45.4800 C   0  0  0  0  0  0  0  0  0  0  0  0
   58.2880   29.6390   46.7060 C   0  0  0  0  0  0  0  0  0  0  0  0
   59.3330   30.1930   47.4530 C   0  0  0  0  0  0  0  0  0  0  0  0
   60.6550   30.1390   46.9810 C   0  0  0  0  0  0  0  0  0  0  0  0
   61.7290   30.7070   47.7550 N   0  0  0  0  0  0  0  0  0  0  0  0
   61.6670   30.7440   49.0010 O   0  0  0  0  0  0  0  0  0  0  0  0
   62.8440   31.2190   47.1300 O   0  0  0  0  0  0  0  0  0  0  0  0
   60.9110   29.5190   45.7440 C   0  0  0  0  0  0  0  0  0  0  0  0
   59.8670   28.9630   44.9990 C   0  0  0  0  0  0  0  0  0  0  0  0
   59.9020   34.1620   45.9290 C   0  0  0  0  0  0  0  0  0  0  0  0
   61.2130   34.1610   46.4120 C   0  0  0  0  0  0  0  0  0  0  0  0
   60.5981   33.3065   49.6668 H   0  0  0  0  0  0  0  0  0  0  0  0
   58.2555   33.3320   48.8127 H   0  0  0  0  0  0  0  0  0  0  0  0
   56.9878   34.0349   47.2874 H   0  0  0  0  0  0  0  0  0  0  0  0
   56.3191   35.0853   44.6883 H   0  0  0  0  0  0  0  0  0  0  0  0
   57.8027   35.0791   44.2166 H   0  0  0  0  0  0  0  0  0  0  0  0
   56.2324   32.2158   44.9384 H   0  0  0  0  0  0  0  0  0  0  0  0
   59.0508   32.6613   44.3993 H   0  0  0  0  0  0  0  0  0  0  0  0
   58.2661   31.1980   45.1335 H   0  0  0  0  0  0  0  0  0  0  0  0
   57.4027   32.4252   42.4827 H   0  0  0  0  0  0  0  0  0  0  0  0
   58.6197   31.0740   42.6586 H   0  0  0  0  0  0  0  0  0  0  0  0
   56.0552   30.6098   44.0555 H   0  0  0  0  0  0  0  0  0  0  0  0
   55.9382   30.7172   42.2520 H   0  0  0  0  0  0  0  0  0  0  0  0
   58.1150   29.2210   42.6250 H   0  0  0  0  0  0  0  0  0  0  0  0
   57.2558   29.6928   47.0824 H   0  0  0  0  0  0  0  0  0  0  0  0
   59.1177   30.6750   48.4181 H   0  0  0  0  0  0  0  0  0  0  0  0
   61.9408   29.4715   45.3602 H   0  0  0  0  0  0  0  0  0  0  0  0
   60.0783   28.4825   44.0323 H   0  0  0  0  0  0  0  0  0  0  0  0
   59.7054   34.4300   44.8804 H   0  0  0  0  0  0  0  0  0  0  0  0
   62.0465   34.4080   45.7380 H   0  0  0  0  0  0  0  0  0  0  0  0
  1  2  3  0
  2  3  1  0
  3  4  2  0
  4  5  1  0
  5  6  2  0
  6  7  1  0
  7  8  1  0
  8  9  1  0
  9 10  1  0
 10 11  1  0
 11 12  1  0
 12 13  1  0
 13 14  1  0
 14 15  2  0
 14 16  2  0
 14 17  1  0
 17 18  2  0
 18 19  1  0
 19 20  2  0
 20 21  1  0
 21 22  2  0
 21 23  1  0
 20 24  1  0
 24 25  2  0
  6 26  1  0
 26 27  2  0
 27  3  1  0
  9  7  1  0
 25 17  1  0
  4 28  1  0
  5 29  1  0
  7 30  1  1
  8 31  1  0
  8 32  1  0
  9 33  1  1
 10 34  1  0
 10 35  1  0
 11 36  1  0
 11 37  1  0
 12 38  1  0
 12 39  1  0
 13 40  1  0
 18 41  1  0
 19 42  1  0
 24 43  1  0
 25 44  1  0
 26 45  1  0
 27 46  1  0
M  CHG  2  21   1  23  -1
M  END
>  <UniqueID>  (56) 
52

>  <SMILES>  (56) 
N#Cc1ccc([C@H]2C[C@H]2CCCNS(=O)(=O)c2ccc([N+](=O)[O-])cc2)cc1

>  <Energy>  (56) 
309.6372042317646

>  <Genealogy>  (56) 
N#Cc1ccc([C@H]2C[C@H]2CCCNS(=O)(=O)c2ccc([N+](=O)[O-])cc2)cc1 (chirality)
N#Cc1ccc([C@H]2C[C@H]2CCCNS(=O)(=O)c2ccc([N+](=O)[O-])cc2)cc1 (3D coordinates assigned)
N#Cc1ccc([C@H]2C[C@H]2CCCNS(=O)(=O)c2ccc([N+](=O)[O-])cc2)cc1 (nonaromatic ring conformer: 309.6372042317646 kcal/mol)

>  <smiles>  (56) 
N#Cc1ccc(C2CC2CCCNS(=O)(=O)c2ccc([N+](=O)[O-])cc2)cc1

>  <score_type>  (56) 
oracle

>  <origin>  (56) 
adg

>  <m_score__min__energy>  (56) 
-9.3499999999999996

>  <m_primary>  (56) 
energy

$$$$
56:0
     RDKit          3D

 50 51  0  0  0  0  0  0  0  0999 V2000
   59.4720   31.6970   50.9620 H   0  0  0  0  0  0  0  0  0  0  0  0
   58.7260   31.3480   50.3190 N   0  0  0  0  0  0  0  0  0  0  0  0
   58.9230   31.1530   49.0520 C   0  0  0  0  0  0  0  0  0  0  0  0
   58.9990   32.2950   48.1070 C   0  0  0  0  0  0  0  0  0  0  0  0
   59.8950   33.3500   48.3450 C   0  0  0  0  0  0  0  0  0  0  0  0
   60.5336   33.3326   49.2405 H   0  0  0  0  0  0  0  0  0  0  0  0
   59.9810   34.4220   47.4520 C   0  0  0  0  0  0  0  0  0  0  0  0
   60.6902   35.2405   47.6446 H   0  0  0  0  0  0  0  0  0  0  0  0
   59.1700   34.4570   46.3170 C   0  0  0  0  0  0  0  0  0  0  0  0
   59.2486   35.2984   45.6129 H   0  0  0  0  0  0  0  0  0  0  0  0
   58.2550   33.4230   46.0710 C   0  0  0  0  0  0  0  0  0  0  0  0
   57.3990   33.4470   44.8300 C   0  0  0  0  0  0  0  0  0  0  0  0
   56.3770   33.7473   45.1044 H   0  0  0  0  0  0  0  0  0  0  0  0
   57.8352   34.1639   44.1189 H   0  0  0  0  0  0  0  0  0  0  0  0
   57.3540   32.0890   44.1740 C   0  0  0  0  0  0  0  0  0  0  0  0
   58.0050   31.9020   43.1110 O   0  0  0  0  0  0  0  0  0  0  0  0
   56.6670   30.9690   44.7560 N   0  0  0  0  0  0  0  0  0  0  0  0
   56.3750   29.6750   44.1360 C   0  0  2  0  0  0  0  0  0  0  0  0
   55.3046   29.4475   44.2481 H   0  0  0  0  0  0  0  0  0  0  0  0
   57.1610   28.5840   44.8260 C   0  0  0  0  0  0  0  0  0  0  0  0
   57.3635   27.6722   44.2450 H   0  0  0  0  0  0  0  0  0  0  0  0
   57.6360   28.6230   46.0830 C   0  0  0  0  0  0  0  0  0  0  0  0
   57.8046   29.6218   46.5119 H   0  0  0  0  0  0  0  0  0  0  0  0
   57.9570   27.4700   46.9530 C   0  0  0  0  0  0  0  0  0  0  0  0
   58.9940   27.4490   47.6660 O   0  0  0  0  0  0  0  0  0  0  0  0
   57.0340   26.3750   46.9960 N   0  0  0  0  0  0  0  0  0  0  0  0
   57.0110   25.2410   46.1150 C   0  0  0  0  0  0  0  0  0  0  0  0
   58.1850   24.5610   45.7420 C   0  0  0  0  0  0  0  0  0  0  0  0
   59.1562   24.8820   46.1468 H   0  0  0  0  0  0  0  0  0  0  0  0
   58.1220   23.4790   44.8590 C   0  0  0  0  0  0  0  0  0  0  0  0
   59.0443   22.9521   44.5731 H   0  0  0  0  0  0  0  0  0  0  0  0
   56.8880   23.0610   44.3350 C   0  0  0  0  0  0  0  0  0  0  0  0
   56.8270   21.9190   43.3600 C   0  0  0  0  0  0  0  0  0  0  0  0
   57.8284   21.7446   42.9396 H   0  0  0  0  0  0  0  0  0  0  0  0
   56.4802   21.0152   43.8824 H   0  0  0  0  0  0  0  0  0  0  0  0
   55.8980   22.2360   42.2810 N   0  0  0  0  0  0  0  0  0  0  0  0
   56.2940   21.8620   41.3880 H   0  0  0  0  0  0  0  0  0  0  0  0
   55.8690   23.2770   42.1800 H   0  0  0  0  0  0  0  0  0  0  0  0
   55.7230   23.7650   44.6770 C   0  0  0  0  0  0  0  0  0  0  0  0
   54.7554   23.4634   44.2494 H   0  0  0  0  0  0  0  0  0  0  0  0
   55.7870   24.8470   45.5580 C   0  0  0  0  0  0  0  0  0  0  0  0
   54.8687   25.3945   45.8168 H   0  0  0  0  0  0  0  0  0  0  0  0
   56.6810   29.7270   42.7060 N   0  0  0  0  0  0  0  0  0  0  0  0
   57.7220   29.7300   42.5970 H   0  0  0  0  0  0  0  0  0  0  0  0
   56.3370   30.6290   42.3050 H   0  0  0  0  0  0  0  0  0  0  0  0
   58.1790   32.3400   46.9640 C   0  0  0  0  0  0  0  0  0  0  0  0
   57.4722   31.5203   46.7677 H   0  0  0  0  0  0  0  0  0  0  0  0
   59.0580   29.8130   48.5730 N   0  0  0  0  0  0  0  0  0  0  0  0
   59.3060   29.6160   47.5790 H   0  0  0  0  0  0  0  0  0  0  0  0
   58.9760   29.0060   49.2320 H   0  0  0  0  0  0  0  0  0  0  0  0
  1  2  1  0
  2  3  2  3
  3  4  1  0
  4  5  2  0
  5  6  1  0
  5  7  1  0
  7  8  1  0
  7  9  2  0
  9 10  1  0
  9 11  1  0
 11 12  1  0
 12 13  1  0
 12 14  1  0
 12 15  1  0
 15 16  2  0
 15 17  1  0
 17 18  1  0
 18 19  1  6
 18 20  1  0
 20 21  1  0
 20 22  2  0
 22 23  1  0
 22 24  1  0
 24 25  2  0
 24 26  1  0
 26 27  1  0
 27 28  2  0
 28 29  1  0
 28 30  1  0
 30 31  1  0
 30 32  2  0
 32 33  1  0
 33 34  1  0
 33 35  1  0
 33 36  1  0
 36 37  1  0
 36 38  1  0
 32 39  1  0
 39 40  1  0
 39 41  2  0
 41 42  1  0
 18 43  1  0
 43 44  1  0
 43 45  1  0
 11 46  2  0
 46 47  1  0
  3 48  1  0
 48 49  1  0
 48 50  1  0
 46  4  1  0
 41 27  1  0
M  CHG  2  17  -1  26  -1
M  END
>  <UniqueID>  (57) 
53

>  <SMILES>  (57) 
N=C(N)c1cccc(CC(=O)[N-][C@@H](N)/C=C\C(=O)[N-]c2ccc(CN)cc2)c1

>  <Energy>  (57) 
55.05735428676

>  <Genealogy>  (57) 
N=C(N)c1cccc(CC(=O)[N-]C(N)C=CC(=O)[N-]c2ccc(CN)cc2)c1 (protonated)
N=C(N)c1cccc(CC(=O)[N-][C@@H](N)C=CC(=O)[N-]c2ccc(CN)cc2)c1 (chirality)
N=C(N)c1cccc(CC(=O)[N-][C@@H](N)/C=C\C(=O)[N-]c2ccc(CN)cc2)c1 (cis-trans isomerization)
N=C(N)c1cccc(CC(=O)[N-][C@@H](N)/C=C\C(=O)[N-]c2ccc(CN)cc2)c1 (3D coordinates assigned)
N=C(N)c1cccc(CC(=O)[N-][C@@H](N)/C=C\C(=O)[N-]c2ccc(CN)cc2)c1 (optimized conformer: 55.05735428676 kcal/mol)

>  <smiles>  (57) 
N=C(N)c1cccc(CC(=O)NC(N)C=CC(=O)Nc2ccc(CN)cc2)c1

>  <score_type>  (57) 
oracle

>  <origin>  (57) 
adg

>  <m_score__min__energy>  (57) 
-11.06

>  <m_primary>  (57) 
energy

$$$$
57:0
     RDKit          3D

 22 22  0  0  0  0  0  0  0  0999 V2000
   59.6200   35.0080   46.7940 C   0  0  0  0  0  0  0  0  0  0  0  0
   58.9200   34.5760   45.1690 S   0  0  0  0  0  0  0  0  0  0  0  0
   57.8030   33.2880   45.8270 C   0  0  0  0  0  0  0  0  0  0  0  0
   58.1720   31.9070   45.2730 C   0  0  0  0  0  0  0  0  0  0  0  0
   57.5740   31.6000   43.9190 C   0  0  0  0  0  0  0  0  0  0  0  0
   57.7720   32.2980   42.7350 C   0  0  0  0  0  0  0  0  0  0  0  0
   57.0830   31.6180   41.7540 C   0  0  0  0  0  0  0  0  0  0  0  0
   56.4900   30.5300   42.2740 N   0  0  0  0  0  0  0  0  0  0  0  0
   56.7890   30.5000   43.5860 C   0  0  0  0  0  0  0  0  0  0  0  0
   56.3450   29.4110   44.4730 C   0  0  0  0  0  0  0  0  0  0  0  0
   55.1500   29.3250   44.8600 O   0  0  0  0  0  0  0  0  0  0  0  0
   58.9735   34.6090   47.5895 H   0  0  0  0  0  0  0  0  0  0  0  0
   60.6263   34.5736   46.8870 H   0  0  0  0  0  0  0  0  0  0  0  0
   59.6829   36.1023   46.8870 H   0  0  0  0  0  0  0  0  0  0  0  0
   57.8826   33.2687   46.9239 H   0  0  0  0  0  0  0  0  0  0  0  0
   56.7738   33.5257   45.5199 H   0  0  0  0  0  0  0  0  0  0  0  0
   59.2672   31.8519   45.1864 H   0  0  0  0  0  0  0  0  0  0  0  0
   57.7609   31.1660   45.9744 H   0  0  0  0  0  0  0  0  0  0  0  0
   58.3641   33.2159   42.6052 H   0  0  0  0  0  0  0  0  0  0  0  0
   57.0267   31.9219   40.6983 H   0  0  0  0  0  0  0  0  0  0  0  0
   55.9190   29.8310   41.7480 H   0  0  0  0  0  0  0  0  0  0  0  0
   57.0734   28.6564   44.8045 H   0  0  0  0  0  0  0  0  0  0  0  0
  1  2  1  0
  2  3  1  0
  3  4  1  0
  4  5  1  0
  5  6  1  0
  6  7  2  0
  7  8  1  0
  8  9  1  0
  9 10  1  0
 10 11  2  0
  9  5  2  0
  1 12  1  0
  1 13  1  0
  1 14  1  0
  3 15  1  0
  3 16  1  0
  4 17  1  0
  4 18  1  0
  6 19  1  0
  7 20  1  0
  8 21  1  0
 10 22  1  0
M  END
>  <UniqueID>  (58) 
54

>  <SMILES>  (58) 
CSCCc1cc[nH]c1C=O

>  <Energy>  (58) 
40.6731398256968

>  <Genealogy>  (58) 
CSCCc1cc[nH]c1C=O (3D coordinates assigned)
CSCCc1cc[nH]c1C=O (optimized conformer: 40.6731398256968 kcal/mol)

>  <smiles>  (58) 
CSCCc1cc[nH]c1C=O

>  <score_type>  (58) 
oracle

>  <origin>  (58) 
adg

>  <m_score__min__energy>  (58) 
-5.1399999999999997

>  <m_primary>  (58) 
energy

$$$$
58:0
     RDKit          3D

 27 28  0  0  0  0  0  0  0  0999 V2000
   56.2560   31.3100   52.0400 C   0  0  0  0  0  0  0  0  0  0  0  0
   55.7470   30.2950   52.9810 N   0  0  0  0  0  0  0  0  0  0  0  0
   56.7820   29.2760   53.2120 C   0  0  0  0  0  0  0  0  0  0  0  0
   54.5200   29.6620   52.4560 C   0  0  0  0  0  0  0  0  0  0  0  0
   53.2940   30.3370   53.0140 C   0  0  0  0  0  0  0  0  0  0  0  0
   52.9410   30.2020   54.3740 C   0  0  0  0  0  0  0  0  0  0  0  0
   51.7800   30.8250   54.8820 C   0  0  0  0  0  0  0  0  0  0  0  0
   50.9540   31.5880   54.0390 C   0  0  0  0  0  0  0  0  0  0  0  0
   51.3160   31.7070   52.6990 C   0  0  0  0  0  0  0  0  0  0  0  0
   50.6500   32.3870   51.7470 N   0  0  0  0  0  0  0  0  0  0  0  0
   51.3900   32.1950   50.6310 C   0  0  0  0  0  0  0  0  0  0  0  0
   51.0480   32.7380   49.3970 O   0  0  0  0  0  0  0  0  0  0  0  0
   52.5100   31.4080   50.8620 C   0  0  0  0  0  0  0  0  0  0  0  0
   52.4450   31.1030   52.2030 C   0  0  0  0  0  0  0  0  0  0  0  0
   56.6792   32.1539   52.6046 H   0  0  0  0  0  0  0  0  0  0  0  0
   57.0371   30.8640   51.4068 H   0  0  0  0  0  0  0  0  0  0  0  0
   55.4314   31.6692   51.4068 H   0  0  0  0  0  0  0  0  0  0  0  0
   56.9240   29.1362   54.2938 H   0  0  0  0  0  0  0  0  0  0  0  0
   56.4680   28.3248   52.7575 H   0  0  0  0  0  0  0  0  0  0  0  0
   57.7282   29.6048   52.7575 H   0  0  0  0  0  0  0  0  0  0  0  0
   54.5110   29.7457   51.3592 H   0  0  0  0  0  0  0  0  0  0  0  0
   54.5102   28.6041   52.7573 H   0  0  0  0  0  0  0  0  0  0  0  0
   53.5767   29.6055   55.0449 H   0  0  0  0  0  0  0  0  0  0  0  0
   51.5203   30.7123   55.9450 H   0  0  0  0  0  0  0  0  0  0  0  0
   50.0479   32.0771   54.4260 H   0  0  0  0  0  0  0  0  0  0  0  0
   51.6580   32.6330   48.5950 H   0  0  0  0  0  0  0  0  0  0  0  0
   53.2768   31.0979   50.1369 H   0  0  0  0  0  0  0  0  0  0  0  0
  1  2  1  0
  2  3  1  0
  2  4  1  0
  4  5  1  0
  5  6  2  0
  6  7  1  0
  7  8  2  0
  8  9  1  0
  9 10  1  0
 10 11  1  0
 11 12  1  0
 11 13  2  0
 13 14  1  0
 14  5  1  0
 14  9  2  0
  1 15  1  0
  1 16  1  0
  1 17  1  0
  3 18  1  0
  3 19  1  0
  3 20  1  0
  4 21  1  0
  4 22  1  0
  6 23  1  0
  7 24  1  0
  8 25  1  0
 12 26  1  0
 13 27  1  0
M  CHG  1  10  -1
M  END
>  <UniqueID>  (59) 
55

>  <SMILES>  (59) 
CN(C)Cc1cccc2[n-]c(O)cc12

>  <Energy>  (59) 
57.71454815733506

>  <Genealogy>  (59) 
CN(C)Cc1cccc2[n-]c(O)cc12 (protonated)
CN(C)Cc1cccc2[n-]c(O)cc12 (3D coordinates assigned)
CN(C)Cc1cccc2[n-]c(O)cc12 (optimized conformer: 57.71454815733506 kcal/mol)

>  <smiles>  (59) 
CN(C)Cc1cccc2[nH]c(O)cc12

>  <score_type>  (59) 
oracle

>  <origin>  (59) 
adg

>  <m_score__min__energy>  (59) 
-8.7599999999999998

>  <m_primary>  (59) 
energy

$$$$
59:0
     RDKit          3D

 49 52  0  0  0  0  0  0  0  0999 V2000
   57.4190   34.1550   46.3890 N   0  0  0  0  0  0  0  0  0  0  0  0
   57.9060   32.7820   46.2400 C   0  0  1  0  0  0  0  0  0  0  0  0
   57.6470   32.2730   44.8340 C   0  0  0  0  0  0  0  0  0  0  0  0
   58.2460   32.8890   43.7180 C   0  0  0  0  0  0  0  0  0  0  0  0
   58.0270   32.3870   42.4310 C   0  0  0  0  0  0  0  0  0  0  0  0
   57.2210   31.2620   42.2450 C   0  0  0  0  0  0  0  0  0  0  0  0
   56.6360   30.6330   43.3470 C   0  0  0  0  0  0  0  0  0  0  0  0
   56.8510   31.1300   44.6360 C   0  0  0  0  0  0  0  0  0  0  0  0
   59.3830   32.7180   46.5690 C   0  0  0  0  0  0  0  0  0  0  0  0
   60.2430   33.7260   46.2580 N   0  0  0  0  0  0  0  0  0  0  0  0
   61.4270   33.2750   46.7030 C   0  0  0  0  0  0  0  0  0  0  0  0
   62.6610   33.9150   46.6260 C   0  0  0  0  0  0  0  0  0  0  0  0
   63.7810   33.2450   47.1530 C   0  0  0  0  0  0  0  0  0  0  0  0
   63.6390   31.9660   47.7360 C   0  0  0  0  0  0  0  0  0  0  0  0
   62.3770   31.3470   47.7990 C   0  0  0  0  0  0  0  0  0  0  0  0
   61.2860   32.0440   47.2710 C   0  0  0  0  0  0  0  0  0  0  0  0
   59.9910   31.6800   47.2150 N   0  0  0  0  0  0  0  0  0  0  0  0
   59.3990   30.4390   47.7340 C   0  0  0  0  0  0  0  0  0  0  0  0
   59.0340   29.4940   46.6140 C   0  0  0  0  0  0  0  0  0  0  0  0
   59.9550   29.2000   45.5950 C   0  0  0  0  0  0  0  0  0  0  0  0
   59.6150   28.3100   44.5740 C   0  0  0  0  0  0  0  0  0  0  0  0
   58.3600   27.6980   44.5640 C   0  0  0  0  0  0  0  0  0  0  0  0
   57.4310   27.9690   45.5860 C   0  0  0  0  0  0  0  0  0  0  0  0
   56.1590   27.3820   45.6290 O   0  0  0  0  0  0  0  0  0  0  0  0
   55.8650   25.7060   45.8170 S   0  0  0  0  0  0  0  0  0  0  0  0
   56.6150   24.8330   44.5270 N   0  0  0  0  0  0  0  0  0  0  0  0
   54.3830   25.4620   45.7890 O   0  0  0  0  0  0  0  0  0  0  0  0
   56.4180   25.2380   47.1340 O   0  0  0  0  0  0  0  0  0  0  0  0
   57.7800   28.8620   46.6070 C   0  0  0  0  0  0  0  0  0  0  0  0
   56.8580   34.4020   45.5430 H   0  0  0  0  0  0  0  0  0  0  0  0
   58.2450   34.7980   46.3770 H   0  0  0  0  0  0  0  0  0  0  0  0
   57.3604   32.1347   46.9423 H   0  0  0  0  0  0  0  0  0  0  0  0
   58.8896   33.7698   43.8593 H   0  0  0  0  0  0  0  0  0  0  0  0
   58.4907   32.8795   41.5635 H   0  0  0  0  0  0  0  0  0  0  0  0
   57.0467   30.8712   41.2316 H   0  0  0  0  0  0  0  0  0  0  0  0
   56.0046   29.7444   43.2000 H   0  0  0  0  0  0  0  0  0  0  0  0
   56.3952   30.6245   45.5002 H   0  0  0  0  0  0  0  0  0  0  0  0
   62.7574   34.9108   46.1687 H   0  0  0  0  0  0  0  0  0  0  0  0
   64.7723   33.7198   47.1107 H   0  0  0  0  0  0  0  0  0  0  0  0
   64.5212   31.4505   48.1435 H   0  0  0  0  0  0  0  0  0  0  0  0
   62.2532   30.3503   48.2476 H   0  0  0  0  0  0  0  0  0  0  0  0
   60.1252   29.9455   48.3967 H   0  0  0  0  0  0  0  0  0  0  0  0
   58.4816   30.6958   48.2840 H   0  0  0  0  0  0  0  0  0  0  0  0
   60.9482   29.6728   45.6013 H   0  0  0  0  0  0  0  0  0  0  0  0
   60.3383   28.0903   43.7749 H   0  0  0  0  0  0  0  0  0  0  0  0
   58.0964   27.0015   43.7544 H   0  0  0  0  0  0  0  0  0  0  0  0
   56.6640   25.4800   43.7090 H   0  0  0  0  0  0  0  0  0  0  0  0
   57.5980   24.6410   44.8200 H   0  0  0  0  0  0  0  0  0  0  0  0
   57.0623   29.0710   47.4140 H   0  0  0  0  0  0  0  0  0  0  0  0
  1  2  1  0
  2  3  1  0
  3  4  2  0
  4  5  1  0
  5  6  2  0
  6  7  1  0
  7  8  2  0
  2  9  1  0
  9 10  2  0
 10 11  1  0
 11 12  2  0
 12 13  1  0
 13 14  2  0
 14 15  1  0
 15 16  2  0
 16 17  1  0
 17 18  1  0
 18 19  1  0
 19 20  2  0
 20 21  1  0
 21 22  2  0
 22 23  1  0
 23 24  1  0
 24 25  1  0
 25 26  1  0
 25 27  2  0
 25 28  2  0
 23 29  2  0
  8  3  1  0
 17  9  1  0
 29 19  1  0
 16 11  1  0
  1 30  1  0
  1 31  1  0
  2 32  1  1
  4 33  1  0
  5 34  1  0
  6 35  1  0
  7 36  1  0
  8 37  1  0
 12 38  1  0
 13 39  1  0
 14 40  1  0
 15 41  1  0
 18 42  1  0
 18 43  1  0
 20 44  1  0
 21 45  1  0
 22 46  1  0
 26 47  1  0
 26 48  1  0
 29 49  1  0
M  END
>  <UniqueID>  (60) 
56

>  <SMILES>  (60) 
N[C@@H](c1ccccc1)c1nc2ccccc2n1Cc1cccc(OS(N)(=O)=O)c1

>  <Energy>  (60) 
87.6780460834994

>  <Genealogy>  (60) 
N[C@@H](c1ccccc1)c1nc2ccccc2n1Cc1cccc(OS(N)(=O)=O)c1 (chirality)
N[C@@H](c1ccccc1)c1nc2ccccc2n1Cc1cccc(OS(N)(=O)=O)c1 (3D coordinates assigned)
N[C@@H](c1ccccc1)c1nc2ccccc2n1Cc1cccc(OS(N)(=O)=O)c1 (optimized conformer: 87.6780460834994 kcal/mol)

>  <smiles>  (60) 
NC(c1ccccc1)c1nc2ccccc2n1Cc1cccc(OS(N)(=O)=O)c1

>  <score_type>  (60) 
oracle

>  <origin>  (60) 
adg

>  <m_score__min__energy>  (60) 
-9.8699999999999992

>  <m_primary>  (60) 
energy

$$$$
60:0
     RDKit          3D

 48 50  0  0  0  0  0  0  0  0999 V2000
   55.9160   25.5360   45.6190 C   0  0  0  0  0  0  0  0  0  0  0  0
   55.9480   26.9590   45.6470 O   0  0  0  0  0  0  0  0  0  0  0  0
   57.0290   27.7620   46.0560 C   0  0  0  0  0  0  0  0  0  0  0  0
   57.9890   27.1510   46.8710 C   0  0  0  0  0  0  0  0  0  0  0  0
   59.0990   27.8600   47.3310 C   0  0  0  0  0  0  0  0  0  0  0  0
   59.2730   29.2040   46.9830 C   0  0  0  0  0  0  0  0  0  0  0  0
   60.4480   29.9570   47.4660 C   0  0  0  0  0  0  0  0  0  0  0  0
   61.3530   30.5370   46.6490 N   0  0  0  0  0  0  0  0  0  0  0  0
   62.2290   31.0920   47.5070 C   0  0  0  0  0  0  0  0  0  0  0  0
   63.3980   31.9260   47.0820 C   0  0  0  0  0  0  0  0  0  0  0  0
   63.7740   32.8750   48.1450 N   0  0  0  0  0  0  0  0  0  0  0  0
   63.0360   34.1520   48.0330 C   0  0  0  0  0  0  0  0  0  0  0  0
   61.6740   34.1180   48.7550 C   0  0  0  0  0  0  0  0  0  0  0  0
   60.5280   33.9030   47.8040 C   0  0  0  0  0  0  0  0  0  0  0  0
   60.6540   34.2440   46.4460 C   0  0  0  0  0  0  0  0  0  0  0  0
   59.5690   34.0970   45.5770 C   0  0  0  0  0  0  0  0  0  0  0  0
   58.3510   33.6060   46.0550 C   0  0  0  0  0  0  0  0  0  0  0  0
   58.2160   33.2640   47.4040 C   0  0  0  0  0  0  0  0  0  0  0  0
   59.2990   33.4130   48.2760 C   0  0  0  0  0  0  0  0  0  0  0  0
   61.8240   30.8540   48.8010 C   0  0  0  0  0  0  0  0  0  0  0  0
   60.7250   30.1450   48.7400 O   0  0  0  0  0  0  0  0  0  0  0  0
   58.3180   29.8290   46.1670 C   0  0  0  0  0  0  0  0  0  0  0  0
   57.1910   29.1240   45.6950 C   0  0  0  0  0  0  0  0  0  0  0  0
   56.2380   29.7510   44.8770 O   0  0  0  0  0  0  0  0  0  0  0  0
   56.3490   29.9110   43.4660 C   0  0  0  0  0  0  0  0  0  0  0  0
   55.9073   25.1491   46.6487 H   0  0  0  0  0  0  0  0  0  0  0  0
   55.0101   25.1999   45.0933 H   0  0  0  0  0  0  0  0  0  0  0  0
   56.8059   25.1595   45.0933 H   0  0  0  0  0  0  0  0  0  0  0  0
   57.8663   26.0949   47.1533 H   0  0  0  0  0  0  0  0  0  0  0  0
   59.8412   27.3598   47.9705 H   0  0  0  0  0  0  0  0  0  0  0  0
   64.2524   31.2674   46.8670 H   0  0  0  0  0  0  0  0  0  0  0  0
   63.1188   32.4944   46.1826 H   0  0  0  0  0  0  0  0  0  0  0  0
   64.7980   33.0710   48.0530 H   0  0  0  0  0  0  0  0  0  0  0  0
   63.6250   32.4450   49.0890 H   0  0  0  0  0  0  0  0  0  0  0  0
   63.6483   34.9521   48.4744 H   0  0  0  0  0  0  0  0  0  0  0  0
   62.8414   34.3305   46.9652 H   0  0  0  0  0  0  0  0  0  0  0  0
   61.6831   33.2985   49.4888 H   0  0  0  0  0  0  0  0  0  0  0  0
   61.5277   35.0930   49.2429 H   0  0  0  0  0  0  0  0  0  0  0  0
   61.6116   34.6286   46.0652 H   0  0  0  0  0  0  0  0  0  0  0  0
   59.6740   34.3680   44.5161 H   0  0  0  0  0  0  0  0  0  0  0  0
   57.4985   33.4886   45.3699 H   0  0  0  0  0  0  0  0  0  0  0  0
   57.2571   32.8774   47.7796 H   0  0  0  0  0  0  0  0  0  0  0  0
   59.1880   33.1451   49.3371 H   0  0  0  0  0  0  0  0  0  0  0  0
   62.3297   31.1959   49.7161 H   0  0  0  0  0  0  0  0  0  0  0  0
   58.4502   30.8856   45.8909 H   0  0  0  0  0  0  0  0  0  0  0  0
   56.9632   30.7963   43.2446 H   0  0  0  0  0  0  0  0  0  0  0  0
   56.8227   29.0182   43.0319 H   0  0  0  0  0  0  0  0  0  0  0  0
   55.3468   30.0421   43.0319 H   0  0  0  0  0  0  0  0  0  0  0  0
  1  2  1  0
  2  3  1  0
  3  4  2  0
  4  5  1  0
  5  6  2  0
  6  7  1  0
  7  8  2  0
  8  9  1  0
  9 10  1  0
 10 11  1  0
 11 12  1  0
 12 13  1  0
 13 14  1  0
 14 15  2  0
 15 16  1  0
 16 17  2  0
 17 18  1  0
 18 19  2  0
  9 20  2  0
 20 21  1  0
  6 22  1  0
 22 23  2  0
 23 24  1  0
 24 25  1  0
 23  3  1  0
 21  7  1  0
 19 14  1  0
  1 26  1  0
  1 27  1  0
  1 28  1  0
  4 29  1  0
  5 30  1  0
 10 31  1  0
 10 32  1  0
 11 33  1  0
 11 34  1  0
 12 35  1  0
 12 36  1  0
 13 37  1  0
 13 38  1  0
 15 39  1  0
 16 40  1  0
 17 41  1  0
 18 42  1  0
 19 43  1  0
 20 44  1  0
 22 45  1  0
 25 46  1  0
 25 47  1  0
 25 48  1  0
M  CHG  1  11   1
M  END
>  <UniqueID>  (61) 
57

>  <SMILES>  (61) 
COc1ccc(-c2nc(C[NH2+]CCc3ccccc3)co2)cc1OC

>  <Energy>  (61) 
78.73175081498725

>  <Genealogy>  (61) 
COc1ccc(-c2nc(C[NH2+]CCc3ccccc3)co2)cc1OC (protonated)
COc1ccc(-c2nc(C[NH2+]CCc3ccccc3)co2)cc1OC (3D coordinates assigned)
COc1ccc(-c2nc(C[NH2+]CCc3ccccc3)co2)cc1OC (optimized conformer: 78.73175081498725 kcal/mol)

>  <smiles>  (61) 
COc1ccc(-c2nc(CNCCc3ccccc3)co2)cc1OC

>  <score_type>  (61) 
oracle

>  <origin>  (61) 
adg

>  <m_score__min__energy>  (61) 
-5.9100000000000001

>  <m_primary>  (61) 
energy

$$$$
61:0
     RDKit          3D

 47 48  0  0  0  0  0  0  0  0999 V2000
   57.8560   32.3310   41.9810 C   0  0  0  0  0  0  0  0  0  0  0  0
   57.3250   31.2110   43.3140 S   0  0  0  0  0  0  0  0  0  0  0  0
   57.8590   32.3240   44.6220 C   0  0  0  0  0  0  0  0  0  0  0  0
   58.1330   33.6610   44.3050 C   0  0  0  0  0  0  0  0  0  0  0  0
   58.5760   34.5440   45.2920 C   0  0  0  0  0  0  0  0  0  0  0  0
   58.7440   34.0980   46.6040 C   0  0  0  0  0  0  0  0  0  0  0  0
   58.4700   32.7670   46.9320 C   0  0  0  0  0  0  0  0  0  0  0  0
   58.0300   31.8680   45.9460 C   0  0  0  0  0  0  0  0  0  0  0  0
   57.7230   30.5080   46.2890 N   0  0  0  0  0  0  0  0  0  0  0  0
   58.6930   29.6040   46.8390 C   0  0  0  0  0  0  0  0  0  0  0  0
   59.8770   29.9820   47.0460 O   0  0  0  0  0  0  0  0  0  0  0  0
   58.3080   28.1880   47.1620 C   0  0  0  0  0  0  0  0  0  0  0  0
   58.6940   27.2760   46.0640 N   0  0  0  0  0  0  0  0  0  0  0  0
   60.0750   27.5720   45.6370 C   0  0  0  0  0  0  0  0  0  0  0  0
   57.7630   27.3830   44.9160 C   0  0  0  0  0  0  0  0  0  0  0  0
   56.3610   27.6930   45.3790 C   0  0  0  0  0  0  0  0  0  0  0  0
   55.8870   28.8500   45.2210 O   0  0  0  0  0  0  0  0  0  0  0  0
   55.5400   26.6970   46.0020 N   0  0  0  0  0  0  0  0  0  0  0  0
   56.0070   25.4120   46.5140 C   0  0  0  0  0  0  0  0  0  0  0  0
   56.2490   24.4410   45.3910 C   0  0  0  0  0  0  0  0  0  0  0  0
   55.2110   24.1180   44.5020 C   0  0  0  0  0  0  0  0  0  0  0  0
   55.4330   23.2170   43.4560 C   0  0  0  0  0  0  0  0  0  0  0  0
   56.6930   22.6360   43.2870 C   0  0  0  0  0  0  0  0  0  0  0  0
   56.9060   21.7610   42.2730 F   0  0  0  0  0  0  0  0  0  0  0  0
   57.7340   22.9590   44.1620 C   0  0  0  0  0  0  0  0  0  0  0  0
   57.5160   23.8610   45.2080 C   0  0  0  0  0  0  0  0  0  0  0  0
   58.2883   33.2429   42.4187 H   0  0  0  0  0  0  0  0  0  0  0  0
   58.6118   31.8287   41.3594 H   0  0  0  0  0  0  0  0  0  0  0  0
   56.9887   32.5982   41.3594 H   0  0  0  0  0  0  0  0  0  0  0  0
   57.9984   34.0171   43.2730 H   0  0  0  0  0  0  0  0  0  0  0  0
   58.7927   35.5915   45.0354 H   0  0  0  0  0  0  0  0  0  0  0  0
   59.0924   34.7947   47.3807 H   0  0  0  0  0  0  0  0  0  0  0  0
   58.5997   32.4215   47.9682 H   0  0  0  0  0  0  0  0  0  0  0  0
   56.7880   30.1280   46.0220 H   0  0  0  0  0  0  0  0  0  0  0  0
   58.8184   27.8771   48.0855 H   0  0  0  0  0  0  0  0  0  0  0  0
   57.2169   28.1402   47.2932 H   0  0  0  0  0  0  0  0  0  0  0  0
   60.7116   27.7085   46.5236 H   0  0  0  0  0  0  0  0  0  0  0  0
   60.4597   26.7359   45.0345 H   0  0  0  0  0  0  0  0  0  0  0  0
   60.0832   28.4923   45.0345 H   0  0  0  0  0  0  0  0  0  0  0  0
   58.1068   28.1871   44.2487 H   0  0  0  0  0  0  0  0  0  0  0  0
   57.7502   26.4190   44.3863 H   0  0  0  0  0  0  0  0  0  0  0  0
   56.9459   25.5645   47.0665 H   0  0  0  0  0  0  0  0  0  0  0  0
   55.2336   24.9964   47.1766 H   0  0  0  0  0  0  0  0  0  0  0  0
   54.2189   24.5758   44.6291 H   0  0  0  0  0  0  0  0  0  0  0  0
   54.6149   22.9651   42.7652 H   0  0  0  0  0  0  0  0  0  0  0  0
   58.7260   22.5031   44.0276 H   0  0  0  0  0  0  0  0  0  0  0  0
   58.3396   24.1177   45.8905 H   0  0  0  0  0  0  0  0  0  0  0  0
  1  2  1  0
  2  3  1  0
  3  4  2  0
  4  5  1  0
  5  6  2  0
  6  7  1  0
  7  8  2  0
  8  9  1  0
  9 10  1  0
 10 11  2  0
 10 12  1  0
 12 13  1  0
 13 14  1  0
 13 15  1  0
 15 16  1  0
 16 17  2  0
 16 18  1  0
 18 19  1  0
 19 20  1  0
 20 21  2  0
 21 22  1  0
 22 23  2  0
 23 24  1  0
 23 25  1  0
 25 26  2  0
  8  3  1  0
 26 20  1  0
  1 27  1  0
  1 28  1  0
  1 29  1  0
  4 30  1  0
  5 31  1  0
  6 32  1  0
  7 33  1  0
  9 34  1  0
 12 35  1  0
 12 36  1  0
 14 37  1  0
 14 38  1  0
 14 39  1  0
 15 40  1  0
 15 41  1  0
 19 42  1  0
 19 43  1  0
 21 44  1  0
 22 45  1  0
 25 46  1  0
 26 47  1  0
M  CHG  1  18  -1
M  END
>  <UniqueID>  (62) 
58

>  <SMILES>  (62) 
CSc1ccccc1NC(=O)CN(C)CC(=O)[N-]Cc1ccc(F)cc1

>  <Energy>  (62) 
43.603768713540376

>  <Genealogy>  (62) 
CSc1ccccc1NC(=O)CN(C)CC(=O)[N-]Cc1ccc(F)cc1 (protonated)
CSc1ccccc1NC(=O)CN(C)CC(=O)[N-]Cc1ccc(F)cc1 (3D coordinates assigned)
CSc1ccccc1NC(=O)CN(C)CC(=O)[N-]Cc1ccc(F)cc1 (optimized conformer: 43.603768713540376 kcal/mol)

>  <smiles>  (62) 
CSc1ccccc1NC(=O)CN(C)CC(=O)NCc1ccc(F)cc1

>  <score_type>  (62) 
oracle

>  <origin>  (62) 
adg

>  <m_score__min__energy>  (62) 
-9.5600000000000005

>  <m_primary>  (62) 
energy

$$$$
62:0
     RDKit          3D

 43 45  0  0  0  0  0  0  0  0999 V2000
   56.2670   20.2310   44.4870 C   0  0  0  0  0  0  0  0  0  0  0  0
   56.1560   21.4530   45.4020 C   0  0  0  0  0  0  0  0  0  0  0  0
   57.0650   21.2980   46.6270 C   0  0  0  0  0  0  0  0  0  0  0  0
   56.4740   22.7130   44.6250 C   0  0  0  0  0  0  0  0  0  0  0  0
   56.9750   22.7650   43.3320 C   0  0  0  0  0  0  0  0  0  0  0  0
   56.9720   24.1060   43.0010 C   0  0  0  0  0  0  0  0  0  0  0  0
   56.4820   24.8090   44.0370 N   0  0  0  0  0  0  0  0  0  0  0  0
   56.1730   23.9740   45.0170 N   0  0  0  0  0  0  0  0  0  0  0  0
   55.5810   24.3990   46.2870 C   0  0  0  0  0  0  0  0  0  0  0  0
   56.2750   25.6470   46.8440 C   0  0  0  0  0  0  0  0  0  0  0  0
   56.0460   26.8090   45.9860 N   0  0  0  0  0  0  0  0  0  0  0  0
   57.0370   27.6030   45.3180 C   0  0  0  0  0  0  0  0  0  0  0  0
   58.0140   27.0170   44.7840 O   0  0  0  0  0  0  0  0  0  0  0  0
   56.9530   29.0730   45.2240 C   0  0  0  0  0  0  0  0  0  0  0  0
   57.9650   29.9530   45.5490 C   0  0  0  0  0  0  0  0  0  0  0  0
   57.4170   31.2000   45.3050 C   0  0  0  0  0  0  0  0  0  0  0  0
   58.0570   32.5180   45.5330 C   0  0  0  0  0  0  0  0  0  0  0  0
   58.4560   33.3340   44.4600 C   0  0  0  0  0  0  0  0  0  0  0  0
   59.0630   34.5660   44.7160 C   0  0  0  0  0  0  0  0  0  0  0  0
   59.2690   34.9730   45.9950 N   0  0  0  0  0  0  0  0  0  0  0  0
   58.8960   34.2070   47.0540 C   0  0  0  0  0  0  0  0  0  0  0  0
   58.2860   32.9690   46.8440 C   0  0  0  0  0  0  0  0  0  0  0  0
   56.1610   31.0500   44.8390 N   0  0  0  0  0  0  0  0  0  0  0  0
   55.8810   29.7580   44.7870 N   0  0  0  0  0  0  0  0  0  0  0  0
   56.3497   19.3208   45.0992 H   0  0  0  0  0  0  0  0  0  0  0  0
   55.3711   20.1657   43.8521 H   0  0  0  0  0  0  0  0  0  0  0  0
   57.1600   20.3282   43.8521 H   0  0  0  0  0  0  0  0  0  0  0  0
   55.1226   21.5324   45.7704 H   0  0  0  0  0  0  0  0  0  0  0  0
   56.4656   21.4002   47.5437 H   0  0  0  0  0  0  0  0  0  0  0  0
   57.5398   20.3059   46.6081 H   0  0  0  0  0  0  0  0  0  0  0  0
   57.8417   22.0767   46.6081 H   0  0  0  0  0  0  0  0  0  0  0  0
   57.3032   21.9217   42.7066 H   0  0  0  0  0  0  0  0  0  0  0  0
   57.3147   24.5297   42.0455 H   0  0  0  0  0  0  0  0  0  0  0  0
   56.3530   25.8440   44.0680 H   0  0  0  0  0  0  0  0  0  0  0  0
   54.5163   24.6243   46.1268 H   0  0  0  0  0  0  0  0  0  0  0  0
   55.7051   23.5831   47.0143 H   0  0  0  0  0  0  0  0  0  0  0  0
   55.8791   25.8592   47.8481 H   0  0  0  0  0  0  0  0  0  0  0  0
   57.3571   25.4535   46.8856 H   0  0  0  0  0  0  0  0  0  0  0  0
   58.9745   29.7175   45.9171 H   0  0  0  0  0  0  0  0  0  0  0  0
   58.2910   33.0040   43.4237 H   0  0  0  0  0  0  0  0  0  0  0  0
   59.3749   35.2081   43.8791 H   0  0  0  0  0  0  0  0  0  0  0  0
   59.0752   34.5635   48.0791 H   0  0  0  0  0  0  0  0  0  0  0  0
   57.9858   32.3489   47.7015 H   0  0  0  0  0  0  0  0  0  0  0  0
  1  2  1  0
  2  3  1  0
  2  4  1  0
  4  5  2  0
  5  6  1  0
  6  7  2  0
  7  8  1  0
  8  9  1  0
  9 10  1  0
 10 11  1  0
 11 12  1  0
 12 13  2  0
 12 14  1  0
 14 15  1  0
 15 16  2  0
 16 17  1  0
 17 18  2  0
 18 19  1  0
 19 20  2  0
 20 21  1  0
 21 22  2  0
 16 23  1  0
 23 24  1  0
  8  4  1  0
 24 14  2  0
 22 17  1  0
  1 25  1  0
  1 26  1  0
  1 27  1  0
  2 28  1  0
  3 29  1  0
  3 30  1  0
  3 31  1  0
  5 32  1  0
  6 33  1  0
  7 34  1  0
  9 35  1  0
  9 36  1  0
 10 37  1  0
 10 38  1  0
 15 39  1  0
 18 40  1  0
 19 41  1  0
 21 42  1  0
 22 43  1  0
M  CHG  3   7   1  11  -1  23  -1
M  END
>  <UniqueID>  (63) 
59

>  <SMILES>  (63) 
CC(C)c1cc[nH+]n1CC[N-]C(=O)c1cc(-c2ccncc2)[n-]n1

>  <Energy>  (63) 
97.93209311164264

>  <Genealogy>  (63) 
CC(C)c1cc[nH+]n1CC[N-]C(=O)c1cc(-c2ccncc2)[n-]n1 (protonated)
CC(C)c1cc[nH+]n1CC[N-]C(=O)c1cc(-c2ccncc2)[n-]n1 (3D coordinates assigned)
CC(C)c1cc[nH+]n1CC[N-]C(=O)c1cc(-c2ccncc2)[n-]n1 (optimized conformer: 97.93209311164264 kcal/mol)

>  <smiles>  (63) 
CC(C)c1ccnn1CCNC(=O)c1cc(-c2ccncc2)[nH]n1

>  <score_type>  (63) 
oracle

>  <origin>  (63) 
adg

>  <m_score__min__energy>  (63) 
-9.5

>  <m_primary>  (63) 
energy

$$$$
63:0
     RDKit          3D

 38 40  0  0  0  0  0  0  0  0999 V2000
   54.5710   30.4970   44.6110 H   0  0  0  0  0  0  0  0  0  0  0  0
   55.4720   30.2910   44.1960 O   0  0  0  0  0  0  0  0  0  0  0  0
   56.3520   29.4000   44.8020 C   0  0  0  0  0  0  0  0  0  0  0  0
   55.8890   28.2010   45.2460 N   0  0  0  0  0  0  0  0  0  0  0  0
   56.7120   27.2980   45.8370 C   0  0  0  0  0  0  0  0  0  0  0  0
   56.2240   26.1550   46.2240 N   0  0  0  0  0  0  0  0  0  0  0  0
   56.1110   24.9540   45.4410 C   0  0  0  0  0  0  0  0  0  0  0  0
   54.8610   24.4080   45.0880 C   0  0  0  0  0  0  0  0  0  0  0  0
   53.9348   24.8878   45.4373 H   0  0  0  0  0  0  0  0  0  0  0  0
   54.7940   23.2580   44.2950 C   0  0  0  0  0  0  0  0  0  0  0  0
   53.8162   22.8261   44.0355 H   0  0  0  0  0  0  0  0  0  0  0  0
   55.9670   22.6570   43.8320 C   0  0  0  0  0  0  0  0  0  0  0  0
   55.8990   21.5130   43.0450 O   0  0  0  0  0  0  0  0  0  0  0  0
   57.2100   23.2100   44.1540 C   0  0  0  0  0  0  0  0  0  0  0  0
   58.1335   22.7404   43.7843 H   0  0  0  0  0  0  0  0  0  0  0  0
   57.2790   24.3600   44.9460 C   0  0  0  0  0  0  0  0  0  0  0  0
   58.2582   24.8019   45.1823 H   0  0  0  0  0  0  0  0  0  0  0  0
   58.0350   27.5850   45.9720 N   0  0  0  0  0  0  0  0  0  0  0  0
   58.5500   28.7660   45.5480 C   0  0  0  0  0  0  0  0  0  0  0  0
   59.7820   28.9880   45.6910 O   0  0  0  0  0  0  0  0  0  0  0  0
   57.7120   29.7250   44.9520 C   0  0  0  0  0  0  0  0  0  0  0  0
   58.2660   31.0340   44.4290 C   0  0  0  0  0  0  0  0  0  0  0  0
   59.2937   31.1592   44.8008 H   0  0  0  0  0  0  0  0  0  0  0  0
   58.2437   30.9989   43.3298 H   0  0  0  0  0  0  0  0  0  0  0  0
   57.4240   32.2340   44.8840 C   0  0  0  0  0  0  0  0  0  0  0  0
   56.9784   32.7120   43.9991 H   0  0  0  0  0  0  0  0  0  0  0  0
   56.6462   31.8652   45.5688 H   0  0  0  0  0  0  0  0  0  0  0  0
   58.2530   33.2530   45.6230 C   0  0  0  0  0  0  0  0  0  0  0  0
   58.8970   34.2880   44.9240 C   0  0  0  0  0  0  0  0  0  0  0  0
   58.8289   34.3337   43.8271 H   0  0  0  0  0  0  0  0  0  0  0  0
   59.6240   35.2600   45.6180 C   0  0  0  0  0  0  0  0  0  0  0  0
   60.1291   36.0662   45.0659 H   0  0  0  0  0  0  0  0  0  0  0  0
   59.7100   35.2090   47.0120 C   0  0  0  0  0  0  0  0  0  0  0  0
   60.2830   35.9741   47.5562 H   0  0  0  0  0  0  0  0  0  0  0  0
   59.0680   34.1860   47.7140 C   0  0  0  0  0  0  0  0  0  0  0  0
   59.1370   34.1460   48.8111 H   0  0  0  0  0  0  0  0  0  0  0  0
   58.3380   33.2130   47.0250 C   0  0  0  0  0  0  0  0  0  0  0  0
   57.8283   32.4133   47.5824 H   0  0  0  0  0  0  0  0  0  0  0  0
  1  2  1  0
  2  3  1  0
  3  4  1  0
  4  5  1  0
  5  6  2  0
  6  7  1  0
  7  8  2  0
  8  9  1  0
  8 10  1  0
 10 11  1  0
 10 12  2  0
 12 13  1  0
 12 14  1  0
 14 15  1  0
 14 16  2  0
 16 17  1  0
  5 18  1  0
 18 19  1  0
 19 20  2  0
 19 21  1  0
 21 22  1  0
 22 23  1  0
 22 24  1  0
 22 25  1  0
 25 26  1  0
 25 27  1  0
 25 28  1  0
 28 29  2  0
 29 30  1  0
 29 31  1  0
 31 32  1  0
 31 33  2  0
 33 34  1  0
 33 35  1  0
 35 36  1  0
 35 37  2  0
 37 38  1  0
 21  3  2  0
 37 28  1  0
 16  7  1  0
M  CHG  3   4  -1  13  -1  18  -1
M  END
>  <UniqueID>  (64) 
60

>  <SMILES>  (64) 
O=c1[n-]/c(=N\c2ccc([O-])cc2)[n-]c(O)c1CCc1ccccc1

>  <Energy>  (64) 
45.12170562429839

>  <Genealogy>  (64) 
O=c1[n-]c(=Nc2ccc([O-])cc2)[n-]c(O)c1CCc1ccccc1 (protonated)
O=c1[n-]/c(=N\c2ccc([O-])cc2)[n-]c(O)c1CCc1ccccc1 (cis-trans isomerization)
O=c1[n-]/c(=N\c2ccc([O-])cc2)[n-]c(O)c1CCc1ccccc1 (3D coordinates assigned)
O=c1[n-]/c(=N\c2ccc([O-])cc2)[n-]c(O)c1CCc1ccccc1 (optimized conformer: 45.12170562429839 kcal/mol)

>  <smiles>  (64) 
O=c1[nH]c(=Nc2ccc(O)cc2)[nH]c(O)c1CCc1ccccc1

>  <score_type>  (64) 
oracle

>  <origin>  (64) 
adg

>  <m_score__min__energy>  (64) 
-13.35

>  <m_primary>  (64) 
energy

$$$$
64:0
     RDKit          3D

 30 31  0  0  0  0  0  0  0  0999 V2000
   56.3480   21.1440   43.3220 N   0  0  0  0  0  0  0  0  0  0  0  0
   57.1710   21.9870   43.8560 C   0  0  0  0  0  0  0  0  0  0  0  0
   56.9160   23.3320   43.8160 C   0  0  0  0  0  0  0  0  0  0  0  0
   57.8170   24.2670   44.4010 C   0  0  0  0  0  0  0  0  0  0  0  0
   57.4060   25.6430   44.3070 C   0  0  0  0  0  0  0  0  0  0  0  0
   58.0190   26.6230   43.4130 C   0  0  0  0  0  0  0  0  0  0  0  0
   57.8960   28.0240   43.8250 C   0  0  0  0  0  0  0  0  0  0  0  0
   58.7490   28.4380   44.8670 C   0  0  0  0  0  0  0  0  0  0  0  0
   58.6910   29.7210   45.3710 C   0  0  0  0  0  0  0  0  0  0  0  0
   57.7970   30.6510   44.8780 C   0  0  0  0  0  0  0  0  0  0  0  0
   57.7700   32.2650   45.5590 Cl  0  0  0  0  0  0  0  0  0  0  0  0
   56.9560   30.2590   43.8600 C   0  0  0  0  0  0  0  0  0  0  0  0
   57.0280   28.9680   43.3660 C   0  0  0  0  0  0  0  0  0  0  0  0
   58.8810   23.7250   44.9630 N   0  0  0  0  0  0  0  0  0  0  0  0
   59.1170   22.3860   44.9920 C   0  0  0  0  0  0  0  0  0  0  0  0
   60.1920   21.9430   45.5680 N   0  0  0  0  0  0  0  0  0  0  0  0
   58.2740   21.4980   44.4450 N   0  0  0  0  0  0  0  0  0  0  0  0
   56.6510   20.1430   43.2590 H   0  0  0  0  0  0  0  0  0  0  0  0
   56.0015   23.6956   43.3246 H   0  0  0  0  0  0  0  0  0  0  0  0
   56.3406   25.6172   44.0344 H   0  0  0  0  0  0  0  0  0  0  0  0
   57.7309   26.0239   45.2865 H   0  0  0  0  0  0  0  0  0  0  0  0
   59.0905   26.3863   43.3359 H   0  0  0  0  0  0  0  0  0  0  0  0
   57.4744   26.5418   42.4608 H   0  0  0  0  0  0  0  0  0  0  0  0
   59.4744   27.7254   45.2864 H   0  0  0  0  0  0  0  0  0  0  0  0
   59.3727   30.0099   46.1845 H   0  0  0  0  0  0  0  0  0  0  0  0
   56.2290   30.9701   43.4407 H   0  0  0  0  0  0  0  0  0  0  0  0
   56.3423   28.6872   42.5530 H   0  0  0  0  0  0  0  0  0  0  0  0
   59.5900   24.3140   45.3870 H   0  0  0  0  0  0  0  0  0  0  0  0
   61.0720   21.7670   45.0450 H   0  0  0  0  0  0  0  0  0  0  0  0
   58.5130   20.4960   44.5010 H   0  0  0  0  0  0  0  0  0  0  0  0
  1  2  2  3
  2  3  1  0
  3  4  2  0
  4  5  1  0
  5  6  1  0
  6  7  1  0
  7  8  2  0
  8  9  1  0
  9 10  2  0
 10 11  1  0
 10 12  1  0
 12 13  2  0
  4 14  1  0
 14 15  1  0
 15 16  2  3
 15 17  1  0
 17  2  1  0
 13  7  1  0
  1 18  1  0
  3 19  1  0
  5 20  1  0
  5 21  1  0
  6 22  1  0
  6 23  1  0
  8 24  1  0
  9 25  1  0
 12 26  1  0
 13 27  1  0
 14 28  1  0
 16 29  1  0
 17 30  1  0
M  END
>  <smiles>  (65) 
N=c1cc(CCc2ccc(Cl)cc2)[nH]c(=N)[nH]1

>  <score_type>  (65) 
oracle

>  <origin>  (65) 
adg

>  <m_score__min__energy>  (65) 
-6.9000000000000004

>  <m_primary>  (65) 
energy

$$$$
65:0
     RDKit          3D

 58 62  0  0  0  0  0  0  0  0999 V2000
   58.7900   32.3350   49.6110 C   0  0  0  0  0  0  0  0  0  0  0  0
   59.4210   33.4720   49.0510 O   0  0  0  0  0  0  0  0  0  0  0  0
   60.7350   33.4680   48.6080 C   0  0  0  0  0  0  0  0  0  0  0  0
   61.8170   33.4940   49.4680 C   0  0  0  0  0  0  0  0  0  0  0  0
   63.1320   33.4890   49.0130 C   0  0  0  0  0  0  0  0  0  0  0  0
   64.2120   33.5160   49.9960 C   0  0  0  0  0  0  0  0  0  0  0  0
   65.3630   32.7660   49.7460 C   0  0  0  0  0  0  0  0  0  0  0  0
   66.4030   32.7570   50.6390 C   0  0  0  0  0  0  0  0  0  0  0  0
   66.2970   33.5020   51.7950 C   0  0  0  0  0  0  0  0  0  0  0  0
   65.1730   34.2640   52.0870 C   0  0  0  0  0  0  0  0  0  0  0  0
   65.1310   35.0320   53.3410 C   0  0  0  0  0  0  0  0  0  0  0  0
   63.9370   34.7620   53.9800 F   0  0  0  0  0  0  0  0  0  0  0  0
   66.1510   34.5820   54.1690 F   0  0  0  0  0  0  0  0  0  0  0  0
   65.2720   36.3920   53.1400 F   0  0  0  0  0  0  0  0  0  0  0  0
   64.1190   34.2650   51.1680 C   0  0  0  0  0  0  0  0  0  0  0  0
   63.3590   33.4570   47.6510 C   0  0  0  0  0  0  0  0  0  0  0  0
   62.3070   33.4320   46.7560 C   0  0  0  0  0  0  0  0  0  0  0  0
   61.0070   33.4370   47.2320 C   0  0  0  0  0  0  0  0  0  0  0  0
   59.8710   33.4100   46.3720 N   0  0  0  0  0  0  0  0  0  0  0  0
   58.1410   25.6580   45.3220 C   0  0  0  0  0  0  0  0  0  0  0  0
   59.8400   35.6980   46.2290 O   0  0  0  0  0  0  0  0  0  0  0  0
   58.2470   34.5580   45.0770 C   0  0  0  0  0  0  0  0  0  0  0  0
   57.7220   33.3260   44.7430 C   0  0  0  0  0  0  0  0  0  0  0  0
   58.2750   32.1560   45.2250 C   0  0  0  0  0  0  0  0  0  0  0  0
   57.7350   30.9110   44.8790 C   0  0  0  0  0  0  0  0  0  0  0  0
   58.2790   29.7350   45.3550 C   0  0  0  0  0  0  0  0  0  0  0  0
   57.6030   28.1790   44.9250 S   0  0  0  0  0  0  0  0  0  0  0  0
   56.1190   28.2160   45.2490 O   0  0  0  0  0  0  0  0  0  0  0  0
   57.6630   28.0010   43.4160 O   0  0  0  0  0  0  0  0  0  0  0  0
   58.3790   26.8690   45.6960 N   0  0  0  0  0  0  0  0  0  0  0  0
   59.3550   34.5750   45.9200 C   0  0  0  0  0  0  0  0  0  0  0  0
   58.8620   24.5960   45.7130 N   0  0  0  0  0  0  0  0  0  0  0  0
   58.5970   23.3420   45.3100 C   0  0  0  0  0  0  0  0  0  0  0  0
   57.5260   23.1770   44.4560 C   0  0  0  0  0  0  0  0  0  0  0  0
   56.7490   24.2510   44.0240 C   0  0  0  0  0  0  0  0  0  0  0  0
   57.1010   25.4560   44.4860 N   0  0  0  0  0  0  0  0  0  0  0  0
   59.3770   29.8320   46.1860 C   0  0  0  0  0  0  0  0  0  0  0  0
   59.9370   31.0430   46.5480 C   0  0  0  0  0  0  0  0  0  0  0  0
   59.3730   32.2100   46.0580 C   0  0  0  0  0  0  0  0  0  0  0  0
   58.8256   32.3992   50.7085 H   0  0  0  0  0  0  0  0  0  0  0  0
   57.7417   32.2970   49.2798 H   0  0  0  0  0  0  0  0  0  0  0  0
   59.3124   31.4254   49.2798 H   0  0  0  0  0  0  0  0  0  0  0  0
   61.6316   33.5196   50.5520 H   0  0  0  0  0  0  0  0  0  0  0  0
   65.4361   32.1751   48.8211 H   0  0  0  0  0  0  0  0  0  0  0  0
   67.3078   32.1650   50.4369 H   0  0  0  0  0  0  0  0  0  0  0  0
   67.1321   33.4923   52.5109 H   0  0  0  0  0  0  0  0  0  0  0  0
   63.2148   34.8579   51.3703 H   0  0  0  0  0  0  0  0  0  0  0  0
   64.3922   33.4513   47.2735 H   0  0  0  0  0  0  0  0  0  0  0  0
   62.5008   33.4083   45.6735 H   0  0  0  0  0  0  0  0  0  0  0  0
   57.8073   35.4900   44.6922 H   0  0  0  0  0  0  0  0  0  0  0  0
   56.8459   33.2751   44.0798 H   0  0  0  0  0  0  0  0  0  0  0  0
   56.8595   30.8694   44.2144 H   0  0  0  0  0  0  0  0  0  0  0  0
   59.2045   22.4882   45.6447 H   0  0  0  0  0  0  0  0  0  0  0  0
   57.2770   22.1649   44.1044 H   0  0  0  0  0  0  0  0  0  0  0  0
   55.8960   24.1153   43.3428 H   0  0  0  0  0  0  0  0  0  0  0  0
   56.5300   26.2890   44.1760 H   0  0  0  0  0  0  0  0  0  0  0  0
   59.8253   28.9066   46.5767 H   0  0  0  0  0  0  0  0  0  0  0  0
   60.8132   31.0795   47.2120 H   0  0  0  0  0  0  0  0  0  0  0  0
  1  2  1  0
  2  3  1  0
  3  4  2  0
  4  5  1  0
  5  6  1  0
  6  7  2  0
  7  8  1  0
  8  9  2  0
  9 10  1  0
 10 11  1  0
 11 12  1  0
 11 13  1  0
 11 14  1  0
 10 15  2  0
  5 16  2  0
 16 17  1  0
 17 18  2  0
 18 19  1  0
 19 20  1  0
 20 21  2  0
 20 22  1  0
 22 23  2  0
 23 24  1  0
 24 25  2  0
 25 26  1  0
 26 27  1  0
 27 28  2  0
 27 29  2  0
 27 30  1  0
 30 31  2  3
 31 32  1  0
 32 33  2  0
 33 34  1  0
 34 35  2  0
 35 36  1  0
 26 37  2  0
 37 38  1  0
 38 39  2  0
 18  3  1  0
 39 19  1  0
 15  6  1  0
 39 24  1  0
 36 31  1  0
  1 40  1  0
  1 41  1  0
  1 42  1  0
  4 43  1  0
  7 44  1  0
  8 45  1  0
  9 46  1  0
 15 47  1  0
 16 48  1  0
 17 49  1  0
 22 50  1  0
 23 51  1  0
 25 52  1  0
 33 53  1  0
 34 54  1  0
 35 55  1  0
 36 56  1  0
 37 57  1  0
 38 58  1  0
M  END
>  <smiles>  (66) 
COc1cc(-c2cccc(C(F)(F)F)c2)ccc1-n1c(=O)ccc2cc(S(=O)(=O)N=c3nccc[nH]3)ccc21

>  <score_type>  (66) 
oracle

>  <origin>  (66) 
adg

>  <m_score__min__energy>  (66) 
-10.15

>  <m_primary>  (66) 
energy

$$$$
66:0
     RDKit          3D

 50 51  0  0  0  0  0  0  0  0999 V2000
   63.8270   33.9270   51.2720 C   0  0  0  0  0  0  0  0  0  0  0  0
   62.9530   33.8070   50.0580 C   0  0  0  0  0  0  0  0  0  0  0  0
   61.5740   33.6160   50.2000 C   0  0  0  0  0  0  0  0  0  0  0  0
   60.7540   33.4600   49.0740 C   0  0  0  0  0  0  0  0  0  0  0  0
   59.2760   33.2360   49.2500 C   0  0  0  0  0  0  0  0  0  0  0  0
   61.3270   33.4560   47.7860 C   0  0  0  0  0  0  0  0  0  0  0  0
   60.4780   33.2630   46.6450 N   0  0  0  0  0  0  0  0  0  0  0  0
   59.4980   34.2100   46.2080 C   0  0  0  0  0  0  0  0  0  0  0  0
   59.7680   35.4420   46.1810 O   0  0  0  0  0  0  0  0  0  0  0  0
   58.1480   33.7340   45.7870 C   0  0  0  0  0  0  0  0  0  0  0  0
   58.2840   32.9230   44.1560 S   0  0  0  0  0  0  0  0  0  0  0  0
   57.4220   31.4230   44.6320 C   0  0  0  0  0  0  0  0  0  0  0  0
   56.1220   31.1870   44.3760 N   0  0  0  0  0  0  0  0  0  0  0  0
   55.8900   29.9780   44.8690 N   0  0  0  0  0  0  0  0  0  0  0  0
   56.9960   29.4840   45.4070 N   0  0  0  0  0  0  0  0  0  0  0  0
   57.9670   30.3690   45.2650 N   0  0  0  0  0  0  0  0  0  0  0  0
   59.3300   30.1980   45.7670 C   0  0  0  0  0  0  0  0  0  0  0  0
   59.4070   30.4590   47.2780 C   0  0  0  0  0  0  0  0  0  0  0  0
   60.7620   30.0680   47.8910 C   0  0  0  0  0  0  0  0  0  0  0  0
   60.6310   29.6240   49.2950 N   0  0  0  0  0  0  0  0  0  0  0  0
   61.7150   30.1670   50.1320 C   0  0  0  0  0  0  0  0  0  0  0  0
   60.6510   28.1540   49.3640 C   0  0  0  0  0  0  0  0  0  0  0  0
   62.7170   33.6820   47.6360 C   0  0  0  0  0  0  0  0  0  0  0  0
   63.3700   33.7600   46.2810 C   0  0  0  0  0  0  0  0  0  0  0  0
   63.5200   33.8250   48.7780 C   0  0  0  0  0  0  0  0  0  0  0  0
   63.2094   33.8422   52.1783 H   0  0  0  0  0  0  0  0  0  0  0  0
   64.5783   33.1236   51.2638 H   0  0  0  0  0  0  0  0  0  0  0  0
   64.3340   34.9032   51.2638 H   0  0  0  0  0  0  0  0  0  0  0  0
   61.1290   33.5880   51.2056 H   0  0  0  0  0  0  0  0  0  0  0  0
   59.0359   33.1996   50.3229 H   0  0  0  0  0  0  0  0  0  0  0  0
   58.7214   34.0604   48.7779 H   0  0  0  0  0  0  0  0  0  0  0  0
   58.9906   32.2843   48.7779 H   0  0  0  0  0  0  0  0  0  0  0  0
   57.7639   33.0148   46.5254 H   0  0  0  0  0  0  0  0  0  0  0  0
   57.4574   34.5876   45.7207 H   0  0  0  0  0  0  0  0  0  0  0  0
   59.6595   29.1683   45.5644 H   0  0  0  0  0  0  0  0  0  0  0  0
   59.9806   30.9234   45.2566 H   0  0  0  0  0  0  0  0  0  0  0  0
   59.2385   31.5312   47.4568 H   0  0  0  0  0  0  0  0  0  0  0  0
   58.6385   29.8349   47.7575 H   0  0  0  0  0  0  0  0  0  0  0  0
   61.1956   29.2485   47.2990 H   0  0  0  0  0  0  0  0  0  0  0  0
   61.4091   30.9574   47.8765 H   0  0  0  0  0  0  0  0  0  0  0  0
   61.4580   30.0383   51.1938 H   0  0  0  0  0  0  0  0  0  0  0  0
   62.6504   29.6311   49.9136 H   0  0  0  0  0  0  0  0  0  0  0  0
   61.8459   31.2371   49.9136 H   0  0  0  0  0  0  0  0  0  0  0  0
   60.6553   27.8364   50.4171 H   0  0  0  0  0  0  0  0  0  0  0  0
   59.7583   27.7512   48.8632 H   0  0  0  0  0  0  0  0  0  0  0  0
   61.5544   27.7757   48.8632 H   0  0  0  0  0  0  0  0  0  0  0  0
   64.4554   33.8896   46.4040 H   0  0  0  0  0  0  0  0  0  0  0  0
   63.1723   32.8319   45.7247 H   0  0  0  0  0  0  0  0  0  0  0  0
   62.9592   34.6155   45.7247 H   0  0  0  0  0  0  0  0  0  0  0  0
   64.6068   33.9526   48.6662 H   0  0  0  0  0  0  0  0  0  0  0  0
  1  2  1  0
  2  3  2  0
  3  4  1  0
  4  5  1  0
  4  6  2  0
  6  7  1  0
  7  8  1  0
  8  9  2  0
  8 10  1  0
 10 11  1  0
 11 12  1  0
 12 13  2  0
 13 14  1  0
 14 15  2  0
 15 16  1  0
 16 17  1  0
 17 18  1  0
 18 19  1  0
 19 20  1  0
 20 21  1  0
 20 22  1  0
  6 23  1  0
 23 24  1  0
 23 25  2  0
 25  2  1  0
 16 12  1  0
  1 26  1  0
  1 27  1  0
  1 28  1  0
  3 29  1  0
  5 30  1  0
  5 31  1  0
  5 32  1  0
 10 33  1  0
 10 34  1  0
 17 35  1  0
 17 36  1  0
 18 37  1  0
 18 38  1  0
 19 39  1  0
 19 40  1  0
 21 41  1  0
 21 42  1  0
 21 43  1  0
 22 44  1  0
 22 45  1  0
 22 46  1  0
 24 47  1  0
 24 48  1  0
 24 49  1  0
 25 50  1  0
M  CHG  1   7  -1
M  END
>  <UniqueID>  (67) 
61

>  <SMILES>  (67) 
Cc1cc(C)c([N-]C(=O)CSc2nnnn2CCCN(C)C)c(C)c1

>  <Energy>  (67) 
85.7000288314709

>  <Genealogy>  (67) 
Cc1cc(C)c([N-]C(=O)CSc2nnnn2CCCN(C)C)c(C)c1 (protonated)
Cc1cc(C)c([N-]C(=O)CSc2nnnn2CCCN(C)C)c(C)c1 (3D coordinates assigned)
Cc1cc(C)c([N-]C(=O)CSc2nnnn2CCCN(C)C)c(C)c1 (optimized conformer: 85.7000288314709 kcal/mol)

>  <smiles>  (67) 
Cc1cc(C)c(NC(=O)CSc2nnnn2CCCN(C)C)c(C)c1

>  <score_type>  (67) 
oracle

>  <origin>  (67) 
adg

>  <m_score__min__energy>  (67) 
-9.0700000000000003

>  <m_primary>  (67) 
energy

$$$$
67:0
     RDKit          3D

 69 74  0  0  0  0  0  0  0  0999 V2000
   62.0550   32.4260   46.7470 C   0  0  0  0  0  0  0  0  0  0  0  0
   61.6460   32.5860   48.2530 C   0  0  0  0  0  0  0  0  0  0  0  0
   62.9350   33.0300   49.0130 C   0  0  0  0  0  0  0  0  0  0  0  0
   61.1940   31.1680   48.7640 C   0  0  0  0  0  0  0  0  0  0  0  0
   60.9320   30.1620   47.8530 N   0  0  0  0  0  0  0  0  0  0  0  0
   60.0860   29.1260   48.1190 C   0  0  0  0  0  0  0  0  0  0  0  0
   59.5280   28.2640   46.9990 C   0  0  1  0  0  0  0  0  0  0  0  0
   59.1490   26.8120   47.3080 C   0  0  0  0  0  0  0  0  0  0  0  0
   57.6290   26.6010   47.2620 C   0  0  0  0  0  0  0  0  0  0  0  0
   57.0550   26.8570   45.8610 C   0  0  2  0  0  0  0  0  0  0  0  0
   55.6480   26.7240   45.9370 O   0  0  0  0  0  0  0  0  0  0  0  0
   57.6130   25.8590   44.9210 N   0  0  0  0  0  0  0  0  0  0  0  0
   57.0280   24.5650   44.6780 C   0  0  0  0  0  0  0  0  0  0  0  0
   55.7470   24.3570   44.8720 N   0  0  0  0  0  0  0  0  0  0  0  0
   55.0880   23.1210   44.4500 C   0  0  0  0  0  0  0  0  0  0  0  0
   56.0190   21.9160   44.6560 C   0  0  0  0  0  0  0  0  0  0  0  0
   57.3890   22.2250   44.1170 C   0  0  0  0  0  0  0  0  0  0  0  0
   57.8730   23.4760   44.1560 C   0  0  0  0  0  0  0  0  0  0  0  0
   57.3820   28.2950   45.3760 C   0  0  0  0  0  0  0  0  0  0  0  0
   58.5390   29.0220   46.0960 C   0  0  2  0  0  0  0  0  0  0  0  0
   59.9090   28.6230   45.5500 C   0  0  0  0  0  0  0  0  0  0  0  0
   59.6790   28.9070   49.4290 C   0  0  0  0  0  0  0  0  0  0  0  0
   60.0930   29.7640   50.4320 C   0  0  0  0  0  0  0  0  0  0  0  0
   60.8050   30.9240   50.1180 C   0  0  0  0  0  0  0  0  0  0  0  0
   61.1260   31.8020   51.2470 C   0  0  0  0  0  0  0  0  0  0  0  0
   61.8310   31.3770   52.1990 O   0  0  0  0  0  0  0  0  0  0  0  0
   60.6470   33.2070   51.2450 C   0  0  0  0  0  0  0  0  0  0  0  0
   59.4060   33.4850   49.9400 S   0  0  0  0  0  0  0  0  0  0  0  0
   60.4990   33.6950   48.4570 C   0  0  2  0  0  0  0  0  0  0  0  0
   59.5600   33.8590   47.2650 C   0  0  0  0  0  0  0  0  0  0  0  0
   58.3650   33.1100   47.1760 C   0  0  0  0  0  0  0  0  0  0  0  0
   57.4930   33.2650   46.0930 C   0  0  0  0  0  0  0  0  0  0  0  0
   57.8070   34.1600   45.0690 C   0  0  0  0  0  0  0  0  0  0  0  0
   58.9970   34.8980   45.1310 C   0  0  0  0  0  0  0  0  0  0  0  0
   59.8730   34.7490   46.2170 C   0  0  0  0  0  0  0  0  0  0  0  0
   63.0778   32.0259   46.6853 H   0  0  0  0  0  0  0  0  0  0  0  0
   61.3598   31.7335   46.2498 H   0  0  0  0  0  0  0  0  0  0  0  0
   62.0142   33.4064   46.2498 H   0  0  0  0  0  0  0  0  0  0  0  0
   62.7604   32.9698   50.0974 H   0  0  0  0  0  0  0  0  0  0  0  0
   63.7690   32.3673   48.7386 H   0  0  0  0  0  0  0  0  0  0  0  0
   63.1840   34.0657   48.7386 H   0  0  0  0  0  0  0  0  0  0  0  0
   61.3420   30.1630   46.8880 H   0  0  0  0  0  0  0  0  0  0  0  0
   59.6231   26.1538   46.5651 H   0  0  0  0  0  0  0  0  0  0  0  0
   59.4980   26.5747   48.3238 H   0  0  0  0  0  0  0  0  0  0  0  0
   57.4054   25.5641   47.5534 H   0  0  0  0  0  0  0  0  0  0  0  0
   57.1653   27.3180   47.9555 H   0  0  0  0  0  0  0  0  0  0  0  0
   55.3590   26.1580   45.1660 H   0  0  0  0  0  0  0  0  0  0  0  0
   58.5560   26.0250   44.5070 H   0  0  0  0  0  0  0  0  0  0  0  0
   54.1736   22.9774   45.0443 H   0  0  0  0  0  0  0  0  0  0  0  0
   54.8383   23.1985   43.3815 H   0  0  0  0  0  0  0  0  0  0  0  0
   56.0924   21.6921   45.7305 H   0  0  0  0  0  0  0  0  0  0  0  0
   55.6083   21.0473   44.1206 H   0  0  0  0  0  0  0  0  0  0  0  0
   57.9999   21.4177   43.6868 H   0  0  0  0  0  0  0  0  0  0  0  0
   58.8926   23.6871   43.8011 H   0  0  0  0  0  0  0  0  0  0  0  0
   57.6381   28.2366   44.3078 H   0  0  0  0  0  0  0  0  0  0  0  0
   56.4830   28.8879   45.6004 H   0  0  0  0  0  0  0  0  0  0  0  0
   57.9502   29.9342   46.2724 H   0  0  0  0  0  0  0  0  0  0  0  0
   59.9885   27.8312   44.7905 H   0  0  0  0  0  0  0  0  0  0  0  0
   60.7435   29.1615   45.0770 H   0  0  0  0  0  0  0  0  0  0  0  0
   59.0283   28.0530   49.6681 H   0  0  0  0  0  0  0  0  0  0  0  0
   59.8607   29.5313   51.4817 H   0  0  0  0  0  0  0  0  0  0  0  0
   60.1952   33.4324   52.2223 H   0  0  0  0  0  0  0  0  0  0  0  0
   61.5066   33.8654   51.0509 H   0  0  0  0  0  0  0  0  0  0  0  0
   61.1290   34.5860   48.5954 H   0  0  0  0  0  0  0  0  0  0  0  0
   58.1161   32.3927   47.9720 H   0  0  0  0  0  0  0  0  0  0  0  0
   56.5611   32.6823   46.0485 H   0  0  0  0  0  0  0  0  0  0  0  0
   57.1232   34.2857   44.2166 H   0  0  0  0  0  0  0  0  0  0  0  0
   59.2463   35.5999   44.3215 H   0  0  0  0  0  0  0  0  0  0  0  0
   60.8073   35.3286   46.2509 H   0  0  0  0  0  0  0  0  0  0  0  0
  1  2  1  0
  2  3  1  0
  2  4  1  0
  4  5  2  0
  5  6  1  0
  7  6  1  1
  7  8  1  0
  8  9  1  0
  9 10  1  0
 10 11  1  1
 10 12  1  0
 12 13  1  0
 13 14  2  0
 14 15  1  0
 15 16  1  0
 16 17  1  0
 17 18  2  0
 10 19  1  0
 19 20  1  0
 20 21  1  0
  6 22  2  0
 22 23  1  0
 23 24  2  0
 24 25  1  0
 25 26  2  0
 25 27  1  0
 27 28  1  0
 28 29  1  0
 29 30  1  0
 30 31  2  0
 31 32  1  0
 32 33  2  0
 33 34  1  0
 34 35  2  0
 29  2  1  0
 35 30  1  0
 24  4  1  0
 20  7  1  0
 21  7  1  0
 18 13  1  0
  1 36  1  0
  1 37  1  0
  1 38  1  0
  3 39  1  0
  3 40  1  0
  3 41  1  0
  5 42  1  0
  8 43  1  0
  8 44  1  0
  9 45  1  0
  9 46  1  0
 11 47  1  0
 12 48  1  0
 15 49  1  0
 15 50  1  0
 16 51  1  0
 16 52  1  0
 17 53  1  0
 18 54  1  0
 19 55  1  0
 19 56  1  0
 20 57  1  1
 21 58  1  0
 21 59  1  0
 22 60  1  0
 23 61  1  0
 27 62  1  0
 27 63  1  0
 29 64  1  1
 31 65  1  0
 32 66  1  0
 33 67  1  0
 34 68  1  0
 35 69  1  0
M  CHG  1   5   1
M  END
>  <UniqueID>  (68) 
62

>  <SMILES>  (68) 
CC1(C)c2[nH+]c([C@@]34CC[C@](O)(NC5=NCCC=C5)CC3C4)ccc2C(=O)CSC1c1ccccc1

>  <Energy>  (68) 
394.64243074884274

>  <Genealogy>  (68) 
CC1(C)c2[nH+]c(C34CCC(O)(NC5=NCCC=C5)CC3C4)ccc2C(=O)CSC1c1ccccc1 (protonated)
CC1(C)c2[nH+]c([C@@]34CC[C@](O)(NC5=NCCC=C5)CC3C4)ccc2C(=O)CSC1c1ccccc1 (chirality)
CC1(C)c2[nH+]c([C@@]34CC[C@](O)(NC5=NCCC=C5)CC3C4)ccc2C(=O)CSC1c1ccccc1 (3D coordinates assigned)
CC1(C)c2[nH+]c([C@@]34CC[C@](O)(NC5=NCCC=C5)CC3C4)ccc2C(=O)CSC1c1ccccc1 (nonaromatic ring conformer: 394.64243074884274 kcal/mol)

>  <smiles>  (68) 
CC1(C)c2nc(C34CCC(O)(NC5=NCCC=C5)CC3C4)ccc2C(=O)CSC1c1ccccc1

>  <score_type>  (68) 
oracle

>  <origin>  (68) 
adg

>  <m_score__min__energy>  (68) 
-7.5899999999999999

>  <m_primary>  (68) 
energy

$$$$
68:0
     RDKit          3D

 51 53  0  0  0  0  0  0  0  0999 V2000
   60.1720   30.6320   47.3680 C   0  0  0  0  0  0  0  0  0  0  0  0
   59.8350   31.0020   46.0360 O   0  0  0  0  0  0  0  0  0  0  0  0
   58.8720   30.3540   45.2440 C   0  0  0  0  0  0  0  0  0  0  0  0
   58.9320   28.9670   44.9940 C   0  0  0  0  0  0  0  0  0  0  0  0
   58.0040   28.3520   44.1380 C   0  0  0  0  0  0  0  0  0  0  0  0
   58.0420   26.9380   43.8850 N   0  0  0  0  0  0  0  0  0  0  0  0
   57.3870   25.9590   44.7120 C   0  0  0  0  0  0  0  0  0  0  0  0
   56.7730   26.3160   45.7540 O   0  0  0  0  0  0  0  0  0  0  0  0
   57.4120   24.5230   44.3570 C   0  0  0  0  0  0  0  0  0  0  0  0
   56.5160   24.0380   43.3870 C   0  0  0  0  0  0  0  0  0  0  0  0
   56.5170   22.6860   43.0350 C   0  0  0  0  0  0  0  0  0  0  0  0
   57.4040   21.8020   43.6520 C   0  0  0  0  0  0  0  0  0  0  0  0
   58.2850   22.2670   44.6300 C   0  0  0  0  0  0  0  0  0  0  0  0
   58.2910   23.6200   44.9900 C   0  0  0  0  0  0  0  0  0  0  0  0
   59.1140   24.0250   45.9890 F   0  0  0  0  0  0  0  0  0  0  0  0
   56.9900   29.1240   43.5590 C   0  0  0  0  0  0  0  0  0  0  0  0
   56.9180   30.4950   43.8070 C   0  0  0  0  0  0  0  0  0  0  0  0
   57.8340   31.1130   44.6630 C   0  0  0  0  0  0  0  0  0  0  0  0
   57.7130   32.5250   44.8880 N   0  0  0  0  0  0  0  0  0  0  0  0
   57.9710   33.1880   46.1330 C   0  0  0  0  0  0  0  0  0  0  0  0
   57.3970   32.7930   47.1850 O   0  0  0  0  0  0  0  0  0  0  0  0
   58.8480   34.3300   46.1730 N   0  0  0  0  0  0  0  0  0  0  0  0
   59.1780   35.0290   44.9280 C   0  0  0  0  0  0  0  0  0  0  0  0
   59.3940   34.8040   47.4520 C   0  0  0  0  0  0  0  0  0  0  0  0
   60.7810   34.2580   47.6600 C   0  0  0  0  0  0  0  0  0  0  0  0
   61.5480   33.8500   46.5560 C   0  0  0  0  0  0  0  0  0  0  0  0
   62.8450   33.3630   46.7420 C   0  0  0  0  0  0  0  0  0  0  0  0
   63.3890   33.2870   48.0280 C   0  0  0  0  0  0  0  0  0  0  0  0
   62.6340   33.6980   49.1290 C   0  0  0  0  0  0  0  0  0  0  0  0
   61.3360   34.1840   48.9490 C   0  0  0  0  0  0  0  0  0  0  0  0
   59.6051   31.2544   48.0760 H   0  0  0  0  0  0  0  0  0  0  0  0
   59.9217   29.5730   47.5289 H   0  0  0  0  0  0  0  0  0  0  0  0
   61.2497   30.7826   47.5289 H   0  0  0  0  0  0  0  0  0  0  0  0
   59.7139   28.3607   45.4746 H   0  0  0  0  0  0  0  0  0  0  0  0
   58.6180   26.6130   43.0770 H   0  0  0  0  0  0  0  0  0  0  0  0
   55.8097   24.7281   42.9023 H   0  0  0  0  0  0  0  0  0  0  0  0
   55.8176   22.3173   42.2702 H   0  0  0  0  0  0  0  0  0  0  0  0
   57.4087   20.7394   43.3676 H   0  0  0  0  0  0  0  0  0  0  0  0
   58.9778   21.5671   45.1201 H   0  0  0  0  0  0  0  0  0  0  0  0
   56.2456   28.6469   42.9046 H   0  0  0  0  0  0  0  0  0  0  0  0
   56.1328   31.0954   43.3243 H   0  0  0  0  0  0  0  0  0  0  0  0
   59.6367   36.0006   45.1635 H   0  0  0  0  0  0  0  0  0  0  0  0
   59.8847   34.4221   44.3430 H   0  0  0  0  0  0  0  0  0  0  0  0
   58.2603   35.1890   44.3430 H   0  0  0  0  0  0  0  0  0  0  0  0
   59.4336   35.9033   47.4450 H   0  0  0  0  0  0  0  0  0  0  0  0
   58.7454   34.4565   48.2697 H   0  0  0  0  0  0  0  0  0  0  0  0
   61.1266   33.9140   45.5419 H   0  0  0  0  0  0  0  0  0  0  0  0
   63.4391   33.0388   45.8748 H   0  0  0  0  0  0  0  0  0  0  0  0
   64.4100   32.9041   48.1724 H   0  0  0  0  0  0  0  0  0  0  0  0
   63.0622   33.6390   50.1405 H   0  0  0  0  0  0  0  0  0  0  0  0
   60.7469   34.5096   49.8190 H   0  0  0  0  0  0  0  0  0  0  0  0
  1  2  1  0
  2  3  1  0
  3  4  2  0
  4  5  1  0
  5  6  1  0
  6  7  1  0
  7  8  2  0
  7  9  1  0
  9 10  2  0
 10 11  1  0
 11 12  2  0
 12 13  1  0
 13 14  2  0
 14 15  1  0
  5 16  2  0
 16 17  1  0
 17 18  2  0
 18 19  1  0
 19 20  1  0
 20 21  2  0
 20 22  1  0
 22 23  1  0
 22 24  1  0
 24 25  1  0
 25 26  2  0
 26 27  1  0
 27 28  2  0
 28 29  1  0
 29 30  2  0
 18  3  1  0
 30 25  1  0
 14  9  1  0
  1 31  1  0
  1 32  1  0
  1 33  1  0
  4 34  1  0
  6 35  1  0
 10 36  1  0
 11 37  1  0
 12 38  1  0
 13 39  1  0
 16 40  1  0
 17 41  1  0
 23 42  1  0
 23 43  1  0
 23 44  1  0
 24 45  1  0
 24 46  1  0
 26 47  1  0
 27 48  1  0
 28 49  1  0
 29 50  1  0
 30 51  1  0
M  CHG  1  19  -1
M  END
>  <UniqueID>  (69) 
63

>  <SMILES>  (69) 
COc1cc(NC(=O)c2ccccc2F)ccc1[N-]C(=O)N(C)Cc1ccccc1

>  <Energy>  (69) 
63.52581812088403

>  <Genealogy>  (69) 
COc1cc(NC(=O)c2ccccc2F)ccc1[N-]C(=O)N(C)Cc1ccccc1 (protonated)
COc1cc(NC(=O)c2ccccc2F)ccc1[N-]C(=O)N(C)Cc1ccccc1 (3D coordinates assigned)
COc1cc(NC(=O)c2ccccc2F)ccc1[N-]C(=O)N(C)Cc1ccccc1 (optimized conformer: 63.52581812088403 kcal/mol)

>  <smiles>  (69) 
COc1cc(NC(=O)c2ccccc2F)ccc1NC(=O)N(C)Cc1ccccc1

>  <score_type>  (69) 
oracle

>  <origin>  (69) 
adg

>  <m_score__min__energy>  (69) 
-9.9499999999999993

>  <m_primary>  (69) 
energy

$$$$
69:0
     RDKit          3D

 43 45  0  0  0  0  0  0  0  0999 V2000
   61.8470   31.8620   48.5210 C   0  0  0  0  0  0  0  0  0  0  0  0
   60.7660   32.4340   47.6880 N   0  0  0  0  0  0  0  0  0  0  0  0
   60.6740   33.7930   47.5370 C   0  0  0  0  0  0  0  0  0  0  0  0
   61.5090   34.5620   48.0930 O   0  0  0  0  0  0  0  0  0  0  0  0
   59.6550   34.3550   46.7640 C   0  0  0  0  0  0  0  0  0  0  0  0
   59.6060   35.6130   46.6420 O   0  0  0  0  0  0  0  0  0  0  0  0
   58.7240   33.5570   46.1480 N   0  0  0  0  0  0  0  0  0  0  0  0
   57.6370   34.1770   45.3610 C   0  0  0  0  0  0  0  0  0  0  0  0
   58.8190   32.1870   46.2640 C   0  0  0  0  0  0  0  0  0  0  0  0
   57.9030   31.3240   45.6130 C   0  0  0  0  0  0  0  0  0  0  0  0
   58.0020   29.9370   45.7330 C   0  0  0  0  0  0  0  0  0  0  0  0
   56.8130   28.9040   44.9420 S   0  0  0  0  0  0  0  0  0  0  0  0
   57.2490   28.5620   43.5440 O   0  0  0  0  0  0  0  0  0  0  0  0
   55.5010   29.6320   44.8830 O   0  0  0  0  0  0  0  0  0  0  0  0
   56.6150   27.4390   45.8480 N   0  0  0  0  0  0  0  0  0  0  0  0
   56.6540   26.1170   45.2950 C   0  0  0  0  0  0  0  0  0  0  0  0
   57.6830   25.6960   44.4360 C   0  0  0  0  0  0  0  0  0  0  0  0
   57.6970   24.3900   43.9410 C   0  0  0  0  0  0  0  0  0  0  0  0
   56.6850   23.4900   44.2920 C   0  0  0  0  0  0  0  0  0  0  0  0
   56.7270   21.8430   43.6680 S   0  0  0  0  0  0  0  0  0  0  0  0
   58.3540   21.2560   43.6710 N   0  0  0  0  0  0  0  0  0  0  0  0
   56.1890   21.8300   42.2650 O   0  0  0  0  0  0  0  0  0  0  0  0
   55.8830   20.9400   44.5240 O   0  0  0  0  0  0  0  0  0  0  0  0
   55.6500   23.9100   45.1400 C   0  0  0  0  0  0  0  0  0  0  0  0
   55.6360   25.2160   45.6350 C   0  0  0  0  0  0  0  0  0  0  0  0
   59.0290   29.3810   46.4920 C   0  0  0  0  0  0  0  0  0  0  0  0
   59.9460   30.2030   47.1420 C   0  0  0  0  0  0  0  0  0  0  0  0
   59.8620   31.6130   47.0470 C   0  0  0  0  0  0  0  0  0  0  0  0
   61.5988   31.9933   49.5846 H   0  0  0  0  0  0  0  0  0  0  0  0
   61.9528   30.7899   48.2988 H   0  0  0  0  0  0  0  0  0  0  0  0
   62.7929   32.3776   48.2988 H   0  0  0  0  0  0  0  0  0  0  0  0
   56.8878   34.6043   46.0437 H   0  0  0  0  0  0  0  0  0  0  0  0
   58.0522   34.9742   44.7268 H   0  0  0  0  0  0  0  0  0  0  0  0
   57.1622   33.4138   44.7268 H   0  0  0  0  0  0  0  0  0  0  0  0
   57.0976   31.7559   45.0007 H   0  0  0  0  0  0  0  0  0  0  0  0
   58.4810   26.3979   44.1521 H   0  0  0  0  0  0  0  0  0  0  0  0
   58.5081   24.0673   43.2716 H   0  0  0  0  0  0  0  0  0  0  0  0
   58.5040   20.7650   44.5800 H   0  0  0  0  0  0  0  0  0  0  0  0
   58.4190   20.5320   42.9200 H   0  0  0  0  0  0  0  0  0  0  0  0
   54.8478   23.2097   45.4158 H   0  0  0  0  0  0  0  0  0  0  0  0
   54.8194   25.5399   46.2970 H   0  0  0  0  0  0  0  0  0  0  0  0
   59.1161   28.2879   46.5783 H   0  0  0  0  0  0  0  0  0  0  0  0
   60.7499   29.7487   47.7398 H   0  0  0  0  0  0  0  0  0  0  0  0
  1  2  1  0
  2  3  1  0
  3  4  2  0
  3  5  1  0
  5  6  2  0
  5  7  1  0
  7  8  1  0
  7  9  1  0
  9 10  2  0
 10 11  1  0
 11 12  1  0
 12 13  2  0
 12 14  2  0
 12 15  1  0
 15 16  1  0
 16 17  2  0
 17 18  1  0
 18 19  2  0
 19 20  1  0
 20 21  1  0
 20 22  2  0
 20 23  2  0
 19 24  1  0
 24 25  2  0
 11 26  2  0
 26 27  1  0
 27 28  2  0
 28  2  1  0
 28  9  1  0
 25 16  1  0
  1 29  1  0
  1 30  1  0
  1 31  1  0
  8 32  1  0
  8 33  1  0
  8 34  1  0
 10 35  1  0
 17 36  1  0
 18 37  1  0
 21 38  1  0
 21 39  1  0
 24 40  1  0
 25 41  1  0
 26 42  1  0
 27 43  1  0
M  CHG  1  15  -1
M  END
>  <UniqueID>  (70) 
64

>  <SMILES>  (70) 
Cn1c(=O)c(=O)n(C)c2cc(S(=O)(=O)[N-]c3ccc(S(N)(=O)=O)cc3)ccc21

>  <Energy>  (70) 
64.26255158272862

>  <Genealogy>  (70) 
Cn1c(=O)c(=O)n(C)c2cc(S(=O)(=O)[N-]c3ccc(S(N)(=O)=O)cc3)ccc21 (protonated)
Cn1c(=O)c(=O)n(C)c2cc(S(=O)(=O)[N-]c3ccc(S(N)(=O)=O)cc3)ccc21 (3D coordinates assigned)
Cn1c(=O)c(=O)n(C)c2cc(S(=O)(=O)[N-]c3ccc(S(N)(=O)=O)cc3)ccc21 (optimized conformer: 64.26255158272862 kcal/mol)

>  <smiles>  (70) 
Cn1c(=O)c(=O)n(C)c2cc(S(=O)(=O)Nc3ccc(S(N)(=O)=O)cc3)ccc21

>  <score_type>  (70) 
oracle

>  <origin>  (70) 
adg

>  <m_score__min__energy>  (70) 
-10.960000000000001

>  <m_primary>  (70) 
energy

$$$$
70:0
     RDKit          3D

 40 42  0  0  0  0  0  0  0  0999 V2000
   60.1840   27.6990   49.0430 O   0  0  0  0  0  0  0  0  0  0  0  0
   59.4090   28.4720   48.4210 C   0  0  0  0  0  0  0  0  0  0  0  0
   58.6170   29.4000   49.1770 N   0  0  0  0  0  0  0  0  0  0  0  0
   58.9060   30.7880   49.4170 C   0  0  0  0  0  0  0  0  0  0  0  0
   59.2840   31.1680   50.7110 C   0  0  0  0  0  0  0  0  0  0  0  0
   59.6690   32.4840   50.9810 C   0  0  0  0  0  0  0  0  0  0  0  0
   59.6660   33.4340   49.9590 C   0  0  0  0  0  0  0  0  0  0  0  0
   59.2500   33.0790   48.6750 C   0  0  0  0  0  0  0  0  0  0  0  0
   58.8400   31.7690   48.4000 C   0  0  0  0  0  0  0  0  0  0  0  0
   58.3330   31.4740   47.0980 N   0  0  0  0  0  0  0  0  0  0  0  0
   58.0870   32.7040   45.9040 S   0  0  0  0  0  0  0  0  0  0  0  0
   57.0220   33.6620   46.3600 O   0  0  0  0  0  0  0  0  0  0  0  0
   59.3680   33.4580   45.6810 O   0  0  0  0  0  0  0  0  0  0  0  0
   57.5810   31.9520   44.4060 C   0  0  0  0  0  0  0  0  0  0  0  0
   57.8990   32.4020   43.1340 C   0  0  0  0  0  0  0  0  0  0  0  0
   57.3790   31.5860   42.1230 C   0  0  0  0  0  0  0  0  0  0  0  0
   56.6570   30.4990   42.6000 C   0  0  0  0  0  0  0  0  0  0  0  0
   56.6640   30.5510   44.2830 S   0  0  0  0  0  0  0  0  0  0  0  0
   59.3580   28.3990   46.9390 C   0  0  0  0  0  0  0  0  0  0  0  0
   60.3020   29.1270   46.1940 C   0  0  0  0  0  0  0  0  0  0  0  0
   60.3270   29.0410   44.8020 C   0  0  0  0  0  0  0  0  0  0  0  0
   59.3980   28.2440   44.1360 C   0  0  0  0  0  0  0  0  0  0  0  0
   58.4260   27.5480   44.8570 C   0  0  0  0  0  0  0  0  0  0  0  0
   58.3820   27.6320   46.2630 C   0  0  0  0  0  0  0  0  0  0  0  0
   57.3760   26.9990   47.0090 O   0  0  0  0  0  0  0  0  0  0  0  0
   56.2420   25.8850   46.3780 S   0  0  0  0  0  0  0  0  0  0  0  0
   56.8050   25.2650   45.1310 O   0  0  0  0  0  0  0  0  0  0  0  0
   55.9700   24.8060   47.3870 O   0  0  0  0  0  0  0  0  0  0  0  0
   54.8130   26.6820   46.0010 O   0  0  0  0  0  0  0  0  0  0  0  0
   59.2778   30.4244   51.5215 H   0  0  0  0  0  0  0  0  0  0  0  0
   59.9741   32.7707   51.9982 H   0  0  0  0  0  0  0  0  0  0  0  0
   59.9920   34.4641   50.1656 H   0  0  0  0  0  0  0  0  0  0  0  0
   59.2442   33.8331   47.8742 H   0  0  0  0  0  0  0  0  0  0  0  0
   58.4967   33.3048   42.9399 H   0  0  0  0  0  0  0  0  0  0  0  0
   57.5278   31.7863   41.0517 H   0  0  0  0  0  0  0  0  0  0  0  0
   56.1641   29.7337   41.9825 H   0  0  0  0  0  0  0  0  0  0  0  0
   61.0275   29.7703   46.7135 H   0  0  0  0  0  0  0  0  0  0  0  0
   61.0803   29.6025   44.2298 H   0  0  0  0  0  0  0  0  0  0  0  0
   59.4306   28.1630   43.0395 H   0  0  0  0  0  0  0  0  0  0  0  0
   57.6891   26.9295   44.3237 H   0  0  0  0  0  0  0  0  0  0  0  0
  1  2  2  0
  2  3  1  0
  3  4  1  0
  4  5  2  0
  5  6  1  0
  6  7  2  0
  7  8  1  0
  8  9  2  0
  9 10  1  0
 10 11  1  0
 11 12  2  0
 11 13  2  0
 11 14  1  0
 14 15  2  0
 15 16  1  0
 16 17  2  0
 17 18  1  0
  2 19  1  0
 19 20  2  0
 20 21  1  0
 21 22  2  0
 22 23  1  0
 23 24  2  0
 24 25  1  0
 25 26  1  0
 26 27  2  0
 26 28  2  0
 26 29  1  0
  9  4  1  0
 18 14  1  0
 24 19  1  0
  5 30  1  0
  6 31  1  0
  7 32  1  0
  8 33  1  0
 15 34  1  0
 16 35  1  0
 17 36  1  0
 20 37  1  0
 21 38  1  0
 22 39  1  0
 23 40  1  0
M  CHG  3   3  -1  10  -1  29  -1
M  END
>  <UniqueID>  (71) 
65

>  <SMILES>  (71) 
O=C([N-]c1ccccc1[N-]S(=O)(=O)c1cccs1)c1ccccc1OS(=O)(=O)[O-]

>  <Energy>  (71) 
83.73923561127074

>  <Genealogy>  (71) 
O=C([N-]c1ccccc1[N-]S(=O)(=O)c1cccs1)c1ccccc1OS(=O)(=O)[O-] (protonated)
O=C([N-]c1ccccc1[N-]S(=O)(=O)c1cccs1)c1ccccc1OS(=O)(=O)[O-] (3D coordinates assigned)
O=C([N-]c1ccccc1[N-]S(=O)(=O)c1cccs1)c1ccccc1OS(=O)(=O)[O-] (optimized conformer: 83.73923561127074 kcal/mol)

>  <smiles>  (71) 
O=C(Nc1ccccc1NS(=O)(=O)c1cccs1)c1ccccc1OS(=O)(=O)O

>  <score_type>  (71) 
oracle

>  <origin>  (71) 
adg

>  <m_score__min__energy>  (71) 
-14.449999999999999

>  <m_primary>  (71) 
energy

$$$$
71:0
     RDKit          3D

 36 38  0  0  0  0  0  0  0  0999 V2000
   59.9980   36.6380   45.5740 C   0  0  0  0  0  0  0  0  0  0  0  0
   59.6490   35.6810   46.5690 O   0  0  0  0  0  0  0  0  0  0  0  0
   59.0820   34.4270   46.2980 C   0  0  0  0  0  0  0  0  0  0  0  0
   59.5360   33.3200   47.0210 C   0  0  0  0  0  0  0  0  0  0  0  0
   59.0030   32.0500   46.7890 C   0  0  0  0  0  0  0  0  0  0  0  0
   58.0000   31.8610   45.8220 C   0  0  0  0  0  0  0  0  0  0  0  0
   57.4440   30.5050   45.5880 C   0  0  0  0  0  0  0  0  0  0  0  0
   57.9730   29.3000   46.0150 C   0  0  0  0  0  0  0  0  0  0  0  0
   57.0840   28.3490   45.5460 C   0  0  0  0  0  0  0  0  0  0  0  0
   57.1800   26.8750   45.7260 C   0  0  0  0  0  0  0  0  0  0  0  0
   58.4300   26.2350   45.6530 C   0  0  0  0  0  0  0  0  0  0  0  0
   58.5330   24.8520   45.8130 C   0  0  0  0  0  0  0  0  0  0  0  0
   57.3930   24.0850   46.0470 C   0  0  0  0  0  0  0  0  0  0  0  0
   56.1300   24.6990   46.1250 C   0  0  0  0  0  0  0  0  0  0  0  0
   54.9570   23.9650   46.3610 O   0  0  0  0  0  0  0  0  0  0  0  0
   54.7910   23.0320   47.4230 C   0  0  0  0  0  0  0  0  0  0  0  0
   56.0270   26.0900   45.9640 C   0  0  0  0  0  0  0  0  0  0  0  0
   54.7710   26.6810   46.0570 O   0  0  0  0  0  0  0  0  0  0  0  0
   56.0890   28.9670   44.8790 N   0  0  0  0  0  0  0  0  0  0  0  0
   56.3070   30.2720   44.9040 N   0  0  0  0  0  0  0  0  0  0  0  0
   57.5430   32.9750   45.0940 C   0  0  0  0  0  0  0  0  0  0  0  0
   58.0770   34.2470   45.3290 C   0  0  0  0  0  0  0  0  0  0  0  0
   60.3361   37.5652   46.0597 H   0  0  0  0  0  0  0  0  0  0  0  0
   60.8075   36.2363   44.9468 H   0  0  0  0  0  0  0  0  0  0  0  0
   59.1199   36.8517   44.9468 H   0  0  0  0  0  0  0  0  0  0  0  0
   60.3210   33.4505   47.7804 H   0  0  0  0  0  0  0  0  0  0  0  0
   59.3712   31.1901   47.3679 H   0  0  0  0  0  0  0  0  0  0  0  0
   58.8924   29.1352   46.5960 H   0  0  0  0  0  0  0  0  0  0  0  0
   59.3362   26.8304   45.4679 H   0  0  0  0  0  0  0  0  0  0  0  0
   59.5179   24.3656   45.7542 H   0  0  0  0  0  0  0  0  0  0  0  0
   57.4814   22.9956   46.1711 H   0  0  0  0  0  0  0  0  0  0  0  0
   54.8838   23.5535   48.3871 H   0  0  0  0  0  0  0  0  0  0  0  0
   53.7962   22.5681   47.3513 H   0  0  0  0  0  0  0  0  0  0  0  0
   55.5647   22.2534   47.3513 H   0  0  0  0  0  0  0  0  0  0  0  0
   56.7590   32.8449   44.3334 H   0  0  0  0  0  0  0  0  0  0  0  0
   57.7098   35.1099   44.7540 H   0  0  0  0  0  0  0  0  0  0  0  0
  1  2  1  0
  2  3  1  0
  3  4  2  0
  4  5  1  0
  5  6  2  0
  6  7  1  0
  7  8  2  0
  8  9  1  0
  9 10  1  0
 10 11  2  0
 11 12  1  0
 12 13  2  0
 13 14  1  0
 14 15  1  0
 15 16  1  0
 14 17  2  0
 17 18  1  0
  9 19  2  0
 19 20  1  0
  6 21  1  0
 21 22  2  0
 22  3  1  0
 20  7  1  0
 17 10  1  0
  1 23  1  0
  1 24  1  0
  1 25  1  0
  4 26  1  0
  5 27  1  0
  8 28  1  0
 11 29  1  0
 12 30  1  0
 13 31  1  0
 16 32  1  0
 16 33  1  0
 16 34  1  0
 21 35  1  0
 22 36  1  0
M  CHG  2  18  -1  20  -1
M  END
>  <UniqueID>  (72) 
66

>  <SMILES>  (72) 
COc1ccc(-c2cc(-c3cccc(OC)c3[O-])n[n-]2)cc1

>  <Energy>  (72) 
71.79602281541476

>  <Genealogy>  (72) 
COc1ccc(-c2cc(-c3cccc(OC)c3[O-])n[n-]2)cc1 (protonated)
COc1ccc(-c2cc(-c3cccc(OC)c3[O-])n[n-]2)cc1 (3D coordinates assigned)
COc1ccc(-c2cc(-c3cccc(OC)c3[O-])n[n-]2)cc1 (optimized conformer: 71.79602281541476 kcal/mol)

>  <smiles>  (72) 
COc1ccc(-c2cc(-c3cccc(OC)c3O)n[nH]2)cc1

>  <score_type>  (72) 
oracle

>  <origin>  (72) 
adg

>  <m_score__min__energy>  (72) 
-12.890000000000001

>  <m_primary>  (72) 
energy

$$$$
72:0
     RDKit          3D

 60 63  0  0  0  0  0  0  0  0999 V2000
   56.6220   23.5980   47.2610 H   0  0  0  0  0  0  0  0  0  0  0  0
   56.9780   22.6750   47.1630 O   0  0  0  0  0  0  0  0  0  0  0  0
   57.1490   22.4130   45.7890 C   0  0  2  0  0  0  0  0  0  0  0  0
   57.9420   21.1010   45.6240 C   0  0  0  0  0  0  0  0  0  0  0  0
   58.1880   20.6940   46.6159 H   0  0  0  0  0  0  0  0  0  0  0  0
   57.3332   20.3719   45.0692 H   0  0  0  0  0  0  0  0  0  0  0  0
   58.8705   21.3011   45.0692 H   0  0  0  0  0  0  0  0  0  0  0  0
   57.9100   23.5920   45.1010 C   0  0  0  0  0  0  0  0  0  0  0  0
   58.5295   24.0925   45.8597 H   0  0  0  0  0  0  0  0  0  0  0  0
   58.5060   23.1525   44.2876 H   0  0  0  0  0  0  0  0  0  0  0  0
   56.9880   24.6470   44.4560 C   0  0  0  0  0  0  0  0  0  0  0  0
   57.5188   25.6101   44.4290 H   0  0  0  0  0  0  0  0  0  0  0  0
   56.7349   24.2962   43.4446 H   0  0  0  0  0  0  0  0  0  0  0  0
   55.6700   24.8310   45.2310 C   0  0  2  0  0  0  0  0  0  0  0  0
   55.0659   25.5747   44.6906 H   0  0  0  0  0  0  0  0  0  0  0  0
   55.9330   25.3190   46.5880 N   0  0  0  0  0  0  0  0  0  0  0  0
   57.1810   25.7630   47.1410 C   0  0  0  0  0  0  0  0  0  0  0  0
   57.7970   24.9850   47.9160 O   0  0  0  0  0  0  0  0  0  0  0  0
   57.7730   27.0870   46.8520 C   0  0  0  0  0  0  0  0  0  0  0  0
   58.6520   27.7320   47.6440 N   0  0  0  0  0  0  0  0  0  0  0  0
   58.9680   28.8810   47.0660 N   0  0  0  0  0  0  0  0  0  0  0  0
   60.0430   29.6940   47.5620 C   0  0  0  0  0  0  0  0  0  0  0  0
   60.8200   30.4440   46.6670 C   0  0  0  0  0  0  0  0  0  0  0  0
   60.6200   30.3883   45.5868 H   0  0  0  0  0  0  0  0  0  0  0  0
   61.8490   31.2630   47.1450 C   0  0  0  0  0  0  0  0  0  0  0  0
   62.4656   31.8389   46.4393 H   0  0  0  0  0  0  0  0  0  0  0  0
   62.0940   31.3500   48.5180 C   0  0  0  0  0  0  0  0  0  0  0  0
   62.9099   31.9863   48.8915 H   0  0  0  0  0  0  0  0  0  0  0  0
   61.3030   30.6290   49.4170 C   0  0  0  0  0  0  0  0  0  0  0  0
   61.4920   30.7038   50.4981 H   0  0  0  0  0  0  0  0  0  0  0  0
   60.2720   29.8130   48.9430 C   0  0  0  0  0  0  0  0  0  0  0  0
   59.6379   29.2623   49.6534 H   0  0  0  0  0  0  0  0  0  0  0  0
   58.2880   28.9730   45.8950 C   0  0  0  0  0  0  0  0  0  0  0  0
   58.2730   29.9810   45.0680 N   0  0  0  0  0  0  0  0  0  0  0  0
   57.4790   31.1720   45.1480 C   0  0  0  0  0  0  0  0  0  0  0  0
   56.2570   31.1280   44.8380 O   0  0  0  0  0  0  0  0  0  0  0  0
   58.1040   32.4640   45.5140 C   0  0  0  0  0  0  0  0  0  0  0  0
   58.4480   33.3950   44.5200 C   0  0  0  0  0  0  0  0  0  0  0  0
   58.2447   33.1670   43.4633 H   0  0  0  0  0  0  0  0  0  0  0  0
   59.0470   34.6090   44.8660 C   0  0  0  0  0  0  0  0  0  0  0  0
   59.3121   35.3329   44.0813 H   0  0  0  0  0  0  0  0  0  0  0  0
   59.3100   34.9060   46.2040 C   0  0  0  0  0  0  0  0  0  0  0  0
   59.7791   35.8653   46.4679 H   0  0  0  0  0  0  0  0  0  0  0  0
   58.9810   33.9910   47.2150 C   0  0  0  0  0  0  0  0  0  0  0  0
   59.2710   34.3250   48.5860 N   0  0  0  0  0  0  0  0  0  0  0  0
   59.3350   35.3330   48.8570 H   0  0  0  0  0  0  0  0  0  0  0  0
   59.4980   33.3300   49.6290 C   0  0  0  0  0  0  0  0  0  0  0  0
   59.3902   33.8027   50.6164 H   0  0  0  0  0  0  0  0  0  0  0  0
   58.7618   32.5189   49.5284 H   0  0  0  0  0  0  0  0  0  0  0  0
   60.5131   32.9184   49.5284 H   0  0  0  0  0  0  0  0  0  0  0  0
   58.3770   32.7690   46.8620 C   0  0  0  0  0  0  0  0  0  0  0  0
   58.1155   32.0446   47.6474 H   0  0  0  0  0  0  0  0  0  0  0  0
   57.5410   27.8320   45.7090 C   0  0  0  0  0  0  0  0  0  0  0  0
   56.9057   27.5720   44.8495 H   0  0  0  0  0  0  0  0  0  0  0  0
   54.8780   23.5030   45.3020 C   0  0  0  0  0  0  0  0  0  0  0  0
   54.3643   23.4590   46.2737 H   0  0  0  0  0  0  0  0  0  0  0  0
   54.1805   23.5047   44.4514 H   0  0  0  0  0  0  0  0  0  0  0  0
   55.7510   22.2380   45.1580 C   0  0  0  0  0  0  0  0  0  0  0  0
   55.2418   21.3989   45.6546 H   0  0  0  0  0  0  0  0  0  0  0  0
   55.8894   22.0465   44.0837 H   0  0  0  0  0  0  0  0  0  0  0  0
  1  2  1  0
  3  2  1  6
  3  4  1  0
  4  5  1  0
  4  6  1  0
  4  7  1  0
  3  8  1  0
  8  9  1  0
  8 10  1  0
  8 11  1  0
 11 12  1  0
 11 13  1  0
 11 14  1  0
 14 15  1  1
 14 16  1  0
 16 17  1  0
 17 18  2  0
 17 19  1  0
 19 20  1  0
 20 21  1  0
 21 22  1  0
 22 23  2  0
 23 24  1  0
 23 25  1  0
 25 26  1  0
 25 27  2  0
 27 28  1  0
 27 29  1  0
 29 30  1  0
 29 31  2  0
 31 32  1  0
 21 33  1  0
 33 34  2  0
 34 35  1  0
 35 36  2  0
 35 37  1  0
 37 38  2  0
 38 39  1  0
 38 40  1  0
 40 41  1  0
 40 42  2  0
 42 43  1  0
 42 44  1  0
 44 45  1  0
 45 46  1  0
 45 47  1  0
 47 48  1  0
 47 49  1  0
 47 50  1  0
 44 51  2  0
 51 52  1  0
 33 53  1  0
 53 54  1  0
 14 55  1  0
 55 56  1  0
 55 57  1  0
 55 58  1  0
 58 59  1  0
 58 60  1  0
 58  3  1  0
 53 19  2  0
 31 22  1  0
 51 37  1  0
M  CHG  2  16  -1  20  -1
M  END
>  <UniqueID>  (73) 
67

>  <SMILES>  (73) 
CNc1cccc(C(=O)/N=c2/cc(C(=O)[N-]C3CCC(C)(O)CC3)[n-]n2-c2ccccc2)c1

>  <Energy>  (73) 
112.94686061966205

>  <Genealogy>  (73) 
CNc1cccc(C(=O)N=c2cc(C(=O)[N-]C3CCC(C)(O)CC3)[n-]n2-c2ccccc2)c1 (protonated)
CNc1cccc(C(=O)/N=c2/cc(C(=O)[N-]C3CCC(C)(O)CC3)[n-]n2-c2ccccc2)c1 (cis-trans isomerization)
CNc1cccc(C(=O)/N=c2/cc(C(=O)[N-]C3CCC(C)(O)CC3)[n-]n2-c2ccccc2)c1 (3D coordinates assigned)
CNc1cccc(C(=O)/N=c2/cc(C(=O)[N-]C3CCC(C)(O)CC3)[n-]n2-c2ccccc2)c1 (nonaromatic ring conformer: 112.94686061966205 kcal/mol)

>  <smiles>  (73) 
CNc1cccc(C(=O)N=c2cc(C(=O)NC3CCC(C)(O)CC3)[nH]n2-c2ccccc2)c1

>  <score_type>  (73) 
oracle

>  <origin>  (73) 
adg

>  <m_score__min__energy>  (73) 
-12.41

>  <m_primary>  (73) 
energy

$$$$
73:0
     RDKit          3D

 49 51  0  0  0  0  0  0  0  0999 V2000
   60.7520   29.0350   50.9080 C   0  0  0  0  0  0  0  0  0  0  0  0
   60.1130   30.3080   50.4400 C   0  0  0  0  0  0  0  0  0  0  0  0
   58.7550   30.5500   50.6890 C   0  0  0  0  0  0  0  0  0  0  0  0
   58.1540   31.7230   50.2280 C   0  0  0  0  0  0  0  0  0  0  0  0
   58.8990   32.6560   49.5020 C   0  0  0  0  0  0  0  0  0  0  0  0
   60.2560   32.4200   49.2190 C   0  0  0  0  0  0  0  0  0  0  0  0
   61.0250   33.3850   48.4730 N   0  0  0  0  0  0  0  0  0  0  0  0
   62.2310   33.9750   49.0520 C   0  0  0  0  0  0  0  0  0  0  0  0
   60.5790   33.8240   46.8480 S   0  0  0  0  0  0  0  0  0  0  0  0
   61.8190   33.8380   45.9970 O   0  0  0  0  0  0  0  0  0  0  0  0
   59.9700   35.1980   46.8310 O   0  0  0  0  0  0  0  0  0  0  0  0
   59.4310   32.6620   46.1930 C   0  0  0  0  0  0  0  0  0  0  0  0
   58.2170   33.0890   45.6380 C   0  0  0  0  0  0  0  0  0  0  0  0
   57.2940   32.1540   45.1630 C   0  0  0  0  0  0  0  0  0  0  0  0
   57.5710   30.7830   45.2490 C   0  0  0  0  0  0  0  0  0  0  0  0
   56.5670   29.7860   44.8360 C   0  0  0  0  0  0  0  0  0  0  0  0
   55.4200   30.1770   44.4920 O   0  0  0  0  0  0  0  0  0  0  0  0
   56.8760   28.3870   44.7560 N   0  0  0  0  0  0  0  0  0  0  0  0
   56.7800   27.4240   45.8540 C   0  0  0  0  0  0  0  0  0  0  0  0
   58.1350   27.1460   46.4540 C   0  0  0  0  0  0  0  0  0  0  0  0
   58.5320   27.7770   47.6470 C   0  0  0  0  0  0  0  0  0  0  0  0
   59.8050   27.5490   48.1750 C   0  0  0  0  0  0  0  0  0  0  0  0
   60.6860   26.6790   47.5290 C   0  0  0  0  0  0  0  0  0  0  0  0
   60.2930   26.0330   46.3530 C   0  0  0  0  0  0  0  0  0  0  0  0
   59.0230   26.2620   45.8170 C   0  0  0  0  0  0  0  0  0  0  0  0
   58.8020   30.3580   45.7670 C   0  0  0  0  0  0  0  0  0  0  0  0
   59.7260   31.2930   46.2400 C   0  0  0  0  0  0  0  0  0  0  0  0
   60.8550   31.2380   49.6930 C   0  0  0  0  0  0  0  0  0  0  0  0
   60.7630   29.0130   52.0077 H   0  0  0  0  0  0  0  0  0  0  0  0
   60.1782   28.1761   50.5298 H   0  0  0  0  0  0  0  0  0  0  0  0
   61.7836   28.9819   50.5298 H   0  0  0  0  0  0  0  0  0  0  0  0
   58.1607   29.8133   51.2495 H   0  0  0  0  0  0  0  0  0  0  0  0
   57.0909   31.9132   50.4370 H   0  0  0  0  0  0  0  0  0  0  0  0
   58.4205   33.5816   49.1494 H   0  0  0  0  0  0  0  0  0  0  0  0
   62.1645   33.9425   50.1495 H   0  0  0  0  0  0  0  0  0  0  0  0
   63.1126   33.4064   48.7210 H   0  0  0  0  0  0  0  0  0  0  0  0
   62.3232   35.0200   48.7210 H   0  0  0  0  0  0  0  0  0  0  0  0
   57.9902   34.1636   45.5762 H   0  0  0  0  0  0  0  0  0  0  0  0
   56.3467   32.4951   44.7200 H   0  0  0  0  0  0  0  0  0  0  0  0
   56.1194   27.8324   46.6330 H   0  0  0  0  0  0  0  0  0  0  0  0
   56.3743   26.4817   45.4571 H   0  0  0  0  0  0  0  0  0  0  0  0
   57.8368   28.4530   48.1664 H   0  0  0  0  0  0  0  0  0  0  0  0
   60.1141   28.0556   49.1012 H   0  0  0  0  0  0  0  0  0  0  0  0
   61.6887   26.5021   47.9452 H   0  0  0  0  0  0  0  0  0  0  0  0
   60.9852   25.3428   45.8485 H   0  0  0  0  0  0  0  0  0  0  0  0
   58.7171   25.7487   44.8934 H   0  0  0  0  0  0  0  0  0  0  0  0
   59.0414   29.2849   45.8012 H   0  0  0  0  0  0  0  0  0  0  0  0
   60.6883   30.9534   46.6507 H   0  0  0  0  0  0  0  0  0  0  0  0
   61.9152   31.0403   49.4763 H   0  0  0  0  0  0  0  0  0  0  0  0
  1  2  1  0
  2  3  2  0
  3  4  1  0
  4  5  2  0
  5  6  1  0
  6  7  1  0
  7  8  1  0
  7  9  1  0
  9 10  2  0
  9 11  2  0
  9 12  1  0
 12 13  2  0
 13 14  1  0
 14 15  2  0
 15 16  1  0
 16 17  2  0
 16 18  1  0
 18 19  1  0
 19 20  1  0
 20 21  2  0
 21 22  1  0
 22 23  2  0
 23 24  1  0
 24 25  2  0
 15 26  1  0
 26 27  2  0
  6 28  2  0
 28  2  1  0
 27 12  1  0
 25 20  1  0
  1 29  1  0
  1 30  1  0
  1 31  1  0
  3 32  1  0
  4 33  1  0
  5 34  1  0
  8 35  1  0
  8 36  1  0
  8 37  1  0
 13 38  1  0
 14 39  1  0
 19 40  1  0
 19 41  1  0
 21 42  1  0
 22 43  1  0
 23 44  1  0
 24 45  1  0
 25 46  1  0
 26 47  1  0
 27 48  1  0
 28 49  1  0
M  CHG  1  18  -1
M  END
>  <UniqueID>  (74) 
68

>  <SMILES>  (74) 
Cc1cccc(N(C)S(=O)(=O)c2ccc(C(=O)[N-]Cc3ccccc3)cc2)c1

>  <Energy>  (74) 
56.16878629239192

>  <Genealogy>  (74) 
Cc1cccc(N(C)S(=O)(=O)c2ccc(C(=O)[N-]Cc3ccccc3)cc2)c1 (protonated)
Cc1cccc(N(C)S(=O)(=O)c2ccc(C(=O)[N-]Cc3ccccc3)cc2)c1 (3D coordinates assigned)
Cc1cccc(N(C)S(=O)(=O)c2ccc(C(=O)[N-]Cc3ccccc3)cc2)c1 (optimized conformer: 56.16878629239192 kcal/mol)

>  <smiles>  (74) 
Cc1cccc(N(C)S(=O)(=O)c2ccc(C(=O)NCc3ccccc3)cc2)c1

>  <score_type>  (74) 
oracle

>  <origin>  (74) 
adg

>  <m_score__min__energy>  (74) 
-10.51

>  <m_primary>  (74) 
energy

$$$$
74:0
     RDKit          3D

 40 43  0  0  0  0  0  0  0  0999 V2000
   56.1680   26.9970   45.8230 O   0  0  0  0  0  0  0  0  0  0  0  0
   56.5520   28.1350   45.4420 C   0  0  0  0  0  0  0  0  0  0  0  0
   55.5740   29.0220   44.8780 N   0  0  0  0  0  0  0  0  0  0  0  0
   55.6440   29.7230   43.5970 C   0  0  0  0  0  0  0  0  0  0  0  0
   56.6530   30.8440   43.6210 C   0  0  0  0  0  0  0  0  0  0  0  0
   57.2470   31.2690   42.4200 C   0  0  0  0  0  0  0  0  0  0  0  0
   58.1430   32.3410   42.4130 C   0  0  0  0  0  0  0  0  0  0  0  0
   58.4470   33.0070   43.6030 C   0  0  0  0  0  0  0  0  0  0  0  0
   57.8470   32.6060   44.8010 C   0  0  0  0  0  0  0  0  0  0  0  0
   58.2240   33.4480   46.2930 Cl  0  0  0  0  0  0  0  0  0  0  0  0
   56.9440   31.5380   44.8090 C   0  0  0  0  0  0  0  0  0  0  0  0
   57.9810   28.4880   45.5880 C   0  0  0  0  0  0  0  0  0  0  0  0
   58.9240   28.2440   44.5880 C   0  0  0  0  0  0  0  0  0  0  0  0
   60.4310   28.7250   45.1620 S   0  0  0  0  0  0  0  0  0  0  0  0
   59.8240   29.2270   46.6460 C   0  0  0  0  0  0  0  0  0  0  0  0
   60.6530   29.7100   47.7910 C   0  0  0  0  0  0  0  0  0  0  0  0
   59.7900   30.4350   48.7870 C   0  0  0  0  0  0  0  0  0  0  0  0
   59.7560   31.8540   48.7980 C   0  0  0  0  0  0  0  0  0  0  0  0
   58.9440   32.5450   49.7150 C   0  0  0  0  0  0  0  0  0  0  0  0
   58.1770   31.7900   50.5970 C   0  0  0  0  0  0  0  0  0  0  0  0
   58.1960   30.4340   50.5880 C   0  0  0  0  0  0  0  0  0  0  0  0
   58.9870   29.7120   49.6980 C   0  0  0  0  0  0  0  0  0  0  0  0
   57.3400   29.9550   51.5600 O   0  0  0  0  0  0  0  0  0  0  0  0
   56.7460   31.0810   52.2220 C   0  0  0  0  0  0  0  0  0  0  0  0
   57.3080   32.2320   51.5760 O   0  0  0  0  0  0  0  0  0  0  0  0
   58.4940   29.0210   46.7290 N   0  0  0  0  0  0  0  0  0  0  0  0
   55.9295   29.0048   42.8142 H   0  0  0  0  0  0  0  0  0  0  0  0
   54.6551   30.1601   43.3943 H   0  0  0  0  0  0  0  0  0  0  0  0
   57.0046   30.7538   41.4788 H   0  0  0  0  0  0  0  0  0  0  0  0
   58.6096   32.6610   41.4696 H   0  0  0  0  0  0  0  0  0  0  0  0
   59.1579   33.8464   43.5977 H   0  0  0  0  0  0  0  0  0  0  0  0
   56.4587   31.2392   45.7498 H   0  0  0  0  0  0  0  0  0  0  0  0
   58.7179   27.8125   43.5974 H   0  0  0  0  0  0  0  0  0  0  0  0
   61.1306   28.8495   48.2823 H   0  0  0  0  0  0  0  0  0  0  0  0
   61.4214   30.4000   47.4122 H   0  0  0  0  0  0  0  0  0  0  0  0
   60.3710   32.4189   48.0820 H   0  0  0  0  0  0  0  0  0  0  0  0
   58.9162   33.6445   49.7344 H   0  0  0  0  0  0  0  0  0  0  0  0
   58.9869   28.6120   49.7038 H   0  0  0  0  0  0  0  0  0  0  0  0
   55.6526   31.0665   52.1030 H   0  0  0  0  0  0  0  0  0  0  0  0
   56.9457   31.0763   53.3037 H   0  0  0  0  0  0  0  0  0  0  0  0
  1  2  2  0
  2  3  1  0
  3  4  1  0
  4  5  1  0
  5  6  2  0
  6  7  1  0
  7  8  2  0
  8  9  1  0
  9 10  1  0
  9 11  2  0
  2 12  1  0
 12 13  2  0
 13 14  1  0
 14 15  1  0
 15 16  1  0
 16 17  1  0
 17 18  2  0
 18 19  1  0
 19 20  2  0
 20 21  1  0
 21 22  2  0
 21 23  1  0
 23 24  1  0
 24 25  1  0
 15 26  2  0
 11  5  1  0
 26 12  1  0
 22 17  1  0
 25 20  1  0
  4 27  1  0
  4 28  1  0
  6 29  1  0
  7 30  1  0
  8 31  1  0
 11 32  1  0
 13 33  1  0
 16 34  1  0
 16 35  1  0
 18 36  1  0
 19 37  1  0
 22 38  1  0
 24 39  1  0
 24 40  1  0
M  CHG  1   3  -1
M  END
>  <UniqueID>  (75) 
69

>  <SMILES>  (75) 
O=C([N-]Cc1cccc(Cl)c1)c1csc(Cc2ccc3c(c2)OCO3)n1

>  <Energy>  (75) 
97.64951797747001

>  <Genealogy>  (75) 
O=C([N-]Cc1cccc(Cl)c1)c1csc(Cc2ccc3c(c2)OCO3)n1 (protonated)
O=C([N-]Cc1cccc(Cl)c1)c1csc(Cc2ccc3c(c2)OCO3)n1 (3D coordinates assigned)
O=C([N-]Cc1cccc(Cl)c1)c1csc(Cc2ccc3c(c2)OCO3)n1 (nonaromatic ring conformer: 97.64951797747001 kcal/mol)

>  <smiles>  (75) 
O=C(NCc1cccc(Cl)c1)c1csc(Cc2ccc3c(c2)OCO3)n1

>  <score_type>  (75) 
oracle

>  <origin>  (75) 
adg

>  <m_score__min__energy>  (75) 
-10.48

>  <m_primary>  (75) 
energy

$$$$
75:0
     RDKit          3D

 52 54  0  0  0  0  0  0  0  0999 V2000
   55.1410   26.4740   45.9380 N   0  0  0  0  0  0  0  0  0  0  0  0
   56.8570   26.6660   45.9620 S   0  0  0  0  0  0  0  0  0  0  0  0
   57.4690   25.8280   44.8750 O   0  0  0  0  0  0  0  0  0  0  0  0
   57.3970   26.2050   47.2860 O   0  0  0  0  0  0  0  0  0  0  0  0
   57.2630   28.3610   45.7090 C   0  0  0  0  0  0  0  0  0  0  0  0
   56.5410   29.1270   44.7850 C   0  0  0  0  0  0  0  0  0  0  0  0
   56.8710   30.4690   44.5730 C   0  0  0  0  0  0  0  0  0  0  0  0
   57.9150   31.0630   45.2910 C   0  0  0  0  0  0  0  0  0  0  0  0
   58.2460   32.4340   45.0320 N   0  0  0  0  0  0  0  0  0  0  0  0
   58.0570   33.5370   45.9270 C   0  0  0  0  0  0  0  0  0  0  0  0
   57.0040   33.5880   46.6140 O   0  0  0  0  0  0  0  0  0  0  0  0
   59.1050   34.6020   46.1140 C   0  0  0  0  0  0  0  0  0  0  0  0
   60.4080   34.1180   45.6580 N   0  0  0  0  0  0  0  0  0  0  0  0
   61.4020   33.5280   46.5180 C   0  0  0  0  0  0  0  0  0  0  0  0
   62.7710   33.8340   46.3950 C   0  0  0  0  0  0  0  0  0  0  0  0
   63.7080   33.2360   47.2420 C   0  0  0  0  0  0  0  0  0  0  0  0
   63.2930   32.3310   48.2210 C   0  0  0  0  0  0  0  0  0  0  0  0
   61.9350   32.0230   48.3630 C   0  0  0  0  0  0  0  0  0  0  0  0
   61.4290   30.8610   49.5860 S   0  0  0  0  0  0  0  0  0  0  0  0
   60.9040   29.6330   48.8940 O   0  0  0  0  0  0  0  0  0  0  0  0
   62.6040   30.4660   50.4390 O   0  0  0  0  0  0  0  0  0  0  0  0
   60.1770   31.5650   50.5780 N   0  0  0  0  0  0  0  0  0  0  0  0
   58.8720   31.4260   49.9110 C   0  0  0  0  0  0  0  0  0  0  0  0
   57.7340   31.8430   50.8630 C   0  0  0  0  0  0  0  0  0  0  0  0
   58.2110   32.8100   51.9590 C   0  0  0  0  0  0  0  0  0  0  0  0
   59.2860   33.7590   51.4240 C   0  0  0  0  0  0  0  0  0  0  0  0
   60.4880   32.9870   50.8350 C   0  0  0  0  0  0  0  0  0  0  0  0
   60.9950   32.6190   47.5090 C   0  0  0  0  0  0  0  0  0  0  0  0
   58.6620   30.2850   46.1920 C   0  0  0  0  0  0  0  0  0  0  0  0
   58.3330   28.9420   46.4030 C   0  0  0  0  0  0  0  0  0  0  0  0
   54.7560   27.0820   46.6950 H   0  0  0  0  0  0  0  0  0  0  0  0
   55.7116   28.6712   44.2243 H   0  0  0  0  0  0  0  0  0  0  0  0
   56.3068   31.0613   43.8376 H   0  0  0  0  0  0  0  0  0  0  0  0
   58.8250   35.4927   45.5324 H   0  0  0  0  0  0  0  0  0  0  0  0
   59.1713   34.8550   47.1825 H   0  0  0  0  0  0  0  0  0  0  0  0
   60.6240   34.2190   44.6400 H   0  0  0  0  0  0  0  0  0  0  0  0
   63.1049   34.5480   45.6277 H   0  0  0  0  0  0  0  0  0  0  0  0
   64.7757   33.4790   47.1371 H   0  0  0  0  0  0  0  0  0  0  0  0
   64.0348   31.8591   48.8820 H   0  0  0  0  0  0  0  0  0  0  0  0
   58.8512   32.0683   49.0182 H   0  0  0  0  0  0  0  0  0  0  0  0
   58.7288   30.3739   49.6236 H   0  0  0  0  0  0  0  0  0  0  0  0
   56.9452   32.3360   50.2759 H   0  0  0  0  0  0  0  0  0  0  0  0
   57.3604   30.9341   51.3573 H   0  0  0  0  0  0  0  0  0  0  0  0
   57.3543   33.4011   52.3148 H   0  0  0  0  0  0  0  0  0  0  0  0
   58.6418   32.2212   52.7823 H   0  0  0  0  0  0  0  0  0  0  0  0
   58.8460   34.3884   50.6364 H   0  0  0  0  0  0  0  0  0  0  0  0
   59.6496   34.3724   52.2616 H   0  0  0  0  0  0  0  0  0  0  0  0
   60.7810   33.4609   49.8866 H   0  0  0  0  0  0  0  0  0  0  0  0
   61.3023   33.0226   51.5737 H   0  0  0  0  0  0  0  0  0  0  0  0
   59.9284   32.3721   47.6164 H   0  0  0  0  0  0  0  0  0  0  0  0
   59.5081   30.7337   46.7330 H   0  0  0  0  0  0  0  0  0  0  0  0
   58.9158   28.3401   47.1157 H   0  0  0  0  0  0  0  0  0  0  0  0
  1  2  1  0
  2  3  2  0
  2  4  2  0
  2  5  1  0
  5  6  2  0
  6  7  1  0
  7  8  2  0
  8  9  1  0
  9 10  1  0
 10 11  2  0
 10 12  1  0
 12 13  1  0
 13 14  1  0
 14 15  2  0
 15 16  1  0
 16 17  2  0
 17 18  1  0
 18 19  1  0
 19 20  2  0
 19 21  2  0
 19 22  1  0
 22 23  1  0
 23 24  1  0
 24 25  1  0
 25 26  1  0
 26 27  1  0
 18 28  2  0
  8 29  1  0
 29 30  2  0
 30  5  1  0
 28 14  1  0
 27 22  1  0
  1 31  1  0
  6 32  1  0
  7 33  1  0
 12 34  1  0
 12 35  1  0
 13 36  1  0
 15 37  1  0
 16 38  1  0
 17 39  1  0
 23 40  1  0
 23 41  1  0
 24 42  1  0
 24 43  1  0
 25 44  1  0
 25 45  1  0
 26 46  1  0
 26 47  1  0
 27 48  1  0
 27 49  1  0
 28 50  1  0
 29 51  1  0
 30 52  1  0
M  CHG  2   1  -1   9  -1
M  END
>  <UniqueID>  (76) 
70

>  <SMILES>  (76) 
[NH-]S(=O)(=O)c1ccc([N-]C(=O)CNc2cccc(S(=O)(=O)N3CCCCC3)c2)cc1

>  <Energy>  (76) 
58.743441902560264

>  <Genealogy>  (76) 
[NH-]S(=O)(=O)c1ccc([N-]C(=O)CNc2cccc(S(=O)(=O)N3CCCCC3)c2)cc1 (protonated)
[NH-]S(=O)(=O)c1ccc([N-]C(=O)CNc2cccc(S(=O)(=O)N3CCCCC3)c2)cc1 (3D coordinates assigned)
[NH-]S(=O)(=O)c1ccc([N-]C(=O)CNc2cccc(S(=O)(=O)N3CCCCC3)c2)cc1 (nonaromatic ring conformer: 58.743441902560264 kcal/mol)

>  <smiles>  (76) 
NS(=O)(=O)c1ccc(NC(=O)CNc2cccc(S(=O)(=O)N3CCCCC3)c2)cc1

>  <score_type>  (76) 
oracle

>  <origin>  (76) 
adg

>  <m_score__min__energy>  (76) 
-13.01

>  <m_primary>  (76) 
energy

$$$$
76:0
     RDKit          3D

 36 38  0  0  0  0  0  0  0  0999 V2000
   57.8760   22.4090   44.6450 C   0  0  0  0  0  0  0  0  0  0  0  0
   57.6850   23.1530   45.5750 C   0  0  0  0  0  0  0  0  0  0  0  0
   57.4490   24.0570   46.7060 C   0  0  0  0  0  0  0  0  0  0  0  0
   57.7340   25.4480   46.3100 N   0  0  0  0  0  0  0  0  0  0  0  0
   56.6950   26.3040   46.0200 C   0  0  0  0  0  0  0  0  0  0  0  0
   55.4920   25.9320   46.0980 O   0  0  0  0  0  0  0  0  0  0  0  0
   57.0000   27.5950   45.6260 C   0  0  0  0  0  0  0  0  0  0  0  0
   56.1830   28.5930   45.2690 N   0  0  0  0  0  0  0  0  0  0  0  0
   57.0330   29.6010   44.9530 C   0  0  0  0  0  0  0  0  0  0  0  0
   56.5750   30.9230   44.4210 C   0  0  0  0  0  0  0  0  0  0  0  0
   57.4200   32.0240   44.9960 C   0  0  0  0  0  0  0  0  0  0  0  0
   57.8040   33.1150   44.1970 C   0  0  0  0  0  0  0  0  0  0  0  0
   58.6220   34.1200   44.7230 C   0  0  0  0  0  0  0  0  0  0  0  0
   59.0690   34.0400   46.0450 C   0  0  0  0  0  0  0  0  0  0  0  0
   58.7020   32.9520   46.8420 C   0  0  0  0  0  0  0  0  0  0  0  0
   57.8850   31.9440   46.3200 C   0  0  0  0  0  0  0  0  0  0  0  0
   58.3460   29.2710   45.0810 N   0  0  0  0  0  0  0  0  0  0  0  0
   58.2830   27.9980   45.5180 C   0  0  0  0  0  0  0  0  0  0  0  0
   59.3290   27.1730   45.7910 N   0  0  0  0  0  0  0  0  0  0  0  0
   60.7140   27.6270   45.6080 C   0  0  0  0  0  0  0  0  0  0  0  0
   59.0460   25.8770   46.1690 C   0  0  0  0  0  0  0  0  0  0  0  0
   59.9960   25.0700   46.3820 O   0  0  0  0  0  0  0  0  0  0  0  0
   58.0502   21.7305   43.7969 H   0  0  0  0  0  0  0  0  0  0  0  0
   56.3987   23.9768   47.0230 H   0  0  0  0  0  0  0  0  0  0  0  0
   58.1129   23.7757   47.5367 H   0  0  0  0  0  0  0  0  0  0  0  0
   55.1390   28.5890   45.2230 H   0  0  0  0  0  0  0  0  0  0  0  0
   56.6667   30.9270   43.3248 H   0  0  0  0  0  0  0  0  0  0  0  0
   55.5250   31.0848   44.7060 H   0  0  0  0  0  0  0  0  0  0  0  0
   57.4598   33.1785   43.1542 H   0  0  0  0  0  0  0  0  0  0  0  0
   58.9141   34.9748   44.0954 H   0  0  0  0  0  0  0  0  0  0  0  0
   59.7095   34.8332   46.4580 H   0  0  0  0  0  0  0  0  0  0  0  0
   59.0563   32.8885   47.8814 H   0  0  0  0  0  0  0  0  0  0  0  0
   57.6053   31.0853   46.9480 H   0  0  0  0  0  0  0  0  0  0  0  0
   61.1825   27.7806   46.5913 H   0  0  0  0  0  0  0  0  0  0  0  0
   61.2781   26.8667   45.0478 H   0  0  0  0  0  0  0  0  0  0  0  0
   60.7186   28.5737   45.0478 H   0  0  0  0  0  0  0  0  0  0  0  0
  1  2  3  0
  2  3  1  0
  3  4  1  0
  4  5  1  0
  5  6  2  0
  5  7  1  0
  7  8  1  0
  8  9  1  0
  9 10  1  0
 10 11  1  0
 11 12  2  0
 12 13  1  0
 13 14  2  0
 14 15  1  0
 15 16  2  0
  9 17  2  0
 17 18  1  0
 18 19  1  0
 19 20  1  0
 19 21  1  0
 21 22  2  0
 21  4  1  0
 18  7  2  0
 16 11  1  0
  1 23  1  0
  3 24  1  0
  3 25  1  0
  8 26  1  0
 10 27  1  0
 10 28  1  0
 12 29  1  0
 13 30  1  0
 14 31  1  0
 15 32  1  0
 16 33  1  0
 20 34  1  0
 20 35  1  0
 20 36  1  0
M  END
>  <UniqueID>  (77) 
71

>  <SMILES>  (77) 
C#CCn1c(=O)c2[nH]c(Cc3ccccc3)nc2n(C)c1=O

>  <Energy>  (77) 
77.66637427710967

>  <Genealogy>  (77) 
C#CCn1c(=O)c2[nH]c(Cc3ccccc3)nc2n(C)c1=O (3D coordinates assigned)
C#CCn1c(=O)c2[nH]c(Cc3ccccc3)nc2n(C)c1=O (optimized conformer: 77.66637427710967 kcal/mol)

>  <smiles>  (77) 
C#CCn1c(=O)c2[nH]c(Cc3ccccc3)nc2n(C)c1=O

>  <score_type>  (77) 
oracle

>  <origin>  (77) 
adg

>  <m_score__min__energy>  (77) 
-7.2400000000000002

>  <m_primary>  (77) 
energy

$$$$
77:0
     RDKit          3D

 37 40  0  0  0  0  0  0  0  0999 V2000
   54.7260   27.0880   46.6370 H   0  0  0  0  0  0  0  0  0  0  0  0
   55.0750   26.3500   45.9860 N   0  0  0  0  0  0  0  0  0  0  0  0
   56.7850   26.5620   45.8560 S   0  0  0  0  0  0  0  0  0  0  0  0
   57.4290   26.2580   47.1790 O   0  0  0  0  0  0  0  0  0  0  0  0
   57.3310   25.6150   44.8250 O   0  0  0  0  0  0  0  0  0  0  0  0
   57.1380   28.2220   45.3870 C   0  0  0  0  0  0  0  0  0  0  0  0
   56.1530   29.0040   44.7710 C   0  0  0  0  0  0  0  0  0  0  0  0
   55.1598   28.5762   44.5697 H   0  0  0  0  0  0  0  0  0  0  0  0
   56.4280   30.3270   44.4110 C   0  0  0  0  0  0  0  0  0  0  0  0
   55.6456   30.9407   43.9406 H   0  0  0  0  0  0  0  0  0  0  0  0
   57.7010   30.8760   44.6480 C   0  0  0  0  0  0  0  0  0  0  0  0
   58.0030   32.2430   44.3290 N   0  0  0  0  0  0  0  0  0  0  0  0
   58.6430   33.0910   45.0810 C   0  0  0  0  0  0  0  0  0  0  0  0
   58.4330   34.7650   45.1040 S   0  0  0  0  0  0  0  0  0  0  0  0
   59.6540   35.0110   46.2380 C   0  0  0  0  0  0  0  0  0  0  0  0
   59.9648   35.9817   46.6517 H   0  0  0  0  0  0  0  0  0  0  0  0
   60.2020   33.7710   46.5610 C   0  0  0  0  0  0  0  0  0  0  0  0
   61.3070   33.6230   47.5250 C   0  0  0  0  0  0  0  0  0  0  0  0
   61.3680   34.2850   48.6680 O   0  0  0  0  0  0  0  0  0  0  0  0
   62.4690   33.9200   49.2770 C   0  0  0  0  0  0  0  0  0  0  0  0
   62.9470   34.3580   50.5110 C   0  0  0  0  0  0  0  0  0  0  0  0
   62.3907   35.0972   51.1061 H   0  0  0  0  0  0  0  0  0  0  0  0
   64.1650   33.8230   50.9700 C   0  0  0  0  0  0  0  0  0  0  0  0
   64.5724   34.1444   51.9399 H   0  0  0  0  0  0  0  0  0  0  0  0
   64.8680   32.8750   50.1920 C   0  0  0  0  0  0  0  0  0  0  0  0
   65.8199   32.4645   50.5600 H   0  0  0  0  0  0  0  0  0  0  0  0
   64.3590   32.4530   48.9510 C   0  0  0  0  0  0  0  0  0  0  0  0
   64.8966   31.7157   48.3367 H   0  0  0  0  0  0  0  0  0  0  0  0
   63.1500   33.0010   48.5260 C   0  0  0  0  0  0  0  0  0  0  0  0
   62.4170   32.7900   47.3820 C   0  0  0  0  0  0  0  0  0  0  0  0
   62.6523   32.1172   46.5442 H   0  0  0  0  0  0  0  0  0  0  0  0
   59.6400   32.7140   45.9100 N   0  0  0  0  0  0  0  0  0  0  0  0
   59.9390   31.7200   46.0270 H   0  0  0  0  0  0  0  0  0  0  0  0
   58.6680   30.1030   45.3020 C   0  0  0  0  0  0  0  0  0  0  0  0
   59.6506   30.5396   45.5341 H   0  0  0  0  0  0  0  0  0  0  0  0
   58.3940   28.7810   45.6620 C   0  0  0  0  0  0  0  0  0  0  0  0
   59.1656   28.1774   46.1624 H   0  0  0  0  0  0  0  0  0  0  0  0
  1  2  1  0
  2  3  1  0
  3  4  2  0
  3  5  2  0
  3  6  1  0
  6  7  2  0
  7  8  1  0
  7  9  1  0
  9 10  1  0
  9 11  2  0
 11 12  1  0
 12 13  2  0
 13 14  1  0
 14 15  1  0
 15 16  1  0
 15 17  2  0
 17 18  1  0
 18 19  1  0
 19 20  1  0
 20 21  2  0
 21 22  1  0
 21 23  1  0
 23 24  1  0
 23 25  2  0
 25 26  1  0
 25 27  1  0
 27 28  1  0
 27 29  2  0
 29 30  1  0
 30 31  1  0
 17 32  1  0
 32 33  1  0
 11 34  1  0
 34 35  1  0
 34 36  2  0
 36 37  1  0
 36  6  1  0
 32 13  1  0
 30 18  2  0
 29 20  1  0
M  CHG  1   2  -1
M  END
>  <UniqueID>  (78) 
72

>  <SMILES>  (78) 
[NH-]S(=O)(=O)c1ccc(/N=c2/[nH]c(-c3cc4ccccc4o3)cs2)cc1

>  <Energy>  (78) 
111.86467115731972

>  <Genealogy>  (78) 
[NH-]S(=O)(=O)c1ccc(N=c2[nH]c(-c3cc4ccccc4o3)cs2)cc1 (protonated)
[NH-]S(=O)(=O)c1ccc(/N=c2/[nH]c(-c3cc4ccccc4o3)cs2)cc1 (cis-trans isomerization)
[NH-]S(=O)(=O)c1ccc(/N=c2/[nH]c(-c3cc4ccccc4o3)cs2)cc1 (3D coordinates assigned)
[NH-]S(=O)(=O)c1ccc(/N=c2/[nH]c(-c3cc4ccccc4o3)cs2)cc1 (optimized conformer: 111.86467115731972 kcal/mol)

>  <smiles>  (78) 
NS(=O)(=O)c1ccc(N=c2[nH]c(-c3cc4ccccc4o3)cs2)cc1

>  <score_type>  (78) 
oracle

>  <origin>  (78) 
adg

>  <m_score__min__energy>  (78) 
-11.449999999999999

>  <m_primary>  (78) 
energy

$$$$
78:0
     RDKit          3D

 67 71  0  0  1  0  0  0  0  0999 V2000
   58.2020   30.6060   44.2160 C   0  0  0  0  0  0  0  0  0  0  0  0
   59.2250   29.9270   44.9050 O   0  0  0  0  0  0  0  0  0  0  0  0
   59.1090   28.5610   45.1080 C   0  0  0  0  0  0  0  0  0  0  0  0
   58.3110   27.7330   44.3620 C   0  0  0  0  0  0  0  0  0  0  0  0
   58.2200   26.3680   44.5960 C   0  0  0  0  0  0  0  0  0  0  0  0
   57.4150   25.6180   43.8220 N   0  0  0  0  0  0  0  0  0  0  0  0
   57.2890   24.3000   44.0010 C   0  0  0  0  0  0  0  0  0  0  0  0
   56.5320   23.5840   43.2750 O   0  0  0  0  0  0  0  0  0  0  0  0
   58.0170   23.7080   45.0200 C   0  0  0  0  0  0  0  0  0  0  0  0
   58.8570   24.4690   45.8340 C   0  0  0  0  0  0  0  0  0  0  0  0
   58.9720   25.8460   45.6260 C   0  0  0  0  0  0  0  0  0  0  0  0
   59.7970   26.6330   46.4150 C   0  0  0  0  0  0  0  0  0  0  0  0
   58.6560   33.2270   47.4860 C   0  0  0  0  0  0  0  0  0  0  0  0
   60.6920   28.8510   46.9260 N   0  0  0  0  0  0  0  0  0  0  0  0
   60.2310   29.5000   47.9320 C   0  0  0  0  0  0  0  0  0  0  0  0
   60.5040   29.1820   49.2120 N   0  0  0  0  0  0  0  0  0  0  0  0
   59.9870   29.9050   50.2490 C   0  0  0  0  0  0  0  0  0  0  0  0
   59.1860   30.9600   50.0110 N   0  0  0  0  0  0  0  0  0  0  0  0
   58.9110   31.2830   48.7280 C   0  0  0  0  0  0  0  0  0  0  0  0
   58.1490   32.2740   48.4000 N   0  0  0  0  0  0  0  0  0  0  0  0
   59.8490   27.9900   46.1350 C   0  0  0  0  0  0  0  0  0  0  0  0
   57.9220   33.3830   46.3030 C   0  0  0  0  0  0  0  0  0  0  0  0
   58.3190   34.2490   45.3080 C   0  0  0  0  0  0  0  0  0  0  0  0
   59.4740   34.9610   45.5240 C   0  0  0  0  0  0  0  0  0  0  0  0
   60.1810   34.8050   46.6760 C   0  0  0  0  0  0  0  0  0  0  0  0
   59.7960   33.9290   47.7040 C   0  0  0  0  0  0  0  0  0  0  0  0
   60.6400   33.8510   48.8260 N   0  0  0  0  0  0  0  0  0  0  0  0
   60.2910   33.7430   50.1730 C   0  0  0  0  0  0  0  0  0  0  0  0
   59.0920   33.7170   50.5680 O   0  0  0  0  0  0  0  0  0  0  0  0
   61.2930   33.6490   51.2600 C   0  0  0  0  0  0  0  0  0  0  0  0
   62.1780   32.6930   51.3450 C   0  0  0  0  0  0  0  0  0  0  0  0
   63.4590   32.7480   50.5870 C   0  0  0  0  0  0  0  0  0  0  0  0
   63.3570   32.6160   49.1930 N   0  0  0  0  0  0  0  0  0  0  0  0
   62.6770   31.5230   48.6350 C   0  0  0  0  0  0  0  0  0  0  0  0
   62.6530   31.5870   47.1420 C   0  0  0  0  0  0  0  0  0  0  0  0
   62.4020   32.9050   46.7730 O   0  0  0  0  0  0  0  0  0  0  0  0
   63.5710   33.6290   46.9700 C   0  0  0  0  0  0  0  0  0  0  0  0
   64.1150   33.4680   48.3650 C   0  0  0  0  0  0  0  0  0  0  0  0
   59.4390   30.5460   47.7080 N   0  0  0  0  0  0  0  0  0  0  0  0
   57.5127   31.0635   44.9410 H   0  0  0  0  0  0  0  0  0  0  0  0
   58.6437   31.3908   43.5844 H   0  0  0  0  0  0  0  0  0  0  0  0
   57.6503   29.8942   43.5844 H   0  0  0  0  0  0  0  0  0  0  0  0
   57.7182   28.1684   43.5440 H   0  0  0  0  0  0  0  0  0  0  0  0
   56.8690   26.0710   43.0570 H   0  0  0  0  0  0  0  0  0  0  0  0
   57.9319   22.6245   45.1897 H   0  0  0  0  0  0  0  0  0  0  0  0
   59.4287   23.9849   46.6395 H   0  0  0  0  0  0  0  0  0  0  0  0
   60.3887   26.1967   47.2333 H   0  0  0  0  0  0  0  0  0  0  0  0
   60.2267   29.6233   51.2849 H   0  0  0  0  0  0  0  0  0  0  0  0
   58.7730   31.5380   50.7950 H   0  0  0  0  0  0  0  0  0  0  0  0
   57.0016   32.7967   46.1646 H   0  0  0  0  0  0  0  0  0  0  0  0
   57.7372   34.3653   44.3817 H   0  0  0  0  0  0  0  0  0  0  0  0
   59.8309   35.6646   44.7575 H   0  0  0  0  0  0  0  0  0  0  0  0
   61.1001   35.3945   46.8088 H   0  0  0  0  0  0  0  0  0  0  0  0
   61.6870   33.8710   48.6160 H   0  0  0  0  0  0  0  0  0  0  0  0
   61.2913   34.4269   52.0377 H   0  0  0  0  0  0  0  0  0  0  0  0
   61.9729   31.8269   51.9913 H   0  0  0  0  0  0  0  0  0  0  0  0
   63.9339   33.7173   50.7991 H   0  0  0  0  0  0  0  0  0  0  0  0
   64.0403   31.8774   50.9249 H   0  0  0  0  0  0  0  0  0  0  0  0
   63.1809   30.5951   48.9435 H   0  0  0  0  0  0  0  0  0  0  0  0
   61.6378   31.5473   48.9948 H   0  0  0  0  0  0  0  0  0  0  0  0
   63.6244   31.2648   46.7387 H   0  0  0  0  0  0  0  0  0  0  0  0
   61.8722   30.9228   46.7431 H   0  0  0  0  0  0  0  0  0  0  0  0
   64.3283   33.2800   46.2526 H   0  0  0  0  0  0  0  0  0  0  0  0
   63.3367   34.6934   46.8211 H   0  0  0  0  0  0  0  0  0  0  0  0
   65.1334   33.0589   48.2916 H   0  0  0  0  0  0  0  0  0  0  0  0
   64.0843   34.4645   48.8298 H   0  0  0  0  0  0  0  0  0  0  0  0
   59.2160   30.8100   46.7280 H   0  0  0  0  0  0  0  0  0  0  0  0
  1  2  1  0
  2  3  1  0
  3  4  2  0
  4  5  1  0
  5  6  1  0
  6  7  1  0
  7  8  2  0
  7  9  1  0
  9 10  2  0
 10 11  1  0
 11 12  1  0
 12 13  2  0
 13 14  1  0
 14 15  2  0
 15 16  1  0
 16 17  2  0
 17 18  1  0
 18 19  1  0
 19 20  2  0
 20 21  1  0
 21 22  2  0
 22 23  1  0
 23 24  2  0
 24 25  1  0
 25 26  2  0
 26 27  1  0
 27 28  1  0
 28 29  2  0
 28 30  1  0
 30 31  2  0
 31 32  1  0
 32 33  1  0
 33 34  1  0
 34 35  1  0
 35 36  1  0
 36 37  1  0
 37 38  1  0
 19 39  1  0
 13  3  1  0
 39 15  1  0
 11  5  2  0
 26 21  1  0
 38 33  1  0
  1 40  1  0
  1 41  1  0
  1 42  1  0
  4 43  1  0
  6 44  1  0
  9 45  1  0
 10 46  1  0
 12 47  1  0
 17 48  1  0
 18 49  1  0
 22 50  1  0
 23 51  1  0
 24 52  1  0
 25 53  1  0
 27 54  1  0
 30 55  1  0
 31 56  1  0
 32 57  1  0
 32 58  1  0
 34 59  1  0
 34 60  1  0
 35 61  1  0
 35 62  1  0
 37 63  1  0
 37 64  1  0
 38 65  1  0
 38 66  1  0
 39 67  1  0
M  END
>  <smiles>  (79) 
COc1cc2[nH]c(=O)ccc2cc1N=c1nc[nH]c(=Nc2ccccc2NC(=O)C=CCN2CCOCC2)[nH]1

>  <score_type>  (79) 
oracle

>  <origin>  (79) 
adg

>  <m_score__min__energy>  (79) 
-9.2599999999999998

>  <m_primary>  (79) 
energy

$$$$
79:0
     RDKit          3D

 43 45  0  0  0  0  0  0  0  0999 V2000
   62.3150   32.1150   51.0160 C   0  0  0  0  0  0  0  0  0  0  0  0
   62.1630   32.6670   49.6420 C   0  0  0  0  0  0  0  0  0  0  0  0
   63.2130   32.7920   48.7930 N   0  0  0  0  0  0  0  0  0  0  0  0
   63.0740   33.2900   47.5530 C   0  0  0  0  0  0  0  0  0  0  0  0
   64.0830   33.4080   46.7430 N   0  0  0  0  0  0  0  0  0  0  0  0
   61.8580   33.6770   47.1400 N   0  0  0  0  0  0  0  0  0  0  0  0
   60.7490   33.5830   47.9360 C   0  0  0  0  0  0  0  0  0  0  0  0
   59.4880   34.0440   47.3410 C   0  0  0  0  0  0  0  0  0  0  0  0
   58.8130   32.9790   46.5760 C   0  0  0  0  0  0  0  0  0  0  0  0
   57.7410   33.3860   45.7680 C   0  0  0  0  0  0  0  0  0  0  0  0
   57.0450   32.4970   44.9890 C   0  0  0  0  0  0  0  0  0  0  0  0
   57.3960   31.1660   44.9860 C   0  0  0  0  0  0  0  0  0  0  0  0
   56.5300   29.9860   43.9950 S   0  0  0  0  0  0  0  0  0  0  0  0
   57.5210   28.6110   43.7150 N   0  0  0  0  0  0  0  0  0  0  0  0
   56.2760   30.6150   42.6480 O   0  0  0  0  0  0  0  0  0  0  0  0
   55.2440   29.5680   44.5850 O   0  0  0  0  0  0  0  0  0  0  0  0
   58.4570   30.7610   45.7830 C   0  0  0  0  0  0  0  0  0  0  0  0
   59.1650   31.6510   46.5740 C   0  0  0  0  0  0  0  0  0  0  0  0
   60.8920   33.0750   49.2030 C   0  0  0  0  0  0  0  0  0  0  0  0
   59.8050   32.9000   50.1060 C   0  0  0  0  0  0  0  0  0  0  0  0
   58.8760   31.8570   50.0420 C   0  0  0  0  0  0  0  0  0  0  0  0
   57.8620   31.7920   50.9870 C   0  0  0  0  0  0  0  0  0  0  0  0
   57.7260   32.7190   51.9980 C   0  0  0  0  0  0  0  0  0  0  0  0
   58.6460   33.7530   52.0640 C   0  0  0  0  0  0  0  0  0  0  0  0
   59.6620   33.8390   51.1370 C   0  0  0  0  0  0  0  0  0  0  0  0
   62.0983   32.9020   51.7534 H   0  0  0  0  0  0  0  0  0  0  0  0
   61.6136   31.2791   51.1550 H   0  0  0  0  0  0  0  0  0  0  0  0
   63.3454   31.7560   51.1550 H   0  0  0  0  0  0  0  0  0  0  0  0
   64.7730   32.6030   46.7700 H   0  0  0  0  0  0  0  0  0  0  0  0
   61.7830   34.0590   46.1710 H   0  0  0  0  0  0  0  0  0  0  0  0
   58.8185   34.3812   48.1460 H   0  0  0  0  0  0  0  0  0  0  0  0
   59.7215   34.8640   46.6460 H   0  0  0  0  0  0  0  0  0  0  0  0
   57.4506   34.4469   45.7588 H   0  0  0  0  0  0  0  0  0  0  0  0
   56.2076   32.8472   44.3676 H   0  0  0  0  0  0  0  0  0  0  0  0
   58.2440   28.7810   42.9840 H   0  0  0  0  0  0  0  0  0  0  0  0
   56.9350   27.8150   43.4060 H   0  0  0  0  0  0  0  0  0  0  0  0
   58.7452   29.6994   45.7869 H   0  0  0  0  0  0  0  0  0  0  0  0
   60.0014   31.2976   47.1949 H   0  0  0  0  0  0  0  0  0  0  0  0
   58.9482   31.0961   49.2509 H   0  0  0  0  0  0  0  0  0  0  0  0
   57.1370   30.9669   50.9269 H   0  0  0  0  0  0  0  0  0  0  0  0
   56.9102   32.6401   52.7317 H   0  0  0  0  0  0  0  0  0  0  0  0
   58.5650   34.5083   52.8596 H   0  0  0  0  0  0  0  0  0  0  0  0
   60.3813   34.6682   51.2081 H   0  0  0  0  0  0  0  0  0  0  0  0
  1  2  1  0
  2  3  2  0
  3  4  1  0
  4  5  2  3
  4  6  1  0
  6  7  1  0
  7  8  1  0
  8  9  1  0
  9 10  2  0
 10 11  1  0
 11 12  2  0
 12 13  1  0
 13 14  1  0
 13 15  2  0
 13 16  2  0
 12 17  1  0
 17 18  2  0
  7 19  2  0
 19 20  1  0
 20 21  2  0
 21 22  1  0
 22 23  2  0
 23 24  1  0
 24 25  2  0
 19  2  1  0
 25 20  1  0
 18  9  1  0
  1 26  1  0
  1 27  1  0
  1 28  1  0
  5 29  1  0
  6 30  1  0
  8 31  1  0
  8 32  1  0
 10 33  1  0
 11 34  1  0
 14 35  1  0
 14 36  1  0
 17 37  1  0
 18 38  1  0
 21 39  1  0
 22 40  1  0
 23 41  1  0
 24 42  1  0
 25 43  1  0
M  END
>  <smiles>  (80) 
Cc1nc(=N)[nH]c(Cc2ccc(S(N)(=O)=O)cc2)c1-c1ccccc1

>  <score_type>  (80) 
oracle

>  <origin>  (80) 
adg

>  <m_score__min__energy>  (80) 
-9.1999999999999993

>  <m_primary>  (80) 
energy

$$$$
80:0
     RDKit          3D

 28 29  0  0  0  0  0  0  0  0999 V2000
   60.1330   29.2150   44.8570 C   0  0  0  0  0  0  0  0  0  0  0  0
   58.7960   28.5870   45.1490 C   0  0  0  0  0  0  0  0  0  0  0  0
   58.7560   27.3430   45.8020 C   0  0  0  0  0  0  0  0  0  0  0  0
   57.5360   26.7240   46.0800 C   0  0  0  0  0  0  0  0  0  0  0  0
   56.3400   27.3420   45.7170 C   0  0  0  0  0  0  0  0  0  0  0  0
   55.1270   26.7240   45.9940 O   0  0  0  0  0  0  0  0  0  0  0  0
   56.3600   28.5850   45.0790 C   0  0  0  0  0  0  0  0  0  0  0  0
   57.5810   29.2220   44.7900 C   0  0  0  0  0  0  0  0  0  0  0  0
   57.5550   30.5570   44.1440 C   0  0  0  0  0  0  0  0  0  0  0  0
   57.3420   30.6280   42.9020 O   0  0  0  0  0  0  0  0  0  0  0  0
   57.7960   31.8060   44.9110 C   0  0  0  0  0  0  0  0  0  0  0  0
   57.7960   33.0600   44.2720 C   0  0  0  0  0  0  0  0  0  0  0  0
   58.0340   34.2280   45.0030 C   0  0  0  0  0  0  0  0  0  0  0  0
   58.2820   34.1580   46.3750 C   0  0  0  0  0  0  0  0  0  0  0  0
   58.2970   32.9200   47.0230 C   0  0  0  0  0  0  0  0  0  0  0  0
   58.5500   32.8650   48.3920 O   0  0  0  0  0  0  0  0  0  0  0  0
   58.0590   31.7460   46.2920 C   0  0  0  0  0  0  0  0  0  0  0  0
   60.6406   29.4534   45.8033 H   0  0  0  0  0  0  0  0  0  0  0  0
   60.7494   28.5122   44.2772 H   0  0  0  0  0  0  0  0  0  0  0  0
   59.9857   30.1381   44.2772 H   0  0  0  0  0  0  0  0  0  0  0  0
   59.6953   26.8523   46.0969 H   0  0  0  0  0  0  0  0  0  0  0  0
   57.5182   25.7475   46.5861 H   0  0  0  0  0  0  0  0  0  0  0  0
   55.4128   29.0699   44.8002 H   0  0  0  0  0  0  0  0  0  0  0  0
   57.6075   33.1217   43.1900 H   0  0  0  0  0  0  0  0  0  0  0  0
   58.0258   35.2041   44.4959 H   0  0  0  0  0  0  0  0  0  0  0  0
   58.4660   35.0793   46.9472 H   0  0  0  0  0  0  0  0  0  0  0  0
   59.3490   32.3640   48.7640 H   0  0  0  0  0  0  0  0  0  0  0  0
   58.0782   30.7717   46.8023 H   0  0  0  0  0  0  0  0  0  0  0  0
  1  2  1  0
  2  3  2  0
  3  4  1  0
  4  5  2  0
  5  6  1  0
  5  7  1  0
  7  8  2  0
  8  9  1  0
  9 10  2  0
  9 11  1  0
 11 12  2  0
 12 13  1  0
 13 14  2  0
 14 15  1  0
 15 16  1  0
 15 17  2  0
  8  2  1  0
 17 11  1  0
  1 18  1  0
  1 19  1  0
  1 20  1  0
  3 21  1  0
  4 22  1  0
  7 23  1  0
 12 24  1  0
 13 25  1  0
 14 26  1  0
 16 27  1  0
 17 28  1  0
M  CHG  1   6  -1
M  END
>  <UniqueID>  (81) 
73

>  <SMILES>  (81) 
Cc1ccc([O-])cc1C(=O)c1cccc(O)c1

>  <Energy>  (81) 
36.42354900385326

>  <Genealogy>  (81) 
Cc1ccc([O-])cc1C(=O)c1cccc(O)c1 (protonated)
Cc1ccc([O-])cc1C(=O)c1cccc(O)c1 (3D coordinates assigned)
Cc1ccc([O-])cc1C(=O)c1cccc(O)c1 (optimized conformer: 36.42354900385326 kcal/mol)

>  <smiles>  (81) 
Cc1ccc(O)cc1C(=O)c1cccc(O)c1

>  <score_type>  (81) 
oracle

>  <origin>  (81) 
adg

>  <m_score__min__energy>  (81) 
-9.8399999999999999

>  <m_primary>  (81) 
energy

$$$$
81:0
     RDKit          3D

 45 47  0  0  0  0  0  0  0  0999 V2000
   55.5070   26.3450   46.0450 N   0  0  0  0  0  0  0  0  0  0  0  0
   57.2210   26.1380   46.0370 S   0  0  0  0  0  0  0  0  0  0  0  0
   57.6710   25.6480   47.3840 O   0  0  0  0  0  0  0  0  0  0  0  0
   57.5960   25.1180   44.9980 O   0  0  0  0  0  0  0  0  0  0  0  0
   58.0040   27.6700   45.6680 C   0  0  0  0  0  0  0  0  0  0  0  0
   59.3870   27.7240   45.4620 C   0  0  0  0  0  0  0  0  0  0  0  0
   60.0010   28.9440   45.1710 C   0  0  0  0  0  0  0  0  0  0  0  0
   59.2380   30.1120   45.0730 C   0  0  0  0  0  0  0  0  0  0  0  0
   57.8520   30.0720   45.2740 C   0  0  0  0  0  0  0  0  0  0  0  0
   57.1030   31.2890   45.1450 N   0  0  0  0  0  0  0  0  0  0  0  0
   57.7590   32.8940   45.2300 S   0  0  0  0  0  0  0  0  0  0  0  0
   58.8120   33.0530   44.1660 O   0  0  0  0  0  0  0  0  0  0  0  0
   56.6590   33.8890   44.9780 O   0  0  0  0  0  0  0  0  0  0  0  0
   58.4340   33.1900   46.8280 C   0  0  0  0  0  0  0  0  0  0  0  0
   59.0980   34.3920   47.1080 C   0  0  0  0  0  0  0  0  0  0  0  0
   59.6980   34.5900   48.3530 C   0  0  0  0  0  0  0  0  0  0  0  0
   59.6420   33.5850   49.3320 C   0  0  0  0  0  0  0  0  0  0  0  0
   60.3260   33.7910   50.6570 C   0  0  0  0  0  0  0  0  0  0  0  0
   61.7400   33.6650   50.5120 O   0  0  0  0  0  0  0  0  0  0  0  0
   62.4030   33.2860   49.3340 C   0  0  0  0  0  0  0  0  0  0  0  0
   63.1200   34.2010   48.5370 C   0  0  0  0  0  0  0  0  0  0  0  0
   63.7640   33.7690   47.3730 C   0  0  0  0  0  0  0  0  0  0  0  0
   63.6990   32.4290   46.9910 C   0  0  0  0  0  0  0  0  0  0  0  0
   62.9920   31.5160   47.7750 C   0  0  0  0  0  0  0  0  0  0  0  0
   62.3430   31.9420   48.9380 C   0  0  0  0  0  0  0  0  0  0  0  0
   61.6640   31.0430   49.6950 F   0  0  0  0  0  0  0  0  0  0  0  0
   58.9450   32.3970   49.0620 C   0  0  0  0  0  0  0  0  0  0  0  0
   58.3510   32.1990   47.8140 C   0  0  0  0  0  0  0  0  0  0  0  0
   57.2420   28.8440   45.5870 C   0  0  0  0  0  0  0  0  0  0  0  0
   55.1210   25.6540   46.7240 H   0  0  0  0  0  0  0  0  0  0  0  0
   55.1600   26.0630   45.0990 H   0  0  0  0  0  0  0  0  0  0  0  0
   59.9899   26.8064   45.5292 H   0  0  0  0  0  0  0  0  0  0  0  0
   61.0895   28.9865   45.0182 H   0  0  0  0  0  0  0  0  0  0  0  0
   59.7289   31.0676   44.8367 H   0  0  0  0  0  0  0  0  0  0  0  0
   59.1466   35.1821   46.3443 H   0  0  0  0  0  0  0  0  0  0  0  0
   60.2162   35.5363   48.5676 H   0  0  0  0  0  0  0  0  0  0  0  0
   60.0886   34.7964   51.0350 H   0  0  0  0  0  0  0  0  0  0  0  0
   59.9705   33.0274   51.3645 H   0  0  0  0  0  0  0  0  0  0  0  0
   63.1733   35.2594   48.8317 H   0  0  0  0  0  0  0  0  0  0  0  0
   64.3235   34.4882   46.7568 H   0  0  0  0  0  0  0  0  0  0  0  0
   64.2040   32.0925   46.0736 H   0  0  0  0  0  0  0  0  0  0  0  0
   62.9452   30.4581   47.4771 H   0  0  0  0  0  0  0  0  0  0  0  0
   58.8665   31.6194   49.8361 H   0  0  0  0  0  0  0  0  0  0  0  0
   57.8158   31.2611   47.6045 H   0  0  0  0  0  0  0  0  0  0  0  0
   56.1580   28.8044   45.7698 H   0  0  0  0  0  0  0  0  0  0  0  0
  1  2  1  0
  2  3  2  0
  2  4  2  0
  2  5  1  0
  5  6  2  0
  6  7  1  0
  7  8  2  0
  8  9  1  0
  9 10  1  0
 10 11  1  0
 11 12  2  0
 11 13  2  0
 11 14  1  0
 14 15  2  0
 15 16  1  0
 16 17  2  0
 17 18  1  0
 18 19  1  0
 19 20  1  0
 20 21  2  0
 21 22  1  0
 22 23  2  0
 23 24  1  0
 24 25  2  0
 25 26  1  0
 17 27  1  0
 27 28  2  0
  9 29  2  0
 29  5  1  0
 28 14  1  0
 25 20  1  0
  1 30  1  0
  1 31  1  0
  6 32  1  0
  7 33  1  0
  8 34  1  0
 15 35  1  0
 16 36  1  0
 18 37  1  0
 18 38  1  0
 21 39  1  0
 22 40  1  0
 23 41  1  0
 24 42  1  0
 27 43  1  0
 28 44  1  0
 29 45  1  0
M  CHG  1  10  -1
M  END
>  <UniqueID>  (82) 
74

>  <SMILES>  (82) 
NS(=O)(=O)c1cccc([N-]S(=O)(=O)c2ccc(COc3ccccc3F)cc2)c1

>  <Energy>  (82) 
46.068356484350645

>  <Genealogy>  (82) 
NS(=O)(=O)c1cccc([N-]S(=O)(=O)c2ccc(COc3ccccc3F)cc2)c1 (protonated)
NS(=O)(=O)c1cccc([N-]S(=O)(=O)c2ccc(COc3ccccc3F)cc2)c1 (3D coordinates assigned)
NS(=O)(=O)c1cccc([N-]S(=O)(=O)c2ccc(COc3ccccc3F)cc2)c1 (optimized conformer: 46.068356484350645 kcal/mol)

>  <smiles>  (82) 
NS(=O)(=O)c1cccc(NS(=O)(=O)c2ccc(COc3ccccc3F)cc2)c1

>  <score_type>  (82) 
oracle

>  <origin>  (82) 
adg

>  <m_score__min__energy>  (82) 
-11.140000000000001

>  <m_primary>  (82) 
energy

$$$$
82:0
     RDKit          3D

 46 48  0  0  0  0  0  0  0  0999 V2000
   54.6650   26.2110   45.8880 N   0  0  0  0  0  0  0  0  0  0  0  0
   55.9790   26.0710   46.4260 C   0  0  0  0  0  0  0  0  0  0  0  0
   56.2320   25.0820   47.1650 O   0  0  0  0  0  0  0  0  0  0  0  0
   57.0320   27.0760   46.1140 C   0  0  0  0  0  0  0  0  0  0  0  0
   56.7450   28.1610   45.2710 C   0  0  0  0  0  0  0  0  0  0  0  0
   57.6990   29.0930   44.9700 N   0  0  0  0  0  0  0  0  0  0  0  0
   57.3360   30.1990   44.0680 C   0  0  0  0  0  0  0  0  0  0  0  0
   57.1820   31.4070   44.8110 O   0  0  0  0  0  0  0  0  0  0  0  0
   57.7440   32.6270   44.4190 C   0  0  0  0  0  0  0  0  0  0  0  0
   57.5900   33.0440   43.2380 O   0  0  0  0  0  0  0  0  0  0  0  0
   58.5220   33.4240   45.3920 C   0  0  0  0  0  0  0  0  0  0  0  0
   58.9780   34.7130   45.0620 C   0  0  0  0  0  0  0  0  0  0  0  0
   59.7120   35.4610   45.9860 C   0  0  0  0  0  0  0  0  0  0  0  0
   60.0010   34.9320   47.2460 C   0  0  0  0  0  0  0  0  0  0  0  0
   59.5600   33.6470   47.5890 C   0  0  0  0  0  0  0  0  0  0  0  0
   59.9420   32.9700   49.1750 S   0  0  0  0  0  0  0  0  0  0  0  0
   59.0640   31.7770   49.4280 O   0  0  0  0  0  0  0  0  0  0  0  0
   59.6490   33.9950   50.2360 O   0  0  0  0  0  0  0  0  0  0  0  0
   61.6190   32.4860   49.2830 N   0  0  0  0  0  0  0  0  0  0  0  0
   62.0780   31.8210   48.0440 C   0  0  0  0  0  0  0  0  0  0  0  0
   62.9770   32.7390   47.1950 C   0  0  0  0  0  0  0  0  0  0  0  0
   64.1340   33.1900   47.8870 O   0  0  0  0  0  0  0  0  0  0  0  0
   63.9290   33.3830   49.2820 C   0  0  0  0  0  0  0  0  0  0  0  0
   62.4630   33.6320   49.6710 C   0  0  0  0  0  0  0  0  0  0  0  0
   58.8150   32.9010   46.6630 C   0  0  0  0  0  0  0  0  0  0  0  0
   58.9570   28.9730   45.4980 C   0  0  0  0  0  0  0  0  0  0  0  0
   59.8540   29.8180   45.2350 O   0  0  0  0  0  0  0  0  0  0  0  0
   59.2550   27.9330   46.3160 N   0  0  0  0  0  0  0  0  0  0  0  0
   58.3350   26.9900   46.6370 C   0  0  0  0  0  0  0  0  0  0  0  0
   58.6720   26.0470   47.4010 O   0  0  0  0  0  0  0  0  0  0  0  0
   53.9200   26.7170   46.4160 H   0  0  0  0  0  0  0  0  0  0  0  0
   55.7358   28.2631   44.8455 H   0  0  0  0  0  0  0  0  0  0  0  0
   58.1294   30.3319   43.3177 H   0  0  0  0  0  0  0  0  0  0  0  0
   56.3854   29.9595   43.5690 H   0  0  0  0  0  0  0  0  0  0  0  0
   58.7554   35.1346   44.0707 H   0  0  0  0  0  0  0  0  0  0  0  0
   60.0632   36.4691   45.7205 H   0  0  0  0  0  0  0  0  0  0  0  0
   60.5765   35.5260   47.9712 H   0  0  0  0  0  0  0  0  0  0  0  0
   62.6465   30.9191   48.3148 H   0  0  0  0  0  0  0  0  0  0  0  0
   61.1903   31.5675   47.4459 H   0  0  0  0  0  0  0  0  0  0  0  0
   63.2989   32.1834   46.3019 H   0  0  0  0  0  0  0  0  0  0  0  0
   62.3836   33.6289   46.9383 H   0  0  0  0  0  0  0  0  0  0  0  0
   64.2790   32.4840   49.8105 H   0  0  0  0  0  0  0  0  0  0  0  0
   64.4903   34.2861   49.5637 H   0  0  0  0  0  0  0  0  0  0  0  0
   62.3977   33.7764   50.7595 H   0  0  0  0  0  0  0  0  0  0  0  0
   62.1049   34.5292   49.1450 H   0  0  0  0  0  0  0  0  0  0  0  0
   58.4568   31.8970   46.9346 H   0  0  0  0  0  0  0  0  0  0  0  0
  1  2  1  0
  2  3  2  0
  2  4  1  0
  4  5  2  0
  5  6  1  0
  6  7  1  0
  7  8  1  0
  8  9  1  0
  9 10  2  0
  9 11  1  0
 11 12  2  0
 12 13  1  0
 13 14  2  0
 14 15  1  0
 15 16  1  0
 16 17  2  0
 16 18  2  0
 16 19  1  0
 19 20  1  0
 20 21  1  0
 21 22  1  0
 22 23  1  0
 23 24  1  0
 15 25  2  0
  6 26  1  0
 26 27  2  0
 26 28  1  0
 28 29  1  0
 29 30  2  0
 29  4  1  0
 25 11  1  0
 24 19  1  0
  1 31  1  0
  5 32  1  0
  7 33  1  0
  7 34  1  0
 12 35  1  0
 13 36  1  0
 14 37  1  0
 20 38  1  0
 20 39  1  0
 21 40  1  0
 21 41  1  0
 23 42  1  0
 23 43  1  0
 24 44  1  0
 24 45  1  0
 25 46  1  0
M  CHG  2   1  -1  28  -1
M  END
>  <UniqueID>  (83) 
75

>  <SMILES>  (83) 
[NH-]C(=O)c1cn(COC(=O)c2cccc(S(=O)(=O)N3CCOCC3)c2)c(=O)[n-]c1=O

>  <Energy>  (83) 
62.80671633968021

>  <Genealogy>  (83) 
[NH-]C(=O)c1cn(COC(=O)c2cccc(S(=O)(=O)N3CCOCC3)c2)c(=O)[n-]c1=O (protonated)
[NH-]C(=O)c1cn(COC(=O)c2cccc(S(=O)(=O)N3CCOCC3)c2)c(=O)[n-]c1=O (3D coordinates assigned)
[NH-]C(=O)c1cn(COC(=O)c2cccc(S(=O)(=O)N3CCOCC3)c2)c(=O)[n-]c1=O (nonaromatic ring conformer: 62.80671633968021 kcal/mol)

>  <smiles>  (83) 
NC(=O)c1cn(COC(=O)c2cccc(S(=O)(=O)N3CCOCC3)c2)c(=O)[nH]c1=O

>  <score_type>  (83) 
oracle

>  <origin>  (83) 
adg

>  <m_score__min__energy>  (83) 
-13.77

>  <m_primary>  (83) 
energy

$$$$
83:0
     RDKit          3D

 36 37  0  0  0  0  0  0  0  0999 V2000
   58.3690   33.8380   46.6120 C   0  0  0  0  0  0  0  0  0  0  0  0
   58.0500   33.0230   45.3950 C   0  0  0  0  0  0  0  0  0  0  0  0
   58.4160   33.4820   44.1210 C   0  0  0  0  0  0  0  0  0  0  0  0
   58.1520   32.7030   42.9900 C   0  0  0  0  0  0  0  0  0  0  0  0
   57.5320   31.4590   43.1280 C   0  0  0  0  0  0  0  0  0  0  0  0
   57.1580   30.9880   44.3950 C   0  0  0  0  0  0  0  0  0  0  0  0
   56.4790   29.6820   44.5200 C   0  0  0  0  0  0  0  0  0  0  0  0
   55.3370   29.6400   45.0490 O   0  0  0  0  0  0  0  0  0  0  0  0
   57.1010   28.4500   44.1230 N   0  0  0  0  0  0  0  0  0  0  0  0
   57.9470   27.5970   44.9600 C   0  0  0  0  0  0  0  0  0  0  0  0
   57.2610   27.2510   46.2470 C   0  0  0  0  0  0  0  0  0  0  0  0
   57.8890   27.3660   47.3350 O   0  0  0  0  0  0  0  0  0  0  0  0
   55.9120   26.7600   46.2260 N   0  0  0  0  0  0  0  0  0  0  0  0
   55.5440   25.5850   45.8040 C   0  0  0  0  0  0  0  0  0  0  0  0
   56.5150   24.6310   45.4860 C   0  0  0  0  0  0  0  0  0  0  0  0
   56.1190   23.3820   45.0050 C   0  0  0  0  0  0  0  0  0  0  0  0
   54.7650   23.1000   44.8320 C   0  0  0  0  0  0  0  0  0  0  0  0
   53.8140   24.0770   45.1510 C   0  0  0  0  0  0  0  0  0  0  0  0
   52.3570   23.8190   44.9410 C   0  0  0  0  0  0  0  0  0  0  0  0
   54.2250   25.2860   45.6240 N   0  0  0  0  0  0  0  0  0  0  0  0
   57.4410   31.7640   45.5290 C   0  0  0  0  0  0  0  0  0  0  0  0
   58.1401   33.2533   47.5152 H   0  0  0  0  0  0  0  0  0  0  0  0
   59.4368   34.1020   46.6069 H   0  0  0  0  0  0  0  0  0  0  0  0
   57.7641   34.7567   46.6069 H   0  0  0  0  0  0  0  0  0  0  0  0
   58.9121   34.4576   44.0113 H   0  0  0  0  0  0  0  0  0  0  0  0
   58.4326   33.0699   41.9917 H   0  0  0  0  0  0  0  0  0  0  0  0
   57.3357   30.8446   42.2369 H   0  0  0  0  0  0  0  0  0  0  0  0
   58.1740   26.6697   44.4136 H   0  0  0  0  0  0  0  0  0  0  0  0
   58.8717   28.1449   45.1939 H   0  0  0  0  0  0  0  0  0  0  0  0
   57.5827   24.8628   45.6138 H   0  0  0  0  0  0  0  0  0  0  0  0
   56.8750   22.6207   44.7626 H   0  0  0  0  0  0  0  0  0  0  0  0
   54.4466   22.1194   44.4486 H   0  0  0  0  0  0  0  0  0  0  0  0
   51.8560   23.7303   45.9163 H   0  0  0  0  0  0  0  0  0  0  0  0
   51.9147   24.6528   44.3761 H   0  0  0  0  0  0  0  0  0  0  0  0
   52.2279   22.8840   44.3761 H   0  0  0  0  0  0  0  0  0  0  0  0
   57.1845   31.3844   46.5291 H   0  0  0  0  0  0  0  0  0  0  0  0
  1  2  1  0
  2  3  2  0
  3  4  1  0
  4  5  2  0
  5  6  1  0
  6  7  1  0
  7  8  2  0
  7  9  1  0
  9 10  1  0
 10 11  1  0
 11 12  2  0
 11 13  1  0
 13 14  2  3
 14 15  1  0
 15 16  2  0
 16 17  1  0
 17 18  2  0
 18 19  1  0
 18 20  1  0
  6 21  2  0
 21  2  1  0
 20 14  1  0
  1 22  1  0
  1 23  1  0
  1 24  1  0
  3 25  1  0
  4 26  1  0
  5 27  1  0
 10 28  1  0
 10 29  1  0
 15 30  1  0
 16 31  1  0
 17 32  1  0
 19 33  1  0
 19 34  1  0
 19 35  1  0
 21 36  1  0
M  CHG  2   9  -1  20  -1
M  END
>  <UniqueID>  (84) 
76

>  <SMILES>  (84) 
Cc1cccc(C(=O)[N-]CC(=O)N=c2cccc(C)[n-]2)c1

>  <Energy>  (84) 
38.60208560673097

>  <Genealogy>  (84) 
Cc1cccc(C(=O)[N-]CC(=O)N=c2cccc(C)[n-]2)c1 (protonated)
Cc1cccc(C(=O)[N-]CC(=O)N=c2cccc(C)[n-]2)c1 (3D coordinates assigned)
Cc1cccc(C(=O)[N-]CC(=O)N=c2cccc(C)[n-]2)c1 (optimized conformer: 38.60208560673097 kcal/mol)

>  <smiles>  (84) 
Cc1cccc(C(=O)NCC(=O)N=c2cccc(C)[nH]2)c1

>  <score_type>  (84) 
oracle

>  <origin>  (84) 
adg

>  <m_score__min__energy>  (84) 
-11.43

>  <m_primary>  (84) 
energy

$$$$
84:0
     RDKit          3D

 66 68  0  0  0  0  0  0  0  0999 V2000
   59.6230   35.1740   46.6770 C   0  0  0  0  0  0  0  0  0  0  0  0
   59.2630   34.7580   45.3630 O   0  0  0  0  0  0  0  0  0  0  0  0
   58.6710   33.5240   45.0580 C   0  0  0  0  0  0  0  0  0  0  0  0
   58.3740   33.1340   43.7370 C   0  0  0  0  0  0  0  0  0  0  0  0
   57.7800   31.8930   43.4870 C   0  0  0  0  0  0  0  0  0  0  0  0
   57.4600   31.0360   44.5470 C   0  0  0  0  0  0  0  0  0  0  0  0
   56.7170   29.4660   44.2470 S   0  0  0  0  0  0  0  0  0  0  0  0
   55.3560   29.4070   44.8840 O   0  0  0  0  0  0  0  0  0  0  0  0
   56.5550   29.3330   42.7610 O   0  0  0  0  0  0  0  0  0  0  0  0
   57.7280   28.1710   44.8660 N   0  0  0  0  0  0  0  0  0  0  0  0
   59.1100   28.6150   45.1640 C   0  0  0  0  0  0  0  0  0  0  0  0
   59.5900   28.2770   46.5640 C   0  0  0  0  0  0  0  0  0  0  0  0
   59.4700   29.2170   47.6000 C   0  0  0  0  0  0  0  0  0  0  0  0
   59.9070   28.9110   48.8910 C   0  0  0  0  0  0  0  0  0  0  0  0
   60.4950   27.6680   49.1660 C   0  0  0  0  0  0  0  0  0  0  0  0
   60.9500   27.3620   50.4960 N   0  0  0  0  0  0  0  0  0  0  0  0
   61.4860   28.4180   51.3620 C   0  0  0  0  0  0  0  0  0  0  0  0
   62.7950   27.9700   52.0460 C   0  0  0  0  0  0  0  0  0  0  0  0
   62.9500   26.4940   52.1130 N   0  0  0  0  0  0  0  0  0  0  0  0
   63.8570   26.1320   53.1890 C   0  0  0  0  0  0  0  0  0  0  0  0
   65.3180   26.4870   53.1340 C   0  0  0  0  0  0  0  0  0  0  0  0
   63.4430   25.5200   54.1640 O   0  0  0  0  0  0  0  0  0  0  0  0
   61.6530   25.8080   52.2870 C   0  0  0  0  0  0  0  0  0  0  0  0
   60.7820   26.0070   51.0380 C   0  0  0  0  0  0  0  0  0  0  0  0
   60.6580   26.7440   48.1230 C   0  0  0  0  0  0  0  0  0  0  0  0
   60.2130   27.0470   46.8330 C   0  0  0  0  0  0  0  0  0  0  0  0
   57.0910   27.4570   45.9940 C   0  0  0  0  0  0  0  0  0  0  0  0
   56.8130   25.9790   45.6460 C   0  0  0  0  0  0  0  0  0  0  0  0
   57.0290   25.0950   46.8810 C   0  0  0  0  0  0  0  0  0  0  0  0
   57.7040   25.5020   44.4910 C   0  0  0  0  0  0  0  0  0  0  0  0
   57.7680   31.4150   45.8590 C   0  0  0  0  0  0  0  0  0  0  0  0
   58.3670   32.6520   46.1110 C   0  0  0  0  0  0  0  0  0  0  0  0
   59.0897   34.5577   47.4157 H   0  0  0  0  0  0  0  0  0  0  0  0
   60.7078   35.0550   46.8150 H   0  0  0  0  0  0  0  0  0  0  0  0
   59.3495   36.2305   46.8150 H   0  0  0  0  0  0  0  0  0  0  0  0
   58.6101   33.8076   42.9000 H   0  0  0  0  0  0  0  0  0  0  0  0
   57.5631   31.5886   42.4525 H   0  0  0  0  0  0  0  0  0  0  0  0
   59.7883   28.1356   44.4428 H   0  0  0  0  0  0  0  0  0  0  0  0
   59.1098   29.7124   45.0890 H   0  0  0  0  0  0  0  0  0  0  0  0
   59.0281   30.2029   47.3933 H   0  0  0  0  0  0  0  0  0  0  0  0
   59.7891   29.6500   49.6972 H   0  0  0  0  0  0  0  0  0  0  0  0
   61.6870   29.3125   50.7542 H   0  0  0  0  0  0  0  0  0  0  0  0
   60.7431   28.6377   52.1429 H   0  0  0  0  0  0  0  0  0  0  0  0
   63.6431   28.3845   51.4813 H   0  0  0  0  0  0  0  0  0  0  0  0
   62.7641   28.3408   53.0812 H   0  0  0  0  0  0  0  0  0  0  0  0
   63.3610   26.1740   51.2030 H   0  0  0  0  0  0  0  0  0  0  0  0
   65.7109   26.5825   54.1570 H   0  0  0  0  0  0  0  0  0  0  0  0
   65.8677   25.6963   52.6024 H   0  0  0  0  0  0  0  0  0  0  0  0
   65.4436   27.4418   52.6024 H   0  0  0  0  0  0  0  0  0  0  0  0
   61.8274   24.7330   52.4420 H   0  0  0  0  0  0  0  0  0  0  0  0
   61.1347   26.2315   53.1599 H   0  0  0  0  0  0  0  0  0  0  0  0
   61.0757   25.2734   50.2728 H   0  0  0  0  0  0  0  0  0  0  0  0
   59.7273   25.8670   51.3174 H   0  0  0  0  0  0  0  0  0  0  0  0
   61.1391   25.7749   48.3216 H   0  0  0  0  0  0  0  0  0  0  0  0
   60.3517   26.3167   46.0222 H   0  0  0  0  0  0  0  0  0  0  0  0
   57.7598   27.4987   46.8663 H   0  0  0  0  0  0  0  0  0  0  0  0
   56.1301   27.9459   46.2122 H   0  0  0  0  0  0  0  0  0  0  0  0
   55.7647   25.8971   45.3228 H   0  0  0  0  0  0  0  0  0  0  0  0
   56.8825   25.6948   47.7914 H   0  0  0  0  0  0  0  0  0  0  0  0
   56.3072   24.2650   46.8686 H   0  0  0  0  0  0  0  0  0  0  0  0
   58.0522   24.6914   46.8686 H   0  0  0  0  0  0  0  0  0  0  0  0
   58.6049   25.0197   44.8980 H   0  0  0  0  0  0  0  0  0  0  0  0
   57.1489   24.7804   43.8736 H   0  0  0  0  0  0  0  0  0  0  0  0
   57.9967   26.3640   43.8736 H   0  0  0  0  0  0  0  0  0  0  0  0
   57.5378   30.7370   46.6940 H   0  0  0  0  0  0  0  0  0  0  0  0
   58.6018   32.9435   47.1454 H   0  0  0  0  0  0  0  0  0  0  0  0
  1  2  1  0
  2  3  1  0
  3  4  2  0
  4  5  1  0
  5  6  2  0
  6  7  1  0
  7  8  2  0
  7  9  2  0
  7 10  1  0
 10 11  1  0
 11 12  1  0
 12 13  2  0
 13 14  1  0
 14 15  2  0
 15 16  1  0
 16 17  1  0
 17 18  1  0
 18 19  1  0
 19 20  1  0
 20 21  1  0
 20 22  2  0
 19 23  1  0
 23 24  1  0
 15 25  1  0
 25 26  2  0
 10 27  1  0
 27 28  1  0
 28 29  1  0
 28 30  1  0
  6 31  1  0
 31 32  2  0
 32  3  1  0
 26 12  1  0
 24 16  1  0
  1 33  1  0
  1 34  1  0
  1 35  1  0
  4 36  1  0
  5 37  1  0
 11 38  1  0
 11 39  1  0
 13 40  1  0
 14 41  1  0
 17 42  1  0
 17 43  1  0
 18 44  1  0
 18 45  1  0
 19 46  1  0
 21 47  1  0
 21 48  1  0
 21 49  1  0
 23 50  1  0
 23 51  1  0
 24 52  1  0
 24 53  1  0
 25 54  1  0
 26 55  1  0
 27 56  1  0
 27 57  1  0
 28 58  1  0
 29 59  1  0
 29 60  1  0
 29 61  1  0
 30 62  1  0
 30 63  1  0
 30 64  1  0
 31 65  1  0
 32 66  1  0
M  CHG  1  19   1
M  END
>  <UniqueID>  (85) 
77

>  <SMILES>  (85) 
COc1ccc(S(=O)(=O)N(Cc2ccc(N3CC[NH+](C(C)=O)CC3)cc2)CC(C)C)cc1

>  <Energy>  (85) 
72.6425780455197

>  <Genealogy>  (85) 
COc1ccc(S(=O)(=O)N(Cc2ccc(N3CC[NH+](C(C)=O)CC3)cc2)CC(C)C)cc1 (protonated)
COc1ccc(S(=O)(=O)N(Cc2ccc(N3CC[NH+](C(C)=O)CC3)cc2)CC(C)C)cc1 (3D coordinates assigned)
COc1ccc(S(=O)(=O)N(Cc2ccc(N3CC[NH+](C(C)=O)CC3)cc2)CC(C)C)cc1 (nonaromatic ring conformer: 72.6425780455197 kcal/mol)

>  <smiles>  (85) 
COc1ccc(S(=O)(=O)N(Cc2ccc(N3CCN(C(C)=O)CC3)cc2)CC(C)C)cc1

>  <score_type>  (85) 
oracle

>  <origin>  (85) 
adg

>  <m_score__min__energy>  (85) 
-7.5499999999999998

>  <m_primary>  (85) 
energy

$$$$
85:0
     RDKit          3D

 53 57  0  0  0  0  0  0  0  0999 V2000
   61.1011   31.4137   53.3354 H   0  0  0  0  0  0  0  0  0  0  0  0
   60.0640   31.0560   53.4160 C   0  0  0  0  0  0  0  0  0  0  0  0
   59.6410   30.4630   54.5630 N   0  0  0  0  0  0  0  0  0  0  0  0
   58.3720   29.9940   54.7070 C   0  0  0  0  0  0  0  0  0  0  0  0
   57.9510   29.3760   56.0030 C   0  0  0  0  0  0  0  0  0  0  0  0
   58.7671   28.7498   56.3926 H   0  0  0  0  0  0  0  0  0  0  0  0
   57.7185   30.1693   56.7286 H   0  0  0  0  0  0  0  0  0  0  0  0
   56.8280   28.5950   55.7990 F   0  0  0  0  0  0  0  0  0  0  0  0
   57.4570   30.1400   53.6570 C   0  0  0  0  0  0  0  0  0  0  0  0
   56.4238   29.7791   53.7674 H   0  0  0  0  0  0  0  0  0  0  0  0
   57.8670   30.7470   52.4700 C   0  0  0  0  0  0  0  0  0  0  0  0
   57.1555   30.8595   51.6387 H   0  0  0  0  0  0  0  0  0  0  0  0
   59.1830   31.2150   52.3310 C   0  0  0  0  0  0  0  0  0  0  0  0
   59.6330   31.8670   51.0740 C   0  0  0  0  0  0  0  0  0  0  0  0
   58.8530   32.8670   50.4690 C   0  0  0  0  0  0  0  0  0  0  0  0
   57.9003   33.1684   50.9290 H   0  0  0  0  0  0  0  0  0  0  0  0
   59.2770   33.4820   49.2880 C   0  0  0  0  0  0  0  0  0  0  0  0
   58.6558   34.2633   48.8258 H   0  0  0  0  0  0  0  0  0  0  0  0
   60.4900   33.1100   48.6870 C   0  0  0  0  0  0  0  0  0  0  0  0
   60.9290   33.7600   47.3960 C   0  0  0  0  0  0  0  0  0  0  0  0
   61.8041   33.2228   47.0015 H   0  0  0  0  0  0  0  0  0  0  0  0
   61.1835   34.8106   47.5997 H   0  0  0  0  0  0  0  0  0  0  0  0
   59.8410   33.7220   46.3890 N   0  0  0  0  0  0  0  0  0  0  0  0
   59.4700   34.9170   45.8060 C   0  0  0  0  0  0  0  0  0  0  0  0
   60.0560   35.9940   46.1090 O   0  0  0  0  0  0  0  0  0  0  0  0
   58.4410   34.9730   44.8690 C   0  0  0  0  0  0  0  0  0  0  0  0
   58.1634   35.9354   44.4142 H   0  0  0  0  0  0  0  0  0  0  0  0
   57.7680   33.8190   44.5100 C   0  0  0  0  0  0  0  0  0  0  0  0
   56.9571   33.8626   43.7681 H   0  0  0  0  0  0  0  0  0  0  0  0
   58.1190   32.6000   45.0900 C   0  0  0  0  0  0  0  0  0  0  0  0
   57.4270   31.4360   44.7230 C   0  0  0  0  0  0  0  0  0  0  0  0
   56.6164   31.4931   43.9816 H   0  0  0  0  0  0  0  0  0  0  0  0
   57.7600   30.2070   45.2920 C   0  0  0  0  0  0  0  0  0  0  0  0
   56.8870   28.7570   44.8030 S   0  0  0  0  0  0  0  0  0  0  0  0
   55.4200   29.0440   44.6360 O   0  0  0  0  0  0  0  0  0  0  0  0
   57.4370   28.2760   43.4900 O   0  0  0  0  0  0  0  0  0  0  0  0
   57.0960   27.5190   46.0000 N   0  0  0  0  0  0  0  0  0  0  0  0
   56.4250   26.4090   45.9930 C   0  0  0  0  0  0  0  0  0  0  0  0
   55.0810   26.3280   45.9970 N   0  0  0  0  0  0  0  0  0  0  0  0
   54.7970   25.0580   45.9900 O   0  0  0  0  0  0  0  0  0  0  0  0
   55.8870   24.3200   45.9800 C   0  0  0  0  0  0  0  0  0  0  0  0
   55.9169   23.2204   45.9715 H   0  0  0  0  0  0  0  0  0  0  0  0
   56.9850   25.1540   45.9820 C   0  0  0  0  0  0  0  0  0  0  0  0
   58.0506   24.8811   45.9762 H   0  0  0  0  0  0  0  0  0  0  0  0
   58.7910   30.1380   46.2300 C   0  0  0  0  0  0  0  0  0  0  0  0
   59.0556   29.1695   46.6794 H   0  0  0  0  0  0  0  0  0  0  0  0
   59.4900   31.2890   46.6030 C   0  0  0  0  0  0  0  0  0  0  0  0
   60.3010   31.2131   47.3423 H   0  0  0  0  0  0  0  0  0  0  0  0
   59.1720   32.5530   46.0450 C   0  0  0  0  0  0  0  0  0  0  0  0
   61.2700   32.1110   49.2890 C   0  0  0  0  0  0  0  0  0  0  0  0
   62.2215   31.8089   48.8271 H   0  0  0  0  0  0  0  0  0  0  0  0
   60.8470   31.4970   50.4710 C   0  0  0  0  0  0  0  0  0  0  0  0
   61.4699   30.7172   50.9334 H   0  0  0  0  0  0  0  0  0  0  0  0
  1  2  1  0
  2  3  2  0
  3  4  1  0
  4  5  1  0
  5  6  1  0
  5  7  1  0
  5  8  1  0
  4  9  2  0
  9 10  1  0
  9 11  1  0
 11 12  1  0
 11 13  2  0
 13 14  1  0
 14 15  2  0
 15 16  1  0
 15 17  1  0
 17 18  1  0
 17 19  2  0
 19 20  1  0
 20 21  1  0
 20 22  1  0
 20 23  1  0
 23 24  1  0
 24 25  2  0
 24 26  1  0
 26 27  1  0
 26 28  2  0
 28 29  1  0
 28 30  1  0
 30 31  2  0
 31 32  1  0
 31 33  1  0
 33 34  1  0
 34 35  2  0
 34 36  2  0
 34 37  1  0
 37 38  2  0
 38 39  1  0
 39 40  1  0
 40 41  1  0
 41 42  1  0
 41 43  2  0
 43 44  1  0
 33 45  2  0
 45 46  1  0
 45 47  1  0
 47 48  1  0
 47 49  2  0
 19 50  1  0
 50 51  1  0
 50 52  2  0
 52 53  1  0
 13  2  1  0
 52 14  1  0
 49 23  1  0
 49 30  1  0
 43 38  1  0
M  CHG  1  39  -1
M  END
>  <UniqueID>  (86) 
78

>  <SMILES>  (86) 
O=c1ccc2cc(S(=O)(=O)/N=c3/cco[n-]3)ccc2n1Cc1ccc(-c2ccc(CF)nc2)cc1

>  <Energy>  (86) 
109.93746190028553

>  <Genealogy>  (86) 
O=c1ccc2cc(S(=O)(=O)N=c3cco[n-]3)ccc2n1Cc1ccc(-c2ccc(CF)nc2)cc1 (protonated)
O=c1ccc2cc(S(=O)(=O)/N=c3/cco[n-]3)ccc2n1Cc1ccc(-c2ccc(CF)nc2)cc1 (cis-trans isomerization)
O=c1ccc2cc(S(=O)(=O)/N=c3/cco[n-]3)ccc2n1Cc1ccc(-c2ccc(CF)nc2)cc1 (3D coordinates assigned)
O=c1ccc2cc(S(=O)(=O)/N=c3/cco[n-]3)ccc2n1Cc1ccc(-c2ccc(CF)nc2)cc1 (optimized conformer: 109.93746190028553 kcal/mol)

>  <smiles>  (86) 
O=c1ccc2cc(S(=O)(=O)N=c3cco[nH]3)ccc2n1Cc1ccc(-c2ccc(CF)nc2)cc1

>  <score_type>  (86) 
oracle

>  <origin>  (86) 
adg

>  <m_score__min__energy>  (86) 
-12.630000000000001

>  <m_primary>  (86) 
energy

$$$$
86:0
     RDKit          3D

 50 53  0  0  0  0  0  0  0  0999 V2000
   57.5245   33.4824   53.0719 H   0  0  0  0  0  0  0  0  0  0  0  0
   57.4970   32.5640   52.4670 C   0  0  0  0  0  0  0  0  0  0  0  0
   56.4910   31.6680   52.6370 N   0  0  0  0  0  0  0  0  0  0  0  0
   56.4250   30.5350   51.8910 C   0  0  0  0  0  0  0  0  0  0  0  0
   55.4660   29.6870   52.1160 N   0  0  0  0  0  0  0  0  0  0  0  0
   54.1270   30.0170   52.5100 C   0  0  0  0  0  0  0  0  0  0  0  0
   53.6120   29.4670   53.6890 C   0  0  0  0  0  0  0  0  0  0  0  0
   54.2049   28.7348   54.2568 H   0  0  0  0  0  0  0  0  0  0  0  0
   52.3490   29.8440   54.1470 C   0  0  0  0  0  0  0  0  0  0  0  0
   51.9395   29.3917   55.0623 H   0  0  0  0  0  0  0  0  0  0  0  0
   51.6040   30.7940   53.4460 C   0  0  0  0  0  0  0  0  0  0  0  0
   50.6139   31.0952   53.8187 H   0  0  0  0  0  0  0  0  0  0  0  0
   52.1100   31.3680   52.2680 C   0  0  0  0  0  0  0  0  0  0  0  0
   51.3450   32.4410   51.5960 C   0  0  0  0  0  0  0  0  0  0  0  0
   50.5870   33.1720   52.2860 O   0  0  0  0  0  0  0  0  0  0  0  0
   51.4020   32.6600   50.1810 N   0  0  0  0  0  0  0  0  0  0  0  0
   50.6430   31.9180   49.1880 C   0  0  0  0  0  0  0  0  0  0  0  0
   49.9449   31.2355   49.6948 H   0  0  0  0  0  0  0  0  0  0  0  0
   50.0770   32.6207   48.5588 H   0  0  0  0  0  0  0  0  0  0  0  0
   51.3327   31.3362   48.5588 H   0  0  0  0  0  0  0  0  0  0  0  0
   53.3800   30.9790   51.8080 C   0  0  0  0  0  0  0  0  0  0  0  0
   53.7918   31.4301   50.8932 H   0  0  0  0  0  0  0  0  0  0  0  0
   57.3940   30.2790   50.9640 N   0  0  0  0  0  0  0  0  0  0  0  0
   58.4270   31.1440   50.7740 C   0  0  0  0  0  0  0  0  0  0  0  0
   59.4620   30.8310   49.8430 N   0  0  0  0  0  0  0  0  0  0  0  0
   60.6610   31.4800   49.2820 C   0  0  0  0  0  0  0  0  0  0  0  0
   60.4317   32.4275   48.7724 H   0  0  0  0  0  0  0  0  0  0  0  0
   61.4416   31.7898   49.9924 H   0  0  0  0  0  0  0  0  0  0  0  0
   61.0050   30.3820   48.3300 C   0  0  0  0  0  0  0  0  0  0  0  0
   61.9890   29.8945   48.2651 H   0  0  0  0  0  0  0  0  0  0  0  0
   60.8210   30.7800   46.9720 O   0  0  0  0  0  0  0  0  0  0  0  0
   59.9090   31.7590   46.5510 C   0  0  0  0  0  0  0  0  0  0  0  0
   58.6380   31.3470   46.1320 C   0  0  0  0  0  0  0  0  0  0  0  0
   58.3825   30.2771   46.1364 H   0  0  0  0  0  0  0  0  0  0  0  0
   57.6930   32.2820   45.7090 C   0  0  0  0  0  0  0  0  0  0  0  0
   56.6962   31.9463   45.3868 H   0  0  0  0  0  0  0  0  0  0  0  0
   58.0080   33.6440   45.6930 C   0  0  0  0  0  0  0  0  0  0  0  0
   57.0720   34.5390   45.2890 F   0  0  0  0  0  0  0  0  0  0  0  0
   59.2830   34.0760   46.0950 C   0  0  0  0  0  0  0  0  0  0  0  0
   59.6150   35.5410   46.1040 C   0  0  0  0  0  0  0  0  0  0  0  0
   59.6947   35.8925   47.1433 H   0  0  0  0  0  0  0  0  0  0  0  0
   60.5727   35.7031   45.5877 H   0  0  0  0  0  0  0  0  0  0  0  0
   58.8208   36.1001   45.5877 H   0  0  0  0  0  0  0  0  0  0  0  0
   60.2260   33.1320   46.5340 C   0  0  0  0  0  0  0  0  0  0  0  0
   61.2194   33.4670   46.8670 H   0  0  0  0  0  0  0  0  0  0  0  0
   59.7920   29.7330   48.9150 C   0  0  0  0  0  0  0  0  0  0  0  0
   59.0034   29.5557   48.1689 H   0  0  0  0  0  0  0  0  0  0  0  0
   59.9194   28.7303   49.3491 H   0  0  0  0  0  0  0  0  0  0  0  0
   58.4940   32.3190   51.5260 C   0  0  0  0  0  0  0  0  0  0  0  0
   59.3159   33.0350   51.3783 H   0  0  0  0  0  0  0  0  0  0  0  0
  1  2  1  0
  2  3  1  0
  3  4  1  0
  4  5  2  0
  5  6  1  0
  6  7  2  0
  7  8  1  0
  7  9  1  0
  9 10  1  0
  9 11  2  0
 11 12  1  0
 11 13  1  0
 13 14  1  0
 14 15  2  0
 14 16  1  0
 16 17  1  0
 17 18  1  0
 17 19  1  0
 17 20  1  0
 13 21  2  0
 21 22  1  0
  4 23  1  0
 23 24  2  0
 24 25  1  0
 25 26  1  0
 26 27  1  0
 26 28  1  0
 26 29  1  0
 29 30  1  0
 29 31  1  0
 31 32  1  0
 32 33  2  0
 33 34  1  0
 33 35  1  0
 35 36  1  0
 35 37  2  0
 37 38  1  0
 37 39  1  0
 39 40  1  0
 40 41  1  0
 40 42  1  0
 40 43  1  0
 39 44  2  0
 44 45  1  0
 29 46  1  0
 46 47  1  0
 46 48  1  0
 24 49  1  0
 49 50  1  0
 49  2  2  0
 21  6  1  0
 46 25  1  0
 44 32  1  0
M  CHG  2   3  -1  16  -1
M  END
>  <UniqueID>  (87) 
79

>  <SMILES>  (87) 
C[N-]C(=O)c1cccc(/N=c2\nc(N3CC(Oc4ccc(F)c(C)c4)C3)cc[n-]2)c1

>  <Energy>  (87) 
107.3380492259654

>  <Genealogy>  (87) 
C[N-]C(=O)c1cccc(N=c2nc(N3CC(Oc4ccc(F)c(C)c4)C3)cc[n-]2)c1 (protonated)
C[N-]C(=O)c1cccc(/N=c2\nc(N3CC(Oc4ccc(F)c(C)c4)C3)cc[n-]2)c1 (cis-trans isomerization)
C[N-]C(=O)c1cccc(/N=c2\nc(N3CC(Oc4ccc(F)c(C)c4)C3)cc[n-]2)c1 (3D coordinates assigned)
C[N-]C(=O)c1cccc(/N=c2\nc(N3CC(Oc4ccc(F)c(C)c4)C3)cc[n-]2)c1 (nonaromatic ring conformer: 107.3380492259654 kcal/mol)

>  <smiles>  (87) 
CNC(=O)c1cccc(N=c2nc(N3CC(Oc4ccc(F)c(C)c4)C3)cc[nH]2)c1

>  <score_type>  (87) 
oracle

>  <origin>  (87) 
adg

>  <m_score__min__energy>  (87) 
-12.869999999999999

>  <m_primary>  (87) 
energy

$$$$
87:0
     RDKit          3D

 30 33  0  0  0  0  0  0  0  0999 V2000
   56.2710   30.0520   42.8230 C   0  0  0  0  0  0  0  0  0  0  0  0
   57.0810   31.1730   42.6170 C   0  0  0  0  0  0  0  0  0  0  0  0
   57.9310   31.6210   43.6320 C   0  0  0  0  0  0  0  0  0  0  0  0
   57.9710   30.9530   44.8660 C   0  0  0  0  0  0  0  0  0  0  0  0
   58.8800   31.4200   45.9330 C   0  0  0  0  0  0  0  0  0  0  0  0
   59.8110   30.6820   46.6870 C   0  0  0  0  0  0  0  0  0  0  0  0
   59.9800   29.2180   46.7240 C   0  0  0  0  0  0  0  0  0  0  0  0
   60.3610   28.3940   45.6700 C   0  0  0  0  0  0  0  0  0  0  0  0
   60.3830   27.0350   46.0080 C   0  0  0  0  0  0  0  0  0  0  0  0
   60.0080   26.7800   47.3200 C   0  0  0  0  0  0  0  0  0  0  0  0
   59.6460   28.2470   48.0560 S   0  0  0  0  0  0  0  0  0  0  0  0
   60.5470   31.5330   47.4540 N   0  0  0  0  0  0  0  0  0  0  0  0
   60.0370   32.7380   47.1570 C   0  0  0  0  0  0  0  0  0  0  0  0
   60.4510   34.2920   47.6220 S   0  0  0  0  0  0  0  0  0  0  0  0
   59.2610   34.9550   46.5790 C   0  0  0  0  0  0  0  0  0  0  0  0
   58.5990   33.9210   45.9020 C   0  0  0  0  0  0  0  0  0  0  0  0
   59.0630   32.7070   46.2710 N   0  0  0  0  0  0  0  0  0  0  0  0
   57.1630   29.8200   45.0640 C   0  0  0  0  0  0  0  0  0  0  0  0
   56.3130   29.3760   44.0460 C   0  0  0  0  0  0  0  0  0  0  0  0
   55.6013   29.7023   42.0235 H   0  0  0  0  0  0  0  0  0  0  0  0
   57.0492   31.7035   41.6539 H   0  0  0  0  0  0  0  0  0  0  0  0
   58.5707   32.4998   43.4633 H   0  0  0  0  0  0  0  0  0  0  0  0
   60.6194   28.7723   44.6700 H   0  0  0  0  0  0  0  0  0  0  0  0
   60.6705   26.2437   45.3000 H   0  0  0  0  0  0  0  0  0  0  0  0
   59.9567   25.7894   47.7956 H   0  0  0  0  0  0  0  0  0  0  0  0
   61.3210   31.3100   48.1180 H   0  0  0  0  0  0  0  0  0  0  0  0
   59.0496   36.0279   46.4596 H   0  0  0  0  0  0  0  0  0  0  0  0
   57.8006   34.0787   45.1620 H   0  0  0  0  0  0  0  0  0  0  0  0
   57.1993   29.2811   46.0223 H   0  0  0  0  0  0  0  0  0  0  0  0
   55.6765   28.4935   44.2079 H   0  0  0  0  0  0  0  0  0  0  0  0
  1  2  2  0
  2  3  1  0
  3  4  2  0
  4  5  1  0
  5  6  2  0
  6  7  1  0
  7  8  2  0
  8  9  1  0
  9 10  2  0
 10 11  1  0
  6 12  1  0
 12 13  2  0
 13 14  1  0
 14 15  1  0
 15 16  2  0
 16 17  1  0
  4 18  1  0
 18 19  2  0
 19  1  1  0
 17  5  1  0
 11  7  1  0
 17 13  1  0
  1 20  1  0
  2 21  1  0
  3 22  1  0
  8 23  1  0
  9 24  1  0
 10 25  1  0
 12 26  1  0
 15 27  1  0
 16 28  1  0
 18 29  1  0
 19 30  1  0
M  CHG  1  12   1
M  END
>  <UniqueID>  (88) 
80

>  <SMILES>  (88) 
c1ccc(-c2c(-c3cccs3)[nH+]c3sccn23)cc1

>  <Energy>  (88) 
146.8917104298072

>  <Genealogy>  (88) 
c1ccc(-c2c(-c3cccs3)[nH+]c3sccn23)cc1 (protonated)
c1ccc(-c2c(-c3cccs3)[nH+]c3sccn23)cc1 (3D coordinates assigned)
c1ccc(-c2c(-c3cccs3)[nH+]c3sccn23)cc1 (optimized conformer: 146.8917104298072 kcal/mol)

>  <smiles>  (88) 
c1ccc(-c2c(-c3cccs3)nc3sccn23)cc1

>  <score_type>  (88) 
oracle

>  <origin>  (88) 
adg

>  <m_score__min__energy>  (88) 
-5.4400000000000004

>  <m_primary>  (88) 
energy

$$$$
88:0
     RDKit          3D

 41 43  0  0  0  0  0  0  0  0999 V2000
   58.4522   31.6972   41.9610 H   0  0  0  0  0  0  0  0  0  0  0  0
   58.0180   31.8630   42.9580 C   0  0  0  0  0  0  0  0  0  0  0  0
   57.8290   33.0850   43.3510 N   0  0  0  0  0  0  0  0  0  0  0  0
   58.7990   33.8230   43.9940 O   0  0  0  0  0  0  0  0  0  0  0  0
   58.9240   33.8330   45.3860 C   0  0  0  0  0  0  0  0  0  0  0  0
   59.9170   34.5870   46.0360 C   0  0  0  0  0  0  0  0  0  0  0  0
   60.6232   35.1893   45.4456 H   0  0  0  0  0  0  0  0  0  0  0  0
   60.0090   34.5730   47.4320 C   0  0  0  0  0  0  0  0  0  0  0  0
   60.7868   35.1642   47.9375 H   0  0  0  0  0  0  0  0  0  0  0  0
   59.1130   33.8080   48.1850 C   0  0  0  0  0  0  0  0  0  0  0  0
   59.1866   33.7973   49.2825 H   0  0  0  0  0  0  0  0  0  0  0  0
   58.1240   33.0570   47.5440 C   0  0  0  0  0  0  0  0  0  0  0  0
   57.4193   32.4555   48.1370 H   0  0  0  0  0  0  0  0  0  0  0  0
   58.0300   33.0700   46.1480 C   0  0  0  0  0  0  0  0  0  0  0  0
   57.2502   32.4781   45.6465 H   0  0  0  0  0  0  0  0  0  0  0  0
   57.6800   30.6810   43.7810 C   0  0  0  0  0  0  0  0  0  0  0  0
   58.6710   29.9070   44.4110 C   0  0  0  0  0  0  0  0  0  0  0  0
   59.7322   30.1646   44.2791 H   0  0  0  0  0  0  0  0  0  0  0  0
   58.3150   28.8120   45.2040 C   0  0  0  0  0  0  0  0  0  0  0  0
   59.0988   28.2141   45.6921 H   0  0  0  0  0  0  0  0  0  0  0  0
   56.9680   28.4700   45.3820 C   0  0  0  0  0  0  0  0  0  0  0  0
   56.6470   27.3510   46.2200 N   0  0  0  0  0  0  0  0  0  0  0  0
   56.4670   25.9930   45.7990 C   0  0  0  0  0  0  0  0  0  0  0  0
   55.3740   25.4010   46.0040 O   0  0  0  0  0  0  0  0  0  0  0  0
   57.5450   25.3220   45.1330 N   0  0  0  0  0  0  0  0  0  0  0  0
   58.4950   25.7530   45.2030 H   0  0  0  0  0  0  0  0  0  0  0  0
   57.4290   24.0400   44.4910 C   0  0  0  0  0  0  0  0  0  0  0  0
   56.4440   23.8490   43.5100 C   0  0  0  0  0  0  0  0  0  0  0  0
   55.7838   24.6828   43.2292 H   0  0  0  0  0  0  0  0  0  0  0  0
   56.2960   22.6060   42.8870 C   0  0  0  0  0  0  0  0  0  0  0  0
   55.5300   22.4688   42.1095 H   0  0  0  0  0  0  0  0  0  0  0  0
   57.1200   21.5380   43.2510 C   0  0  0  0  0  0  0  0  0  0  0  0
   57.0068   20.5622   42.7561 H   0  0  0  0  0  0  0  0  0  0  0  0
   58.0880   21.7100   44.2440 C   0  0  0  0  0  0  0  0  0  0  0  0
   58.7318   20.8669   44.5350 H   0  0  0  0  0  0  0  0  0  0  0  0
   58.2400   22.9530   44.8690 C   0  0  0  0  0  0  0  0  0  0  0  0
   58.9956   23.0811   45.6581 H   0  0  0  0  0  0  0  0  0  0  0  0
   55.9740   29.2730   44.7940 C   0  0  0  0  0  0  0  0  0  0  0  0
   54.9120   29.0371   44.9570 H   0  0  0  0  0  0  0  0  0  0  0  0
   56.3300   30.3700   44.0030 C   0  0  0  0  0  0  0  0  0  0  0  0
   55.5451   30.9942   43.5511 H   0  0  0  0  0  0  0  0  0  0  0  0
  1  2  1  0
  2  3  2  0
  3  4  1  0
  4  5  1  0
  5  6  2  0
  6  7  1  0
  6  8  1  0
  8  9  1  0
  8 10  2  0
 10 11  1  0
 10 12  1  0
 12 13  1  0
 12 14  2  0
 14 15  1  0
  2 16  1  0
 16 17  2  0
 17 18  1  0
 17 19  1  0
 19 20  1  0
 19 21  2  0
 21 22  1  0
 22 23  1  0
 23 24  2  0
 23 25  1  0
 25 26  1  0
 25 27  1  0
 27 28  2  0
 28 29  1  0
 28 30  1  0
 30 31  1  0
 30 32  2  0
 32 33  1  0
 32 34  1  0
 34 35  1  0
 34 36  2  0
 36 37  1  0
 21 38  1  0
 38 39  1  0
 38 40  2  0
 40 41  1  0
 14  5  1  0
 40 16  1  0
 36 27  1  0
M  CHG  1  22  -1
M  END
>  <UniqueID>  (89) 
81

>  <SMILES>  (89) 
O=C([N-]c1ccc(/C=N\Oc2ccccc2)cc1)Nc1ccccc1

>  <Energy>  (89) 
53.971641094967865

>  <Genealogy>  (89) 
O=C([N-]c1ccc(C=NOc2ccccc2)cc1)Nc1ccccc1 (protonated)
O=C([N-]c1ccc(/C=N\Oc2ccccc2)cc1)Nc1ccccc1 (cis-trans isomerization)
O=C([N-]c1ccc(/C=N\Oc2ccccc2)cc1)Nc1ccccc1 (3D coordinates assigned)
O=C([N-]c1ccc(/C=N\Oc2ccccc2)cc1)Nc1ccccc1 (optimized conformer: 53.971641094967865 kcal/mol)

>  <smiles>  (89) 
O=C(Nc1ccccc1)Nc1ccc(C=NOc2ccccc2)cc1

>  <score_type>  (89) 
oracle

>  <origin>  (89) 
adg

>  <m_score__min__energy>  (89) 
-10.18

>  <m_primary>  (89) 
energy

$$$$
89:0
     RDKit          3D

 63 66  0  0  0  0  0  0  0  0999 V2000
   57.0310   30.8110   43.6860 C   0  0  0  0  0  0  0  0  0  0  0  0
   56.9760   31.5950   44.8720 O   0  0  0  0  0  0  0  0  0  0  0  0
   57.6790   32.7960   45.0140 C   0  0  0  0  0  0  0  0  0  0  0  0
   57.8030   33.5760   44.0290 O   0  0  0  0  0  0  0  0  0  0  0  0
   58.2700   33.1520   46.3220 C   0  0  0  0  0  0  0  0  0  0  0  0
   59.1670   34.2280   46.4240 C   0  0  0  0  0  0  0  0  0  0  0  0
   59.7310   34.5620   47.6560 C   0  0  0  0  0  0  0  0  0  0  0  0
   59.4260   33.8160   48.7940 C   0  0  0  0  0  0  0  0  0  0  0  0
   58.5500   32.7200   48.7060 C   0  0  0  0  0  0  0  0  0  0  0  0
   58.2020   31.9350   49.8560 N   0  0  0  0  0  0  0  0  0  0  0  0
   58.1340   32.4110   51.2080 C   0  0  0  0  0  0  0  0  0  0  0  0
   57.0190   32.6690   51.7460 O   0  0  0  0  0  0  0  0  0  0  0  0
   59.4010   32.6760   51.9640 C   0  0  0  0  0  0  0  0  0  0  0  0
   60.5110   31.9000   51.4140 N   0  0  0  0  0  0  0  0  0  0  0  0
   60.4460   30.4670   51.3190 C   0  0  0  0  0  0  0  0  0  0  0  0
   59.5280   29.8340   51.9100 O   0  0  0  0  0  0  0  0  0  0  0  0
   61.4500   29.7380   50.4670 C   0  0  0  0  0  0  0  0  0  0  0  0
   61.9070   30.5600   49.3190 N   0  0  0  0  0  0  0  0  0  0  0  0
   61.1650   30.6000   48.1490 C   0  0  0  0  0  0  0  0  0  0  0  0
   60.0560   29.5970   47.8390 C   0  0  0  0  0  0  0  0  0  0  0  0
   59.9780   29.1860   46.3560 C   0  0  0  0  0  0  0  0  0  0  0  0
   59.1050   27.9710   46.1480 C   0  0  0  0  0  0  0  0  0  0  0  0
   59.6960   26.6910   46.0790 C   0  0  0  0  0  0  0  0  0  0  0  0
   58.9030   25.5590   45.8610 C   0  0  0  0  0  0  0  0  0  0  0  0
   57.5190   25.6920   45.7100 C   0  0  0  0  0  0  0  0  0  0  0  0
   56.9220   26.9570   45.7750 C   0  0  0  0  0  0  0  0  0  0  0  0
   55.5750   27.0760   45.6310 F   0  0  0  0  0  0  0  0  0  0  0  0
   57.7060   28.0960   45.9970 C   0  0  0  0  0  0  0  0  0  0  0  0
   57.1040   29.3160   46.0800 F   0  0  0  0  0  0  0  0  0  0  0  0
   61.3860   31.6310   47.2230 C   0  0  0  0  0  0  0  0  0  0  0  0
   62.4520   32.5030   47.3790 C   0  0  0  0  0  0  0  0  0  0  0  0
   62.6320   33.4150   46.5240 O   0  0  0  0  0  0  0  0  0  0  0  0
   63.3170   32.3510   48.4700 C   0  0  0  0  0  0  0  0  0  0  0  0
   64.4440   33.1860   48.6190 C   0  0  0  0  0  0  0  0  0  0  0  0
   65.3040   33.0250   49.7010 C   0  0  0  0  0  0  0  0  0  0  0  0
   65.0560   32.0380   50.6490 C   0  0  0  0  0  0  0  0  0  0  0  0
   63.9480   31.2010   50.5220 C   0  0  0  0  0  0  0  0  0  0  0  0
   63.0370   31.3520   49.4420 C   0  0  0  0  0  0  0  0  0  0  0  0
   57.9560   32.4130   47.4770 C   0  0  0  0  0  0  0  0  0  0  0  0
   57.1057   29.7466   43.9532 H   0  0  0  0  0  0  0  0  0  0  0  0
   56.1190   30.9773   43.0939 H   0  0  0  0  0  0  0  0  0  0  0  0
   57.9109   31.1030   43.0939 H   0  0  0  0  0  0  0  0  0  0  0  0
   59.4264   34.8107   45.5278 H   0  0  0  0  0  0  0  0  0  0  0  0
   60.4189   35.4172   47.7297 H   0  0  0  0  0  0  0  0  0  0  0  0
   59.8719   34.0857   49.7627 H   0  0  0  0  0  0  0  0  0  0  0  0
   59.6427   33.7470   51.8968 H   0  0  0  0  0  0  0  0  0  0  0  0
   59.2519   32.3797   53.0128 H   0  0  0  0  0  0  0  0  0  0  0  0
   61.3370   32.3950   50.9910 H   0  0  0  0  0  0  0  0  0  0  0  0
   62.3208   29.4793   51.0873 H   0  0  0  0  0  0  0  0  0  0  0  0
   60.9642   28.8360   50.0666 H   0  0  0  0  0  0  0  0  0  0  0  0
   60.2303   28.6922   48.4398 H   0  0  0  0  0  0  0  0  0  0  0  0
   59.1037   30.0908   48.0825 H   0  0  0  0  0  0  0  0  0  0  0  0
   59.5630   30.0242   45.7770 H   0  0  0  0  0  0  0  0  0  0  0  0
   60.9948   28.9338   46.0206 H   0  0  0  0  0  0  0  0  0  0  0  0
   60.7843   26.5830   46.1971 H   0  0  0  0  0  0  0  0  0  0  0  0
   59.3685   24.5637   45.8083 H   0  0  0  0  0  0  0  0  0  0  0  0
   56.8977   24.8004   45.5397 H   0  0  0  0  0  0  0  0  0  0  0  0
   60.7070   31.7482   46.3655 H   0  0  0  0  0  0  0  0  0  0  0  0
   64.6446   33.9703   47.8743 H   0  0  0  0  0  0  0  0  0  0  0  0
   66.1817   33.6796   49.8068 H   0  0  0  0  0  0  0  0  0  0  0  0
   65.7377   31.9170   51.5037 H   0  0  0  0  0  0  0  0  0  0  0  0
   63.7766   30.4120   51.2691 H   0  0  0  0  0  0  0  0  0  0  0  0
   57.2353   31.5844   47.4132 H   0  0  0  0  0  0  0  0  0  0  0  0
  1  2  1  0
  2  3  1  0
  3  4  2  0
  3  5  1  0
  5  6  2  0
  6  7  1  0
  7  8  2  0
  8  9  1  0
  9 10  1  0
 10 11  1  0
 11 12  2  0
 11 13  1  0
 13 14  1  0
 14 15  1  0
 15 16  2  0
 15 17  1  0
 17 18  1  0
 18 19  1  0
 19 20  1  0
 20 21  1  0
 21 22  1  0
 22 23  2  0
 23 24  1  0
 24 25  2  0
 25 26  1  0
 26 27  1  0
 26 28  2  0
 28 29  1  0
 19 30  2  0
 30 31  1  0
 31 32  2  0
 31 33  1  0
 33 34  2  0
 34 35  1  0
 35 36  2  0
 36 37  1  0
 37 38  2  0
  9 39  2  0
 39  5  1  0
 38 18  1  0
 28 22  1  0
 38 33  1  0
  1 40  1  0
  1 41  1  0
  1 42  1  0
  6 43  1  0
  7 44  1  0
  8 45  1  0
 13 46  1  0
 13 47  1  0
 14 48  1  0
 17 49  1  0
 17 50  1  0
 20 51  1  0
 20 52  1  0
 21 53  1  0
 21 54  1  0
 23 55  1  0
 24 56  1  0
 25 57  1  0
 30 58  1  0
 34 59  1  0
 35 60  1  0
 36 61  1  0
 37 62  1  0
 39 63  1  0
M  CHG  1  10  -1
M  END
>  <UniqueID>  (90) 
82

>  <SMILES>  (90) 
COC(=O)c1cccc([N-]C(=O)CNC(=O)Cn2c(CCc3cccc(F)c3F)cc(=O)c3ccccc32)c1

>  <Energy>  (90) 
80.8802891150193

>  <Genealogy>  (90) 
COC(=O)c1cccc([N-]C(=O)CNC(=O)Cn2c(CCc3cccc(F)c3F)cc(=O)c3ccccc32)c1 (protonated)
COC(=O)c1cccc([N-]C(=O)CNC(=O)Cn2c(CCc3cccc(F)c3F)cc(=O)c3ccccc32)c1 (3D coordinates assigned)
COC(=O)c1cccc([N-]C(=O)CNC(=O)Cn2c(CCc3cccc(F)c3F)cc(=O)c3ccccc32)c1 (optimized conformer: 80.8802891150193 kcal/mol)

>  <smiles>  (90) 
COC(=O)c1cccc(NC(=O)CNC(=O)Cn2c(CCc3cccc(F)c3F)cc(=O)c3ccccc32)c1

>  <score_type>  (90) 
oracle

>  <origin>  (90) 
adg

>  <m_score__min__energy>  (90) 
-11.98

>  <m_primary>  (90) 
energy

$$$$
90:0
     RDKit          3D

 52 56  0  0  0  0  0  0  0  0999 V2000
   59.7150   29.3310   48.1740 O   0  0  0  0  0  0  0  0  0  0  0  0
   60.2930   29.7210   47.1230 C   0  0  0  0  0  0  0  0  0  0  0  0
   60.7200   28.7690   46.1370 N   0  0  0  0  0  0  0  0  0  0  0  0
   60.6910   27.3200   46.3570 C   0  0  0  0  0  0  0  0  0  0  0  0
   59.3230   26.7750   46.2460 N   0  0  0  0  0  0  0  0  0  0  0  0
   58.5600   27.3910   45.1370 C   0  0  0  0  0  0  0  0  0  0  0  0
   57.0380   27.1480   45.2460 C   0  0  0  0  0  0  0  0  0  0  0  0
   56.6600   25.8930   46.0670 C   0  0  0  0  0  0  0  0  0  0  0  0
   57.3840   25.8620   47.4450 C   0  0  0  0  0  0  0  0  0  0  0  0
   58.5870   26.8120   47.5190 C   0  0  0  0  0  0  0  0  0  0  0  0
   55.2520   25.9330   46.2980 O   0  0  0  0  0  0  0  0  0  0  0  0
   54.6440   24.8410   45.6220 C   0  0  0  0  0  0  0  0  0  0  0  0
   55.7260   24.0480   45.0250 C   0  0  0  0  0  0  0  0  0  0  0  0
   55.6350   22.8530   44.3080 C   0  0  0  0  0  0  0  0  0  0  0  0
   56.8220   22.2600   43.8480 C   0  0  0  0  0  0  0  0  0  0  0  0
   58.0620   22.8670   44.1210 C   0  0  0  0  0  0  0  0  0  0  0  0
   58.1150   24.0680   44.8470 C   0  0  0  0  0  0  0  0  0  0  0  0
   56.9130   24.6430   45.2830 C   0  0  0  0  0  0  0  0  0  0  0  0
   60.5840   31.1610   46.9380 C   0  0  0  0  0  0  0  0  0  0  0  0
   61.8460   31.6310   47.3370 C   0  0  0  0  0  0  0  0  0  0  0  0
   62.1660   32.9860   47.2480 C   0  0  0  0  0  0  0  0  0  0  0  0
   61.2340   33.8960   46.7580 C   0  0  0  0  0  0  0  0  0  0  0  0
   59.9710   33.4590   46.3350 C   0  0  0  0  0  0  0  0  0  0  0  0
   59.0450   34.3820   45.8260 C   0  0  0  0  0  0  0  0  0  0  0  0
   57.7970   33.9520   45.3760 C   0  0  0  0  0  0  0  0  0  0  0  0
   57.4650   32.5980   45.4200 C   0  0  0  0  0  0  0  0  0  0  0  0
   58.3730   31.6650   45.9270 C   0  0  0  0  0  0  0  0  0  0  0  0
   59.6340   32.0790   46.4120 C   0  0  0  0  0  0  0  0  0  0  0  0
   61.1000   29.1230   45.2300 H   0  0  0  0  0  0  0  0  0  0  0  0
   61.3302   26.8331   45.6057 H   0  0  0  0  0  0  0  0  0  0  0  0
   61.0561   27.1218   47.3755 H   0  0  0  0  0  0  0  0  0  0  0  0
   58.7436   28.4755   45.1447 H   0  0  0  0  0  0  0  0  0  0  0  0
   58.9025   26.9242   44.2017 H   0  0  0  0  0  0  0  0  0  0  0  0
   56.5807   28.0260   45.7255 H   0  0  0  0  0  0  0  0  0  0  0  0
   56.6673   26.9837   44.2235 H   0  0  0  0  0  0  0  0  0  0  0  0
   56.6634   26.1495   48.2248 H   0  0  0  0  0  0  0  0  0  0  0  0
   57.7655   24.8405   47.5902 H   0  0  0  0  0  0  0  0  0  0  0  0
   58.2336   27.8364   47.7081 H   0  0  0  0  0  0  0  0  0  0  0  0
   59.2528   26.4960   48.3356 H   0  0  0  0  0  0  0  0  0  0  0  0
   54.0740   24.2262   46.3341 H   0  0  0  0  0  0  0  0  0  0  0  0
   53.9468   25.1973   44.8494 H   0  0  0  0  0  0  0  0  0  0  0  0
   54.6583   22.3880   44.1086 H   0  0  0  0  0  0  0  0  0  0  0  0
   56.7826   21.3219   43.2748 H   0  0  0  0  0  0  0  0  0  0  0  0
   58.9919   22.3996   43.7649 H   0  0  0  0  0  0  0  0  0  0  0  0
   59.0797   24.5477   45.0690 H   0  0  0  0  0  0  0  0  0  0  0  0
   62.5918   30.9215   47.7247 H   0  0  0  0  0  0  0  0  0  0  0  0
   63.1589   33.3365   47.5664 H   0  0  0  0  0  0  0  0  0  0  0  0
   61.4899   34.9644   46.7023 H   0  0  0  0  0  0  0  0  0  0  0  0
   59.3046   35.4500   45.7817 H   0  0  0  0  0  0  0  0  0  0  0  0
   57.0729   34.6822   44.9855 H   0  0  0  0  0  0  0  0  0  0  0  0
   56.4834   32.2631   45.0537 H   0  0  0  0  0  0  0  0  0  0  0  0
   58.1039   30.5987   45.9488 H   0  0  0  0  0  0  0  0  0  0  0  0
  1  2  2  0
  2  3  1  0
  3  4  1  0
  4  5  1  0
  5  6  1  0
  6  7  1  0
  7  8  1  0
  8  9  1  0
  9 10  1  0
  8 11  1  0
 11 12  1  0
 12 13  1  0
 13 14  2  0
 14 15  1  0
 15 16  2  0
 16 17  1  0
 17 18  2  0
  2 19  1  0
 19 20  2  0
 20 21  1  0
 21 22  2  0
 22 23  1  0
 23 24  2  0
 24 25  1  0
 25 26  2  0
 26 27  1  0
 27 28  2  0
 10  5  1  0
 18 13  1  0
 28 19  1  0
 18  8  1  0
 28 23  1  0
  3 29  1  0
  4 30  1  0
  4 31  1  0
  6 32  1  0
  6 33  1  0
  7 34  1  0
  7 35  1  0
  9 36  1  0
  9 37  1  0
 10 38  1  0
 10 39  1  0
 12 40  1  0
 12 41  1  0
 14 42  1  0
 15 43  1  0
 16 44  1  0
 17 45  1  0
 20 46  1  0
 21 47  1  0
 22 48  1  0
 24 49  1  0
 25 50  1  0
 26 51  1  0
 27 52  1  0
M  END
>  <UniqueID>  (91) 
83

>  <SMILES>  (91) 
O=C(NCN1CCC2(CC1)OCc1ccccc12)c1cccc2ccccc12

>  <Energy>  (91) 
87.31262454845962

>  <Genealogy>  (91) 
O=C(NCN1CCC2(CC1)OCc1ccccc12)c1cccc2ccccc12 (3D coordinates assigned)
O=C(NCN1CCC2(CC1)OCc1ccccc12)c1cccc2ccccc12 (nonaromatic ring conformer: 87.31262454845962 kcal/mol)

>  <smiles>  (91) 
O=C(NCN1CCC2(CC1)OCc1ccccc12)c1cccc2ccccc12

>  <score_type>  (91) 
oracle

>  <origin>  (91) 
adg

>  <m_score__min__energy>  (91) 
-9.0299999999999994

>  <m_primary>  (91) 
energy

$$$$
91:0
     RDKit          3D

 40 42  0  0  0  0  0  0  0  0999 V2000
   55.1740   30.3560   44.7150 O   0  0  0  0  0  0  0  0  0  0  0  0
   55.8110   29.3230   44.3730 C   0  0  0  0  0  0  0  0  0  0  0  0
   56.5780   29.3170   43.0860 C   0  0  0  0  0  0  0  0  0  0  0  0
   56.9680   30.7400   42.6670 C   0  0  0  0  0  0  0  0  0  0  0  0
   57.2870   31.5660   43.8330 N   0  0  0  0  0  0  0  0  0  0  0  0
   58.1180   32.7360   43.7470 C   0  0  0  0  0  0  0  0  0  0  0  0
   58.5630   33.1010   42.6250 O   0  0  0  0  0  0  0  0  0  0  0  0
   58.4910   33.5050   44.9580 C   0  0  0  0  0  0  0  0  0  0  0  0
   59.2910   34.6560   44.8370 C   0  0  0  0  0  0  0  0  0  0  0  0
   59.6750   35.3770   45.9720 C   0  0  0  0  0  0  0  0  0  0  0  0
   59.2580   34.9620   47.2380 C   0  0  0  0  0  0  0  0  0  0  0  0
   58.4520   33.8290   47.3720 C   0  0  0  0  0  0  0  0  0  0  0  0
   58.0660   33.1050   46.2400 C   0  0  0  0  0  0  0  0  0  0  0  0
   55.9050   28.1920   45.2480 N   0  0  0  0  0  0  0  0  0  0  0  0
   57.0960   27.4690   45.6030 C   0  0  0  0  0  0  0  0  0  0  0  0
   57.2150   26.0900   45.3470 C   0  0  0  0  0  0  0  0  0  0  0  0
   58.3840   25.4030   45.6820 C   0  0  0  0  0  0  0  0  0  0  0  0
   59.4560   26.0790   46.2660 C   0  0  0  0  0  0  0  0  0  0  0  0
   59.3700   27.4530   46.5080 C   0  0  0  0  0  0  0  0  0  0  0  0
   60.4210   28.1100   47.0670 N   0  0  0  0  0  0  0  0  0  0  0  0
   60.3810   29.4450   47.3180 C   0  0  0  0  0  0  0  0  0  0  0  0
   59.2420   30.1830   47.0010 C   0  0  0  0  0  0  0  0  0  0  0  0
   58.1440   29.5410   46.4260 C   0  0  0  0  0  0  0  0  0  0  0  0
   58.1900   28.1590   46.1710 C   0  0  0  0  0  0  0  0  0  0  0  0
   57.4914   28.7178   43.2153 H   0  0  0  0  0  0  0  0  0  0  0  0
   55.9392   28.8853   42.3014 H   0  0  0  0  0  0  0  0  0  0  0  0
   57.8485   30.6919   42.0095 H   0  0  0  0  0  0  0  0  0  0  0  0
   56.1156   31.1943   42.1407 H   0  0  0  0  0  0  0  0  0  0  0  0
   56.9410   31.2360   44.7610 H   0  0  0  0  0  0  0  0  0  0  0  0
   59.6171   34.9915   43.8415 H   0  0  0  0  0  0  0  0  0  0  0  0
   60.3061   36.2718   45.8672 H   0  0  0  0  0  0  0  0  0  0  0  0
   59.5643   35.5275   48.1304 H   0  0  0  0  0  0  0  0  0  0  0  0
   58.1205   33.5059   48.3698 H   0  0  0  0  0  0  0  0  0  0  0  0
   57.4262   32.2171   46.3512 H   0  0  0  0  0  0  0  0  0  0  0  0
   56.3798   25.5485   44.8789 H   0  0  0  0  0  0  0  0  0  0  0  0
   58.4600   24.3236   45.4845 H   0  0  0  0  0  0  0  0  0  0  0  0
   60.3700   25.5299   46.5363 H   0  0  0  0  0  0  0  0  0  0  0  0
   61.2495   29.9442   47.7724 H   0  0  0  0  0  0  0  0  0  0  0  0
   59.2086   31.2639   47.2025 H   0  0  0  0  0  0  0  0  0  0  0  0
   57.2418   30.1168   46.1721 H   0  0  0  0  0  0  0  0  0  0  0  0
  1  2  2  0
  2  3  1  0
  3  4  1  0
  4  5  1  0
  5  6  1  0
  6  7  2  0
  6  8  1  0
  8  9  2  0
  9 10  1  0
 10 11  2  0
 11 12  1  0
 12 13  2  0
  2 14  1  0
 14 15  1  0
 15 16  2  0
 16 17  1  0
 17 18  2  0
 18 19  1  0
 19 20  2  0
 20 21  1  0
 21 22  2  0
 22 23  1  0
 23 24  2  0
 13  8  1  0
 24 15  1  0
 24 19  1  0
  3 25  1  0
  3 26  1  0
  4 27  1  0
  4 28  1  0
  5 29  1  0
  9 30  1  0
 10 31  1  0
 11 32  1  0
 12 33  1  0
 13 34  1  0
 16 35  1  0
 17 36  1  0
 18 37  1  0
 21 38  1  0
 22 39  1  0
 23 40  1  0
M  CHG  1  14  -1
M  END
>  <UniqueID>  (92) 
84

>  <SMILES>  (92) 
O=C(CCNC(=O)c1ccccc1)[N-]c1cccc2ncccc12

>  <Energy>  (92) 
45.024616085424384

>  <Genealogy>  (92) 
O=C(CCNC(=O)c1ccccc1)[N-]c1cccc2ncccc12 (protonated)
O=C(CCNC(=O)c1ccccc1)[N-]c1cccc2ncccc12 (3D coordinates assigned)
O=C(CCNC(=O)c1ccccc1)[N-]c1cccc2ncccc12 (optimized conformer: 45.024616085424384 kcal/mol)

>  <smiles>  (92) 
O=C(CCNC(=O)c1ccccc1)Nc1cccc2ncccc12

>  <score_type>  (92) 
oracle

>  <origin>  (92) 
adg

>  <m_score__min__energy>  (92) 
-9.9000000000000004

>  <m_primary>  (92) 
energy

$$$$
92:0
     RDKit          3D

 46 49  0  0  0  0  0  0  0  0999 V2000
   59.3504   33.0951   48.8845 H   0  0  0  0  0  0  0  0  0  0  0  0
   59.2580   33.5810   47.9020 C   0  0  0  0  0  0  0  0  0  0  0  0
   58.2860   33.1850   47.0370 N   0  0  0  0  0  0  0  0  0  0  0  0
   58.1420   33.7520   45.8070 C   0  0  0  0  0  0  0  0  0  0  0  0
   57.0370   33.2860   44.9000 C   0  0  0  0  0  0  0  0  0  0  0  0
   57.3543   33.4120   43.8543 H   0  0  0  0  0  0  0  0  0  0  0  0
   56.1393   33.8865   45.1087 H   0  0  0  0  0  0  0  0  0  0  0  0
   57.8500   26.2540   47.1820 N   0  0  0  0  0  0  0  0  0  0  0  0
   58.5300   27.1340   47.8540 C   0  0  0  0  0  0  0  0  0  0  0  0
   57.0250   29.4950   44.9410 C   0  0  0  0  0  0  0  0  0  0  0  0
   55.8000   29.2720   44.7380 O   0  0  0  0  0  0  0  0  0  0  0  0
   57.9100   28.4400   44.9770 N   0  0  0  0  0  0  0  0  0  0  0  0
   57.3970   27.0600   44.8230 C   0  0  0  0  0  0  0  0  0  0  0  0
   56.5686   27.0603   44.0993 H   0  0  0  0  0  0  0  0  0  0  0  0
   58.2128   26.4149   44.4649 H   0  0  0  0  0  0  0  0  0  0  0  0
   56.9040   26.5340   46.1370 C   0  0  0  0  0  0  0  0  0  0  0  0
   55.6700   26.3290   46.3010 O   0  0  0  0  0  0  0  0  0  0  0  0
   56.7160   31.8760   45.1350 N   0  0  0  0  0  0  0  0  0  0  0  0
   57.4920   30.8220   45.1260 C   0  0  0  0  0  0  0  0  0  0  0  0
   58.1520   28.4270   48.0160 N   0  0  0  0  0  0  0  0  0  0  0  0
   59.0700   29.1040   48.7510 C   0  0  0  0  0  0  0  0  0  0  0  0
   58.9700   30.4540   49.0900 C   0  0  0  0  0  0  0  0  0  0  0  0
   58.1057   31.0513   48.7641 H   0  0  0  0  0  0  0  0  0  0  0  0
   59.9950   31.0360   49.8560 C   0  0  0  0  0  0  0  0  0  0  0  0
   59.9335   32.0987   50.1334 H   0  0  0  0  0  0  0  0  0  0  0  0
   61.1010   30.2670   50.2710 C   0  0  0  0  0  0  0  0  0  0  0  0
   61.8979   30.7331   50.8691 H   0  0  0  0  0  0  0  0  0  0  0  0
   61.1910   28.9090   49.9250 C   0  0  0  0  0  0  0  0  0  0  0  0
   62.0489   28.2994   50.2450 H   0  0  0  0  0  0  0  0  0  0  0  0
   60.1630   28.3560   49.1650 C   0  0  0  0  0  0  0  0  0  0  0  0
   60.0030   26.7810   48.6060 S   0  0  0  0  0  0  0  0  0  0  0  0
   59.2480   28.6730   45.2100 C   0  0  0  0  0  0  0  0  0  0  0  0
   60.2590   27.5540   45.2830 C   0  0  0  0  0  0  0  0  0  0  0  0
   60.4709   27.3195   46.3366 H   0  0  0  0  0  0  0  0  0  0  0  0
   59.8549   26.6615   44.7828 H   0  0  0  0  0  0  0  0  0  0  0  0
   61.1878   27.8658   44.7828 H   0  0  0  0  0  0  0  0  0  0  0  0
   59.7000   29.9880   45.3570 C   0  0  0  0  0  0  0  0  0  0  0  0
   60.7714   30.1857   45.5089 H   0  0  0  0  0  0  0  0  0  0  0  0
   58.8240   31.0180   45.3130 N   0  0  0  0  0  0  0  0  0  0  0  0
   59.1940   31.9880   45.4380 H   0  0  0  0  0  0  0  0  0  0  0  0
   58.9990   34.7960   45.4210 C   0  0  0  0  0  0  0  0  0  0  0  0
   58.8799   35.2786   44.4397 H   0  0  0  0  0  0  0  0  0  0  0  0
   60.0040   35.2150   46.2960 C   0  0  0  0  0  0  0  0  0  0  0  0
   60.6879   36.0250   46.0022 H   0  0  0  0  0  0  0  0  0  0  0  0
   60.1390   34.6040   47.5440 C   0  0  0  0  0  0  0  0  0  0  0  0
   60.9303   34.9246   48.2376 H   0  0  0  0  0  0  0  0  0  0  0  0
  1  2  1  0
  2  3  2  0
  3  4  1  0
  4  5  1  0
  5  6  1  0
  5  7  1  0
  5  8  1  0
  8  9  2  0
  9 10  1  0
 10 11  2  0
 10 12  1  0
 12 13  1  0
 13 14  1  0
 13 15  1  0
 13 16  1  0
 16 17  2  0
 16 18  1  0
 18 19  2  0
 19 20  1  0
 20 21  1  0
 21 22  2  0
 22 23  1  0
 22 24  1  0
 24 25  1  0
 24 26  2  0
 26 27  1  0
 26 28  1  0
 28 29  1  0
 28 30  2  0
 30 31  1  0
 12 32  1  0
 32 33  1  0
 33 34  1  0
 33 35  1  0
 33 36  1  0
 32 37  2  0
 37 38  1  0
 37 39  1  0
 39 40  1  0
  4 41  2  0
 41 42  1  0
 41 43  1  0
 43 44  1  0
 43 45  2  0
 45 46  1  0
 45  2  1  0
 39  9  1  0
 31 19  1  0
 30 21  1  0
M  CHG  1  20  -1
M  END
>  <UniqueID>  (93) 
85

>  <SMILES>  (93) 
Cc1c[nH]/c(=N/Cc2ccccn2)c(=O)n1CC(=O)/N=c1\[n-]c2ccccc2s1

>  <Energy>  (93) 
97.5334242119303

>  <Genealogy>  (93) 
Cc1c[nH]c(=NCc2ccccn2)c(=O)n1CC(=O)N=c1[n-]c2ccccc2s1 (protonated)
Cc1c[nH]/c(=N/Cc2ccccn2)c(=O)n1CC(=O)/N=c1\[n-]c2ccccc2s1 (cis-trans isomerization)
Cc1c[nH]/c(=N/Cc2ccccn2)c(=O)n1CC(=O)/N=c1\[n-]c2ccccc2s1 (3D coordinates assigned)
Cc1c[nH]/c(=N/Cc2ccccn2)c(=O)n1CC(=O)/N=c1\[n-]c2ccccc2s1 (optimized conformer: 97.5334242119303 kcal/mol)

>  <smiles>  (93) 
Cc1c[nH]c(=NCc2ccccn2)c(=O)n1CC(=O)N=c1[nH]c2ccccc2s1

>  <score_type>  (93) 
oracle

>  <origin>  (93) 
adg

>  <m_score__min__energy>  (93) 
-10.44

>  <m_primary>  (93) 
energy

$$$$
93:0
     RDKit          3D

 51 53  0  0  0  0  0  0  0  0999 V2000
   59.2370   35.0370   47.0800 C   0  0  0  0  0  0  0  0  0  0  0  0
   59.7720   34.0850   46.0070 C   0  0  0  0  0  0  0  0  0  0  0  0
   61.1420   33.5260   46.4050 C   0  0  0  0  0  0  0  0  0  0  0  0
   58.7920   32.9660   45.7640 C   0  0  0  0  0  0  0  0  0  0  0  0
   57.5600   33.2240   45.6780 O   0  0  0  0  0  0  0  0  0  0  0  0
   59.2680   31.6250   45.5590 N   0  0  0  0  0  0  0  0  0  0  0  0
   58.4210   30.4630   45.5710 C   0  0  0  0  0  0  0  0  0  0  0  0
   58.6970   29.4210   46.4690 C   0  0  0  0  0  0  0  0  0  0  0  0
   57.8820   28.2850   46.5100 C   0  0  0  0  0  0  0  0  0  0  0  0
   56.7810   28.1730   45.6440 C   0  0  0  0  0  0  0  0  0  0  0  0
   55.9290   27.0190   45.6380 N   0  0  0  0  0  0  0  0  0  0  0  0
   56.2270   25.7110   46.1480 C   0  0  0  0  0  0  0  0  0  0  0  0
   56.3160   25.5590   47.3950 O   0  0  0  0  0  0  0  0  0  0  0  0
   56.4200   24.5330   45.2680 C   0  0  0  0  0  0  0  0  0  0  0  0
   57.7400   24.1920   44.9210 C   0  0  0  0  0  0  0  0  0  0  0  0
   57.9960   23.1550   44.0250 C   0  0  0  0  0  0  0  0  0  0  0  0
   56.9410   22.4380   43.4660 C   0  0  0  0  0  0  0  0  0  0  0  0
   55.6250   22.7420   43.8180 C   0  0  0  0  0  0  0  0  0  0  0  0
   55.3410   23.7730   44.7350 C   0  0  0  0  0  0  0  0  0  0  0  0
   53.9290   23.9880   45.1340 C   0  0  0  0  0  0  0  0  0  0  0  0
   53.5780   25.1080   45.5960 O   0  0  0  0  0  0  0  0  0  0  0  0
   52.9490   22.9660   44.9070 N   0  0  0  0  0  0  0  0  0  0  0  0
   52.0540   22.3970   45.8750 C   0  0  0  0  0  0  0  0  0  0  0  0
   50.8370   23.0140   46.2280 C   0  0  0  0  0  0  0  0  0  0  0  0
   50.0130   22.4370   47.1980 C   0  0  0  0  0  0  0  0  0  0  0  0
   50.3950   21.2510   47.8290 C   0  0  0  0  0  0  0  0  0  0  0  0
   51.6090   20.6450   47.4990 C   0  0  0  0  0  0  0  0  0  0  0  0
   52.4370   21.2200   46.5310 C   0  0  0  0  0  0  0  0  0  0  0  0
   56.4680   29.2400   44.7950 C   0  0  0  0  0  0  0  0  0  0  0  0
   57.2810   30.3760   44.7530 C   0  0  0  0  0  0  0  0  0  0  0  0
   59.4650   34.6313   48.0767 H   0  0  0  0  0  0  0  0  0  0  0  0
   59.7138   36.0218   46.9671 H   0  0  0  0  0  0  0  0  0  0  0  0
   58.1478   35.1418   46.9671 H   0  0  0  0  0  0  0  0  0  0  0  0
   59.8954   34.6524   45.0727 H   0  0  0  0  0  0  0  0  0  0  0  0
   61.2204   33.4940   47.5017 H   0  0  0  0  0  0  0  0  0  0  0  0
   61.2552   32.5098   45.9995 H   0  0  0  0  0  0  0  0  0  0  0  0
   61.9339   34.1729   45.9995 H   0  0  0  0  0  0  0  0  0  0  0  0
   60.2740   31.4980   45.3080 H   0  0  0  0  0  0  0  0  0  0  0  0
   59.5607   29.4980   47.1458 H   0  0  0  0  0  0  0  0  0  0  0  0
   58.1036   27.4767   47.2224 H   0  0  0  0  0  0  0  0  0  0  0  0
   58.5795   24.7498   45.3615 H   0  0  0  0  0  0  0  0  0  0  0  0
   59.0331   22.9027   43.7591 H   0  0  0  0  0  0  0  0  0  0  0  0
   57.1450   21.6314   42.7464 H   0  0  0  0  0  0  0  0  0  0  0  0
   54.7983   22.1687   43.3733 H   0  0  0  0  0  0  0  0  0  0  0  0
   50.5351   23.9519   45.7389 H   0  0  0  0  0  0  0  0  0  0  0  0
   49.0607   22.9183   47.4654 H   0  0  0  0  0  0  0  0  0  0  0  0
   49.7399   20.7945   48.5856 H   0  0  0  0  0  0  0  0  0  0  0  0
   51.9137   19.7149   48.0010 H   0  0  0  0  0  0  0  0  0  0  0  0
   53.3972   20.7445   46.2822 H   0  0  0  0  0  0  0  0  0  0  0  0
   55.5748   29.1844   44.1554 H   0  0  0  0  0  0  0  0  0  0  0  0
   57.0277   31.2058   44.0768 H   0  0  0  0  0  0  0  0  0  0  0  0
  1  2  1  0
  2  3  1  0
  2  4  1  0
  4  5  2  0
  4  6  1  0
  6  7  1  0
  7  8  2  0
  8  9  1  0
  9 10  2  0
 10 11  1  0
 11 12  1  0
 12 13  2  0
 12 14  1  0
 14 15  2  0
 15 16  1  0
 16 17  2  0
 17 18  1  0
 18 19  2  0
 19 20  1  0
 20 21  2  0
 20 22  1  0
 22 23  1  0
 23 24  2  0
 24 25  1  0
 25 26  2  0
 26 27  1  0
 27 28  2  0
 10 29  1  0
 29 30  2  0
 30  7  1  0
 19 14  1  0
 28 23  1  0
  1 31  1  0
  1 32  1  0
  1 33  1  0
  2 34  1  0
  3 35  1  0
  3 36  1  0
  3 37  1  0
  6 38  1  0
  8 39  1  0
  9 40  1  0
 15 41  1  0
 16 42  1  0
 17 43  1  0
 18 44  1  0
 24 45  1  0
 25 46  1  0
 26 47  1  0
 27 48  1  0
 28 49  1  0
 29 50  1  0
 30 51  1  0
M  CHG  2  11  -1  22  -1
M  END
>  <UniqueID>  (94) 
86

>  <SMILES>  (94) 
CC(C)C(=O)Nc1ccc([N-]C(=O)c2ccccc2C(=O)[N-]c2ccccc2)cc1

>  <Energy>  (94) 
65.99313677070087

>  <Genealogy>  (94) 
CC(C)C(=O)Nc1ccc([N-]C(=O)c2ccccc2C(=O)[N-]c2ccccc2)cc1 (protonated)
CC(C)C(=O)Nc1ccc([N-]C(=O)c2ccccc2C(=O)[N-]c2ccccc2)cc1 (3D coordinates assigned)
CC(C)C(=O)Nc1ccc([N-]C(=O)c2ccccc2C(=O)[N-]c2ccccc2)cc1 (optimized conformer: 65.99313677070087 kcal/mol)

>  <smiles>  (94) 
CC(C)C(=O)Nc1ccc(NC(=O)c2ccccc2C(=O)Nc2ccccc2)cc1

>  <score_type>  (94) 
oracle

>  <origin>  (94) 
adg

>  <m_score__min__energy>  (94) 
-12.32

>  <m_primary>  (94) 
energy

$$$$
94:0
     RDKit          3D

 45 47  0  0  0  0  0  0  0  0999 V2000
   57.4850   28.5860   43.4080 N   0  0  0  0  0  0  0  0  0  0  0  0
   56.6910   30.0540   43.8580 S   0  0  0  0  0  0  0  0  0  0  0  0
   55.4660   29.7090   44.6590 O   0  0  0  0  0  0  0  0  0  0  0  0
   56.2710   30.8020   42.6250 O   0  0  0  0  0  0  0  0  0  0  0  0
   57.7810   31.0610   44.8240 C   0  0  0  0  0  0  0  0  0  0  0  0
   57.7420   32.4550   44.6600 C   0  0  0  0  0  0  0  0  0  0  0  0
   58.5590   33.2830   45.4320 C   0  0  0  0  0  0  0  0  0  0  0  0
   59.4210   32.7300   46.3780 C   0  0  0  0  0  0  0  0  0  0  0  0
   59.4770   31.3450   46.5490 C   0  0  0  0  0  0  0  0  0  0  0  0
   58.6710   30.5000   45.7710 C   0  0  0  0  0  0  0  0  0  0  0  0
   58.7860   29.0420   45.9680 C   0  0  0  0  0  0  0  0  0  0  0  0
   60.0230   28.4020   45.8100 C   0  0  0  0  0  0  0  0  0  0  0  0
   60.1280   27.0210   45.9910 C   0  0  0  0  0  0  0  0  0  0  0  0
   59.0000   26.2590   46.3190 C   0  0  0  0  0  0  0  0  0  0  0  0
   59.1570   24.8490   46.5230 N   0  0  0  0  0  0  0  0  0  0  0  0
   58.2060   23.8320   46.1820 C   0  0  0  0  0  0  0  0  0  0  0  0
   57.5270   23.2630   47.0800 O   0  0  0  0  0  0  0  0  0  0  0  0
   57.9780   23.4730   44.7370 C   0  0  0  0  0  0  0  0  0  0  0  0
   58.1470   21.9520   44.5230 C   0  0  0  0  0  0  0  0  0  0  0  0
   57.3470   21.4840   43.3020 C   0  0  0  0  0  0  0  0  0  0  0  0
   55.8970   21.7090   43.4650 N   0  0  0  0  0  0  0  0  0  0  0  0
   55.5390   22.8810   44.2910 C   0  0  0  0  0  0  0  0  0  0  0  0
   56.6040   23.9860   44.2450 C   0  0  0  0  0  0  0  0  0  0  0  0
   57.7650   26.9060   46.5100 C   0  0  0  0  0  0  0  0  0  0  0  0
   57.6610   28.2900   46.3380 C   0  0  0  0  0  0  0  0  0  0  0  0
   58.1350   28.8140   42.6270 H   0  0  0  0  0  0  0  0  0  0  0  0
   56.7540   27.9500   43.0200 H   0  0  0  0  0  0  0  0  0  0  0  0
   57.0623   32.8982   43.9173 H   0  0  0  0  0  0  0  0  0  0  0  0
   58.5226   34.3737   45.2936 H   0  0  0  0  0  0  0  0  0  0  0  0
   60.0578   33.3853   46.9904 H   0  0  0  0  0  0  0  0  0  0  0  0
   60.1572   30.9139   47.2983 H   0  0  0  0  0  0  0  0  0  0  0  0
   60.9139   28.9892   45.5426 H   0  0  0  0  0  0  0  0  0  0  0  0
   61.1045   26.5281   45.8750 H   0  0  0  0  0  0  0  0  0  0  0  0
   58.7410   23.9769   44.1256 H   0  0  0  0  0  0  0  0  0  0  0  0
   59.2119   21.7257   44.3653 H   0  0  0  0  0  0  0  0  0  0  0  0
   57.7727   21.4260   45.4136 H   0  0  0  0  0  0  0  0  0  0  0  0
   57.6942   22.0382   42.4175 H   0  0  0  0  0  0  0  0  0  0  0  0
   57.5097   20.4023   43.1863 H   0  0  0  0  0  0  0  0  0  0  0  0
   55.4820   21.8350   42.5110 H   0  0  0  0  0  0  0  0  0  0  0  0
   54.5879   23.2934   43.9232 H   0  0  0  0  0  0  0  0  0  0  0  0
   55.4585   22.5404   45.3338 H   0  0  0  0  0  0  0  0  0  0  0  0
   56.7056   24.3410   43.2088 H   0  0  0  0  0  0  0  0  0  0  0  0
   56.2829   24.8014   44.9098 H   0  0  0  0  0  0  0  0  0  0  0  0
   56.8783   26.3211   46.7956 H   0  0  0  0  0  0  0  0  0  0  0  0
   56.6939   28.7906   46.4934 H   0  0  0  0  0  0  0  0  0  0  0  0
  1  2  1  0
  2  3  2  0
  2  4  2  0
  2  5  1  0
  5  6  2  0
  6  7  1  0
  7  8  2  0
  8  9  1  0
  9 10  2  0
 10 11  1  0
 11 12  2  0
 12 13  1  0
 13 14  2  0
 14 15  1  0
 15 16  1  0
 16 17  2  0
 16 18  1  0
 18 19  1  0
 19 20  1  0
 20 21  1  0
 21 22  1  0
 22 23  1  0
 14 24  1  0
 24 25  2  0
 10  5  1  0
 25 11  1  0
 23 18  1  0
  1 26  1  0
  1 27  1  0
  6 28  1  0
  7 29  1  0
  8 30  1  0
  9 31  1  0
 12 32  1  0
 13 33  1  0
 18 34  1  0
 19 35  1  0
 19 36  1  0
 20 37  1  0
 20 38  1  0
 21 39  1  0
 22 40  1  0
 22 41  1  0
 23 42  1  0
 23 43  1  0
 24 44  1  0
 25 45  1  0
M  CHG  1  15  -1
M  END
>  <UniqueID>  (95) 
87

>  <SMILES>  (95) 
NS(=O)(=O)c1ccccc1-c1ccc([N-]C(=O)C2CCNCC2)cc1

>  <Energy>  (95) 
61.79008458796374

>  <Genealogy>  (95) 
NS(=O)(=O)c1ccccc1-c1ccc([N-]C(=O)C2CCNCC2)cc1 (protonated)
NS(=O)(=O)c1ccccc1-c1ccc([N-]C(=O)C2CCNCC2)cc1 (3D coordinates assigned)
NS(=O)(=O)c1ccccc1-c1ccc([N-]C(=O)C2CCNCC2)cc1 (nonaromatic ring conformer: 61.79008458796374 kcal/mol)

>  <smiles>  (95) 
NS(=O)(=O)c1ccccc1-c1ccc(NC(=O)C2CCNCC2)cc1

>  <score_type>  (95) 
oracle

>  <origin>  (95) 
adg

>  <m_score__min__energy>  (95) 
-11.31

>  <m_primary>  (95) 
energy

$$$$
