0:0
     RDKit          3D

 38 40  0  0  0  0  0  0  0  0999 V2000
   55.9150   24.1320   44.4900 C   0  0  0  0  0  0  0  0  0  0  0  0
   54.9580   24.7160   45.8690 S   0  0  0  0  0  0  0  0  0  0  0  0
   55.4420   24.0480   47.1250 O   0  0  0  0  0  0  0  0  0  0  0  0
   53.5110   24.3880   45.6360 O   0  0  0  0  0  0  0  0  0  0  0  0
   55.1560   26.4330   46.0010 N   0  0  0  0  0  0  0  0  0  0  0  0
   56.3930   27.1370   45.8230 C   0  0  0  0  0  0  0  0  0  0  0  0
   57.6260   26.5780   46.2030 C   0  0  0  0  0  0  0  0  0  0  0  0
   58.8090   27.2970   46.0260 C   0  0  0  0  0  0  0  0  0  0  0  0
   58.7750   28.5850   45.4890 C   0  0  0  0  0  0  0  0  0  0  0  0
   57.5520   29.1700   45.1290 C   0  0  0  0  0  0  0  0  0  0  0  0
   57.5360   30.5610   44.6170 C   0  0  0  0  0  0  0  0  0  0  0  0
   57.8350   30.7660   43.4120 O   0  0  0  0  0  0  0  0  0  0  0  0
   57.1840   31.6860   45.4410 N   0  0  0  0  0  0  0  0  0  0  0  0
   57.9730   32.6570   45.7970 C   0  0  0  0  0  0  0  0  0  0  0  0
   59.1690   32.4860   46.3980 N   0  0  0  0  0  0  0  0  0  0  0  0
   59.7860   33.6690   46.6640 C   0  0  0  0  0  0  0  0  0  0  0  0
   61.0920   33.7150   47.3700 C   0  0  0  0  0  0  0  0  0  0  0  0
   62.3030   33.4300   46.7060 C   0  0  0  0  0  0  0  0  0  0  0  0
   63.5190   33.4900   47.3940 C   0  0  0  0  0  0  0  0  0  0  0  0
   63.5450   33.8320   48.7470 C   0  0  0  0  0  0  0  0  0  0  0  0
   62.3530   34.1080   49.4190 C   0  0  0  0  0  0  0  0  0  0  0  0
   61.1350   34.0480   48.7390 C   0  0  0  0  0  0  0  0  0  0  0  0
   59.0660   34.7970   46.2510 C   0  0  0  0  0  0  0  0  0  0  0  0
   57.6270   34.2770   45.5450 S   0  0  0  0  0  0  0  0  0  0  0  0
   56.3630   28.4270   45.2670 C   0  0  0  0  0  0  0  0  0  0  0  0
   55.1470   28.9660   44.8540 O   0  0  0  0  0  0  0  0  0  0  0  0
   56.7993   23.5923   44.8597 H   0  0  0  0  0  0  0  0  0  0  0  0
   55.3011   23.4544   43.8784 H   0  0  0  0  0  0  0  0  0  0  0  0
   56.2368   24.9878   43.8784 H   0  0  0  0  0  0  0  0  0  0  0  0
   57.6583   25.5697   46.6416 H   0  0  0  0  0  0  0  0  0  0  0  0
   59.7716   26.8471   46.3107 H   0  0  0  0  0  0  0  0  0  0  0  0
   59.7118   29.1439   45.3475 H   0  0  0  0  0  0  0  0  0  0  0  0
   62.2910   33.1588   45.6400 H   0  0  0  0  0  0  0  0  0  0  0  0
   64.4584   33.2669   46.8670 H   0  0  0  0  0  0  0  0  0  0  0  0
   64.5040   33.8840   49.2833 H   0  0  0  0  0  0  0  0  0  0  0  0
   62.3733   34.3733   50.4863 H   0  0  0  0  0  0  0  0  0  0  0  0
   60.1998   34.2627   49.2769 H   0  0  0  0  0  0  0  0  0  0  0  0
   59.3852   35.8432   46.3675 H   0  0  0  0  0  0  0  0  0  0  0  0
  1  2  1  0
  2  3  2  0
  2  4  2  0
  2  5  1  0
  5  6  1  0
  6  7  2  0
  7  8  1  0
  8  9  2  0
  9 10  1  0
 10 11  1  0
 11 12  2  0
 11 13  1  0
 13 14  2  3
 14 15  1  0
 15 16  1  0
 16 17  1  0
 17 18  2  0
 18 19  1  0
 19 20  2  0
 20 21  1  0
 21 22  2  0
 16 23  2  0
 23 24  1  0
 10 25  2  0
 25 26  1  0
 25  6  1  0
 24 14  1  0
 22 17  1  0
  1 27  1  0
  1 28  1  0
  1 29  1  0
  7 30  1  0
  8 31  1  0
  9 32  1  0
 18 33  1  0
 19 34  1  0
 20 35  1  0
 21 36  1  0
 22 37  1  0
 23 38  1  0
M  CHG  3   5  -1  15  -1  26  -1
M  END
>  <UniqueID>  (1) 
1

>  <SMILES>  (1) 
CS(=O)(=O)[N-]c1cccc(C(=O)N=c2[n-]c(-c3ccccc3)cs2)c1[O-]

>  <Energy>  (1) 
78.87531042944913

>  <Genealogy>  (1) 
CS(=O)(=O)[N-]c1cccc(C(=O)N=c2[n-]c(-c3ccccc3)cs2)c1[O-] (protonated)
CS(=O)(=O)[N-]c1cccc(C(=O)N=c2[n-]c(-c3ccccc3)cs2)c1[O-] (3D coordinates assigned)
CS(=O)(=O)[N-]c1cccc(C(=O)N=c2[n-]c(-c3ccccc3)cs2)c1[O-] (optimized conformer: 78.87531042944913 kcal/mol)

>  <smiles>  (1) 
CS(=O)(=O)Nc1cccc(C(=O)N=c2[nH]c(-c3ccccc3)cs2)c1O

>  <score_type>  (1) 
oracle

>  <origin>  (1) 
adg

>  <m_score__min__energy>  (1) 
-16.949999999999999

>  <m_primary>  (1) 
energy

$$$$
1:0
     RDKit          3D

 43 44  0  0  0  0  0  0  0  0999 V2000
   58.8670   22.0450   44.1940 C   0  0  0  0  0  0  0  0  0  0  0  0
   57.6450   21.1400   43.9990 C   0  0  0  0  0  0  0  0  0  0  0  0
   56.6010   21.8150   43.0980 C   0  0  0  0  0  0  0  0  0  0  0  0
   57.0460   20.6740   45.3460 C   0  0  0  0  0  0  0  0  0  0  0  0
   55.7390   21.3440   45.6900 C   0  0  0  0  0  0  0  0  0  0  0  0
   54.7120   20.6300   45.8500 O   0  0  0  0  0  0  0  0  0  0  0  0
   55.6120   22.8170   45.7720 C   0  0  0  0  0  0  0  0  0  0  0  0
   54.3930   23.4290   45.4260 C   0  0  0  0  0  0  0  0  0  0  0  0
   53.3190   22.6550   44.9840 O   0  0  0  0  0  0  0  0  0  0  0  0
   54.2570   24.8180   45.5140 C   0  0  0  0  0  0  0  0  0  0  0  0
   55.3280   25.6100   45.9290 C   0  0  0  0  0  0  0  0  0  0  0  0
   55.1620   26.9900   45.9920 O   0  0  0  0  0  0  0  0  0  0  0  0
   56.5590   25.0190   46.2650 C   0  0  0  0  0  0  0  0  0  0  0  0
   57.7020   25.8740   46.6620 C   0  0  0  0  0  0  0  0  0  0  0  0
   57.9220   26.0850   47.8860 O   0  0  0  0  0  0  0  0  0  0  0  0
   58.5420   26.5890   45.6370 C   0  0  0  0  0  0  0  0  0  0  0  0
   58.6470   28.0860   45.9440 C   0  0  0  0  0  0  0  0  0  0  0  0
   57.8150   28.8740   45.0320 N   0  0  0  0  0  0  0  0  0  0  0  0
   57.3920   28.4930   43.8120 C   0  0  0  0  0  0  0  0  0  0  0  0
   56.6590   29.5100   43.2360 C   0  0  0  0  0  0  0  0  0  0  0  0
   56.6340   30.5450   44.1500 C   0  0  0  0  0  0  0  0  0  0  0  0
   57.3540   30.1210   45.2470 C   0  0  0  0  0  0  0  0  0  0  0  0
   56.6830   23.6140   46.2270 C   0  0  0  0  0  0  0  0  0  0  0  0
   57.8440   23.0090   46.7000 O   0  0  0  0  0  0  0  0  0  0  0  0
   59.0533   22.1829   45.2693 H   0  0  0  0  0  0  0  0  0  0  0  0
   59.7468   21.5789   43.7263 H   0  0  0  0  0  0  0  0  0  0  0  0
   58.6777   23.0225   43.7263 H   0  0  0  0  0  0  0  0  0  0  0  0
   57.9831   20.2286   43.4841 H   0  0  0  0  0  0  0  0  0  0  0  0
   55.8406   22.3066   43.7226 H   0  0  0  0  0  0  0  0  0  0  0  0
   57.0949   22.5652   42.4630 H   0  0  0  0  0  0  0  0  0  0  0  0
   56.1196   21.0568   42.4630 H   0  0  0  0  0  0  0  0  0  0  0  0
   56.8772   19.5883   45.2944 H   0  0  0  0  0  0  0  0  0  0  0  0
   57.7657   20.9488   46.1312 H   0  0  0  0  0  0  0  0  0  0  0  0
   53.2190   21.6820   45.2500 H   0  0  0  0  0  0  0  0  0  0  0  0
   53.2980   25.2899   45.2540 H   0  0  0  0  0  0  0  0  0  0  0  0
   59.5518   26.1527   45.6348 H   0  0  0  0  0  0  0  0  0  0  0  0
   58.0627   26.4706   44.6540 H   0  0  0  0  0  0  0  0  0  0  0  0
   58.3147   28.2644   46.9773 H   0  0  0  0  0  0  0  0  0  0  0  0
   59.6946   28.3952   45.8143 H   0  0  0  0  0  0  0  0  0  0  0  0
   57.5993   27.5187   43.3453 H   0  0  0  0  0  0  0  0  0  0  0  0
   56.1867   29.4987   42.2426 H   0  0  0  0  0  0  0  0  0  0  0  0
   56.1365   31.5183   44.0269 H   0  0  0  0  0  0  0  0  0  0  0  0
   57.5257   30.7115   46.1590 H   0  0  0  0  0  0  0  0  0  0  0  0
  1  2  1  0
  2  3  1  0
  2  4  1  0
  4  5  1  0
  5  6  2  0
  5  7  1  0
  7  8  2  0
  8  9  1  0
  8 10  1  0
 10 11  2  0
 11 12  1  0
 11 13  1  0
 13 14  1  0
 14 15  2  0
 14 16  1  0
 16 17  1  0
 17 18  1  0
 18 19  1  0
 19 20  2  0
 20 21  1  0
 21 22  2  0
 13 23  2  0
 23 24  1  0
 23  7  1  0
 22 18  1  0
  1 25  1  0
  1 26  1  0
  1 27  1  0
  2 28  1  0
  3 29  1  0
  3 30  1  0
  3 31  1  0
  4 32  1  0
  4 33  1  0
  9 34  1  0
 10 35  1  0
 16 36  1  0
 16 37  1  0
 17 38  1  0
 17 39  1  0
 19 40  1  0
 20 41  1  0
 21 42  1  0
 22 43  1  0
M  CHG  2  12  -1  24  -1
M  END
>  <UniqueID>  (2) 
2

>  <SMILES>  (2) 
CC(C)CC(=O)c1c(O)cc([O-])c(C(=O)CCn2cccc2)c1[O-]

>  <Energy>  (2) 
68.69332153073827

>  <Genealogy>  (2) 
CC(C)CC(=O)c1c(O)cc([O-])c(C(=O)CCn2cccc2)c1[O-] (protonated)
CC(C)CC(=O)c1c(O)cc([O-])c(C(=O)CCn2cccc2)c1[O-] (3D coordinates assigned)
CC(C)CC(=O)c1c(O)cc([O-])c(C(=O)CCn2cccc2)c1[O-] (optimized conformer: 68.69332153073827 kcal/mol)

>  <smiles>  (2) 
CC(C)CC(=O)c1c(O)cc(O)c(C(=O)CCn2cccc2)c1O

>  <score_type>  (2) 
oracle

>  <origin>  (2) 
adg

>  <m_score__min__energy>  (2) 
-11.81

>  <m_primary>  (2) 
energy

$$$$
2:0
     RDKit          3D

 53 56  0  0  0  0  0  0  0  0999 V2000
   55.5130   28.9480   44.9620 N   0  0  0  0  0  0  0  0  0  0  0  0
   56.6830   29.8050   44.0260 S   0  0  0  0  0  0  0  0  0  0  0  0
   56.0050   30.4630   42.8570 O   0  0  0  0  0  0  0  0  0  0  0  0
   57.7130   28.8410   43.5050 O   0  0  0  0  0  0  0  0  0  0  0  0
   57.4640   31.0190   45.0320 C   0  0  0  0  0  0  0  0  0  0  0  0
   57.0410   32.3540   44.9750 C   0  0  0  0  0  0  0  0  0  0  0  0
   57.6660   33.3240   45.7630 C   0  0  0  0  0  0  0  0  0  0  0  0
   58.7280   32.9730   46.6110 C   0  0  0  0  0  0  0  0  0  0  0  0
   59.3790   34.0190   47.4850 C   0  0  0  0  0  0  0  0  0  0  0  0
   60.4200   33.4770   48.4590 C   0  0  0  0  0  0  0  0  0  0  0  0
   61.7990   33.6160   48.1950 C   0  0  0  0  0  0  0  0  0  0  0  0
   62.7420   33.1000   49.0810 C   0  0  0  0  0  0  0  0  0  0  0  0
   62.3430   32.4810   50.2180 N   0  0  0  0  0  0  0  0  0  0  0  0
   61.0300   32.3500   50.5400 C   0  0  0  0  0  0  0  0  0  0  0  0
   60.6820   31.7190   51.7370 C   0  0  0  0  0  0  0  0  0  0  0  0
   59.3430   31.5930   52.1030 C   0  0  0  0  0  0  0  0  0  0  0  0
   58.3260   32.1050   51.2820 C   0  0  0  0  0  0  0  0  0  0  0  0
   56.9050   31.9800   51.6860 C   0  0  0  0  0  0  0  0  0  0  0  0
   56.3580   32.8920   52.3650 O   0  0  0  0  0  0  0  0  0  0  0  0
   56.1470   30.8230   51.3140 N   0  0  0  0  0  0  0  0  0  0  0  0
   54.8780   30.4530   51.9340 C   0  0  0  0  0  0  0  0  0  0  0  0
   53.7140   31.1550   51.2300 C   0  0  0  0  0  0  0  0  0  0  0  0
   52.5160   31.2360   52.1420 C   0  0  0  0  0  0  0  0  0  0  0  0
   52.5120   30.5230   53.3530 C   0  0  0  0  0  0  0  0  0  0  0  0
   51.4230   30.6190   54.2250 C   0  0  0  0  0  0  0  0  0  0  0  0
   50.3360   31.4340   53.9020 C   0  0  0  0  0  0  0  0  0  0  0  0
   50.3370   32.1580   52.7080 C   0  0  0  0  0  0  0  0  0  0  0  0
   51.4230   32.0680   51.8300 C   0  0  0  0  0  0  0  0  0  0  0  0
   51.4070   32.8080   50.6510 O   0  0  0  0  0  0  0  0  0  0  0  0
   58.6750   32.7400   50.0740 C   0  0  0  0  0  0  0  0  0  0  0  0
   60.0270   32.8590   49.6800 C   0  0  0  0  0  0  0  0  0  0  0  0
   59.1520   31.6350   46.6660 C   0  0  0  0  0  0  0  0  0  0  0  0
   58.5270   30.6660   45.8750 C   0  0  0  0  0  0  0  0  0  0  0  0
   54.5910   29.4110   44.7950 H   0  0  0  0  0  0  0  0  0  0  0  0
   56.2143   32.6391   44.3077 H   0  0  0  0  0  0  0  0  0  0  0  0
   57.3238   34.3685   45.7185 H   0  0  0  0  0  0  0  0  0  0  0  0
   59.8713   34.7539   46.8311 H   0  0  0  0  0  0  0  0  0  0  0  0
   58.5766   34.4548   48.0983 H   0  0  0  0  0  0  0  0  0  0  0  0
   62.1315   34.1350   47.2839 H   0  0  0  0  0  0  0  0  0  0  0  0
   63.8146   33.1955   48.8566 H   0  0  0  0  0  0  0  0  0  0  0  0
   61.4687   31.3196   52.3939 H   0  0  0  0  0  0  0  0  0  0  0  0
   59.0807   31.0876   53.0441 H   0  0  0  0  0  0  0  0  0  0  0  0
   54.7425   29.3639   51.8597 H   0  0  0  0  0  0  0  0  0  0  0  0
   54.8940   30.7613   52.9898 H   0  0  0  0  0  0  0  0  0  0  0  0
   54.0227   32.1721   50.9469 H   0  0  0  0  0  0  0  0  0  0  0  0
   53.4405   30.5783   50.3342 H   0  0  0  0  0  0  0  0  0  0  0  0
   53.3696   29.8864   53.6162 H   0  0  0  0  0  0  0  0  0  0  0  0
   51.4226   30.0514   55.1672 H   0  0  0  0  0  0  0  0  0  0  0  0
   49.4791   31.5056   54.5880 H   0  0  0  0  0  0  0  0  0  0  0  0
   49.4810   32.8015   52.4566 H   0  0  0  0  0  0  0  0  0  0  0  0
   57.8840   33.1490   49.4282 H   0  0  0  0  0  0  0  0  0  0  0  0
   59.9782   31.3486   47.3333 H   0  0  0  0  0  0  0  0  0  0  0  0
   58.8710   29.6219   45.9144 H   0  0  0  0  0  0  0  0  0  0  0  0
  1  2  1  0
  2  3  2  0
  2  4  2  0
  2  5  1  0
  5  6  2  0
  6  7  1  0
  7  8  2  0
  8  9  1  0
  9 10  1  0
 10 11  2  0
 11 12  1  0
 12 13  2  0
 13 14  1  0
 14 15  2  0
 15 16  1  0
 16 17  2  0
 17 18  1  0
 18 19  2  0
 18 20  1  0
 20 21  1  0
 21 22  1  0
 22 23  1  0
 23 24  2  0
 24 25  1  0
 25 26  2  0
 26 27  1  0
 27 28  2  0
 28 29  1  0
 17 30  1  0
 30 31  2  0
  8 32  1  0
 32 33  2  0
 33  5  1  0
 31 10  1  0
 31 14  1  0
 28 23  1  0
  1 34  1  0
  6 35  1  0
  7 36  1  0
  9 37  1  0
  9 38  1  0
 11 39  1  0
 12 40  1  0
 15 41  1  0
 16 42  1  0
 21 43  1  0
 21 44  1  0
 22 45  1  0
 22 46  1  0
 24 47  1  0
 25 48  1  0
 26 49  1  0
 27 50  1  0
 30 51  1  0
 32 52  1  0
 33 53  1  0
M  CHG  3   1  -1  20  -1  29  -1
M  END
>  <UniqueID>  (3) 
3

>  <SMILES>  (3) 
[NH-]S(=O)(=O)c1ccc(Cc2ccnc3ccc(C(=O)[N-]CCc4ccccc4[O-])cc23)cc1

>  <Energy>  (3) 
62.844417975503745

>  <Genealogy>  (3) 
[NH-]S(=O)(=O)c1ccc(Cc2ccnc3ccc(C(=O)[N-]CCc4ccccc4[O-])cc23)cc1 (protonated)
[NH-]S(=O)(=O)c1ccc(Cc2ccnc3ccc(C(=O)[N-]CCc4ccccc4[O-])cc23)cc1 (3D coordinates assigned)
[NH-]S(=O)(=O)c1ccc(Cc2ccnc3ccc(C(=O)[N-]CCc4ccccc4[O-])cc23)cc1 (optimized conformer: 62.844417975503745 kcal/mol)

>  <smiles>  (3) 
NS(=O)(=O)c1ccc(Cc2ccnc3ccc(C(=O)NCCc4ccccc4O)cc23)cc1

>  <score_type>  (3) 
oracle

>  <origin>  (3) 
adg

>  <m_score__min__energy>  (3) 
-18.52

>  <m_primary>  (3) 
energy

$$$$
3:0
     RDKit          3D

 44 46  0  0  0  0  0  0  0  0999 V2000
   58.3260   32.2430   49.3720 C   0  0  0  0  0  0  0  0  0  0  0  0
   58.1490   31.9960   47.9820 O   0  0  0  0  0  0  0  0  0  0  0  0
   58.5300   32.8810   46.9610 C   0  0  0  0  0  0  0  0  0  0  0  0
   59.3010   34.0320   47.2180 C   0  0  0  0  0  0  0  0  0  0  0  0
   59.6550   34.8900   46.1730 C   0  0  0  0  0  0  0  0  0  0  0  0
   59.2470   34.6100   44.8690 C   0  0  0  0  0  0  0  0  0  0  0  0
   58.4820   33.4720   44.6030 C   0  0  0  0  0  0  0  0  0  0  0  0
   58.1180   32.6020   45.6480 C   0  0  0  0  0  0  0  0  0  0  0  0
   57.3430   31.4540   45.4250 O   0  0  0  0  0  0  0  0  0  0  0  0
   56.5440   31.2270   44.2680 C   0  0  0  0  0  0  0  0  0  0  0  0
   56.2920   29.7550   44.1090 C   0  0  0  0  0  0  0  0  0  0  0  0
   56.2730   29.2550   42.9540 O   0  0  0  0  0  0  0  0  0  0  0  0
   56.0730   28.9010   45.2400 N   0  0  0  0  0  0  0  0  0  0  0  0
   56.8190   27.7070   45.5010 C   0  0  0  0  0  0  0  0  0  0  0  0
   56.1470   26.5810   45.9960 C   0  0  0  0  0  0  0  0  0  0  0  0
   56.8400   25.3890   46.2240 C   0  0  0  0  0  0  0  0  0  0  0  0
   58.2110   25.3180   45.9700 C   0  0  0  0  0  0  0  0  0  0  0  0
   58.8950   26.4440   45.5030 C   0  0  0  0  0  0  0  0  0  0  0  0
   58.2100   27.6460   45.2780 C   0  0  0  0  0  0  0  0  0  0  0  0
   59.1380   29.0910   44.7500 S   0  0  0  0  0  0  0  0  0  0  0  0
   59.7330   29.4370   46.4050 C   0  0  0  0  0  0  0  0  0  0  0  0
   60.7980   30.3260   46.5970 C   0  0  0  0  0  0  0  0  0  0  0  0
   61.2590   30.5990   47.8890 C   0  0  0  0  0  0  0  0  0  0  0  0
   60.6580   29.9810   48.9900 C   0  0  0  0  0  0  0  0  0  0  0  0
   59.5990   29.0880   48.8010 C   0  0  0  0  0  0  0  0  0  0  0  0
   59.1380   28.8140   47.5090 C   0  0  0  0  0  0  0  0  0  0  0  0
   57.7815   31.4831   49.9517 H   0  0  0  0  0  0  0  0  0  0  0  0
   59.3967   32.1953   49.6195 H   0  0  0  0  0  0  0  0  0  0  0  0
   57.9366   33.2416   49.6195 H   0  0  0  0  0  0  0  0  0  0  0  0
   59.6255   34.2561   48.2449 H   0  0  0  0  0  0  0  0  0  0  0  0
   60.2564   35.7876   46.3794 H   0  0  0  0  0  0  0  0  0  0  0  0
   59.5282   35.2866   44.0485 H   0  0  0  0  0  0  0  0  0  0  0  0
   58.1628   33.2548   43.5730 H   0  0  0  0  0  0  0  0  0  0  0  0
   55.5840   31.7528   44.3774 H   0  0  0  0  0  0  0  0  0  0  0  0
   57.0723   31.6046   43.3801 H   0  0  0  0  0  0  0  0  0  0  0  0
   55.0686   26.6358   46.2061 H   0  0  0  0  0  0  0  0  0  0  0  0
   56.3049   24.5061   46.6038 H   0  0  0  0  0  0  0  0  0  0  0  0
   58.7531   24.3756   46.1374 H   0  0  0  0  0  0  0  0  0  0  0  0
   59.9766   26.3865   45.3110 H   0  0  0  0  0  0  0  0  0  0  0  0
   61.2725   30.8101   45.7307 H   0  0  0  0  0  0  0  0  0  0  0  0
   62.0938   31.2994   48.0389 H   0  0  0  0  0  0  0  0  0  0  0  0
   61.0189   30.1978   50.0062 H   0  0  0  0  0  0  0  0  0  0  0  0
   59.1285   28.6011   49.6679 H   0  0  0  0  0  0  0  0  0  0  0  0
   58.3073   28.1085   47.3601 H   0  0  0  0  0  0  0  0  0  0  0  0
  1  2  1  0
  2  3  1  0
  3  4  2  0
  4  5  1  0
  5  6  2  0
  6  7  1  0
  7  8  2  0
  8  9  1  0
  9 10  1  0
 10 11  1  0
 11 12  2  0
 11 13  1  0
 13 14  1  0
 14 15  2  0
 15 16  1  0
 16 17  2  0
 17 18  1  0
 18 19  2  0
 19 20  1  0
 20 21  1  0
 21 22  2  0
 22 23  1  0
 23 24  2  0
 24 25  1  0
 25 26  2  0
  8  3  1  0
 19 14  1  0
 26 21  1  0
  1 27  1  0
  1 28  1  0
  1 29  1  0
  4 30  1  0
  5 31  1  0
  6 32  1  0
  7 33  1  0
 10 34  1  0
 10 35  1  0
 15 36  1  0
 16 37  1  0
 17 38  1  0
 18 39  1  0
 22 40  1  0
 23 41  1  0
 24 42  1  0
 25 43  1  0
 26 44  1  0
M  CHG  1  13  -1
M  END
>  <UniqueID>  (4) 
4

>  <SMILES>  (4) 
COc1ccccc1OCC(=O)[N-]c1ccccc1Sc1ccccc1

>  <Energy>  (4) 
45.3627650622446

>  <Genealogy>  (4) 
COc1ccccc1OCC(=O)[N-]c1ccccc1Sc1ccccc1 (protonated)
COc1ccccc1OCC(=O)[N-]c1ccccc1Sc1ccccc1 (3D coordinates assigned)
COc1ccccc1OCC(=O)[N-]c1ccccc1Sc1ccccc1 (optimized conformer: 45.3627650622446 kcal/mol)

>  <smiles>  (4) 
COc1ccccc1OCC(=O)Nc1ccccc1Sc1ccccc1

>  <score_type>  (4) 
oracle

>  <origin>  (4) 
adg

>  <m_score__min__energy>  (4) 
-10.51

>  <m_primary>  (4) 
energy

$$$$
4:0
     RDKit          3D

 53 56  0  0  0  0  0  0  0  0999 V2000
   55.0410   29.4410   43.8820 O   0  0  0  0  0  0  0  0  0  0  0  0
   55.9010   29.3350   44.7980 C   0  0  0  0  0  0  0  0  0  0  0  0
   56.6250   30.4850   45.2440 N   0  0  0  0  0  0  0  0  0  0  0  0
   58.0460   30.6920   44.9830 C   0  0  0  0  0  0  0  0  0  0  0  0
   58.4380   32.1080   45.3180 C   0  0  0  0  0  0  0  0  0  0  0  0
   57.8530   33.1770   44.6180 C   0  0  0  0  0  0  0  0  0  0  0  0
   58.2100   34.4950   44.9140 C   0  0  0  0  0  0  0  0  0  0  0  0
   59.1590   34.7560   45.9050 C   0  0  0  0  0  0  0  0  0  0  0  0
   59.7560   33.7040   46.6010 C   0  0  0  0  0  0  0  0  0  0  0  0
   59.4030   32.3690   46.3170 C   0  0  0  0  0  0  0  0  0  0  0  0
   59.9800   31.2860   47.0060 O   0  0  0  0  0  0  0  0  0  0  0  0
   61.3230   30.8270   46.8480 C   0  0  0  0  0  0  0  0  0  0  0  0
   62.2840   31.7500   47.5500 C   0  0  0  0  0  0  0  0  0  0  0  0
   62.8320   32.8490   46.8650 C   0  0  0  0  0  0  0  0  0  0  0  0
   63.7390   33.7000   47.5080 C   0  0  0  0  0  0  0  0  0  0  0  0
   64.0970   33.4650   48.8370 C   0  0  0  0  0  0  0  0  0  0  0  0
   63.5450   32.3830   49.5300 C   0  0  0  0  0  0  0  0  0  0  0  0
   62.6380   31.5300   48.8920 C   0  0  0  0  0  0  0  0  0  0  0  0
   56.1920   28.0580   45.3750 N   0  0  0  0  0  0  0  0  0  0  0  0
   57.4520   27.6800   45.9470 C   0  0  0  0  0  0  0  0  0  0  0  0
   57.8910   28.3400   47.1020 C   0  0  0  0  0  0  0  0  0  0  0  0
   59.1200   28.0060   47.7000 C   0  0  0  0  0  0  0  0  0  0  0  0
   59.5980   28.7290   48.9040 C   0  0  0  0  0  0  0  0  0  0  0  0
   60.7480   28.2930   49.5870 C   0  0  0  0  0  0  0  0  0  0  0  0
   61.2210   28.9980   50.6990 C   0  0  0  0  0  0  0  0  0  0  0  0
   60.5530   30.1450   51.1380 C   0  0  0  0  0  0  0  0  0  0  0  0
   59.4080   30.5840   50.4710 C   0  0  0  0  0  0  0  0  0  0  0  0
   58.9270   29.8800   49.3610 C   0  0  0  0  0  0  0  0  0  0  0  0
   59.8980   26.9850   47.1310 C   0  0  0  0  0  0  0  0  0  0  0  0
   59.4500   26.3020   45.9990 C   0  0  0  0  0  0  0  0  0  0  0  0
   58.2260   26.6320   45.4130 C   0  0  0  0  0  0  0  0  0  0  0  0
   57.7770   25.8910   44.3260 O   0  0  0  0  0  0  0  0  0  0  0  0
   58.6335   29.9969   45.6008 H   0  0  0  0  0  0  0  0  0  0  0  0
   58.2446   30.5083   43.9168 H   0  0  0  0  0  0  0  0  0  0  0  0
   57.1098   32.9749   43.8326 H   0  0  0  0  0  0  0  0  0  0  0  0
   57.7436   35.3272   44.3665 H   0  0  0  0  0  0  0  0  0  0  0  0
   59.4368   35.7946   46.1377 H   0  0  0  0  0  0  0  0  0  0  0  0
   60.5067   33.9178   47.3761 H   0  0  0  0  0  0  0  0  0  0  0  0
   61.4129   29.8177   47.2761 H   0  0  0  0  0  0  0  0  0  0  0  0
   61.5679   30.8084   45.7758 H   0  0  0  0  0  0  0  0  0  0  0  0
   62.5470   33.0408   45.8200 H   0  0  0  0  0  0  0  0  0  0  0  0
   64.1699   34.5545   46.9657 H   0  0  0  0  0  0  0  0  0  0  0  0
   64.8137   34.1314   49.3392 H   0  0  0  0  0  0  0  0  0  0  0  0
   63.8244   32.2023   50.5785 H   0  0  0  0  0  0  0  0  0  0  0  0
   62.2005   30.6843   49.4427 H   0  0  0  0  0  0  0  0  0  0  0  0
   57.2671   29.1292   47.5470 H   0  0  0  0  0  0  0  0  0  0  0  0
   61.2785   27.3923   49.2446 H   0  0  0  0  0  0  0  0  0  0  0  0
   62.1198   28.6493   51.2287 H   0  0  0  0  0  0  0  0  0  0  0  0
   60.9296   30.7015   52.0089 H   0  0  0  0  0  0  0  0  0  0  0  0
   58.8824   31.4856   50.8187 H   0  0  0  0  0  0  0  0  0  0  0  0
   58.0208   30.2272   48.8432 H   0  0  0  0  0  0  0  0  0  0  0  0
   60.8669   26.7216   47.5802 H   0  0  0  0  0  0  0  0  0  0  0  0
   60.0647   25.4991   45.5660 H   0  0  0  0  0  0  0  0  0  0  0  0
  1  2  2  0
  2  3  1  0
  3  4  1  0
  4  5  1  0
  5  6  2  0
  6  7  1  0
  7  8  2  0
  8  9  1  0
  9 10  2  0
 10 11  1  0
 11 12  1  0
 12 13  1  0
 13 14  2  0
 14 15  1  0
 15 16  2  0
 16 17  1  0
 17 18  2  0
  2 19  1  0
 19 20  1  0
 20 21  2  0
 21 22  1  0
 22 23  1  0
 23 24  2  0
 24 25  1  0
 25 26  2  0
 26 27  1  0
 27 28  2  0
 22 29  2  0
 29 30  1  0
 30 31  2  0
 31 32  1  0
 10  5  1  0
 18 13  1  0
 31 20  1  0
 28 23  1  0
  4 33  1  0
  4 34  1  0
  6 35  1  0
  7 36  1  0
  8 37  1  0
  9 38  1  0
 12 39  1  0
 12 40  1  0
 14 41  1  0
 15 42  1  0
 16 43  1  0
 17 44  1  0
 18 45  1  0
 21 46  1  0
 24 47  1  0
 25 48  1  0
 26 49  1  0
 27 50  1  0
 28 51  1  0
 29 52  1  0
 30 53  1  0
M  CHG  3   3  -1  19  -1  32  -1
M  END
>  <UniqueID>  (5) 
5

>  <SMILES>  (5) 
O=C([N-]Cc1ccccc1OCc1ccccc1)[N-]c1cc(-c2ccccc2)ccc1[O-]

>  <Energy>  (5) 
66.95016388281954

>  <Genealogy>  (5) 
O=C([N-]Cc1ccccc1OCc1ccccc1)[N-]c1cc(-c2ccccc2)ccc1[O-] (protonated)
O=C([N-]Cc1ccccc1OCc1ccccc1)[N-]c1cc(-c2ccccc2)ccc1[O-] (3D coordinates assigned)
O=C([N-]Cc1ccccc1OCc1ccccc1)[N-]c1cc(-c2ccccc2)ccc1[O-] (optimized conformer: 66.95016388281954 kcal/mol)

>  <smiles>  (5) 
O=C(NCc1ccccc1OCc1ccccc1)Nc1cc(-c2ccccc2)ccc1O

>  <score_type>  (5) 
oracle

>  <origin>  (5) 
adg

>  <m_score__min__energy>  (5) 
-13.42

>  <m_primary>  (5) 
energy

$$$$
5:0
     RDKit          3D

 47 50  0  0  0  0  0  0  0  0999 V2000
   58.0030   27.8960   46.4040 O   0  0  0  0  0  0  0  0  0  0  0  0
   56.9160   27.5120   45.8910 C   0  0  0  0  0  0  0  0  0  0  0  0
   56.1630   28.4030   45.0510 N   0  0  0  0  0  0  0  0  0  0  0  0
   56.6990   29.6070   44.4750 C   0  0  0  0  0  0  0  0  0  0  0  0
   56.5260   29.9080   43.1120 C   0  0  0  0  0  0  0  0  0  0  0  0
   57.0320   31.0990   42.5840 C   0  0  0  0  0  0  0  0  0  0  0  0
   57.6980   32.0060   43.4100 C   0  0  0  0  0  0  0  0  0  0  0  0
   57.8530   31.7330   44.7760 C   0  0  0  0  0  0  0  0  0  0  0  0
   58.6620   32.8950   45.8270 S   0  0  0  0  0  0  0  0  0  0  0  0
   57.6200   33.7230   46.5260 O   0  0  0  0  0  0  0  0  0  0  0  0
   59.4950   33.8240   44.9870 O   0  0  0  0  0  0  0  0  0  0  0  0
   59.6820   32.1240   47.0260 N   0  0  0  0  0  0  0  0  0  0  0  0
   59.2100   32.3550   48.4040 C   0  0  0  0  0  0  0  0  0  0  0  0
   59.6650   33.7160   48.9830 C   0  0  0  0  0  0  0  0  0  0  0  0
   60.6110   34.3800   48.1690 O   0  0  0  0  0  0  0  0  0  0  0  0
   61.6410   33.4890   47.8140 C   0  0  0  0  0  0  0  0  0  0  0  0
   61.1170   32.4240   46.8360 C   0  0  0  0  0  0  0  0  0  0  0  0
   57.3530   30.5330   45.3020 C   0  0  0  0  0  0  0  0  0  0  0  0
   56.4000   26.1580   46.1910 C   0  0  0  0  0  0  0  0  0  0  0  0
   57.1730   25.2330   46.9140 C   0  0  0  0  0  0  0  0  0  0  0  0
   56.6630   23.9570   47.1780 C   0  0  0  0  0  0  0  0  0  0  0  0
   57.3650   23.1340   47.8280 O   0  0  0  0  0  0  0  0  0  0  0  0
   55.3800   23.6090   46.7190 C   0  0  0  0  0  0  0  0  0  0  0  0
   54.8200   22.3400   46.9590 C   0  0  0  0  0  0  0  0  0  0  0  0
   53.5400   22.0360   46.4830 C   0  0  0  0  0  0  0  0  0  0  0  0
   52.8110   22.9900   45.7670 C   0  0  0  0  0  0  0  0  0  0  0  0
   53.3560   24.2540   45.5230 C   0  0  0  0  0  0  0  0  0  0  0  0
   54.6360   24.5680   45.9950 C   0  0  0  0  0  0  0  0  0  0  0  0
   55.1630   25.7980   45.7550 N   0  0  0  0  0  0  0  0  0  0  0  0
   55.1440   28.2150   44.9180 H   0  0  0  0  0  0  0  0  0  0  0  0
   55.9903   29.2032   42.4590 H   0  0  0  0  0  0  0  0  0  0  0  0
   56.9051   31.3223   41.5144 H   0  0  0  0  0  0  0  0  0  0  0  0
   58.1024   32.9377   42.9876 H   0  0  0  0  0  0  0  0  0  0  0  0
   58.1105   32.3236   48.4070 H   0  0  0  0  0  0  0  0  0  0  0  0
   59.6470   31.5679   49.0360 H   0  0  0  0  0  0  0  0  0  0  0  0
   58.7818   34.3627   49.0910 H   0  0  0  0  0  0  0  0  0  0  0  0
   60.1503   33.5140   49.9493 H   0  0  0  0  0  0  0  0  0  0  0  0
   62.4566   34.0506   47.3351 H   0  0  0  0  0  0  0  0  0  0  0  0
   62.0081   32.9888   48.7223 H   0  0  0  0  0  0  0  0  0  0  0  0
   61.2665   32.7873   45.8085 H   0  0  0  0  0  0  0  0  0  0  0  0
   61.6761   31.4963   47.0279 H   0  0  0  0  0  0  0  0  0  0  0  0
   57.4747   30.3155   46.3734 H   0  0  0  0  0  0  0  0  0  0  0  0
   58.1755   25.5113   47.2711 H   0  0  0  0  0  0  0  0  0  0  0  0
   55.3898   21.5860   47.5218 H   0  0  0  0  0  0  0  0  0  0  0  0
   53.1059   21.0432   46.6727 H   0  0  0  0  0  0  0  0  0  0  0  0
   51.8054   22.7453   45.3944 H   0  0  0  0  0  0  0  0  0  0  0  0
   52.7788   25.0022   44.9599 H   0  0  0  0  0  0  0  0  0  0  0  0
  1  2  2  0
  2  3  1  0
  3  4  1  0
  4  5  2  0
  5  6  1  0
  6  7  2  0
  7  8  1  0
  8  9  1  0
  9 10  2  0
  9 11  2  0
  9 12  1  0
 12 13  1  0
 13 14  1  0
 14 15  1  0
 15 16  1  0
 16 17  1  0
  8 18  2  0
  2 19  1  0
 19 20  2  0
 20 21  1  0
 21 22  2  0
 21 23  1  0
 23 24  2  0
 24 25  1  0
 25 26  2  0
 26 27  1  0
 27 28  2  0
 28 29  1  0
 18  4  1  0
 29 19  1  0
 17 12  1  0
 28 23  1  0
  3 30  1  0
  5 31  1  0
  6 32  1  0
  7 33  1  0
 13 34  1  0
 13 35  1  0
 14 36  1  0
 14 37  1  0
 16 38  1  0
 16 39  1  0
 17 40  1  0
 17 41  1  0
 18 42  1  0
 20 43  1  0
 24 44  1  0
 25 45  1  0
 26 46  1  0
 27 47  1  0
M  CHG  1  29  -1
M  END
>  <UniqueID>  (6) 
6

>  <SMILES>  (6) 
O=C(Nc1cccc(S(=O)(=O)N2CCOCC2)c1)c1cc(=O)c2ccccc2[n-]1

>  <Energy>  (6) 
69.45834889857554

>  <Genealogy>  (6) 
O=C(Nc1cccc(S(=O)(=O)N2CCOCC2)c1)c1cc(=O)c2ccccc2[n-]1 (protonated)
O=C(Nc1cccc(S(=O)(=O)N2CCOCC2)c1)c1cc(=O)c2ccccc2[n-]1 (3D coordinates assigned)
O=C(Nc1cccc(S(=O)(=O)N2CCOCC2)c1)c1cc(=O)c2ccccc2[n-]1 (nonaromatic ring conformer: 69.45834889857554 kcal/mol)

>  <smiles>  (6) 
O=C(Nc1cccc(S(=O)(=O)N2CCOCC2)c1)c1cc(=O)c2ccccc2[nH]1

>  <score_type>  (6) 
oracle

>  <origin>  (6) 
adg

>  <m_score__min__energy>  (6) 
-11.4

>  <m_primary>  (6) 
energy

$$$$
6:0
     RDKit          3D

 32 33  0  0  0  0  0  0  0  0999 V2000
   54.7000   26.3400   46.0070 N   0  0  0  0  0  0  0  0  0  0  0  0
   56.3520   25.8360   46.0590 S   0  0  0  0  0  0  0  0  0  0  0  0
   56.6480   25.2340   47.4040 O   0  0  0  0  0  0  0  0  0  0  0  0
   56.5930   24.7940   45.0020 O   0  0  0  0  0  0  0  0  0  0  0  0
   57.4000   27.2230   45.7790 C   0  0  0  0  0  0  0  0  0  0  0  0
   58.7870   27.0490   45.6960 C   0  0  0  0  0  0  0  0  0  0  0  0
   59.6270   28.1470   45.4580 C   0  0  0  0  0  0  0  0  0  0  0  0
   61.1150   27.9490   45.3220 C   0  0  0  0  0  0  0  0  0  0  0  0
   61.6970   28.9450   44.4250 N   0  0  0  0  0  0  0  0  0  0  0  0
   59.0640   29.4200   45.2800 C   0  0  0  0  0  0  0  0  0  0  0  0
   57.6740   29.6040   45.3750 C   0  0  0  0  0  0  0  0  0  0  0  0
   57.0790   30.8620   45.1920 O   0  0  0  0  0  0  0  0  0  0  0  0
   57.6740   32.0950   45.4980 C   0  0  0  0  0  0  0  0  0  0  0  0
   57.8310   33.1070   44.5320 C   0  0  0  0  0  0  0  0  0  0  0  0
   58.4430   34.3170   44.8740 C   0  0  0  0  0  0  0  0  0  0  0  0
   58.9130   34.5210   46.1760 C   0  0  0  0  0  0  0  0  0  0  0  0
   58.7780   33.5120   47.1330 C   0  0  0  0  0  0  0  0  0  0  0  0
   58.1660   32.3010   46.7940 C   0  0  0  0  0  0  0  0  0  0  0  0
   56.8480   28.5000   45.6070 C   0  0  0  0  0  0  0  0  0  0  0  0
   54.5890   27.0900   46.7270 H   0  0  0  0  0  0  0  0  0  0  0  0
   59.2204   26.0454   45.8181 H   0  0  0  0  0  0  0  0  0  0  0  0
   61.5821   28.0416   46.3136 H   0  0  0  0  0  0  0  0  0  0  0  0
   61.2981   26.9494   44.9010 H   0  0  0  0  0  0  0  0  0  0  0  0
   62.4350   28.4850   43.8430 H   0  0  0  0  0  0  0  0  0  0  0  0
   60.9520   29.2920   43.7790 H   0  0  0  0  0  0  0  0  0  0  0  0
   59.7153   30.2799   45.0646 H   0  0  0  0  0  0  0  0  0  0  0  0
   57.4712   32.9455   43.5051 H   0  0  0  0  0  0  0  0  0  0  0  0
   58.5550   35.1090   44.1189 H   0  0  0  0  0  0  0  0  0  0  0  0
   59.3886   35.4754   46.4461 H   0  0  0  0  0  0  0  0  0  0  0  0
   59.1537   33.6703   48.1547 H   0  0  0  0  0  0  0  0  0  0  0  0
   58.0703   31.5062   47.5484 H   0  0  0  0  0  0  0  0  0  0  0  0
   55.7573   28.6345   45.6549 H   0  0  0  0  0  0  0  0  0  0  0  0
  1  2  1  0
  2  3  2  0
  2  4  2  0
  2  5  1  0
  5  6  2  0
  6  7  1  0
  7  8  1  0
  8  9  1  0
  7 10  2  0
 10 11  1  0
 11 12  1  0
 12 13  1  0
 13 14  2  0
 14 15  1  0
 15 16  2  0
 16 17  1  0
 17 18  2  0
 11 19  2  0
 19  5  1  0
 18 13  1  0
  1 20  1  0
  6 21  1  0
  8 22  1  0
  8 23  1  0
  9 24  1  0
  9 25  1  0
 10 26  1  0
 14 27  1  0
 15 28  1  0
 16 29  1  0
 17 30  1  0
 18 31  1  0
 19 32  1  0
M  CHG  1   1  -1
M  END
>  <UniqueID>  (7) 
7

>  <SMILES>  (7) 
[NH-]S(=O)(=O)c1cc(CN)cc(Oc2ccccc2)c1

>  <Energy>  (7) 
37.010978922523876

>  <Genealogy>  (7) 
[NH-]S(=O)(=O)c1cc(CN)cc(Oc2ccccc2)c1 (protonated)
[NH-]S(=O)(=O)c1cc(CN)cc(Oc2ccccc2)c1 (3D coordinates assigned)
[NH-]S(=O)(=O)c1cc(CN)cc(Oc2ccccc2)c1 (optimized conformer: 37.010978922523876 kcal/mol)

>  <smiles>  (7) 
NCc1cc(Oc2ccccc2)cc(S(N)(=O)=O)c1

>  <score_type>  (7) 
oracle

>  <origin>  (7) 
adg

>  <m_score__min__energy>  (7) 
-10.33

>  <m_primary>  (7) 
energy

$$$$
7:0
     RDKit          3D

 46 48  0  0  0  0  0  0  0  0999 V2000
   56.6837   23.5341   49.1234 H   0  0  0  0  0  0  0  0  0  0  0  0
   56.6310   23.3990   48.0330 C   0  0  0  0  0  0  0  0  0  0  0  0
   57.3410   24.2140   47.2130 N   0  0  0  0  0  0  0  0  0  0  0  0
   57.3060   24.0970   45.8550 C   0  0  0  0  0  0  0  0  0  0  0  0
   58.0090   24.8980   45.1030 N   0  0  0  0  0  0  0  0  0  0  0  0
   57.7880   26.3040   44.8940 C   0  0  0  0  0  0  0  0  0  0  0  0
   58.0370   26.8410   43.6270 C   0  0  0  0  0  0  0  0  0  0  0  0
   58.4163   26.1915   42.8243 H   0  0  0  0  0  0  0  0  0  0  0  0
   57.8080   28.1960   43.3720 C   0  0  0  0  0  0  0  0  0  0  0  0
   58.0124   28.6065   42.3722 H   0  0  0  0  0  0  0  0  0  0  0  0
   57.3180   29.0370   44.3860 C   0  0  0  0  0  0  0  0  0  0  0  0
   57.0730   30.5100   44.1180 C   0  0  0  0  0  0  0  0  0  0  0  0
   56.0065   30.6476   43.8866 H   0  0  0  0  0  0  0  0  0  0  0  0
   57.7262   30.7959   43.2804 H   0  0  0  0  0  0  0  0  0  0  0  0
   57.4210   31.3910   45.2560 N   0  0  0  0  0  0  0  0  0  0  0  0
   57.0330   32.8120   45.0820 C   0  0  0  0  0  0  0  0  0  0  0  0
   56.4932   33.1451   45.9807 H   0  0  0  0  0  0  0  0  0  0  0  0
   56.3981   32.8831   44.1865 H   0  0  0  0  0  0  0  0  0  0  0  0
   58.2540   33.7220   44.8710 C   0  0  0  0  0  0  0  0  0  0  0  0
   57.9090   34.7636   44.7938 H   0  0  0  0  0  0  0  0  0  0  0  0
   58.7602   33.3955   43.9506 H   0  0  0  0  0  0  0  0  0  0  0  0
   59.2320   33.6250   45.9840 N   0  0  0  0  0  0  0  0  0  0  0  0
   59.0870   34.7440   46.9280 C   0  0  0  0  0  0  0  0  0  0  0  0
   59.1364   34.3629   47.9587 H   0  0  0  0  0  0  0  0  0  0  0  0
   59.8988   35.4683   46.7656 H   0  0  0  0  0  0  0  0  0  0  0  0
   58.1174   35.2375   46.7656 H   0  0  0  0  0  0  0  0  0  0  0  0
   59.1940   32.3310   46.7070 C   0  0  0  0  0  0  0  0  0  0  0  0
   58.4628   32.3987   47.5260 H   0  0  0  0  0  0  0  0  0  0  0  0
   60.1994   32.1223   47.1016 H   0  0  0  0  0  0  0  0  0  0  0  0
   58.7920   31.1860   45.7710 C   0  0  0  0  0  0  0  0  0  0  0  0
   58.8320   30.2360   46.3241 H   0  0  0  0  0  0  0  0  0  0  0  0
   59.4899   31.1614   44.9211 H   0  0  0  0  0  0  0  0  0  0  0  0
   57.0090   28.4830   45.6390 C   0  0  0  0  0  0  0  0  0  0  0  0
   56.5819   29.1204   46.4273 H   0  0  0  0  0  0  0  0  0  0  0  0
   57.2400   27.1280   45.8920 C   0  0  0  0  0  0  0  0  0  0  0  0
   56.9918   26.7047   46.8765 H   0  0  0  0  0  0  0  0  0  0  0  0
   56.5170   23.0790   45.2640 C   0  0  0  0  0  0  0  0  0  0  0  0
   56.4630   22.8790   43.7920 C   0  0  0  0  0  0  0  0  0  0  0  0
   56.2650   21.7270   43.3190 O   0  0  0  0  0  0  0  0  0  0  0  0
   56.6300   23.9770   42.8910 N   0  0  0  0  0  0  0  0  0  0  0  0
   56.9180   24.9210   43.2310 H   0  0  0  0  0  0  0  0  0  0  0  0
   56.5380   23.8260   41.8630 H   0  0  0  0  0  0  0  0  0  0  0  0
   55.7820   22.2310   46.1100 C   0  0  0  0  0  0  0  0  0  0  0  0
   55.1594   21.4342   45.6771 H   0  0  0  0  0  0  0  0  0  0  0  0
   55.8360   22.3920   47.4940 C   0  0  0  0  0  0  0  0  0  0  0  0
   55.2559   21.7295   48.1533 H   0  0  0  0  0  0  0  0  0  0  0  0
  1  2  1  0
  2  3  1  0
  3  4  1  0
  4  5  2  0
  5  6  1  0
  6  7  2  0
  7  8  1  0
  7  9  1  0
  9 10  1  0
  9 11  2  0
 11 12  1  0
 12 13  1  0
 12 14  1  0
 12 15  1  0
 15 16  1  0
 16 17  1  0
 16 18  1  0
 16 19  1  0
 19 20  1  0
 19 21  1  0
 19 22  1  0
 22 23  1  0
 23 24  1  0
 23 25  1  0
 23 26  1  0
 22 27  1  0
 27 28  1  0
 27 29  1  0
 27 30  1  0
 30 31  1  0
 30 32  1  0
 11 33  1  0
 33 34  1  0
 33 35  2  0
 35 36  1  0
  4 37  1  0
 37 38  1  0
 38 39  2  0
 38 40  1  0
 40 41  1  0
 40 42  1  0
 37 43  2  0
 43 44  1  0
 43 45  1  0
 45 46  1  0
 45  2  2  0
 35  6  1  0
 30 15  1  0
M  CHG  1   3  -1
M  END
>  <UniqueID>  (8) 
8

>  <SMILES>  (8) 
CN1CCN(Cc2ccc(/N=c3\[n-]cccc3C(N)=O)cc2)CC1

>  <Energy>  (8) 
72.23114775955574

>  <Genealogy>  (8) 
CN1CCN(Cc2ccc(N=c3[n-]cccc3C(N)=O)cc2)CC1 (protonated)
CN1CCN(Cc2ccc(/N=c3\[n-]cccc3C(N)=O)cc2)CC1 (cis-trans isomerization)
CN1CCN(Cc2ccc(/N=c3\[n-]cccc3C(N)=O)cc2)CC1 (3D coordinates assigned)
CN1CCN(Cc2ccc(/N=c3\[n-]cccc3C(N)=O)cc2)CC1 (nonaromatic ring conformer: 72.23114775955574 kcal/mol)

>  <smiles>  (8) 
CN1CCN(Cc2ccc(N=c3[nH]cccc3C(N)=O)cc2)CC1

>  <score_type>  (8) 
oracle

>  <origin>  (8) 
adg

>  <m_score__min__energy>  (8) 
-9.6300000000000008

>  <m_primary>  (8) 
energy

$$$$
8:0
     RDKit          3D

 56 58  0  0  0  0  0  0  0  0999 V2000
   50.6820   24.2680   44.4990 C   0  0  0  0  0  0  0  0  0  0  0  0
   52.0780   24.5120   44.8440 N   0  0  0  0  0  0  0  0  0  0  0  0
   52.9510   23.4420   45.2410 C   0  0  0  0  0  0  0  0  0  0  0  0
   52.5120   22.2590   45.2680 O   0  0  0  0  0  0  0  0  0  0  0  0
   54.3830   23.6970   45.5440 C   0  0  0  0  0  0  0  0  0  0  0  0
   55.2670   24.0630   44.5130 C   0  0  0  0  0  0  0  0  0  0  0  0
   56.5980   24.3790   44.7970 C   0  0  0  0  0  0  0  0  0  0  0  0
   57.0650   24.3490   46.1160 C   0  0  0  0  0  0  0  0  0  0  0  0
   58.4240   24.7180   46.3800 N   0  0  0  0  0  0  0  0  0  0  0  0
   58.9120   26.0590   46.5260 C   0  0  0  0  0  0  0  0  0  0  0  0
   59.5020   26.4190   47.5820 O   0  0  0  0  0  0  0  0  0  0  0  0
   58.7270   27.0360   45.4080 C   0  0  0  0  0  0  0  0  0  0  0  0
   57.0880   27.8460   45.5080 S   0  0  0  0  0  0  0  0  0  0  0  0
   57.7500   29.5070   45.5870 C   0  0  0  0  0  0  0  0  0  0  0  0
   56.9980   30.5570   45.1870 N   0  0  0  0  0  0  0  0  0  0  0  0
   57.4560   31.8280   45.2860 C   0  0  0  0  0  0  0  0  0  0  0  0
   56.7010   32.7720   44.9220 O   0  0  0  0  0  0  0  0  0  0  0  0
   58.7460   32.0890   45.8090 C   0  0  0  0  0  0  0  0  0  0  0  0
   59.2250   33.5450   45.8880 C   0  0  0  0  0  0  0  0  0  0  0  0
   58.5190   34.3930   46.9620 C   0  0  0  0  0  0  0  0  0  0  0  0
   59.2140   34.2160   44.5090 C   0  0  0  0  0  0  0  0  0  0  0  0
   59.4890   30.9670   46.2840 C   0  0  0  0  0  0  0  0  0  0  0  0
   60.8540   31.0690   46.9290 C   0  0  0  0  0  0  0  0  0  0  0  0
   60.8640   32.0630   48.0790 C   0  0  0  0  0  0  0  0  0  0  0  0
   60.0580   31.8390   49.2220 C   0  0  0  0  0  0  0  0  0  0  0  0
   58.9990   30.4330   49.3620 Cl  0  0  0  0  0  0  0  0  0  0  0  0
   60.1060   32.7290   50.3000 C   0  0  0  0  0  0  0  0  0  0  0  0
   60.9680   33.8270   50.2710 C   0  0  0  0  0  0  0  0  0  0  0  0
   61.7940   34.0400   49.1680 C   0  0  0  0  0  0  0  0  0  0  0  0
   61.7560   33.1640   48.0770 C   0  0  0  0  0  0  0  0  0  0  0  0
   62.8770   33.4660   46.7460 Cl  0  0  0  0  0  0  0  0  0  0  0  0
   58.9710   29.7190   46.1250 N   0  0  0  0  0  0  0  0  0  0  0  0
   56.2050   23.9210   47.1420 C   0  0  0  0  0  0  0  0  0  0  0  0
   54.8770   23.5960   46.8590 C   0  0  0  0  0  0  0  0  0  0  0  0
   50.0894   24.1644   45.4199 H   0  0  0  0  0  0  0  0  0  0  0  0
   50.2972   25.1125   43.9084 H   0  0  0  0  0  0  0  0  0  0  0  0
   50.6065   23.3430   43.9084 H   0  0  0  0  0  0  0  0  0  0  0  0
   52.4530   25.4770   44.7120 H   0  0  0  0  0  0  0  0  0  0  0  0
   54.9073   24.1008   43.4741 H   0  0  0  0  0  0  0  0  0  0  0  0
   57.2820   24.6526   43.9801 H   0  0  0  0  0  0  0  0  0  0  0  0
   59.5120   27.8042   45.4681 H   0  0  0  0  0  0  0  0  0  0  0  0
   58.7914   26.4926   44.4538 H   0  0  0  0  0  0  0  0  0  0  0  0
   60.2698   33.4918   46.2281 H   0  0  0  0  0  0  0  0  0  0  0  0
   58.8137   34.0390   47.9609 H   0  0  0  0  0  0  0  0  0  0  0  0
   58.8097   35.4475   46.8462 H   0  0  0  0  0  0  0  0  0  0  0  0
   57.4292   34.2982   46.8462 H   0  0  0  0  0  0  0  0  0  0  0  0
   59.1961   35.3088   44.6331 H   0  0  0  0  0  0  0  0  0  0  0  0
   60.1170   33.9249   43.9524 H   0  0  0  0  0  0  0  0  0  0  0  0
   58.3210   33.8955   43.9524 H   0  0  0  0  0  0  0  0  0  0  0  0
   61.1413   30.0787   47.3122 H   0  0  0  0  0  0  0  0  0  0  0  0
   61.5657   31.4210   46.1676 H   0  0  0  0  0  0  0  0  0  0  0  0
   59.4610   32.5630   51.1755 H   0  0  0  0  0  0  0  0  0  0  0  0
   60.9955   34.5256   51.1202 H   0  0  0  0  0  0  0  0  0  0  0  0
   62.4788   34.9007   49.1552 H   0  0  0  0  0  0  0  0  0  0  0  0
   56.5801   23.8417   48.1730 H   0  0  0  0  0  0  0  0  0  0  0  0
   54.2124   23.2590   47.6682 H   0  0  0  0  0  0  0  0  0  0  0  0
  1  2  1  0
  2  3  1  0
  3  4  2  0
  3  5  1  0
  5  6  2  0
  6  7  1  0
  7  8  2  0
  8  9  1  0
  9 10  1  0
 10 11  2  0
 10 12  1  0
 12 13  1  0
 13 14  1  0
 14 15  2  0
 15 16  1  0
 16 17  2  0
 16 18  1  0
 18 19  1  0
 19 20  1  0
 19 21  1  0
 18 22  2  0
 22 23  1  0
 23 24  1  0
 24 25  2  0
 25 26  1  0
 25 27  1  0
 27 28  2  0
 28 29  1  0
 29 30  2  0
 30 31  1  0
 22 32  1  0
  8 33  1  0
 33 34  2  0
 34  5  1  0
 32 14  1  0
 30 24  1  0
  1 35  1  0
  1 36  1  0
  1 37  1  0
  2 38  1  0
  6 39  1  0
  7 40  1  0
 12 41  1  0
 12 42  1  0
 19 43  1  0
 20 44  1  0
 20 45  1  0
 20 46  1  0
 21 47  1  0
 21 48  1  0
 21 49  1  0
 23 50  1  0
 23 51  1  0
 27 52  1  0
 28 53  1  0
 29 54  1  0
 33 55  1  0
 34 56  1  0
M  CHG  2   9  -1  32  -1
M  END
>  <UniqueID>  (9) 
9

>  <SMILES>  (9) 
CNC(=O)c1ccc([N-]C(=O)CSc2nc(=O)c(C(C)C)c(Cc3c(Cl)cccc3Cl)[n-]2)cc1

>  <Energy>  (9) 
61.38829337899364

>  <Genealogy>  (9) 
CNC(=O)c1ccc([N-]C(=O)CSc2nc(=O)c(C(C)C)c(Cc3c(Cl)cccc3Cl)[n-]2)cc1 (protonated)
CNC(=O)c1ccc([N-]C(=O)CSc2nc(=O)c(C(C)C)c(Cc3c(Cl)cccc3Cl)[n-]2)cc1 (3D coordinates assigned)
CNC(=O)c1ccc([N-]C(=O)CSc2nc(=O)c(C(C)C)c(Cc3c(Cl)cccc3Cl)[n-]2)cc1 (optimized conformer: 61.38829337899364 kcal/mol)

>  <smiles>  (9) 
CNC(=O)c1ccc(NC(=O)CSc2nc(=O)c(C(C)C)c(Cc3c(Cl)cccc3Cl)[nH]2)cc1

>  <score_type>  (9) 
oracle

>  <origin>  (9) 
adg

>  <m_score__min__energy>  (9) 
-12.23

>  <m_primary>  (9) 
energy

$$$$
9:0
     RDKit          3D

 45 47  0  0  0  0  0  0  0  0999 V2000
   62.3970   32.9080   47.1370 O   0  0  0  0  0  0  0  0  0  0  0  0
   61.5540   32.2830   47.8340 C   0  0  0  0  0  0  0  0  0  0  0  0
   60.7360   32.9830   48.7770 N   0  0  0  0  0  0  0  0  0  0  0  0
   60.0470   34.2330   48.4750 C   0  0  0  0  0  0  0  0  0  0  0  0
   59.2430   34.0890   47.2130 C   0  0  0  0  0  0  0  0  0  0  0  0
   59.6660   34.7290   46.0360 C   0  0  0  0  0  0  0  0  0  0  0  0
   58.9080   34.6210   44.8640 C   0  0  0  0  0  0  0  0  0  0  0  0
   57.7250   33.8770   44.8620 C   0  0  0  0  0  0  0  0  0  0  0  0
   57.2960   33.2430   46.0310 C   0  0  0  0  0  0  0  0  0  0  0  0
   58.0490   33.3490   47.2040 C   0  0  0  0  0  0  0  0  0  0  0  0
   61.4680   30.8590   47.7120 N   0  0  0  0  0  0  0  0  0  0  0  0
   60.3210   30.1240   47.2620 C   0  0  0  0  0  0  0  0  0  0  0  0
   59.6670   30.5420   46.0970 C   0  0  0  0  0  0  0  0  0  0  0  0
   58.5320   29.8660   45.6390 C   0  0  0  0  0  0  0  0  0  0  0  0
   58.0360   28.7540   46.3450 C   0  0  0  0  0  0  0  0  0  0  0  0
   56.8510   28.0530   45.9300 N   0  0  0  0  0  0  0  0  0  0  0  0
   56.6500   26.7680   45.9680 C   0  0  0  0  0  0  0  0  0  0  0  0
   57.6800   25.8940   46.0940 N   0  0  0  0  0  0  0  0  0  0  0  0
   57.4520   24.5590   46.1580 C   0  0  0  0  0  0  0  0  0  0  0  0
   58.4360   23.7760   46.2620 O   0  0  0  0  0  0  0  0  0  0  0  0
   56.1710   24.0740   46.1100 N   0  0  0  0  0  0  0  0  0  0  0  0
   55.9190   22.6200   46.1550 C   0  0  0  0  0  0  0  0  0  0  0  0
   55.8870   22.1150   47.6020 C   0  0  0  0  0  0  0  0  0  0  0  0
   57.1850   22.0090   48.1210 O   0  0  0  0  0  0  0  0  0  0  0  0
   55.1350   24.9630   45.9810 C   0  0  0  0  0  0  0  0  0  0  0  0
   53.9410   24.5620   45.9190 O   0  0  0  0  0  0  0  0  0  0  0  0
   55.3820   26.2960   45.9190 N   0  0  0  0  0  0  0  0  0  0  0  0
   58.6560   28.3760   47.5410 C   0  0  0  0  0  0  0  0  0  0  0  0
   59.7920   29.0500   47.9980 C   0  0  0  0  0  0  0  0  0  0  0  0
   59.3746   34.4879   49.3074 H   0  0  0  0  0  0  0  0  0  0  0  0
   60.7923   35.0303   48.3376 H   0  0  0  0  0  0  0  0  0  0  0  0
   60.5958   35.3168   46.0354 H   0  0  0  0  0  0  0  0  0  0  0  0
   59.2438   35.1221   43.9441 H   0  0  0  0  0  0  0  0  0  0  0  0
   57.1314   33.7905   43.9400 H   0  0  0  0  0  0  0  0  0  0  0  0
   56.3637   32.6592   46.0282 H   0  0  0  0  0  0  0  0  0  0  0  0
   57.7055   32.8514   48.1229 H   0  0  0  0  0  0  0  0  0  0  0  0
   60.0489   31.4088   45.5377 H   0  0  0  0  0  0  0  0  0  0  0  0
   58.0248   30.2045   44.7235 H   0  0  0  0  0  0  0  0  0  0  0  0
   54.9510   22.4073   45.6778 H   0  0  0  0  0  0  0  0  0  0  0  0
   56.7317   22.1057   45.6211 H   0  0  0  0  0  0  0  0  0  0  0  0
   55.3090   22.8201   48.2174 H   0  0  0  0  0  0  0  0  0  0  0  0
   55.4185   21.1199   47.6179 H   0  0  0  0  0  0  0  0  0  0  0  0
   57.7730   22.5480   47.5290 H   0  0  0  0  0  0  0  0  0  0  0  0
   58.2455   27.5405   48.1271 H   0  0  0  0  0  0  0  0  0  0  0  0
   60.2735   28.7388   48.9368 H   0  0  0  0  0  0  0  0  0  0  0  0
  1  2  2  0
  2  3  1  0
  3  4  1  0
  4  5  1  0
  5  6  2  0
  6  7  1  0
  7  8  2  0
  8  9  1  0
  9 10  2  0
  2 11  1  0
 11 12  1  0
 12 13  2  0
 13 14  1  0
 14 15  2  0
 15 16  1  0
 16 17  2  3
 17 18  1  0
 18 19  1  0
 19 20  2  0
 19 21  1  0
 21 22  1  0
 22 23  1  0
 23 24  1  0
 21 25  1  0
 25 26  2  0
 25 27  1  0
 15 28  1  0
 28 29  2  0
 10  5  1  0
 29 12  1  0
 27 17  1  0
  4 30  1  0
  4 31  1  0
  6 32  1  0
  7 33  1  0
  8 34  1  0
  9 35  1  0
 10 36  1  0
 13 37  1  0
 14 38  1  0
 22 39  1  0
 22 40  1  0
 23 41  1  0
 23 42  1  0
 24 43  1  0
 28 44  1  0
 29 45  1  0
M  CHG  4   3  -1  11  -1  18  -1  27  -1
M  END
>  <UniqueID>  (10) 
10

>  <SMILES>  (10) 
O=C([N-]Cc1ccccc1)[N-]c1ccc(N=c2[n-]c(=O)n(CCO)c(=O)[n-]2)cc1

>  <Energy>  (10) 
56.006444501685166

>  <Genealogy>  (10) 
O=C([N-]Cc1ccccc1)[N-]c1ccc(N=c2[n-]c(=O)n(CCO)c(=O)[n-]2)cc1 (protonated)
O=C([N-]Cc1ccccc1)[N-]c1ccc(N=c2[n-]c(=O)n(CCO)c(=O)[n-]2)cc1 (3D coordinates assigned)
O=C([N-]Cc1ccccc1)[N-]c1ccc(N=c2[n-]c(=O)n(CCO)c(=O)[n-]2)cc1 (optimized conformer: 56.006444501685166 kcal/mol)

>  <smiles>  (10) 
O=C(NCc1ccccc1)Nc1ccc(N=c2[nH]c(=O)n(CCO)c(=O)[nH]2)cc1

>  <score_type>  (10) 
oracle

>  <origin>  (10) 
adg

>  <m_score__min__energy>  (10) 
-12.359999999999999

>  <m_primary>  (10) 
energy

$$$$
10:0
     RDKit          3D

 32 34  0  0  0  0  0  0  0  0999 V2000
   58.3590   34.2170   46.9760 C   0  0  0  0  0  0  0  0  0  0  0  0
   58.7500   32.8860   46.4970 N   0  0  0  0  0  0  0  0  0  0  0  0
   60.0100   32.4050   46.7780 C   0  0  0  0  0  0  0  0  0  0  0  0
   60.3910   31.1620   46.3700 N   0  0  0  0  0  0  0  0  0  0  0  0
   59.5090   30.4050   45.6790 C   0  0  0  0  0  0  0  0  0  0  0  0
   59.7180   29.1950   45.2310 O   0  0  0  0  0  0  0  0  0  0  0  0
   58.6140   28.8010   44.6240 C   0  0  0  0  0  0  0  0  0  0  0  0
   58.5090   27.4720   43.9360 C   0  0  0  0  0  0  0  0  0  0  0  0
   57.5410   26.5810   44.6580 C   0  0  0  0  0  0  0  0  0  0  0  0
   57.3700   25.2450   44.2660 C   0  0  0  0  0  0  0  0  0  0  0  0
   56.4450   24.4460   44.9410 C   0  0  0  0  0  0  0  0  0  0  0  0
   55.7010   24.9830   45.9920 C   0  0  0  0  0  0  0  0  0  0  0  0
   54.7770   24.1980   46.6710 O   0  0  0  0  0  0  0  0  0  0  0  0
   55.8930   26.3190   46.3540 C   0  0  0  0  0  0  0  0  0  0  0  0
   56.7990   27.0810   45.6850 N   0  0  0  0  0  0  0  0  0  0  0  0
   57.6400   29.8110   44.6790 C   0  0  0  0  0  0  0  0  0  0  0  0
   56.2850   29.7930   44.0890 C   0  0  0  0  0  0  0  0  0  0  0  0
   55.1690   29.3460   44.8530 N   0  0  0  0  0  0  0  0  0  0  0  0
   56.1050   30.1670   42.9010 O   0  0  0  0  0  0  0  0  0  0  0  0
   58.2560   30.8440   45.3740 C   0  0  0  0  0  0  0  0  0  0  0  0
   57.8490   32.1080   45.8060 C   0  0  0  0  0  0  0  0  0  0  0  0
   56.6790   32.5220   45.5840 O   0  0  0  0  0  0  0  0  0  0  0  0
   58.3567   34.2248   48.0760 H   0  0  0  0  0  0  0  0  0  0  0  0
   59.0753   34.9651   46.6055 H   0  0  0  0  0  0  0  0  0  0  0  0
   57.3519   34.4588   46.6055 H   0  0  0  0  0  0  0  0  0  0  0  0
   60.7179   33.0327   47.3392 H   0  0  0  0  0  0  0  0  0  0  0  0
   58.1596   27.6252   42.9043 H   0  0  0  0  0  0  0  0  0  0  0  0
   59.4994   26.9934   43.9340 H   0  0  0  0  0  0  0  0  0  0  0  0
   57.9591   24.8307   43.4346 H   0  0  0  0  0  0  0  0  0  0  0  0
   56.3033   23.3961   44.6450 H   0  0  0  0  0  0  0  0  0  0  0  0
   55.3113   26.7542   47.1800 H   0  0  0  0  0  0  0  0  0  0  0  0
   55.2900   28.6640   45.6340 H   0  0  0  0  0  0  0  0  0  0  0  0
  1  2  1  0
  2  3  1  0
  3  4  2  0
  4  5  1  0
  5  6  1  0
  6  7  1  0
  7  8  1  0
  8  9  1  0
  9 10  2  0
 10 11  1  0
 11 12  2  0
 12 13  1  0
 12 14  1  0
 14 15  2  0
  7 16  2  0
 16 17  1  0
 17 18  1  0
 17 19  2  0
 16 20  1  0
 20 21  1  0
 21 22  2  0
 21  2  1  0
 20  5  2  0
 15  9  1  0
  1 23  1  0
  1 24  1  0
  1 25  1  0
  3 26  1  0
  8 27  1  0
  8 28  1  0
 10 29  1  0
 11 30  1  0
 14 31  1  0
 18 32  1  0
M  CHG  2  13  -1  18  -1
M  END
>  <UniqueID>  (11) 
11

>  <SMILES>  (11) 
Cn1cnc2oc(Cc3ccc([O-])cn3)c(C([NH-])=O)c2c1=O

>  <Energy>  (11) 
75.25151615018076

>  <Genealogy>  (11) 
Cn1cnc2oc(Cc3ccc([O-])cn3)c(C([NH-])=O)c2c1=O (protonated)
Cn1cnc2oc(Cc3ccc([O-])cn3)c(C([NH-])=O)c2c1=O (3D coordinates assigned)
Cn1cnc2oc(Cc3ccc([O-])cn3)c(C([NH-])=O)c2c1=O (optimized conformer: 75.25151615018076 kcal/mol)

>  <smiles>  (11) 
Cn1cnc2oc(Cc3ccc(O)cn3)c(C(N)=O)c2c1=O

>  <score_type>  (11) 
oracle

>  <origin>  (11) 
adg

>  <m_score__min__energy>  (11) 
-11.52

>  <m_primary>  (11) 
energy

$$$$
11:0
     RDKit          3D

 34 35  0  0  0  0  0  0  0  0999 V2000
   55.3150   28.8896   43.2653 H   0  0  0  0  0  0  0  0  0  0  0  0
   55.9880   29.7200   43.5250 C   0  0  0  0  0  0  0  0  0  0  0  0
   56.2340   30.0850   44.8120 N   0  0  0  0  0  0  0  0  0  0  0  0
   57.0860   31.1330   44.8720 C   0  0  0  0  0  0  0  0  0  0  0  0
   57.5020   31.6760   45.9770 N   0  0  0  0  0  0  0  0  0  0  0  0
   57.9790   33.0210   46.1220 C   0  0  0  0  0  0  0  0  0  0  0  0
   57.4430   33.9280   45.4340 O   0  0  0  0  0  0  0  0  0  0  0  0
   59.0550   33.3880   47.0640 C   0  0  0  0  0  0  0  0  0  0  0  0
   59.8400   34.8750   47.0630 S   0  0  0  0  0  0  0  0  0  0  0  0
   60.8180   34.5850   48.3990 C   0  0  0  0  0  0  0  0  0  0  0  0
   61.5612   35.2795   48.8178 H   0  0  0  0  0  0  0  0  0  0  0  0
   60.5250   33.3170   48.8820 C   0  0  0  0  0  0  0  0  0  0  0  0
   61.0224   32.8779   49.7594 H   0  0  0  0  0  0  0  0  0  0  0  0
   59.5370   32.6490   48.1480 C   0  0  0  0  0  0  0  0  0  0  0  0
   58.9210   31.0370   48.6460 S   0  0  0  0  0  0  0  0  0  0  0  0
   60.0680   30.1200   47.5610 C   0  0  0  0  0  0  0  0  0  0  0  0
   61.0119   29.9513   48.1000 H   0  0  0  0  0  0  0  0  0  0  0  0
   60.2368   30.7180   46.6533 H   0  0  0  0  0  0  0  0  0  0  0  0
   59.4800   28.7560   47.1400 C   0  0  0  0  0  0  0  0  0  0  0  0
   58.8093   28.4133   47.9417 H   0  0  0  0  0  0  0  0  0  0  0  0
   60.3414   28.0929   46.9716 H   0  0  0  0  0  0  0  0  0  0  0  0
   58.7110   28.7600   45.8690 N   0  0  0  0  0  0  0  0  0  0  0  0
   58.0570   29.5780   45.9210 H   0  0  0  0  0  0  0  0  0  0  0  0
   57.8740   27.5600   45.6980 C   0  0  0  0  0  0  0  0  0  0  0  0
   57.5968   27.1626   46.6855 H   0  0  0  0  0  0  0  0  0  0  0  0
   56.9634   27.8245   45.1404 H   0  0  0  0  0  0  0  0  0  0  0  0
   58.4367   26.7969   45.1404 H   0  0  0  0  0  0  0  0  0  0  0  0
   59.5660   28.9760   44.6880 C   0  0  0  0  0  0  0  0  0  0  0  0
   60.5844   29.2333   45.0147 H   0  0  0  0  0  0  0  0  0  0  0  0
   59.5959   28.0572   44.0839 H   0  0  0  0  0  0  0  0  0  0  0  0
   59.1559   29.7988   44.0839 H   0  0  0  0  0  0  0  0  0  0  0  0
   57.5780   31.6370   43.3500 S   0  0  0  0  0  0  0  0  0  0  0  0
   56.6500   30.4740   42.5610 C   0  0  0  0  0  0  0  0  0  0  0  0
   56.5794   30.3346   41.4722 H   0  0  0  0  0  0  0  0  0  0  0  0
  1  2  1  0
  2  3  1  0
  3  4  1  0
  4  5  2  0
  5  6  1  0
  6  7  2  0
  6  8  1  0
  8  9  1  0
  9 10  1  0
 10 11  1  0
 10 12  2  0
 12 13  1  0
 12 14  1  0
 14 15  1  0
 15 16  1  0
 16 17  1  0
 16 18  1  0
 16 19  1  0
 19 20  1  0
 19 21  1  0
 19 22  1  0
 22 23  1  0
 22 24  1  0
 24 25  1  0
 24 26  1  0
 24 27  1  0
 22 28  1  0
 28 29  1  0
 28 30  1  0
 28 31  1  0
  4 32  1  0
 32 33  1  0
 33 34  1  0
 33  2  2  0
 14  8  2  0
M  CHG  2   3  -1  22   1
M  END
>  <UniqueID>  (12) 
12

>  <SMILES>  (12) 
C[NH+](C)CCSc1ccsc1C(=O)/N=c1\[n-]ccs1

>  <Energy>  (12) 
94.87432809924323

>  <Genealogy>  (12) 
C[NH+](C)CCSc1ccsc1C(=O)N=c1[n-]ccs1 (protonated)
C[NH+](C)CCSc1ccsc1C(=O)/N=c1\[n-]ccs1 (cis-trans isomerization)
C[NH+](C)CCSc1ccsc1C(=O)/N=c1\[n-]ccs1 (3D coordinates assigned)
C[NH+](C)CCSc1ccsc1C(=O)/N=c1\[n-]ccs1 (optimized conformer: 94.87432809924323 kcal/mol)

>  <smiles>  (12) 
CN(C)CCSc1ccsc1C(=O)N=c1[nH]ccs1

>  <score_type>  (12) 
oracle

>  <origin>  (12) 
adg

>  <m_score__min__energy>  (12) 
-6.5800000000000001

>  <m_primary>  (12) 
energy

$$$$
12:0
     RDKit          3D

 44 46  0  0  0  0  0  0  0  0999 V2000
   55.9320   30.6280   52.4680 C   0  0  0  0  0  0  0  0  0  0  0  0
   57.1030   31.5190   52.1810 C   0  0  0  0  0  0  0  0  0  0  0  0
   57.7970   32.1540   53.2180 C   0  0  0  0  0  0  0  0  0  0  0  0
   58.8870   32.9730   52.9270 C   0  0  0  0  0  0  0  0  0  0  0  0
   59.2920   33.1460   51.5980 C   0  0  0  0  0  0  0  0  0  0  0  0
   60.3240   33.9040   51.3560 N   0  0  0  0  0  0  0  0  0  0  0  0
   61.5120   33.5260   50.6500 C   0  0  0  0  0  0  0  0  0  0  0  0
   62.5750   34.1710   50.8500 O   0  0  0  0  0  0  0  0  0  0  0  0
   61.4710   32.4870   49.5650 C   0  0  0  0  0  0  0  0  0  0  0  0
   62.1920   32.9640   48.3320 C   0  0  0  0  0  0  0  0  0  0  0  0
   63.5030   32.6570   48.0040 C   0  0  0  0  0  0  0  0  0  0  0  0
   63.7450   33.2270   46.7700 C   0  0  0  0  0  0  0  0  0  0  0  0
   62.5740   33.8450   46.3820 C   0  0  0  0  0  0  0  0  0  0  0  0
   61.6320   33.6740   47.3280 N   0  0  0  0  0  0  0  0  0  0  0  0
   59.9970   34.2510   47.2240 S   0  0  0  0  0  0  0  0  0  0  0  0
   59.9980   35.6030   46.5660 O   0  0  0  0  0  0  0  0  0  0  0  0
   59.4170   34.3850   48.6040 O   0  0  0  0  0  0  0  0  0  0  0  0
   59.0180   33.1160   46.3030 C   0  0  0  0  0  0  0  0  0  0  0  0
   57.9020   33.5630   45.5860 C   0  0  0  0  0  0  0  0  0  0  0  0
   57.0910   32.6510   44.9030 C   0  0  0  0  0  0  0  0  0  0  0  0
   57.3860   31.2780   44.9300 C   0  0  0  0  0  0  0  0  0  0  0  0
   56.5350   30.3370   44.2480 N   0  0  0  0  0  0  0  0  0  0  0  0
   55.6250   29.7410   44.8610 O   0  0  0  0  0  0  0  0  0  0  0  0
   56.7020   30.0890   42.9050 O   0  0  0  0  0  0  0  0  0  0  0  0
   58.5200   30.8380   45.6360 C   0  0  0  0  0  0  0  0  0  0  0  0
   59.3290   31.7510   46.3190 C   0  0  0  0  0  0  0  0  0  0  0  0
   58.6260   32.4830   50.6000 N   0  0  0  0  0  0  0  0  0  0  0  0
   57.5500   31.6930   50.8660 C   0  0  0  0  0  0  0  0  0  0  0  0
   55.8036   30.5303   53.5561 H   0  0  0  0  0  0  0  0  0  0  0  0
   55.0227   31.0647   52.0292 H   0  0  0  0  0  0  0  0  0  0  0  0
   56.1104   29.6352   52.0292 H   0  0  0  0  0  0  0  0  0  0  0  0
   57.4824   32.0068   54.2617 H   0  0  0  0  0  0  0  0  0  0  0  0
   59.4272   33.4817   53.7390 H   0  0  0  0  0  0  0  0  0  0  0  0
   61.9520   31.5673   49.9295 H   0  0  0  0  0  0  0  0  0  0  0  0
   60.4199   32.2953   49.3036 H   0  0  0  0  0  0  0  0  0  0  0  0
   64.2124   32.0731   48.6088 H   0  0  0  0  0  0  0  0  0  0  0  0
   64.6886   33.1947   46.2055 H   0  0  0  0  0  0  0  0  0  0  0  0
   62.4316   34.3952   45.4402 H   0  0  0  0  0  0  0  0  0  0  0  0
   57.6619   34.6361   45.5596 H   0  0  0  0  0  0  0  0  0  0  0  0
   56.2166   33.0112   44.3411 H   0  0  0  0  0  0  0  0  0  0  0  0
   58.7723   29.7674   45.6509 H   0  0  0  0  0  0  0  0  0  0  0  0
   60.2121   31.3960   46.8704 H   0  0  0  0  0  0  0  0  0  0  0  0
   58.9450   32.5360   49.6080 H   0  0  0  0  0  0  0  0  0  0  0  0
   57.0274   31.1871   50.0408 H   0  0  0  0  0  0  0  0  0  0  0  0
  1  2  1  0
  2  3  1  0
  3  4  2  0
  4  5  1  0
  5  6  2  3
  6  7  1  0
  7  8  2  0
  7  9  1  0
  9 10  1  0
 10 11  2  0
 11 12  1  0
 12 13  2  0
 13 14  1  0
 14 15  1  0
 15 16  2  0
 15 17  2  0
 15 18  1  0
 18 19  2  0
 19 20  1  0
 20 21  2  0
 21 22  1  0
 22 23  2  0
 22 24  1  0
 21 25  1  0
 25 26  2  0
  5 27  1  0
 27 28  1  0
 28  2  2  0
 14 10  1  0
 26 18  1  0
  1 29  1  0
  1 30  1  0
  1 31  1  0
  3 32  1  0
  4 33  1  0
  9 34  1  0
  9 35  1  0
 11 36  1  0
 12 37  1  0
 13 38  1  0
 19 39  1  0
 20 40  1  0
 25 41  1  0
 26 42  1  0
 27 43  1  0
 28 44  1  0
M  CHG  2  22   1  24  -1
M  END
>  <UniqueID>  (13) 
13

>  <SMILES>  (13) 
Cc1ccc(=NC(=O)Cc2cccn2S(=O)(=O)c2ccc([N+](=O)[O-])cc2)[nH]c1

>  <Energy>  (13) 
76.86654881621239

>  <Genealogy>  (13) 
Cc1ccc(=NC(=O)Cc2cccn2S(=O)(=O)c2ccc([N+](=O)[O-])cc2)[nH]c1 (3D coordinates assigned)
Cc1ccc(=NC(=O)Cc2cccn2S(=O)(=O)c2ccc([N+](=O)[O-])cc2)[nH]c1 (optimized conformer: 76.86654881621239 kcal/mol)

>  <smiles>  (13) 
Cc1ccc(=NC(=O)Cc2cccn2S(=O)(=O)c2ccc([N+](=O)[O-])cc2)[nH]c1

>  <score_type>  (13) 
oracle

>  <origin>  (13) 
adg

>  <m_score__min__energy>  (13) 
-8.6799999999999997

>  <m_primary>  (13) 
energy

$$$$
13:0
     RDKit          3D

 42 44  0  0  0  0  0  0  0  0999 V2000
   58.3980   30.5210   47.0940 O   0  0  0  0  0  0  0  0  0  0  0  0
   58.1070   30.6540   45.8740 C   0  0  0  0  0  0  0  0  0  0  0  0
   58.4950   29.5920   44.8970 C   0  0  0  0  0  0  0  0  0  0  0  0
   58.0040   28.2610   45.3970 C   0  0  0  0  0  0  0  0  0  0  0  0
   58.9140   27.3250   45.9200 C   0  0  0  0  0  0  0  0  0  0  0  0
   58.4530   26.1220   46.4630 C   0  0  0  0  0  0  0  0  0  0  0  0
   57.0830   25.8460   46.4930 C   0  0  0  0  0  0  0  0  0  0  0  0
   56.1700   26.7750   45.9820 C   0  0  0  0  0  0  0  0  0  0  0  0
   54.8070   26.5020   46.0200 O   0  0  0  0  0  0  0  0  0  0  0  0
   56.6280   27.9800   45.4390 C   0  0  0  0  0  0  0  0  0  0  0  0
   57.3130   31.7570   45.4370 N   0  0  0  0  0  0  0  0  0  0  0  0
   58.0020   33.3210   45.1720 S   0  0  0  0  0  0  0  0  0  0  0  0
   56.9290   34.3670   45.2830 O   0  0  0  0  0  0  0  0  0  0  0  0
   58.6040   33.3710   43.7950 O   0  0  0  0  0  0  0  0  0  0  0  0
   59.2290   33.6130   46.4020 C   0  0  0  0  0  0  0  0  0  0  0  0
   58.8630   33.9350   47.7140 C   0  0  0  0  0  0  0  0  0  0  0  0
   59.8470   34.2030   48.6720 C   0  0  0  0  0  0  0  0  0  0  0  0
   61.2080   34.1600   48.3200 C   0  0  0  0  0  0  0  0  0  0  0  0
   62.2230   34.4180   49.2530 O   0  0  0  0  0  0  0  0  0  0  0  0
   63.0920   33.4590   49.7950 C   0  0  0  0  0  0  0  0  0  0  0  0
   64.3600   33.2040   49.2400 C   0  0  0  0  0  0  0  0  0  0  0  0
   65.1890   32.2260   49.7980 C   0  0  0  0  0  0  0  0  0  0  0  0
   64.7560   31.4880   50.9030 C   0  0  0  0  0  0  0  0  0  0  0  0
   63.4900   31.7230   51.4470 C   0  0  0  0  0  0  0  0  0  0  0  0
   62.6600   32.7020   50.8910 C   0  0  0  0  0  0  0  0  0  0  0  0
   61.5680   33.8060   47.0150 C   0  0  0  0  0  0  0  0  0  0  0  0
   60.5860   33.5370   46.0600 C   0  0  0  0  0  0  0  0  0  0  0  0
   58.0415   29.8081   43.9184 H   0  0  0  0  0  0  0  0  0  0  0  0
   59.5896   29.5675   44.7911 H   0  0  0  0  0  0  0  0  0  0  0  0
   59.9926   27.5402   45.9018 H   0  0  0  0  0  0  0  0  0  0  0  0
   59.1694   25.3916   46.8672 H   0  0  0  0  0  0  0  0  0  0  0  0
   56.7225   24.8979   46.9186 H   0  0  0  0  0  0  0  0  0  0  0  0
   55.9076   28.7109   45.0431 H   0  0  0  0  0  0  0  0  0  0  0  0
   57.7997   33.9775   47.9925 H   0  0  0  0  0  0  0  0  0  0  0  0
   59.5551   34.4481   49.7039 H   0  0  0  0  0  0  0  0  0  0  0  0
   64.7000   33.7761   48.3642 H   0  0  0  0  0  0  0  0  0  0  0  0
   66.1832   32.0373   49.3667 H   0  0  0  0  0  0  0  0  0  0  0  0
   65.4111   30.7225   51.3444 H   0  0  0  0  0  0  0  0  0  0  0  0
   63.1463   31.1378   52.3127 H   0  0  0  0  0  0  0  0  0  0  0  0
   61.6615   32.8784   51.3174 H   0  0  0  0  0  0  0  0  0  0  0  0
   62.6310   33.7393   46.7400 H   0  0  0  0  0  0  0  0  0  0  0  0
   60.8784   33.2644   45.0352 H   0  0  0  0  0  0  0  0  0  0  0  0
  1  2  2  0
  2  3  1  0
  3  4  1  0
  4  5  2  0
  5  6  1  0
  6  7  2  0
  7  8  1  0
  8  9  1  0
  8 10  2  0
  2 11  1  0
 11 12  1  0
 12 13  2  0
 12 14  2  0
 12 15  1  0
 15 16  2  0
 16 17  1  0
 17 18  2  0
 18 19  1  0
 19 20  1  0
 20 21  2  0
 21 22  1  0
 22 23  2  0
 23 24  1  0
 24 25  2  0
 18 26  1  0
 26 27  2  0
 10  4  1  0
 27 15  1  0
 25 20  1  0
  3 28  1  0
  3 29  1  0
  5 30  1  0
  6 31  1  0
  7 32  1  0
 10 33  1  0
 16 34  1  0
 17 35  1  0
 21 36  1  0
 22 37  1  0
 23 38  1  0
 24 39  1  0
 25 40  1  0
 26 41  1  0
 27 42  1  0
M  CHG  2   9  -1  11  -1
M  END
>  <UniqueID>  (14) 
14

>  <SMILES>  (14) 
O=C(Cc1cccc([O-])c1)[N-]S(=O)(=O)c1ccc(Oc2ccccc2)cc1

>  <Energy>  (14) 
49.77580792387461

>  <Genealogy>  (14) 
O=C(Cc1cccc([O-])c1)[N-]S(=O)(=O)c1ccc(Oc2ccccc2)cc1 (protonated)
O=C(Cc1cccc([O-])c1)[N-]S(=O)(=O)c1ccc(Oc2ccccc2)cc1 (3D coordinates assigned)
O=C(Cc1cccc([O-])c1)[N-]S(=O)(=O)c1ccc(Oc2ccccc2)cc1 (optimized conformer: 49.77580792387461 kcal/mol)

>  <smiles>  (14) 
O=C(Cc1cccc(O)c1)NS(=O)(=O)c1ccc(Oc2ccccc2)cc1

>  <score_type>  (14) 
oracle

>  <origin>  (14) 
adg

>  <m_score__min__energy>  (14) 
-14.25

>  <m_primary>  (14) 
energy

$$$$
14:0
     RDKit          3D

 54 56  0  0  0  0  0  0  0  0999 V2000
   64.4527   33.5695   46.8553 H   0  0  0  0  0  0  0  0  0  0  0  0
   63.4590   33.1440   47.0590 C   0  0  0  0  0  0  0  0  0  0  0  0
   63.3460   31.9060   47.6990 C   0  0  0  0  0  0  0  0  0  0  0  0
   64.2518   31.3553   47.9925 H   0  0  0  0  0  0  0  0  0  0  0  0
   62.0830   31.3660   47.9670 C   0  0  0  0  0  0  0  0  0  0  0  0
   61.9986   30.3874   48.4622 H   0  0  0  0  0  0  0  0  0  0  0  0
   60.9220   32.0710   47.6050 C   0  0  0  0  0  0  0  0  0  0  0  0
   59.5620   31.4900   47.8900 C   0  0  0  0  0  0  0  0  0  0  0  0
   59.3561   30.6854   47.1687 H   0  0  0  0  0  0  0  0  0  0  0  0
   58.8127   32.2902   47.7987 H   0  0  0  0  0  0  0  0  0  0  0  0
   59.4960   30.9190   49.3100 C   0  0  0  0  0  0  0  0  0  0  0  0
   58.7093   31.4409   49.8745 H   0  0  0  0  0  0  0  0  0  0  0  0
   60.4707   31.0638   49.7988 H   0  0  0  0  0  0  0  0  0  0  0  0
   59.2000   29.5240   49.2710 O   0  0  0  0  0  0  0  0  0  0  0  0
   59.8010   28.6370   48.3720 C   0  0  0  0  0  0  0  0  0  0  0  0
   60.9940   28.2640   48.5450 O   0  0  0  0  0  0  0  0  0  0  0  0
   59.0210   28.1370   47.2230 C   0  0  0  0  0  0  0  0  0  0  0  0
   59.1990   28.4570   45.8790 C   0  0  0  0  0  0  0  0  0  0  0  0
   60.2100   29.4210   45.3230 C   0  0  0  0  0  0  0  0  0  0  0  0
   60.7341   29.9208   46.1510 H   0  0  0  0  0  0  0  0  0  0  0  0
   60.9376   28.8738   44.7056 H   0  0  0  0  0  0  0  0  0  0  0  0
   59.6980   30.1738   44.7056 H   0  0  0  0  0  0  0  0  0  0  0  0
   58.2180   27.7600   45.1750 C   0  0  0  0  0  0  0  0  0  0  0  0
   57.8920   27.8690   43.7040 C   0  0  0  0  0  0  0  0  0  0  0  0
   58.8315   27.9343   43.1356 H   0  0  0  0  0  0  0  0  0  0  0  0
   57.3150   26.9778   43.4162 H   0  0  0  0  0  0  0  0  0  0  0  0
   57.0390   29.1070   43.3960 C   0  0  0  0  0  0  0  0  0  0  0  0
   57.6875   29.8916   42.9790 H   0  0  0  0  0  0  0  0  0  0  0  0
   56.2595   28.8151   42.6769 H   0  0  0  0  0  0  0  0  0  0  0  0
   56.3650   29.6370   44.6240 C   0  0  0  0  0  0  0  0  0  0  0  0
   55.1590   29.3380   44.8400 O   0  0  0  0  0  0  0  0  0  0  0  0
   57.0800   30.5690   45.4540 N   0  0  0  0  0  0  0  0  0  0  0  0
   57.5170   31.7800   45.2150 C   0  0  0  0  0  0  0  0  0  0  0  0
   58.0710   32.1720   43.9760 C   0  0  0  0  0  0  0  0  0  0  0  0
   58.1496   31.4496   43.1502 H   0  0  0  0  0  0  0  0  0  0  0  0
   58.5190   33.4870   43.8080 C   0  0  0  0  0  0  0  0  0  0  0  0
   58.9531   33.7994   42.8468 H   0  0  0  0  0  0  0  0  0  0  0  0
   58.4170   34.4040   44.8560 C   0  0  0  0  0  0  0  0  0  0  0  0
   58.7763   35.4362   44.7313 H   0  0  0  0  0  0  0  0  0  0  0  0
   57.8540   33.9930   46.0610 C   0  0  0  0  0  0  0  0  0  0  0  0
   57.7628   34.7048   46.8947 H   0  0  0  0  0  0  0  0  0  0  0  0
   57.4150   32.7100   46.2110 N   0  0  0  0  0  0  0  0  0  0  0  0
   56.9980   32.4340   47.1300 H   0  0  0  0  0  0  0  0  0  0  0  0
   57.4980   27.0470   46.1250 C   0  0  0  0  0  0  0  0  0  0  0  0
   56.2750   26.2200   45.8730 C   0  0  0  0  0  0  0  0  0  0  0  0
   55.8310   25.9198   46.8336 H   0  0  0  0  0  0  0  0  0  0  0  0
   55.5448   26.8104   45.3002 H   0  0  0  0  0  0  0  0  0  0  0  0
   56.5510   25.3224   45.3002 H   0  0  0  0  0  0  0  0  0  0  0  0
   57.9870   27.2830   47.3580 N   0  0  0  0  0  0  0  0  0  0  0  0
   57.6160   26.8940   48.2540 H   0  0  0  0  0  0  0  0  0  0  0  0
   61.0420   33.3050   46.9440 C   0  0  0  0  0  0  0  0  0  0  0  0
   60.1389   33.8516   46.6346 H   0  0  0  0  0  0  0  0  0  0  0  0
   62.3080   33.8410   46.6780 C   0  0  0  0  0  0  0  0  0  0  0  0
   62.3973   34.8118   46.1686 H   0  0  0  0  0  0  0  0  0  0  0  0
  1  2  1  0
  2  3  2  0
  3  4  1  0
  3  5  1  0
  5  6  1  0
  5  7  2  0
  7  8  1  0
  8  9  1  0
  8 10  1  0
  8 11  1  0
 11 12  1  0
 11 13  1  0
 11 14  1  0
 14 15  1  0
 15 16  2  0
 15 17  1  0
 17 18  2  0
 18 19  1  0
 19 20  1  0
 19 21  1  0
 19 22  1  0
 18 23  1  0
 23 24  1  0
 24 25  1  0
 24 26  1  0
 24 27  1  0
 27 28  1  0
 27 29  1  0
 27 30  1  0
 30 31  2  0
 30 32  1  0
 32 33  2  0
 33 34  1  0
 34 35  1  0
 34 36  2  0
 36 37  1  0
 36 38  1  0
 38 39  1  0
 38 40  2  0
 40 41  1  0
 40 42  1  0
 42 43  1  0
 23 44  2  0
 44 45  1  0
 45 46  1  0
 45 47  1  0
 45 48  1  0
 44 49  1  0
 49 50  1  0
  7 51  1  0
 51 52  1  0
 51 53  2  0
 53 54  1  0
 53  2  1  0
 49 17  1  0
 42 33  1  0
M  END
>  <UniqueID>  (15) 
15

>  <SMILES>  (15) 
Cc1[nH]c(C(=O)OCCc2ccccc2)c(C)c1CCC(=O)/N=c1\cccc[nH]1

>  <Energy>  (15) 
79.15355123986573

>  <Genealogy>  (15) 
Cc1[nH]c(C(=O)OCCc2ccccc2)c(C)c1CCC(=O)/N=c1\cccc[nH]1 (cis-trans isomerization)
Cc1[nH]c(C(=O)OCCc2ccccc2)c(C)c1CCC(=O)/N=c1\cccc[nH]1 (3D coordinates assigned)
Cc1[nH]c(C(=O)OCCc2ccccc2)c(C)c1CCC(=O)/N=c1\cccc[nH]1 (optimized conformer: 79.15355123986573 kcal/mol)

>  <smiles>  (15) 
Cc1[nH]c(C(=O)OCCc2ccccc2)c(C)c1CCC(=O)N=c1cccc[nH]1

>  <score_type>  (15) 
oracle

>  <origin>  (15) 
adg

>  <m_score__min__energy>  (15) 
-8.3000000000000007

>  <m_primary>  (15) 
energy

$$$$
15:0
     RDKit          3D

 44 47  0  0  0  0  0  0  0  0999 V2000
   60.2550   33.9050   49.7860 C   0  0  0  0  0  0  0  0  0  0  0  0
   61.3040   33.7960   48.7140 C   0  0  0  0  0  0  0  0  0  0  0  0
   62.6290   33.4850   49.0630 C   0  0  0  0  0  0  0  0  0  0  0  0
   63.6100   33.3630   48.0770 C   0  0  0  0  0  0  0  0  0  0  0  0
   63.2800   33.5550   46.7360 C   0  0  0  0  0  0  0  0  0  0  0  0
   61.9650   33.8540   46.3730 C   0  0  0  0  0  0  0  0  0  0  0  0
   60.9610   33.9480   47.3530 C   0  0  0  0  0  0  0  0  0  0  0  0
   59.6000   34.2420   46.9950 N   0  0  0  0  0  0  0  0  0  0  0  0
   59.0210   34.1540   45.6850 C   0  0  0  0  0  0  0  0  0  0  0  0
   58.9500   35.1950   44.9800 O   0  0  0  0  0  0  0  0  0  0  0  0
   58.5050   32.8800   45.1340 C   0  0  0  0  0  0  0  0  0  0  0  0
   57.9760   32.8990   43.8360 C   0  0  0  0  0  0  0  0  0  0  0  0
   57.5320   31.7250   43.2390 C   0  0  0  0  0  0  0  0  0  0  0  0
   57.5860   30.5170   43.9300 C   0  0  0  0  0  0  0  0  0  0  0  0
   58.0620   30.4680   45.2560 C   0  0  0  0  0  0  0  0  0  0  0  0
   58.5390   31.6610   45.8610 C   0  0  0  0  0  0  0  0  0  0  0  0
   58.9080   31.6290   47.3300 C   0  0  0  0  0  0  0  0  0  0  0  0
   59.4170   30.3540   47.7110 O   0  0  0  0  0  0  0  0  0  0  0  0
   58.8680   29.1710   47.2200 C   0  0  0  0  0  0  0  0  0  0  0  0
   59.0690   27.9790   47.9200 C   0  0  0  0  0  0  0  0  0  0  0  0
   58.4870   26.7950   47.4700 C   0  0  0  0  0  0  0  0  0  0  0  0
   57.6840   26.7930   46.3220 C   0  0  0  0  0  0  0  0  0  0  0  0
   57.0940   25.5570   45.8820 N   0  0  0  0  0  0  0  0  0  0  0  0
   55.6920   25.3690   45.6520 C   0  0  0  0  0  0  0  0  0  0  0  0
   54.8500   26.2410   45.9930 O   0  0  0  0  0  0  0  0  0  0  0  0
   57.5230   27.9840   45.5910 C   0  0  0  0  0  0  0  0  0  0  0  0
   58.1300   29.1840   46.0250 C   0  0  0  0  0  0  0  0  0  0  0  0
   60.7346   33.8552   50.7747 H   0  0  0  0  0  0  0  0  0  0  0  0
   59.7244   34.8631   49.6837 H   0  0  0  0  0  0  0  0  0  0  0  0
   59.5387   33.0764   49.6837 H   0  0  0  0  0  0  0  0  0  0  0  0
   62.8952   33.3367   50.1199 H   0  0  0  0  0  0  0  0  0  0  0  0
   64.6441   33.1152   48.3584 H   0  0  0  0  0  0  0  0  0  0  0  0
   64.0572   33.4708   45.9622 H   0  0  0  0  0  0  0  0  0  0  0  0
   61.7133   34.0169   45.3146 H   0  0  0  0  0  0  0  0  0  0  0  0
   57.9118   33.8496   43.2862 H   0  0  0  0  0  0  0  0  0  0  0  0
   57.1351   31.7502   42.2134 H   0  0  0  0  0  0  0  0  0  0  0  0
   57.2539   29.5919   43.4361 H   0  0  0  0  0  0  0  0  0  0  0  0
   59.6757   32.3929   47.5228 H   0  0  0  0  0  0  0  0  0  0  0  0
   58.0009   31.8295   47.9190 H   0  0  0  0  0  0  0  0  0  0  0  0
   59.6884   27.9746   48.8290 H   0  0  0  0  0  0  0  0  0  0  0  0
   58.6591   25.8575   48.0191 H   0  0  0  0  0  0  0  0  0  0  0  0
   57.7040   24.7110   45.8150 H   0  0  0  0  0  0  0  0  0  0  0  0
   55.3445   24.4444   45.1679 H   0  0  0  0  0  0  0  0  0  0  0  0
   56.9184   27.9812   44.6721 H   0  0  0  0  0  0  0  0  0  0  0  0
  1  2  1  0
  2  3  2  0
  3  4  1  0
  4  5  2  0
  5  6  1  0
  6  7  2  0
  7  8  1  0
  8  9  1  0
  9 10  2  0
  9 11  1  0
 11 12  2  0
 12 13  1  0
 13 14  2  0
 14 15  1  0
 15 16  2  0
 16 17  1  0
 17 18  1  0
 18 19  1  0
 19 20  2  0
 20 21  1  0
 21 22  2  0
 22 23  1  0
 23 24  1  0
 24 25  2  0
 22 26  1  0
 26 27  2  0
  7  2  1  0
 16 11  1  0
 27 19  1  0
 27 15  1  0
  1 28  1  0
  1 29  1  0
  1 30  1  0
  3 31  1  0
  4 32  1  0
  5 33  1  0
  6 34  1  0
 12 35  1  0
 13 36  1  0
 14 37  1  0
 17 38  1  0
 17 39  1  0
 20 40  1  0
 21 41  1  0
 23 42  1  0
 24 43  1  0
 26 44  1  0
M  CHG  1   8  -1
M  END
>  <UniqueID>  (16) 
16

>  <SMILES>  (16) 
Cc1ccccc1[N-]C(=O)c1cccc2c1COc1ccc(NC=O)cc1-2

>  <Energy>  (16) 
70.14621097484898

>  <Genealogy>  (16) 
Cc1ccccc1[N-]C(=O)c1cccc2c1COc1ccc(NC=O)cc1-2 (protonated)
Cc1ccccc1[N-]C(=O)c1cccc2c1COc1ccc(NC=O)cc1-2 (3D coordinates assigned)
Cc1ccccc1[N-]C(=O)c1cccc2c1COc1ccc(NC=O)cc1-2 (nonaromatic ring conformer: 70.14621097484898 kcal/mol)

>  <smiles>  (16) 
Cc1ccccc1NC(=O)c1cccc2c1COc1ccc(NC=O)cc1-2

>  <score_type>  (16) 
oracle

>  <origin>  (16) 
adg

>  <m_score__min__energy>  (16) 
-10.039999999999999

>  <m_primary>  (16) 
energy

$$$$
16:0
     RDKit          3D

 66 69  0  0  0  0  0  0  0  0999 V2000
   63.5840   29.7160   51.2940 C   0  0  0  0  0  0  0  0  0  0  0  0
   62.1390   29.4140   52.2900 S   0  0  0  0  0  0  0  0  0  0  0  0
   62.1510   27.9680   52.7040 O   0  0  0  0  0  0  0  0  0  0  0  0
   62.1770   30.2810   53.5160 O   0  0  0  0  0  0  0  0  0  0  0  0
   60.6940   29.7510   51.3780 N   0  0  0  0  0  0  0  0  0  0  0  0
   59.8880   28.6430   50.8510 C   0  0  0  0  0  0  0  0  0  0  0  0
   60.7740   27.4860   50.3650 C   0  0  0  0  0  0  0  0  0  0  0  0
   60.1770   26.7840   49.1300 C   0  0  0  0  0  0  0  0  0  0  0  0
   60.8340   27.1930   47.8790 N   0  0  0  0  0  0  0  0  0  0  0  0
   60.4220   26.3660   46.7370 C   0  0  0  0  0  0  0  0  0  0  0  0
   58.9310   26.4570   46.5640 C   0  0  0  0  0  0  0  0  0  0  0  0
   58.3650   27.5620   45.9070 C   0  0  0  0  0  0  0  0  0  0  0  0
   56.9830   27.6380   45.7220 C   0  0  0  0  0  0  0  0  0  0  0  0
   56.1540   26.6090   46.1800 C   0  0  0  0  0  0  0  0  0  0  0  0
   54.7790   26.6950   45.9940 O   0  0  0  0  0  0  0  0  0  0  0  0
   56.7090   25.4940   46.8210 C   0  0  0  0  0  0  0  0  0  0  0  0
   55.8780   24.4700   47.2710 O   0  0  0  0  0  0  0  0  0  0  0  0
   58.0970   25.4170   47.0070 C   0  0  0  0  0  0  0  0  0  0  0  0
   60.3180   31.1150   51.1250 C   0  0  0  0  0  0  0  0  0  0  0  0
   59.5880   31.8370   52.0810 C   0  0  0  0  0  0  0  0  0  0  0  0
   59.2540   33.1720   51.8490 C   0  0  0  0  0  0  0  0  0  0  0  0
   59.6400   33.7970   50.6620 C   0  0  0  0  0  0  0  0  0  0  0  0
   60.3510   33.0840   49.6820 C   0  0  0  0  0  0  0  0  0  0  0  0
   60.7860   33.7440   48.4280 C   0  0  0  0  0  0  0  0  0  0  0  0
   61.7120   34.5980   48.4810 O   0  0  0  0  0  0  0  0  0  0  0  0
   60.1820   33.4380   47.1540 N   0  0  0  0  0  0  0  0  0  0  0  0
   60.1820   34.4310   46.0700 C   0  0  0  0  0  0  0  0  0  0  0  0
   58.8290   34.4430   45.3660 C   0  0  0  0  0  0  0  0  0  0  0  0
   58.4950   33.0620   44.8820 C   0  0  0  0  0  0  0  0  0  0  0  0
   57.7640   32.8850   43.6970 C   0  0  0  0  0  0  0  0  0  0  0  0
   57.4340   31.6000   43.2590 C   0  0  0  0  0  0  0  0  0  0  0  0
   57.8200   30.4850   44.0070 C   0  0  0  0  0  0  0  0  0  0  0  0
   58.5340   30.6530   45.1960 C   0  0  0  0  0  0  0  0  0  0  0  0
   58.8800   31.9390   45.6410 C   0  0  0  0  0  0  0  0  0  0  0  0
   59.6050   32.0960   46.9590 C   0  0  0  0  0  0  0  0  0  0  0  0
   60.6980   31.7440   49.9280 C   0  0  0  0  0  0  0  0  0  0  0  0
   64.4493   29.8968   51.9486 H   0  0  0  0  0  0  0  0  0  0  0  0
   63.7814   28.8397   50.6591 H   0  0  0  0  0  0  0  0  0  0  0  0
   63.4139   30.5980   50.6591 H   0  0  0  0  0  0  0  0  0  0  0  0
   59.2229   28.2747   51.6460 H   0  0  0  0  0  0  0  0  0  0  0  0
   59.3054   29.0155   49.9955 H   0  0  0  0  0  0  0  0  0  0  0  0
   61.7658   27.8834   50.1033 H   0  0  0  0  0  0  0  0  0  0  0  0
   60.8442   26.7466   51.1764 H   0  0  0  0  0  0  0  0  0  0  0  0
   60.2936   25.6969   49.2510 H   0  0  0  0  0  0  0  0  0  0  0  0
   59.1173   27.0710   49.0612 H   0  0  0  0  0  0  0  0  0  0  0  0
   61.8730   27.1280   47.9920 H   0  0  0  0  0  0  0  0  0  0  0  0
   60.9196   26.7266   45.8247 H   0  0  0  0  0  0  0  0  0  0  0  0
   60.7065   25.3194   46.9207 H   0  0  0  0  0  0  0  0  0  0  0  0
   59.0127   28.3704   45.5369 H   0  0  0  0  0  0  0  0  0  0  0  0
   56.5450   28.5100   45.2144 H   0  0  0  0  0  0  0  0  0  0  0  0
   54.8680   24.5510   47.2340 H   0  0  0  0  0  0  0  0  0  0  0  0
   58.5348   24.5378   47.5023 H   0  0  0  0  0  0  0  0  0  0  0  0
   59.2778   31.3491   53.0168 H   0  0  0  0  0  0  0  0  0  0  0  0
   58.6846   33.7337   52.6041 H   0  0  0  0  0  0  0  0  0  0  0  0
   59.3861   34.8538   50.4929 H   0  0  0  0  0  0  0  0  0  0  0  0
   60.3816   35.4277   46.4904 H   0  0  0  0  0  0  0  0  0  0  0  0
   60.9630   34.1670   45.3417 H   0  0  0  0  0  0  0  0  0  0  0  0
   58.0541   34.7805   46.0700 H   0  0  0  0  0  0  0  0  0  0  0  0
   58.8730   35.1281   44.5066 H   0  0  0  0  0  0  0  0  0  0  0  0
   57.4497   33.7612   43.1110 H   0  0  0  0  0  0  0  0  0  0  0  0
   56.8697   31.4661   42.3243 H   0  0  0  0  0  0  0  0  0  0  0  0
   57.5615   29.4739   43.6595 H   0  0  0  0  0  0  0  0  0  0  0  0
   58.8268   29.7727   45.7870 H   0  0  0  0  0  0  0  0  0  0  0  0
   58.8925   31.9011   47.7741 H   0  0  0  0  0  0  0  0  0  0  0  0
   60.4407   31.3807   46.9569 H   0  0  0  0  0  0  0  0  0  0  0  0
   61.2724   31.1830   49.1761 H   0  0  0  0  0  0  0  0  0  0  0  0
  1  2  1  0
  2  3  2  0
  2  4  2  0
  2  5  1  0
  5  6  1  0
  6  7  1  0
  7  8  1  0
  8  9  1  0
  9 10  1  0
 10 11  1  0
 11 12  2  0
 12 13  1  0
 13 14  2  0
 14 15  1  0
 14 16  1  0
 16 17  1  0
 16 18  2  0
  5 19  1  0
 19 20  2  0
 20 21  1  0
 21 22  2  0
 22 23  1  0
 23 24  1  0
 24 25  2  0
 24 26  1  0
 26 27  1  0
 27 28  1  0
 28 29  1  0
 29 30  2  0
 30 31  1  0
 31 32  2  0
 32 33  1  0
 33 34  2  0
 34 35  1  0
 23 36  2  0
 18 11  1  0
 36 19  1  0
 35 26  1  0
 34 29  1  0
  1 37  1  0
  1 38  1  0
  1 39  1  0
  6 40  1  0
  6 41  1  0
  7 42  1  0
  7 43  1  0
  8 44  1  0
  8 45  1  0
  9 46  1  0
 10 47  1  0
 10 48  1  0
 12 49  1  0
 13 50  1  0
 17 51  1  0
 18 52  1  0
 20 53  1  0
 21 54  1  0
 22 55  1  0
 27 56  1  0
 27 57  1  0
 28 58  1  0
 28 59  1  0
 30 60  1  0
 31 61  1  0
 32 62  1  0
 33 63  1  0
 35 64  1  0
 35 65  1  0
 36 66  1  0
M  CHG  1  15  -1
M  END
>  <UniqueID>  (17) 
17

>  <SMILES>  (17) 
CS(=O)(=O)N(CCCNCc1ccc([O-])c(O)c1)c1cccc(C(=O)N2CCc3ccccc3C2)c1

>  <Energy>  (17) 
72.50586651781774

>  <Genealogy>  (17) 
CS(=O)(=O)N(CCCNCc1ccc([O-])c(O)c1)c1cccc(C(=O)N2CCc3ccccc3C2)c1 (protonated)
CS(=O)(=O)N(CCCNCc1ccc([O-])c(O)c1)c1cccc(C(=O)N2CCc3ccccc3C2)c1 (3D coordinates assigned)
CS(=O)(=O)N(CCCNCc1ccc([O-])c(O)c1)c1cccc(C(=O)N2CCc3ccccc3C2)c1 (nonaromatic ring conformer: 72.50586651781774 kcal/mol)

>  <smiles>  (17) 
CS(=O)(=O)N(CCCNCc1ccc(O)c(O)c1)c1cccc(C(=O)N2CCc3ccccc3C2)c1

>  <score_type>  (17) 
oracle

>  <origin>  (17) 
adg

>  <m_score__min__energy>  (17) 
-14.279999999999999

>  <m_primary>  (17) 
energy

$$$$
17:0
     RDKit          3D

 58 62  0  0  0  0  0  0  0  0999 V2000
   62.4870   30.7220   50.6340 H   0  0  0  0  0  0  0  0  0  0  0  0
   61.6320   31.2620   50.5740 O   0  0  0  0  0  0  0  0  0  0  0  0
   60.8880   31.3830   49.3980 C   0  0  0  0  0  0  0  0  0  0  0  0
   61.2770   30.6720   48.3120 N   0  0  0  0  0  0  0  0  0  0  0  0
   60.6050   30.7370   47.1360 C   0  0  0  0  0  0  0  0  0  0  0  0
   61.0100   30.0530   46.1570 O   0  0  0  0  0  0  0  0  0  0  0  0
   59.5030   31.5410   47.0170 N   0  0  0  0  0  0  0  0  0  0  0  0
   58.8040   31.6180   45.7600 C   0  0  0  0  0  0  0  0  0  0  0  0
   58.7910   32.8360   45.0630 C   0  0  0  0  0  0  0  0  0  0  0  0
   59.3272   33.7051   45.4718 H   0  0  0  0  0  0  0  0  0  0  0  0
   58.1020   32.9520   43.8540 C   0  0  0  0  0  0  0  0  0  0  0  0
   58.0984   33.9095   43.3125 H   0  0  0  0  0  0  0  0  0  0  0  0
   57.4180   31.8530   43.3330 C   0  0  0  0  0  0  0  0  0  0  0  0
   56.8713   31.9468   42.3831 H   0  0  0  0  0  0  0  0  0  0  0  0
   57.4260   30.6340   44.0150 C   0  0  0  0  0  0  0  0  0  0  0  0
   56.8831   29.7726   43.5988 H   0  0  0  0  0  0  0  0  0  0  0  0
   58.1210   30.4990   45.2270 C   0  0  0  0  0  0  0  0  0  0  0  0
   58.1080   28.9240   46.0350 S   0  0  0  0  0  0  0  0  0  0  0  0
   59.2810   28.0740   45.6260 O   0  0  0  0  0  0  0  0  0  0  0  0
   58.1610   29.1390   47.5240 O   0  0  0  0  0  0  0  0  0  0  0  0
   56.6530   28.0720   45.6300 N   0  0  0  0  0  0  0  0  0  0  0  0
   56.4480   26.6770   45.8840 C   0  0  0  0  0  0  0  0  0  0  0  0
   55.2700   26.2550   46.0270 O   0  0  0  0  0  0  0  0  0  0  0  0
   57.5530   25.7640   45.9740 N   0  0  0  0  0  0  0  0  0  0  0  0
   58.5180   26.0780   45.7310 H   0  0  0  0  0  0  0  0  0  0  0  0
   57.3880   24.3800   46.4160 C   0  0  0  0  0  0  0  0  0  0  0  0
   58.2763   24.0710   46.9864 H   0  0  0  0  0  0  0  0  0  0  0  0
   56.4936   24.3074   47.0522 H   0  0  0  0  0  0  0  0  0  0  0  0
   57.2220   23.4770   45.2230 C   0  0  0  0  0  0  0  0  0  0  0  0
   57.9670   22.2900   45.1170 C   0  0  0  0  0  0  0  0  0  0  0  0
   58.6636   22.0061   45.9196 H   0  0  0  0  0  0  0  0  0  0  0  0
   57.8250   21.4690   43.9940 C   0  0  0  0  0  0  0  0  0  0  0  0
   58.4050   20.5374   43.9182 H   0  0  0  0  0  0  0  0  0  0  0  0
   56.9470   21.8300   42.9670 C   0  0  0  0  0  0  0  0  0  0  0  0
   56.8371   21.1818   42.0851 H   0  0  0  0  0  0  0  0  0  0  0  0
   56.2080   23.0150   43.0600 C   0  0  0  0  0  0  0  0  0  0  0  0
   55.5202   23.2998   42.2502 H   0  0  0  0  0  0  0  0  0  0  0  0
   56.3450   23.8370   44.1840 C   0  0  0  0  0  0  0  0  0  0  0  0
   55.7644   24.7686   44.2553 H   0  0  0  0  0  0  0  0  0  0  0  0
   59.0650   32.2710   48.0910 C   0  0  0  0  0  0  0  0  0  0  0  0
   58.0620   33.0320   47.9710 O   0  0  0  0  0  0  0  0  0  0  0  0
   59.7510   32.2050   49.3190 C   0  0  0  0  0  0  0  0  0  0  0  0
   59.3480   33.0460   50.4670 C   0  0  0  0  0  0  0  0  0  0  0  0
   59.2749   34.1336   50.3197 H   0  0  0  0  0  0  0  0  0  0  0  0
   59.0680   32.5460   51.6770 C   0  0  0  0  0  0  0  0  0  0  0  0
   59.7900   32.7370   52.9480 C   0  0  0  0  0  0  0  0  0  0  0  0
   60.7275   33.3042   53.0450 H   0  0  0  0  0  0  0  0  0  0  0  0
   59.1850   32.1540   53.9410 N   0  0  0  0  0  0  0  0  0  0  0  0
   58.0180   31.5400   53.4000 C   0  0  0  0  0  0  0  0  0  0  0  0
   57.0560   30.8110   54.1000 C   0  0  0  0  0  0  0  0  0  0  0  0
   57.1480   30.6489   55.1841 H   0  0  0  0  0  0  0  0  0  0  0  0
   55.9650   30.2890   53.3810 C   0  0  0  0  0  0  0  0  0  0  0  0
   55.1910   29.7092   53.9052 H   0  0  0  0  0  0  0  0  0  0  0  0
   55.8590   30.5060   51.9890 C   0  0  0  0  0  0  0  0  0  0  0  0
   55.0028   30.0934   51.4352 H   0  0  0  0  0  0  0  0  0  0  0  0
   56.8410   31.2460   51.3070 C   0  0  0  0  0  0  0  0  0  0  0  0
   56.7691   31.4213   50.2234 H   0  0  0  0  0  0  0  0  0  0  0  0
   57.9100   31.7510   52.0490 C   0  0  0  0  0  0  0  0  0  0  0  0
  1  2  1  0
  2  3  1  0
  3  4  1  0
  4  5  1  0
  5  6  2  0
  5  7  1  0
  7  8  1  0
  8  9  2  0
  9 10  1  0
  9 11  1  0
 11 12  1  0
 11 13  2  0
 13 14  1  0
 13 15  1  0
 15 16  1  0
 15 17  2  0
 17 18  1  0
 18 19  2  0
 18 20  2  0
 18 21  1  0
 21 22  1  0
 22 23  2  0
 22 24  1  0
 24 25  1  0
 24 26  1  0
 26 27  1  0
 26 28  1  0
 26 29  1  0
 29 30  2  0
 30 31  1  0
 30 32  1  0
 32 33  1  0
 32 34  2  0
 34 35  1  0
 34 36  1  0
 36 37  1  0
 36 38  2  0
 38 39  1  0
  7 40  1  0
 40 41  2  0
 40 42  1  0
 42 43  1  0
 43 44  1  0
 43 45  2  0
 45 46  1  0
 46 47  1  0
 46 48  2  0
 48 49  1  0
 49 50  2  0
 50 51  1  0
 50 52  1  0
 52 53  1  0
 52 54  2  0
 54 55  1  0
 54 56  1  0
 56 57  1  0
 56 58  2  0
 42  3  2  0
 58 45  1  0
 17  8  1  0
 38 29  1  0
 58 49  1  0
M  CHG  2   4  -1  21  -1
M  END
>  <UniqueID>  (18) 
18

>  <SMILES>  (18) 
O=C([N-]S(=O)(=O)c1ccccc1-n1c(=O)[n-]c(O)c(/C=C2\C=Nc3ccccc32)c1=O)NCc1ccccc1

>  <Energy>  (18) 
112.93722081484964

>  <Genealogy>  (18) 
O=C([N-]S(=O)(=O)c1ccccc1-n1c(=O)[n-]c(O)c(C=C2C=Nc3ccccc32)c1=O)NCc1ccccc1 (protonated)
O=C([N-]S(=O)(=O)c1ccccc1-n1c(=O)[n-]c(O)c(/C=C2\C=Nc3ccccc32)c1=O)NCc1ccccc1 (cis-trans isomerization)
O=C([N-]S(=O)(=O)c1ccccc1-n1c(=O)[n-]c(O)c(/C=C2\C=Nc3ccccc32)c1=O)NCc1ccccc1 (3D coordinates assigned)
O=C([N-]S(=O)(=O)c1ccccc1-n1c(=O)[n-]c(O)c(/C=C2\C=Nc3ccccc32)c1=O)NCc1ccccc1 (nonaromatic ring conformer: 112.93722081484964 kcal/mol)

>  <smiles>  (18) 
O=C(NCc1ccccc1)NS(=O)(=O)c1ccccc1-n1c(=O)[nH]c(O)c(C=C2C=Nc3ccccc32)c1=O

>  <score_type>  (18) 
oracle

>  <origin>  (18) 
adg

>  <m_score__min__energy>  (18) 
-11.699999999999999

>  <m_primary>  (18) 
energy

$$$$
18:0
     RDKit          3D

 37 39  0  0  0  0  0  0  0  0999 V2000
   59.8037   35.0842   46.9612 H   0  0  0  0  0  0  0  0  0  0  0  0
   59.8320   34.0170   46.6960 C   0  0  0  0  0  0  0  0  0  0  0  0
   58.7440   33.4960   46.1130 C   0  0  0  0  0  0  0  0  0  0  0  0
   57.8490   34.3700   44.8480 S   0  0  0  0  0  0  0  0  0  0  0  0
   57.5090   32.7230   44.2300 C   0  0  0  0  0  0  0  0  0  0  0  0
   58.1670   32.3630   42.9920 S   0  0  0  0  0  0  0  0  0  0  0  0
   57.2230   31.7590   45.2960 N   0  0  1  0  0  0  0  0  0  0  0  0
   56.2710   31.9930   45.6590 H   0  0  0  0  0  0  0  0  0  0  0  0
   57.2680   30.3000   44.9330 C   0  0  2  0  0  0  0  0  0  0  0  0
   58.1723   30.2092   44.3133 H   0  0  0  0  0  0  0  0  0  0  0  0
   56.0380   29.8740   44.1570 C   0  0  0  0  0  0  0  0  0  0  0  0
   55.0590   29.3410   44.7440 O   0  0  0  0  0  0  0  0  0  0  0  0
   56.0080   30.0260   42.7770 O   0  0  0  0  0  0  0  0  0  0  0  0
   57.4120   29.3430   46.1560 C   0  0  0  0  0  0  0  0  0  0  0  0
   57.4640   29.9557   47.0681 H   0  0  0  0  0  0  0  0  0  0  0  0
   56.5378   28.6756   46.1370 H   0  0  0  0  0  0  0  0  0  0  0  0
   58.6360   28.4530   46.1130 C   0  0  0  0  0  0  0  0  0  0  0  0
   58.6910   27.2710   46.8710 C   0  0  0  0  0  0  0  0  0  0  0  0
   57.8403   26.9905   47.5095 H   0  0  0  0  0  0  0  0  0  0  0  0
   59.8220   26.4490   46.8180 C   0  0  0  0  0  0  0  0  0  0  0  0
   59.8548   25.5215   47.4084 H   0  0  0  0  0  0  0  0  0  0  0  0
   60.9090   26.8040   46.0170 C   0  0  0  0  0  0  0  0  0  0  0  0
   61.7965   26.1555   45.9750 H   0  0  0  0  0  0  0  0  0  0  0  0
   60.8690   27.9830   45.2690 C   0  0  0  0  0  0  0  0  0  0  0  0
   61.7269   28.2639   44.6404 H   0  0  0  0  0  0  0  0  0  0  0  0
   59.7410   28.8060   45.3180 C   0  0  0  0  0  0  0  0  0  0  0  0
   59.7171   29.7360   44.7310 H   0  0  0  0  0  0  0  0  0  0  0  0
   58.1760   32.1580   46.3060 C   0  0  0  0  0  0  0  0  0  0  0  0
   58.3730   31.4990   47.3610 O   0  0  0  0  0  0  0  0  0  0  0  0
   61.0620   33.2720   47.0090 C   0  0  0  0  0  0  0  0  0  0  0  0
   62.6130   33.8250   46.6740 S   0  0  0  0  0  0  0  0  0  0  0  0
   63.4190   32.4250   47.1400 C   0  0  0  0  0  0  0  0  0  0  0  0
   64.5087   32.2748   47.1305 H   0  0  0  0  0  0  0  0  0  0  0  0
   62.4720   31.4910   47.5390 C   0  0  0  0  0  0  0  0  0  0  0  0
   62.7331   30.4821   47.8911 H   0  0  0  0  0  0  0  0  0  0  0  0
   61.1540   31.9540   47.4510 C   0  0  0  0  0  0  0  0  0  0  0  0
   60.2784   31.3387   47.7054 H   0  0  0  0  0  0  0  0  0  0  0  0
  1  2  1  0
  2  3  2  0
  3  4  1  0
  4  5  1  0
  5  6  2  0
  5  7  1  0
  7  8  1  1
  7  9  1  0
  9 10  1  6
  9 11  1  0
 11 12  2  0
 11 13  1  0
  9 14  1  0
 14 15  1  0
 14 16  1  0
 14 17  1  0
 17 18  2  0
 18 19  1  0
 18 20  1  0
 20 21  1  0
 20 22  2  0
 22 23  1  0
 22 24  1  0
 24 25  1  0
 24 26  2  0
 26 27  1  0
  7 28  1  0
 28 29  2  0
  2 30  1  0
 30 31  1  0
 31 32  1  0
 32 33  1  0
 32 34  2  0
 34 35  1  0
 34 36  1  0
 36 37  1  0
 28  3  1  0
 36 30  2  0
 26 17  1  0
M  CHG  2   7   1  13  -1
M  END
>  <UniqueID>  (19) 
19

>  <SMILES>  (19) 
O=C([O-])[C@H](Cc1ccccc1)[N@H+]1C(=O)/C(=C\c2cccs2)SC1=S

>  <Energy>  (19) 
104.36598908112737

>  <Genealogy>  (19) 
O=C([O-])C(Cc1ccccc1)[NH+]1C(=O)C(=Cc2cccs2)SC1=S (protonated)
O=C([O-])[C@H](Cc1ccccc1)[N@H+]1C(=O)C(=Cc2cccs2)SC1=S (chirality)
O=C([O-])[C@H](Cc1ccccc1)[N@H+]1C(=O)/C(=C\c2cccs2)SC1=S (cis-trans isomerization)
O=C([O-])[C@H](Cc1ccccc1)[N@H+]1C(=O)/C(=C\c2cccs2)SC1=S (3D coordinates assigned)
O=C([O-])[C@H](Cc1ccccc1)[N@H+]1C(=O)/C(=C\c2cccs2)SC1=S (nonaromatic ring conformer: 104.36598908112737 kcal/mol)

>  <smiles>  (19) 
O=C(O)C(Cc1ccccc1)N1C(=O)C(=Cc2cccs2)SC1=S

>  <score_type>  (19) 
oracle

>  <origin>  (19) 
adg

>  <m_score__min__energy>  (19) 
-9.7100000000000009

>  <m_primary>  (19) 
energy

$$$$
19:0
     RDKit          3D

 39 41  0  0  0  0  0  0  0  0999 V2000
   54.8300   26.2390   45.7770 O   0  0  0  0  0  0  0  0  0  0  0  0
   55.7840   25.4470   45.9960 C   0  0  0  0  0  0  0  0  0  0  0  0
   56.6310   25.6870   47.1260 N   0  0  0  0  0  0  0  0  0  0  0  0
   58.0590   25.9740   47.0520 C   0  0  0  0  0  0  0  0  0  0  0  0
   58.2740   27.1870   46.2080 C   0  0  0  0  0  0  0  0  0  0  0  0
   59.5030   27.6810   45.8090 C   0  0  0  0  0  0  0  0  0  0  0  0
   59.2460   28.8530   45.1240 C   0  0  0  0  0  0  0  0  0  0  0  0
   57.8750   29.0180   45.1470 C   0  0  0  0  0  0  0  0  0  0  0  0
   56.9990   30.3750   44.4640 S   0  0  0  0  0  0  0  0  0  0  0  0
   55.5420   30.2520   44.8100 O   0  0  0  0  0  0  0  0  0  0  0  0
   57.1380   30.3760   42.9670 O   0  0  0  0  0  0  0  0  0  0  0  0
   57.6630   31.8690   45.1120 C   0  0  0  0  0  0  0  0  0  0  0  0
   58.1430   31.9090   46.4300 C   0  0  0  0  0  0  0  0  0  0  0  0
   58.6500   33.1010   46.9570 C   0  0  0  0  0  0  0  0  0  0  0  0
   58.6760   34.2590   46.1730 C   0  0  0  0  0  0  0  0  0  0  0  0
   58.1910   34.2260   44.8620 C   0  0  0  0  0  0  0  0  0  0  0  0
   57.6830   33.0360   44.3310 C   0  0  0  0  0  0  0  0  0  0  0  0
   57.2860   28.0100   45.8130 N   0  0  0  0  0  0  0  0  0  0  0  0
   55.9680   24.2840   45.1060 C   0  0  0  0  0  0  0  0  0  0  0  0
   55.7580   22.9870   45.5930 C   0  0  0  0  0  0  0  0  0  0  0  0
   55.9180   21.8880   44.7470 C   0  0  0  0  0  0  0  0  0  0  0  0
   56.2720   22.0970   43.4110 C   0  0  0  0  0  0  0  0  0  0  0  0
   56.4180   21.1120   42.6390 O   0  0  0  0  0  0  0  0  0  0  0  0
   56.4510   23.3640   42.9430 N   0  0  0  0  0  0  0  0  0  0  0  0
   56.3010   24.4490   43.7530 C   0  0  0  0  0  0  0  0  0  0  0  0
   58.4504   26.1559   48.0638 H   0  0  0  0  0  0  0  0  0  0  0  0
   58.5852   25.1167   46.6070 H   0  0  0  0  0  0  0  0  0  0  0  0
   60.4884   27.2305   45.9992 H   0  0  0  0  0  0  0  0  0  0  0  0
   59.9843   29.5200   44.6550 H   0  0  0  0  0  0  0  0  0  0  0  0
   58.1204   31.0007   47.0500 H   0  0  0  0  0  0  0  0  0  0  0  0
   59.0288   33.1279   47.9894 H   0  0  0  0  0  0  0  0  0  0  0  0
   59.0778   35.1953   46.5876 H   0  0  0  0  0  0  0  0  0  0  0  0
   58.2090   35.1378   44.2470 H   0  0  0  0  0  0  0  0  0  0  0  0
   57.2987   33.0141   43.3005 H   0  0  0  0  0  0  0  0  0  0  0  0
   56.2640   27.9000   46.0030 H   0  0  0  0  0  0  0  0  0  0  0  0
   55.4668   22.8346   46.6428 H   0  0  0  0  0  0  0  0  0  0  0  0
   55.7669   20.8673   45.1282 H   0  0  0  0  0  0  0  0  0  0  0  0
   56.7000   23.5140   41.9400 H   0  0  0  0  0  0  0  0  0  0  0  0
   56.4418   25.4604   43.3439 H   0  0  0  0  0  0  0  0  0  0  0  0
  1  2  2  0
  2  3  1  0
  3  4  1  0
  4  5  1  0
  5  6  2  0
  6  7  1  0
  7  8  2  0
  8  9  1  0
  9 10  2  0
  9 11  2  0
  9 12  1  0
 12 13  2  0
 13 14  1  0
 14 15  2  0
 15 16  1  0
 16 17  2  0
  8 18  1  0
  2 19  1  0
 19 20  1  0
 20 21  2  0
 21 22  1  0
 22 23  2  0
 22 24  1  0
 24 25  1  0
 18  5  1  0
 25 19  2  0
 17 12  1  0
  4 26  1  0
  4 27  1  0
  6 28  1  0
  7 29  1  0
 13 30  1  0
 14 31  1  0
 15 32  1  0
 16 33  1  0
 17 34  1  0
 18 35  1  0
 20 36  1  0
 21 37  1  0
 24 38  1  0
 25 39  1  0
M  CHG  1   3  -1
M  END
>  <UniqueID>  (20) 
20

>  <SMILES>  (20) 
O=C([N-]Cc1ccc(S(=O)(=O)c2ccccc2)[nH]1)c1ccc(=O)[nH]c1

>  <Energy>  (20) 
71.61270761836134

>  <Genealogy>  (20) 
O=C([N-]Cc1ccc(S(=O)(=O)c2ccccc2)[nH]1)c1ccc(=O)[nH]c1 (protonated)
O=C([N-]Cc1ccc(S(=O)(=O)c2ccccc2)[nH]1)c1ccc(=O)[nH]c1 (3D coordinates assigned)
O=C([N-]Cc1ccc(S(=O)(=O)c2ccccc2)[nH]1)c1ccc(=O)[nH]c1 (optimized conformer: 71.61270761836134 kcal/mol)

>  <smiles>  (20) 
O=C(NCc1ccc(S(=O)(=O)c2ccccc2)[nH]1)c1ccc(=O)[nH]c1

>  <score_type>  (20) 
oracle

>  <origin>  (20) 
adg

>  <m_score__min__energy>  (20) 
-11.27

>  <m_primary>  (20) 
energy

$$$$
20:0
     RDKit          3D

 58 63  0  0  0  0  0  0  0  0999 V2000
   57.6031   27.0890   44.2874 H   0  0  0  0  0  0  0  0  0  0  0  0
   57.9000   26.9260   45.3340 C   0  0  0  0  0  0  0  0  0  0  0  0
   57.2340   25.8160   46.0490 C   0  0  0  0  0  0  0  0  0  0  0  0
   57.8330   24.7210   46.5510 N   0  0  0  0  0  0  0  0  0  0  0  0
   56.8170   24.0260   47.1020 C   0  0  0  0  0  0  0  0  0  0  0  0
   56.9830   22.9150   47.6710 O   0  0  0  0  0  0  0  0  0  0  0  0
   55.6070   24.6150   47.0000 N   0  0  0  0  0  0  0  0  0  0  0  0
   55.8920   25.7490   46.3380 C   0  0  0  0  0  0  0  0  0  0  0  0
   54.9440   26.7090   46.0090 O   0  0  0  0  0  0  0  0  0  0  0  0
   58.8330   27.7570   45.8350 C   0  0  0  0  0  0  0  0  0  0  0  0
   59.8860   27.3680   46.6680 C   0  0  0  0  0  0  0  0  0  0  0  0
   60.0842   26.3388   47.0019 H   0  0  0  0  0  0  0  0  0  0  0  0
   60.6230   28.4510   47.0000 N   0  0  0  0  0  0  0  0  0  0  0  0
   61.4820   28.4590   47.5950 H   0  0  0  0  0  0  0  0  0  0  0  0
   60.0820   29.5050   46.4150 N   0  0  0  0  0  0  0  0  0  0  0  0
   60.5040   30.7960   46.4350 C   0  0  0  0  0  0  0  0  0  0  0  0
   61.5640   31.1340   47.1060 N   0  0  0  0  0  0  0  0  0  0  0  0
   61.7920   32.4790   47.6280 C   0  0  0  0  0  0  0  0  0  0  0  0
   60.8522   32.5814   48.1905 H   0  0  0  0  0  0  0  0  0  0  0  0
   62.5790   33.3720   46.6850 C   0  0  0  0  0  0  0  0  0  0  0  0
   62.8396   33.0151   45.6777 H   0  0  0  0  0  0  0  0  0  0  0  0
   62.4536   34.3911   46.2904 H   0  0  0  0  0  0  0  0  0  0  0  0
   63.2530   32.7640   47.9070 C   0  0  0  0  0  0  0  0  0  0  0  0
   64.0021   31.9681   47.7829 H   0  0  0  0  0  0  0  0  0  0  0  0
   63.8181   33.1625   48.7625 H   0  0  0  0  0  0  0  0  0  0  0  0
   59.8040   31.7130   45.7060 N   0  0  0  0  0  0  0  0  0  0  0  0
   58.7120   31.3260   44.9800 C   0  0  0  0  0  0  0  0  0  0  0  0
   57.8810   32.4910   43.9070 S   0  0  0  0  0  0  0  0  0  0  0  0
   57.0080   33.3720   45.2600 C   0  0  0  0  0  0  0  0  0  0  0  0
   56.5287   34.2701   44.8433 H   0  0  0  0  0  0  0  0  0  0  0  0
   56.2693   32.6774   45.6864 H   0  0  0  0  0  0  0  0  0  0  0  0
   57.9320   33.7910   46.3710 C   0  0  0  0  0  0  0  0  0  0  0  0
   58.7510   34.8640   46.1860 N   0  0  0  0  0  0  0  0  0  0  0  0
   59.6060   35.2920   47.1460 C   0  0  0  0  0  0  0  0  0  0  0  0
   60.2297   36.1810   46.9707 H   0  0  0  0  0  0  0  0  0  0  0  0
   59.6950   34.6060   48.3550 C   0  0  0  0  0  0  0  0  0  0  0  0
   60.3981   34.9422   49.1313 H   0  0  0  0  0  0  0  0  0  0  0  0
   58.8830   33.4840   48.5770 C   0  0  0  0  0  0  0  0  0  0  0  0
   59.0370   32.6680   49.8360 C   0  0  0  0  0  0  0  0  0  0  0  0
   60.0869   32.3552   49.9350 H   0  0  0  0  0  0  0  0  0  0  0  0
   58.7355   33.2883   50.6929 H   0  0  0  0  0  0  0  0  0  0  0  0
   58.1750   31.4640   49.8010 N   0  0  0  0  0  0  0  0  0  0  0  0
   58.9040   30.3220   49.2270 C   0  0  0  0  0  0  0  0  0  0  0  0
   58.2013   29.6511   48.7111 H   0  0  0  0  0  0  0  0  0  0  0  0
   59.6504   30.6708   48.4981 H   0  0  0  0  0  0  0  0  0  0  0  0
   59.5840   29.5800   50.3690 C   0  0  0  0  0  0  0  0  0  0  0  0
   59.4841   28.4928   50.2344 H   0  0  0  0  0  0  0  0  0  0  0  0
   60.6608   29.8000   50.4143 H   0  0  0  0  0  0  0  0  0  0  0  0
   58.8660   30.0260   51.6270 C   0  0  0  0  0  0  0  0  0  0  0  0
   58.3937   29.1671   52.1263 H   0  0  0  0  0  0  0  0  0  0  0  0
   59.5559   30.4772   52.3553 H   0  0  0  0  0  0  0  0  0  0  0  0
   57.8100   31.0160   51.1560 C   0  0  0  0  0  0  0  0  0  0  0  0
   56.8245   30.5279   51.1345 H   0  0  0  0  0  0  0  0  0  0  0  0
   57.7604   31.8752   51.8411 H   0  0  0  0  0  0  0  0  0  0  0  0
   57.9710   33.0920   47.5870 C   0  0  0  0  0  0  0  0  0  0  0  0
   57.2923   32.2442   47.7619 H   0  0  0  0  0  0  0  0  0  0  0  0
   58.3050   30.0270   44.9890 N   0  0  0  0  0  0  0  0  0  0  0  0
   59.0090   29.1300   45.7140 C   0  0  0  0  0  0  0  0  0  0  0  0
  1  2  1  0
  2  3  1  0
  3  4  1  0
  4  5  1  0
  5  6  2  0
  5  7  1  0
  7  8  1  0
  8  9  1  0
  2 10  2  3
 10 11  1  0
 11 12  1  0
 11 13  2  0
 13 14  1  0
 13 15  1  0
 15 16  1  0
 16 17  2  0
 17 18  1  0
 18 19  1  0
 18 20  1  0
 20 21  1  0
 20 22  1  0
 20 23  1  0
 23 24  1  0
 23 25  1  0
 16 26  1  0
 26 27  2  0
 27 28  1  0
 28 29  1  0
 29 30  1  0
 29 31  1  0
 29 32  1  0
 32 33  2  0
 33 34  1  0
 34 35  1  0
 34 36  2  0
 36 37  1  0
 36 38  1  0
 38 39  1  0
 39 40  1  0
 39 41  1  0
 39 42  1  0
 42 43  1  0
 43 44  1  0
 43 45  1  0
 43 46  1  0
 46 47  1  0
 46 48  1  0
 46 49  1  0
 49 50  1  0
 49 51  1  0
 49 52  1  0
 52 53  1  0
 52 54  1  0
 38 55  2  0
 55 56  1  0
 27 57  1  0
 57 58  2  0
  8  3  2  0
 58 10  1  0
 58 15  1  0
 23 18  1  0
 55 32  1  0
 52 42  1  0
M  CHG  4   4  -1   7  -1   9  -1  13   1
M  END
>  <UniqueID>  (21) 
21

>  <SMILES>  (21) 
O=c1[n-]c([O-])c(C=c2c[nH+]n3/c(=N/C4CC4)nc(SCc4cc(CN5CCCC5)ccn4)nc23)[n-]1

>  <Energy>  (21) 
398.60680837326197

>  <Genealogy>  (21) 
O=c1[n-]c([O-])c(C=c2c[nH+]n3c(=NC4CC4)nc(SCc4cc(CN5CCCC5)ccn4)nc23)[n-]1 (protonated)
O=c1[n-]c([O-])c(C=c2c[nH+]n3/c(=N/C4CC4)nc(SCc4cc(CN5CCCC5)ccn4)nc23)[n-]1 (cis-trans isomerization)
O=c1[n-]c([O-])c(C=c2c[nH+]n3/c(=N/C4CC4)nc(SCc4cc(CN5CCCC5)ccn4)nc23)[n-]1 (3D coordinates assigned)
O=c1[n-]c([O-])c(C=c2c[nH+]n3/c(=N/C4CC4)nc(SCc4cc(CN5CCCC5)ccn4)nc23)[n-]1 (nonaromatic ring conformer: 398.60680837326197 kcal/mol)

>  <smiles>  (21) 
O=c1[nH]c(O)c(C=c2cnn3c(=NC4CC4)nc(SCc4cc(CN5CCCC5)ccn4)nc23)[nH]1

>  <score_type>  (21) 
oracle

>  <origin>  (21) 
adg

>  <m_score__min__energy>  (21) 
-18.25

>  <m_primary>  (21) 
energy

$$$$
21:0
     RDKit          3D

 40 42  0  0  0  0  0  0  0  0999 V2000
   56.2650   28.4100   43.4560 H   0  0  0  0  0  0  0  0  0  0  0  0
   56.9400   28.9500   42.9270 O   0  0  0  0  0  0  0  0  0  0  0  0
   57.2440   30.2700   43.2600 C   0  0  0  0  0  0  0  0  0  0  0  0
   57.3710   31.2270   42.2450 C   0  0  0  0  0  0  0  0  0  0  0  0
   57.2262   30.9333   41.1949 H   0  0  0  0  0  0  0  0  0  0  0  0
   57.6800   32.5500   42.5590 C   0  0  0  0  0  0  0  0  0  0  0  0
   57.7867   33.2943   41.7562 H   0  0  0  0  0  0  0  0  0  0  0  0
   57.8540   32.9310   43.8890 C   0  0  0  0  0  0  0  0  0  0  0  0
   58.1042   33.9748   44.1298 H   0  0  0  0  0  0  0  0  0  0  0  0
   57.7120   31.9910   44.9240 C   0  0  0  0  0  0  0  0  0  0  0  0
   57.9000   32.3570   46.2660 O   0  0  0  0  0  0  0  0  0  0  0  0
   59.0500   32.9670   46.7810 C   0  0  0  0  0  0  0  0  0  0  0  0
   60.5750   32.2640   46.7410 S   0  0  0  0  0  0  0  0  0  0  0  0
   61.3520   33.5210   47.5510 C   0  0  0  0  0  0  0  0  0  0  0  0
   62.7790   33.5720   47.8770 C   0  0  0  0  0  0  0  0  0  0  0  0
   63.1079   33.4070   48.9136 H   0  0  0  0  0  0  0  0  0  0  0  0
   63.6320   33.8030   46.9810 O   0  0  0  0  0  0  0  0  0  0  0  0
   60.4190   34.5010   47.8710 C   0  0  0  0  0  0  0  0  0  0  0  0
   60.6739   35.4282   48.4052 H   0  0  0  0  0  0  0  0  0  0  0  0
   59.1230   34.1890   47.4450 C   0  0  0  0  0  0  0  0  0  0  0  0
   58.2534   34.8404   47.6166 H   0  0  0  0  0  0  0  0  0  0  0  0
   57.4260   30.6440   44.6100 C   0  0  0  0  0  0  0  0  0  0  0  0
   57.3260   29.6200   45.7210 C   0  0  0  0  0  0  0  0  0  0  0  0
   58.3079   29.1452   45.8640 H   0  0  0  0  0  0  0  0  0  0  0  0
   57.0103   30.1288   46.6438 H   0  0  0  0  0  0  0  0  0  0  0  0
   56.3390   28.5920   45.3890 N   0  0  0  0  0  0  0  0  0  0  0  0
   55.1430   28.9690   44.8750 O   0  0  0  0  0  0  0  0  0  0  0  0
   56.6010   27.1960   45.5950 C   0  0  0  0  0  0  0  0  0  0  0  0
   57.7640   26.7490   45.4080 O   0  0  0  0  0  0  0  0  0  0  0  0
   55.5600   26.3360   46.0890 N   0  0  0  0  0  0  0  0  0  0  0  0
   55.3640   25.0730   45.8350 C   0  0  0  0  0  0  0  0  0  0  0  0
   54.0950   24.5890   45.9240 N   0  0  0  0  0  0  0  0  0  0  0  0
   53.7890   23.2900   45.6580 C   0  0  0  0  0  0  0  0  0  0  0  0
   52.7502   22.9399   45.7491 H   0  0  0  0  0  0  0  0  0  0  0  0
   54.7920   22.4030   45.2700 C   0  0  0  0  0  0  0  0  0  0  0  0
   54.5525   21.3501   45.0600 H   0  0  0  0  0  0  0  0  0  0  0  0
   56.1020   22.8650   45.1510 C   0  0  0  0  0  0  0  0  0  0  0  0
   56.9021   22.1769   44.8407 H   0  0  0  0  0  0  0  0  0  0  0  0
   56.3980   24.2020   45.4260 C   0  0  0  0  0  0  0  0  0  0  0  0
   57.4283   24.5738   45.3248 H   0  0  0  0  0  0  0  0  0  0  0  0
  1  2  1  0
  2  3  1  0
  3  4  2  0
  4  5  1  0
  4  6  1  0
  6  7  1  0
  6  8  2  0
  8  9  1  0
  8 10  1  0
 10 11  1  0
 11 12  1  0
 12 13  1  0
 13 14  1  0
 14 15  1  0
 15 16  1  0
 15 17  2  0
 14 18  2  0
 18 19  1  0
 18 20  1  0
 20 21  1  0
 10 22  2  0
 22 23  1  0
 23 24  1  0
 23 25  1  0
 23 26  1  0
 26 27  1  0
 26 28  1  0
 28 29  2  0
 28 30  1  0
 30 31  2  0
 31 32  1  0
 32 33  1  0
 33 34  1  0
 33 35  2  0
 35 36  1  0
 35 37  1  0
 37 38  1  0
 37 39  2  0
 39 40  1  0
 22  3  1  0
 39 31  1  0
 20 12  2  0
M  CHG  2  27  -1  32  -1
M  END
>  <UniqueID>  (22) 
22

>  <SMILES>  (22) 
O=Cc1ccc(Oc2cccc(O)c2CN([O-])C(=O)/N=c2\cccc[n-]2)s1

>  <Energy>  (22) 
79.62680062947081

>  <Genealogy>  (22) 
O=Cc1ccc(Oc2cccc(O)c2CN([O-])C(=O)N=c2cccc[n-]2)s1 (protonated)
O=Cc1ccc(Oc2cccc(O)c2CN([O-])C(=O)/N=c2\cccc[n-]2)s1 (cis-trans isomerization)
O=Cc1ccc(Oc2cccc(O)c2CN([O-])C(=O)/N=c2\cccc[n-]2)s1 (3D coordinates assigned)
O=Cc1ccc(Oc2cccc(O)c2CN([O-])C(=O)/N=c2\cccc[n-]2)s1 (optimized conformer: 79.62680062947081 kcal/mol)

>  <smiles>  (22) 
O=Cc1ccc(Oc2cccc(O)c2CN(O)C(=O)N=c2cccc[nH]2)s1

>  <score_type>  (22) 
oracle

>  <origin>  (22) 
adg

>  <m_score__min__energy>  (22) 
-12.66

>  <m_primary>  (22) 
energy

$$$$
22:0
     RDKit          3D

 49 52  0  0  0  0  0  0  0  0999 V2000
   55.5810   25.2290   45.6790 C   0  0  0  0  0  0  0  0  0  0  0  0
   55.5320   26.6220   45.9710 O   0  0  0  0  0  0  0  0  0  0  0  0
   56.6540   27.4630   46.0040 C   0  0  0  0  0  0  0  0  0  0  0  0
   57.7820   27.1870   46.8000 C   0  0  0  0  0  0  0  0  0  0  0  0
   58.8770   28.0570   46.7970 C   0  0  0  0  0  0  0  0  0  0  0  0
   58.8690   29.2070   45.9900 C   0  0  0  0  0  0  0  0  0  0  0  0
   59.9690   30.1310   45.9890 N   0  0  0  0  0  0  0  0  0  0  0  0
   60.5950   30.6380   47.1800 C   0  0  0  0  0  0  0  0  0  0  0  0
   60.3920   30.0800   48.2920 O   0  0  0  0  0  0  0  0  0  0  0  0
   61.5720   31.7790   47.1100 C   0  0  0  0  0  0  0  0  0  0  0  0
   61.6050   32.5280   48.3720 N   0  0  0  0  0  0  0  0  0  0  0  0
   60.5650   33.0010   49.1150 C   0  0  0  0  0  0  0  0  0  0  0  0
   59.1110   32.8260   48.7730 C   0  0  0  0  0  0  0  0  0  0  0  0
   58.8080   33.4070   47.4170 C   0  0  0  0  0  0  0  0  0  0  0  0
   57.7870   32.8530   46.6240 C   0  0  0  0  0  0  0  0  0  0  0  0
   57.5280   33.3640   45.3500 C   0  0  0  0  0  0  0  0  0  0  0  0
   58.2810   34.4330   44.8570 C   0  0  0  0  0  0  0  0  0  0  0  0
   59.2930   34.9950   45.6410 C   0  0  0  0  0  0  0  0  0  0  0  0
   59.5550   34.4880   46.9160 C   0  0  0  0  0  0  0  0  0  0  0  0
   60.9610   33.6180   50.2600 N   0  0  0  0  0  0  0  0  0  0  0  0
   62.3020   33.5270   50.2090 C   0  0  0  0  0  0  0  0  0  0  0  0
   63.2200   33.9920   51.1480 C   0  0  0  0  0  0  0  0  0  0  0  0
   64.5870   33.7680   50.8950 C   0  0  0  0  0  0  0  0  0  0  0  0
   64.9950   33.0890   49.7230 C   0  0  0  0  0  0  0  0  0  0  0  0
   64.0410   32.6310   48.7960 C   0  0  0  0  0  0  0  0  0  0  0  0
   62.6950   32.8740   49.0780 C   0  0  0  0  0  0  0  0  0  0  0  0
   57.7340   29.4900   45.2160 C   0  0  0  0  0  0  0  0  0  0  0  0
   56.6410   28.6210   45.2180 C   0  0  0  0  0  0  0  0  0  0  0  0
   55.6011   24.6578   46.6189 H   0  0  0  0  0  0  0  0  0  0  0  0
   54.6923   24.9450   45.0963 H   0  0  0  0  0  0  0  0  0  0  0  0
   56.4875   25.0082   45.0963 H   0  0  0  0  0  0  0  0  0  0  0  0
   57.8022   26.2833   47.4269 H   0  0  0  0  0  0  0  0  0  0  0  0
   59.7497   27.8396   47.4303 H   0  0  0  0  0  0  0  0  0  0  0  0
   60.3740   30.3990   45.0660 H   0  0  0  0  0  0  0  0  0  0  0  0
   62.5759   31.3796   46.9035 H   0  0  0  0  0  0  0  0  0  0  0  0
   61.2535   32.4615   46.3082 H   0  0  0  0  0  0  0  0  0  0  0  0
   58.8680   31.7532   48.7684 H   0  0  0  0  0  0  0  0  0  0  0  0
   58.5055   33.3520   49.5258 H   0  0  0  0  0  0  0  0  0  0  0  0
   57.1896   32.0134   47.0089 H   0  0  0  0  0  0  0  0  0  0  0  0
   56.7300   32.9242   44.7338 H   0  0  0  0  0  0  0  0  0  0  0  0
   58.0776   34.8322   43.8524 H   0  0  0  0  0  0  0  0  0  0  0  0
   59.8839   35.8379   45.2532 H   0  0  0  0  0  0  0  0  0  0  0  0
   60.3492   34.9364   47.5309 H   0  0  0  0  0  0  0  0  0  0  0  0
   62.8883   34.5164   52.0563 H   0  0  0  0  0  0  0  0  0  0  0  0
   65.3415   34.1229   51.6125 H   0  0  0  0  0  0  0  0  0  0  0  0
   66.0653   32.9180   49.5352 H   0  0  0  0  0  0  0  0  0  0  0  0
   64.3445   32.1003   47.8815 H   0  0  0  0  0  0  0  0  0  0  0  0
   57.7047   30.4030   44.6031 H   0  0  0  0  0  0  0  0  0  0  0  0
   55.7623   28.8485   44.5966 H   0  0  0  0  0  0  0  0  0  0  0  0
  1  2  1  0
  2  3  1  0
  3  4  2  0
  4  5  1  0
  5  6  2  0
  6  7  1  0
  7  8  1  0
  8  9  2  0
  8 10  1  0
 10 11  1  0
 11 12  1  0
 12 13  1  0
 13 14  1  0
 14 15  2  0
 15 16  1  0
 16 17  2  0
 17 18  1  0
 18 19  2  0
 12 20  2  0
 20 21  1  0
 21 22  2  0
 22 23  1  0
 23 24  2  0
 24 25  1  0
 25 26  2  0
  6 27  1  0
 27 28  2  0
 28  3  1  0
 26 11  1  0
 19 14  1  0
 26 21  1  0
  1 29  1  0
  1 30  1  0
  1 31  1  0
  4 32  1  0
  5 33  1  0
  7 34  1  0
 10 35  1  0
 10 36  1  0
 13 37  1  0
 13 38  1  0
 15 39  1  0
 16 40  1  0
 17 41  1  0
 18 42  1  0
 19 43  1  0
 22 44  1  0
 23 45  1  0
 24 46  1  0
 25 47  1  0
 27 48  1  0
 28 49  1  0
M  END
>  <UniqueID>  (23) 
23

>  <SMILES>  (23) 
COc1ccc(NC(=O)Cn2c(Cc3ccccc3)nc3ccccc32)cc1

>  <Energy>  (23) 
87.96002557733074

>  <Genealogy>  (23) 
COc1ccc(NC(=O)Cn2c(Cc3ccccc3)nc3ccccc32)cc1 (3D coordinates assigned)
COc1ccc(NC(=O)Cn2c(Cc3ccccc3)nc3ccccc32)cc1 (optimized conformer: 87.96002557733074 kcal/mol)

>  <smiles>  (23) 
COc1ccc(NC(=O)Cn2c(Cc3ccccc3)nc3ccccc32)cc1

>  <score_type>  (23) 
oracle

>  <origin>  (23) 
adg

>  <m_score__min__energy>  (23) 
-8.1600000000000001

>  <m_primary>  (23) 
energy

$$$$
23:0
     RDKit          3D

 28 29  0  0  0  0  0  0  0  0999 V2000
   54.4120   26.3070   45.9350 O   0  0  0  0  0  0  0  0  0  0  0  0
   55.6030   26.0430   46.2450 C   0  0  0  0  0  0  0  0  0  0  0  0
   55.9100   24.8130   46.8110 O   0  0  0  0  0  0  0  0  0  0  0  0
   56.6900   27.0330   45.9770 C   0  0  0  0  0  0  0  0  0  0  0  0
   56.1720   28.1450   45.1850 N   0  0  0  0  0  0  0  0  0  0  0  0
   57.0180   29.1790   44.6640 C   0  0  0  0  0  0  0  0  0  0  0  0
   58.2680   29.1220   44.8260 O   0  0  0  0  0  0  0  0  0  0  0  0
   56.4170   30.3580   43.9650 C   0  0  0  0  0  0  0  0  0  0  0  0
   57.2030   31.5980   44.2830 C   0  0  0  0  0  0  0  0  0  0  0  0
   57.3730   31.9600   45.5840 N   0  0  0  0  0  0  0  0  0  0  0  0
   58.1060   33.0510   45.9280 C   0  0  0  0  0  0  0  0  0  0  0  0
   58.2650   33.4100   47.2710 C   0  0  0  0  0  0  0  0  0  0  0  0
   59.0260   34.5360   47.6050 C   0  0  0  0  0  0  0  0  0  0  0  0
   59.6280   35.3020   46.5990 C   0  0  0  0  0  0  0  0  0  0  0  0
   59.4730   34.9460   45.2540 C   0  0  0  0  0  0  0  0  0  0  0  0
   58.7130   33.8200   44.9160 C   0  0  0  0  0  0  0  0  0  0  0  0
   58.5550   33.4550   43.6170 N   0  0  0  0  0  0  0  0  0  0  0  0
   57.8210   32.3640   43.2750 C   0  0  0  0  0  0  0  0  0  0  0  0
   57.7050   32.0500   42.0610 O   0  0  0  0  0  0  0  0  0  0  0  0
   57.0768   27.4162   46.9328 H   0  0  0  0  0  0  0  0  0  0  0  0
   57.4977   26.5382   45.4177 H   0  0  0  0  0  0  0  0  0  0  0  0
   55.1440   28.1910   45.0050 H   0  0  0  0  0  0  0  0  0  0  0  0
   56.4330   30.1849   42.8788 H   0  0  0  0  0  0  0  0  0  0  0  0
   55.3795   30.4902   44.3059 H   0  0  0  0  0  0  0  0  0  0  0  0
   57.7931   32.8088   48.0621 H   0  0  0  0  0  0  0  0  0  0  0  0
   59.1516   34.8200   48.6602 H   0  0  0  0  0  0  0  0  0  0  0  0
   60.2247   36.1865   46.8666 H   0  0  0  0  0  0  0  0  0  0  0  0
   59.9468   35.5490   44.4654 H   0  0  0  0  0  0  0  0  0  0  0  0
  1  2  2  0
  2  3  1  0
  2  4  1  0
  4  5  1  0
  5  6  1  0
  6  7  2  0
  6  8  1  0
  8  9  1  0
  9 10  2  0
 10 11  1  0
 11 12  2  0
 12 13  1  0
 13 14  2  0
 14 15  1  0
 15 16  2  0
 16 17  1  0
 17 18  1  0
 18 19  2  0
 18  9  1  0
 16 11  1  0
  4 20  1  0
  4 21  1  0
  5 22  1  0
  8 23  1  0
  8 24  1  0
 12 25  1  0
 13 26  1  0
 14 27  1  0
 15 28  1  0
M  CHG  2   3  -1  17  -1
M  END
>  <UniqueID>  (24) 
24

>  <SMILES>  (24) 
O=C([O-])CNC(=O)Cc1nc2ccccc2[n-]c1=O

>  <Energy>  (24) 
27.36284611243022

>  <Genealogy>  (24) 
O=C([O-])CNC(=O)Cc1nc2ccccc2[n-]c1=O (protonated)
O=C([O-])CNC(=O)Cc1nc2ccccc2[n-]c1=O (3D coordinates assigned)
O=C([O-])CNC(=O)Cc1nc2ccccc2[n-]c1=O (optimized conformer: 27.36284611243022 kcal/mol)

>  <smiles>  (24) 
O=C(O)CNC(=O)Cc1nc2ccccc2[nH]c1=O

>  <score_type>  (24) 
oracle

>  <origin>  (24) 
adg

>  <m_score__min__energy>  (24) 
-11.289999999999999

>  <m_primary>  (24) 
energy

$$$$
24:0
     RDKit          3D

 41 43  0  0  0  0  0  0  0  0999 V2000
   58.5560   31.4390   43.3540 O   0  0  0  0  0  0  0  0  0  0  0  0
   57.9420   31.7830   44.3980 C   0  0  0  0  0  0  0  0  0  0  0  0
   56.7970   31.0240   44.8110 N   0  0  0  0  0  0  0  0  0  0  0  0
   56.5580   29.3340   44.4900 S   0  0  0  0  0  0  0  0  0  0  0  0
   56.7290   29.0860   43.0180 O   0  0  0  0  0  0  0  0  0  0  0  0
   55.1520   28.9760   44.8820 O   0  0  0  0  0  0  0  0  0  0  0  0
   57.7710   28.3770   45.3630 C   0  0  0  0  0  0  0  0  0  0  0  0
   59.0210   28.9760   45.5830 C   0  0  0  0  0  0  0  0  0  0  0  0
   59.9790   28.3550   46.3850 C   0  0  0  0  0  0  0  0  0  0  0  0
   59.6990   27.1270   46.9810 C   0  0  0  0  0  0  0  0  0  0  0  0
   58.4750   26.5000   46.7490 C   0  0  0  0  0  0  0  0  0  0  0  0
   57.5100   27.0950   45.9180 C   0  0  0  0  0  0  0  0  0  0  0  0
   56.2860   26.3240   45.6290 C   0  0  0  0  0  0  0  0  0  0  0  0
   55.1630   26.7370   46.0200 O   0  0  0  0  0  0  0  0  0  0  0  0
   56.3560   25.1750   44.8490 O   0  0  0  0  0  0  0  0  0  0  0  0
   58.4480   32.9260   45.1820 C   0  0  0  0  0  0  0  0  0  0  0  0
   58.6930   34.1460   44.5340 C   0  0  0  0  0  0  0  0  0  0  0  0
   59.2370   35.2210   45.2390 C   0  0  0  0  0  0  0  0  0  0  0  0
   59.5270   35.0900   46.5970 C   0  0  0  0  0  0  0  0  0  0  0  0
   59.2470   33.8940   47.2610 C   0  0  0  0  0  0  0  0  0  0  0  0
   58.6750   32.8110   46.5660 C   0  0  0  0  0  0  0  0  0  0  0  0
   58.3580   31.6090   47.2180 O   0  0  0  0  0  0  0  0  0  0  0  0
   59.1890   30.9240   48.1150 C   0  0  0  0  0  0  0  0  0  0  0  0
   58.6760   30.0060   49.0510 C   0  0  0  0  0  0  0  0  0  0  0  0
   59.5400   29.3300   49.9180 C   0  0  0  0  0  0  0  0  0  0  0  0
   60.9180   29.5520   49.8480 C   0  0  0  0  0  0  0  0  0  0  0  0
   61.4340   30.4470   48.9070 C   0  0  0  0  0  0  0  0  0  0  0  0
   60.5730   31.1260   48.0390 C   0  0  0  0  0  0  0  0  0  0  0  0
   59.2481   29.9465   45.1177 H   0  0  0  0  0  0  0  0  0  0  0  0
   60.9555   28.8349   46.5468 H   0  0  0  0  0  0  0  0  0  0  0  0
   60.4444   26.6514   47.6354 H   0  0  0  0  0  0  0  0  0  0  0  0
   58.2625   25.5296   47.2213 H   0  0  0  0  0  0  0  0  0  0  0  0
   58.4554   34.2559   43.4656 H   0  0  0  0  0  0  0  0  0  0  0  0
   59.4371   36.1718   44.7233 H   0  0  0  0  0  0  0  0  0  0  0  0
   59.9771   35.9303   47.1459 H   0  0  0  0  0  0  0  0  0  0  0  0
   59.4745   33.7972   48.3329 H   0  0  0  0  0  0  0  0  0  0  0  0
   57.5929   29.8201   49.1004 H   0  0  0  0  0  0  0  0  0  0  0  0
   59.1345   28.6225   50.6562 H   0  0  0  0  0  0  0  0  0  0  0  0
   61.5962   29.0225   50.5333 H   0  0  0  0  0  0  0  0  0  0  0  0
   62.5191   30.6177   48.8489 H   0  0  0  0  0  0  0  0  0  0  0  0
   60.9845   31.8219   47.2931 H   0  0  0  0  0  0  0  0  0  0  0  0
  1  2  2  0
  2  3  1  0
  3  4  1  0
  4  5  2  0
  4  6  2  0
  4  7  1  0
  7  8  2  0
  8  9  1  0
  9 10  2  0
 10 11  1  0
 11 12  2  0
 12 13  1  0
 13 14  2  0
 13 15  1  0
  2 16  1  0
 16 17  2  0
 17 18  1  0
 18 19  2  0
 19 20  1  0
 20 21  2  0
 21 22  1  0
 22 23  1  0
 23 24  2  0
 24 25  1  0
 25 26  2  0
 26 27  1  0
 27 28  2  0
 12  7  1  0
 21 16  1  0
 28 23  1  0
  8 29  1  0
  9 30  1  0
 10 31  1  0
 11 32  1  0
 17 33  1  0
 18 34  1  0
 19 35  1  0
 20 36  1  0
 24 37  1  0
 25 38  1  0
 26 39  1  0
 27 40  1  0
 28 41  1  0
M  CHG  2   3  -1  15  -1
M  END
>  <UniqueID>  (25) 
25

>  <SMILES>  (25) 
O=C([N-]S(=O)(=O)c1ccccc1C(=O)[O-])c1ccccc1Oc1ccccc1

>  <Energy>  (25) 
64.41475374362263

>  <Genealogy>  (25) 
O=C([N-]S(=O)(=O)c1ccccc1C(=O)[O-])c1ccccc1Oc1ccccc1 (protonated)
O=C([N-]S(=O)(=O)c1ccccc1C(=O)[O-])c1ccccc1Oc1ccccc1 (3D coordinates assigned)
O=C([N-]S(=O)(=O)c1ccccc1C(=O)[O-])c1ccccc1Oc1ccccc1 (optimized conformer: 64.41475374362263 kcal/mol)

>  <smiles>  (25) 
O=C(NS(=O)(=O)c1ccccc1C(=O)O)c1ccccc1Oc1ccccc1

>  <score_type>  (25) 
oracle

>  <origin>  (25) 
adg

>  <m_score__min__energy>  (25) 
-12.550000000000001

>  <m_primary>  (25) 
energy

$$$$
25:0
     RDKit          3D

 31 32  0  0  0  0  0  0  0  0999 V2000
   55.3710   28.6210   45.6080 H   0  0  0  0  0  0  0  0  0  0  0  0
   55.1430   29.3360   44.8810 N   0  0  0  0  0  0  0  0  0  0  0  0
   56.1750   30.0690   44.2230 C   0  0  0  0  0  0  0  0  0  0  0  0
   56.0320   30.3550   43.0030 O   0  0  0  0  0  0  0  0  0  0  0  0
   57.4110   30.4800   44.9430 C   0  0  0  0  0  0  0  0  0  0  0  0
   57.6850   31.8550   45.0930 C   0  0  0  0  0  0  0  0  0  0  0  0
   56.9841   32.5962   44.6814 H   0  0  0  0  0  0  0  0  0  0  0  0
   58.8340   32.2880   45.7570 C   0  0  0  0  0  0  0  0  0  0  0  0
   59.0369   33.3645   45.8571 H   0  0  0  0  0  0  0  0  0  0  0  0
   59.7240   31.3610   46.2930 C   0  0  0  0  0  0  0  0  0  0  0  0
   60.6263   31.7054   46.8196 H   0  0  0  0  0  0  0  0  0  0  0  0
   59.4710   29.9950   46.1620 C   0  0  0  0  0  0  0  0  0  0  0  0
   60.1682   29.2670   46.6023 H   0  0  0  0  0  0  0  0  0  0  0  0
   58.3340   29.5410   45.4730 C   0  0  0  0  0  0  0  0  0  0  0  0
   58.0690   28.1300   45.4060 N   0  0  0  0  0  0  0  0  0  0  0  0
   58.4740   27.2380   46.2630 C   0  0  0  0  0  0  0  0  0  0  0  0
   59.5560   27.0938   46.3991 H   0  0  0  0  0  0  0  0  0  0  0  0
   57.5280   26.3940   47.0770 C   0  0  0  0  0  0  0  0  0  0  0  0
   58.0796   25.9339   47.9100 H   0  0  0  0  0  0  0  0  0  0  0  0
   56.7223   27.0360   47.4626 H   0  0  0  0  0  0  0  0  0  0  0  0
   56.9190   25.3080   46.2260 C   0  0  0  0  0  0  0  0  0  0  0  0
   57.6860   24.1840   45.8740 C   0  0  0  0  0  0  0  0  0  0  0  0
   58.7195   24.0916   46.2392 H   0  0  0  0  0  0  0  0  0  0  0  0
   57.1440   23.1830   45.0630 C   0  0  0  0  0  0  0  0  0  0  0  0
   57.7484   22.3032   44.7970 H   0  0  0  0  0  0  0  0  0  0  0  0
   55.8340   23.3000   44.5900 C   0  0  0  0  0  0  0  0  0  0  0  0
   55.4059   22.5092   43.9564 H   0  0  0  0  0  0  0  0  0  0  0  0
   55.0680   24.4200   44.9210 C   0  0  0  0  0  0  0  0  0  0  0  0
   54.0390   24.5111   44.5430 H   0  0  0  0  0  0  0  0  0  0  0  0
   55.6040   25.4260   45.7310 C   0  0  0  0  0  0  0  0  0  0  0  0
   54.8300   26.5410   46.0350 O   0  0  0  0  0  0  0  0  0  0  0  0
  1  2  1  0
  2  3  1  0
  3  4  2  0
  3  5  1  0
  5  6  2  0
  6  7  1  0
  6  8  1  0
  8  9  1  0
  8 10  2  0
 10 11  1  0
 10 12  1  0
 12 13  1  0
 12 14  2  0
 14 15  1  0
 15 16  2  0
 16 17  1  0
 16 18  1  0
 18 19  1  0
 18 20  1  0
 18 21  1  0
 21 22  2  0
 22 23  1  0
 22 24  1  0
 24 25  1  0
 24 26  2  0
 26 27  1  0
 26 28  1  0
 28 29  1  0
 28 30  2  0
 30 31  1  0
 14  5  1  0
 30 21  1  0
M  CHG  2   2  -1  31  -1
M  END
>  <UniqueID>  (26) 
26

>  <SMILES>  (26) 
[NH-]C(=O)c1ccccc1/N=C\Cc1ccccc1[O-]

>  <Energy>  (26) 
41.58145005659833

>  <Genealogy>  (26) 
[NH-]C(=O)c1ccccc1N=CCc1ccccc1[O-] (protonated)
[NH-]C(=O)c1ccccc1/N=C\Cc1ccccc1[O-] (cis-trans isomerization)
[NH-]C(=O)c1ccccc1/N=C\Cc1ccccc1[O-] (3D coordinates assigned)
[NH-]C(=O)c1ccccc1/N=C\Cc1ccccc1[O-] (optimized conformer: 41.58145005659833 kcal/mol)

>  <smiles>  (26) 
NC(=O)c1ccccc1N=CCc1ccccc1O

>  <score_type>  (26) 
oracle

>  <origin>  (26) 
adg

>  <m_score__min__energy>  (26) 
-13.529999999999999

>  <m_primary>  (26) 
energy

$$$$
26:0
     RDKit          3D

 29 31  0  0  0  0  0  0  0  0999 V2000
   56.5370   29.2080   42.5510 N   0  0  0  0  0  0  0  0  0  0  0  0
   56.9550   30.0980   43.9720 S   0  0  0  0  0  0  0  0  0  0  0  0
   55.7390   30.8060   44.5030 O   0  0  0  0  0  0  0  0  0  0  0  0
   58.0000   31.1240   43.6310 O   0  0  0  0  0  0  0  0  0  0  0  0
   57.5810   28.9940   45.1920 C   0  0  0  0  0  0  0  0  0  0  0  0
   58.2040   29.4960   46.3430 C   0  0  0  0  0  0  0  0  0  0  0  0
   58.6960   28.6200   47.3140 C   0  0  0  0  0  0  0  0  0  0  0  0
   58.5600   27.2400   47.1470 C   0  0  0  0  0  0  0  0  0  0  0  0
   57.9110   26.7280   46.0130 C   0  0  0  0  0  0  0  0  0  0  0  0
   57.7910   25.2720   45.8150 C   0  0  0  0  0  0  0  0  0  0  0  0
   58.9410   24.5670   45.6400 N   0  0  0  0  0  0  0  0  0  0  0  0
   58.9410   23.2190   45.5010 C   0  0  0  0  0  0  0  0  0  0  0  0
   60.0270   22.6030   45.3420 O   0  0  0  0  0  0  0  0  0  0  0  0
   57.7730   22.5320   45.5370 N   0  0  0  0  0  0  0  0  0  0  0  0
   56.5880   23.1740   45.6960 C   0  0  0  0  0  0  0  0  0  0  0  0
   55.4370   22.4550   45.7170 N   0  0  0  0  0  0  0  0  0  0  0  0
   54.2330   23.0640   45.8470 C   0  0  0  0  0  0  0  0  0  0  0  0
   53.1800   22.3760   45.8700 O   0  0  0  0  0  0  0  0  0  0  0  0
   54.1610   24.4160   45.9450 N   0  0  0  0  0  0  0  0  0  0  0  0
   55.2780   25.1890   45.9290 C   0  0  0  0  0  0  0  0  0  0  0  0
   55.1470   26.4390   45.9890 O   0  0  0  0  0  0  0  0  0  0  0  0
   56.5520   24.5800   45.8270 C   0  0  0  0  0  0  0  0  0  0  0  0
   57.4350   27.6090   45.0290 C   0  0  0  0  0  0  0  0  0  0  0  0
   55.5400   29.4320   42.3320 H   0  0  0  0  0  0  0  0  0  0  0  0
   56.5690   28.1950   42.8060 H   0  0  0  0  0  0  0  0  0  0  0  0
   58.3058   30.5824   46.4821 H   0  0  0  0  0  0  0  0  0  0  0  0
   59.1915   29.0180   48.2118 H   0  0  0  0  0  0  0  0  0  0  0  0
   58.9625   26.5530   47.9060 H   0  0  0  0  0  0  0  0  0  0  0  0
   56.9460   27.2115   44.1274 H   0  0  0  0  0  0  0  0  0  0  0  0
  1  2  1  0
  2  3  2  0
  2  4  2  0
  2  5  1  0
  5  6  2  0
  6  7  1  0
  7  8  2  0
  8  9  1  0
  9 10  1  0
 10 11  1  0
 11 12  1  0
 12 13  2  0
 12 14  1  0
 14 15  2  0
 15 16  1  0
 16 17  1  0
 17 18  2  0
 17 19  1  0
 19 20  1  0
 20 21  2  0
 20 22  1  0
  9 23  2  0
 23  5  1  0
 22 10  2  0
 22 15  1  0
  1 24  1  0
  1 25  1  0
  6 26  1  0
  7 27  1  0
  8 28  1  0
 23 29  1  0
M  CHG  3  11  -1  16  -1  19  -1
M  END
>  <UniqueID>  (27) 
27

>  <SMILES>  (27) 
NS(=O)(=O)c1cccc(-c2[n-]c(=O)nc3[n-]c(=O)[n-]c(=O)c23)c1

>  <Energy>  (27) 
46.73086302060622

>  <Genealogy>  (27) 
NS(=O)(=O)c1cccc(-c2[n-]c(=O)nc3[n-]c(=O)[n-]c(=O)c23)c1 (protonated)
NS(=O)(=O)c1cccc(-c2[n-]c(=O)nc3[n-]c(=O)[n-]c(=O)c23)c1 (3D coordinates assigned)
NS(=O)(=O)c1cccc(-c2[n-]c(=O)nc3[n-]c(=O)[n-]c(=O)c23)c1 (optimized conformer: 46.73086302060622 kcal/mol)

>  <smiles>  (27) 
NS(=O)(=O)c1cccc(-c2[nH]c(=O)nc3[nH]c(=O)[nH]c(=O)c23)c1

>  <score_type>  (27) 
oracle

>  <origin>  (27) 
adg

>  <m_score__min__energy>  (27) 
-12.75

>  <m_primary>  (27) 
energy

$$$$
27:0
     RDKit          3D

 33 35  0  0  0  0  0  0  0  0999 V2000
   56.2810   24.1940   44.4760 C   0  0  0  0  0  0  0  0  0  0  0  0
   57.1120   24.8780   45.4070 O   0  0  0  0  0  0  0  0  0  0  0  0
   57.4070   26.2490   45.3500 C   0  0  0  0  0  0  0  0  0  0  0  0
   58.6840   26.7300   45.0070 C   0  0  0  0  0  0  0  0  0  0  0  0
   58.9330   28.1050   44.9610 C   0  0  0  0  0  0  0  0  0  0  0  0
   57.9140   29.0260   45.2570 C   0  0  0  0  0  0  0  0  0  0  0  0
   58.1780   30.4870   45.2090 C   0  0  0  0  0  0  0  0  0  0  0  0
   57.6720   31.2680   44.1540 C   0  0  0  0  0  0  0  0  0  0  0  0
   57.9170   32.6430   44.1040 C   0  0  0  0  0  0  0  0  0  0  0  0
   58.6740   33.2630   45.1070 C   0  0  0  0  0  0  0  0  0  0  0  0
   58.9240   34.6430   45.0640 C   0  0  0  0  0  0  0  0  0  0  0  0
   59.6830   35.2520   46.0690 C   0  0  0  0  0  0  0  0  0  0  0  0
   59.9230   36.6240   46.0110 O   0  0  0  0  0  0  0  0  0  0  0  0
   60.1940   34.4840   47.1230 C   0  0  0  0  0  0  0  0  0  0  0  0
   59.9500   33.1080   47.1760 C   0  0  0  0  0  0  0  0  0  0  0  0
   59.1900   32.4880   46.1730 C   0  0  0  0  0  0  0  0  0  0  0  0
   58.9390   31.1080   46.2160 C   0  0  0  0  0  0  0  0  0  0  0  0
   56.6390   28.5420   45.5990 C   0  0  0  0  0  0  0  0  0  0  0  0
   56.3890   27.1660   45.6440 C   0  0  0  0  0  0  0  0  0  0  0  0
   55.1190   26.7110   45.9810 O   0  0  0  0  0  0  0  0  0  0  0  0
   55.5430   23.5866   45.0205 H   0  0  0  0  0  0  0  0  0  0  0  0
   55.7580   24.9268   43.8439 H   0  0  0  0  0  0  0  0  0  0  0  0
   56.8996   23.5399   43.8439 H   0  0  0  0  0  0  0  0  0  0  0  0
   59.4912   26.0201   44.7737 H   0  0  0  0  0  0  0  0  0  0  0  0
   59.9353   28.4689   44.6908 H   0  0  0  0  0  0  0  0  0  0  0  0
   57.0775   30.7917   43.3605 H   0  0  0  0  0  0  0  0  0  0  0  0
   57.5138   33.2412   43.2736 H   0  0  0  0  0  0  0  0  0  0  0  0
   58.5220   35.2477   44.2377 H   0  0  0  0  0  0  0  0  0  0  0  0
   59.6210   37.2460   46.7520 H   0  0  0  0  0  0  0  0  0  0  0  0
   60.7898   34.9653   47.9125 H   0  0  0  0  0  0  0  0  0  0  0  0
   60.3549   32.5105   48.0060 H   0  0  0  0  0  0  0  0  0  0  0  0
   59.3409   30.5065   47.0446 H   0  0  0  0  0  0  0  0  0  0  0  0
   55.8312   29.2510   45.8332 H   0  0  0  0  0  0  0  0  0  0  0  0
  1  2  1  0
  2  3  1  0
  3  4  2  0
  4  5  1  0
  5  6  2  0
  6  7  1  0
  7  8  2  0
  8  9  1  0
  9 10  2  0
 10 11  1  0
 11 12  2  0
 12 13  1  0
 12 14  1  0
 14 15  2  0
 15 16  1  0
 16 17  2  0
  6 18  1  0
 18 19  2  0
 19 20  1  0
 19  3  1  0
 17  7  1  0
 16 10  1  0
  1 21  1  0
  1 22  1  0
  1 23  1  0
  4 24  1  0
  5 25  1  0
  8 26  1  0
  9 27  1  0
 11 28  1  0
 13 29  1  0
 14 30  1  0
 15 31  1  0
 17 32  1  0
 18 33  1  0
M  CHG  1  20  -1
M  END
>  <UniqueID>  (28) 
28

>  <SMILES>  (28) 
COc1ccc(-c2ccc3cc(O)ccc3c2)cc1[O-]

>  <Energy>  (28) 
43.384360038848925

>  <Genealogy>  (28) 
COc1ccc(-c2ccc3cc(O)ccc3c2)cc1[O-] (protonated)
COc1ccc(-c2ccc3cc(O)ccc3c2)cc1[O-] (3D coordinates assigned)
COc1ccc(-c2ccc3cc(O)ccc3c2)cc1[O-] (optimized conformer: 43.384360038848925 kcal/mol)

>  <smiles>  (28) 
COc1ccc(-c2ccc3cc(O)ccc3c2)cc1O

>  <score_type>  (28) 
oracle

>  <origin>  (28) 
adg

>  <m_score__min__energy>  (28) 
-10.66

>  <m_primary>  (28) 
energy

$$$$
28:0
     RDKit          3D

 32 34  0  0  0  0  0  0  0  0999 V2000
   57.6390   23.6060   47.8090 O   0  0  0  0  0  0  0  0  0  0  0  0
   57.1230   24.5710   47.1870 C   0  0  0  0  0  0  0  0  0  0  0  0
   55.7990   24.6580   46.9480 N   0  0  0  0  0  0  0  0  0  0  0  0
   55.6930   25.8160   46.2780 C   0  0  0  0  0  0  0  0  0  0  0  0
   54.4790   26.3410   45.8540 O   0  0  0  0  0  0  0  0  0  0  0  0
   56.9380   26.3980   46.1230 C   0  0  0  0  0  0  0  0  0  0  0  0
   57.2760   27.6790   45.4610 C   0  0  0  0  0  0  0  0  0  0  0  0
   56.2630   28.6190   45.2090 C   0  0  0  0  0  0  0  0  0  0  0  0
   56.5590   29.8370   44.5910 C   0  0  0  0  0  0  0  0  0  0  0  0
   57.8780   30.1470   44.2290 C   0  0  0  0  0  0  0  0  0  0  0  0
   58.1890   31.4570   43.5570 C   0  0  0  0  0  0  0  0  0  0  0  0
   57.5880   32.5460   44.2610 O   0  0  0  0  0  0  0  0  0  0  0  0
   58.2160   33.3140   45.2550 C   0  0  0  0  0  0  0  0  0  0  0  0
   58.9500   34.4390   44.8560 C   0  0  0  0  0  0  0  0  0  0  0  0
   59.5920   35.2400   45.8050 C   0  0  0  0  0  0  0  0  0  0  0  0
   59.5060   34.9220   47.1620 C   0  0  0  0  0  0  0  0  0  0  0  0
   58.7810   33.8010   47.5720 C   0  0  0  0  0  0  0  0  0  0  0  0
   58.1390   32.9960   46.6250 C   0  0  0  0  0  0  0  0  0  0  0  0
   58.8940   29.2130   44.4790 C   0  0  0  0  0  0  0  0  0  0  0  0
   58.5990   27.9930   45.0960 C   0  0  0  0  0  0  0  0  0  0  0  0
   57.8520   25.6030   46.7130 N   0  0  0  0  0  0  0  0  0  0  0  0
   55.2266   28.3942   45.5010 H   0  0  0  0  0  0  0  0  0  0  0  0
   55.7526   30.5569   44.3873 H   0  0  0  0  0  0  0  0  0  0  0  0
   59.2794   31.6005   43.5345 H   0  0  0  0  0  0  0  0  0  0  0  0
   57.7838   31.4327   42.5346 H   0  0  0  0  0  0  0  0  0  0  0  0
   59.0216   34.6937   43.7883 H   0  0  0  0  0  0  0  0  0  0  0  0
   60.1654   36.1216   45.4825 H   0  0  0  0  0  0  0  0  0  0  0  0
   60.0093   35.5545   47.9081 H   0  0  0  0  0  0  0  0  0  0  0  0
   58.7147   33.5507   48.6411 H   0  0  0  0  0  0  0  0  0  0  0  0
   57.5721   32.1116   46.9514 H   0  0  0  0  0  0  0  0  0  0  0  0
   59.9299   29.4415   44.1878 H   0  0  0  0  0  0  0  0  0  0  0  0
   59.4064   27.2737   45.2975 H   0  0  0  0  0  0  0  0  0  0  0  0
  1  2  2  0
  2  3  1  0
  3  4  1  0
  4  5  1  0
  4  6  2  0
  6  7  1  0
  7  8  2  0
  8  9  1  0
  9 10  2  0
 10 11  1  0
 11 12  1  0
 12 13  1  0
 13 14  2  0
 14 15  1  0
 15 16  2  0
 16 17  1  0
 17 18  2  0
 10 19  1  0
 19 20  2  0
  6 21  1  0
 21  2  1  0
 20  7  1  0
 18 13  1  0
  8 22  1  0
  9 23  1  0
 11 24  1  0
 11 25  1  0
 14 26  1  0
 15 27  1  0
 16 28  1  0
 17 29  1  0
 18 30  1  0
 19 31  1  0
 20 32  1  0
M  CHG  3   3  -1   5  -1  21  -1
M  END
>  <UniqueID>  (29) 
29

>  <SMILES>  (29) 
O=c1[n-]c([O-])c(-c2ccc(COc3ccccc3)cc2)[n-]1

>  <Energy>  (29) 
67.25254306830041

>  <Genealogy>  (29) 
O=c1[n-]c([O-])c(-c2ccc(COc3ccccc3)cc2)[n-]1 (protonated)
O=c1[n-]c([O-])c(-c2ccc(COc3ccccc3)cc2)[n-]1 (3D coordinates assigned)
O=c1[n-]c([O-])c(-c2ccc(COc3ccccc3)cc2)[n-]1 (optimized conformer: 67.25254306830041 kcal/mol)

>  <smiles>  (29) 
O=c1[nH]c(O)c(-c2ccc(COc3ccccc3)cc2)[nH]1

>  <score_type>  (29) 
oracle

>  <origin>  (29) 
adg

>  <m_score__min__energy>  (29) 
-14.789999999999999

>  <m_primary>  (29) 
energy

$$$$
29:0
     RDKit          3D

 57 61  0  0  0  0  0  0  0  0999 V2000
   67.0526   33.2286   50.7903 H   0  0  0  0  0  0  0  0  0  0  0  0
   66.2660   32.8230   50.1370 C   0  0  0  0  0  0  0  0  0  0  0  0
   66.5375   32.3083   49.2035 H   0  0  0  0  0  0  0  0  0  0  0  0
   64.9860   32.9550   50.4760 C   0  0  0  0  0  0  0  0  0  0  0  0
   64.7357   33.4730   51.4136 H   0  0  0  0  0  0  0  0  0  0  0  0
   63.8940   32.4320   49.6400 C   0  0  0  0  0  0  0  0  0  0  0  0
   63.2960   31.2230   49.8300 N   0  0  0  0  0  0  0  0  0  0  0  0
   62.3820   31.2140   48.8380 C   0  0  0  0  0  0  0  0  0  0  0  0
   61.4760   30.2010   48.5490 C   0  0  0  0  0  0  0  0  0  0  0  0
   61.4367   29.2777   49.1456 H   0  0  0  0  0  0  0  0  0  0  0  0
   60.6080   30.4100   47.4550 C   0  0  0  0  0  0  0  0  0  0  0  0
   59.6130   29.3870   47.0510 C   0  0  0  0  0  0  0  0  0  0  0  0
   58.7910   29.5800   45.9250 C   0  0  0  0  0  0  0  0  0  0  0  0
   58.8919   30.4979   45.3273 H   0  0  0  0  0  0  0  0  0  0  0  0
   57.8490   28.6170   45.5600 C   0  0  0  0  0  0  0  0  0  0  0  0
   57.2040   28.7877   44.6855 H   0  0  0  0  0  0  0  0  0  0  0  0
   57.7190   27.4310   46.3020 C   0  0  0  0  0  0  0  0  0  0  0  0
   56.7370   26.3950   45.9000 C   0  0  0  0  0  0  0  0  0  0  0  0
   55.5020   26.6340   46.0000 O   0  0  0  0  0  0  0  0  0  0  0  0
   57.1640   25.1210   45.3960 N   0  0  0  0  0  0  0  0  0  0  0  0
   56.6730   24.7020   44.0770 C   0  0  0  0  0  0  0  0  0  0  0  0
   55.5780   24.8041   44.0555 H   0  0  0  0  0  0  0  0  0  0  0  0
   57.1439   25.3425   43.3167 H   0  0  0  0  0  0  0  0  0  0  0  0
   57.0400   23.2550   43.7720 C   0  0  0  0  0  0  0  0  0  0  0  0
   56.3653   22.5837   44.3235 H   0  0  0  0  0  0  0  0  0  0  0  0
   56.9408   23.0768   42.6911 H   0  0  0  0  0  0  0  0  0  0  0  0
   58.3710   23.0040   44.1630 O   0  0  0  0  0  0  0  0  0  0  0  0
   58.4280   22.9470   45.5740 C   0  0  0  0  0  0  0  0  0  0  0  0
   57.7233   22.1793   45.9262 H   0  0  0  0  0  0  0  0  0  0  0  0
   59.4617   22.7034   45.8605 H   0  0  0  0  0  0  0  0  0  0  0  0
   58.0610   24.2950   46.2270 C   0  0  0  0  0  0  0  0  0  0  0  0
   57.5615   24.0938   47.1862 H   0  0  0  0  0  0  0  0  0  0  0  0
   58.9962   24.8594   46.3571 H   0  0  0  0  0  0  0  0  0  0  0  0
   58.5140   27.2530   47.4470 C   0  0  0  0  0  0  0  0  0  0  0  0
   58.3979   26.3441   48.0556 H   0  0  0  0  0  0  0  0  0  0  0  0
   59.4510   28.2210   47.8190 C   0  0  0  0  0  0  0  0  0  0  0  0
   60.0656   28.0694   48.7186 H   0  0  0  0  0  0  0  0  0  0  0  0
   60.6840   31.5820   46.7470 N   0  0  0  0  0  0  0  0  0  0  0  0
   61.5940   32.5520   47.0570 C   0  0  0  0  0  0  0  0  0  0  0  0
   61.6830   33.6490   46.3590 N   0  0  0  0  0  0  0  0  0  0  0  0
   60.6850   34.7180   46.3610 C   0  0  0  0  0  0  0  0  0  0  0  0
   60.6253   35.1549   47.3688 H   0  0  0  0  0  0  0  0  0  0  0  0
   60.9849   35.4843   45.6310 H   0  0  0  0  0  0  0  0  0  0  0  0
   59.3310   34.1810   45.9730 C   0  0  0  0  0  0  0  0  0  0  0  0
   58.3380   33.9680   46.9470 C   0  0  0  0  0  0  0  0  0  0  0  0
   58.5340   34.2329   47.9965 H   0  0  0  0  0  0  0  0  0  0  0  0
   57.1010   33.4200   46.5850 C   0  0  0  0  0  0  0  0  0  0  0  0
   56.3294   33.2516   47.3507 H   0  0  0  0  0  0  0  0  0  0  0  0
   56.8460   33.0870   45.2520 C   0  0  0  0  0  0  0  0  0  0  0  0
   55.8741   32.6567   44.9687 H   0  0  0  0  0  0  0  0  0  0  0  0
   57.8270   33.3010   44.2780 C   0  0  0  0  0  0  0  0  0  0  0  0
   57.6247   33.0394   43.2289 H   0  0  0  0  0  0  0  0  0  0  0  0
   59.0650   33.8470   44.6350 C   0  0  0  0  0  0  0  0  0  0  0  0
   59.8324   34.0152   43.8651 H   0  0  0  0  0  0  0  0  0  0  0  0
   62.4230   32.3330   48.1060 N   0  0  0  0  0  0  0  0  0  0  0  0
   63.3690   33.1100   48.5950 N   0  0  0  0  0  0  0  0  0  0  0  0
   63.6380   34.0550   48.2380 H   0  0  0  0  0  0  0  0  0  0  0  0
  1  2  1  0
  2  3  1  0
  2  4  2  0
  4  5  1  0
  4  6  1  0
  6  7  1  0
  7  8  2  0
  8  9  1  0
  9 10  1  0
  9 11  2  0
 11 12  1  0
 12 13  2  0
 13 14  1  0
 13 15  1  0
 15 16  1  0
 15 17  2  0
 17 18  1  0
 18 19  2  0
 18 20  1  0
 20 21  1  0
 21 22  1  0
 21 23  1  0
 21 24  1  0
 24 25  1  0
 24 26  1  0
 24 27  1  0
 27 28  1  0
 28 29  1  0
 28 30  1  0
 28 31  1  0
 31 32  1  0
 31 33  1  0
 17 34  1  0
 34 35  1  0
 34 36  2  0
 36 37  1  0
 11 38  1  0
 38 39  1  0
 39 40  2  0
 40 41  1  0
 41 42  1  0
 41 43  1  0
 41 44  1  0
 44 45  2  0
 45 46  1  0
 45 47  1  0
 47 48  1  0
 47 49  2  0
 49 50  1  0
 49 51  1  0
 51 52  1  0
 51 53  2  0
 53 54  1  0
 39 55  1  0
 55 56  1  0
 56 57  1  0
 56  6  2  0
 55  8  1  0
 36 12  1  0
 53 44  1  0
 31 20  1  0
M  CHG  2  38  -1  56   1
M  END
>  <UniqueID>  (30) 
30

>  <SMILES>  (30) 
C=Cc1nc2cc(-c3ccc(C(=O)N4CCOCC4)cc3)[n-]/c(=N\Cc3ccccc3)n2[nH+]1

>  <Energy>  (30) 
112.87620990226415

>  <Genealogy>  (30) 
C=Cc1nc2cc(-c3ccc(C(=O)N4CCOCC4)cc3)[n-]c(=NCc3ccccc3)n2[nH+]1 (protonated)
C=Cc1nc2cc(-c3ccc(C(=O)N4CCOCC4)cc3)[n-]/c(=N\Cc3ccccc3)n2[nH+]1 (cis-trans isomerization)
C=Cc1nc2cc(-c3ccc(C(=O)N4CCOCC4)cc3)[n-]/c(=N\Cc3ccccc3)n2[nH+]1 (3D coordinates assigned)
C=Cc1nc2cc(-c3ccc(C(=O)N4CCOCC4)cc3)[n-]/c(=N\Cc3ccccc3)n2[nH+]1 (nonaromatic ring conformer: 112.87620990226415 kcal/mol)

>  <smiles>  (30) 
C=Cc1nc2cc(-c3ccc(C(=O)N4CCOCC4)cc3)[nH]c(=NCc3ccccc3)n2n1

>  <score_type>  (30) 
oracle

>  <origin>  (30) 
adg

>  <m_score__min__energy>  (30) 
-9.1400000000000006

>  <m_primary>  (30) 
energy

$$$$
30:0
     RDKit          3D

 35 37  0  0  0  0  0  0  0  0999 V2000
   56.6420   30.4020   42.3600 N   0  0  0  0  0  0  0  0  0  0  0  0
   56.2190   29.9530   43.9750 S   0  0  0  0  0  0  0  0  0  0  0  0
   56.2510   31.1760   44.8460 O   0  0  0  0  0  0  0  0  0  0  0  0
   54.8310   29.3770   43.9690 O   0  0  0  0  0  0  0  0  0  0  0  0
   57.3520   28.7560   44.6110 C   0  0  0  0  0  0  0  0  0  0  0  0
   58.7220   28.8690   44.3390 C   0  0  0  0  0  0  0  0  0  0  0  0
   59.6190   27.9220   44.8370 C   0  0  0  0  0  0  0  0  0  0  0  0
   59.1590   26.8670   45.6270 C   0  0  0  0  0  0  0  0  0  0  0  0
   57.7950   26.7530   45.9360 C   0  0  0  0  0  0  0  0  0  0  0  0
   57.3400   25.6440   46.8070 C   0  0  0  0  0  0  0  0  0  0  0  0
   57.8730   25.4930   47.9380 O   0  0  0  0  0  0  0  0  0  0  0  0
   56.3280   24.7170   46.3910 N   0  0  0  0  0  0  0  0  0  0  0  0
   56.4130   23.8120   45.2780 C   0  0  0  0  0  0  0  0  0  0  0  0
   56.4780   24.3020   43.9610 C   0  0  0  0  0  0  0  0  0  0  0  0
   56.5820   23.4240   42.8810 C   0  0  0  0  0  0  0  0  0  0  0  0
   56.6060   22.0490   43.1000 C   0  0  0  0  0  0  0  0  0  0  0  0
   56.5190   21.5440   44.3990 C   0  0  0  0  0  0  0  0  0  0  0  0
   56.4200   22.4150   45.5010 C   0  0  0  0  0  0  0  0  0  0  0  0
   56.3250   21.8590   46.8740 C   0  0  0  0  0  0  0  0  0  0  0  0
   57.3240   21.9000   47.7760 N   0  0  0  0  0  0  0  0  0  0  0  0
   56.7990   21.2940   48.8610 C   0  0  0  0  0  0  0  0  0  0  0  0
   57.4460   21.1400   49.9300 O   0  0  0  0  0  0  0  0  0  0  0  0
   55.5290   20.8670   48.7110 N   0  0  0  0  0  0  0  0  0  0  0  0
   55.2420   21.2290   47.4510 C   0  0  0  0  0  0  0  0  0  0  0  0
   54.0250   20.9590   46.8360 O   0  0  0  0  0  0  0  0  0  0  0  0
   56.8850   27.6910   45.4030 C   0  0  0  0  0  0  0  0  0  0  0  0
   55.5200   27.5570   45.6420 O   0  0  0  0  0  0  0  0  0  0  0  0
   55.7630   30.3810   41.7960 H   0  0  0  0  0  0  0  0  0  0  0  0
   59.0923   29.7073   43.7306 H   0  0  0  0  0  0  0  0  0  0  0  0
   60.6911   28.0075   44.6062 H   0  0  0  0  0  0  0  0  0  0  0  0
   59.8703   26.1203   46.0097 H   0  0  0  0  0  0  0  0  0  0  0  0
   56.4466   25.3867   43.7807 H   0  0  0  0  0  0  0  0  0  0  0  0
   56.6451   23.8185   41.8561 H   0  0  0  0  0  0  0  0  0  0  0  0
   56.6937   21.3591   42.2478 H   0  0  0  0  0  0  0  0  0  0  0  0
   56.5279   20.4563   44.5628 H   0  0  0  0  0  0  0  0  0  0  0  0
  1  2  1  0
  2  3  2  0
  2  4  2  0
  2  5  1  0
  5  6  2  0
  6  7  1  0
  7  8  2  0
  8  9  1  0
  9 10  1  0
 10 11  2  0
 10 12  1  0
 12 13  1  0
 13 14  2  0
 14 15  1  0
 15 16  2  0
 16 17  1  0
 17 18  2  0
 18 19  1  0
 19 20  1  0
 20 21  1  0
 21 22  2  0
 21 23  1  0
 23 24  1  0
 24 25  1  0
  9 26  2  0
 26 27  1  0
 26  5  1  0
 18 13  1  0
 24 19  2  0
  1 28  1  0
  6 29  1  0
  7 30  1  0
  8 31  1  0
 14 32  1  0
 15 33  1  0
 16 34  1  0
 17 35  1  0
M  CHG  6   1  -1  12  -1  20  -1  23  -1  25  -1  27  -1
M  END
>  <UniqueID>  (31) 
31

>  <SMILES>  (31) 
[NH-]S(=O)(=O)c1cccc(C(=O)[N-]c2ccccc2-c2[n-]c(=O)[n-]c2[O-])c1[O-]

>  <Energy>  (31) 
81.18882733548271

>  <Genealogy>  (31) 
[NH-]S(=O)(=O)c1cccc(C(=O)[N-]c2ccccc2-c2[n-]c(=O)[n-]c2[O-])c1[O-] (protonated)
[NH-]S(=O)(=O)c1cccc(C(=O)[N-]c2ccccc2-c2[n-]c(=O)[n-]c2[O-])c1[O-] (3D coordinates assigned)
[NH-]S(=O)(=O)c1cccc(C(=O)[N-]c2ccccc2-c2[n-]c(=O)[n-]c2[O-])c1[O-] (optimized conformer: 81.18882733548271 kcal/mol)

>  <smiles>  (31) 
NS(=O)(=O)c1cccc(C(=O)Nc2ccccc2-c2[nH]c(=O)[nH]c2O)c1O

>  <score_type>  (31) 
oracle

>  <origin>  (31) 
adg

>  <m_score__min__energy>  (31) 
-19.34

>  <m_primary>  (31) 
energy

$$$$
31:0
     RDKit          3D

 48 51  0  0  0  0  0  0  0  0999 V2000
   55.5240   29.3590   44.1380 C   0  0  0  0  0  0  0  0  0  0  0  0
   56.4050   30.5590   44.0050 C   0  0  0  0  0  0  0  0  0  0  0  0
   56.9340   30.9150   42.7420 C   0  0  0  0  0  0  0  0  0  0  0  0
   57.7710   32.0420   42.6460 C   0  0  0  0  0  0  0  0  0  0  0  0
   58.3950   32.4400   41.3430 C   0  0  0  0  0  0  0  0  0  0  0  0
   58.0440   32.7160   43.7930 N   0  0  0  0  0  0  0  0  0  0  0  0
   58.8280   33.7670   43.9600 N   0  0  0  0  0  0  0  0  0  0  0  0
   58.7700   34.0270   45.2900 C   0  0  0  0  0  0  0  0  0  0  0  0
   59.7000   35.3360   46.0850 S   0  0  0  0  0  0  0  0  0  0  0  0
   60.9390   34.2140   46.8250 C   0  0  0  0  0  0  0  0  0  0  0  0
   60.2920   33.2180   47.7500 C   0  0  0  0  0  0  0  0  0  0  0  0
   59.6430   33.6490   48.9190 C   0  0  0  0  0  0  0  0  0  0  0  0
   59.0750   32.7180   49.7910 C   0  0  0  0  0  0  0  0  0  0  0  0
   59.1640   31.3520   49.5140 C   0  0  0  0  0  0  0  0  0  0  0  0
   59.8320   30.9040   48.3640 C   0  0  0  0  0  0  0  0  0  0  0  0
   59.9460   29.4580   48.0900 C   0  0  0  0  0  0  0  0  0  0  0  0
   60.4650   28.7120   48.9640 O   0  0  0  0  0  0  0  0  0  0  0  0
   59.4990   28.8920   46.8440 N   0  0  0  0  0  0  0  0  0  0  0  0
   59.3840   29.6460   45.6050 C   0  0  0  0  0  0  0  0  0  0  0  0
   59.3250   28.6020   44.4970 C   0  0  0  0  0  0  0  0  0  0  0  0
   58.9600   27.2900   45.1830 C   0  0  0  0  0  0  0  0  0  0  0  0
   59.3720   27.4590   46.6390 C   0  0  0  0  0  0  0  0  0  0  0  0
   60.3720   31.8450   47.4730 C   0  0  0  0  0  0  0  0  0  0  0  0
   57.9670   33.1630   45.9600 N   0  0  0  0  0  0  0  0  0  0  0  0
   57.5410   32.3620   44.9770 C   0  0  0  0  0  0  0  0  0  0  0  0
   56.7250   31.2890   45.1160 N   0  0  0  0  0  0  0  0  0  0  0  0
   55.3625   29.1390   45.2036 H   0  0  0  0  0  0  0  0  0  0  0  0
   54.5566   29.5589   43.6541 H   0  0  0  0  0  0  0  0  0  0  0  0
   56.0045   28.4959   43.6541 H   0  0  0  0  0  0  0  0  0  0  0  0
   56.6946   30.3197   41.8485 H   0  0  0  0  0  0  0  0  0  0  0  0
   59.3080   33.0223   41.5364 H   0  0  0  0  0  0  0  0  0  0  0  0
   58.6505   31.5377   40.7681 H   0  0  0  0  0  0  0  0  0  0  0  0
   57.6846   33.0522   40.7681 H   0  0  0  0  0  0  0  0  0  0  0  0
   61.4571   33.6717   46.0203 H   0  0  0  0  0  0  0  0  0  0  0  0
   61.6500   34.8180   47.4078 H   0  0  0  0  0  0  0  0  0  0  0  0
   59.5821   34.7231   49.1481 H   0  0  0  0  0  0  0  0  0  0  0  0
   58.5562   33.0613   50.6982 H   0  0  0  0  0  0  0  0  0  0  0  0
   58.7082   30.6236   50.2007 H   0  0  0  0  0  0  0  0  0  0  0  0
   58.4677   30.2545   45.6090 H   0  0  0  0  0  0  0  0  0  0  0  0
   60.2279   30.3383   45.4688 H   0  0  0  0  0  0  0  0  0  0  0  0
   58.5589   28.8729   43.7556 H   0  0  0  0  0  0  0  0  0  0  0  0
   60.2821   28.5261   43.9602 H   0  0  0  0  0  0  0  0  0  0  0  0
   57.8779   27.1065   45.1092 H   0  0  0  0  0  0  0  0  0  0  0  0
   59.4650   26.4323   44.7147 H   0  0  0  0  0  0  0  0  0  0  0  0
   58.6036   27.0420   47.3066 H   0  0  0  0  0  0  0  0  0  0  0  0
   60.3110   26.9307   46.8608 H   0  0  0  0  0  0  0  0  0  0  0  0
   60.8621   31.5028   46.5496 H   0  0  0  0  0  0  0  0  0  0  0  0
   57.7590   33.1200   46.9820 H   0  0  0  0  0  0  0  0  0  0  0  0
  1  2  1  0
  2  3  1  0
  3  4  2  0
  4  5  1  0
  4  6  1  0
  6  7  1  0
  7  8  2  0
  8  9  1  0
  9 10  1  0
 10 11  1  0
 11 12  2  0
 12 13  1  0
 13 14  2  0
 14 15  1  0
 15 16  1  0
 16 17  2  0
 16 18  1  0
 18 19  1  0
 19 20  1  0
 20 21  1  0
 21 22  1  0
 15 23  2  0
  8 24  1  0
 24 25  2  0
 25 26  1  0
 26  2  2  0
 25  6  1  0
 23 11  1  0
 22 18  1  0
  1 27  1  0
  1 28  1  0
  1 29  1  0
  3 30  1  0
  5 31  1  0
  5 32  1  0
  5 33  1  0
 10 34  1  0
 10 35  1  0
 12 36  1  0
 13 37  1  0
 14 38  1  0
 19 39  1  0
 19 40  1  0
 20 41  1  0
 20 42  1  0
 21 43  1  0
 21 44  1  0
 22 45  1  0
 22 46  1  0
 23 47  1  0
 24 48  1  0
M  CHG  1  24   1
M  END
>  <UniqueID>  (32) 
32

>  <SMILES>  (32) 
Cc1cc(C)n2nc(SCc3cccc(C(=O)N4CCCC4)c3)[nH+]c2n1

>  <Energy>  (32) 
88.63916868366546

>  <Genealogy>  (32) 
Cc1cc(C)n2nc(SCc3cccc(C(=O)N4CCCC4)c3)[nH+]c2n1 (protonated)
Cc1cc(C)n2nc(SCc3cccc(C(=O)N4CCCC4)c3)[nH+]c2n1 (3D coordinates assigned)
Cc1cc(C)n2nc(SCc3cccc(C(=O)N4CCCC4)c3)[nH+]c2n1 (nonaromatic ring conformer: 88.63916868366546 kcal/mol)

>  <smiles>  (32) 
Cc1cc(C)n2nc(SCc3cccc(C(=O)N4CCCC4)c3)nc2n1

>  <score_type>  (32) 
oracle

>  <origin>  (32) 
adg

>  <m_score__min__energy>  (32) 
-8.4900000000000002

>  <m_primary>  (32) 
energy

$$$$
32:0
     RDKit          3D

 36 37  0  0  0  0  0  0  0  0999 V2000
   55.1570   29.3400   44.8040 O   0  0  0  0  0  0  0  0  0  0  0  0
   56.4030   29.1670   44.8590 C   0  0  0  0  0  0  0  0  0  0  0  0
   57.3130   30.2380   44.3190 C   0  0  0  0  0  0  0  0  0  0  0  0
   56.9680   31.4970   44.8750 O   0  0  0  0  0  0  0  0  0  0  0  0
   57.7260   32.5470   44.3010 C   0  0  0  0  0  0  0  0  0  0  0  0
   58.3910   33.3920   45.3600 C   0  0  0  0  0  0  0  0  0  0  0  0
   59.1580   34.5110   45.0000 C   0  0  0  0  0  0  0  0  0  0  0  0
   59.8070   35.2650   45.9830 C   0  0  0  0  0  0  0  0  0  0  0  0
   59.6890   34.9090   47.3290 C   0  0  0  0  0  0  0  0  0  0  0  0
   58.9230   33.8000   47.6950 C   0  0  0  0  0  0  0  0  0  0  0  0
   58.2740   33.0430   46.7140 C   0  0  0  0  0  0  0  0  0  0  0  0
   56.9030   27.9380   45.3980 N   0  0  0  0  0  0  0  0  0  0  0  0
   57.9470   27.1210   44.7930 C   0  0  0  0  0  0  0  0  0  0  0  0
   59.1280   26.9860   45.7510 C   0  0  0  0  0  0  0  0  0  0  0  0
   59.5280   28.2950   46.2660 N   0  0  0  0  0  0  0  0  0  0  0  0
   59.1100   28.8570   47.4160 C   0  0  0  0  0  0  0  0  0  0  0  0
   59.6520   30.1210   47.5380 C   0  0  0  0  0  0  0  0  0  0  0  0
   60.4210   30.3320   46.4100 C   0  0  0  0  0  0  0  0  0  0  0  0
   60.3200   29.1890   45.6440 C   0  0  0  0  0  0  0  0  0  0  0  0
   58.3538   29.9974   44.5813 H   0  0  0  0  0  0  0  0  0  0  0  0
   57.2040   30.2853   43.2254 H   0  0  0  0  0  0  0  0  0  0  0  0
   58.5004   32.1145   43.6504 H   0  0  0  0  0  0  0  0  0  0  0  0
   57.0443   33.1896   43.7245 H   0  0  0  0  0  0  0  0  0  0  0  0
   59.2489   34.7958   43.9414 H   0  0  0  0  0  0  0  0  0  0  0  0
   60.4107   36.1387   45.6964 H   0  0  0  0  0  0  0  0  0  0  0  0
   60.2000   35.5028   48.1012 H   0  0  0  0  0  0  0  0  0  0  0  0
   58.8300   33.5217   48.7552 H   0  0  0  0  0  0  0  0  0  0  0  0
   57.6698   32.1711   47.0050 H   0  0  0  0  0  0  0  0  0  0  0  0
   57.5438   26.1223   44.5694 H   0  0  0  0  0  0  0  0  0  0  0  0
   58.2890   27.6026   43.8651 H   0  0  0  0  0  0  0  0  0  0  0  0
   58.8381   26.3400   46.5928 H   0  0  0  0  0  0  0  0  0  0  0  0
   59.9764   26.5458   45.2066 H   0  0  0  0  0  0  0  0  0  0  0  0
   58.4391   28.3817   48.1467 H   0  0  0  0  0  0  0  0  0  0  0  0
   59.5009   30.8232   48.3711 H   0  0  0  0  0  0  0  0  0  0  0  0
   61.0009   31.2353   46.1694 H   0  0  0  0  0  0  0  0  0  0  0  0
   60.8118   29.0318   44.6727 H   0  0  0  0  0  0  0  0  0  0  0  0
  1  2  2  0
  2  3  1  0
  3  4  1  0
  4  5  1  0
  5  6  1  0
  6  7  2  0
  7  8  1  0
  8  9  2  0
  9 10  1  0
 10 11  2  0
  2 12  1  0
 12 13  1  0
 13 14  1  0
 14 15  1  0
 15 16  1  0
 16 17  2  0
 17 18  1  0
 18 19  2  0
 11  6  1  0
 19 15  1  0
  3 20  1  0
  3 21  1  0
  5 22  1  0
  5 23  1  0
  7 24  1  0
  8 25  1  0
  9 26  1  0
 10 27  1  0
 11 28  1  0
 13 29  1  0
 13 30  1  0
 14 31  1  0
 14 32  1  0
 16 33  1  0
 17 34  1  0
 18 35  1  0
 19 36  1  0
M  CHG  1  12  -1
M  END
>  <UniqueID>  (33) 
33

>  <SMILES>  (33) 
O=C(COCc1ccccc1)[N-]CCn1cccc1

>  <Energy>  (33) 
57.8792599477184

>  <Genealogy>  (33) 
O=C(COCc1ccccc1)[N-]CCn1cccc1 (protonated)
O=C(COCc1ccccc1)[N-]CCn1cccc1 (3D coordinates assigned)
O=C(COCc1ccccc1)[N-]CCn1cccc1 (optimized conformer: 57.8792599477184 kcal/mol)

>  <smiles>  (33) 
O=C(COCc1ccccc1)NCCn1cccc1

>  <score_type>  (33) 
oracle

>  <origin>  (33) 
adg

>  <m_score__min__energy>  (33) 
-8.3300000000000001

>  <m_primary>  (33) 
energy

$$$$
33:0
     RDKit          3D

 43 45  0  0  0  0  0  0  0  0999 V2000
   57.0190   29.8980   51.9800 N   0  0  0  0  0  0  0  0  0  0  0  0
   57.8770   30.1370   51.2400 C   0  0  0  0  0  0  0  0  0  0  0  0
   58.9440   30.4340   50.3220 C   0  0  0  0  0  0  0  0  0  0  0  0
   60.0090   31.2450   50.7140 C   0  0  0  0  0  0  0  0  0  0  0  0
   61.0400   31.5270   49.8150 C   0  0  0  0  0  0  0  0  0  0  0  0
   60.9920   30.9950   48.5080 C   0  0  0  0  0  0  0  0  0  0  0  0
   61.9250   31.2130   47.6200 N   0  0  0  0  0  0  0  0  0  0  0  0
   62.8370   32.3190   47.5160 C   0  0  0  0  0  0  0  0  0  0  0  0
   63.9970   32.2600   48.0060 O   0  0  0  0  0  0  0  0  0  0  0  0
   62.3780   33.5860   46.8590 C   0  0  0  0  0  0  0  0  0  0  0  0
   60.9770   33.9640   47.2760 C   0  0  0  0  0  0  0  0  0  0  0  0
   60.7950   34.5370   48.3860 O   0  0  0  0  0  0  0  0  0  0  0  0
   59.8100   33.7180   46.3870 C   0  0  0  0  0  0  0  0  0  0  0  0
   59.1690   34.7750   45.7140 C   0  0  0  0  0  0  0  0  0  0  0  0
   58.0730   34.5270   44.8880 C   0  0  0  0  0  0  0  0  0  0  0  0
   57.5960   33.2260   44.7200 C   0  0  0  0  0  0  0  0  0  0  0  0
   58.2140   32.1510   45.3810 C   0  0  0  0  0  0  0  0  0  0  0  0
   57.7060   30.7680   45.2080 C   0  0  0  0  0  0  0  0  0  0  0  0
   56.5070   30.5820   44.8640 O   0  0  0  0  0  0  0  0  0  0  0  0
   58.5570   29.6510   45.5200 N   0  0  0  0  0  0  0  0  0  0  0  0
   58.2330   28.4670   45.9630 C   0  0  0  0  0  0  0  0  0  0  0  0
   57.0260   27.8180   45.6210 C   0  0  0  0  0  0  0  0  0  0  0  0
   56.7620   26.5450   46.1330 C   0  0  0  0  0  0  0  0  0  0  0  0
   57.6890   25.9220   46.9660 C   0  0  0  0  0  0  0  0  0  0  0  0
   58.8800   26.5790   47.2700 C   0  0  0  0  0  0  0  0  0  0  0  0
   59.1210   27.8180   46.7650 N   0  0  0  0  0  0  0  0  0  0  0  0
   59.3180   32.4090   46.2160 C   0  0  0  0  0  0  0  0  0  0  0  0
   59.9460   30.1880   48.1640 N   0  0  0  0  0  0  0  0  0  0  0  0
   58.9330   29.9060   49.0280 C   0  0  0  0  0  0  0  0  0  0  0  0
   60.0369   31.6625   51.7313 H   0  0  0  0  0  0  0  0  0  0  0  0
   61.8849   32.1602   50.1236 H   0  0  0  0  0  0  0  0  0  0  0  0
   63.0635   34.3996   47.1387 H   0  0  0  0  0  0  0  0  0  0  0  0
   62.3764   33.4233   45.7711 H   0  0  0  0  0  0  0  0  0  0  0  0
   59.5353   35.8045   45.8405 H   0  0  0  0  0  0  0  0  0  0  0  0
   57.5817   35.3613   44.3660 H   0  0  0  0  0  0  0  0  0  0  0  0
   56.7310   33.0411   44.0661 H   0  0  0  0  0  0  0  0  0  0  0  0
   56.3001   28.3105   44.9573 H   0  0  0  0  0  0  0  0  0  0  0  0
   55.8216   26.0343   45.8782 H   0  0  0  0  0  0  0  0  0  0  0  0
   57.4833   24.9234   47.3788 H   0  0  0  0  0  0  0  0  0  0  0  0
   59.6250   26.0950   47.9186 H   0  0  0  0  0  0  0  0  0  0  0  0
   59.8042   31.5750   46.7433 H   0  0  0  0  0  0  0  0  0  0  0  0
   59.9060   29.7750   47.2040 H   0  0  0  0  0  0  0  0  0  0  0  0
   58.1025   29.2602   48.7067 H   0  0  0  0  0  0  0  0  0  0  0  0
  1  2  3  0
  2  3  1  0
  3  4  1  0
  4  5  2  0
  5  6  1  0
  6  7  2  3
  7  8  1  0
  8  9  2  0
  8 10  1  0
 10 11  1  0
 11 12  2  0
 11 13  1  0
 13 14  2  0
 14 15  1  0
 15 16  2  0
 16 17  1  0
 17 18  1  0
 18 19  2  0
 18 20  1  0
 20 21  2  3
 21 22  1  0
 22 23  2  0
 23 24  1  0
 24 25  2  0
 25 26  1  0
 17 27  2  0
  6 28  1  0
 28 29  1  0
 29  3  2  0
 27 13  1  0
 26 21  1  0
  4 30  1  0
  5 31  1  0
 10 32  1  0
 10 33  1  0
 14 34  1  0
 15 35  1  0
 16 36  1  0
 22 37  1  0
 23 38  1  0
 24 39  1  0
 25 40  1  0
 27 41  1  0
 28 42  1  0
 29 43  1  0
M  CHG  1  26  -1
M  END
>  <UniqueID>  (34) 
34

>  <SMILES>  (34) 
N#Cc1ccc(=NC(=O)CC(=O)c2cccc(C(=O)N=c3cccc[n-]3)c2)[nH]c1

>  <Energy>  (34) 
63.68136753126834

>  <Genealogy>  (34) 
N#Cc1ccc(=NC(=O)CC(=O)c2cccc(C(=O)N=c3cccc[n-]3)c2)[nH]c1 (protonated)
N#Cc1ccc(=NC(=O)CC(=O)c2cccc(C(=O)N=c3cccc[n-]3)c2)[nH]c1 (3D coordinates assigned)
N#Cc1ccc(=NC(=O)CC(=O)c2cccc(C(=O)N=c3cccc[n-]3)c2)[nH]c1 (optimized conformer: 63.68136753126834 kcal/mol)

>  <smiles>  (34) 
N#Cc1ccc(=NC(=O)CC(=O)c2cccc(C(=O)N=c3cccc[nH]3)c2)[nH]c1

>  <score_type>  (34) 
oracle

>  <origin>  (34) 
adg

>  <m_score__min__energy>  (34) 
-10.17

>  <m_primary>  (34) 
energy

$$$$
34:0
     RDKit          3D

 55 57  0  0  0  0  0  0  0  0999 V2000
   60.5140   27.1300   48.5340 C   0  0  0  0  0  0  0  0  0  0  0  0
   59.5800   27.8570   47.5980 C   0  0  0  0  0  0  0  0  0  0  0  0
   58.4860   27.1530   47.0700 C   0  0  0  0  0  0  0  0  0  0  0  0
   57.6140   27.7470   46.1540 C   0  0  0  0  0  0  0  0  0  0  0  0
   56.5540   26.9780   45.6690 O   0  0  0  0  0  0  0  0  0  0  0  0
   57.8250   29.0810   45.7520 C   0  0  0  0  0  0  0  0  0  0  0  0
   56.7630   29.8720   44.5780 S   0  0  0  0  0  0  0  0  0  0  0  0
   55.1410   29.3110   44.7870 N   0  0  0  0  0  0  0  0  0  0  0  0
   57.2050   29.5590   43.1750 O   0  0  0  0  0  0  0  0  0  0  0  0
   56.8140   31.3610   44.7790 O   0  0  0  0  0  0  0  0  0  0  0  0
   58.9000   29.7990   46.2960 C   0  0  0  0  0  0  0  0  0  0  0  0
   59.7740   29.2140   47.2290 C   0  0  0  0  0  0  0  0  0  0  0  0
   60.8670   30.0500   47.7890 C   0  0  0  0  0  0  0  0  0  0  0  0
   61.4310   30.9140   47.0630 O   0  0  0  0  0  0  0  0  0  0  0  0
   61.2610   29.9070   49.1580 N   0  0  0  0  0  0  0  0  0  0  0  0
   60.5370   30.4730   50.2900 C   0  0  1  0  0  0  0  0  0  0  0  0
   61.3110   31.6710   50.8700 C   0  0  0  0  0  0  0  0  0  0  0  0
   62.2580   32.2640   49.8550 C   0  0  0  0  0  0  0  0  0  0  0  0
   61.7810   33.1710   48.8930 C   0  0  0  0  0  0  0  0  0  0  0  0
   62.6600   33.7550   47.9770 C   0  0  0  0  0  0  0  0  0  0  0  0
   64.0210   33.4450   48.0160 C   0  0  0  0  0  0  0  0  0  0  0  0
   64.5070   32.5510   48.9740 C   0  0  0  0  0  0  0  0  0  0  0  0
   63.6340   31.9640   49.8950 C   0  0  0  0  0  0  0  0  0  0  0  0
   64.1260   31.1080   50.8250 F   0  0  0  0  0  0  0  0  0  0  0  0
   59.1740   30.8820   49.8190 C   0  0  0  0  0  0  0  0  0  0  0  0
   58.2550   30.0210   49.7250 O   0  0  0  0  0  0  0  0  0  0  0  0
   58.9200   32.2500   49.4860 N   0  0  0  0  0  0  0  0  0  0  0  0
   57.8090   32.6760   48.6430 C   0  0  0  0  0  0  0  0  0  0  0  0
   58.3200   33.5310   47.5140 C   0  0  0  0  0  0  0  0  0  0  0  0
   59.2950   34.5130   47.7630 C   0  0  0  0  0  0  0  0  0  0  0  0
   59.7370   35.3450   46.7300 C   0  0  0  0  0  0  0  0  0  0  0  0
   59.2090   35.2060   45.4440 C   0  0  0  0  0  0  0  0  0  0  0  0
   59.6300   36.0220   44.4470 F   0  0  0  0  0  0  0  0  0  0  0  0
   58.2360   34.2330   45.1880 C   0  0  0  0  0  0  0  0  0  0  0  0
   57.7920   33.3970   46.2190 C   0  0  0  0  0  0  0  0  0  0  0  0
   60.2333   27.3485   49.5749 H   0  0  0  0  0  0  0  0  0  0  0  0
   60.4431   26.0470   48.3547 H   0  0  0  0  0  0  0  0  0  0  0  0
   61.5464   27.4645   48.3547 H   0  0  0  0  0  0  0  0  0  0  0  0
   58.3119   26.1131   47.3837 H   0  0  0  0  0  0  0  0  0  0  0  0
   55.9610   27.2650   44.9020 H   0  0  0  0  0  0  0  0  0  0  0  0
   55.1480   28.6450   45.5910 H   0  0  0  0  0  0  0  0  0  0  0  0
   59.0627   30.8418   45.9861 H   0  0  0  0  0  0  0  0  0  0  0  0
   60.4359   29.7278   51.0927 H   0  0  0  0  0  0  0  0  0  0  0  0
   60.5924   32.4433   51.1818 H   0  0  0  0  0  0  0  0  0  0  0  0
   61.9026   31.3164   51.7269 H   0  0  0  0  0  0  0  0  0  0  0  0
   60.7106   33.4223   48.8610 H   0  0  0  0  0  0  0  0  0  0  0  0
   62.2791   34.4603   47.2237 H   0  0  0  0  0  0  0  0  0  0  0  0
   64.7107   33.9045   47.2926 H   0  0  0  0  0  0  0  0  0  0  0  0
   65.5795   32.3084   49.0035 H   0  0  0  0  0  0  0  0  0  0  0  0
   57.3042   31.7902   48.2300 H   0  0  0  0  0  0  0  0  0  0  0  0
   57.0997   33.2606   49.2473 H   0  0  0  0  0  0  0  0  0  0  0  0
   59.7117   34.6271   48.7746 H   0  0  0  0  0  0  0  0  0  0  0  0
   60.5016   36.1101   46.9301 H   0  0  0  0  0  0  0  0  0  0  0  0
   57.8198   34.1252   44.1755 H   0  0  0  0  0  0  0  0  0  0  0  0
   57.0275   32.6329   46.0148 H   0  0  0  0  0  0  0  0  0  0  0  0
  1  2  1  0
  2  3  2  0
  3  4  1  0
  4  5  1  0
  4  6  2  0
  6  7  1  0
  7  8  1  0
  7  9  2  0
  7 10  2  0
  6 11  1  0
 11 12  2  0
 12 13  1  0
 13 14  2  0
 13 15  1  0
 15 16  1  0
 16 17  1  0
 17 18  1  0
 18 19  2  0
 19 20  1  0
 20 21  2  0
 21 22  1  0
 22 23  2  0
 23 24  1  0
 16 25  1  0
 25 26  2  0
 25 27  1  0
 27 28  1  0
 28 29  1  0
 29 30  2  0
 30 31  1  0
 31 32  2  0
 32 33  1  0
 32 34  1  0
 34 35  2  0
 12  2  1  0
 23 18  1  0
 35 29  1  0
  1 36  1  0
  1 37  1  0
  1 38  1  0
  3 39  1  0
  5 40  1  0
  8 41  1  0
 11 42  1  0
 16 43  1  1
 17 44  1  0
 17 45  1  0
 19 46  1  0
 20 47  1  0
 21 48  1  0
 22 49  1  0
 28 50  1  0
 28 51  1  0
 30 52  1  0
 31 53  1  0
 34 54  1  0
 35 55  1  0
M  CHG  3   8  -1  15  -1  27  -1
M  END
>  <UniqueID>  (35) 
35

>  <SMILES>  (35) 
Cc1cc(O)c(S([NH-])(=O)=O)cc1C(=O)[N-][C@@H](Cc1ccccc1F)C(=O)[N-]Cc1ccc(F)cc1

>  <Energy>  (35) 
56.08815534939737

>  <Genealogy>  (35) 
Cc1cc(O)c(S([NH-])(=O)=O)cc1C(=O)[N-]C(Cc1ccccc1F)C(=O)[N-]Cc1ccc(F)cc1 (protonated)
Cc1cc(O)c(S([NH-])(=O)=O)cc1C(=O)[N-][C@@H](Cc1ccccc1F)C(=O)[N-]Cc1ccc(F)cc1 (chirality)
Cc1cc(O)c(S([NH-])(=O)=O)cc1C(=O)[N-][C@@H](Cc1ccccc1F)C(=O)[N-]Cc1ccc(F)cc1 (3D coordinates assigned)
Cc1cc(O)c(S([NH-])(=O)=O)cc1C(=O)[N-][C@@H](Cc1ccccc1F)C(=O)[N-]Cc1ccc(F)cc1 (optimized conformer: 56.08815534939737 kcal/mol)

>  <smiles>  (35) 
Cc1cc(O)c(S(N)(=O)=O)cc1C(=O)NC(Cc1ccccc1F)C(=O)NCc1ccc(F)cc1

>  <score_type>  (35) 
oracle

>  <origin>  (35) 
adg

>  <m_score__min__energy>  (35) 
-14.15

>  <m_primary>  (35) 
energy

$$$$
35:0
     RDKit          3D

 33 34  0  0  0  0  0  0  0  0999 V2000
   58.2500   32.3100   43.0210 O   0  0  0  0  0  0  0  0  0  0  0  0
   57.3860   31.6770   43.6850 C   0  0  0  0  0  0  0  0  0  0  0  0
   56.6560   30.5340   43.0510 C   0  0  0  0  0  0  0  0  0  0  0  0
   57.2250   29.1980   43.5450 C   0  0  0  0  0  0  0  0  0  0  0  0
   56.5500   28.7260   44.8090 C   0  0  0  0  0  0  0  0  0  0  0  0
   55.4700   29.2690   45.1720 O   0  0  0  0  0  0  0  0  0  0  0  0
   57.0930   27.5850   45.5940 C   0  0  0  0  0  0  0  0  0  0  0  0
   58.4820   27.4510   45.7860 C   0  0  0  0  0  0  0  0  0  0  0  0
   58.9990   26.3750   46.5130 C   0  0  0  0  0  0  0  0  0  0  0  0
   58.1410   25.4190   47.0550 C   0  0  0  0  0  0  0  0  0  0  0  0
   56.7630   25.5340   46.8700 C   0  0  0  0  0  0  0  0  0  0  0  0
   56.2340   26.6080   46.1460 C   0  0  0  0  0  0  0  0  0  0  0  0
   54.8540   26.7020   45.9970 O   0  0  0  0  0  0  0  0  0  0  0  0
   57.0860   32.0400   45.0380 N   0  0  0  0  0  0  0  0  0  0  0  0
   57.8650   32.8980   45.8850 C   0  0  0  0  0  0  0  0  0  0  0  0
   58.1620   32.4690   47.1860 C   0  0  0  0  0  0  0  0  0  0  0  0
   58.9370   33.2660   48.0340 C   0  0  0  0  0  0  0  0  0  0  0  0
   59.4340   34.4910   47.5830 C   0  0  0  0  0  0  0  0  0  0  0  0
   59.1650   34.9170   46.2790 C   0  0  0  0  0  0  0  0  0  0  0  0
   59.6670   36.0960   45.8350 F   0  0  0  0  0  0  0  0  0  0  0  0
   58.3890   34.1220   45.4280 C   0  0  0  0  0  0  0  0  0  0  0  0
   55.5897   30.5937   43.3146 H   0  0  0  0  0  0  0  0  0  0  0  0
   56.7787   30.5930   41.9595 H   0  0  0  0  0  0  0  0  0  0  0  0
   57.0806   28.4396   42.7614 H   0  0  0  0  0  0  0  0  0  0  0  0
   58.2924   29.3456   43.7660 H   0  0  0  0  0  0  0  0  0  0  0  0
   59.1659   28.1998   45.3600 H   0  0  0  0  0  0  0  0  0  0  0  0
   60.0855   26.2822   46.6579 H   0  0  0  0  0  0  0  0  0  0  0  0
   58.5505   24.5743   47.6284 H   0  0  0  0  0  0  0  0  0  0  0  0
   56.0888   24.7762   47.2956 H   0  0  0  0  0  0  0  0  0  0  0  0
   57.7831   31.4996   47.5419 H   0  0  0  0  0  0  0  0  0  0  0  0
   59.1556   32.9279   49.0577 H   0  0  0  0  0  0  0  0  0  0  0  0
   60.0370   35.1205   48.2539 H   0  0  0  0  0  0  0  0  0  0  0  0
   58.1879   34.4545   44.3989 H   0  0  0  0  0  0  0  0  0  0  0  0
  1  2  2  0
  2  3  1  0
  3  4  1  0
  4  5  1  0
  5  6  2  0
  5  7  1  0
  7  8  2  0
  8  9  1  0
  9 10  2  0
 10 11  1  0
 11 12  2  0
 12 13  1  0
  2 14  1  0
 14 15  1  0
 15 16  2  0
 16 17  1  0
 17 18  2  0
 18 19  1  0
 19 20  1  0
 19 21  2  0
 12  7  1  0
 21 15  1  0
  3 22  1  0
  3 23  1  0
  4 24  1  0
  4 25  1  0
  8 26  1  0
  9 27  1  0
 10 28  1  0
 11 29  1  0
 16 30  1  0
 17 31  1  0
 18 32  1  0
 21 33  1  0
M  CHG  2  13  -1  14  -1
M  END
>  <UniqueID>  (36) 
36

>  <SMILES>  (36) 
O=C(CCC(=O)c1ccccc1[O-])[N-]c1cccc(F)c1

>  <Energy>  (36) 
37.82484095913342

>  <Genealogy>  (36) 
O=C(CCC(=O)c1ccccc1[O-])[N-]c1cccc(F)c1 (protonated)
O=C(CCC(=O)c1ccccc1[O-])[N-]c1cccc(F)c1 (3D coordinates assigned)
O=C(CCC(=O)c1ccccc1[O-])[N-]c1cccc(F)c1 (optimized conformer: 37.82484095913342 kcal/mol)

>  <smiles>  (36) 
O=C(CCC(=O)c1ccccc1O)Nc1cccc(F)c1

>  <score_type>  (36) 
oracle

>  <origin>  (36) 
adg

>  <m_score__min__energy>  (36) 
-13.08

>  <m_primary>  (36) 
energy

$$$$
36:0
     RDKit          3D

 69 74  0  0  0  0  0  0  0  0999 V2000
   61.9438   33.2102   46.4338 H   0  0  0  0  0  0  0  0  0  0  0  0
   62.2460   33.4780   47.4570 C   0  0  0  0  0  0  0  0  0  0  0  0
   63.8000   33.3690   48.0930 S   0  0  0  0  0  0  0  0  0  0  0  0
   63.3370   33.9400   49.6020 C   0  0  0  0  0  0  0  0  0  0  0  0
   64.4410   34.1540   50.9940 S   0  0  0  0  0  0  0  0  0  0  0  0
   63.8070   32.7160   51.9210 C   0  0  0  0  0  0  0  0  0  0  0  0
   64.6033   32.3306   52.5747 H   0  0  0  0  0  0  0  0  0  0  0  0
   62.9402   33.0389   52.5162 H   0  0  0  0  0  0  0  0  0  0  0  0
   63.3660   31.6250   50.9910 C   0  0  0  0  0  0  0  0  0  0  0  0
   64.2260   30.8240   50.5350 O   0  0  0  0  0  0  0  0  0  0  0  0
   62.0010   31.5650   50.5520 N   0  0  0  0  0  0  0  0  0  0  0  0
   61.4080   32.4140   50.7090 H   0  0  0  0  0  0  0  0  0  0  0  0
   61.3830   30.4320   49.9130 C   0  0  0  0  0  0  0  0  0  0  0  0
   60.9380   30.5540   48.5870 C   0  0  0  0  0  0  0  0  0  0  0  0
   61.1048   31.4948   48.0420 H   0  0  0  0  0  0  0  0  0  0  0  0
   60.2850   29.4930   47.9510 C   0  0  0  0  0  0  0  0  0  0  0  0
   59.9245   29.6112   46.9185 H   0  0  0  0  0  0  0  0  0  0  0  0
   60.0890   28.2830   48.6230 C   0  0  0  0  0  0  0  0  0  0  0  0
   59.3810   27.2200   47.9680 N   0  0  0  0  0  0  0  0  0  0  0  0
   58.4320   27.3790   47.0920 C   0  0  0  0  0  0  0  0  0  0  0  0
   58.3960   28.4740   46.2880 N   0  0  0  0  0  0  0  0  0  0  0  0
   57.3860   28.6450   45.3970 C   0  0  0  0  0  0  0  0  0  0  0  0
   57.3510   29.8130   44.5660 N   0  0  0  0  0  0  0  0  0  0  0  0
   58.0420   31.0490   44.8870 C   0  0  0  0  0  0  0  0  0  0  0  0
   57.7461   31.4079   45.8838 H   0  0  0  0  0  0  0  0  0  0  0  0
   59.1336   30.9146   44.9076 H   0  0  0  0  0  0  0  0  0  0  0  0
   57.6120   32.0430   43.8120 C   0  0  0  0  0  0  0  0  0  0  0  0
   56.8464   32.7270   44.2070 H   0  0  0  0  0  0  0  0  0  0  0  0
   58.4555   32.6620   43.4725 H   0  0  0  0  0  0  0  0  0  0  0  0
   57.0380   31.2030   42.6740 C   0  0  0  0  0  0  0  0  0  0  0  0
   56.1564   31.6975   42.2400 H   0  0  0  0  0  0  0  0  0  0  0  0
   57.7677   31.0696   41.8618 H   0  0  0  0  0  0  0  0  0  0  0  0
   56.6450   29.8710   43.2980 C   0  0  0  0  0  0  0  0  0  0  0  0
   55.5580   29.8287   43.4610 H   0  0  0  0  0  0  0  0  0  0  0  0
   56.9048   29.0231   42.6472 H   0  0  0  0  0  0  0  0  0  0  0  0
   56.4050   27.7090   45.3100 N   0  0  0  0  0  0  0  0  0  0  0  0
   56.4300   26.6140   46.1110 C   0  0  0  0  0  0  0  0  0  0  0  0
   55.4180   25.6560   45.9960 O   0  0  0  0  0  0  0  0  0  0  0  0
   55.6580   24.3360   45.5930 C   0  0  0  0  0  0  0  0  0  0  0  0
   55.5870   24.0380   44.2400 C   0  0  0  0  0  0  0  0  0  0  0  0
   55.3077   24.8221   43.5208 H   0  0  0  0  0  0  0  0  0  0  0  0
   55.8680   22.7490   43.7870 C   0  0  0  0  0  0  0  0  0  0  0  0
   55.8000   22.5260   42.5460 O   0  0  0  0  0  0  0  0  0  0  0  0
   56.2130   21.7520   44.6680 N   0  0  0  0  0  0  0  0  0  0  0  0
   56.5340   20.4040   44.1540 C   0  0  0  0  0  0  0  0  0  0  0  0
   56.6972   19.7187   44.9988 H   0  0  0  0  0  0  0  0  0  0  0  0
   55.6981   20.0369   43.5403 H   0  0  0  0  0  0  0  0  0  0  0  0
   57.4456   20.4531   43.5403 H   0  0  0  0  0  0  0  0  0  0  0  0
   56.2470   22.0090   46.0280 C   0  0  0  0  0  0  0  0  0  0  0  0
   56.5530   20.9990   46.9720 C   0  0  0  0  0  0  0  0  0  0  0  0
   56.7895   19.9834   46.6217 H   0  0  0  0  0  0  0  0  0  0  0  0
   56.5590   21.2730   48.3400 C   0  0  0  0  0  0  0  0  0  0  0  0
   56.8076   20.4764   49.0567 H   0  0  0  0  0  0  0  0  0  0  0  0
   56.2520   22.5490   48.8020 C   0  0  0  0  0  0  0  0  0  0  0  0
   56.2484   22.7557   49.8824 H   0  0  0  0  0  0  0  0  0  0  0  0
   55.9490   23.5660   47.8980 C   0  0  0  0  0  0  0  0  0  0  0  0
   55.7011   24.5711   48.2698 H   0  0  0  0  0  0  0  0  0  0  0  0
   55.9580   23.3160   46.5130 C   0  0  0  0  0  0  0  0  0  0  0  0
   57.4430   26.4560   47.0060 N   0  0  0  0  0  0  0  0  0  0  0  0
   60.5040   28.1630   49.9590 C   0  0  0  0  0  0  0  0  0  0  0  0
   60.3304   27.2225   50.5025 H   0  0  0  0  0  0  0  0  0  0  0  0
   61.1360   29.2300   50.6030 C   0  0  0  0  0  0  0  0  0  0  0  0
   61.4422   29.1302   51.6548 H   0  0  0  0  0  0  0  0  0  0  0  0
   62.0160   34.2120   49.6510 N   0  0  0  0  0  0  0  0  0  0  0  0
   61.4110   33.9680   48.4580 C   0  0  0  0  0  0  0  0  0  0  0  0
   59.9410   34.1500   48.2680 C   0  0  0  0  0  0  0  0  0  0  0  0
   59.4491   34.2109   49.2500 H   0  0  0  0  0  0  0  0  0  0  0  0
   59.7559   35.0779   47.7070 H   0  0  0  0  0  0  0  0  0  0  0  0
   59.5352   33.2952   47.7070 H   0  0  0  0  0  0  0  0  0  0  0  0
  1  2  1  0
  2  3  1  0
  3  4  1  0
  4  5  1  0
  5  6  1  0
  6  7  1  0
  6  8  1  0
  6  9  1  0
  9 10  2  0
  9 11  1  0
 11 12  1  0
 11 13  1  0
 13 14  2  0
 14 15  1  0
 14 16  1  0
 16 17  1  0
 16 18  2  0
 18 19  1  0
 19 20  2  0
 20 21  1  0
 21 22  2  0
 22 23  1  0
 23 24  1  0
 24 25  1  0
 24 26  1  0
 24 27  1  0
 27 28  1  0
 27 29  1  0
 27 30  1  0
 30 31  1  0
 30 32  1  0
 30 33  1  0
 33 34  1  0
 33 35  1  0
 22 36  1  0
 36 37  2  0
 37 38  1  0
 38 39  1  0
 39 40  2  0
 40 41  1  0
 40 42  1  0
 42 43  2  0
 42 44  1  0
 44 45  1  0
 45 46  1  0
 45 47  1  0
 45 48  1  0
 44 49  1  0
 49 50  2  0
 50 51  1  0
 50 52  1  0
 52 53  1  0
 52 54  2  0
 54 55  1  0
 54 56  1  0
 56 57  1  0
 56 58  2  0
 37 59  1  0
 18 60  1  0
 60 61  1  0
 60 62  2  0
 62 63  1  0
  4 64  2  0
 64 65  1  0
 65 66  1  0
 66 67  1  0
 66 68  1  0
 66 69  1  0
 65  2  2  0
 62 13  1  0
 59 20  1  0
 33 23  1  0
 58 39  1  0
 58 49  1  0
M  CHG  1  59  -1
M  END
>  <UniqueID>  (37) 
37

>  <SMILES>  (37) 
Cc1csc(SCC(=O)Nc2ccc(/N=c3\nc(N4CCCC4)nc(Oc4cc(=O)n(C)c5ccccc45)[n-]3)cc2)n1

>  <Energy>  (37) 
125.40506376009368

>  <Genealogy>  (37) 
Cc1csc(SCC(=O)Nc2ccc(N=c3nc(N4CCCC4)nc(Oc4cc(=O)n(C)c5ccccc45)[n-]3)cc2)n1 (protonated)
Cc1csc(SCC(=O)Nc2ccc(/N=c3\nc(N4CCCC4)nc(Oc4cc(=O)n(C)c5ccccc45)[n-]3)cc2)n1 (cis-trans isomerization)
Cc1csc(SCC(=O)Nc2ccc(/N=c3\nc(N4CCCC4)nc(Oc4cc(=O)n(C)c5ccccc45)[n-]3)cc2)n1 (3D coordinates assigned)
Cc1csc(SCC(=O)Nc2ccc(/N=c3\nc(N4CCCC4)nc(Oc4cc(=O)n(C)c5ccccc45)[n-]3)cc2)n1 (nonaromatic ring conformer: 125.40506376009368 kcal/mol)

>  <smiles>  (37) 
Cc1csc(SCC(=O)Nc2ccc(N=c3nc(N4CCCC4)nc(Oc4cc(=O)n(C)c5ccccc45)[nH]3)cc2)n1

>  <score_type>  (37) 
oracle

>  <origin>  (37) 
adg

>  <m_score__min__energy>  (37) 
-11.1

>  <m_primary>  (37) 
energy

$$$$
37:0
     RDKit          3D

 39 40  0  0  0  0  0  0  0  0999 V2000
   62.3580   33.5690   50.6520 C   0  0  0  0  0  0  0  0  0  0  0  0
   62.2920   33.6430   49.1530 C   0  0  0  0  0  0  0  0  0  0  0  0
   61.1370   34.1300   48.5180 C   0  0  0  0  0  0  0  0  0  0  0  0
   61.0800   34.2180   47.1190 C   0  0  0  0  0  0  0  0  0  0  0  0
   59.6860   34.9380   46.3160 S   0  0  0  0  0  0  0  0  0  0  0  0
   58.5120   34.8990   47.2540 O   0  0  0  0  0  0  0  0  0  0  0  0
   59.9570   36.3680   45.9420 O   0  0  0  0  0  0  0  0  0  0  0  0
   59.3080   34.0270   44.8880 N   0  0  0  0  0  0  0  0  0  0  0  0
   58.1460   33.4930   44.6570 C   0  0  0  0  0  0  0  0  0  0  0  0
   56.9720   34.1190   45.1720 N   0  0  0  0  0  0  0  0  0  0  0  0
   58.0260   32.2850   43.8970 N   0  0  0  0  0  0  0  0  0  0  0  0
   57.7220   31.0100   44.4900 C   0  0  0  0  0  0  0  0  0  0  0  0
   58.6370   30.3510   45.3340 C   0  0  0  0  0  0  0  0  0  0  0  0
   58.3600   29.0650   45.8070 C   0  0  0  0  0  0  0  0  0  0  0  0
   57.1720   28.4200   45.4450 C   0  0  0  0  0  0  0  0  0  0  0  0
   56.8460   26.7860   46.0110 S   0  0  0  0  0  0  0  0  0  0  0  0
   55.1410   26.5150   46.0480 N   0  0  0  0  0  0  0  0  0  0  0  0
   57.4160   26.6010   47.3890 O   0  0  0  0  0  0  0  0  0  0  0  0
   57.4910   25.7900   45.0870 O   0  0  0  0  0  0  0  0  0  0  0  0
   56.2440   29.0830   44.6330 C   0  0  0  0  0  0  0  0  0  0  0  0
   56.5190   30.3680   44.1580 C   0  0  0  0  0  0  0  0  0  0  0  0
   62.1710   33.7910   46.3540 C   0  0  0  0  0  0  0  0  0  0  0  0
   63.3150   33.2880   46.9780 C   0  0  0  0  0  0  0  0  0  0  0  0
   63.3810   33.2140   48.3720 C   0  0  0  0  0  0  0  0  0  0  0  0
   64.5320   32.7190   48.9750 O   0  0  0  0  0  0  0  0  0  0  0  0
   61.6853   34.3232   51.0863 H   0  0  0  0  0  0  0  0  0  0  0  0
   62.0482   32.5670   50.9836 H   0  0  0  0  0  0  0  0  0  0  0  0
   63.3888   33.7626   50.9836 H   0  0  0  0  0  0  0  0  0  0  0  0
   60.2725   34.4441   49.1213 H   0  0  0  0  0  0  0  0  0  0  0  0
   56.0320   33.7000   44.9950 H   0  0  0  0  0  0  0  0  0  0  0  0
   57.0390   34.9970   45.7340 H   0  0  0  0  0  0  0  0  0  0  0  0
   58.3090   32.3180   42.8920 H   0  0  0  0  0  0  0  0  0  0  0  0
   59.5737   30.8505   45.6222 H   0  0  0  0  0  0  0  0  0  0  0  0
   59.0792   28.5577   46.4668 H   0  0  0  0  0  0  0  0  0  0  0  0
   54.7790   26.7170   45.0880 H   0  0  0  0  0  0  0  0  0  0  0  0
   55.2963   28.5912   44.3684 H   0  0  0  0  0  0  0  0  0  0  0  0
   55.7860   30.8810   43.5181 H   0  0  0  0  0  0  0  0  0  0  0  0
   62.1276   33.8517   45.2565 H   0  0  0  0  0  0  0  0  0  0  0  0
   64.1668   32.9490   46.3701 H   0  0  0  0  0  0  0  0  0  0  0  0
  1  2  1  0
  2  3  2  0
  3  4  1  0
  4  5  1  0
  5  6  2  0
  5  7  2  0
  5  8  1  0
  8  9  2  3
  9 10  1  0
  9 11  1  0
 11 12  1  0
 12 13  2  0
 13 14  1  0
 14 15  2  0
 15 16  1  0
 16 17  1  0
 16 18  2  0
 16 19  2  0
 15 20  1  0
 20 21  2  0
  4 22  2  0
 22 23  1  0
 23 24  2  0
 24 25  1  0
 24  2  1  0
 21 12  1  0
  1 26  1  0
  1 27  1  0
  1 28  1  0
  3 29  1  0
 10 30  1  0
 10 31  1  0
 11 32  1  0
 13 33  1  0
 14 34  1  0
 17 35  1  0
 20 36  1  0
 21 37  1  0
 22 38  1  0
 23 39  1  0
M  CHG  2  17  -1  25  -1
M  END
>  <UniqueID>  (38) 
38

>  <SMILES>  (38) 
Cc1cc(S(=O)(=O)N=C(N)Nc2ccc(S([NH-])(=O)=O)cc2)ccc1[O-]

>  <Energy>  (38) 
41.564232569262664

>  <Genealogy>  (38) 
Cc1cc(S(=O)(=O)N=C(N)Nc2ccc(S([NH-])(=O)=O)cc2)ccc1[O-] (protonated)
Cc1cc(S(=O)(=O)N=C(N)Nc2ccc(S([NH-])(=O)=O)cc2)ccc1[O-] (3D coordinates assigned)
Cc1cc(S(=O)(=O)N=C(N)Nc2ccc(S([NH-])(=O)=O)cc2)ccc1[O-] (optimized conformer: 41.564232569262664 kcal/mol)

>  <smiles>  (38) 
Cc1cc(S(=O)(=O)N=C(N)Nc2ccc(S(N)(=O)=O)cc2)ccc1O

>  <score_type>  (38) 
oracle

>  <origin>  (38) 
adg

>  <m_score__min__energy>  (38) 
-12.08

>  <m_primary>  (38) 
energy

$$$$
38:0
     RDKit          3D

 50 52  0  0  0  0  0  0  0  0999 V2000
   63.5510   33.0840   47.2860 C   0  0  0  0  0  0  0  0  0  0  0  0
   62.6960   31.9590   47.8580 C   0  0  0  0  0  0  0  0  0  0  0  0
   62.2720   32.3020   49.2370 N   0  0  0  0  0  0  0  0  0  0  0  0
   61.7590   31.1150   49.9570 C   0  0  0  0  0  0  0  0  0  0  0  0
   61.1400   30.1010   48.9950 C   0  0  0  0  0  0  0  0  0  0  0  0
   61.0680   33.5810   49.1980 S   0  0  0  0  0  0  0  0  0  0  0  0
   60.2800   33.5880   50.4790 O   0  0  0  0  0  0  0  0  0  0  0  0
   61.7290   34.9210   49.0360 O   0  0  0  0  0  0  0  0  0  0  0  0
   59.9750   33.3550   47.8340 C   0  0  0  0  0  0  0  0  0  0  0  0
   59.0770   32.2770   47.8070 C   0  0  0  0  0  0  0  0  0  0  0  0
   58.2280   32.0970   46.7120 C   0  0  0  0  0  0  0  0  0  0  0  0
   58.2500   33.0030   45.6460 C   0  0  0  0  0  0  0  0  0  0  0  0
   57.3590   32.8080   44.5430 N   0  0  0  0  0  0  0  0  0  0  0  0
   57.7340   32.3300   43.2440 C   0  0  0  0  0  0  0  0  0  0  0  0
   58.4900   33.0410   42.5320 O   0  0  0  0  0  0  0  0  0  0  0  0
   57.2930   30.9860   42.7190 C   0  0  0  0  0  0  0  0  0  0  0  0
   57.0800   30.0240   43.8060 N   0  0  0  0  0  0  0  0  0  0  0  0
   55.9030   29.4980   44.2360 C   0  0  0  0  0  0  0  0  0  0  0  0
   54.7830   29.7890   43.7390 O   0  0  0  0  0  0  0  0  0  0  0  0
   56.0510   28.6420   45.2310 O   0  0  0  0  0  0  0  0  0  0  0  0
   57.3420   28.5860   45.4600 C   0  0  0  0  0  0  0  0  0  0  0  0
   58.0200   27.8280   46.4080 C   0  0  0  0  0  0  0  0  0  0  0  0
   59.4330   27.9320   46.4570 C   0  0  0  0  0  0  0  0  0  0  0  0
   60.1850   27.1750   47.4220 N   0  0  0  0  0  0  0  0  0  0  0  0
   61.0470   26.3500   47.0530 O   0  0  0  0  0  0  0  0  0  0  0  0
   59.9620   27.3430   48.7690 O   0  0  0  0  0  0  0  0  0  0  0  0
   60.1000   28.7900   45.5410 C   0  0  0  0  0  0  0  0  0  0  0  0
   59.3790   29.5410   44.5940 C   0  0  0  0  0  0  0  0  0  0  0  0
   57.9910   29.4150   44.5900 C   0  0  0  0  0  0  0  0  0  0  0  0
   59.1680   34.0650   45.6580 C   0  0  0  0  0  0  0  0  0  0  0  0
   60.0220   34.2420   46.7500 C   0  0  0  0  0  0  0  0  0  0  0  0
   63.9921   33.6644   48.1097 H   0  0  0  0  0  0  0  0  0  0  0  0
   64.3540   32.6562   46.6678 H   0  0  0  0  0  0  0  0  0  0  0  0
   62.9239   33.7431   46.6678 H   0  0  0  0  0  0  0  0  0  0  0  0
   61.8063   31.8192   47.2265 H   0  0  0  0  0  0  0  0  0  0  0  0
   63.2848   31.0301   47.8794 H   0  0  0  0  0  0  0  0  0  0  0  0
   62.5905   30.6361   50.4949 H   0  0  0  0  0  0  0  0  0  0  0  0
   60.9789   31.4468   50.6580 H   0  0  0  0  0  0  0  0  0  0  0  0
   60.6515   29.3007   49.5702 H   0  0  0  0  0  0  0  0  0  0  0  0
   60.3950   30.6043   48.3613 H   0  0  0  0  0  0  0  0  0  0  0  0
   61.9281   29.6683   48.3613 H   0  0  0  0  0  0  0  0  0  0  0  0
   59.0414   31.5717   48.6503 H   0  0  0  0  0  0  0  0  0  0  0  0
   57.5395   31.2395   46.6879 H   0  0  0  0  0  0  0  0  0  0  0  0
   56.3517   31.1112   42.1638 H   0  0  0  0  0  0  0  0  0  0  0  0
   58.0865   30.5953   42.0649 H   0  0  0  0  0  0  0  0  0  0  0  0
   57.4763   27.1673   47.0993 H   0  0  0  0  0  0  0  0  0  0  0  0
   61.1968   28.8683   45.5727 H   0  0  0  0  0  0  0  0  0  0  0  0
   59.8927   30.2039   43.8822 H   0  0  0  0  0  0  0  0  0  0  0  0
   59.2152   34.7593   44.8061 H   0  0  0  0  0  0  0  0  0  0  0  0
   60.7337   35.0807   46.7587 H   0  0  0  0  0  0  0  0  0  0  0  0
  1  2  1  0
  2  3  1  0
  3  4  1  0
  4  5  1  0
  3  6  1  0
  6  7  2  0
  6  8  2  0
  6  9  1  0
  9 10  2  0
 10 11  1  0
 11 12  2  0
 12 13  1  0
 13 14  1  0
 14 15  2  0
 14 16  1  0
 16 17  1  0
 17 18  1  0
 18 19  2  0
 18 20  1  0
 20 21  1  0
 21 22  2  0
 22 23  1  0
 23 24  1  0
 24 25  2  0
 24 26  1  0
 23 27  2  0
 27 28  1  0
 28 29  2  0
 12 30  1  0
 30 31  2  0
 31  9  1  0
 29 17  1  0
 29 21  1  0
  1 32  1  0
  1 33  1  0
  1 34  1  0
  2 35  1  0
  2 36  1  0
  4 37  1  0
  4 38  1  0
  5 39  1  0
  5 40  1  0
  5 41  1  0
 10 42  1  0
 11 43  1  0
 16 44  1  0
 16 45  1  0
 22 46  1  0
 27 47  1  0
 28 48  1  0
 30 49  1  0
 31 50  1  0
M  CHG  3  13  -1  24   1  26  -1
M  END
>  <UniqueID>  (39) 
39

>  <SMILES>  (39) 
CCN(CC)S(=O)(=O)c1ccc([N-]C(=O)Cn2c(=O)oc3cc([N+](=O)[O-])ccc32)cc1

>  <Energy>  (39) 
95.87803016791858

>  <Genealogy>  (39) 
CCN(CC)S(=O)(=O)c1ccc([N-]C(=O)Cn2c(=O)oc3cc([N+](=O)[O-])ccc32)cc1 (protonated)
CCN(CC)S(=O)(=O)c1ccc([N-]C(=O)Cn2c(=O)oc3cc([N+](=O)[O-])ccc32)cc1 (3D coordinates assigned)
CCN(CC)S(=O)(=O)c1ccc([N-]C(=O)Cn2c(=O)oc3cc([N+](=O)[O-])ccc32)cc1 (optimized conformer: 95.87803016791858 kcal/mol)

>  <smiles>  (39) 
CCN(CC)S(=O)(=O)c1ccc(NC(=O)Cn2c(=O)oc3cc([N+](=O)[O-])ccc32)cc1

>  <score_type>  (39) 
oracle

>  <origin>  (39) 
adg

>  <m_score__min__energy>  (39) 
-9.3499999999999996

>  <m_primary>  (39) 
energy

$$$$
39:0
     RDKit          3D

 35 36  0  0  0  0  0  0  0  0999 V2000
   59.7220   28.1700   45.2050 C   0  0  0  0  0  0  0  0  0  0  0  0
   58.8290   27.2970   44.7340 C   0  0  0  0  0  0  0  0  0  0  0  0
   57.7700   27.7110   43.7510 C   0  0  0  0  0  0  0  0  0  0  0  0
   57.5860   29.1600   43.7740 N   0  0  0  0  0  0  0  0  0  0  0  0
   56.4640   29.7810   44.4190 C   0  0  0  0  0  0  0  0  0  0  0  0
   55.5190   29.0750   44.8600 O   0  0  0  0  0  0  0  0  0  0  0  0
   56.3650   31.2070   44.5170 N   0  0  0  0  0  0  0  0  0  0  0  0
   57.3460   32.0810   45.0910 C   0  0  0  0  0  0  0  0  0  0  0  0
   57.3830   33.4520   44.7820 C   0  0  0  0  0  0  0  0  0  0  0  0
   58.3710   34.2720   45.3330 C   0  0  0  0  0  0  0  0  0  0  0  0
   59.3560   33.7270   46.1780 C   0  0  0  0  0  0  0  0  0  0  0  0
   60.3520   34.5200   46.7660 O   0  0  0  0  0  0  0  0  0  0  0  0
   61.5320   34.0400   47.3540 C   0  0  0  0  0  0  0  0  0  0  0  0
   62.6080   33.5640   46.5830 C   0  0  0  0  0  0  0  0  0  0  0  0
   63.7610   33.0770   47.2090 C   0  0  0  0  0  0  0  0  0  0  0  0
   63.8420   33.0500   48.6040 C   0  0  0  0  0  0  0  0  0  0  0  0
   62.7670   33.5040   49.3750 C   0  0  0  0  0  0  0  0  0  0  0  0
   61.6130   33.9910   48.7510 C   0  0  0  0  0  0  0  0  0  0  0  0
   59.3180   32.3610   46.4790 C   0  0  0  0  0  0  0  0  0  0  0  0
   58.3300   31.5400   45.9260 C   0  0  0  0  0  0  0  0  0  0  0  0
   60.4868   27.8407   45.9238 H   0  0  0  0  0  0  0  0  0  0  0  0
   59.6932   29.2187   44.8744 H   0  0  0  0  0  0  0  0  0  0  0  0
   58.8689   26.2512   45.0728 H   0  0  0  0  0  0  0  0  0  0  0  0
   58.0739   27.4011   42.7402 H   0  0  0  0  0  0  0  0  0  0  0  0
   56.8210   27.2284   44.0276 H   0  0  0  0  0  0  0  0  0  0  0  0
   58.2830   29.7530   43.2700 H   0  0  0  0  0  0  0  0  0  0  0  0
   56.6309   33.8810   44.1035 H   0  0  0  0  0  0  0  0  0  0  0  0
   58.3791   35.3482   45.1055 H   0  0  0  0  0  0  0  0  0  0  0  0
   62.5429   33.5746   45.4850 H   0  0  0  0  0  0  0  0  0  0  0  0
   64.6043   32.7151   46.6025 H   0  0  0  0  0  0  0  0  0  0  0  0
   64.7507   32.6719   49.0953 H   0  0  0  0  0  0  0  0  0  0  0  0
   62.8287   33.4782   50.4730 H   0  0  0  0  0  0  0  0  0  0  0  0
   60.7655   34.3370   49.3609 H   0  0  0  0  0  0  0  0  0  0  0  0
   60.0706   31.9298   47.1554 H   0  0  0  0  0  0  0  0  0  0  0  0
   58.3264   30.4628   46.1487 H   0  0  0  0  0  0  0  0  0  0  0  0
  1  2  2  0
  2  3  1  0
  3  4  1  0
  4  5  1  0
  5  6  2  0
  5  7  1  0
  7  8  1  0
  8  9  2  0
  9 10  1  0
 10 11  2  0
 11 12  1  0
 12 13  1  0
 13 14  2  0
 14 15  1  0
 15 16  2  0
 16 17  1  0
 17 18  2  0
 11 19  1  0
 19 20  2  0
 20  8  1  0
 18 13  1  0
  1 21  1  0
  1 22  1  0
  2 23  1  0
  3 24  1  0
  3 25  1  0
  4 26  1  0
  9 27  1  0
 10 28  1  0
 14 29  1  0
 15 30  1  0
 16 31  1  0
 17 32  1  0
 18 33  1  0
 19 34  1  0
 20 35  1  0
M  CHG  1   7  -1
M  END
>  <UniqueID>  (40) 
40

>  <SMILES>  (40) 
C=CCNC(=O)[N-]c1ccc(Oc2ccccc2)cc1

>  <Energy>  (40) 
40.98353765080186

>  <Genealogy>  (40) 
C=CCNC(=O)[N-]c1ccc(Oc2ccccc2)cc1 (protonated)
C=CCNC(=O)[N-]c1ccc(Oc2ccccc2)cc1 (3D coordinates assigned)
C=CCNC(=O)[N-]c1ccc(Oc2ccccc2)cc1 (optimized conformer: 40.98353765080186 kcal/mol)

>  <smiles>  (40) 
C=CCNC(=O)Nc1ccc(Oc2ccccc2)cc1

>  <score_type>  (40) 
oracle

>  <origin>  (40) 
adg

>  <m_score__min__energy>  (40) 
-9.1400000000000006

>  <m_primary>  (40) 
energy

$$$$
40:0
     RDKit          3D

 57 60  0  0  0  0  0  0  0  0999 V2000
   55.5240   28.9210   45.1350 O   0  0  0  0  0  0  0  0  0  0  0  0
   56.1620   29.7100   44.3870 C   0  0  0  0  0  0  0  0  0  0  0  0
   56.9900   29.1750   43.2550 C   0  0  0  0  0  0  0  0  0  0  0  0
   58.1360   28.2780   43.7420 C   0  0  0  0  0  0  0  0  0  0  0  0
   58.7070   28.7660   45.0390 C   0  0  0  0  0  0  0  0  0  0  0  0
   59.7620   29.6600   45.1860 C   0  0  0  0  0  0  0  0  0  0  0  0
   60.1310   29.9030   46.4710 N   0  0  0  0  0  0  0  0  0  0  0  0
   59.3880   29.1990   47.3540 C   0  0  0  0  0  0  0  0  0  0  0  0
   59.5640   29.2770   48.8100 C   0  0  0  0  0  0  0  0  0  0  0  0
   59.6800   28.2150   49.4770 O   0  0  0  0  0  0  0  0  0  0  0  0
   59.6020   30.5510   49.4740 N   0  0  0  0  0  0  0  0  0  0  0  0
   59.6780   30.6760   50.9260 C   0  0  0  0  0  0  0  0  0  0  0  0
   58.3240   30.9540   51.4940 C   0  0  0  0  0  0  0  0  0  0  0  0
   57.8940   32.1640   51.9980 C   0  0  0  0  0  0  0  0  0  0  0  0
   56.5990   31.9470   52.4290 C   0  0  0  0  0  0  0  0  0  0  0  0
   56.3250   30.6210   52.1660 C   0  0  0  0  0  0  0  0  0  0  0  0
   57.3730   30.0530   51.6100 O   0  0  0  0  0  0  0  0  0  0  0  0
   58.2410   28.2430   46.5680 S   0  0  0  0  0  0  0  0  0  0  0  0
   56.0340   31.1310   44.5500 N   0  0  0  0  0  0  0  0  0  0  0  0
   57.1330   32.0360   44.7160 C   0  0  0  0  0  0  0  0  0  0  0  0
   57.7550   32.6460   43.6140 C   0  0  0  0  0  0  0  0  0  0  0  0
   58.8240   33.5260   43.8130 C   0  0  0  0  0  0  0  0  0  0  0  0
   59.2790   33.7990   45.1070 C   0  0  0  0  0  0  0  0  0  0  0  0
   58.6590   33.2020   46.2120 C   0  0  0  0  0  0  0  0  0  0  0  0
   59.2790   33.4830   47.8450 S   0  0  0  0  0  0  0  0  0  0  0  0
   59.2880   34.9630   48.1230 O   0  0  0  0  0  0  0  0  0  0  0  0
   58.3660   32.8290   48.8440 O   0  0  0  0  0  0  0  0  0  0  0  0
   60.8920   32.8350   48.0430 N   0  0  0  0  0  0  0  0  0  0  0  0
   61.7540   33.2470   46.9230 C   0  0  0  0  0  0  0  0  0  0  0  0
   63.2030   32.7740   47.1550 C   0  0  0  0  0  0  0  0  0  0  0  0
   63.3170   31.9980   48.3340 O   0  0  0  0  0  0  0  0  0  0  0  0
   62.9250   32.7720   49.4550 C   0  0  0  0  0  0  0  0  0  0  0  0
   61.4750   33.2780   49.3190 C   0  0  0  0  0  0  0  0  0  0  0  0
   57.5700   32.3400   46.0130 C   0  0  0  0  0  0  0  0  0  0  0  0
   56.3406   28.5881   42.5888 H   0  0  0  0  0  0  0  0  0  0  0  0
   57.4353   30.0331   42.7302 H   0  0  0  0  0  0  0  0  0  0  0  0
   57.7542   27.2560   43.8823 H   0  0  0  0  0  0  0  0  0  0  0  0
   58.9343   28.2993   42.9855 H   0  0  0  0  0  0  0  0  0  0  0  0
   60.2599   30.1343   44.3274 H   0  0  0  0  0  0  0  0  0  0  0  0
   59.4960   31.4230   48.9110 H   0  0  0  0  0  0  0  0  0  0  0  0
   60.0644   29.7380   51.3513 H   0  0  0  0  0  0  0  0  0  0  0  0
   60.3501   31.5093   51.1788 H   0  0  0  0  0  0  0  0  0  0  0  0
   58.4626   33.1044   52.0466 H   0  0  0  0  0  0  0  0  0  0  0  0
   55.9232   32.6831   52.8889 H   0  0  0  0  0  0  0  0  0  0  0  0
   55.3738   30.1150   52.3877 H   0  0  0  0  0  0  0  0  0  0  0  0
   57.4015   32.4317   42.5947 H   0  0  0  0  0  0  0  0  0  0  0  0
   59.3082   34.0047   42.9491 H   0  0  0  0  0  0  0  0  0  0  0  0
   60.1261   34.4844   45.2574 H   0  0  0  0  0  0  0  0  0  0  0  0
   61.3733   32.8038   45.9910 H   0  0  0  0  0  0  0  0  0  0  0  0
   61.7450   34.3447   46.8520 H   0  0  0  0  0  0  0  0  0  0  0  0
   63.5217   32.1659   46.2955 H   0  0  0  0  0  0  0  0  0  0  0  0
   63.8409   33.6632   47.2661 H   0  0  0  0  0  0  0  0  0  0  0  0
   63.0031   32.1527   50.3608 H   0  0  0  0  0  0  0  0  0  0  0  0
   63.5892   33.6466   49.5173 H   0  0  0  0  0  0  0  0  0  0  0  0
   60.8733   32.8799   50.1494 H   0  0  0  0  0  0  0  0  0  0  0  0
   61.4781   34.3777   49.3459 H   0  0  0  0  0  0  0  0  0  0  0  0
   57.0558   31.8999   46.8801 H   0  0  0  0  0  0  0  0  0  0  0  0
  1  2  2  0
  2  3  1  0
  3  4  1  0
  4  5  1  0
  5  6  2  0
  6  7  1  0
  7  8  2  0
  8  9  1  0
  9 10  2  0
  9 11  1  0
 11 12  1  0
 12 13  1  0
 13 14  2  0
 14 15  1  0
 15 16  2  0
 16 17  1  0
  8 18  1  0
  2 19  1  0
 19 20  1  0
 20 21  2  0
 21 22  1  0
 22 23  2  0
 23 24  1  0
 24 25  1  0
 25 26  2  0
 25 27  2  0
 25 28  1  0
 28 29  1  0
 29 30  1  0
 30 31  1  0
 31 32  1  0
 32 33  1  0
 24 34  2  0
 18  5  1  0
 34 20  1  0
 17 13  1  0
 33 28  1  0
  3 35  1  0
  3 36  1  0
  4 37  1  0
  4 38  1  0
  6 39  1  0
 11 40  1  0
 12 41  1  0
 12 42  1  0
 14 43  1  0
 15 44  1  0
 16 45  1  0
 21 46  1  0
 22 47  1  0
 23 48  1  0
 29 49  1  0
 29 50  1  0
 30 51  1  0
 30 52  1  0
 32 53  1  0
 32 54  1  0
 33 55  1  0
 33 56  1  0
 34 57  1  0
M  CHG  1  19  -1
M  END
>  <UniqueID>  (41) 
41

>  <SMILES>  (41) 
O=C(CCc1cnc(C(=O)NCc2ccco2)s1)[N-]c1cccc(S(=O)(=O)N2CCOCC2)c1

>  <Energy>  (41) 
118.31468382450792

>  <Genealogy>  (41) 
O=C(CCc1cnc(C(=O)NCc2ccco2)s1)[N-]c1cccc(S(=O)(=O)N2CCOCC2)c1 (protonated)
O=C(CCc1cnc(C(=O)NCc2ccco2)s1)[N-]c1cccc(S(=O)(=O)N2CCOCC2)c1 (3D coordinates assigned)
O=C(CCc1cnc(C(=O)NCc2ccco2)s1)[N-]c1cccc(S(=O)(=O)N2CCOCC2)c1 (nonaromatic ring conformer: 118.31468382450792 kcal/mol)

>  <smiles>  (41) 
O=C(CCc1cnc(C(=O)NCc2ccco2)s1)Nc1cccc(S(=O)(=O)N2CCOCC2)c1

>  <score_type>  (41) 
oracle

>  <origin>  (41) 
adg

>  <m_score__min__energy>  (41) 
-11.390000000000001

>  <m_primary>  (41) 
energy

$$$$
41:0
     RDKit          3D

 56 59  0  0  0  0  0  0  0  0999 V2000
   52.8580   30.0640   51.4790 C   0  0  0  0  0  0  0  0  0  0  0  0
   54.2480   30.0560   52.0320 C   0  0  0  0  0  0  0  0  0  0  0  0
   54.7540   28.9170   52.6700 C   0  0  0  0  0  0  0  0  0  0  0  0
   56.0410   28.9740   53.2140 C   0  0  0  0  0  0  0  0  0  0  0  0
   56.6080   27.7960   53.9400 C   0  0  0  0  0  0  0  0  0  0  0  0
   56.7580   30.1270   53.1320 N   0  0  0  0  0  0  0  0  0  0  0  0
   56.2490   31.2240   52.5120 C   0  0  0  0  0  0  0  0  0  0  0  0
   57.1980   32.7400   52.4350 S   0  0  0  0  0  0  0  0  0  0  0  0
   58.7500   31.9300   51.9110 C   0  0  0  0  0  0  0  0  0  0  0  0
   59.3330   32.6090   50.7030 C   0  0  0  0  0  0  0  0  0  0  0  0
   59.5750   33.9370   50.6540 N   0  0  0  0  0  0  0  0  0  0  0  0
   60.2360   34.1730   49.5300 N   0  0  0  0  0  0  0  0  0  0  0  0
   60.3900   32.9850   48.9110 C   0  0  0  0  0  0  0  0  0  0  0  0
   61.2050   32.7920   47.3220 S   0  0  0  0  0  0  0  0  0  0  0  0
   59.9050   33.6480   46.3670 C   0  0  0  0  0  0  0  0  0  0  0  0
   58.6760   32.7990   46.3230 C   0  0  0  0  0  0  0  0  0  0  0  0
   57.7980   32.9220   47.2180 O   0  0  0  0  0  0  0  0  0  0  0  0
   58.4770   31.8960   45.2310 N   0  0  0  0  0  0  0  0  0  0  0  0
   58.7130   30.4780   45.2430 C   0  0  0  0  0  0  0  0  0  0  0  0
   60.0130   29.9680   45.4410 C   0  0  0  0  0  0  0  0  0  0  0  0
   60.2670   28.6010   45.3360 C   0  0  0  0  0  0  0  0  0  0  0  0
   59.2340   27.7190   45.0230 C   0  0  0  0  0  0  0  0  0  0  0  0
   57.9410   28.2020   44.8180 C   0  0  0  0  0  0  0  0  0  0  0  0
   57.6590   29.5810   44.9290 C   0  0  0  0  0  0  0  0  0  0  0  0
   56.2630   30.0440   44.7030 C   0  0  0  0  0  0  0  0  0  0  0  0
   55.1590   29.1620   44.8630 N   0  0  0  0  0  0  0  0  0  0  0  0
   56.0430   31.2320   44.3320 O   0  0  0  0  0  0  0  0  0  0  0  0
   59.8370   31.9790   49.6190 N   0  0  0  0  0  0  0  0  0  0  0  0
   59.8380   30.5750   49.3110 C   0  0  0  0  0  0  0  0  0  0  0  0
   58.7870   30.0100   48.5700 C   0  0  0  0  0  0  0  0  0  0  0  0
   58.8030   28.6490   48.2480 C   0  0  0  0  0  0  0  0  0  0  0  0
   59.8610   27.8410   48.6740 C   0  0  0  0  0  0  0  0  0  0  0  0
   60.9030   28.3920   49.4280 C   0  0  0  0  0  0  0  0  0  0  0  0
   60.8920   29.7540   49.7470 C   0  0  0  0  0  0  0  0  0  0  0  0
   55.0040   31.1820   51.9690 N   0  0  0  0  0  0  0  0  0  0  0  0
   52.1340   30.0682   52.3071 H   0  0  0  0  0  0  0  0  0  0  0  0
   52.7142   30.9630   50.8616 H   0  0  0  0  0  0  0  0  0  0  0  0
   52.7038   29.1667   50.8616 H   0  0  0  0  0  0  0  0  0  0  0  0
   54.1530   27.9985   52.7417 H   0  0  0  0  0  0  0  0  0  0  0  0
   56.5287   27.9608   55.0247 H   0  0  0  0  0  0  0  0  0  0  0  0
   56.0469   26.8908   53.6647 H   0  0  0  0  0  0  0  0  0  0  0  0
   57.6655   27.6698   53.6647 H   0  0  0  0  0  0  0  0  0  0  0  0
   59.4764   31.9776   52.7356 H   0  0  0  0  0  0  0  0  0  0  0  0
   58.5283   30.8843   51.6514 H   0  0  0  0  0  0  0  0  0  0  0  0
   59.6695   34.6087   46.8482 H   0  0  0  0  0  0  0  0  0  0  0  0
   60.2623   33.8279   45.3423 H   0  0  0  0  0  0  0  0  0  0  0  0
   60.8363   30.6569   45.6811 H   0  0  0  0  0  0  0  0  0  0  0  0
   61.2849   28.2177   45.5005 H   0  0  0  0  0  0  0  0  0  0  0  0
   59.4382   26.6415   44.9375 H   0  0  0  0  0  0  0  0  0  0  0  0
   57.1320   27.5002   44.5670 H   0  0  0  0  0  0  0  0  0  0  0  0
   54.4140   29.3540   45.5660 H   0  0  0  0  0  0  0  0  0  0  0  0
   57.9477   30.6406   48.2415 H   0  0  0  0  0  0  0  0  0  0  0  0
   57.9821   28.2141   47.6589 H   0  0  0  0  0  0  0  0  0  0  0  0
   59.8745   26.7717   48.4164 H   0  0  0  0  0  0  0  0  0  0  0  0
   61.7312   27.7539   49.7701 H   0  0  0  0  0  0  0  0  0  0  0  0
   61.7116   30.1841   50.3414 H   0  0  0  0  0  0  0  0  0  0  0  0
  1  2  1  0
  2  3  2  0
  3  4  1  0
  4  5  1  0
  4  6  2  0
  6  7  1  0
  7  8  1  0
  8  9  1  0
  9 10  1  0
 10 11  2  0
 11 12  1  0
 12 13  2  0
 13 14  1  0
 14 15  1  0
 15 16  1  0
 16 17  2  0
 16 18  1  0
 18 19  1  0
 19 20  2  0
 20 21  1  0
 21 22  2  0
 22 23  1  0
 23 24  2  0
 24 25  1  0
 25 26  1  0
 25 27  2  0
 13 28  1  0
 28 29  1  0
 29 30  2  0
 30 31  1  0
 31 32  2  0
 32 33  1  0
 33 34  2  0
  7 35  2  0
 35  2  1  0
 28 10  1  0
 34 29  1  0
 24 19  1  0
  1 36  1  0
  1 37  1  0
  1 38  1  0
  3 39  1  0
  5 40  1  0
  5 41  1  0
  5 42  1  0
  9 43  1  0
  9 44  1  0
 15 45  1  0
 15 46  1  0
 20 47  1  0
 21 48  1  0
 22 49  1  0
 23 50  1  0
 26 51  1  0
 30 52  1  0
 31 53  1  0
 32 54  1  0
 33 55  1  0
 34 56  1  0
M  CHG  2  18  -1  26  -1
M  END
>  <UniqueID>  (42) 
42

>  <SMILES>  (42) 
Cc1cc(C)nc(SCc2nnc(SCC(=O)[N-]c3ccccc3C([NH-])=O)n2-c2ccccc2)n1

>  <Energy>  (42) 
94.5682400621184

>  <Genealogy>  (42) 
Cc1cc(C)nc(SCc2nnc(SCC(=O)[N-]c3ccccc3C([NH-])=O)n2-c2ccccc2)n1 (protonated)
Cc1cc(C)nc(SCc2nnc(SCC(=O)[N-]c3ccccc3C([NH-])=O)n2-c2ccccc2)n1 (3D coordinates assigned)
Cc1cc(C)nc(SCc2nnc(SCC(=O)[N-]c3ccccc3C([NH-])=O)n2-c2ccccc2)n1 (optimized conformer: 94.5682400621184 kcal/mol)

>  <smiles>  (42) 
Cc1cc(C)nc(SCc2nnc(SCC(=O)Nc3ccccc3C(N)=O)n2-c2ccccc2)n1

>  <score_type>  (42) 
oracle

>  <origin>  (42) 
adg

>  <m_score__min__energy>  (42) 
-14.539999999999999

>  <m_primary>  (42) 
energy

$$$$
42:0
     RDKit          3D

 39 40  0  0  0  0  0  0  0  0999 V2000
   60.6360   27.2500   49.1610 C   0  0  0  0  0  0  0  0  0  0  0  0
   59.6220   28.1050   48.4190 C   0  0  0  0  0  0  0  0  0  0  0  0
   59.6840   27.8200   47.0260 O   0  0  0  0  0  0  0  0  0  0  0  0
   59.1870   26.6360   46.4740 C   0  0  0  0  0  0  0  0  0  0  0  0
   59.9800   25.7820   45.9880 O   0  0  0  0  0  0  0  0  0  0  0  0
   57.7370   26.3920   46.3970 C   0  0  0  0  0  0  0  0  0  0  0  0
   57.1890   25.2130   46.7460 N   0  0  0  0  0  0  0  0  0  0  0  0
   55.8810   25.3750   46.4720 C   0  0  0  0  0  0  0  0  0  0  0  0
   55.0280   24.4710   46.6660 O   0  0  0  0  0  0  0  0  0  0  0  0
   55.5580   26.5840   45.9760 N   0  0  0  0  0  0  0  0  0  0  0  0
   56.7350   27.2380   45.9300 C   0  0  0  0  0  0  0  0  0  0  0  0
   56.8370   28.6540   45.5200 C   0  0  0  0  0  0  0  0  0  0  0  0
   55.9010   29.1960   44.8730 O   0  0  0  0  0  0  0  0  0  0  0  0
   58.0380   29.3940   45.7910 N   0  0  0  0  0  0  0  0  0  0  0  0
   58.1520   30.8050   45.5500 C   0  0  0  0  0  0  0  0  0  0  0  0
   57.9640   31.2900   44.2490 C   0  0  0  0  0  0  0  0  0  0  0  0
   58.0590   32.6570   43.9700 C   0  0  0  0  0  0  0  0  0  0  0  0
   57.8450   33.0860   42.6520 O   0  0  0  0  0  0  0  0  0  0  0  0
   57.7270   32.2150   41.5320 C   0  0  0  0  0  0  0  0  0  0  0  0
   58.3630   33.5500   45.0140 C   0  0  0  0  0  0  0  0  0  0  0  0
   58.5820   33.0730   46.3080 C   0  0  0  0  0  0  0  0  0  0  0  0
   58.4950   31.6960   46.5870 C   0  0  0  0  0  0  0  0  0  0  0  0
   58.7660   31.1810   47.8650 O   0  0  0  0  0  0  0  0  0  0  0  0
   58.8870   31.9680   49.0450 C   0  0  0  0  0  0  0  0  0  0  0  0
   60.4935   27.3701   50.2451 H   0  0  0  0  0  0  0  0  0  0  0  0
   60.4952   26.1939   48.8875 H   0  0  0  0  0  0  0  0  0  0  0  0
   61.6532   27.5672   48.8875 H   0  0  0  0  0  0  0  0  0  0  0  0
   58.6119   27.8824   48.7934 H   0  0  0  0  0  0  0  0  0  0  0  0
   59.8506   29.1682   48.5844 H   0  0  0  0  0  0  0  0  0  0  0  0
   58.9080   28.8690   46.0330 H   0  0  0  0  0  0  0  0  0  0  0  0
   57.7384   30.5852   43.4352 H   0  0  0  0  0  0  0  0  0  0  0  0
   57.5871   31.1822   41.8838 H   0  0  0  0  0  0  0  0  0  0  0  0
   56.8614   32.5155   40.9234 H   0  0  0  0  0  0  0  0  0  0  0  0
   58.6414   32.2743   40.9234 H   0  0  0  0  0  0  0  0  0  0  0  0
   58.4284   34.6289   44.8099 H   0  0  0  0  0  0  0  0  0  0  0  0
   58.8245   33.7790   47.1159 H   0  0  0  0  0  0  0  0  0  0  0  0
   58.7875   31.3210   49.9290 H   0  0  0  0  0  0  0  0  0  0  0  0
   59.8712   32.4591   49.0589 H   0  0  0  0  0  0  0  0  0  0  0  0
   58.0958   32.7320   49.0589 H   0  0  0  0  0  0  0  0  0  0  0  0
  1  2  1  0
  2  3  1  0
  3  4  1  0
  4  5  2  0
  4  6  1  0
  6  7  1  0
  7  8  1  0
  8  9  2  0
  8 10  1  0
 10 11  1  0
 11 12  1  0
 12 13  2  0
 12 14  1  0
 14 15  1  0
 15 16  2  0
 16 17  1  0
 17 18  1  0
 18 19  1  0
 17 20  2  0
 20 21  1  0
 21 22  2  0
 22 23  1  0
 23 24  1  0
 11  6  2  0
 22 15  1  0
  1 25  1  0
  1 26  1  0
  1 27  1  0
  2 28  1  0
  2 29  1  0
 14 30  1  0
 16 31  1  0
 19 32  1  0
 19 33  1  0
 19 34  1  0
 20 35  1  0
 21 36  1  0
 24 37  1  0
 24 38  1  0
 24 39  1  0
M  CHG  2   7  -1  10  -1
M  END
>  <UniqueID>  (43) 
43

>  <SMILES>  (43) 
CCOC(=O)c1[n-]c(=O)[n-]c1C(=O)Nc1cc(OC)ccc1OC

>  <Energy>  (43) 
67.83511154651558

>  <Genealogy>  (43) 
CCOC(=O)c1[n-]c(=O)[n-]c1C(=O)Nc1cc(OC)ccc1OC (protonated)
CCOC(=O)c1[n-]c(=O)[n-]c1C(=O)Nc1cc(OC)ccc1OC (3D coordinates assigned)
CCOC(=O)c1[n-]c(=O)[n-]c1C(=O)Nc1cc(OC)ccc1OC (optimized conformer: 67.83511154651558 kcal/mol)

>  <smiles>  (43) 
CCOC(=O)c1[nH]c(=O)[nH]c1C(=O)Nc1cc(OC)ccc1OC

>  <score_type>  (43) 
oracle

>  <origin>  (43) 
adg

>  <m_score__min__energy>  (43) 
-10.220000000000001

>  <m_primary>  (43) 
energy

$$$$
43:0
     RDKit          3D

 63 66  0  0  0  0  0  0  0  0999 V2000
   55.8720   19.0900   44.8130 C   0  0  0  0  0  0  0  0  0  0  0  0
   55.7910   20.3480   44.1530 O   0  0  0  0  0  0  0  0  0  0  0  0
   56.1190   21.5790   44.7440 C   0  0  0  0  0  0  0  0  0  0  0  0
   57.3910   22.1650   44.5900 C   0  0  0  0  0  0  0  0  0  0  0  0
   57.6780   23.3960   45.1840 C   0  0  0  0  0  0  0  0  0  0  0  0
   56.7090   24.0540   45.9550 C   0  0  0  0  0  0  0  0  0  0  0  0
   56.9980   25.4150   46.5380 C   0  0  0  0  0  0  0  0  0  0  0  0
   56.0950   26.4750   45.9730 C   0  0  0  0  0  0  0  0  0  0  0  0
   54.8400   26.3350   46.0070 O   0  0  0  0  0  0  0  0  0  0  0  0
   56.6790   27.6430   45.3840 N   0  0  0  0  0  0  0  0  0  0  0  0
   57.9790   28.1720   45.6860 C   0  0  0  0  0  0  0  0  0  0  0  0
   58.8430   28.4930   44.6320 C   0  0  0  0  0  0  0  0  0  0  0  0
   60.1160   29.0030   44.8950 C   0  0  0  0  0  0  0  0  0  0  0  0
   60.5480   29.1710   46.2130 C   0  0  0  0  0  0  0  0  0  0  0  0
   59.7140   28.8090   47.2850 C   0  0  0  0  0  0  0  0  0  0  0  0
   60.1930   28.9430   48.6810 C   0  0  0  0  0  0  0  0  0  0  0  0
   60.5070   27.9090   49.3280 O   0  0  0  0  0  0  0  0  0  0  0  0
   60.3400   30.2220   49.3120 N   0  0  0  0  0  0  0  0  0  0  0  0
   61.4510   31.1100   49.1340 C   0  0  0  0  0  0  0  0  0  0  0  0
   61.6920   32.0140   48.1050 C   0  0  0  0  0  0  0  0  0  0  0  0
   60.8060   32.3040   46.9290 C   0  0  0  0  0  0  0  0  0  0  0  0
   62.8680   32.6410   48.3590 N   0  0  0  0  0  0  0  0  0  0  0  0
   63.5020   33.6500   47.5070 C   0  0  0  0  0  0  0  0  0  0  0  0
   63.3450   32.2070   49.5250 N   0  0  0  0  0  0  0  0  0  0  0  0
   64.5430   32.6720   50.1720 C   0  0  0  0  0  0  0  0  0  0  0  0
   64.5080   33.8120   50.9910 C   0  0  0  0  0  0  0  0  0  0  0  0
   65.6740   34.2620   51.6210 C   0  0  0  0  0  0  0  0  0  0  0  0
   66.8770   33.5720   51.4430 C   0  0  0  0  0  0  0  0  0  0  0  0
   66.9150   32.4290   50.6380 C   0  0  0  0  0  0  0  0  0  0  0  0
   65.7520   31.9760   50.0060 C   0  0  0  0  0  0  0  0  0  0  0  0
   62.4970   31.2770   50.0100 C   0  0  0  0  0  0  0  0  0  0  0  0
   62.6450   30.6710   51.1050 O   0  0  0  0  0  0  0  0  0  0  0  0
   58.4240   28.3180   47.0130 C   0  0  0  0  0  0  0  0  0  0  0  0
   55.4420   23.4740   46.1100 C   0  0  0  0  0  0  0  0  0  0  0  0
   55.1410   22.2350   45.5060 C   0  0  0  0  0  0  0  0  0  0  0  0
   53.8790   21.6320   45.6360 O   0  0  0  0  0  0  0  0  0  0  0  0
   52.8410   22.1090   46.4860 C   0  0  0  0  0  0  0  0  0  0  0  0
   55.8620   19.2459   45.9019 H   0  0  0  0  0  0  0  0  0  0  0  0
   55.0120   18.4681   44.5237 H   0  0  0  0  0  0  0  0  0  0  0  0
   56.8046   18.5835   44.5237 H   0  0  0  0  0  0  0  0  0  0  0  0
   58.1624   21.6501   43.9986 H   0  0  0  0  0  0  0  0  0  0  0  0
   58.6696   23.8519   45.0463 H   0  0  0  0  0  0  0  0  0  0  0  0
   56.8555   25.3716   47.6279 H   0  0  0  0  0  0  0  0  0  0  0  0
   58.0342   25.6805   46.2814 H   0  0  0  0  0  0  0  0  0  0  0  0
   58.5175   28.3427   43.5921 H   0  0  0  0  0  0  0  0  0  0  0  0
   60.7810   29.2734   44.0616 H   0  0  0  0  0  0  0  0  0  0  0  0
   61.5458   29.5887   46.4128 H   0  0  0  0  0  0  0  0  0  0  0  0
   59.8171   32.6277   47.2859 H   0  0  0  0  0  0  0  0  0  0  0  0
   61.2551   33.1020   46.3195 H   0  0  0  0  0  0  0  0  0  0  0  0
   60.6963   31.3949   46.3195 H   0  0  0  0  0  0  0  0  0  0  0  0
   63.9816   34.4133   48.1374 H   0  0  0  0  0  0  0  0  0  0  0  0
   64.2607   33.1694   46.8719 H   0  0  0  0  0  0  0  0  0  0  0  0
   62.7398   34.1250   46.8719 H   0  0  0  0  0  0  0  0  0  0  0  0
   63.5615   34.3529   51.1379 H   0  0  0  0  0  0  0  0  0  0  0  0
   65.6439   35.1592   52.2567 H   0  0  0  0  0  0  0  0  0  0  0  0
   67.7935   33.9282   51.9361 H   0  0  0  0  0  0  0  0  0  0  0  0
   67.8613   31.8850   50.5015 H   0  0  0  0  0  0  0  0  0  0  0  0
   65.7842   31.0734   49.3781 H   0  0  0  0  0  0  0  0  0  0  0  0
   57.7575   28.0459   47.8447 H   0  0  0  0  0  0  0  0  0  0  0  0
   54.6759   23.9895   46.7078 H   0  0  0  0  0  0  0  0  0  0  0  0
   53.1362   21.9733   47.5369 H   0  0  0  0  0  0  0  0  0  0  0  0
   52.6675   23.1772   46.2889 H   0  0  0  0  0  0  0  0  0  0  0  0
   51.9174   21.5450   46.2889 H   0  0  0  0  0  0  0  0  0  0  0  0
  1  2  1  0
  2  3  1  0
  3  4  2  0
  4  5  1  0
  5  6  2  0
  6  7  1  0
  7  8  1  0
  8  9  2  0
  8 10  1  0
 10 11  1  0
 11 12  2  0
 12 13  1  0
 13 14  2  0
 14 15  1  0
 15 16  1  0
 16 17  2  0
 16 18  1  0
 18 19  1  0
 19 20  2  0
 20 21  1  0
 20 22  1  0
 22 23  1  0
 22 24  1  0
 24 25  1  0
 25 26  2  0
 26 27  1  0
 27 28  2  0
 28 29  1  0
 29 30  2  0
 24 31  1  0
 31 32  2  0
 15 33  2  0
  6 34  1  0
 34 35  2  0
 35 36  1  0
 36 37  1  0
 35  3  1  0
 33 11  1  0
 31 19  1  0
 30 25  1  0
  1 38  1  0
  1 39  1  0
  1 40  1  0
  4 41  1  0
  5 42  1  0
  7 43  1  0
  7 44  1  0
 12 45  1  0
 13 46  1  0
 14 47  1  0
 21 48  1  0
 21 49  1  0
 21 50  1  0
 23 51  1  0
 23 52  1  0
 23 53  1  0
 26 54  1  0
 27 55  1  0
 28 56  1  0
 29 57  1  0
 30 58  1  0
 33 59  1  0
 34 60  1  0
 37 61  1  0
 37 62  1  0
 37 63  1  0
M  CHG  2  10  -1  18  -1
M  END
>  <UniqueID>  (44) 
44

>  <SMILES>  (44) 
COc1ccc(CC(=O)[N-]c2cccc(C(=O)[N-]c3c(C)n(C)n(-c4ccccc4)c3=O)c2)cc1OC

>  <Energy>  (44) 
115.0231790628021

>  <Genealogy>  (44) 
COc1ccc(CC(=O)[N-]c2cccc(C(=O)[N-]c3c(C)n(C)n(-c4ccccc4)c3=O)c2)cc1OC (protonated)
COc1ccc(CC(=O)[N-]c2cccc(C(=O)[N-]c3c(C)n(C)n(-c4ccccc4)c3=O)c2)cc1OC (3D coordinates assigned)
COc1ccc(CC(=O)[N-]c2cccc(C(=O)[N-]c3c(C)n(C)n(-c4ccccc4)c3=O)c2)cc1OC (optimized conformer: 115.0231790628021 kcal/mol)

>  <smiles>  (44) 
COc1ccc(CC(=O)Nc2cccc(C(=O)Nc3c(C)n(C)n(-c4ccccc4)c3=O)c2)cc1OC

>  <score_type>  (44) 
oracle

>  <origin>  (44) 
adg

>  <m_score__min__energy>  (44) 
-12.42

>  <m_primary>  (44) 
energy

$$$$
44:0
     RDKit          3D

 42 44  0  0  0  0  0  0  0  0999 V2000
   54.9150   26.3520   45.9980 N   0  0  0  0  0  0  0  0  0  0  0  0
   56.3600   25.4370   46.2460 S   0  0  0  0  0  0  0  0  0  0  0  0
   56.4760   24.3910   45.1740 O   0  0  0  0  0  0  0  0  0  0  0  0
   56.3010   24.7530   47.5840 O   0  0  0  0  0  0  0  0  0  0  0  0
   57.7530   26.5120   46.1970 C   0  0  0  0  0  0  0  0  0  0  0  0
   58.2170   27.0250   44.9770 C   0  0  0  0  0  0  0  0  0  0  0  0
   59.3310   27.8680   44.9490 C   0  0  0  0  0  0  0  0  0  0  0  0
   59.9900   28.1990   46.1360 C   0  0  0  0  0  0  0  0  0  0  0  0
   59.5340   27.6930   47.3640 C   0  0  0  0  0  0  0  0  0  0  0  0
   60.2790   28.0040   48.6370 C   0  0  0  0  0  0  0  0  0  0  0  0
   59.9790   29.4180   49.1550 C   0  0  0  0  0  0  0  0  0  0  0  0
   59.8650   30.3790   48.0560 N   0  0  0  0  0  0  0  0  0  0  0  0
   58.9880   31.5150   48.1020 C   0  0  0  0  0  0  0  0  0  0  0  0
   58.3550   31.7810   49.1600 O   0  0  0  0  0  0  0  0  0  0  0  0
   58.8790   32.4400   46.9490 C   0  0  0  0  0  0  0  0  0  0  0  0
   59.3130   33.7640   47.1340 C   0  0  0  0  0  0  0  0  0  0  0  0
   59.2730   34.6850   46.0890 C   0  0  0  0  0  0  0  0  0  0  0  0
   58.7880   34.3080   44.8400 C   0  0  0  0  0  0  0  0  0  0  0  0
   58.3230   33.0040   44.6260 C   0  0  0  0  0  0  0  0  0  0  0  0
   57.8100   32.6450   43.3690 C   0  0  0  0  0  0  0  0  0  0  0  0
   57.3120   31.3600   43.1550 C   0  0  0  0  0  0  0  0  0  0  0  0
   57.3170   30.4260   44.1890 C   0  0  0  0  0  0  0  0  0  0  0  0
   57.8290   30.7660   45.4430 C   0  0  0  0  0  0  0  0  0  0  0  0
   58.3550   32.0530   45.6830 C   0  0  0  0  0  0  0  0  0  0  0  0
   58.4010   26.8630   47.3870 C   0  0  0  0  0  0  0  0  0  0  0  0
   55.1700   27.3600   46.1030 H   0  0  0  0  0  0  0  0  0  0  0  0
   57.7030   26.7632   44.0404 H   0  0  0  0  0  0  0  0  0  0  0  0
   59.6899   28.2718   43.9908 H   0  0  0  0  0  0  0  0  0  0  0  0
   60.8697   28.8588   46.1083 H   0  0  0  0  0  0  0  0  0  0  0  0
   59.9847   27.2752   49.4065 H   0  0  0  0  0  0  0  0  0  0  0  0
   61.3559   27.9455   48.4205 H   0  0  0  0  0  0  0  0  0  0  0  0
   59.0319   29.4004   49.7142 H   0  0  0  0  0  0  0  0  0  0  0  0
   60.8105   29.7318   49.8031 H   0  0  0  0  0  0  0  0  0  0  0  0
   60.5320   30.2910   47.2560 H   0  0  0  0  0  0  0  0  0  0  0  0
   59.6899   34.0779   48.1186 H   0  0  0  0  0  0  0  0  0  0  0  0
   59.6261   35.7140   46.2518 H   0  0  0  0  0  0  0  0  0  0  0  0
   58.7697   35.0376   44.0169 H   0  0  0  0  0  0  0  0  0  0  0  0
   57.8009   33.3798   42.5504 H   0  0  0  0  0  0  0  0  0  0  0  0
   56.9143   31.0831   42.1675 H   0  0  0  0  0  0  0  0  0  0  0  0
   56.9159   29.4163   44.0168 H   0  0  0  0  0  0  0  0  0  0  0  0
   57.8221   30.0218   46.2530 H   0  0  0  0  0  0  0  0  0  0  0  0
   58.0201   26.4860   48.3476 H   0  0  0  0  0  0  0  0  0  0  0  0
  1  2  1  0
  2  3  2  0
  2  4  2  0
  2  5  1  0
  5  6  2  0
  6  7  1  0
  7  8  2  0
  8  9  1  0
  9 10  1  0
 10 11  1  0
 11 12  1  0
 12 13  1  0
 13 14  2  0
 13 15  1  0
 15 16  2  0
 16 17  1  0
 17 18  2  0
 18 19  1  0
 19 20  2  0
 20 21  1  0
 21 22  2  0
 22 23  1  0
 23 24  2  0
  9 25  2  0
 25  5  1  0
 24 15  1  0
 24 19  1  0
  1 26  1  0
  6 27  1  0
  7 28  1  0
  8 29  1  0
 10 30  1  0
 10 31  1  0
 11 32  1  0
 11 33  1  0
 12 34  1  0
 16 35  1  0
 17 36  1  0
 18 37  1  0
 20 38  1  0
 21 39  1  0
 22 40  1  0
 23 41  1  0
 25 42  1  0
M  CHG  1   1  -1
M  END
>  <UniqueID>  (45) 
45

>  <SMILES>  (45) 
[NH-]S(=O)(=O)c1cccc(CCNC(=O)c2cccc3ccccc23)c1

>  <Energy>  (45) 
48.48169887575897

>  <Genealogy>  (45) 
[NH-]S(=O)(=O)c1cccc(CCNC(=O)c2cccc3ccccc23)c1 (protonated)
[NH-]S(=O)(=O)c1cccc(CCNC(=O)c2cccc3ccccc23)c1 (3D coordinates assigned)
[NH-]S(=O)(=O)c1cccc(CCNC(=O)c2cccc3ccccc23)c1 (optimized conformer: 48.48169887575897 kcal/mol)

>  <smiles>  (45) 
NS(=O)(=O)c1cccc(CCNC(=O)c2cccc3ccccc23)c1

>  <score_type>  (45) 
oracle

>  <origin>  (45) 
adg

>  <m_score__min__energy>  (45) 
-11.91

>  <m_primary>  (45) 
energy

$$$$
45:0
     RDKit          3D

 41 43  0  0  0  0  0  0  0  0999 V2000
   58.7890   29.3440   49.9360 O   0  0  0  0  0  0  0  0  0  0  0  0
   59.2780   29.4440   48.7820 C   0  0  0  0  0  0  0  0  0  0  0  0
   59.8530   30.6940   48.3810 N   0  0  0  0  0  0  0  0  0  0  0  0
   60.3750   31.0880   46.7710 S   0  0  0  0  0  0  0  0  0  0  0  0
   61.4680   30.1360   46.3770 O   0  0  0  0  0  0  0  0  0  0  0  0
   60.9230   32.4860   46.7720 O   0  0  0  0  0  0  0  0  0  0  0  0
   59.0190   31.0250   45.6310 C   0  0  0  0  0  0  0  0  0  0  0  0
   58.8670   29.8860   44.8240 C   0  0  0  0  0  0  0  0  0  0  0  0
   57.8300   29.8080   43.8920 C   0  0  0  0  0  0  0  0  0  0  0  0
   56.9160   30.8550   43.7740 C   0  0  0  0  0  0  0  0  0  0  0  0
   57.0290   31.9740   44.6000 C   0  0  0  0  0  0  0  0  0  0  0  0
   58.0690   32.0680   45.5320 C   0  0  0  0  0  0  0  0  0  0  0  0
   58.1110   33.4850   46.5740 Cl  0  0  0  0  0  0  0  0  0  0  0  0
   59.2060   28.2840   47.8730 C   0  0  0  0  0  0  0  0  0  0  0  0
   60.3350   27.4730   47.6880 C   0  0  0  0  0  0  0  0  0  0  0  0
   60.2730   26.3670   46.8370 C   0  0  0  0  0  0  0  0  0  0  0  0
   59.0890   26.0720   46.1560 C   0  0  0  0  0  0  0  0  0  0  0  0
   57.9550   26.8790   46.3320 C   0  0  0  0  0  0  0  0  0  0  0  0
   56.7480   26.6190   45.6130 N   0  0  0  0  0  0  0  0  0  0  0  0
   55.7370   25.2440   45.9140 S   0  0  0  0  0  0  0  0  0  0  0  0
   55.8940   24.8270   47.3490 O   0  0  0  0  0  0  0  0  0  0  0  0
   54.3020   25.6320   45.6910 O   0  0  0  0  0  0  0  0  0  0  0  0
   56.1430   23.8870   44.8560 C   0  0  0  0  0  0  0  0  0  0  0  0
   57.4700   23.4500   44.7730 C   0  0  0  0  0  0  0  0  0  0  0  0
   57.8110   22.4020   43.9160 C   0  0  0  0  0  0  0  0  0  0  0  0
   56.8160   21.7980   43.1480 C   0  0  0  0  0  0  0  0  0  0  0  0
   55.5310   22.2330   43.2340 N   0  0  0  0  0  0  0  0  0  0  0  0
   55.1720   23.2540   44.0580 C   0  0  0  0  0  0  0  0  0  0  0  0
   53.9700   23.6290   44.0860 O   0  0  0  0  0  0  0  0  0  0  0  0
   58.0280   27.9990   47.1680 C   0  0  0  0  0  0  0  0  0  0  0  0
   59.5713   29.0474   44.9269 H   0  0  0  0  0  0  0  0  0  0  0  0
   57.7338   28.9198   43.2502 H   0  0  0  0  0  0  0  0  0  0  0  0
   56.1071   30.7987   43.0307 H   0  0  0  0  0  0  0  0  0  0  0  0
   56.2947   32.7889   44.5180 H   0  0  0  0  0  0  0  0  0  0  0  0
   61.2718   27.7084   48.2144 H   0  0  0  0  0  0  0  0  0  0  0  0
   61.1577   25.7272   46.7027 H   0  0  0  0  0  0  0  0  0  0  0  0
   59.0460   25.2050   45.4804 H   0  0  0  0  0  0  0  0  0  0  0  0
   58.2461   23.9334   45.3845 H   0  0  0  0  0  0  0  0  0  0  0  0
   58.8531   22.0565   43.8473 H   0  0  0  0  0  0  0  0  0  0  0  0
   57.0712   20.9687   42.4719 H   0  0  0  0  0  0  0  0  0  0  0  0
   57.1552   28.6603   47.2727 H   0  0  0  0  0  0  0  0  0  0  0  0
  1  2  2  0
  2  3  1  0
  3  4  1  0
  4  5  2  0
  4  6  2  0
  4  7  1  0
  7  8  2  0
  8  9  1  0
  9 10  2  0
 10 11  1  0
 11 12  2  0
 12 13  1  0
  2 14  1  0
 14 15  2  0
 15 16  1  0
 16 17  2  0
 17 18  1  0
 18 19  1  0
 19 20  1  0
 20 21  2  0
 20 22  2  0
 20 23  1  0
 23 24  2  0
 24 25  1  0
 25 26  2  0
 26 27  1  0
 27 28  1  0
 28 29  2  0
 18 30  2  0
 12  7  1  0
 30 14  1  0
 28 23  1  0
  8 31  1  0
  9 32  1  0
 10 33  1  0
 11 34  1  0
 15 35  1  0
 16 36  1  0
 17 37  1  0
 24 38  1  0
 25 39  1  0
 26 40  1  0
 30 41  1  0
M  CHG  3   3  -1  19  -1  27  -1
M  END
>  <UniqueID>  (46) 
46

>  <SMILES>  (46) 
O=C([N-]S(=O)(=O)c1ccccc1Cl)c1cccc([N-]S(=O)(=O)c2ccc[n-]c2=O)c1

>  <Energy>  (46) 
61.23743613025817

>  <Genealogy>  (46) 
O=C([N-]S(=O)(=O)c1ccccc1Cl)c1cccc([N-]S(=O)(=O)c2ccc[n-]c2=O)c1 (protonated)
O=C([N-]S(=O)(=O)c1ccccc1Cl)c1cccc([N-]S(=O)(=O)c2ccc[n-]c2=O)c1 (3D coordinates assigned)
O=C([N-]S(=O)(=O)c1ccccc1Cl)c1cccc([N-]S(=O)(=O)c2ccc[n-]c2=O)c1 (optimized conformer: 61.23743613025817 kcal/mol)

>  <smiles>  (46) 
O=C(NS(=O)(=O)c1ccccc1Cl)c1cccc(NS(=O)(=O)c2ccc[nH]c2=O)c1

>  <score_type>  (46) 
oracle

>  <origin>  (46) 
adg

>  <m_score__min__energy>  (46) 
-14.56

>  <m_primary>  (46) 
energy

$$$$
46:0
     RDKit          3D

 55 58  0  0  0  0  0  0  0  0999 V2000
   50.6140   33.1110   52.0550 O   0  0  0  0  0  0  0  0  0  0  0  0
   51.2720   32.3370   51.3100 C   0  0  0  0  0  0  0  0  0  0  0  0
   51.0200   32.3410   49.9420 O   0  0  0  0  0  0  0  0  0  0  0  0
   52.2990   31.4370   51.8790 C   0  0  0  0  0  0  0  0  0  0  0  0
   53.3270   30.9180   51.0730 C   0  0  0  0  0  0  0  0  0  0  0  0
   54.2950   30.0700   51.6180 C   0  0  0  0  0  0  0  0  0  0  0  0
   54.2630   29.7390   52.9770 C   0  0  0  0  0  0  0  0  0  0  0  0
   55.2650   28.8550   53.5010 N   0  0  0  0  0  0  0  0  0  0  0  0
   56.6700   28.9180   53.2220 C   0  0  0  0  0  0  0  0  0  0  0  0
   57.4050   27.9710   53.6100 O   0  0  0  0  0  0  0  0  0  0  0  0
   57.2770   30.0310   52.4640 C   0  0  0  0  0  0  0  0  0  0  0  0
   57.3260   31.3360   52.9780 C   0  0  0  0  0  0  0  0  0  0  0  0
   57.9080   32.3500   52.2180 C   0  0  0  0  0  0  0  0  0  0  0  0
   58.4100   32.0730   50.9450 C   0  0  0  0  0  0  0  0  0  0  0  0
   58.9680   33.0990   50.1910 O   0  0  0  0  0  0  0  0  0  0  0  0
   58.3160   30.7630   50.4400 C   0  0  0  0  0  0  0  0  0  0  0  0
   58.7760   30.4170   49.0760 C   0  0  0  0  0  0  0  0  0  0  0  0
   58.8380   31.3090   48.1900 O   0  0  0  0  0  0  0  0  0  0  0  0
   59.2200   29.0910   48.7510 N   0  0  0  0  0  0  0  0  0  0  0  0
   58.9510   28.3900   47.5280 C   0  0  0  0  0  0  0  0  0  0  0  0
   59.7670   28.6230   46.4140 C   0  0  0  0  0  0  0  0  0  0  0  0
   59.5410   27.9360   45.2170 C   0  0  0  0  0  0  0  0  0  0  0  0
   58.4910   27.0190   45.1220 C   0  0  0  0  0  0  0  0  0  0  0  0
   57.6460   26.8020   46.2190 C   0  0  0  0  0  0  0  0  0  0  0  0
   56.3460   25.6170   46.1360 S   0  0  0  0  0  0  0  0  0  0  0  0
   56.2950   24.8640   47.4370 O   0  0  0  0  0  0  0  0  0  0  0  0
   55.0280   26.3140   45.9350 O   0  0  0  0  0  0  0  0  0  0  0  0
   56.6630   24.5130   44.8210 N   0  0  0  0  0  0  0  0  0  0  0  0
   55.3950   24.0970   44.1970 C   0  0  0  0  0  0  0  0  0  0  0  0
   55.6580   23.0540   43.0900 C   0  0  0  0  0  0  0  0  0  0  0  0
   57.0350   22.7460   42.9720 O   0  0  0  0  0  0  0  0  0  0  0  0
   57.5200   22.2680   44.2100 C   0  0  0  0  0  0  0  0  0  0  0  0
   57.3950   23.3370   45.3170 C   0  0  0  0  0  0  0  0  0  0  0  0
   57.8680   27.4990   47.4120 C   0  0  0  0  0  0  0  0  0  0  0  0
   57.7600   29.7910   51.2150 N   0  0  0  0  0  0  0  0  0  0  0  0
   53.2280   30.2390   53.7830 C   0  0  0  0  0  0  0  0  0  0  0  0
   52.2570   31.0850   53.2400 C   0  0  0  0  0  0  0  0  0  0  0  0
   53.3699   31.1811   50.0058 H   0  0  0  0  0  0  0  0  0  0  0  0
   55.0872   29.6601   50.9743 H   0  0  0  0  0  0  0  0  0  0  0  0
   56.9090   31.5570   53.9716 H   0  0  0  0  0  0  0  0  0  0  0  0
   57.9718   33.3709   52.6226 H   0  0  0  0  0  0  0  0  0  0  0  0
   60.5898   29.3500   46.4808 H   0  0  0  0  0  0  0  0  0  0  0  0
   60.1911   28.1179   44.3485 H   0  0  0  0  0  0  0  0  0  0  0  0
   58.3273   26.4666   44.1849 H   0  0  0  0  0  0  0  0  0  0  0  0
   54.7414   23.6552   44.9636 H   0  0  0  0  0  0  0  0  0  0  0  0
   54.9109   24.9779   43.7501 H   0  0  0  0  0  0  0  0  0  0  0  0
   55.1068   22.1330   43.3308 H   0  0  0  0  0  0  0  0  0  0  0  0
   55.3203   23.4792   42.1334 H   0  0  0  0  0  0  0  0  0  0  0  0
   56.9396   21.3806   44.5028 H   0  0  0  0  0  0  0  0  0  0  0  0
   58.5844   22.0176   44.0904 H   0  0  0  0  0  0  0  0  0  0  0  0
   56.8535   22.9089   46.1735 H   0  0  0  0  0  0  0  0  0  0  0  0
   58.4041   23.6504   45.6229 H   0  0  0  0  0  0  0  0  0  0  0  0
   57.1907   27.3492   48.2657 H   0  0  0  0  0  0  0  0  0  0  0  0
   53.1810   29.9636   54.8469 H   0  0  0  0  0  0  0  0  0  0  0  0
   51.4545   31.4782   53.8814 H   0  0  0  0  0  0  0  0  0  0  0  0
  1  2  2  0
  2  3  1  0
  2  4  1  0
  4  5  2  0
  5  6  1  0
  6  7  2  0
  7  8  1  0
  8  9  1  0
  9 10  2  0
  9 11  1  0
 11 12  2  0
 12 13  1  0
 13 14  2  0
 14 15  1  0
 14 16  1  0
 16 17  1  0
 17 18  2  0
 17 19  1  0
 19 20  1  0
 20 21  2  0
 21 22  1  0
 22 23  2  0
 23 24  1  0
 24 25  1  0
 25 26  2  0
 25 27  2  0
 25 28  1  0
 28 29  1  0
 29 30  1  0
 30 31  1  0
 31 32  1  0
 32 33  1  0
 24 34  2  0
 16 35  2  0
  7 36  1  0
 36 37  2  0
 37  4  1  0
 35 11  1  0
 34 20  1  0
 33 28  1  0
  5 38  1  0
  6 39  1  0
 12 40  1  0
 13 41  1  0
 21 42  1  0
 22 43  1  0
 23 44  1  0
 29 45  1  0
 29 46  1  0
 30 47  1  0
 30 48  1  0
 32 49  1  0
 32 50  1  0
 33 51  1  0
 33 52  1  0
 34 53  1  0
 36 54  1  0
 37 55  1  0
M  CHG  4   3  -1   8  -1  15  -1  19  -1
M  END
>  <UniqueID>  (47) 
47

>  <SMILES>  (47) 
O=C([O-])c1ccc([N-]C(=O)c2ccc([O-])c(C(=O)[N-]c3cccc(S(=O)(=O)N4CCOCC4)c3)n2)cc1

>  <Energy>  (47) 
76.58182550451784

>  <Genealogy>  (47) 
O=C([O-])c1ccc([N-]C(=O)c2ccc([O-])c(C(=O)[N-]c3cccc(S(=O)(=O)N4CCOCC4)c3)n2)cc1 (protonated)
O=C([O-])c1ccc([N-]C(=O)c2ccc([O-])c(C(=O)[N-]c3cccc(S(=O)(=O)N4CCOCC4)c3)n2)cc1 (3D coordinates assigned)
O=C([O-])c1ccc([N-]C(=O)c2ccc([O-])c(C(=O)[N-]c3cccc(S(=O)(=O)N4CCOCC4)c3)n2)cc1 (nonaromatic ring conformer: 76.58182550451784 kcal/mol)

>  <smiles>  (47) 
O=C(O)c1ccc(NC(=O)c2ccc(O)c(C(=O)Nc3cccc(S(=O)(=O)N4CCOCC4)c3)n2)cc1

>  <score_type>  (47) 
oracle

>  <origin>  (47) 
adg

>  <m_score__min__energy>  (47) 
-16.600000000000001

>  <m_primary>  (47) 
energy

$$$$
47:0
     RDKit          3D

 55 58  0  0  0  0  0  0  0  0999 V2000
   55.1040   26.6140   45.9850 O   0  0  0  0  0  0  0  0  0  0  0  0
   56.3310   26.7680   45.7510 C   0  0  0  0  0  0  0  0  0  0  0  0
   57.1520   25.6000   45.6150 N   0  0  0  0  0  0  0  0  0  0  0  0
   56.8480   24.4300   44.8400 C   0  0  0  0  0  0  0  0  0  0  0  0
   57.0350   24.4370   43.4450 C   0  0  0  0  0  0  0  0  0  0  0  0
   56.7270   23.3120   42.6810 C   0  0  0  0  0  0  0  0  0  0  0  0
   56.2420   22.1610   43.2980 C   0  0  0  0  0  0  0  0  0  0  0  0
   56.0680   22.1280   44.6830 C   0  0  0  0  0  0  0  0  0  0  0  0
   56.3760   23.2520   45.4750 C   0  0  0  0  0  0  0  0  0  0  0  0
   56.1670   23.1760   46.9440 C   0  0  0  0  0  0  0  0  0  0  0  0
   57.1620   23.0050   47.7040 O   0  0  0  0  0  0  0  0  0  0  0  0
   54.8490   23.3270   47.4990 N   0  0  0  0  0  0  0  0  0  0  0  0
   53.7260   23.2140   46.8540 C   0  0  0  0  0  0  0  0  0  0  0  0
   52.7730   22.2950   47.1310 N   0  0  0  0  0  0  0  0  0  0  0  0
   51.7150   22.4060   46.2830 C   0  0  0  0  0  0  0  0  0  0  0  0
   51.8270   23.4130   45.3290 C   0  0  0  0  0  0  0  0  0  0  0  0
   53.3050   24.1880   45.5540 S   0  0  0  0  0  0  0  0  0  0  0  0
   56.8680   28.1360   45.5590 C   0  0  0  0  0  0  0  0  0  0  0  0
   57.9920   28.5810   46.2750 C   0  0  0  0  0  0  0  0  0  0  0  0
   58.5000   29.8670   46.0740 C   0  0  0  0  0  0  0  0  0  0  0  0
   57.9240   30.7230   45.1190 C   0  0  0  0  0  0  0  0  0  0  0  0
   58.4790   32.1230   44.8950 C   0  0  0  0  0  0  0  0  0  0  0  0
   59.3020   32.6630   46.0170 N   0  0  2  0  0  0  0  0  0  0  0  0
   58.5090   32.8390   47.2590 C   0  0  0  0  0  0  0  0  0  0  0  0
   59.1560   33.8380   48.2440 C   0  0  0  0  0  0  0  0  0  0  0  0
   60.5930   33.4770   48.6630 C   0  0  0  0  0  0  0  0  0  0  0  0
   61.5990   33.2530   47.5170 C   0  0  0  0  0  0  0  0  0  0  0  0
   61.3850   34.1510   46.2980 C   0  0  0  0  0  0  0  0  0  0  0  0
   60.0410   33.8720   45.6770 C   0  0  0  0  0  0  0  0  0  0  0  0
   59.5850   34.6960   44.8990 O   0  0  0  0  0  0  0  0  0  0  0  0
   56.7830   30.2870   44.4230 C   0  0  0  0  0  0  0  0  0  0  0  0
   56.2690   29.0040   44.6300 C   0  0  0  0  0  0  0  0  0  0  0  0
   57.4280   25.3388   42.9527 H   0  0  0  0  0  0  0  0  0  0  0  0
   56.8671   23.3333   41.5902 H   0  0  0  0  0  0  0  0  0  0  0  0
   55.9956   21.2762   42.6927 H   0  0  0  0  0  0  0  0  0  0  0  0
   55.6861   21.2140   45.1613 H   0  0  0  0  0  0  0  0  0  0  0  0
   50.8357   21.7482   46.3467 H   0  0  0  0  0  0  0  0  0  0  0  0
   51.0794   23.6600   44.5608 H   0  0  0  0  0  0  0  0  0  0  0  0
   58.4765   27.9109   47.0004 H   0  0  0  0  0  0  0  0  0  0  0  0
   59.3585   30.2129   46.6684 H   0  0  0  0  0  0  0  0  0  0  0  0
   59.1064   32.1007   43.9917 H   0  0  0  0  0  0  0  0  0  0  0  0
   57.6075   32.7882   44.8056 H   0  0  0  0  0  0  0  0  0  0  0  0
   60.0230   31.9250   46.1980 H   0  0  0  0  0  0  0  0  0  0  0  0
   57.5092   33.2093   46.9884 H   0  0  0  0  0  0  0  0  0  0  0  0
   58.4591   31.8621   47.7621 H   0  0  0  0  0  0  0  0  0  0  0  0
   59.1754   34.8287   47.7663 H   0  0  0  0  0  0  0  0  0  0  0  0
   58.5468   33.8157   49.1596 H   0  0  0  0  0  0  0  0  0  0  0  0
   60.9755   34.2956   49.2904 H   0  0  0  0  0  0  0  0  0  0  0  0
   60.5150   32.5093   49.1801 H   0  0  0  0  0  0  0  0  0  0  0  0
   62.6105   33.4392   47.9070 H   0  0  0  0  0  0  0  0  0  0  0  0
   61.4534   32.2187   47.1719 H   0  0  0  0  0  0  0  0  0  0  0  0
   61.4294   35.2048   46.6105 H   0  0  0  0  0  0  0  0  0  0  0  0
   62.1724   33.9458   45.5578 H   0  0  0  0  0  0  0  0  0  0  0  0
   56.2899   30.9624   43.7084 H   0  0  0  0  0  0  0  0  0  0  0  0
   55.3884   28.6708   44.0612 H   0  0  0  0  0  0  0  0  0  0  0  0
  1  2  2  0
  2  3  1  0
  3  4  1  0
  4  5  2  0
  5  6  1  0
  6  7  2  0
  7  8  1  0
  8  9  2  0
  9 10  1  0
 10 11  2  0
 10 12  1  0
 12 13  2  3
 13 14  1  0
 14 15  1  0
 15 16  2  0
 16 17  1  0
  2 18  1  0
 18 19  2  0
 19 20  1  0
 20 21  2  0
 21 22  1  0
 22 23  1  0
 23 24  1  0
 24 25  1  0
 25 26  1  0
 26 27  1  0
 27 28  1  0
 28 29  1  0
 29 30  2  0
 21 31  1  0
 31 32  2  0
  9  4  1  0
 17 13  1  0
 32 18  1  0
 29 23  1  0
  5 33  1  0
  6 34  1  0
  7 35  1  0
  8 36  1  0
 15 37  1  0
 16 38  1  0
 19 39  1  0
 20 40  1  0
 22 41  1  0
 22 42  1  0
 23 43  1  1
 24 44  1  0
 24 45  1  0
 25 46  1  0
 25 47  1  0
 26 48  1  0
 26 49  1  0
 27 50  1  0
 27 51  1  0
 28 52  1  0
 28 53  1  0
 31 54  1  0
 32 55  1  0
M  CHG  3   3  -1  14  -1  23   1
M  END
>  <UniqueID>  (48) 
48

>  <SMILES>  (48) 
O=C([N-]c1ccccc1C(=O)N=c1[n-]ccs1)c1ccc(C[N@@H+]2CCCCCC2=O)cc1

>  <Energy>  (48) 
113.90119752232349

>  <Genealogy>  (48) 
O=C([N-]c1ccccc1C(=O)N=c1[n-]ccs1)c1ccc(C[NH+]2CCCCCC2=O)cc1 (protonated)
O=C([N-]c1ccccc1C(=O)N=c1[n-]ccs1)c1ccc(C[N@@H+]2CCCCCC2=O)cc1 (chirality)
O=C([N-]c1ccccc1C(=O)N=c1[n-]ccs1)c1ccc(C[N@@H+]2CCCCCC2=O)cc1 (3D coordinates assigned)
O=C([N-]c1ccccc1C(=O)N=c1[n-]ccs1)c1ccc(C[N@@H+]2CCCCCC2=O)cc1 (nonaromatic ring conformer: 113.90119752232349 kcal/mol)

>  <smiles>  (48) 
O=C(Nc1ccccc1C(=O)N=c1[nH]ccs1)c1ccc(CN2CCCCCC2=O)cc1

>  <score_type>  (48) 
oracle

>  <origin>  (48) 
adg

>  <m_score__min__energy>  (48) 
-9.4499999999999993

>  <m_primary>  (48) 
energy

$$$$
48:0
     RDKit          3D

 47 50  0  0  0  0  0  0  0  0999 V2000
   59.5440   22.2270   44.8450 C   0  0  0  0  0  0  0  0  0  0  0  0
   59.2360   23.0820   45.9380 O   0  0  0  0  0  0  0  0  0  0  0  0
   58.8730   24.4230   45.7770 C   0  0  0  0  0  0  0  0  0  0  0  0
   59.7860   25.4080   45.9960 N   0  0  0  0  0  0  0  0  0  0  0  0
   59.4930   26.7210   45.8160 C   0  0  0  0  0  0  0  0  0  0  0  0
   58.2160   27.1120   45.3860 C   0  0  0  0  0  0  0  0  0  0  0  0
   57.9080   28.5500   45.1750 C   0  0  0  0  0  0  0  0  0  0  0  0
   57.0250   28.9840   44.1530 C   0  0  0  0  0  0  0  0  0  0  0  0
   56.7580   30.3510   43.9880 C   0  0  0  0  0  0  0  0  0  0  0  0
   57.3820   31.2330   44.8600 C   0  0  0  0  0  0  0  0  0  0  0  0
   57.2560   32.5760   44.8730 N   0  0  0  0  0  0  0  0  0  0  0  0
   58.0580   32.9350   45.9100 C   0  0  0  0  0  0  0  0  0  0  0  0
   58.2680   34.2830   46.3420 N   0  0  0  0  0  0  0  0  0  0  0  0
   59.5290   34.9610   46.3350 C   0  0  0  0  0  0  0  0  0  0  0  0
   59.6670   36.0490   45.7100 O   0  0  0  0  0  0  0  0  0  0  0  0
   60.6690   34.3780   47.0650 C   0  0  0  0  0  0  0  0  0  0  0  0
   60.6360   34.2140   48.4610 C   0  0  0  0  0  0  0  0  0  0  0  0
   61.7390   33.6560   49.1130 C   0  0  0  0  0  0  0  0  0  0  0  0
   62.8590   33.2690   48.3770 C   0  0  0  0  0  0  0  0  0  0  0  0
   62.8600   33.4450   46.9930 C   0  0  0  0  0  0  0  0  0  0  0  0
   61.7780   33.9900   46.3740 N   0  0  0  0  0  0  0  0  0  0  0  0
   58.6460   31.8280   46.4990 C   0  0  0  0  0  0  0  0  0  0  0  0
   58.1990   30.7720   45.8130 N   0  0  0  0  0  0  0  0  0  0  0  0
   58.4750   29.4840   45.9970 N   0  0  0  0  0  0  0  0  0  0  0  0
   57.2620   26.1080   45.1460 C   0  0  0  0  0  0  0  0  0  0  0  0
   57.5730   24.7600   45.3630 C   0  0  0  0  0  0  0  0  0  0  0  0
   56.5730   23.7600   45.1160 N   0  0  0  0  0  0  0  0  0  0  0  0
   54.9440   23.9030   45.6990 S   0  0  0  0  0  0  0  0  0  0  0  0
   54.7350   22.9800   47.2070 C   0  0  0  0  0  0  0  0  0  0  0  0
   53.9800   23.4130   44.6550 O   0  0  0  0  0  0  0  0  0  0  0  0
   54.6560   25.3500   45.9880 O   0  0  0  0  0  0  0  0  0  0  0  0
   59.8937   21.2562   45.2261 H   0  0  0  0  0  0  0  0  0  0  0  0
   58.6433   22.0772   44.2315 H   0  0  0  0  0  0  0  0  0  0  0  0
   60.3333   22.6860   44.2315 H   0  0  0  0  0  0  0  0  0  0  0  0
   60.2619   27.4837   46.0085 H   0  0  0  0  0  0  0  0  0  0  0  0
   56.5491   28.2474   43.4890 H   0  0  0  0  0  0  0  0  0  0  0  0
   56.0810   30.7101   43.1989 H   0  0  0  0  0  0  0  0  0  0  0  0
   59.7497   34.5222   49.0350 H   0  0  0  0  0  0  0  0  0  0  0  0
   61.7240   33.5222   50.2047 H   0  0  0  0  0  0  0  0  0  0  0  0
   63.7318   32.8299   48.8823 H   0  0  0  0  0  0  0  0  0  0  0  0
   63.7368   33.1427   46.4015 H   0  0  0  0  0  0  0  0  0  0  0  0
   59.3377   31.8198   47.3543 H   0  0  0  0  0  0  0  0  0  0  0  0
   56.2607   26.3841   44.7839 H   0  0  0  0  0  0  0  0  0  0  0  0
   56.7300   23.0850   44.3350 H   0  0  0  0  0  0  0  0  0  0  0  0
   54.8860   23.6467   48.0688 H   0  0  0  0  0  0  0  0  0  0  0  0
   53.7190   22.5599   47.2419 H   0  0  0  0  0  0  0  0  0  0  0  0
   55.4709   22.1632   47.2419 H   0  0  0  0  0  0  0  0  0  0  0  0
  1  2  1  0
  2  3  1  0
  3  4  2  0
  4  5  1  0
  5  6  2  0
  6  7  1  0
  7  8  1  0
  8  9  2  0
  9 10  1  0
 10 11  2  0
 11 12  1  0
 12 13  1  0
 13 14  1  0
 14 15  2  0
 14 16  1  0
 16 17  2  0
 17 18  1  0
 18 19  2  0
 19 20  1  0
 20 21  2  0
 12 22  2  0
 22 23  1  0
 23 24  1  0
  6 25  1  0
 25 26  2  0
 26 27  1  0
 27 28  1  0
 28 29  1  0
 28 30  2  0
 28 31  2  0
 26  3  1  0
 24  7  2  0
 23 10  1  0
 21 16  1  0
  1 32  1  0
  1 33  1  0
  1 34  1  0
  5 35  1  0
  8 36  1  0
  9 37  1  0
 17 38  1  0
 18 39  1  0
 19 40  1  0
 20 41  1  0
 22 42  1  0
 25 43  1  0
 27 44  1  0
 29 45  1  0
 29 46  1  0
 29 47  1  0
M  CHG  1  13  -1
M  END
>  <UniqueID>  (49) 
49

>  <SMILES>  (49) 
COc1ncc(-c2ccc3nc([N-]C(=O)c4ccccn4)cn3n2)cc1NS(C)(=O)=O

>  <Energy>  (49) 
92.46852228309957

>  <Genealogy>  (49) 
COc1ncc(-c2ccc3nc([N-]C(=O)c4ccccn4)cn3n2)cc1NS(C)(=O)=O (protonated)
COc1ncc(-c2ccc3nc([N-]C(=O)c4ccccn4)cn3n2)cc1NS(C)(=O)=O (3D coordinates assigned)
COc1ncc(-c2ccc3nc([N-]C(=O)c4ccccn4)cn3n2)cc1NS(C)(=O)=O (optimized conformer: 92.46852228309957 kcal/mol)

>  <smiles>  (49) 
COc1ncc(-c2ccc3nc(NC(=O)c4ccccn4)cn3n2)cc1NS(C)(=O)=O

>  <score_type>  (49) 
oracle

>  <origin>  (49) 
adg

>  <m_score__min__energy>  (49) 
-9.8200000000000003

>  <m_primary>  (49) 
energy

$$$$
49:0
     RDKit          3D

 30 31  0  0  0  0  0  0  0  0999 V2000
   59.9080   34.1640   49.2510 C   0  0  0  0  0  0  0  0  0  0  0  0
   59.7650   34.2540   47.7640 C   0  0  0  0  0  0  0  0  0  0  0  0
   59.2980   35.3470   47.1270 N   0  0  0  0  0  0  0  0  0  0  0  0
   59.3880   35.0650   45.8130 C   0  0  0  0  0  0  0  0  0  0  0  0
   59.9210   33.8010   45.6660 C   0  0  0  0  0  0  0  0  0  0  0  0
   60.1580   33.3010   46.8930 N   0  0  0  0  0  0  0  0  0  0  0  0
   60.8710   31.7600   47.2520 S   0  0  0  0  0  0  0  0  0  0  0  0
   60.6560   31.4260   48.7010 O   0  0  0  0  0  0  0  0  0  0  0  0
   62.3480   31.8320   46.9800 O   0  0  0  0  0  0  0  0  0  0  0  0
   60.1160   30.5170   46.2620 C   0  0  0  0  0  0  0  0  0  0  0  0
   60.7850   29.3130   45.9970 C   0  0  0  0  0  0  0  0  0  0  0  0
   60.1790   28.3360   45.2030 C   0  0  0  0  0  0  0  0  0  0  0  0
   58.9060   28.5560   44.6690 C   0  0  0  0  0  0  0  0  0  0  0  0
   58.2330   29.7570   44.9260 C   0  0  0  0  0  0  0  0  0  0  0  0
   56.6260   30.0350   44.2630 S   0  0  0  0  0  0  0  0  0  0  0  0
   55.5190   28.9000   44.9500 N   0  0  0  0  0  0  0  0  0  0  0  0
   56.6540   29.8690   42.7690 O   0  0  0  0  0  0  0  0  0  0  0  0
   56.1790   31.4330   44.5860 O   0  0  0  0  0  0  0  0  0  0  0  0
   58.8370   30.7320   45.7320 C   0  0  0  0  0  0  0  0  0  0  0  0
   59.0709   34.6908   49.7324 H   0  0  0  0  0  0  0  0  0  0  0  0
   59.9007   33.1074   49.5568 H   0  0  0  0  0  0  0  0  0  0  0  0
   60.8575   34.6276   49.5568 H   0  0  0  0  0  0  0  0  0  0  0  0
   58.9510   36.2340   47.5560 H   0  0  0  0  0  0  0  0  0  0  0  0
   59.0863   35.7325   44.9924 H   0  0  0  0  0  0  0  0  0  0  0  0
   60.1181   33.2905   44.7118 H   0  0  0  0  0  0  0  0  0  0  0  0
   61.7875   29.1378   46.4146 H   0  0  0  0  0  0  0  0  0  0  0  0
   60.7047   27.3918   44.9977 H   0  0  0  0  0  0  0  0  0  0  0  0
   58.4317   27.7839   44.0454 H   0  0  0  0  0  0  0  0  0  0  0  0
   54.5850   29.3670   44.9830 H   0  0  0  0  0  0  0  0  0  0  0  0
   58.3046   31.6697   45.9492 H   0  0  0  0  0  0  0  0  0  0  0  0
  1  2  1  0
  2  3  2  0
  3  4  1  0
  4  5  2  0
  5  6  1  0
  6  7  1  0
  7  8  2  0
  7  9  2  0
  7 10  1  0
 10 11  2  0
 11 12  1  0
 12 13  2  0
 13 14  1  0
 14 15  1  0
 15 16  1  0
 15 17  2  0
 15 18  2  0
 14 19  2  0
  6  2  1  0
 19 10  1  0
  1 20  1  0
  1 21  1  0
  1 22  1  0
  3 23  1  0
  4 24  1  0
  5 25  1  0
 11 26  1  0
 12 27  1  0
 13 28  1  0
 16 29  1  0
 19 30  1  0
M  CHG  2   3   1  16  -1
M  END
>  <UniqueID>  (50) 
50

>  <SMILES>  (50) 
Cc1[nH+]ccn1S(=O)(=O)c1cccc(S([NH-])(=O)=O)c1

>  <Energy>  (50) 
60.43139419790584

>  <Genealogy>  (50) 
Cc1[nH+]ccn1S(=O)(=O)c1cccc(S([NH-])(=O)=O)c1 (protonated)
Cc1[nH+]ccn1S(=O)(=O)c1cccc(S([NH-])(=O)=O)c1 (3D coordinates assigned)
Cc1[nH+]ccn1S(=O)(=O)c1cccc(S([NH-])(=O)=O)c1 (optimized conformer: 60.43139419790584 kcal/mol)

>  <smiles>  (50) 
Cc1nccn1S(=O)(=O)c1cccc(S(N)(=O)=O)c1

>  <score_type>  (50) 
oracle

>  <origin>  (50) 
adg

>  <m_score__min__energy>  (50) 
-9.3200000000000003

>  <m_primary>  (50) 
energy

$$$$
50:0
     RDKit          3D

 31 32  0  0  0  0  0  0  0  0999 V2000
   55.1570   29.7520   44.6150 N   0  0  0  0  0  0  0  0  0  0  0  0
   56.8700   29.6300   44.8060 S   0  0  0  0  0  0  0  0  0  0  0  0
   57.5270   29.6760   43.4550 O   0  0  0  0  0  0  0  0  0  0  0  0
   57.3690   30.7880   45.6230 O   0  0  0  0  0  0  0  0  0  0  0  0
   57.2650   28.1150   45.6110 C   0  0  0  0  0  0  0  0  0  0  0  0
   58.5210   27.9420   46.2070 C   0  0  0  0  0  0  0  0  0  0  0  0
   58.8340   26.7390   46.8450 C   0  0  0  0  0  0  0  0  0  0  0  0
   57.8920   25.7100   46.9070 C   0  0  0  0  0  0  0  0  0  0  0  0
   56.6160   25.8840   46.3390 C   0  0  0  0  0  0  0  0  0  0  0  0
   55.6240   24.8470   46.3620 N   0  0  0  0  0  0  0  0  0  0  0  0
   54.3820   24.8350   45.6450 C   0  0  0  0  0  0  0  0  0  0  0  0
   53.6440   25.8560   45.6200 O   0  0  0  0  0  0  0  0  0  0  0  0
   53.9910   23.6390   44.8900 C   0  0  0  0  0  0  0  0  0  0  0  0
   53.0070   22.9570   45.2810 O   0  0  0  0  0  0  0  0  0  0  0  0
   54.7900   23.2200   43.7710 N   0  0  0  0  0  0  0  0  0  0  0  0
   55.9930   22.7160   43.7570 C   0  0  0  0  0  0  0  0  0  0  0  0
   57.0660   23.2510   44.5050 C   0  0  0  0  0  0  0  0  0  0  0  0
   58.3210   22.6420   44.4380 C   0  0  0  0  0  0  0  0  0  0  0  0
   58.5070   21.5090   43.6460 C   0  0  0  0  0  0  0  0  0  0  0  0
   57.4260   20.9930   42.9340 C   0  0  0  0  0  0  0  0  0  0  0  0
   56.2110   21.5980   43.0090 N   0  0  0  0  0  0  0  0  0  0  0  0
   56.3180   27.0830   45.6780 C   0  0  0  0  0  0  0  0  0  0  0  0
   54.7250   29.3510   45.4770 H   0  0  0  0  0  0  0  0  0  0  0  0
   59.2618   28.7544   46.1726 H   0  0  0  0  0  0  0  0  0  0  0  0
   59.8260   26.6020   47.3001 H   0  0  0  0  0  0  0  0  0  0  0  0
   58.1478   24.7610   47.4010 H   0  0  0  0  0  0  0  0  0  0  0  0
   56.9140   24.1399   45.1349 H   0  0  0  0  0  0  0  0  0  0  0  0
   59.1639   23.0564   45.0106 H   0  0  0  0  0  0  0  0  0  0  0  0
   59.4947   21.0288   43.5842 H   0  0  0  0  0  0  0  0  0  0  0  0
   57.5559   20.0958   42.3110 H   0  0  0  0  0  0  0  0  0  0  0  0
   55.3326   27.2159   45.2075 H   0  0  0  0  0  0  0  0  0  0  0  0
  1  2  1  0
  2  3  2  0
  2  4  2  0
  2  5  1  0
  5  6  2  0
  6  7  1  0
  7  8  2  0
  8  9  1  0
  9 10  1  0
 10 11  1  0
 11 12  2  0
 11 13  1  0
 13 14  2  0
 13 15  1  0
 15 16  2  3
 16 17  1  0
 17 18  2  0
 18 19  1  0
 19 20  2  0
 20 21  1  0
  9 22  2  0
 22  5  1  0
 21 16  1  0
  1 23  1  0
  6 24  1  0
  7 25  1  0
  8 26  1  0
 17 27  1  0
 18 28  1  0
 19 29  1  0
 20 30  1  0
 22 31  1  0
M  CHG  3   1  -1  10  -1  21  -1
M  END
>  <UniqueID>  (51) 
51

>  <SMILES>  (51) 
[NH-]S(=O)(=O)c1cccc([N-]C(=O)C(=O)N=c2cccc[n-]2)c1

>  <Energy>  (51) 
41.95633838273865

>  <Genealogy>  (51) 
[NH-]S(=O)(=O)c1cccc([N-]C(=O)C(=O)N=c2cccc[n-]2)c1 (protonated)
[NH-]S(=O)(=O)c1cccc([N-]C(=O)C(=O)N=c2cccc[n-]2)c1 (3D coordinates assigned)
[NH-]S(=O)(=O)c1cccc([N-]C(=O)C(=O)N=c2cccc[n-]2)c1 (optimized conformer: 41.95633838273865 kcal/mol)

>  <smiles>  (51) 
NS(=O)(=O)c1cccc(NC(=O)C(=O)N=c2cccc[nH]2)c1

>  <score_type>  (51) 
oracle

>  <origin>  (51) 
adg

>  <m_score__min__energy>  (51) 
-13.57

>  <m_primary>  (51) 
energy

$$$$
51:0
     RDKit          3D

 56 58  0  0  0  0  0  0  0  0999 V2000
   55.9160   25.8120   46.7180 N   0  0  0  0  0  0  0  0  0  0  0  0
   56.2140   24.9160   45.6390 C   0  0  0  0  0  0  0  0  0  0  0  0
   55.7440   23.5940   45.6960 C   0  0  0  0  0  0  0  0  0  0  0  0
   56.0750   22.6830   44.6890 C   0  0  0  0  0  0  0  0  0  0  0  0
   56.8870   23.0780   43.6250 C   0  0  0  0  0  0  0  0  0  0  0  0
   57.3610   24.3910   43.5580 C   0  0  0  0  0  0  0  0  0  0  0  0
   57.0140   25.3220   44.5470 C   0  0  0  0  0  0  0  0  0  0  0  0
   57.5050   26.6660   44.4350 N   0  0  0  0  0  0  0  0  0  0  0  0
   58.2550   27.2970   45.4820 C   0  0  0  0  0  0  0  0  0  0  0  0
   58.5210   26.6660   46.5420 O   0  0  0  0  0  0  0  0  0  0  0  0
   58.6950   28.7220   45.3410 C   0  0  0  0  0  0  0  0  0  0  0  0
   58.0380   29.6030   46.4110 C   0  0  0  0  0  0  0  0  0  0  0  0
   58.6390   29.3460   47.7260 N   0  0  0  0  0  0  0  0  0  0  0  0
   60.0630   29.7270   47.7860 C   0  0  0  0  0  0  0  0  0  0  0  0
   60.2390   30.9500   48.6900 C   0  0  0  0  0  0  0  0  0  0  0  0
   59.2310   30.9590   49.8110 C   0  0  0  0  0  0  0  0  0  0  0  0
   59.1790   29.8900   50.7210 C   0  0  0  0  0  0  0  0  0  0  0  0
   58.2260   29.8750   51.7410 C   0  0  0  0  0  0  0  0  0  0  0  0
   57.3110   30.9390   51.8720 C   0  0  0  0  0  0  0  0  0  0  0  0
   56.3120   30.9630   52.9000 N   0  0  0  0  0  0  0  0  0  0  0  0
   54.9520   29.8890   52.9860 S   0  0  0  0  0  0  0  0  0  0  0  0
   54.8740   29.2950   54.3640 O   0  0  0  0  0  0  0  0  0  0  0  0
   55.1260   28.7780   51.9880 O   0  0  0  0  0  0  0  0  0  0  0  0
   53.4770   30.7980   52.6720 C   0  0  0  0  0  0  0  0  0  0  0  0
   52.5050   30.9030   53.6760 C   0  0  0  0  0  0  0  0  0  0  0  0
   51.3390   31.6390   53.4520 C   0  0  0  0  0  0  0  0  0  0  0  0
   51.1380   32.2740   52.2240 C   0  0  0  0  0  0  0  0  0  0  0  0
   49.9810   33.0080   52.0030 O   0  0  0  0  0  0  0  0  0  0  0  0
   52.1040   32.1690   51.2170 C   0  0  0  0  0  0  0  0  0  0  0  0
   53.2700   31.4330   51.4380 C   0  0  0  0  0  0  0  0  0  0  0  0
   57.3690   32.0060   50.9670 C   0  0  0  0  0  0  0  0  0  0  0  0
   58.3150   32.0130   49.9370 C   0  0  0  0  0  0  0  0  0  0  0  0
   55.0000   26.3060   46.7870 H   0  0  0  0  0  0  0  0  0  0  0  0
   56.6460   26.0510   47.4260 H   0  0  0  0  0  0  0  0  0  0  0  0
   55.1121   23.2737   46.5375 H   0  0  0  0  0  0  0  0  0  0  0  0
   55.6945   21.6520   44.7353 H   0  0  0  0  0  0  0  0  0  0  0  0
   57.1539   22.3560   42.8392 H   0  0  0  0  0  0  0  0  0  0  0  0
   58.0104   24.6958   42.7241 H   0  0  0  0  0  0  0  0  0  0  0  0
   57.1400   27.2580   43.6530 H   0  0  0  0  0  0  0  0  0  0  0  0
   59.7881   28.7746   45.4518 H   0  0  0  0  0  0  0  0  0  0  0  0
   58.3929   29.0879   44.3486 H   0  0  0  0  0  0  0  0  0  0  0  0
   58.1818   30.6612   46.1474 H   0  0  0  0  0  0  0  0  0  0  0  0
   56.9646   29.3673   46.4572 H   0  0  0  0  0  0  0  0  0  0  0  0
   58.5660   28.3200   47.9210 H   0  0  0  0  0  0  0  0  0  0  0  0
   60.6481   28.8878   48.1902 H   0  0  0  0  0  0  0  0  0  0  0  0
   60.4146   29.9725   46.7730 H   0  0  0  0  0  0  0  0  0  0  0  0
   61.2514   30.9338   49.1199 H   0  0  0  0  0  0  0  0  0  0  0  0
   60.0860   31.8535   48.0815 H   0  0  0  0  0  0  0  0  0  0  0  0
   59.8940   29.0592   50.6292 H   0  0  0  0  0  0  0  0  0  0  0  0
   58.1891   29.0302   52.4446 H   0  0  0  0  0  0  0  0  0  0  0  0
   52.6607   30.4041   54.6439 H   0  0  0  0  0  0  0  0  0  0  0  0
   50.5787   31.7186   54.2430 H   0  0  0  0  0  0  0  0  0  0  0  0
   51.9445   32.6672   50.2494 H   0  0  0  0  0  0  0  0  0  0  0  0
   54.0269   31.3510   50.6440 H   0  0  0  0  0  0  0  0  0  0  0  0
   56.6650   32.8452   51.0670 H   0  0  0  0  0  0  0  0  0  0  0  0
   58.3405   32.8491   49.2226 H   0  0  0  0  0  0  0  0  0  0  0  0
  1  2  1  0
  2  3  2  0
  3  4  1  0
  4  5  2  0
  5  6  1  0
  6  7  2  0
  7  8  1  0
  8  9  1  0
  9 10  2  0
  9 11  1  0
 11 12  1  0
 12 13  1  0
 13 14  1  0
 14 15  1  0
 15 16  1  0
 16 17  2  0
 17 18  1  0
 18 19  2  0
 19 20  1  0
 20 21  1  0
 21 22  2  0
 21 23  2  0
 21 24  1  0
 24 25  2  0
 25 26  1  0
 26 27  2  0
 27 28  1  0
 27 29  1  0
 29 30  2  0
 19 31  1  0
 31 32  2  0
  7  2  1  0
 32 16  1  0
 30 24  1  0
  1 33  1  0
  1 34  1  0
  3 35  1  0
  4 36  1  0
  5 37  1  0
  6 38  1  0
  8 39  1  0
 11 40  1  0
 11 41  1  0
 12 42  1  0
 12 43  1  0
 13 44  1  0
 14 45  1  0
 14 46  1  0
 15 47  1  0
 15 48  1  0
 17 49  1  0
 18 50  1  0
 25 51  1  0
 26 52  1  0
 29 53  1  0
 30 54  1  0
 31 55  1  0
 32 56  1  0
M  CHG  2  20  -1  28  -1
M  END
>  <UniqueID>  (52) 
52

>  <SMILES>  (52) 
Nc1ccccc1NC(=O)CCNCCc1ccc([N-]S(=O)(=O)c2ccc([O-])cc2)cc1

>  <Energy>  (52) 
62.59588242075174

>  <Genealogy>  (52) 
Nc1ccccc1NC(=O)CCNCCc1ccc([N-]S(=O)(=O)c2ccc([O-])cc2)cc1 (protonated)
Nc1ccccc1NC(=O)CCNCCc1ccc([N-]S(=O)(=O)c2ccc([O-])cc2)cc1 (3D coordinates assigned)
Nc1ccccc1NC(=O)CCNCCc1ccc([N-]S(=O)(=O)c2ccc([O-])cc2)cc1 (optimized conformer: 62.59588242075174 kcal/mol)

>  <smiles>  (52) 
Nc1ccccc1NC(=O)CCNCCc1ccc(NS(=O)(=O)c2ccc(O)cc2)cc1

>  <score_type>  (52) 
oracle

>  <origin>  (52) 
adg

>  <m_score__min__energy>  (52) 
-13.57

>  <m_primary>  (52) 
energy

$$$$
52:0
     RDKit          3D

 54 57  0  0  0  0  0  0  0  0999 V2000
   55.1390   29.3540   44.7400 O   0  0  0  0  0  0  0  0  0  0  0  0
   56.2840   29.8320   44.5130 C   0  0  0  0  0  0  0  0  0  0  0  0
   57.2830   29.0330   43.7400 C   0  0  0  0  0  0  0  0  0  0  0  0
   57.8530   27.9500   44.6050 C   0  0  0  0  0  0  0  0  0  0  0  0
   58.4940   28.2820   45.7560 N   0  0  0  0  0  0  0  0  0  0  0  0
   58.9900   27.3180   46.5740 C   0  0  0  0  0  0  0  0  0  0  0  0
   59.6730   27.6740   47.7950 N   0  0  0  0  0  0  0  0  0  0  0  0
   60.6040   26.7220   48.4180 C   0  0  0  0  0  0  0  0  0  0  0  0
   60.7690   27.0310   49.9100 C   0  0  0  0  0  0  0  0  0  0  0  0
   61.0780   28.3950   50.1110 O   0  0  0  0  0  0  0  0  0  0  0  0
   59.9770   29.1900   49.7170 C   0  0  0  0  0  0  0  0  0  0  0  0
   59.7410   29.0830   48.2070 C   0  0  0  0  0  0  0  0  0  0  0  0
   58.8310   26.0130   46.2320 N   0  0  0  0  0  0  0  0  0  0  0  0
   58.1850   25.6640   45.0890 C   0  0  0  0  0  0  0  0  0  0  0  0
   58.0330   24.2700   44.7580 N   0  0  0  0  0  0  0  0  0  0  0  0
   58.8950   23.2090   45.2530 C   0  0  0  0  0  0  0  0  0  0  0  0
   58.2480   21.9080   44.7950 C   0  0  0  0  0  0  0  0  0  0  0  0
   57.2590   22.2950   43.6980 C   0  0  0  0  0  0  0  0  0  0  0  0
   56.9680   23.7740   43.9020 C   0  0  0  0  0  0  0  0  0  0  0  0
   57.6870   26.6390   44.2770 N   0  0  0  0  0  0  0  0  0  0  0  0
   56.6440   31.1230   45.0140 N   0  0  0  0  0  0  0  0  0  0  0  0
   57.0280   32.2480   44.1640 C   0  0  0  0  0  0  0  0  0  0  0  0
   58.5190   32.5770   44.3100 C   0  0  0  0  0  0  0  0  0  0  0  0
   58.8160   33.2080   45.6400 C   0  0  0  0  0  0  0  0  0  0  0  0
   59.0700   34.5780   45.8030 C   0  0  0  0  0  0  0  0  0  0  0  0
   59.2730   34.9520   47.1240 C   0  0  0  0  0  0  0  0  0  0  0  0
   59.1230   33.5800   48.0840 S   0  0  0  0  0  0  0  0  0  0  0  0
   58.8020   32.5000   46.8390 C   0  0  0  0  0  0  0  0  0  0  0  0
   56.7904   28.5804   42.8668 H   0  0  0  0  0  0  0  0  0  0  0  0
   58.0960   29.6954   43.4079 H   0  0  0  0  0  0  0  0  0  0  0  0
   60.2104   25.7015   48.3010 H   0  0  0  0  0  0  0  0  0  0  0  0
   61.5840   26.8091   47.9261 H   0  0  0  0  0  0  0  0  0  0  0  0
   59.8309   26.7933   50.4330 H   0  0  0  0  0  0  0  0  0  0  0  0
   61.5946   26.4214   50.3061 H   0  0  0  0  0  0  0  0  0  0  0  0
   59.0766   28.8474   50.2479 H   0  0  0  0  0  0  0  0  0  0  0  0
   60.1928   30.2394   49.9665 H   0  0  0  0  0  0  0  0  0  0  0  0
   58.7936   29.5806   47.9526 H   0  0  0  0  0  0  0  0  0  0  0  0
   60.5770   29.5673   47.6812 H   0  0  0  0  0  0  0  0  0  0  0  0
   59.9052   23.3056   44.8286 H   0  0  0  0  0  0  0  0  0  0  0  0
   59.0007   23.2477   46.3472 H   0  0  0  0  0  0  0  0  0  0  0  0
   59.0099   21.2210   44.3981 H   0  0  0  0  0  0  0  0  0  0  0  0
   57.7463   21.3921   45.6269 H   0  0  0  0  0  0  0  0  0  0  0  0
   57.7026   22.1256   42.7058 H   0  0  0  0  0  0  0  0  0  0  0  0
   56.3408   21.6916   43.7508 H   0  0  0  0  0  0  0  0  0  0  0  0
   56.9737   24.3026   42.9374 H   0  0  0  0  0  0  0  0  0  0  0  0
   55.9773   23.9345   44.3522 H   0  0  0  0  0  0  0  0  0  0  0  0
   57.1710   26.3910   43.4040 H   0  0  0  0  0  0  0  0  0  0  0  0
   56.8193   31.9914   43.1149 H   0  0  0  0  0  0  0  0  0  0  0  0
   56.4473   33.1295   44.4735 H   0  0  0  0  0  0  0  0  0  0  0  0
   59.1007   31.6480   44.2173 H   0  0  0  0  0  0  0  0  0  0  0  0
   58.7936   33.2916   43.5201 H   0  0  0  0  0  0  0  0  0  0  0  0
   59.1049   35.2882   44.9637 H   0  0  0  0  0  0  0  0  0  0  0  0
   59.4936   35.9689   47.4807 H   0  0  0  0  0  0  0  0  0  0  0  0
   58.6136   31.4220   46.9509 H   0  0  0  0  0  0  0  0  0  0  0  0
  1  2  2  0
  2  3  1  0
  3  4  1  0
  4  5  2  0
  5  6  1  0
  6  7  1  0
  7  8  1  0
  8  9  1  0
  9 10  1  0
 10 11  1  0
 11 12  1  0
  6 13  2  0
 13 14  1  0
 14 15  1  0
 15 16  1  0
 16 17  1  0
 17 18  1  0
 18 19  1  0
 14 20  2  0
  2 21  1  0
 21 22  1  0
 22 23  1  0
 23 24  1  0
 24 25  1  0
 25 26  2  0
 26 27  1  0
 27 28  1  0
 20  4  1  0
 28 24  2  0
 12  7  1  0
 19 15  1  0
  3 29  1  0
  3 30  1  0
  8 31  1  0
  8 32  1  0
  9 33  1  0
  9 34  1  0
 11 35  1  0
 11 36  1  0
 12 37  1  0
 12 38  1  0
 16 39  1  0
 16 40  1  0
 17 41  1  0
 17 42  1  0
 18 43  1  0
 18 44  1  0
 19 45  1  0
 19 46  1  0
 20 47  1  0
 22 48  1  0
 22 49  1  0
 23 50  1  0
 23 51  1  0
 25 52  1  0
 26 53  1  0
 28 54  1  0
M  CHG  2  20   1  21  -1
M  END
>  <UniqueID>  (53) 
53

>  <SMILES>  (53) 
O=C(Cc1nc(N2CCOCC2)nc(N2CCCC2)[nH+]1)[N-]CCc1ccsc1

>  <Energy>  (53) 
74.6235301063006

>  <Genealogy>  (53) 
O=C(Cc1nc(N2CCOCC2)nc(N2CCCC2)[nH+]1)[N-]CCc1ccsc1 (protonated)
O=C(Cc1nc(N2CCOCC2)nc(N2CCCC2)[nH+]1)[N-]CCc1ccsc1 (3D coordinates assigned)
O=C(Cc1nc(N2CCOCC2)nc(N2CCCC2)[nH+]1)[N-]CCc1ccsc1 (nonaromatic ring conformer: 74.6235301063006 kcal/mol)

>  <smiles>  (53) 
O=C(Cc1nc(N2CCCC2)nc(N2CCOCC2)n1)NCCc1ccsc1

>  <score_type>  (53) 
oracle

>  <origin>  (53) 
adg

>  <m_score__min__energy>  (53) 
-8.8599999999999994

>  <m_primary>  (53) 
energy

$$$$
53:0
     RDKit          3D

 40 41  0  0  0  0  0  0  0  0999 V2000
   54.5520   26.3380   45.9280 O   0  0  0  0  0  0  0  0  0  0  0  0
   55.7690   26.3720   46.2480 C   0  0  0  0  0  0  0  0  0  0  0  0
   56.2910   25.3890   47.0810 O   0  0  0  0  0  0  0  0  0  0  0  0
   56.6390   27.4880   45.7750 C   0  0  0  0  0  0  0  0  0  0  0  0
   55.8030   28.5570   45.2460 N   0  0  0  0  0  0  0  0  0  0  0  0
   56.2990   29.7160   44.5670 C   0  0  0  0  0  0  0  0  0  0  0  0
   55.8180   30.8420   44.8590 O   0  0  0  0  0  0  0  0  0  0  0  0
   57.3770   29.6270   43.5220 C   0  0  0  0  0  0  0  0  0  0  0  0
   58.6830   29.9670   44.0890 N   0  0  0  0  0  0  0  0  0  0  0  0
   59.1550   29.5240   45.3760 C   0  0  0  0  0  0  0  0  0  0  0  0
   59.8720   28.3220   45.5330 C   0  0  0  0  0  0  0  0  0  0  0  0
   60.3140   27.9240   46.7970 C   0  0  0  0  0  0  0  0  0  0  0  0
   60.0500   28.7170   47.9160 C   0  0  0  0  0  0  0  0  0  0  0  0
   59.3450   29.9170   47.7760 C   0  0  0  0  0  0  0  0  0  0  0  0
   59.0220   30.9030   49.1980 S   0  0  0  0  0  0  0  0  0  0  0  0
   58.1700   30.1150   50.1530 O   0  0  0  0  0  0  0  0  0  0  0  0
   60.3130   31.2710   49.8760 O   0  0  0  0  0  0  0  0  0  0  0  0
   58.1960   32.3520   48.6960 N   0  0  0  0  0  0  0  0  0  0  0  0
   59.1360   33.3120   48.1100 C   0  0  0  0  0  0  0  0  0  0  0  0
   58.7880   33.5790   46.6790 C   0  0  0  0  0  0  0  0  0  0  0  0
   59.5900   34.2250   45.7590 C   0  0  0  0  0  0  0  0  0  0  0  0
   58.8690   34.2370   44.5850 C   0  0  0  0  0  0  0  0  0  0  0  0
   57.6750   33.6010   44.8610 C   0  0  0  0  0  0  0  0  0  0  0  0
   57.6560   33.2210   46.1180 O   0  0  0  0  0  0  0  0  0  0  0  0
   58.9030   30.3190   46.5060 C   0  0  0  0  0  0  0  0  0  0  0  0
   57.2364   27.8703   46.6158 H   0  0  0  0  0  0  0  0  0  0  0  0
   57.3130   27.1219   44.9865 H   0  0  0  0  0  0  0  0  0  0  0  0
   57.4119   28.6010   43.1269 H   0  0  0  0  0  0  0  0  0  0  0  0
   57.1464   30.3407   42.7173 H   0  0  0  0  0  0  0  0  0  0  0  0
   59.3000   30.5920   43.5230 H   0  0  0  0  0  0  0  0  0  0  0  0
   60.0851   27.6934   44.6558 H   0  0  0  0  0  0  0  0  0  0  0  0
   60.8718   26.9829   46.9114 H   0  0  0  0  0  0  0  0  0  0  0  0
   60.3972   28.3972   48.9096 H   0  0  0  0  0  0  0  0  0  0  0  0
   57.5250   32.0650   47.9480 H   0  0  0  0  0  0  0  0  0  0  0  0
   59.0907   34.2544   48.6755 H   0  0  0  0  0  0  0  0  0  0  0  0
   60.1509   32.8903   48.1568 H   0  0  0  0  0  0  0  0  0  0  0  0
   60.5936   34.6423   45.9280 H   0  0  0  0  0  0  0  0  0  0  0  0
   59.1816   34.6667   43.6219 H   0  0  0  0  0  0  0  0  0  0  0  0
   56.8627   33.4374   44.1376 H   0  0  0  0  0  0  0  0  0  0  0  0
   58.3540   31.2657   46.3946 H   0  0  0  0  0  0  0  0  0  0  0  0
  1  2  2  0
  2  3  1  0
  2  4  1  0
  4  5  1  0
  5  6  1  0
  6  7  2  0
  6  8  1  0
  8  9  1  0
  9 10  1  0
 10 11  2  0
 11 12  1  0
 12 13  2  0
 13 14  1  0
 14 15  1  0
 15 16  2  0
 15 17  2  0
 15 18  1  0
 18 19  1  0
 19 20  1  0
 20 21  2  0
 21 22  1  0
 22 23  2  0
 23 24  1  0
 14 25  2  0
 25 10  1  0
 24 20  1  0
  4 26  1  0
  4 27  1  0
  8 28  1  0
  8 29  1  0
  9 30  1  0
 11 31  1  0
 12 32  1  0
 13 33  1  0
 18 34  1  0
 19 35  1  0
 19 36  1  0
 21 37  1  0
 22 38  1  0
 23 39  1  0
 25 40  1  0
M  CHG  2   3  -1   5  -1
M  END
>  <UniqueID>  (54) 
54

>  <SMILES>  (54) 
O=C([O-])C[N-]C(=O)CNc1cccc(S(=O)(=O)NCc2ccco2)c1

>  <Energy>  (54) 
59.15289430394034

>  <Genealogy>  (54) 
O=C([O-])C[N-]C(=O)CNc1cccc(S(=O)(=O)NCc2ccco2)c1 (protonated)
O=C([O-])C[N-]C(=O)CNc1cccc(S(=O)(=O)NCc2ccco2)c1 (3D coordinates assigned)
O=C([O-])C[N-]C(=O)CNc1cccc(S(=O)(=O)NCc2ccco2)c1 (optimized conformer: 59.15289430394034 kcal/mol)

>  <smiles>  (54) 
O=C(O)CNC(=O)CNc1cccc(S(=O)(=O)NCc2ccco2)c1

>  <score_type>  (54) 
oracle

>  <origin>  (54) 
adg

>  <m_score__min__energy>  (54) 
-12.800000000000001

>  <m_primary>  (54) 
energy

$$$$
54:0
     RDKit          3D

 37 39  0  0  0  0  0  0  0  0999 V2000
   57.5952   25.6196   43.5189 H   0  0  0  0  0  0  0  0  0  0  0  0
   57.8630   26.3150   44.3280 C   0  0  0  0  0  0  0  0  0  0  0  0
   58.8690   27.2070   44.2940 N   0  0  0  0  0  0  0  0  0  0  0  0
   58.7990   27.8250   45.4940 C   0  0  0  0  0  0  0  0  0  0  0  0
   59.7390   28.8850   45.9010 C   0  0  0  0  0  0  0  0  0  0  0  0
   60.9260   28.8430   45.4850 O   0  0  0  0  0  0  0  0  0  0  0  0
   59.3600   29.9260   46.8100 N   0  0  0  0  0  0  0  0  0  0  0  0
   59.5950   31.3350   46.6400 C   0  0  0  0  0  0  0  0  0  0  0  0
   58.9270   32.0410   45.6210 C   0  0  0  0  0  0  0  0  0  0  0  0
   57.9600   31.3740   44.7150 C   0  0  0  0  0  0  0  0  0  0  0  0
   57.9740   31.6510   43.3380 C   0  0  0  0  0  0  0  0  0  0  0  0
   58.7083   32.3613   42.9304 H   0  0  0  0  0  0  0  0  0  0  0  0
   57.0600   31.0290   42.4830 C   0  0  0  0  0  0  0  0  0  0  0  0
   57.0805   31.2465   41.4049 H   0  0  0  0  0  0  0  0  0  0  0  0
   56.1200   30.1310   42.9960 C   0  0  0  0  0  0  0  0  0  0  0  0
   55.4028   29.6405   42.3214 H   0  0  0  0  0  0  0  0  0  0  0  0
   56.0910   29.8560   44.3660 C   0  0  0  0  0  0  0  0  0  0  0  0
   55.1510   28.9690   44.8760 O   0  0  0  0  0  0  0  0  0  0  0  0
   57.0050   30.4770   45.2240 C   0  0  0  0  0  0  0  0  0  0  0  0
   56.9761   30.2622   46.3024 H   0  0  0  0  0  0  0  0  0  0  0  0
   59.2150   33.4020   45.4460 C   0  0  0  0  0  0  0  0  0  0  0  0
   58.7281   33.9634   44.6350 H   0  0  0  0  0  0  0  0  0  0  0  0
   60.0910   34.0320   46.2710 N   0  0  0  0  0  0  0  0  0  0  0  0
   60.7140   33.3960   47.2970 C   0  0  0  0  0  0  0  0  0  0  0  0
   61.5460   34.0790   48.0330 N   0  0  0  0  0  0  0  0  0  0  0  0
   62.9400   33.8210   48.2610 C   0  0  0  0  0  0  0  0  0  0  0  0
   63.4480   34.1420   49.3670 O   0  0  0  0  0  0  0  0  0  0  0  0
   63.7780   33.0790   47.2650 C   0  0  0  0  0  0  0  0  0  0  0  0
   64.4992   32.4404   47.7960 H   0  0  0  0  0  0  0  0  0  0  0  0
   63.1296   32.4535   46.6339 H   0  0  0  0  0  0  0  0  0  0  0  0
   64.3204   33.7984   46.6339 H   0  0  0  0  0  0  0  0  0  0  0  0
   60.4730   32.0220   47.4950 C   0  0  0  0  0  0  0  0  0  0  0  0
   60.9714   31.4881   48.3175 H   0  0  0  0  0  0  0  0  0  0  0  0
   57.8110   27.3620   46.2900 N   0  0  0  0  0  0  0  0  0  0  0  0
   57.2260   26.4160   45.5390 C   0  0  0  0  0  0  0  0  0  0  0  0
   56.0980   25.6350   45.9660 C   0  0  0  0  0  0  0  0  0  0  0  0
   55.1890   25.0060   46.3080 N   0  0  0  0  0  0  0  0  0  0  0  0
  1  2  1  0
  2  3  1  0
  3  4  1  0
  4  5  1  0
  5  6  2  0
  5  7  1  0
  7  8  1  0
  8  9  1  0
  9 10  1  0
 10 11  2  0
 11 12  1  0
 11 13  1  0
 13 14  1  0
 13 15  2  0
 15 16  1  0
 15 17  1  0
 17 18  1  0
 17 19  2  0
 19 20  1  0
  9 21  2  0
 21 22  1  0
 21 23  1  0
 23 24  1  0
 24 25  2  0
 25 26  1  0
 26 27  2  0
 26 28  1  0
 28 29  1  0
 28 30  1  0
 28 31  1  0
 24 32  1  0
 32 33  1  0
  4 34  2  0
 34 35  1  0
 35 36  1  0
 36 37  3  0
 35  2  2  0
 32  8  2  0
 19 10  1  0
M  CHG  4   3  -1   7  -1  18  -1  23  -1
M  END
>  <UniqueID>  (55) 
55

>  <SMILES>  (55) 
CC(=O)/N=c1\cc([N-]C(=O)c2nc(C#N)c[n-]2)c(-c2cccc([O-])c2)c[n-]1

>  <Energy>  (55) 
85.85699495337042

>  <Genealogy>  (55) 
CC(=O)N=c1cc([N-]C(=O)c2nc(C#N)c[n-]2)c(-c2cccc([O-])c2)c[n-]1 (protonated)
CC(=O)/N=c1\cc([N-]C(=O)c2nc(C#N)c[n-]2)c(-c2cccc([O-])c2)c[n-]1 (cis-trans isomerization)
CC(=O)/N=c1\cc([N-]C(=O)c2nc(C#N)c[n-]2)c(-c2cccc([O-])c2)c[n-]1 (3D coordinates assigned)
CC(=O)/N=c1\cc([N-]C(=O)c2nc(C#N)c[n-]2)c(-c2cccc([O-])c2)c[n-]1 (optimized conformer: 85.85699495337042 kcal/mol)

>  <smiles>  (55) 
CC(=O)N=c1cc(NC(=O)c2nc(C#N)c[nH]2)c(-c2cccc(O)c2)c[nH]1

>  <score_type>  (55) 
oracle

>  <origin>  (55) 
adg

>  <m_score__min__energy>  (55) 
-14.44

>  <m_primary>  (55) 
energy

$$$$
55:0
     RDKit          3D

 44 46  0  0  0  0  0  0  0  0999 V2000
   55.1510   29.3450   44.8760 O   0  0  0  0  0  0  0  0  0  0  0  0
   56.2380   29.8210   44.4530 C   0  0  0  0  0  0  0  0  0  0  0  0
   57.0510   29.0130   43.4740 C   0  0  0  0  0  0  0  0  0  0  0  0
   58.0270   28.1580   44.1820 N   0  0  0  0  0  0  0  0  0  0  0  0
   57.4090   27.4750   45.3440 C   0  0  0  0  0  0  0  0  0  0  0  0
   58.4640   27.1150   46.4010 C   0  0  0  0  0  0  0  0  0  0  0  0
   59.1240   28.2480   46.9470 O   0  0  0  0  0  0  0  0  0  0  0  0
   59.2300   29.3420   46.0410 C   0  0  1  0  0  0  0  0  0  0  0  0
   60.4680   30.1780   46.4000 C   0  0  0  0  0  0  0  0  0  0  0  0
   60.2840   30.8970   47.6600 N   0  0  0  0  0  0  0  0  0  0  0  0
   59.3090   30.6810   48.5610 C   0  0  0  0  0  0  0  0  0  0  0  0
   59.5040   31.5370   49.6230 C   0  0  0  0  0  0  0  0  0  0  0  0
   60.6380   32.2550   49.2920 C   0  0  0  0  0  0  0  0  0  0  0  0
   61.0980   31.8470   48.0930 N   0  0  0  0  0  0  0  0  0  0  0  0
   59.2480   28.9130   44.5520 C   0  0  0  0  0  0  0  0  0  0  0  0
   56.6540   31.1090   44.9220 N   0  0  0  0  0  0  0  0  0  0  0  0
   57.4640   32.0550   44.1640 C   0  0  0  0  0  0  0  0  0  0  0  0
   58.0730   33.0530   45.1060 C   0  0  0  0  0  0  0  0  0  0  0  0
   57.8120   32.9780   46.4850 C   0  0  0  0  0  0  0  0  0  0  0  0
   58.4090   33.8870   47.3640 C   0  0  0  0  0  0  0  0  0  0  0  0
   59.2770   34.8670   46.8760 C   0  0  0  0  0  0  0  0  0  0  0  0
   59.5540   34.9370   45.5080 C   0  0  0  0  0  0  0  0  0  0  0  0
   58.9600   34.0300   44.6240 C   0  0  0  0  0  0  0  0  0  0  0  0
   56.3758   28.3765   42.8833 H   0  0  0  0  0  0  0  0  0  0  0  0
   57.5991   29.7036   42.8163 H   0  0  0  0  0  0  0  0  0  0  0  0
   56.6607   28.1424   45.7964 H   0  0  0  0  0  0  0  0  0  0  0  0
   56.9369   26.5459   44.9919 H   0  0  0  0  0  0  0  0  0  0  0  0
   57.9672   26.5728   47.2191 H   0  0  0  0  0  0  0  0  0  0  0  0
   59.2291   26.5027   45.9012 H   0  0  0  0  0  0  0  0  0  0  0  0
   58.3225   29.9536   46.1523 H   0  0  0  0  0  0  0  0  0  0  0  0
   61.3359   29.5087   46.4941 H   0  0  0  0  0  0  0  0  0  0  0  0
   60.6276   30.9176   45.6015 H   0  0  0  0  0  0  0  0  0  0  0  0
   58.4954   29.9468   48.4663 H   0  0  0  0  0  0  0  0  0  0  0  0
   58.8926   31.6287   50.5328 H   0  0  0  0  0  0  0  0  0  0  0  0
   61.0951   33.0397   49.9127 H   0  0  0  0  0  0  0  0  0  0  0  0
   59.3145   29.8129   43.9229 H   0  0  0  0  0  0  0  0  0  0  0  0
   60.1166   28.2564   44.3957 H   0  0  0  0  0  0  0  0  0  0  0  0
   58.2626   31.5139   43.6353 H   0  0  0  0  0  0  0  0  0  0  0  0
   56.8313   32.5779   43.4317 H   0  0  0  0  0  0  0  0  0  0  0  0
   57.1362   32.2021   46.8739 H   0  0  0  0  0  0  0  0  0  0  0  0
   58.1949   33.8304   48.4415 H   0  0  0  0  0  0  0  0  0  0  0  0
   59.7425   35.5836   47.5687 H   0  0  0  0  0  0  0  0  0  0  0  0
   60.2404   35.7068   45.1256 H   0  0  0  0  0  0  0  0  0  0  0  0
   59.1879   34.0819   43.5491 H   0  0  0  0  0  0  0  0  0  0  0  0
  1  2  2  0
  2  3  1  0
  3  4  1  0
  4  5  1  0
  5  6  1  0
  6  7  1  0
  7  8  1  0
  8  9  1  0
  9 10  1  0
 10 11  1  0
 11 12  2  0
 12 13  1  0
 13 14  2  0
  8 15  1  0
  2 16  1  0
 16 17  1  0
 17 18  1  0
 18 19  2  0
 19 20  1  0
 20 21  2  0
 21 22  1  0
 22 23  2  0
 15  4  1  0
 23 18  1  0
 14 10  1  0
  3 24  1  0
  3 25  1  0
  5 26  1  0
  5 27  1  0
  6 28  1  0
  6 29  1  0
  8 30  1  6
  9 31  1  0
  9 32  1  0
 11 33  1  0
 12 34  1  0
 13 35  1  0
 15 36  1  0
 15 37  1  0
 17 38  1  0
 17 39  1  0
 19 40  1  0
 20 41  1  0
 21 42  1  0
 22 43  1  0
 23 44  1  0
M  CHG  1  16  -1
M  END
>  <UniqueID>  (56) 
56

>  <SMILES>  (56) 
O=C(CN1CCO[C@@H](Cn2cccn2)C1)[N-]Cc1ccccc1

>  <Energy>  (56) 
84.00974615030897

>  <Genealogy>  (56) 
O=C(CN1CCOC(Cn2cccn2)C1)[N-]Cc1ccccc1 (protonated)
O=C(CN1CCO[C@@H](Cn2cccn2)C1)[N-]Cc1ccccc1 (chirality)
O=C(CN1CCO[C@@H](Cn2cccn2)C1)[N-]Cc1ccccc1 (3D coordinates assigned)
O=C(CN1CCO[C@@H](Cn2cccn2)C1)[N-]Cc1ccccc1 (nonaromatic ring conformer: 84.00974615030897 kcal/mol)

>  <smiles>  (56) 
O=C(CN1CCOC(Cn2cccn2)C1)NCc1ccccc1

>  <score_type>  (56) 
oracle

>  <origin>  (56) 
adg

>  <m_score__min__energy>  (56) 
-9.5099999999999998

>  <m_primary>  (56) 
energy

$$$$
56:0
     RDKit          3D

 54 57  0  0  0  0  0  0  0  0999 V2000
   62.9790   33.3860   48.7690 C   0  0  0  0  0  0  0  0  0  0  0  0
   62.7140   31.6160   48.4440 S   0  0  0  0  0  0  0  0  0  0  0  0
   61.1900   31.5470   49.4030 C   0  0  0  0  0  0  0  0  0  0  0  0
   60.8510   32.6500   50.1170 N   0  0  0  0  0  0  0  0  0  0  0  0
   59.7300   32.6950   50.8720 C   0  0  0  0  0  0  0  0  0  0  0  0
   59.4180   33.8520   51.5950 C   0  0  0  0  0  0  0  0  0  0  0  0
   58.2610   33.8970   52.3780 C   0  0  0  0  0  0  0  0  0  0  0  0
   57.4160   32.7850   52.4440 C   0  0  0  0  0  0  0  0  0  0  0  0
   57.7210   31.6270   51.7230 C   0  0  0  0  0  0  0  0  0  0  0  0
   58.8830   31.5740   50.9290 C   0  0  0  0  0  0  0  0  0  0  0  0
   59.2330   30.4380   50.1790 C   0  0  0  0  0  0  0  0  0  0  0  0
   58.4770   29.4250   50.2040 O   0  0  0  0  0  0  0  0  0  0  0  0
   60.3810   30.4310   49.4210 N   0  0  0  0  0  0  0  0  0  0  0  0
   60.7210   29.2490   48.5980 C   0  0  0  0  0  0  0  0  0  0  0  0
   59.5870   28.8890   47.6690 C   0  0  0  0  0  0  0  0  0  0  0  0
   58.9830   27.6250   47.7480 C   0  0  0  0  0  0  0  0  0  0  0  0
   57.9260   27.2940   46.8970 C   0  0  0  0  0  0  0  0  0  0  0  0
   57.4550   28.2240   45.9680 C   0  0  0  0  0  0  0  0  0  0  0  0
   58.0340   29.5030   45.8850 C   0  0  0  0  0  0  0  0  0  0  0  0
   57.5520   30.4930   44.8930 C   0  0  0  0  0  0  0  0  0  0  0  0
   56.3150   30.5790   44.6540 O   0  0  0  0  0  0  0  0  0  0  0  0
   58.4740   31.3430   44.1920 N   0  0  0  0  0  0  0  0  0  0  0  0
   58.0490   32.5290   43.4470 C   0  0  0  0  0  0  0  0  0  0  0  0
   57.3470   33.5250   44.3760 C   0  0  0  0  0  0  0  0  0  0  0  0
   58.1980   33.8420   45.5790 C   0  0  0  0  0  0  0  0  0  0  0  0
   57.9670   33.1890   46.8030 C   0  0  0  0  0  0  0  0  0  0  0  0
   58.7880   33.4470   47.9060 C   0  0  0  0  0  0  0  0  0  0  0  0
   59.8500   34.3490   47.7920 C   0  0  0  0  0  0  0  0  0  0  0  0
   60.0920   34.9940   46.5750 C   0  0  0  0  0  0  0  0  0  0  0  0
   59.2690   34.7440   45.4730 C   0  0  0  0  0  0  0  0  0  0  0  0
   59.1020   29.8260   46.7400 C   0  0  0  0  0  0  0  0  0  0  0  0
   63.0050   33.5595   49.8549 H   0  0  0  0  0  0  0  0  0  0  0  0
   63.9344   33.7014   48.3243 H   0  0  0  0  0  0  0  0  0  0  0  0
   62.1579   33.9674   48.3243 H   0  0  0  0  0  0  0  0  0  0  0  0
   60.0837   34.7264   51.5470 H   0  0  0  0  0  0  0  0  0  0  0  0
   58.0150   34.8083   52.9429 H   0  0  0  0  0  0  0  0  0  0  0  0
   56.5088   32.8215   53.0650 H   0  0  0  0  0  0  0  0  0  0  0  0
   57.0521   30.7554   51.7759 H   0  0  0  0  0  0  0  0  0  0  0  0
   61.6173   29.4728   48.0009 H   0  0  0  0  0  0  0  0  0  0  0  0
   60.9063   28.3975   49.2693 H   0  0  0  0  0  0  0  0  0  0  0  0
   59.3437   26.8911   48.4837 H   0  0  0  0  0  0  0  0  0  0  0  0
   57.4633   26.2979   46.9588 H   0  0  0  0  0  0  0  0  0  0  0  0
   56.6260   27.9546   45.2970 H   0  0  0  0  0  0  0  0  0  0  0  0
   59.4870   31.0890   44.1680 H   0  0  0  0  0  0  0  0  0  0  0  0
   58.9312   33.0109   43.0003 H   0  0  0  0  0  0  0  0  0  0  0  0
   57.3451   32.2207   42.6599 H   0  0  0  0  0  0  0  0  0  0  0  0
   57.1490   34.4543   43.8217 H   0  0  0  0  0  0  0  0  0  0  0  0
   56.4066   33.0729   44.7242 H   0  0  0  0  0  0  0  0  0  0  0  0
   57.1373   32.4724   46.8935 H   0  0  0  0  0  0  0  0  0  0  0  0
   58.5978   32.9399   48.8634 H   0  0  0  0  0  0  0  0  0  0  0  0
   60.4953   34.5514   48.6596 H   0  0  0  0  0  0  0  0  0  0  0  0
   60.9313   35.6992   46.4847 H   0  0  0  0  0  0  0  0  0  0  0  0
   59.4612   35.2561   44.5186 H   0  0  0  0  0  0  0  0  0  0  0  0
   59.5633   30.8229   46.6815 H   0  0  0  0  0  0  0  0  0  0  0  0
  1  2  1  0
  2  3  1  0
  3  4  2  0
  4  5  1  0
  5  6  2  0
  6  7  1  0
  7  8  2  0
  8  9  1  0
  9 10  2  0
 10 11  1  0
 11 12  2  0
 11 13  1  0
 13 14  1  0
 14 15  1  0
 15 16  2  0
 16 17  1  0
 17 18  2  0
 18 19  1  0
 19 20  1  0
 20 21  2  0
 20 22  1  0
 22 23  1  0
 23 24  1  0
 24 25  1  0
 25 26  2  0
 26 27  1  0
 27 28  2  0
 28 29  1  0
 29 30  2  0
 19 31  2  0
 13  3  1  0
 31 15  1  0
 10  5  1  0
 30 25  1  0
  1 32  1  0
  1 33  1  0
  1 34  1  0
  6 35  1  0
  7 36  1  0
  8 37  1  0
  9 38  1  0
 14 39  1  0
 14 40  1  0
 16 41  1  0
 17 42  1  0
 18 43  1  0
 22 44  1  0
 23 45  1  0
 23 46  1  0
 24 47  1  0
 24 48  1  0
 26 49  1  0
 27 50  1  0
 28 51  1  0
 29 52  1  0
 30 53  1  0
 31 54  1  0
M  END
>  <UniqueID>  (57) 
57

>  <SMILES>  (57) 
CSc1nc2ccccc2c(=O)n1Cc1cccc(C(=O)NCCc2ccccc2)c1

>  <Energy>  (57) 
60.284405347995815

>  <Genealogy>  (57) 
CSc1nc2ccccc2c(=O)n1Cc1cccc(C(=O)NCCc2ccccc2)c1 (3D coordinates assigned)
CSc1nc2ccccc2c(=O)n1Cc1cccc(C(=O)NCCc2ccccc2)c1 (optimized conformer: 60.284405347995815 kcal/mol)

>  <smiles>  (57) 
CSc1nc2ccccc2c(=O)n1Cc1cccc(C(=O)NCCc2ccccc2)c1

>  <score_type>  (57) 
oracle

>  <origin>  (57) 
adg

>  <m_score__min__energy>  (57) 
-9.5700000000000003

>  <m_primary>  (57) 
energy

$$$$
57:0
     RDKit          3D

 53 55  0  0  0  0  0  0  0  0999 V2000
   59.2320   32.7830   49.1700 C   0  0  0  0  0  0  0  0  0  0  0  0
   59.2290   33.4420   47.8210 C   0  0  0  0  0  0  0  0  0  0  0  0
   60.0530   34.5500   47.5780 C   0  0  0  0  0  0  0  0  0  0  0  0
   60.0230   35.1910   46.3360 C   0  0  0  0  0  0  0  0  0  0  0  0
   59.1660   34.7350   45.3320 C   0  0  0  0  0  0  0  0  0  0  0  0
   58.3320   33.6290   45.5610 C   0  0  0  0  0  0  0  0  0  0  0  0
   57.3870   33.1610   44.4880 C   0  0  0  0  0  0  0  0  0  0  0  0
   58.1460   32.4360   43.3770 C   0  0  0  0  0  0  0  0  0  0  0  0
   57.5230   31.1390   43.1190 N   0  0  0  0  0  0  0  0  0  0  0  0
   56.8090   30.3590   44.0890 C   0  0  0  0  0  0  0  0  0  0  0  0
   55.6970   30.7810   44.5010 O   0  0  0  0  0  0  0  0  0  0  0  0
   57.3410   29.0850   44.6250 C   0  0  0  0  0  0  0  0  0  0  0  0
   57.7880   28.0710   43.7610 C   0  0  0  0  0  0  0  0  0  0  0  0
   58.2800   26.8680   44.2760 C   0  0  0  0  0  0  0  0  0  0  0  0
   58.3540   26.6690   45.6630 C   0  0  0  0  0  0  0  0  0  0  0  0
   58.8520   25.3580   46.2080 C   0  0  0  0  0  0  0  0  0  0  0  0
   58.2200   25.0640   47.4960 N   0  0  0  0  0  0  0  0  0  0  0  0
   56.9720   23.8640   47.3190 S   0  0  0  0  0  0  0  0  0  0  0  0
   57.3610   22.6240   48.0730 O   0  0  0  0  0  0  0  0  0  0  0  0
   55.6990   24.3950   47.9170 O   0  0  0  0  0  0  0  0  0  0  0  0
   56.6950   23.5600   45.5930 C   0  0  0  0  0  0  0  0  0  0  0  0
   57.5370   22.6270   44.9670 C   0  0  0  0  0  0  0  0  0  0  0  0
   57.3330   22.2590   43.6350 C   0  0  0  0  0  0  0  0  0  0  0  0
   56.2730   22.8080   42.9160 C   0  0  0  0  0  0  0  0  0  0  0  0
   55.4220   23.7350   43.5210 C   0  0  0  0  0  0  0  0  0  0  0  0
   55.6300   24.1350   44.8510 C   0  0  0  0  0  0  0  0  0  0  0  0
   54.7650   25.1300   45.4080 N   0  0  0  0  0  0  0  0  0  0  0  0
   53.5860   24.8300   45.6900 O   0  0  0  0  0  0  0  0  0  0  0  0
   55.3150   26.2540   45.9780 O   0  0  0  0  0  0  0  0  0  0  0  0
   57.9450   27.6960   46.5280 C   0  0  0  0  0  0  0  0  0  0  0  0
   57.4440   28.8960   46.0120 C   0  0  0  0  0  0  0  0  0  0  0  0
   58.3520   32.9990   46.8160 C   0  0  0  0  0  0  0  0  0  0  0  0
   59.2285   33.5539   49.9547 H   0  0  0  0  0  0  0  0  0  0  0  0
   58.3367   32.1521   49.2718 H   0  0  0  0  0  0  0  0  0  0  0  0
   60.1330   32.1602   49.2718 H   0  0  0  0  0  0  0  0  0  0  0  0
   60.7256   34.9163   48.3676 H   0  0  0  0  0  0  0  0  0  0  0  0
   60.6758   36.0564   46.1491 H   0  0  0  0  0  0  0  0  0  0  0  0
   59.1443   35.2446   44.3574 H   0  0  0  0  0  0  0  0  0  0  0  0
   56.6508   32.4736   44.9301 H   0  0  0  0  0  0  0  0  0  0  0  0
   56.8808   34.0371   44.0564 H   0  0  0  0  0  0  0  0  0  0  0  0
   58.1196   33.0430   42.4600 H   0  0  0  0  0  0  0  0  0  0  0  0
   59.1896   32.2829   43.6892 H   0  0  0  0  0  0  0  0  0  0  0  0
   57.7506   28.2247   42.6724 H   0  0  0  0  0  0  0  0  0  0  0  0
   58.6107   26.0737   43.5906 H   0  0  0  0  0  0  0  0  0  0  0  0
   58.6118   24.5552   45.4954 H   0  0  0  0  0  0  0  0  0  0  0  0
   59.9404   25.4237   46.3529 H   0  0  0  0  0  0  0  0  0  0  0  0
   58.3679   22.1801   45.5327 H   0  0  0  0  0  0  0  0  0  0  0  0
   58.0086   21.5364   43.1540 H   0  0  0  0  0  0  0  0  0  0  0  0
   56.1064   22.5106   41.8702 H   0  0  0  0  0  0  0  0  0  0  0  0
   54.5809   24.1559   42.9506 H   0  0  0  0  0  0  0  0  0  0  0  0
   58.0187   27.5567   47.6166 H   0  0  0  0  0  0  0  0  0  0  0  0
   57.1288   29.6964   46.6976 H   0  0  0  0  0  0  0  0  0  0  0  0
   57.6769   32.1533   47.0137 H   0  0  0  0  0  0  0  0  0  0  0  0
  1  2  1  0
  2  3  2  0
  3  4  1  0
  4  5  2  0
  5  6  1  0
  6  7  1  0
  7  8  1  0
  8  9  1  0
  9 10  1  0
 10 11  2  0
 10 12  1  0
 12 13  2  0
 13 14  1  0
 14 15  2  0
 15 16  1  0
 16 17  1  0
 17 18  1  0
 18 19  2  0
 18 20  2  0
 18 21  1  0
 21 22  2  0
 22 23  1  0
 23 24  2  0
 24 25  1  0
 25 26  2  0
 26 27  1  0
 27 28  2  0
 27 29  1  0
 15 30  1  0
 30 31  2  0
  6 32  2  0
 32  2  1  0
 31 12  1  0
 26 21  1  0
  1 33  1  0
  1 34  1  0
  1 35  1  0
  3 36  1  0
  4 37  1  0
  5 38  1  0
  7 39  1  0
  7 40  1  0
  8 41  1  0
  8 42  1  0
 13 43  1  0
 14 44  1  0
 16 45  1  0
 16 46  1  0
 22 47  1  0
 23 48  1  0
 24 49  1  0
 25 50  1  0
 30 51  1  0
 31 52  1  0
 32 53  1  0
M  CHG  4   9  -1  17  -1  27   1  29  -1
M  END
>  <UniqueID>  (58) 
58

>  <SMILES>  (58) 
Cc1cccc(CC[N-]C(=O)c2ccc(C[N-]S(=O)(=O)c3ccccc3[N+](=O)[O-])cc2)c1

>  <Energy>  (58) 
65.04874300016756

>  <Genealogy>  (58) 
Cc1cccc(CC[N-]C(=O)c2ccc(C[N-]S(=O)(=O)c3ccccc3[N+](=O)[O-])cc2)c1 (protonated)
Cc1cccc(CC[N-]C(=O)c2ccc(C[N-]S(=O)(=O)c3ccccc3[N+](=O)[O-])cc2)c1 (3D coordinates assigned)
Cc1cccc(CC[N-]C(=O)c2ccc(C[N-]S(=O)(=O)c3ccccc3[N+](=O)[O-])cc2)c1 (optimized conformer: 65.04874300016756 kcal/mol)

>  <smiles>  (58) 
Cc1cccc(CCNC(=O)c2ccc(CNS(=O)(=O)c3ccccc3[N+](=O)[O-])cc2)c1

>  <score_type>  (58) 
oracle

>  <origin>  (58) 
adg

>  <m_score__min__energy>  (58) 
-13.27

>  <m_primary>  (58) 
energy

$$$$
58:0
     RDKit          3D

 35 37  0  0  0  0  0  0  0  0999 V2000
   57.3217   34.5570   45.6743 H   0  0  0  0  0  0  0  0  0  0  0  0
   57.8410   33.5950   45.7960 C   0  0  0  0  0  0  0  0  0  0  0  0
   57.2030   32.4350   45.4890 N   0  0  0  0  0  0  0  0  0  0  0  0
   57.7960   31.2170   45.6280 C   0  0  0  0  0  0  0  0  0  0  0  0
   57.1160   30.1550   45.3030 N   0  0  0  0  0  0  0  0  0  0  0  0
   57.2610   28.8350   45.8440 C   0  0  0  0  0  0  0  0  0  0  0  0
   57.8850   28.6880   46.9280 O   0  0  0  0  0  0  0  0  0  0  0  0
   56.7510   27.6940   45.1310 N   0  0  0  0  0  0  0  0  0  0  0  0
   56.2340   27.8630   44.2390 H   0  0  0  0  0  0  0  0  0  0  0  0
   56.8190   26.3440   45.6220 C   0  0  0  0  0  0  0  0  0  0  0  0
   58.0430   25.6510   45.6730 C   0  0  0  0  0  0  0  0  0  0  0  0
   58.9692   26.1514   45.3541 H   0  0  0  0  0  0  0  0  0  0  0  0
   58.0870   24.3300   46.1270 C   0  0  0  0  0  0  0  0  0  0  0  0
   59.0484   23.7974   46.1736 H   0  0  0  0  0  0  0  0  0  0  0  0
   56.9120   23.6840   46.5220 C   0  0  0  0  0  0  0  0  0  0  0  0
   56.9498   22.6464   46.8853 H   0  0  0  0  0  0  0  0  0  0  0  0
   55.6900   24.3570   46.4550 C   0  0  0  0  0  0  0  0  0  0  0  0
   54.7649   23.8455   46.7592 H   0  0  0  0  0  0  0  0  0  0  0  0
   55.6390   25.6800   46.0020 C   0  0  0  0  0  0  0  0  0  0  0  0
   54.4130   26.3350   45.9420 O   0  0  0  0  0  0  0  0  0  0  0  0
   59.1340   31.1560   46.0760 C   0  0  0  0  0  0  0  0  0  0  0  0
   59.6432   30.1856   46.1712 H   0  0  0  0  0  0  0  0  0  0  0  0
   59.8050   32.3370   46.3970 C   0  0  0  0  0  0  0  0  0  0  0  0
   60.8451   32.2994   46.7532 H   0  0  0  0  0  0  0  0  0  0  0  0
   59.1560   33.5660   46.2660 C   0  0  0  0  0  0  0  0  0  0  0  0
   60.0060   35.0890   46.6800 S   0  0  0  0  0  0  0  0  0  0  0  0
   61.4810   34.2230   47.2020 C   0  0  0  0  0  0  0  0  0  0  0  0
   62.4820   33.8800   46.3650 N   0  0  0  0  0  0  0  0  0  0  0  0
   63.4850   33.2540   46.9800 N   0  0  0  0  0  0  0  0  0  0  0  0
   63.2780   33.0880   48.3050 C   0  0  0  0  0  0  0  0  0  0  0  0
   64.2780   32.4820   49.2270 C   0  0  0  0  0  0  0  0  0  0  0  0
   63.9751   32.6656   50.2684 H   0  0  0  0  0  0  0  0  0  0  0  0
   64.3334   31.3983   49.0468 H   0  0  0  0  0  0  0  0  0  0  0  0
   65.2643   32.9345   49.0468 H   0  0  0  0  0  0  0  0  0  0  0  0
   61.8080   33.7570   48.7850 S   0  0  0  0  0  0  0  0  0  0  0  0
  1  2  1  0
  2  3  1  0
  3  4  1  0
  4  5  2  0
  5  6  1  0
  6  7  2  0
  6  8  1  0
  8  9  1  0
  8 10  1  0
 10 11  2  0
 11 12  1  0
 11 13  1  0
 13 14  1  0
 13 15  2  0
 15 16  1  0
 15 17  1  0
 17 18  1  0
 17 19  2  0
 19 20  1  0
  4 21  1  0
 21 22  1  0
 21 23  2  0
 23 24  1  0
 23 25  1  0
 25 26  1  0
 26 27  1  0
 27 28  2  0
 28 29  1  0
 29 30  2  0
 30 31  1  0
 31 32  1  0
 31 33  1  0
 31 34  1  0
 30 35  1  0
 25  2  2  0
 35 27  1  0
 19 10  1  0
M  CHG  2   3  -1  20  -1
M  END
>  <UniqueID>  (59) 
59

>  <SMILES>  (59) 
Cc1nnc(Sc2cc/c(=N\C(=O)Nc3ccccc3[O-])[n-]c2)s1

>  <Energy>  (59) 
79.33101551272532

>  <Genealogy>  (59) 
Cc1nnc(Sc2ccc(=NC(=O)Nc3ccccc3[O-])[n-]c2)s1 (protonated)
Cc1nnc(Sc2cc/c(=N\C(=O)Nc3ccccc3[O-])[n-]c2)s1 (cis-trans isomerization)
Cc1nnc(Sc2cc/c(=N\C(=O)Nc3ccccc3[O-])[n-]c2)s1 (3D coordinates assigned)
Cc1nnc(Sc2cc/c(=N\C(=O)Nc3ccccc3[O-])[n-]c2)s1 (optimized conformer: 79.33101551272532 kcal/mol)

>  <smiles>  (59) 
Cc1nnc(Sc2ccc(=NC(=O)Nc3ccccc3O)[nH]c2)s1

>  <score_type>  (59) 
oracle

>  <origin>  (59) 
adg

>  <m_score__min__energy>  (59) 
-14

>  <m_primary>  (59) 
energy

$$$$
59:0
     RDKit          3D

 40 42  0  0  0  0  0  0  0  0999 V2000
   58.1040   23.4140   44.6330 C   0  0  0  0  0  0  0  0  0  0  0  0
   57.6050   23.6280   46.0280 C   0  0  0  0  0  0  0  0  0  0  0  0
   57.3780   22.6030   46.8780 N   0  0  0  0  0  0  0  0  0  0  0  0
   56.9140   23.1950   47.9960 C   0  0  0  0  0  0  0  0  0  0  0  0
   56.8670   24.5580   47.8130 C   0  0  0  0  0  0  0  0  0  0  0  0
   57.3160   24.8320   46.5760 N   0  0  0  0  0  0  0  0  0  0  0  0
   57.4260   26.1410   45.9890 C   0  0  0  0  0  0  0  0  0  0  0  0
   58.6770   26.6500   45.6040 C   0  0  0  0  0  0  0  0  0  0  0  0
   58.7780   27.9270   45.0460 C   0  0  0  0  0  0  0  0  0  0  0  0
   57.6350   28.7240   44.8810 C   0  0  0  0  0  0  0  0  0  0  0  0
   57.7520   30.0850   44.2480 C   0  0  0  0  0  0  0  0  0  0  0  0
   56.9180   31.0390   44.9810 N   0  0  0  0  0  0  0  0  0  0  0  0
   57.5500   32.6460   44.7870 S   0  0  0  0  0  0  0  0  0  0  0  0
   57.8200   32.9060   43.3300 O   0  0  0  0  0  0  0  0  0  0  0  0
   56.5400   33.6420   45.2830 O   0  0  0  0  0  0  0  0  0  0  0  0
   59.0330   32.8230   45.7220 C   0  0  0  0  0  0  0  0  0  0  0  0
   59.5780   31.7310   46.4120 C   0  0  0  0  0  0  0  0  0  0  0  0
   60.7540   31.8850   47.1550 C   0  0  0  0  0  0  0  0  0  0  0  0
   61.3880   33.1300   47.2110 C   0  0  0  0  0  0  0  0  0  0  0  0
   62.5260   33.2800   47.9320 F   0  0  0  0  0  0  0  0  0  0  0  0
   60.8490   34.2210   46.5210 C   0  0  0  0  0  0  0  0  0  0  0  0
   59.6760   34.0680   45.7760 C   0  0  0  0  0  0  0  0  0  0  0  0
   56.3800   28.2160   45.2670 C   0  0  0  0  0  0  0  0  0  0  0  0
   55.2260   28.9730   45.0950 O   0  0  0  0  0  0  0  0  0  0  0  0
   56.2830   26.9380   45.8270 C   0  0  0  0  0  0  0  0  0  0  0  0
   59.1145   22.9807   44.6675 H   0  0  0  0  0  0  0  0  0  0  0  0
   57.4281   22.7266   44.1032 H   0  0  0  0  0  0  0  0  0  0  0  0
   58.1361   24.3775   44.1032 H   0  0  0  0  0  0  0  0  0  0  0  0
   56.6178   22.6686   48.9153 H   0  0  0  0  0  0  0  0  0  0  0  0
   56.5215   25.2962   48.5517 H   0  0  0  0  0  0  0  0  0  0  0  0
   59.5820   26.0402   45.7424 H   0  0  0  0  0  0  0  0  0  0  0  0
   59.7607   28.3103   44.7338 H   0  0  0  0  0  0  0  0  0  0  0  0
   58.8008   30.4151   44.2800 H   0  0  0  0  0  0  0  0  0  0  0  0
   57.4152   30.0324   43.2022 H   0  0  0  0  0  0  0  0  0  0  0  0
   55.9630   31.0340   44.5530 H   0  0  0  0  0  0  0  0  0  0  0  0
   59.0802   30.7510   46.3693 H   0  0  0  0  0  0  0  0  0  0  0  0
   61.1796   31.0264   47.6950 H   0  0  0  0  0  0  0  0  0  0  0  0
   61.3485   35.2001   46.5647 H   0  0  0  0  0  0  0  0  0  0  0  0
   59.2564   34.9263   45.2308 H   0  0  0  0  0  0  0  0  0  0  0  0
   55.3017   26.5545   46.1432 H   0  0  0  0  0  0  0  0  0  0  0  0
  1  2  1  0
  2  3  2  0
  3  4  1  0
  4  5  2  0
  5  6  1  0
  6  7  1  0
  7  8  2  0
  8  9  1  0
  9 10  2  0
 10 11  1  0
 11 12  1  0
 12 13  1  0
 13 14  2  0
 13 15  2  0
 13 16  1  0
 16 17  2  0
 17 18  1  0
 18 19  2  0
 19 20  1  0
 19 21  1  0
 21 22  2  0
 10 23  1  0
 23 24  1  0
 23 25  2  0
  6  2  1  0
 25  7  1  0
 22 16  1  0
  1 26  1  0
  1 27  1  0
  1 28  1  0
  4 29  1  0
  5 30  1  0
  8 31  1  0
  9 32  1  0
 11 33  1  0
 11 34  1  0
 12 35  1  0
 17 36  1  0
 18 37  1  0
 21 38  1  0
 22 39  1  0
 25 40  1  0
M  CHG  1  24  -1
M  END
>  <UniqueID>  (60) 
60

>  <SMILES>  (60) 
Cc1nccn1-c1ccc(CNS(=O)(=O)c2ccc(F)cc2)c([O-])c1

>  <Energy>  (60) 
73.59094754623713

>  <Genealogy>  (60) 
Cc1nccn1-c1ccc(CNS(=O)(=O)c2ccc(F)cc2)c([O-])c1 (protonated)
Cc1nccn1-c1ccc(CNS(=O)(=O)c2ccc(F)cc2)c([O-])c1 (3D coordinates assigned)
Cc1nccn1-c1ccc(CNS(=O)(=O)c2ccc(F)cc2)c([O-])c1 (optimized conformer: 73.59094754623713 kcal/mol)

>  <smiles>  (60) 
Cc1nccn1-c1ccc(CNS(=O)(=O)c2ccc(F)cc2)c(O)c1

>  <score_type>  (60) 
oracle

>  <origin>  (60) 
adg

>  <m_score__min__energy>  (60) 
-12.06

>  <m_primary>  (60) 
energy

$$$$
60:0
     RDKit          3D

 47 49  0  0  0  0  0  0  0  0999 V2000
   61.1610   28.5710   44.7400 C   0  0  0  0  0  0  0  0  0  0  0  0
   59.6490   28.7480   44.6220 C   0  0  0  0  0  0  0  0  0  0  0  0
   58.9310   27.8510   45.5420 N   0  0  0  0  0  0  0  0  0  0  0  0
   57.8340   27.0180   45.0220 C   0  0  0  0  0  0  0  0  0  0  0  0
   56.5220   27.3980   45.6330 C   0  0  0  0  0  0  0  0  0  0  0  0
   55.9230   26.5920   46.3960 O   0  0  0  0  0  0  0  0  0  0  0  0
   55.8990   28.6260   45.2400 N   0  0  0  0  0  0  0  0  0  0  0  0
   56.5320   29.7320   44.5780 C   0  0  0  0  0  0  0  0  0  0  0  0
   56.3520   29.8760   43.1980 C   0  0  0  0  0  0  0  0  0  0  0  0
   56.9640   30.9280   42.5090 C   0  0  0  0  0  0  0  0  0  0  0  0
   57.7760   31.8360   43.1960 C   0  0  0  0  0  0  0  0  0  0  0  0
   57.9850   31.6830   44.5650 C   0  0  0  0  0  0  0  0  0  0  0  0
   58.7860   32.5540   45.2260 F   0  0  0  0  0  0  0  0  0  0  0  0
   57.3720   30.6310   45.2550 C   0  0  0  0  0  0  0  0  0  0  0  0
   59.2720   27.8770   46.9500 C   0  0  0  0  0  0  0  0  0  0  0  0
   58.7620   27.0240   47.7280 O   0  0  0  0  0  0  0  0  0  0  0  0
   60.2870   28.8300   47.5200 C   0  0  0  0  0  0  0  0  0  0  0  0
   59.7420   29.7000   48.6180 C   0  0  0  0  0  0  0  0  0  0  0  0
   58.6780   29.3800   49.4350 C   0  0  0  0  0  0  0  0  0  0  0  0
   58.2900   30.4740   50.1160 N   0  0  0  0  0  0  0  0  0  0  0  0
   59.0570   31.4910   49.7530 N   0  0  0  0  0  0  0  0  0  0  0  0
   59.9460   31.0520   48.8460 C   0  0  0  0  0  0  0  0  0  0  0  0
   60.9020   31.9390   48.1690 C   0  0  0  0  0  0  0  0  0  0  0  0
   60.4510   33.0650   47.4660 C   0  0  0  0  0  0  0  0  0  0  0  0
   61.3630   33.8890   46.8010 C   0  0  0  0  0  0  0  0  0  0  0  0
   62.7260   33.5830   46.8200 C   0  0  0  0  0  0  0  0  0  0  0  0
   63.6100   34.3820   46.1700 F   0  0  0  0  0  0  0  0  0  0  0  0
   63.1780   32.4490   47.4980 C   0  0  0  0  0  0  0  0  0  0  0  0
   62.2680   31.6230   48.1650 C   0  0  0  0  0  0  0  0  0  0  0  0
   61.4445   28.5378   45.8023 H   0  0  0  0  0  0  0  0  0  0  0  0
   61.4595   27.6318   44.2513 H   0  0  0  0  0  0  0  0  0  0  0  0
   61.6683   29.4159   44.2513 H   0  0  0  0  0  0  0  0  0  0  0  0
   59.3905   29.7897   44.8630 H   0  0  0  0  0  0  0  0  0  0  0  0
   59.3502   28.5004   43.5927 H   0  0  0  0  0  0  0  0  0  0  0  0
   57.7719   27.1482   43.9315 H   0  0  0  0  0  0  0  0  0  0  0  0
   58.0444   25.9693   45.2789 H   0  0  0  0  0  0  0  0  0  0  0  0
   55.7247   29.1567   42.6511 H   0  0  0  0  0  0  0  0  0  0  0  0
   56.8066   31.0413   41.4262 H   0  0  0  0  0  0  0  0  0  0  0  0
   58.2490   32.6697   42.6564 H   0  0  0  0  0  0  0  0  0  0  0  0
   57.5491   30.5076   46.3336 H   0  0  0  0  0  0  0  0  0  0  0  0
   61.1261   28.2445   47.9238 H   0  0  0  0  0  0  0  0  0  0  0  0
   60.5989   29.4973   46.7030 H   0  0  0  0  0  0  0  0  0  0  0  0
   58.2176   28.3844   49.5173 H   0  0  0  0  0  0  0  0  0  0  0  0
   59.3769   33.3004   47.4378 H   0  0  0  0  0  0  0  0  0  0  0  0
   61.0073   34.7795   46.2620 H   0  0  0  0  0  0  0  0  0  0  0  0
   64.2506   32.2053   47.5074 H   0  0  0  0  0  0  0  0  0  0  0  0
   62.6246   30.7233   48.6878 H   0  0  0  0  0  0  0  0  0  0  0  0
  1  2  1  0
  2  3  1  0
  3  4  1  0
  4  5  1  0
  5  6  2  0
  5  7  1  0
  7  8  1  0
  8  9  2  0
  9 10  1  0
 10 11  2  0
 11 12  1  0
 12 13  1  0
 12 14  2  0
  3 15  1  0
 15 16  2  0
 15 17  1  0
 17 18  1  0
 18 19  2  0
 19 20  1  0
 20 21  1  0
 21 22  2  0
 22 23  1  0
 23 24  2  0
 24 25  1  0
 25 26  2  0
 26 27  1  0
 26 28  1  0
 28 29  2  0
 14  8  1  0
 22 18  1  0
 29 23  1  0
  1 30  1  0
  1 31  1  0
  1 32  1  0
  2 33  1  0
  2 34  1  0
  4 35  1  0
  4 36  1  0
  9 37  1  0
 10 38  1  0
 11 39  1  0
 14 40  1  0
 17 41  1  0
 17 42  1  0
 19 43  1  0
 24 44  1  0
 25 45  1  0
 28 46  1  0
 29 47  1  0
M  CHG  2   7  -1  20  -1
M  END
>  <UniqueID>  (61) 
61

>  <SMILES>  (61) 
CCN(CC(=O)[N-]c1cccc(F)c1)C(=O)Cc1c[n-]nc1-c1ccc(F)cc1

>  <Energy>  (61) 
81.4247031401905

>  <Genealogy>  (61) 
CCN(CC(=O)[N-]c1cccc(F)c1)C(=O)Cc1c[n-]nc1-c1ccc(F)cc1 (protonated)
CCN(CC(=O)[N-]c1cccc(F)c1)C(=O)Cc1c[n-]nc1-c1ccc(F)cc1 (3D coordinates assigned)
CCN(CC(=O)[N-]c1cccc(F)c1)C(=O)Cc1c[n-]nc1-c1ccc(F)cc1 (optimized conformer: 81.4247031401905 kcal/mol)

>  <smiles>  (61) 
CCN(CC(=O)Nc1cccc(F)c1)C(=O)Cc1c[nH]nc1-c1ccc(F)cc1

>  <score_type>  (61) 
oracle

>  <origin>  (61) 
adg

>  <m_score__min__energy>  (61) 
-11.300000000000001

>  <m_primary>  (61) 
energy

$$$$
61:0
     RDKit          3D

 45 48  0  0  0  0  0  0  0  0999 V2000
   63.6120   31.1110   50.3450 H   0  0  0  0  0  0  0  0  0  0  0  0
   64.4200   30.7810   50.8590 O   0  0  0  0  0  0  0  0  0  0  0  0
   65.5830   31.5450   50.9580 C   0  0  0  0  0  0  0  0  0  0  0  0
   66.7180   31.0240   51.5970 C   0  0  0  0  0  0  0  0  0  0  0  0
   66.6929   30.0078   52.0173 H   0  0  0  0  0  0  0  0  0  0  0  0
   67.8810   31.7930   51.7010 C   0  0  0  0  0  0  0  0  0  0  0  0
   68.7713   31.3789   52.1968 H   0  0  0  0  0  0  0  0  0  0  0  0
   67.9130   33.0860   51.1760 C   0  0  0  0  0  0  0  0  0  0  0  0
   68.8273   33.6914   51.2626 H   0  0  0  0  0  0  0  0  0  0  0  0
   66.7860   33.6120   50.5410 C   0  0  0  0  0  0  0  0  0  0  0  0
   66.8108   34.6368   50.1420 H   0  0  0  0  0  0  0  0  0  0  0  0
   65.6170   32.8360   50.4090 C   0  0  0  0  0  0  0  0  0  0  0  0
   64.4420   33.3580   49.7690 N   0  0  0  0  0  0  0  0  0  0  0  0
   63.6560   32.6800   48.7790 C   0  0  0  0  0  0  0  0  0  0  0  0
   64.0930   31.6060   48.2890 O   0  0  0  0  0  0  0  0  0  0  0  0
   62.3710   33.2320   48.2920 C   0  0  0  0  0  0  0  0  0  0  0  0
   61.2700   33.3460   49.1550 C   0  0  0  0  0  0  0  0  0  0  0  0
   61.3722   33.0605   50.2124 H   0  0  0  0  0  0  0  0  0  0  0  0
   60.0450   33.8200   48.6790 C   0  0  0  0  0  0  0  0  0  0  0  0
   59.1866   33.9004   49.3622 H   0  0  0  0  0  0  0  0  0  0  0  0
   59.9040   34.1940   47.3340 C   0  0  0  0  0  0  0  0  0  0  0  0
   58.5570   34.5980   46.8020 C   0  0  0  0  0  0  0  0  0  0  0  0
   57.8439   34.6800   47.6355 H   0  0  0  0  0  0  0  0  0  0  0  0
   58.6418   35.5694   46.2928 H   0  0  0  0  0  0  0  0  0  0  0  0
   58.0710   33.5680   45.8300 C   0  0  0  0  0  0  0  0  0  0  0  0
   57.9750   31.9140   46.1360 S   0  0  0  0  0  0  0  0  0  0  0  0
   57.5550   31.5630   44.5480 C   0  0  0  0  0  0  0  0  0  0  0  0
   57.3150   30.3620   44.1180 N   0  0  0  0  0  0  0  0  0  0  0  0
   56.3460   29.4670   44.6820 C   0  0  0  0  0  0  0  0  0  0  0  0
   55.1430   29.8350   44.7480 O   0  0  0  0  0  0  0  0  0  0  0  0
   56.7260   28.1610   45.2500 C   0  0  0  0  0  0  0  0  0  0  0  0
   55.8580   27.2720   45.6740 O   0  0  0  0  0  0  0  0  0  0  0  0
   56.5120   26.2330   46.1390 C   0  0  0  0  0  0  0  0  0  0  0  0
   56.0473   25.3282   46.5579 H   0  0  0  0  0  0  0  0  0  0  0  0
   57.8700   26.4470   46.0230 C   0  0  0  0  0  0  0  0  0  0  0  0
   58.6759   25.7616   46.3242 H   0  0  0  0  0  0  0  0  0  0  0  0
   58.0120   27.6940   45.4530 C   0  0  0  0  0  0  0  0  0  0  0  0
   58.9524   28.2103   45.2101 H   0  0  0  0  0  0  0  0  0  0  0  0
   57.4810   32.6740   43.7780 N   0  0  0  0  0  0  0  0  0  0  0  0
   57.7760   33.7930   44.4890 C   0  0  0  0  0  0  0  0  0  0  0  0
   57.7813   34.7973   44.0403 H   0  0  0  0  0  0  0  0  0  0  0  0
   61.0110   34.1010   46.4750 C   0  0  0  0  0  0  0  0  0  0  0  0
   60.9115   34.3953   45.4198 H   0  0  0  0  0  0  0  0  0  0  0  0
   62.2390   33.6360   46.9550 C   0  0  0  0  0  0  0  0  0  0  0  0
   63.1066   33.5866   46.2806 H   0  0  0  0  0  0  0  0  0  0  0  0
  1  2  1  0
  2  3  1  0
  3  4  2  0
  4  5  1  0
  4  6  1  0
  6  7  1  0
  6  8  2  0
  8  9  1  0
  8 10  1  0
 10 11  1  0
 10 12  2  0
 12 13  1  0
 13 14  1  0
 14 15  2  0
 14 16  1  0
 16 17  2  0
 17 18  1  0
 17 19  1  0
 19 20  1  0
 19 21  2  0
 21 22  1  0
 22 23  1  0
 22 24  1  0
 22 25  1  0
 25 26  1  0
 26 27  1  0
 27 28  2  0
 28 29  1  0
 29 30  2  0
 29 31  1  0
 31 32  1  0
 32 33  1  0
 33 34  1  0
 33 35  2  0
 35 36  1  0
 35 37  1  0
 37 38  1  0
 27 39  1  0
 39 40  1  0
 40 41  1  0
 21 42  1  0
 42 43  1  0
 42 44  2  0
 44 45  1  0
 12  3  1  0
 44 16  1  0
 40 25  2  0
 37 31  2  0
M  CHG  2  13  -1  39  -1
M  END
>  <UniqueID>  (62) 
62

>  <SMILES>  (62) 
O=C([N-]c1ccccc1O)c1ccc(Cc2c[n-]/c(=N\C(=O)c3ccco3)s2)cc1

>  <Energy>  (62) 
115.11953963744622

>  <Genealogy>  (62) 
O=C([N-]c1ccccc1O)c1ccc(Cc2c[n-]c(=NC(=O)c3ccco3)s2)cc1 (protonated)
O=C([N-]c1ccccc1O)c1ccc(Cc2c[n-]/c(=N\C(=O)c3ccco3)s2)cc1 (cis-trans isomerization)
O=C([N-]c1ccccc1O)c1ccc(Cc2c[n-]/c(=N\C(=O)c3ccco3)s2)cc1 (3D coordinates assigned)
O=C([N-]c1ccccc1O)c1ccc(Cc2c[n-]/c(=N\C(=O)c3ccco3)s2)cc1 (optimized conformer: 115.11953963744622 kcal/mol)

>  <smiles>  (62) 
O=C(Nc1ccccc1O)c1ccc(Cc2c[nH]c(=NC(=O)c3ccco3)s2)cc1

>  <score_type>  (62) 
oracle

>  <origin>  (62) 
adg

>  <m_score__min__energy>  (62) 
-11.93

>  <m_primary>  (62) 
energy

$$$$
62:0
     RDKit          3D

 37 39  0  0  0  0  0  0  0  0999 V2000
   55.3960   29.2780   44.8990 O   0  0  0  0  0  0  0  0  0  0  0  0
   56.5740   29.7220   44.9460 C   0  0  0  0  0  0  0  0  0  0  0  0
   56.8510   31.0070   44.3760 N   0  0  0  0  0  0  0  0  0  0  0  0
   57.5430   32.0820   45.0260 C   0  0  0  0  0  0  0  0  0  0  0  0
   57.3920   33.3810   44.5280 C   0  0  0  0  0  0  0  0  0  0  0  0
   58.0750   34.4480   45.1190 C   0  0  0  0  0  0  0  0  0  0  0  0
   58.9210   34.2210   46.2060 C   0  0  0  0  0  0  0  0  0  0  0  0
   59.0900   32.9200   46.7130 C   0  0  0  0  0  0  0  0  0  0  0  0
   59.9570   32.6470   47.7820 O   0  0  0  0  0  0  0  0  0  0  0  0
   61.3500   32.7970   47.7560 C   0  0  0  0  0  0  0  0  0  0  0  0
   62.0000   33.5770   46.7800 C   0  0  0  0  0  0  0  0  0  0  0  0
   63.3910   33.7150   46.8000 C   0  0  0  0  0  0  0  0  0  0  0  0
   64.1430   33.0890   47.7980 C   0  0  0  0  0  0  0  0  0  0  0  0
   63.5030   32.3290   48.7810 C   0  0  0  0  0  0  0  0  0  0  0  0
   62.1110   32.1900   48.7630 C   0  0  0  0  0  0  0  0  0  0  0  0
   58.4190   31.8530   46.1040 C   0  0  0  0  0  0  0  0  0  0  0  0
   57.5920   28.9970   45.6540 N   0  0  0  0  0  0  0  0  0  0  0  0
   57.5260   27.5890   45.9390 C   0  0  0  0  0  0  0  0  0  0  0  0
   58.7140   26.8640   46.1070 C   0  0  0  0  0  0  0  0  0  0  0  0
   58.6570   25.4910   46.3600 C   0  0  0  0  0  0  0  0  0  0  0  0
   57.4550   24.8600   46.4280 N   0  0  0  0  0  0  0  0  0  0  0  0
   56.2870   25.5310   46.2510 C   0  0  0  0  0  0  0  0  0  0  0  0
   55.1940   24.9090   46.3100 O   0  0  0  0  0  0  0  0  0  0  0  0
   56.2980   26.9060   45.9960 C   0  0  0  0  0  0  0  0  0  0  0  0
   56.7323   33.5635   43.6669 H   0  0  0  0  0  0  0  0  0  0  0  0
   57.9457   35.4676   44.7271 H   0  0  0  0  0  0  0  0  0  0  0  0
   59.4576   35.0629   46.6678 H   0  0  0  0  0  0  0  0  0  0  0  0
   61.4108   34.0796   45.9988 H   0  0  0  0  0  0  0  0  0  0  0  0
   63.8943   34.3171   46.0292 H   0  0  0  0  0  0  0  0  0  0  0  0
   65.2379   33.1944   47.8098 H   0  0  0  0  0  0  0  0  0  0  0  0
   64.0941   31.8399   49.5692 H   0  0  0  0  0  0  0  0  0  0  0  0
   61.6108   31.5999   49.5451 H   0  0  0  0  0  0  0  0  0  0  0  0
   58.5774   30.8280   46.4705 H   0  0  0  0  0  0  0  0  0  0  0  0
   58.3880   29.5430   46.0540 H   0  0  0  0  0  0  0  0  0  0  0  0
   59.6865   27.3736   46.0400 H   0  0  0  0  0  0  0  0  0  0  0  0
   59.5861   24.9200   46.5043 H   0  0  0  0  0  0  0  0  0  0  0  0
   55.3539   27.4488   45.8413 H   0  0  0  0  0  0  0  0  0  0  0  0
  1  2  2  0
  2  3  1  0
  3  4  1  0
  4  5  2  0
  5  6  1  0
  6  7  2  0
  7  8  1  0
  8  9  1  0
  9 10  1  0
 10 11  2  0
 11 12  1  0
 12 13  2  0
 13 14  1  0
 14 15  2  0
  8 16  2  0
  2 17  1  0
 17 18  1  0
 18 19  1  0
 19 20  2  0
 20 21  1  0
 21 22  1  0
 22 23  2  0
 22 24  1  0
 16  4  1  0
 24 18  2  0
 15 10  1  0
  5 25  1  0
  6 26  1  0
  7 27  1  0
 11 28  1  0
 12 29  1  0
 13 30  1  0
 14 31  1  0
 15 32  1  0
 16 33  1  0
 17 34  1  0
 19 35  1  0
 20 36  1  0
 24 37  1  0
M  CHG  2   3  -1  21  -1
M  END
>  <UniqueID>  (63) 
63

>  <SMILES>  (63) 
O=C([N-]c1cccc(Oc2ccccc2)c1)Nc1cc[n-]c(=O)c1

>  <Energy>  (63) 
54.10575709687407

>  <Genealogy>  (63) 
O=C([N-]c1cccc(Oc2ccccc2)c1)Nc1cc[n-]c(=O)c1 (protonated)
O=C([N-]c1cccc(Oc2ccccc2)c1)Nc1cc[n-]c(=O)c1 (3D coordinates assigned)
O=C([N-]c1cccc(Oc2ccccc2)c1)Nc1cc[n-]c(=O)c1 (optimized conformer: 54.10575709687407 kcal/mol)

>  <smiles>  (63) 
O=C(Nc1cccc(Oc2ccccc2)c1)Nc1cc[nH]c(=O)c1

>  <score_type>  (63) 
oracle

>  <origin>  (63) 
adg

>  <m_score__min__energy>  (63) 
-12.18

>  <m_primary>  (63) 
energy

$$$$
63:0
     RDKit          3D

 42 43  0  0  0  0  0  0  0  0999 V2000
   63.3870   33.5830   46.3750 O   0  0  0  0  0  0  0  0  0  0  0  0
   63.4170   32.7360   47.3060 C   0  0  0  0  0  0  0  0  0  0  0  0
   62.8180   31.4950   47.1280 O   0  0  0  0  0  0  0  0  0  0  0  0
   64.0460   33.0810   48.6190 C   0  0  0  0  0  0  0  0  0  0  0  0
   63.0680   33.8830   49.4840 C   0  0  0  0  0  0  0  0  0  0  0  0
   61.6180   33.3780   49.3700 C   0  0  0  0  0  0  0  0  0  0  0  0
   60.6690   34.3290   48.6190 C   0  0  0  0  0  0  0  0  0  0  0  0
   59.6900   33.5860   47.7460 C   0  0  0  0  0  0  0  0  0  0  0  0
   59.4310   32.2250   47.9680 C   0  0  0  0  0  0  0  0  0  0  0  0
   58.5640   31.5240   47.1250 C   0  0  0  0  0  0  0  0  0  0  0  0
   57.9500   32.1700   46.0370 C   0  0  0  0  0  0  0  0  0  0  0  0
   57.0780   31.4670   45.1320 N   0  0  0  0  0  0  0  0  0  0  0  0
   57.5300   30.4610   44.1690 C   0  0  0  0  0  0  0  0  0  0  0  0
   57.5940   29.0970   44.8130 C   0  0  0  0  0  0  0  0  0  0  0  0
   58.8360   28.4860   45.0470 C   0  0  0  0  0  0  0  0  0  0  0  0
   58.9010   27.2150   45.6230 C   0  0  0  0  0  0  0  0  0  0  0  0
   57.7290   26.5460   45.9770 C   0  0  0  0  0  0  0  0  0  0  0  0
   56.4820   27.1470   45.7610 C   0  0  0  0  0  0  0  0  0  0  0  0
   55.3080   26.4850   46.1170 O   0  0  0  0  0  0  0  0  0  0  0  0
   56.4130   28.4210   45.1820 C   0  0  0  0  0  0  0  0  0  0  0  0
   55.1700   29.0130   44.9760 O   0  0  0  0  0  0  0  0  0  0  0  0
   58.1960   33.5360   45.8320 C   0  0  0  0  0  0  0  0  0  0  0  0
   59.0630   34.2380   46.6750 C   0  0  0  0  0  0  0  0  0  0  0  0
   64.3194   32.1543   49.1448 H   0  0  0  0  0  0  0  0  0  0  0  0
   64.9436   33.6900   48.4362 H   0  0  0  0  0  0  0  0  0  0  0  0
   63.3848   33.8075   50.5347 H   0  0  0  0  0  0  0  0  0  0  0  0
   63.0855   34.9230   49.1261 H   0  0  0  0  0  0  0  0  0  0  0  0
   61.6303   32.4147   48.8391 H   0  0  0  0  0  0  0  0  0  0  0  0
   61.2326   33.2977   50.3972 H   0  0  0  0  0  0  0  0  0  0  0  0
   60.1072   34.9227   49.3551 H   0  0  0  0  0  0  0  0  0  0  0  0
   61.2807   34.9715   47.9686 H   0  0  0  0  0  0  0  0  0  0  0  0
   59.9129   31.7068   48.8101 H   0  0  0  0  0  0  0  0  0  0  0  0
   58.3605   30.4596   47.3139 H   0  0  0  0  0  0  0  0  0  0  0  0
   56.0730   31.7530   45.0870 H   0  0  0  0  0  0  0  0  0  0  0  0
   56.8268   30.4286   43.3237 H   0  0  0  0  0  0  0  0  0  0  0  0
   58.5361   30.7341   43.8181 H   0  0  0  0  0  0  0  0  0  0  0  0
   59.7635   29.0112   44.7752 H   0  0  0  0  0  0  0  0  0  0  0  0
   59.8780   26.7408   45.7978 H   0  0  0  0  0  0  0  0  0  0  0  0
   57.7842   25.5438   46.4270 H   0  0  0  0  0  0  0  0  0  0  0  0
   54.3990   26.9170   45.9980 H   0  0  0  0  0  0  0  0  0  0  0  0
   57.7021   34.0597   45.0002 H   0  0  0  0  0  0  0  0  0  0  0  0
   59.2539   35.3066   46.4970 H   0  0  0  0  0  0  0  0  0  0  0  0
  1  2  2  0
  2  3  1  0
  2  4  1  0
  4  5  1  0
  5  6  1  0
  6  7  1  0
  7  8  1  0
  8  9  2  0
  9 10  1  0
 10 11  2  0
 11 12  1  0
 12 13  1  0
 13 14  1  0
 14 15  2  0
 15 16  1  0
 16 17  2  0
 17 18  1  0
 18 19  1  0
 18 20  2  0
 20 21  1  0
 11 22  1  0
 22 23  2  0
 23  8  1  0
 20 14  1  0
  4 24  1  0
  4 25  1  0
  5 26  1  0
  5 27  1  0
  6 28  1  0
  6 29  1  0
  7 30  1  0
  7 31  1  0
  9 32  1  0
 10 33  1  0
 12 34  1  0
 13 35  1  0
 13 36  1  0
 15 37  1  0
 16 38  1  0
 17 39  1  0
 19 40  1  0
 22 41  1  0
 23 42  1  0
M  CHG  2   3  -1  21  -1
M  END
>  <UniqueID>  (64) 
64

>  <SMILES>  (64) 
O=C([O-])CCCCc1ccc(NCc2cccc(O)c2[O-])cc1

>  <Energy>  (64) 
34.76249441559014

>  <Genealogy>  (64) 
O=C([O-])CCCCc1ccc(NCc2cccc(O)c2[O-])cc1 (protonated)
O=C([O-])CCCCc1ccc(NCc2cccc(O)c2[O-])cc1 (3D coordinates assigned)
O=C([O-])CCCCc1ccc(NCc2cccc(O)c2[O-])cc1 (optimized conformer: 34.76249441559014 kcal/mol)

>  <smiles>  (64) 
O=C(O)CCCCc1ccc(NCc2cccc(O)c2O)cc1

>  <score_type>  (64) 
oracle

>  <origin>  (64) 
adg

>  <m_score__min__energy>  (64) 
-12.17

>  <m_primary>  (64) 
energy

$$$$
64:0
     RDKit          3D

 33 34  0  0  0  0  0  0  0  0999 V2000
   58.8670   30.1990   47.6760 C   0  0  0  0  0  0  0  0  0  0  0  0
   58.0900   30.4340   46.5250 O   0  0  0  0  0  0  0  0  0  0  0  0
   58.1580   31.6520   45.9090 C   0  0  0  0  0  0  0  0  0  0  0  0
   58.7740   32.7480   46.5220 C   0  0  0  0  0  0  0  0  0  0  0  0
   58.8430   33.9810   45.9000 C   0  0  0  0  0  0  0  0  0  0  0  0
   59.6380   35.3200   46.7380 Cl  0  0  0  0  0  0  0  0  0  0  0  0
   58.2930   34.1420   44.6430 C   0  0  0  0  0  0  0  0  0  0  0  0
   57.6810   33.0510   44.0360 C   0  0  0  0  0  0  0  0  0  0  0  0
   57.6010   31.8140   44.6360 C   0  0  0  0  0  0  0  0  0  0  0  0
   56.8360   30.4310   43.9050 S   0  0  0  0  0  0  0  0  0  0  0  0
   55.6180   30.0500   44.7360 O   0  0  0  0  0  0  0  0  0  0  0  0
   56.3040   30.8120   42.5580 O   0  0  0  0  0  0  0  0  0  0  0  0
   57.8650   29.0720   43.7870 N   0  0  0  0  0  0  0  0  0  0  0  0
   57.8810   28.0670   44.7920 C   0  0  0  0  0  0  0  0  0  0  0  0
   56.7720   27.4720   45.2640 N   0  0  0  0  0  0  0  0  0  0  0  0
   56.8340   26.5150   46.2270 C   0  0  0  0  0  0  0  0  0  0  0  0
   55.8040   25.9470   46.6800 O   0  0  0  0  0  0  0  0  0  0  0  0
   58.0280   26.1250   46.7500 N   0  0  0  0  0  0  0  0  0  0  0  0
   59.1400   26.6960   46.3040 N   0  0  0  0  0  0  0  0  0  0  0  0
   60.4590   26.3420   46.8040 C   0  0  0  0  0  0  0  0  0  0  0  0
   59.0830   27.6450   45.3480 C   0  0  0  0  0  0  0  0  0  0  0  0
   60.1280   28.2020   44.9090 O   0  0  0  0  0  0  0  0  0  0  0  0
   58.2581   30.3832   48.5734 H   0  0  0  0  0  0  0  0  0  0  0  0
   59.2149   29.1555   47.6768 H   0  0  0  0  0  0  0  0  0  0  0  0
   59.7349   30.8748   47.6768 H   0  0  0  0  0  0  0  0  0  0  0  0
   59.2140   32.6261   47.5228 H   0  0  0  0  0  0  0  0  0  0  0  0
   58.3384   35.1150   44.1319 H   0  0  0  0  0  0  0  0  0  0  0  0
   57.2428   33.1813   43.0355 H   0  0  0  0  0  0  0  0  0  0  0  0
   58.4840   28.9770   42.9770 H   0  0  0  0  0  0  0  0  0  0  0  0
   58.1040   25.3960   47.4880 H   0  0  0  0  0  0  0  0  0  0  0  0
   60.4472   26.3452   47.9039 H   0  0  0  0  0  0  0  0  0  0  0  0
   60.7309   25.3391   46.4431 H   0  0  0  0  0  0  0  0  0  0  0  0
   61.1965   27.0740   46.4431 H   0  0  0  0  0  0  0  0  0  0  0  0
  1  2  1  0
  2  3  1  0
  3  4  2  0
  4  5  1  0
  5  6  1  0
  5  7  2  0
  7  8  1  0
  8  9  2  0
  9 10  1  0
 10 11  2  0
 10 12  2  0
 10 13  1  0
 13 14  1  0
 14 15  2  0
 15 16  1  0
 16 17  2  0
 16 18  1  0
 18 19  1  0
 19 20  1  0
 19 21  1  0
 21 22  2  0
  9  3  1  0
 21 14  1  0
  1 23  1  0
  1 24  1  0
  1 25  1  0
  4 26  1  0
  7 27  1  0
  8 28  1  0
 13 29  1  0
 18 30  1  0
 20 31  1  0
 20 32  1  0
 20 33  1  0
M  END
>  <smiles>  (65) 
COc1cc(Cl)ccc1S(=O)(=O)Nc1nc(=O)[nH]n(C)c1=O

>  <score_type>  (65) 
oracle

>  <origin>  (65) 
adg

>  <m_score__min__energy>  (65) 
-8.3000000000000007

>  <m_primary>  (65) 
energy

$$$$
65:0
     RDKit          3D

 58 61  0  0  0  0  0  0  0  0999 V2000
   60.1820   27.7020   49.7220 O   0  0  0  0  0  0  0  0  0  0  0  0
   59.8700   28.8090   49.1970 C   0  0  0  0  0  0  0  0  0  0  0  0
   59.6590   28.8680   47.7030 C   0  0  0  0  0  0  0  0  0  0  0  0
   59.2230   30.2660   47.2560 C   0  0  0  0  0  0  0  0  0  0  0  0
   58.4040   30.2190   45.9810 C   0  0  0  0  0  0  0  0  0  0  0  0
   58.8730   30.8310   44.7980 C   0  0  0  0  0  0  0  0  0  0  0  0
   58.0970   30.8050   43.6240 C   0  0  0  0  0  0  0  0  0  0  0  0
   56.8530   30.1680   43.6300 C   0  0  0  0  0  0  0  0  0  0  0  0
   56.0930   30.1070   42.4700 O   0  0  0  0  0  0  0  0  0  0  0  0
   56.3750   29.5780   44.8170 C   0  0  0  0  0  0  0  0  0  0  0  0
   55.1410   28.9520   44.8420 O   0  0  0  0  0  0  0  0  0  0  0  0
   57.1420   29.6100   45.9850 C   0  0  0  0  0  0  0  0  0  0  0  0
   59.6170   29.9350   50.0530 N   0  0  0  0  0  0  0  0  0  0  0  0
   58.6730   29.9810   51.1300 C   0  0  0  0  0  0  0  0  0  0  0  0
   58.6780   28.9300   52.0510 C   0  0  0  0  0  0  0  0  0  0  0  0
   57.7110   28.8660   53.0510 C   0  0  0  0  0  0  0  0  0  0  0  0
   56.7260   29.8510   53.1460 C   0  0  0  0  0  0  0  0  0  0  0  0
   56.7280   30.9450   52.2660 C   0  0  0  0  0  0  0  0  0  0  0  0
   55.6160   31.9650   52.3580 C   0  0  0  0  0  0  0  0  0  0  0  0
   54.3060   31.3260   51.9770 C   0  0  0  0  0  0  0  0  0  0  0  0
   54.1410   29.9350   52.0780 C   0  0  0  0  0  0  0  0  0  0  0  0
   52.9050   29.3560   51.7810 C   0  0  0  0  0  0  0  0  0  0  0  0
   51.8240   30.1550   51.3960 C   0  0  0  0  0  0  0  0  0  0  0  0
   51.9820   31.5330   51.2860 C   0  0  0  0  0  0  0  0  0  0  0  0
   50.9100   32.3260   50.8900 O   0  0  0  0  0  0  0  0  0  0  0  0
   53.2200   32.1160   51.5780 C   0  0  0  0  0  0  0  0  0  0  0  0
   57.7330   31.0390   51.2740 C   0  0  0  0  0  0  0  0  0  0  0  0
   57.7560   32.1840   50.4000 N   0  0  0  0  0  0  0  0  0  0  0  0
   58.9060   32.9760   50.0790 C   0  0  0  0  0  0  0  0  0  0  0  0
   59.6570   33.3570   51.0120 O   0  0  0  0  0  0  0  0  0  0  0  0
   59.2390   33.3370   48.6870 C   0  0  0  0  0  0  0  0  0  0  0  0
   60.5770   33.5920   48.3100 C   0  0  0  0  0  0  0  0  0  0  0  0
   60.8840   33.9480   46.9940 C   0  0  0  0  0  0  0  0  0  0  0  0
   59.8650   34.0390   46.0400 C   0  0  0  0  0  0  0  0  0  0  0  0
   58.5300   33.7830   46.4060 C   0  0  0  0  0  0  0  0  0  0  0  0
   57.2550   33.8870   45.2050 Cl  0  0  0  0  0  0  0  0  0  0  0  0
   58.2190   33.4440   47.7270 C   0  0  0  0  0  0  0  0  0  0  0  0
   60.6009   28.6081   47.1978 H   0  0  0  0  0  0  0  0  0  0  0  0
   58.8643   28.1555   47.4368 H   0  0  0  0  0  0  0  0  0  0  0  0
   58.6162   30.7215   48.0525 H   0  0  0  0  0  0  0  0  0  0  0  0
   60.1277   30.8601   47.0598 H   0  0  0  0  0  0  0  0  0  0  0  0
   59.8523   31.3319   44.7939 H   0  0  0  0  0  0  0  0  0  0  0  0
   58.4680   31.2839   42.7058 H   0  0  0  0  0  0  0  0  0  0  0  0
   55.3050   29.4800   42.3870 H   0  0  0  0  0  0  0  0  0  0  0  0
   56.7543   29.1563   46.9090 H   0  0  0  0  0  0  0  0  0  0  0  0
   59.4499   28.1491   51.9857 H   0  0  0  0  0  0  0  0  0  0  0  0
   57.7232   28.0342   53.7706 H   0  0  0  0  0  0  0  0  0  0  0  0
   55.9437   29.7694   53.9150 H   0  0  0  0  0  0  0  0  0  0  0  0
   55.5517   32.3435   53.3888 H   0  0  0  0  0  0  0  0  0  0  0  0
   55.8281   32.7972   51.6707 H   0  0  0  0  0  0  0  0  0  0  0  0
   54.9845   29.3019   52.3908 H   0  0  0  0  0  0  0  0  0  0  0  0
   52.7813   28.2652   51.8504 H   0  0  0  0  0  0  0  0  0  0  0  0
   50.8488   29.6942   51.1801 H   0  0  0  0  0  0  0  0  0  0  0  0
   53.3418   33.2060   51.4934 H   0  0  0  0  0  0  0  0  0  0  0  0
   61.3809   33.5098   49.0563 H   0  0  0  0  0  0  0  0  0  0  0  0
   61.9257   34.1564   46.7086 H   0  0  0  0  0  0  0  0  0  0  0  0
   60.1073   34.3111   45.0021 H   0  0  0  0  0  0  0  0  0  0  0  0
   57.1732   33.2608   48.0148 H   0  0  0  0  0  0  0  0  0  0  0  0
  1  2  2  0
  2  3  1  0
  3  4  1  0
  4  5  1  0
  5  6  2  0
  6  7  1  0
  7  8  2  0
  8  9  1  0
  8 10  1  0
 10 11  1  0
 10 12  2  0
  2 13  1  0
 13 14  1  0
 14 15  2  0
 15 16  1  0
 16 17  2  0
 17 18  1  0
 18 19  1  0
 19 20  1  0
 20 21  2  0
 21 22  1  0
 22 23  2  0
 23 24  1  0
 24 25  1  0
 24 26  2  0
 18 27  2  0
 27 28  1  0
 28 29  1  0
 29 30  2  0
 29 31  1  0
 31 32  2  0
 32 33  1  0
 33 34  2  0
 34 35  1  0
 35 36  1  0
 35 37  2  0
 12  5  1  0
 27 14  1  0
 37 31  1  0
 26 20  1  0
  3 38  1  0
  3 39  1  0
  4 40  1  0
  4 41  1  0
  6 42  1  0
  7 43  1  0
  9 44  1  0
 12 45  1  0
 15 46  1  0
 16 47  1  0
 17 48  1  0
 19 49  1  0
 19 50  1  0
 21 51  1  0
 22 52  1  0
 23 53  1  0
 26 54  1  0
 32 55  1  0
 33 56  1  0
 34 57  1  0
 37 58  1  0
M  CHG  4  11  -1  13  -1  25  -1  28  -1
M  END
>  <UniqueID>  (66) 
65

>  <SMILES>  (66) 
O=C(CCc1ccc(O)c([O-])c1)[N-]c1cccc(Cc2cccc([O-])c2)c1[N-]C(=O)c1cccc(Cl)c1

>  <Energy>  (66) 
70.26452522935774

>  <Genealogy>  (66) 
O=C(CCc1ccc(O)c([O-])c1)[N-]c1cccc(Cc2cccc([O-])c2)c1[N-]C(=O)c1cccc(Cl)c1 (protonated)
O=C(CCc1ccc(O)c([O-])c1)[N-]c1cccc(Cc2cccc([O-])c2)c1[N-]C(=O)c1cccc(Cl)c1 (3D coordinates assigned)
O=C(CCc1ccc(O)c([O-])c1)[N-]c1cccc(Cc2cccc([O-])c2)c1[N-]C(=O)c1cccc(Cl)c1 (optimized conformer: 70.26452522935774 kcal/mol)

>  <smiles>  (66) 
O=C(CCc1ccc(O)c(O)c1)Nc1cccc(Cc2cccc(O)c2)c1NC(=O)c1cccc(Cl)c1

>  <score_type>  (66) 
oracle

>  <origin>  (66) 
adg

>  <m_score__min__energy>  (66) 
-18.399999999999999

>  <m_primary>  (66) 
energy

$$$$
66:0
     RDKit          3D

 43 45  0  0  0  0  0  0  0  0999 V2000
   55.5100   20.4050   43.3570 H   0  0  0  0  0  0  0  0  0  0  0  0
   55.9470   21.2820   43.0960 O   0  0  0  0  0  0  0  0  0  0  0  0
   56.2390   22.2700   44.0340 C   0  0  0  0  0  0  0  0  0  0  0  0
   57.4110   23.0180   43.8940 C   0  0  0  0  0  0  0  0  0  0  0  0
   58.0879   22.8211   43.0496 H   0  0  0  0  0  0  0  0  0  0  0  0
   57.7280   24.0150   44.8210 C   0  0  0  0  0  0  0  0  0  0  0  0
   58.6483   24.6041   44.6940 H   0  0  0  0  0  0  0  0  0  0  0  0
   56.8830   24.2720   45.9130 C   0  0  0  0  0  0  0  0  0  0  0  0
   57.2630   25.3460   46.8640 C   0  0  0  0  0  0  0  0  0  0  0  0
   56.9197   25.2595   47.9055 H   0  0  0  0  0  0  0  0  0  0  0  0
   58.0000   26.4160   46.5300 C   0  0  0  0  0  0  0  0  0  0  0  0
   59.0782   26.4055   46.7475 H   0  0  0  0  0  0  0  0  0  0  0  0
   57.4140   27.6130   45.8780 C   0  0  0  0  0  0  0  0  0  0  0  0
   56.0400   27.7220   45.6130 C   0  0  0  0  0  0  0  0  0  0  0  0
   55.1620   26.6930   45.9330 O   0  0  0  0  0  0  0  0  0  0  0  0
   55.5570   28.8320   45.0080 N   0  0  0  0  0  0  0  0  0  0  0  0
   56.3690   29.8480   44.6280 C   0  0  0  0  0  0  0  0  0  0  0  0
   55.8560   30.8570   44.0720 O   0  0  0  0  0  0  0  0  0  0  0  0
   57.7230   29.7740   44.8430 N   0  0  0  0  0  0  0  0  0  0  0  0
   58.6130   30.8610   44.3850 C   0  0  0  0  0  0  0  0  0  0  0  0
   58.1351   31.3921   43.5486 H   0  0  0  0  0  0  0  0  0  0  0  0
   59.5693   30.4251   44.0601 H   0  0  0  0  0  0  0  0  0  0  0  0
   58.8760   31.8340   45.5050 C   0  0  0  0  0  0  0  0  0  0  0  0
   59.8060   31.5270   46.5110 C   0  0  0  0  0  0  0  0  0  0  0  0
   60.3282   30.5590   46.4960 H   0  0  0  0  0  0  0  0  0  0  0  0
   60.0720   32.4440   47.5310 C   0  0  0  0  0  0  0  0  0  0  0  0
   60.8015   32.1917   48.3147 H   0  0  0  0  0  0  0  0  0  0  0  0
   59.4180   33.6810   47.5640 C   0  0  0  0  0  0  0  0  0  0  0  0
   59.7190   34.5670   48.6090 O   0  0  0  0  0  0  0  0  0  0  0  0
   60.0640   34.1650   49.9300 C   0  0  0  0  0  0  0  0  0  0  0  0
   59.5260   34.7919   50.6563 H   0  0  0  0  0  0  0  0  0  0  0  0
   59.7848   33.1113   50.0773 H   0  0  0  0  0  0  0  0  0  0  0  0
   61.1479   34.2811   50.0773 H   0  0  0  0  0  0  0  0  0  0  0  0
   58.4870   33.9930   46.5550 C   0  0  0  0  0  0  0  0  0  0  0  0
   57.9664   34.9619   46.5699 H   0  0  0  0  0  0  0  0  0  0  0  0
   58.2220   33.0750   45.5340 C   0  0  0  0  0  0  0  0  0  0  0  0
   57.4954   33.3277   44.7477 H   0  0  0  0  0  0  0  0  0  0  0  0
   58.2510   28.6620   45.4550 C   0  0  0  0  0  0  0  0  0  0  0  0
   59.4950   28.5790   45.6560 O   0  0  0  0  0  0  0  0  0  0  0  0
   55.6940   23.5250   46.0420 C   0  0  0  0  0  0  0  0  0  0  0  0
   55.0110   23.7268   46.8804 H   0  0  0  0  0  0  0  0  0  0  0  0
   55.3760   22.5290   45.1120 C   0  0  0  0  0  0  0  0  0  0  0  0
   54.2000   21.8040   45.2610 O   0  0  0  0  0  0  0  0  0  0  0  0
  1  2  1  0
  2  3  1  0
  3  4  2  0
  4  5  1  0
  4  6  1  0
  6  7  1  0
  6  8  2  0
  8  9  1  0
  9 10  1  0
  9 11  2  0
 11 12  1  0
 11 13  1  0
 13 14  2  0
 14 15  1  0
 14 16  1  0
 16 17  1  0
 17 18  2  0
 17 19  1  0
 19 20  1  0
 20 21  1  0
 20 22  1  0
 20 23  1  0
 23 24  2  0
 24 25  1  0
 24 26  1  0
 26 27  1  0
 26 28  2  0
 28 29  1  0
 29 30  1  0
 30 31  1  0
 30 32  1  0
 30 33  1  0
 28 34  1  0
 34 35  1  0
 34 36  2  0
 36 37  1  0
 19 38  1  0
 38 39  2  0
  8 40  1  0
 40 41  1  0
 40 42  2  0
 42 43  1  0
 42  3  1  0
 38 13  1  0
 36 23  1  0
M  CHG  3  15  -1  16  -1  43  -1
M  END
>  <UniqueID>  (67) 
66

>  <SMILES>  (67) 
COc1ccc(Cn2c(=O)[n-]c([O-])c(/C=C/c3ccc(O)c([O-])c3)c2=O)cc1

>  <Energy>  (67) 
57.682618927314124

>  <Genealogy>  (67) 
COc1ccc(Cn2c(=O)[n-]c([O-])c(C=Cc3ccc(O)c([O-])c3)c2=O)cc1 (protonated)
COc1ccc(Cn2c(=O)[n-]c([O-])c(/C=C/c3ccc(O)c([O-])c3)c2=O)cc1 (cis-trans isomerization)
COc1ccc(Cn2c(=O)[n-]c([O-])c(/C=C/c3ccc(O)c([O-])c3)c2=O)cc1 (3D coordinates assigned)
COc1ccc(Cn2c(=O)[n-]c([O-])c(/C=C/c3ccc(O)c([O-])c3)c2=O)cc1 (optimized conformer: 57.682618927314124 kcal/mol)

>  <smiles>  (67) 
COc1ccc(Cn2c(=O)[nH]c(O)c(C=Cc3ccc(O)c(O)c3)c2=O)cc1

>  <score_type>  (67) 
oracle

>  <origin>  (67) 
adg

>  <m_score__min__energy>  (67) 
-15.49

>  <m_primary>  (67) 
energy

$$$$
67:0
     RDKit          3D

 41 43  0  0  0  0  0  0  0  0999 V2000
   63.7180   33.0940   47.2570 C   0  0  0  0  0  0  0  0  0  0  0  0
   64.1220   32.5030   48.6080 C   0  0  0  0  0  0  0  0  0  0  0  0
   62.9170   32.0180   49.4190 C   0  0  0  0  0  0  0  0  0  0  0  0
   61.6730   32.7880   49.0730 C   0  0  0  0  0  0  0  0  0  0  0  0
   61.5640   33.9740   49.4770 O   0  0  0  0  0  0  0  0  0  0  0  0
   60.6320   32.1610   48.2990 N   0  0  0  0  0  0  0  0  0  0  0  0
   59.6550   32.8260   47.4620 C   0  0  0  0  0  0  0  0  0  0  0  0
   59.5550   34.2290   47.5350 C   0  0  0  0  0  0  0  0  0  0  0  0
   58.6390   34.9240   46.7360 C   0  0  0  0  0  0  0  0  0  0  0  0
   57.7930   34.2270   45.8640 C   0  0  0  0  0  0  0  0  0  0  0  0
   57.8510   32.8290   45.7970 C   0  0  0  0  0  0  0  0  0  0  0  0
   56.9230   32.1420   44.9490 N   0  0  0  0  0  0  0  0  0  0  0  0
   57.3570   30.8980   43.8150 S   0  0  0  0  0  0  0  0  0  0  0  0
   56.2830   30.8050   42.7590 O   0  0  0  0  0  0  0  0  0  0  0  0
   58.6720   31.2680   43.1620 O   0  0  0  0  0  0  0  0  0  0  0  0
   57.4810   29.3240   44.6000 C   0  0  0  0  0  0  0  0  0  0  0  0
   58.7500   28.7390   44.8430 C   0  0  0  0  0  0  0  0  0  0  0  0
   58.8510   27.4910   45.4880 C   0  0  0  0  0  0  0  0  0  0  0  0
   57.6720   26.8620   45.8710 C   0  0  0  0  0  0  0  0  0  0  0  0
   57.5360   25.6740   46.4810 N   0  0  0  0  0  0  0  0  0  0  0  0
   56.1880   25.5600   46.5880 C   0  0  0  0  0  0  0  0  0  0  0  0
   55.6360   24.5590   47.1160 O   0  0  0  0  0  0  0  0  0  0  0  0
   55.4770   26.6010   46.0830 N   0  0  0  0  0  0  0  0  0  0  0  0
   56.4490   27.4130   45.6320 C   0  0  0  0  0  0  0  0  0  0  0  0
   56.3060   28.6410   44.9910 C   0  0  0  0  0  0  0  0  0  0  0  0
   58.8120   32.1320   46.5560 C   0  0  0  0  0  0  0  0  0  0  0  0
   63.1040   33.9922   47.4186 H   0  0  0  0  0  0  0  0  0  0  0  0
   64.6211   33.3643   46.6902 H   0  0  0  0  0  0  0  0  0  0  0  0
   63.1382   32.3506   46.6902 H   0  0  0  0  0  0  0  0  0  0  0  0
   64.7957   31.6512   48.4333 H   0  0  0  0  0  0  0  0  0  0  0  0
   64.6166   33.2974   49.1862 H   0  0  0  0  0  0  0  0  0  0  0  0
   62.7484   30.9521   49.2057 H   0  0  0  0  0  0  0  0  0  0  0  0
   63.1339   32.1747   50.4860 H   0  0  0  0  0  0  0  0  0  0  0  0
   60.6870   31.1150   48.2170 H   0  0  0  0  0  0  0  0  0  0  0  0
   60.2039   34.7851   48.2276 H   0  0  0  0  0  0  0  0  0  0  0  0
   58.5836   36.0211   46.7933 H   0  0  0  0  0  0  0  0  0  0  0  0
   57.0821   34.7782   45.2309 H   0  0  0  0  0  0  0  0  0  0  0  0
   59.6627   29.2643   44.5251 H   0  0  0  0  0  0  0  0  0  0  0  0
   59.8304   27.0294   45.6822 H   0  0  0  0  0  0  0  0  0  0  0  0
   55.3106   29.0663   44.7950 H   0  0  0  0  0  0  0  0  0  0  0  0
   58.9094   31.0419   46.4453 H   0  0  0  0  0  0  0  0  0  0  0  0
  1  2  1  0
  2  3  1  0
  3  4  1  0
  4  5  2  0
  4  6  1  0
  6  7  1  0
  7  8  2  0
  8  9  1  0
  9 10  2  0
 10 11  1  0
 11 12  1  0
 12 13  1  0
 13 14  2  0
 13 15  2  0
 13 16  1  0
 16 17  2  0
 17 18  1  0
 18 19  2  0
 19 20  1  0
 20 21  1  0
 21 22  2  0
 21 23  1  0
 23 24  1  0
 24 25  2  0
 11 26  2  0
 26  7  1  0
 25 16  1  0
 24 19  1  0
  1 27  1  0
  1 28  1  0
  1 29  1  0
  2 30  1  0
  2 31  1  0
  3 32  1  0
  3 33  1  0
  6 34  1  0
  8 35  1  0
  9 36  1  0
 10 37  1  0
 17 38  1  0
 18 39  1  0
 25 40  1  0
 26 41  1  0
M  CHG  3  12  -1  20  -1  23  -1
M  END
>  <UniqueID>  (68) 
67

>  <SMILES>  (68) 
CCCC(=O)Nc1cccc([N-]S(=O)(=O)c2ccc3[n-]c(=O)[n-]c3c2)c1

>  <Energy>  (68) 
80.68586389317582

>  <Genealogy>  (68) 
CCCC(=O)Nc1cccc([N-]S(=O)(=O)c2ccc3[n-]c(=O)[n-]c3c2)c1 (protonated)
CCCC(=O)Nc1cccc([N-]S(=O)(=O)c2ccc3[n-]c(=O)[n-]c3c2)c1 (3D coordinates assigned)
CCCC(=O)Nc1cccc([N-]S(=O)(=O)c2ccc3[n-]c(=O)[n-]c3c2)c1 (optimized conformer: 80.68586389317582 kcal/mol)

>  <smiles>  (68) 
CCCC(=O)Nc1cccc(NS(=O)(=O)c2ccc3[nH]c(=O)[nH]c3c2)c1

>  <score_type>  (68) 
oracle

>  <origin>  (68) 
adg

>  <m_score__min__energy>  (68) 
-13.18

>  <m_primary>  (68) 
energy

$$$$
68:0
     RDKit          3D

 31 32  0  0  0  0  0  0  0  0999 V2000
   59.6650   35.3940   46.0620 C   0  0  0  0  0  0  0  0  0  0  0  0
   59.5960   34.0570   46.5480 O   0  0  0  0  0  0  0  0  0  0  0  0
   58.8830   33.0240   45.9210 C   0  0  0  0  0  0  0  0  0  0  0  0
   58.2350   33.1950   44.6830 C   0  0  0  0  0  0  0  0  0  0  0  0
   57.5350   32.1330   44.1010 C   0  0  0  0  0  0  0  0  0  0  0  0
   57.4710   30.8920   44.7470 C   0  0  0  0  0  0  0  0  0  0  0  0
   56.5810   29.5570   44.0230 S   0  0  0  0  0  0  0  0  0  0  0  0
   57.5190   28.7500   43.1720 O   0  0  0  0  0  0  0  0  0  0  0  0
   55.4570   30.0700   43.1660 O   0  0  0  0  0  0  0  0  0  0  0  0
   55.9240   28.5370   45.2640 N   0  0  0  0  0  0  0  0  0  0  0  0
   56.5560   27.3620   45.7920 C   0  0  0  0  0  0  0  0  0  0  0  0
   57.9510   27.2800   45.9630 C   0  0  0  0  0  0  0  0  0  0  0  0
   58.5340   26.1150   46.4730 C   0  0  0  0  0  0  0  0  0  0  0  0
   59.9170   26.0520   46.6330 O   0  0  0  0  0  0  0  0  0  0  0  0
   57.7260   25.0250   46.8190 C   0  0  0  0  0  0  0  0  0  0  0  0
   56.3400   25.0990   46.6560 C   0  0  0  0  0  0  0  0  0  0  0  0
   55.5450   24.0130   47.0040 O   0  0  0  0  0  0  0  0  0  0  0  0
   55.7560   26.2640   46.1450 C   0  0  0  0  0  0  0  0  0  0  0  0
   54.3750   26.3300   45.9840 O   0  0  0  0  0  0  0  0  0  0  0  0
   58.1200   30.7180   45.9760 C   0  0  0  0  0  0  0  0  0  0  0  0
   58.8190   31.7780   46.5580 C   0  0  0  0  0  0  0  0  0  0  0  0
   59.7010   36.0916   46.9117 H   0  0  0  0  0  0  0  0  0  0  0  0
   60.5706   35.5152   45.4495 H   0  0  0  0  0  0  0  0  0  0  0  0
   58.7767   35.6078   45.4495 H   0  0  0  0  0  0  0  0  0  0  0  0
   58.2793   34.1677   44.1713 H   0  0  0  0  0  0  0  0  0  0  0  0
   57.0329   32.2731   43.1323 H   0  0  0  0  0  0  0  0  0  0  0  0
   58.5862   28.1368   45.6941 H   0  0  0  0  0  0  0  0  0  0  0  0
   60.4760   26.8890   46.7520 H   0  0  0  0  0  0  0  0  0  0  0  0
   58.1832   24.1084   47.2200 H   0  0  0  0  0  0  0  0  0  0  0  0
   58.0791   29.7434   46.4845 H   0  0  0  0  0  0  0  0  0  0  0  0
   59.3235   31.6332   47.5247 H   0  0  0  0  0  0  0  0  0  0  0  0
  1  2  1  0
  2  3  1  0
  3  4  2  0
  4  5  1  0
  5  6  2  0
  6  7  1  0
  7  8  2  0
  7  9  2  0
  7 10  1  0
 10 11  1  0
 11 12  2  0
 12 13  1  0
 13 14  1  0
 13 15  2  0
 15 16  1  0
 16 17  1  0
 16 18  2  0
 18 19  1  0
  6 20  1  0
 20 21  2  0
 21  3  1  0
 18 11  1  0
  1 22  1  0
  1 23  1  0
  1 24  1  0
  4 25  1  0
  5 26  1  0
 12 27  1  0
 14 28  1  0
 15 29  1  0
 20 30  1  0
 21 31  1  0
M  CHG  3  10  -1  17  -1  19  -1
M  END
>  <UniqueID>  (69) 
68

>  <SMILES>  (69) 
COc1ccc(S(=O)(=O)[N-]c2cc(O)cc([O-])c2[O-])cc1

>  <Energy>  (69) 
34.30624346445192

>  <Genealogy>  (69) 
COc1ccc(S(=O)(=O)[N-]c2cc(O)cc([O-])c2[O-])cc1 (protonated)
COc1ccc(S(=O)(=O)[N-]c2cc(O)cc([O-])c2[O-])cc1 (3D coordinates assigned)
COc1ccc(S(=O)(=O)[N-]c2cc(O)cc([O-])c2[O-])cc1 (optimized conformer: 34.30624346445192 kcal/mol)

>  <smiles>  (69) 
COc1ccc(S(=O)(=O)Nc2cc(O)cc(O)c2O)cc1

>  <score_type>  (69) 
oracle

>  <origin>  (69) 
adg

>  <m_score__min__energy>  (69) 
-14.300000000000001

>  <m_primary>  (69) 
energy

$$$$
69:0
     RDKit          3D

 43 45  0  0  0  0  0  0  0  0999 V2000
   51.8680   24.2580   45.0860 C   0  0  0  0  0  0  0  0  0  0  0  0
   53.0230   23.4550   45.6020 C   0  0  0  0  0  0  0  0  0  0  0  0
   53.1310   22.2500   45.2570 O   0  0  0  0  0  0  0  0  0  0  0  0
   53.9930   24.0110   46.5000 N   0  0  0  0  0  0  0  0  0  0  0  0
   55.3420   24.3540   46.1630 C   0  0  0  0  0  0  0  0  0  0  0  0
   56.2860   23.3290   46.0350 C   0  0  0  0  0  0  0  0  0  0  0  0
   57.6150   23.6270   45.7270 C   0  0  0  0  0  0  0  0  0  0  0  0
   58.0030   24.9500   45.5140 C   0  0  0  0  0  0  0  0  0  0  0  0
   57.0600   25.9840   45.5700 C   0  0  0  0  0  0  0  0  0  0  0  0
   57.5030   27.3250   45.3260 N   0  0  0  0  0  0  0  0  0  0  0  0
   58.7880   27.8530   45.6710 C   0  0  0  0  0  0  0  0  0  0  0  0
   59.4810   27.3200   46.5780 O   0  0  0  0  0  0  0  0  0  0  0  0
   59.2670   29.1090   45.0150 C   0  0  0  0  0  0  0  0  0  0  0  0
   57.8930   29.9710   44.1750 S   0  0  0  0  0  0  0  0  0  0  0  0
   58.0130   31.4560   45.1690 C   0  0  0  0  0  0  0  0  0  0  0  0
   56.9720   32.3260   45.2150 N   0  0  0  0  0  0  0  0  0  0  0  0
   57.0480   33.4630   45.9540 C   0  0  0  0  0  0  0  0  0  0  0  0
   58.2060   33.7480   46.6760 C   0  0  0  0  0  0  0  0  0  0  0  0
   59.2730   32.8410   46.6230 C   0  0  0  0  0  0  0  0  0  0  0  0
   60.5290   33.0850   47.3590 C   0  0  0  0  0  0  0  0  0  0  0  0
   60.8020   34.2040   48.1430 C   0  0  0  0  0  0  0  0  0  0  0  0
   62.0760   34.1820   48.7250 C   0  0  0  0  0  0  0  0  0  0  0  0
   62.7990   33.0390   48.4140 C   0  0  0  0  0  0  0  0  0  0  0  0
   64.2070   32.7620   48.8230 C   0  0  0  0  0  0  0  0  0  0  0  0
   61.8780   32.0730   47.3920 S   0  0  0  0  0  0  0  0  0  0  0  0
   59.1480   31.7140   45.8690 N   0  0  0  0  0  0  0  0  0  0  0  0
   55.7240   25.6880   45.9130 C   0  0  0  0  0  0  0  0  0  0  0  0
   54.7820   26.7060   46.0070 O   0  0  0  0  0  0  0  0  0  0  0  0
   51.2921   24.6584   45.9334 H   0  0  0  0  0  0  0  0  0  0  0  0
   52.2447   25.0900   44.4729 H   0  0  0  0  0  0  0  0  0  0  0  0
   51.2193   23.6151   44.4729 H   0  0  0  0  0  0  0  0  0  0  0  0
   55.9793   22.2823   46.1779 H   0  0  0  0  0  0  0  0  0  0  0  0
   58.3565   22.8180   45.6523 H   0  0  0  0  0  0  0  0  0  0  0  0
   59.0567   25.1826   45.3006 H   0  0  0  0  0  0  0  0  0  0  0  0
   59.6953   29.7738   45.7796 H   0  0  0  0  0  0  0  0  0  0  0  0
   60.0273   28.8457   44.2650 H   0  0  0  0  0  0  0  0  0  0  0  0
   56.1963   34.1586   45.9828 H   0  0  0  0  0  0  0  0  0  0  0  0
   58.2808   34.6671   47.2757 H   0  0  0  0  0  0  0  0  0  0  0  0
   60.0859   35.0258   48.2907 H   0  0  0  0  0  0  0  0  0  0  0  0
   62.4641   34.9890   49.3639 H   0  0  0  0  0  0  0  0  0  0  0  0
   64.2741   32.7488   49.9209 H   0  0  0  0  0  0  0  0  0  0  0  0
   64.5191   31.7852   48.4248 H   0  0  0  0  0  0  0  0  0  0  0  0
   64.8658   33.5477   48.4248 H   0  0  0  0  0  0  0  0  0  0  0  0
  1  2  1  0
  2  3  2  0
  2  4  1  0
  4  5  1  0
  5  6  2  0
  6  7  1  0
  7  8  2  0
  8  9  1  0
  9 10  1  0
 10 11  1  0
 11 12  2  0
 11 13  1  0
 13 14  1  0
 14 15  1  0
 15 16  2  0
 16 17  1  0
 17 18  2  0
 18 19  1  0
 19 20  1  0
 20 21  2  0
 21 22  1  0
 22 23  2  0
 23 24  1  0
 23 25  1  0
 19 26  2  0
  9 27  2  0
 27 28  1  0
 27  5  1  0
 26 15  1  0
 25 20  1  0
  1 29  1  0
  1 30  1  0
  1 31  1  0
  6 32  1  0
  7 33  1  0
  8 34  1  0
 13 35  1  0
 13 36  1  0
 17 37  1  0
 18 38  1  0
 21 39  1  0
 22 40  1  0
 24 41  1  0
 24 42  1  0
 24 43  1  0
M  CHG  3   4  -1  10  -1  28  -1
M  END
>  <UniqueID>  (70) 
69

>  <SMILES>  (70) 
CC(=O)[N-]c1cccc([N-]C(=O)CSc2nccc(-c3ccc(C)s3)n2)c1[O-]

>  <Energy>  (70) 
76.49813925931477

>  <Genealogy>  (70) 
CC(=O)[N-]c1cccc([N-]C(=O)CSc2nccc(-c3ccc(C)s3)n2)c1[O-] (protonated)
CC(=O)[N-]c1cccc([N-]C(=O)CSc2nccc(-c3ccc(C)s3)n2)c1[O-] (3D coordinates assigned)
CC(=O)[N-]c1cccc([N-]C(=O)CSc2nccc(-c3ccc(C)s3)n2)c1[O-] (optimized conformer: 76.49813925931477 kcal/mol)

>  <smiles>  (70) 
CC(=O)Nc1cccc(NC(=O)CSc2nccc(-c3ccc(C)s3)n2)c1O

>  <score_type>  (70) 
oracle

>  <origin>  (70) 
adg

>  <m_score__min__energy>  (70) 
-17.18

>  <m_primary>  (70) 
energy

$$$$
70:0
     RDKit          3D

 26 27  0  0  0  0  0  0  0  0999 V2000
   57.6240   28.1500   45.3850 O   0  0  0  0  0  0  0  0  0  0  0  0
   56.8680   29.1360   45.1810 C   0  0  0  0  0  0  0  0  0  0  0  0
   55.5350   28.8480   44.8910 O   0  0  0  0  0  0  0  0  0  0  0  0
   57.3530   30.5110   45.2430 C   0  0  0  0  0  0  0  0  0  0  0  0
   58.1970   30.8440   46.2780 C   0  0  0  0  0  0  0  0  0  0  0  0
   58.6660   32.1550   46.3450 C   0  0  0  0  0  0  0  0  0  0  0  0
   59.5340   32.6030   47.3720 N   0  0  0  0  0  0  0  0  0  0  0  0
   60.9480   32.6250   47.2690 C   0  0  0  0  0  0  0  0  0  0  0  0
   61.6130   33.7670   46.8030 C   0  0  0  0  0  0  0  0  0  0  0  0
   62.9870   33.8170   46.6990 C   0  0  0  0  0  0  0  0  0  0  0  0
   63.7670   32.7430   47.0480 C   0  0  0  0  0  0  0  0  0  0  0  0
   63.1320   31.6090   47.5080 C   0  0  0  0  0  0  0  0  0  0  0  0
   61.7570   31.5650   47.6100 C   0  0  0  0  0  0  0  0  0  0  0  0
   58.2360   33.0300   45.3490 C   0  0  0  0  0  0  0  0  0  0  0  0
   58.7030   34.5990   45.3160 S   0  0  0  0  0  0  0  0  0  0  0  0
   57.4080   32.6130   44.3760 N   0  0  0  0  0  0  0  0  0  0  0  0
   56.9530   31.3720   44.2950 N   0  0  0  0  0  0  0  0  0  0  0  0
   55.1420   27.9280   44.9400 H   0  0  0  0  0  0  0  0  0  0  0  0
   58.4927   30.0977   47.0301 H   0  0  0  0  0  0  0  0  0  0  0  0
   59.0970   32.9380   48.2580 H   0  0  0  0  0  0  0  0  0  0  0  0
   61.0224   34.6482   46.5120 H   0  0  0  0  0  0  0  0  0  0  0  0
   63.4671   34.7351   46.3293 H   0  0  0  0  0  0  0  0  0  0  0  0
   64.8629   32.7856   46.9635 H   0  0  0  0  0  0  0  0  0  0  0  0
   63.7278   30.7305   47.7966 H   0  0  0  0  0  0  0  0  0  0  0  0
   61.2864   30.6422   47.9801 H   0  0  0  0  0  0  0  0  0  0  0  0
   57.0730   33.2660   43.6130 H   0  0  0  0  0  0  0  0  0  0  0  0
  1  2  2  0
  2  3  1  0
  2  4  1  0
  4  5  1  0
  5  6  2  0
  6  7  1  0
  7  8  1  0
  8  9  2  0
  9 10  1  0
 10 11  2  0
 11 12  1  0
 12 13  2  0
  6 14  1  0
 14 15  2  0
 14 16  1  0
 16 17  1  0
 17  4  2  0
 13  8  1  0
  3 18  1  0
  5 19  1  0
  7 20  1  0
  9 21  1  0
 10 22  1  0
 11 23  1  0
 12 24  1  0
 13 25  1  0
 16 26  1  0
M  END
>  <smiles>  (71) 
O=C(O)c1cc(Nc2ccccc2)c(=S)[nH]n1

>  <score_type>  (71) 
oracle

>  <origin>  (71) 
adg

>  <m_score__min__energy>  (71) 
-7.6299999999999999

>  <m_primary>  (71) 
energy

$$$$
71:0
     RDKit          3D

 42 44  0  0  0  0  0  0  0  0999 V2000
   59.0640   34.5510   45.2910 C   0  0  0  0  0  0  0  0  0  0  0  0
   57.7950   33.8070   44.8740 C   0  0  0  0  0  0  0  0  0  0  0  0
   58.0690   32.7180   43.8290 C   0  0  0  0  0  0  0  0  0  0  0  0
   57.5100   31.3950   44.2500 C   0  0  0  0  0  0  0  0  0  0  0  0
   56.2430   31.2220   44.6730 N   0  0  0  0  0  0  0  0  0  0  0  0
   56.1310   29.9440   44.8700 O   0  0  0  0  0  0  0  0  0  0  0  0
   57.2640   29.3530   44.5780 C   0  0  0  0  0  0  0  0  0  0  0  0
   57.4880   27.8760   44.6620 C   0  0  0  0  0  0  0  0  0  0  0  0
   57.1840   27.3840   46.0280 N   0  0  0  0  0  0  0  0  0  0  0  0
   56.8070   25.9560   45.9970 C   0  0  0  0  0  0  0  0  0  0  0  0
   58.0570   25.1220   46.2850 C   0  0  0  0  0  0  0  0  0  0  0  0
   59.1260   26.1170   46.7000 C   0  0  0  0  0  0  0  0  0  0  0  0
   58.3490   27.4060   46.9370 C   0  0  1  0  0  0  0  0  0  0  0  0
   59.1760   28.6720   46.8840 C   0  0  0  0  0  0  0  0  0  0  0  0
   60.3890   28.8180   46.2320 C   0  0  0  0  0  0  0  0  0  0  0  0
   60.8510   30.0610   46.4580 N   0  0  0  0  0  0  0  0  0  0  0  0
   59.9960   30.6960   47.2440 N   0  0  0  0  0  0  0  0  0  0  0  0
   60.1300   32.0880   47.6510 C   0  0  0  0  0  0  0  0  0  0  0  0
   58.9560   29.8860   47.5200 C   0  0  0  0  0  0  0  0  0  0  0  0
   58.1950   30.2360   44.1670 N   0  0  0  0  0  0  0  0  0  0  0  0
   59.1243   34.5864   46.3888 H   0  0  0  0  0  0  0  0  0  0  0  0
   59.9446   34.0261   44.8921 H   0  0  0  0  0  0  0  0  0  0  0  0
   59.0361   35.5757   44.8921 H   0  0  0  0  0  0  0  0  0  0  0  0
   57.3524   33.3376   45.7649 H   0  0  0  0  0  0  0  0  0  0  0  0
   57.1113   34.5402   44.4213 H   0  0  0  0  0  0  0  0  0  0  0  0
   57.6062   33.0137   42.8759 H   0  0  0  0  0  0  0  0  0  0  0  0
   59.1586   32.6118   43.7214 H   0  0  0  0  0  0  0  0  0  0  0  0
   56.8321   27.3682   43.9395 H   0  0  0  0  0  0  0  0  0  0  0  0
   58.5419   27.6611   44.4316 H   0  0  0  0  0  0  0  0  0  0  0  0
   56.0425   25.7566   46.7624 H   0  0  0  0  0  0  0  0  0  0  0  0
   56.3960   25.6942   45.0108 H   0  0  0  0  0  0  0  0  0  0  0  0
   57.8623   24.4066   47.0976 H   0  0  0  0  0  0  0  0  0  0  0  0
   58.3659   24.5357   45.4070 H   0  0  0  0  0  0  0  0  0  0  0  0
   59.6310   25.7888   47.6205 H   0  0  0  0  0  0  0  0  0  0  0  0
   59.9184   26.2301   45.9454 H   0  0  0  0  0  0  0  0  0  0  0  0
   58.0017   27.4373   47.9803 H   0  0  0  0  0  0  0  0  0  0  0  0
   60.8909   28.0464   45.6298 H   0  0  0  0  0  0  0  0  0  0  0  0
   61.7390   30.4680   46.0850 H   0  0  0  0  0  0  0  0  0  0  0  0
   60.1360   32.1500   48.7492 H   0  0  0  0  0  0  0  0  0  0  0  0
   61.0716   32.4966   47.2556 H   0  0  0  0  0  0  0  0  0  0  0  0
   59.2836   32.6687   47.2556 H   0  0  0  0  0  0  0  0  0  0  0  0
   58.0847   30.1417   48.1408 H   0  0  0  0  0  0  0  0  0  0  0  0
  1  2  1  0
  2  3  1  0
  3  4  1  0
  4  5  2  0
  5  6  1  0
  6  7  1  0
  7  8  1  0
  8  9  1  0
  9 10  1  0
 10 11  1  0
 11 12  1  0
 12 13  1  0
 13 14  1  0
 14 15  1  0
 15 16  2  0
 16 17  1  0
 17 18  1  0
 17 19  1  0
  7 20  2  0
 20  4  1  0
 13  9  1  0
 19 14  2  0
  1 21  1  0
  1 22  1  0
  1 23  1  0
  2 24  1  0
  2 25  1  0
  3 26  1  0
  3 27  1  0
  8 28  1  0
  8 29  1  0
 10 30  1  0
 10 31  1  0
 11 32  1  0
 11 33  1  0
 12 34  1  0
 12 35  1  0
 13 36  1  1
 15 37  1  0
 16 38  1  0
 18 39  1  0
 18 40  1  0
 18 41  1  0
 19 42  1  0
M  CHG  1  16   1
M  END
>  <UniqueID>  (72) 
70

>  <SMILES>  (72) 
CCCc1noc(CN2CCC[C@H]2c2c[nH+]n(C)c2)n1

>  <Energy>  (72) 
106.85971236942875

>  <Genealogy>  (72) 
CCCc1noc(CN2CCCC2c2c[nH+]n(C)c2)n1 (protonated)
CCCc1noc(CN2CCC[C@H]2c2c[nH+]n(C)c2)n1 (chirality)
CCCc1noc(CN2CCC[C@H]2c2c[nH+]n(C)c2)n1 (3D coordinates assigned)
CCCc1noc(CN2CCC[C@H]2c2c[nH+]n(C)c2)n1 (nonaromatic ring conformer: 106.85971236942875 kcal/mol)

>  <smiles>  (72) 
CCCc1noc(CN2CCCC2c2cnn(C)c2)n1

>  <score_type>  (72) 
oracle

>  <origin>  (72) 
adg

>  <m_score__min__energy>  (72) 
-6.29

>  <m_primary>  (72) 
energy

$$$$
72:0
     RDKit          3D

 73 78  0  0  0  0  0  0  0  0999 V2000
   59.0070   33.0660   52.0190 C   0  0  0  0  0  0  0  0  0  0  0  0
   59.2110   32.7790   50.5570 C   0  0  0  0  0  0  0  0  0  0  0  0
   59.3130   31.5170   50.0660 C   0  0  0  0  0  0  0  0  0  0  0  0
   59.0700   30.3490   50.9540 C   0  0  0  0  0  0  0  0  0  0  0  0
   58.1300   29.5450   50.7050 O   0  0  0  0  0  0  0  0  0  0  0  0
   59.9280   30.1330   52.0810 N   0  0  0  0  0  0  0  0  0  0  0  0
   61.3600   30.0790   52.0480 C   0  0  0  0  0  0  0  0  0  0  0  0
   62.1300   28.9340   52.1580 C   0  0  0  0  0  0  0  0  0  0  0  0
   61.6260   27.5560   52.4690 C   0  0  0  0  0  0  0  0  0  0  0  0
   63.4290   29.2630   51.9510 N   0  0  0  0  0  0  0  0  0  0  0  0
   64.5660   28.3400   52.0000 C   0  0  0  0  0  0  0  0  0  0  0  0
   63.5000   30.5610   51.6630 N   0  0  0  0  0  0  0  0  0  0  0  0
   64.6910   31.2800   51.2940 C   0  0  0  0  0  0  0  0  0  0  0  0
   65.8550   31.1730   52.0720 C   0  0  0  0  0  0  0  0  0  0  0  0
   67.0140   31.8620   51.7030 C   0  0  0  0  0  0  0  0  0  0  0  0
   67.0200   32.6560   50.5530 C   0  0  0  0  0  0  0  0  0  0  0  0
   65.8680   32.7580   49.7680 C   0  0  0  0  0  0  0  0  0  0  0  0
   64.7070   32.0690   50.1340 C   0  0  0  0  0  0  0  0  0  0  0  0
   62.2550   31.0770   51.7110 C   0  0  0  0  0  0  0  0  0  0  0  0
   61.9690   32.2690   51.4180 O   0  0  0  0  0  0  0  0  0  0  0  0
   59.4710   31.3160   48.5810 C   0  0  0  0  0  0  0  0  0  0  0  0
   59.5550   30.0700   48.0450 C   0  0  0  0  0  0  0  0  0  0  0  0
   60.5210   29.0710   48.5590 C   0  0  0  0  0  0  0  0  0  0  0  0
   61.4080   29.3980   49.3930 O   0  0  0  0  0  0  0  0  0  0  0  0
   60.5080   27.7390   48.0530 N   0  0  0  0  0  0  0  0  0  0  0  0
   59.6540   27.3570   46.9760 C   0  0  0  0  0  0  0  0  0  0  0  0
   59.7030   26.1720   46.5500 O   0  0  0  0  0  0  0  0  0  0  0  0
   58.7550   28.3160   46.3840 N   0  0  0  0  0  0  0  0  0  0  0  0
   58.0070   27.9880   45.1610 C   0  0  0  0  0  0  0  0  0  0  0  0
   56.5470   27.8470   45.4650 C   0  0  0  0  0  0  0  0  0  0  0  0
   55.7650   28.8090   45.2330 O   0  0  0  0  0  0  0  0  0  0  0  0
   56.0640   26.6280   46.0420 N   0  0  0  0  0  0  0  0  0  0  0  0
   55.9970   25.3420   45.4060 C   0  0  0  0  0  0  0  0  0  0  0  0
   57.0340   24.9670   44.5420 C   0  0  0  0  0  0  0  0  0  0  0  0
   57.0040   23.7300   43.8920 C   0  0  0  0  0  0  0  0  0  0  0  0
   55.9270   22.8580   44.0890 C   0  0  0  0  0  0  0  0  0  0  0  0
   55.9130   21.6270   43.4400 O   0  0  0  0  0  0  0  0  0  0  0  0
   54.8740   23.2360   44.9320 C   0  0  0  0  0  0  0  0  0  0  0  0
   54.9020   24.4750   45.5810 C   0  0  0  0  0  0  0  0  0  0  0  0
   58.6390   29.6340   46.9590 C   0  0  0  0  0  0  0  0  0  0  0  0
   57.7110   30.3990   46.5760 O   0  0  0  0  0  0  0  0  0  0  0  0
   59.5460   32.5340   47.7110 C   0  0  0  0  0  0  0  0  0  0  0  0
   59.8770   32.4850   46.3380 C   0  0  0  0  0  0  0  0  0  0  0  0
   59.9610   33.6590   45.5850 C   0  0  0  0  0  0  0  0  0  0  0  0
   59.7580   34.8980   46.1940 C   0  0  0  0  0  0  0  0  0  0  0  0
   59.4980   34.9640   47.5640 C   0  0  0  0  0  0  0  0  0  0  0  0
   59.4220   33.7920   48.3240 C   0  0  0  0  0  0  0  0  0  0  0  0
   59.2580   33.8890   49.7040 O   0  0  0  0  0  0  0  0  0  0  0  0
   59.5414   32.3142   52.6183 H   0  0  0  0  0  0  0  0  0  0  0  0
   59.3973   34.0672   52.2541 H   0  0  0  0  0  0  0  0  0  0  0  0
   57.9331   33.0265   52.2541 H   0  0  0  0  0  0  0  0  0  0  0  0
   61.5767   27.4211   53.5596 H   0  0  0  0  0  0  0  0  0  0  0  0
   60.6224   27.4267   52.0378 H   0  0  0  0  0  0  0  0  0  0  0  0
   62.3094   26.8096   52.0378 H   0  0  0  0  0  0  0  0  0  0  0  0
   64.8236   28.1309   53.0488 H   0  0  0  0  0  0  0  0  0  0  0  0
   64.2979   27.4008   51.4940 H   0  0  0  0  0  0  0  0  0  0  0  0
   65.4300   28.7954   51.4940 H   0  0  0  0  0  0  0  0  0  0  0  0
   65.8549   30.5448   52.9750 H   0  0  0  0  0  0  0  0  0  0  0  0
   67.9220   31.7791   52.3183 H   0  0  0  0  0  0  0  0  0  0  0  0
   67.9314   33.2007   50.2656 H   0  0  0  0  0  0  0  0  0  0  0  0
   65.8744   33.3808   48.8613 H   0  0  0  0  0  0  0  0  0  0  0  0
   63.8040   32.1460   49.5106 H   0  0  0  0  0  0  0  0  0  0  0  0
   58.1478   28.7917   44.4233 H   0  0  0  0  0  0  0  0  0  0  0  0
   58.3815   27.0356   44.7578 H   0  0  0  0  0  0  0  0  0  0  0  0
   57.8785   25.6515   44.3738 H   0  0  0  0  0  0  0  0  0  0  0  0
   57.8288   23.4411   43.2240 H   0  0  0  0  0  0  0  0  0  0  0  0
   56.6880   20.9770   43.5200 H   0  0  0  0  0  0  0  0  0  0  0  0
   54.0225   22.5565   45.0841 H   0  0  0  0  0  0  0  0  0  0  0  0
   54.0655   24.7727   46.2303 H   0  0  0  0  0  0  0  0  0  0  0  0
   60.0702   31.5143   45.8580 H   0  0  0  0  0  0  0  0  0  0  0  0
   60.1876   33.6064   44.5099 H   0  0  0  0  0  0  0  0  0  0  0  0
   59.8027   35.8203   45.5961 H   0  0  0  0  0  0  0  0  0  0  0  0
   59.3524   35.9412   48.0477 H   0  0  0  0  0  0  0  0  0  0  0  0
  1  2  1  0
  2  3  2  0
  3  4  1  0
  4  5  2  0
  4  6  1  0
  6  7  1  0
  7  8  2  0
  8  9  1  0
  8 10  1  0
 10 11  1  0
 10 12  1  0
 12 13  1  0
 13 14  2  0
 14 15  1  0
 15 16  2  0
 16 17  1  0
 17 18  2  0
 12 19  1  0
 19 20  2  0
  3 21  1  0
 21 22  2  3
 22 23  1  0
 23 24  2  0
 23 25  1  0
 25 26  1  0
 26 27  2  0
 26 28  1  0
 28 29  1  0
 29 30  1  0
 30 31  2  0
 30 32  1  0
 32 33  1  0
 33 34  2  0
 34 35  1  0
 35 36  2  0
 36 37  1  0
 36 38  1  0
 38 39  2  0
 28 40  1  0
 40 41  2  0
 21 42  1  0
 42 43  2  0
 43 44  1  0
 44 45  2  0
 45 46  1  0
 46 47  2  0
 47 48  1  0
 48  2  1  0
 19  7  1  0
 40 22  1  0
 47 42  1  0
 18 13  1  0
 39 33  1  0
  1 49  1  0
  1 50  1  0
  1 51  1  0
  9 52  1  0
  9 53  1  0
  9 54  1  0
 11 55  1  0
 11 56  1  0
 11 57  1  0
 14 58  1  0
 15 59  1  0
 16 60  1  0
 17 61  1  0
 18 62  1  0
 29 63  1  0
 29 64  1  0
 34 65  1  0
 35 66  1  0
 37 67  1  0
 38 68  1  0
 39 69  1  0
 43 70  1  0
 44 71  1  0
 45 72  1  0
 46 73  1  0
M  CHG  3   6  -1  25  -1  32  -1
M  END
>  <UniqueID>  (73) 
71

>  <SMILES>  (73) 
CC1=C(C(=O)[N-]c2c(C)n(C)n(-c3ccccc3)c2=O)C(=C2C(=O)[N-]C(=O)N(CC(=O)[N-]c3ccc(O)cc3)C2=O)c2ccccc2O1

>  <Energy>  (73) 
161.3834113952377

>  <Genealogy>  (73) 
CC1=C(C(=O)[N-]c2c(C)n(C)n(-c3ccccc3)c2=O)C(=C2C(=O)[N-]C(=O)N(CC(=O)[N-]c3ccc(O)cc3)C2=O)c2ccccc2O1 (protonated)
CC1=C(C(=O)[N-]c2c(C)n(C)n(-c3ccccc3)c2=O)C(=C2C(=O)[N-]C(=O)N(CC(=O)[N-]c3ccc(O)cc3)C2=O)c2ccccc2O1 (3D coordinates assigned)
CC1=C(C(=O)[N-]c2c(C)n(C)n(-c3ccccc3)c2=O)C(=C2C(=O)[N-]C(=O)N(CC(=O)[N-]c3ccc(O)cc3)C2=O)c2ccccc2O1 (nonaromatic ring conformer: 161.3834113952377 kcal/mol)

>  <smiles>  (73) 
CC1=C(C(=O)Nc2c(C)n(C)n(-c3ccccc3)c2=O)C(=C2C(=O)NC(=O)N(CC(=O)Nc3ccc(O)cc3)C2=O)c2ccccc2O1

>  <score_type>  (73) 
oracle

>  <origin>  (73) 
adg

>  <m_score__min__energy>  (73) 
-14.18

>  <m_primary>  (73) 
energy

$$$$
73:0
     RDKit          3D

 23 24  0  0  0  0  0  0  0  0999 V2000
   60.7220   27.7900   45.6180 H   0  0  0  0  0  0  0  0  0  0  0  0
   59.6370   27.9490   45.5310 C   0  0  0  0  0  0  0  0  0  0  0  0
   58.7730   27.0500   46.0730 N   0  0  0  0  0  0  0  0  0  0  0  0
   57.4190   27.2110   45.9970 C   0  0  0  0  0  0  0  0  0  0  0  0
   56.6100   26.3290   46.5100 N   0  0  0  0  0  0  0  0  0  0  0  0
   55.5870   25.6090   45.8030 C   0  0  0  0  0  0  0  0  0  0  0  0
   54.3890   25.9690   45.9500 O   0  0  0  0  0  0  0  0  0  0  0  0
   55.8900   24.4270   44.9610 C   0  0  0  0  0  0  0  0  0  0  0  0
   54.8510   23.6960   44.3610 C   0  0  0  0  0  0  0  0  0  0  0  0
   53.8064   24.0082   44.5073 H   0  0  0  0  0  0  0  0  0  0  0  0
   55.1310   22.6040   43.6000 N   0  0  0  0  0  0  0  0  0  0  0  0
   56.4060   22.1760   43.4030 C   0  0  0  0  0  0  0  0  0  0  0  0
   56.6230   21.1610   42.6910 O   0  0  0  0  0  0  0  0  0  0  0  0
   57.4710   22.8620   43.9910 C   0  0  0  0  0  0  0  0  0  0  0  0
   58.5050   22.5202   43.8364 H   0  0  0  0  0  0  0  0  0  0  0  0
   57.2100   23.9860   44.7770 C   0  0  0  0  0  0  0  0  0  0  0  0
   58.0407   24.5273   45.2533 H   0  0  0  0  0  0  0  0  0  0  0  0
   56.8950   28.3240   45.3240 C   0  0  0  0  0  0  0  0  0  0  0  0
   55.5200   28.5080   45.2150 O   0  0  0  0  0  0  0  0  0  0  0  0
   57.7690   29.2590   44.7590 C   0  0  0  0  0  0  0  0  0  0  0  0
   57.3697   30.1386   44.2328 H   0  0  0  0  0  0  0  0  0  0  0  0
   59.1480   29.0740   44.8640 C   0  0  0  0  0  0  0  0  0  0  0  0
   59.8422   29.8063   44.4261 H   0  0  0  0  0  0  0  0  0  0  0  0
  1  2  1  0
  2  3  1  0
  3  4  1  0
  4  5  2  0
  5  6  1  0
  6  7  2  0
  6  8  1  0
  8  9  2  0
  9 10  1  0
  9 11  1  0
 11 12  1  0
 12 13  2  0
 12 14  1  0
 14 15  1  0
 14 16  2  0
 16 17  1  0
  4 18  1  0
 18 19  1  0
 18 20  2  0
 20 21  1  0
 20 22  1  0
 22 23  1  0
 22  2  2  0
 16  8  1  0
M  CHG  3   3  -1  11  -1  19  -1
M  END
>  <UniqueID>  (74) 
72

>  <SMILES>  (74) 
O=C(/N=c1\[n-]cccc1[O-])c1ccc(=O)[n-]c1

>  <Energy>  (74) 
34.07589012515741

>  <Genealogy>  (74) 
O=C(N=c1[n-]cccc1[O-])c1ccc(=O)[n-]c1 (protonated)
O=C(/N=c1\[n-]cccc1[O-])c1ccc(=O)[n-]c1 (cis-trans isomerization)
O=C(/N=c1\[n-]cccc1[O-])c1ccc(=O)[n-]c1 (3D coordinates assigned)
O=C(/N=c1\[n-]cccc1[O-])c1ccc(=O)[n-]c1 (optimized conformer: 34.07589012515741 kcal/mol)

>  <smiles>  (74) 
O=C(N=c1[nH]cccc1O)c1ccc(=O)[nH]c1

>  <score_type>  (74) 
oracle

>  <origin>  (74) 
adg

>  <m_score__min__energy>  (74) 
-12.93

>  <m_primary>  (74) 
energy

$$$$
74:0
     RDKit          3D

 53 55  0  0  0  0  0  0  0  0999 V2000
   63.7640   33.1850   46.9140 C   0  0  0  0  0  0  0  0  0  0  0  0
   63.3660   34.1550   47.8760 O   0  0  0  0  0  0  0  0  0  0  0  0
   62.6550   33.8660   49.0530 C   0  0  0  0  0  0  0  0  0  0  0  0
   63.3040   33.4230   50.2230 C   0  0  0  0  0  0  0  0  0  0  0  0
   62.5730   33.1920   51.3930 C   0  0  0  0  0  0  0  0  0  0  0  0
   61.1940   33.4030   51.4110 C   0  0  0  0  0  0  0  0  0  0  0  0
   60.5390   33.8360   50.2580 C   0  0  0  0  0  0  0  0  0  0  0  0
   61.2550   34.0460   49.0690 C   0  0  0  0  0  0  0  0  0  0  0  0
   60.5490   34.4970   47.9030 N   0  0  0  0  0  0  0  0  0  0  0  0
   60.4120   33.7020   46.7140 C   0  0  0  0  0  0  0  0  0  0  0  0
   60.8440   32.5160   46.6820 O   0  0  0  0  0  0  0  0  0  0  0  0
   59.6930   34.2540   45.5190 C   0  0  0  0  0  0  0  0  0  0  0  0
   58.2330   34.2790   45.7550 N   0  0  0  0  0  0  0  0  0  0  0  0
   57.8160   33.3050   46.7850 C   0  0  0  0  0  0  0  0  0  0  0  0
   57.8180   31.8670   46.2500 C   0  0  0  0  0  0  0  0  0  0  0  0
   56.9400   31.7690   45.0750 N   0  0  0  0  0  0  0  0  0  0  0  0
   56.8640   30.1150   44.4950 S   0  0  0  0  0  0  0  0  0  0  0  0
   55.5520   29.4780   44.8710 O   0  0  0  0  0  0  0  0  0  0  0  0
   56.9950   30.0680   42.9960 O   0  0  0  0  0  0  0  0  0  0  0  0
   58.1570   29.1850   45.2090 N   0  0  0  0  0  0  0  0  0  0  0  0
   59.4490   29.5980   44.6320 C   0  0  0  0  0  0  0  0  0  0  0  0
   60.5660   28.6090   45.0240 C   0  0  0  0  0  0  0  0  0  0  0  0
   60.1450   27.7570   46.0730 O   0  0  0  0  0  0  0  0  0  0  0  0
   59.0780   26.9370   45.6280 C   0  0  0  0  0  0  0  0  0  0  0  0
   57.9380   27.7510   44.9780 C   0  0  0  0  0  0  0  0  0  0  0  0
   57.4080   32.6710   44.0130 C   0  0  0  0  0  0  0  0  0  0  0  0
   57.4340   34.1220   44.5190 C   0  0  0  0  0  0  0  0  0  0  0  0
   64.1327   32.2864   47.4303 H   0  0  0  0  0  0  0  0  0  0  0  0
   62.9026   32.9184   46.2840 H   0  0  0  0  0  0  0  0  0  0  0  0
   64.5644   33.6003   46.2840 H   0  0  0  0  0  0  0  0  0  0  0  0
   64.3915   33.2580   50.2160 H   0  0  0  0  0  0  0  0  0  0  0  0
   63.0866   32.8432   52.3010 H   0  0  0  0  0  0  0  0  0  0  0  0
   60.6230   33.2278   52.3347 H   0  0  0  0  0  0  0  0  0  0  0  0
   59.4538   34.0141   50.2807 H   0  0  0  0  0  0  0  0  0  0  0  0
   59.9760   35.3690   47.9850 H   0  0  0  0  0  0  0  0  0  0  0  0
   60.0455   35.2780   45.3263 H   0  0  0  0  0  0  0  0  0  0  0  0
   59.9009   33.6102   44.6517 H   0  0  0  0  0  0  0  0  0  0  0  0
   58.5104   33.3685   47.6357 H   0  0  0  0  0  0  0  0  0  0  0  0
   56.7888   33.5525   47.0908 H   0  0  0  0  0  0  0  0  0  0  0  0
   58.8423   31.5855   45.9644 H   0  0  0  0  0  0  0  0  0  0  0  0
   57.4508   31.1884   47.0340 H   0  0  0  0  0  0  0  0  0  0  0  0
   59.3615   29.6270   43.5359 H   0  0  0  0  0  0  0  0  0  0  0  0
   59.7070   30.5935   45.0223 H   0  0  0  0  0  0  0  0  0  0  0  0
   60.8289   27.9979   44.1480 H   0  0  0  0  0  0  0  0  0  0  0  0
   61.4379   29.1843   45.3687 H   0  0  0  0  0  0  0  0  0  0  0  0
   59.4673   26.2222   44.8881 H   0  0  0  0  0  0  0  0  0  0  0  0
   58.6624   26.4229   46.5072 H   0  0  0  0  0  0  0  0  0  0  0  0
   57.9194   27.5540   43.8960 H   0  0  0  0  0  0  0  0  0  0  0  0
   56.9781   27.4533   45.4252 H   0  0  0  0  0  0  0  0  0  0  0  0
   58.4222   32.3753   43.7065 H   0  0  0  0  0  0  0  0  0  0  0  0
   56.7208   32.6028   43.1568 H   0  0  0  0  0  0  0  0  0  0  0  0
   57.8677   34.7607   43.7355 H   0  0  0  0  0  0  0  0  0  0  0  0
   56.3989   34.4124   44.7520 H   0  0  0  0  0  0  0  0  0  0  0  0
  1  2  1  0
  2  3  1  0
  3  4  2  0
  4  5  1  0
  5  6  2  0
  6  7  1  0
  7  8  2  0
  8  9  1  0
  9 10  1  0
 10 11  2  0
 10 12  1  0
 12 13  1  0
 13 14  1  0
 14 15  1  0
 15 16  1  0
 16 17  1  0
 17 18  2  0
 17 19  2  0
 17 20  1  0
 20 21  1  0
 21 22  1  0
 22 23  1  0
 23 24  1  0
 24 25  1  0
 16 26  1  0
 26 27  1  0
  8  3  1  0
 27 13  1  0
 25 20  1  0
  1 28  1  0
  1 29  1  0
  1 30  1  0
  4 31  1  0
  5 32  1  0
  6 33  1  0
  7 34  1  0
  9 35  1  0
 12 36  1  0
 12 37  1  0
 14 38  1  0
 14 39  1  0
 15 40  1  0
 15 41  1  0
 21 42  1  0
 21 43  1  0
 22 44  1  0
 22 45  1  0
 24 46  1  0
 24 47  1  0
 25 48  1  0
 25 49  1  0
 26 50  1  0
 26 51  1  0
 27 52  1  0
 27 53  1  0
M  END
>  <UniqueID>  (75) 
73

>  <SMILES>  (75) 
COc1ccccc1NC(=O)CN1CCN(S(=O)(=O)N2CCOCC2)CC1

>  <Energy>  (75) 
65.1984701859549

>  <Genealogy>  (75) 
COc1ccccc1NC(=O)CN1CCN(S(=O)(=O)N2CCOCC2)CC1 (3D coordinates assigned)
COc1ccccc1NC(=O)CN1CCN(S(=O)(=O)N2CCOCC2)CC1 (nonaromatic ring conformer: 65.1984701859549 kcal/mol)

>  <smiles>  (75) 
COc1ccccc1NC(=O)CN1CCN(S(=O)(=O)N2CCOCC2)CC1

>  <score_type>  (75) 
oracle

>  <origin>  (75) 
adg

>  <m_score__min__energy>  (75) 
-9.0299999999999994

>  <m_primary>  (75) 
energy

$$$$
75:0
     RDKit          3D

 58 61  0  0  0  0  0  0  0  0999 V2000
   61.4320   30.6700   49.6080 H   0  0  0  0  0  0  0  0  0  0  0  0
   62.3090   30.9700   49.9630 O   0  0  0  0  0  0  0  0  0  0  0  0
   62.3000   30.7150   51.3450 C   0  0  1  0  0  0  0  0  0  0  0  0
   63.0892   31.3045   51.8346 H   0  0  0  0  0  0  0  0  0  0  0  0
   60.9370   31.1390   51.9430 C   0  0  0  0  0  0  0  0  0  0  0  0
   60.4771   31.8765   51.2688 H   0  0  0  0  0  0  0  0  0  0  0  0
   61.1404   31.5507   52.9426 H   0  0  0  0  0  0  0  0  0  0  0  0
   59.9480   29.9700   52.1320 C   0  0  0  0  0  0  0  0  0  0  0  0
   58.9228   30.3681   52.1127 H   0  0  0  0  0  0  0  0  0  0  0  0
   60.1762   29.4902   53.0952 H   0  0  0  0  0  0  0  0  0  0  0  0
   60.0840   28.9040   51.0340 C   0  0  1  0  0  0  0  0  0  0  0  0
   59.3991   28.0730   51.2582 H   0  0  0  0  0  0  0  0  0  0  0  0
   59.7240   29.4960   49.7420 N   0  0  0  0  0  0  0  0  0  0  0  0
   59.5680   28.8350   48.6330 C   0  0  0  0  0  0  0  0  0  0  0  0
   60.0190   27.5550   48.5100 N   0  0  0  0  0  0  0  0  0  0  0  0
   59.8720   26.8500   47.3590 C   0  0  0  0  0  0  0  0  0  0  0  0
   60.2521   25.8197   47.2951 H   0  0  0  0  0  0  0  0  0  0  0  0
   59.2400   27.4280   46.2560 C   0  0  0  0  0  0  0  0  0  0  0  0
   59.1610   26.7240   45.0990 F   0  0  0  0  0  0  0  0  0  0  0  0
   58.7450   28.7440   46.3510 C   0  0  0  0  0  0  0  0  0  0  0  0
   58.0720   29.4100   45.2110 C   0  0  0  0  0  0  0  0  0  0  0  0
   58.1470   30.7660   45.0950 N   0  0  0  0  0  0  0  0  0  0  0  0
   57.5430   31.4500   44.0830 C   0  0  0  0  0  0  0  0  0  0  0  0
   57.6330   32.7470   43.9940 N   0  0  0  0  0  0  0  0  0  0  0  0
   57.4600   33.6960   45.0570 C   0  0  0  0  0  0  0  0  0  0  0  0
   56.8930   34.8060   44.8660 O   0  0  0  0  0  0  0  0  0  0  0  0
   57.9470   33.3750   46.3670 C   0  0  0  0  0  0  0  0  0  0  0  0
   58.3570   33.1070   47.4690 C   0  0  0  0  0  0  0  0  0  0  0  0
   58.8620   32.7850   48.8120 C   0  0  0  0  0  0  0  0  0  0  0  0
   58.8087   33.6872   49.4391 H   0  0  0  0  0  0  0  0  0  0  0  0
   58.2402   31.9790   49.2289 H   0  0  0  0  0  0  0  0  0  0  0  0
   60.2620   32.3130   48.7690 N   0  0  0  0  0  0  0  0  0  0  0  0
   60.3290   31.3090   49.0590 H   0  0  0  0  0  0  0  0  0  0  0  0
   61.0040   32.4940   47.5010 C   0  0  0  0  0  0  0  0  0  0  0  0
   60.1459   32.7926   46.8810 H   0  0  0  0  0  0  0  0  0  0  0  0
   61.8850   31.3070   47.1180 C   0  0  0  0  0  0  0  0  0  0  0  0
   61.8931   30.4944   47.8594 H   0  0  0  0  0  0  0  0  0  0  0  0
   61.6648   30.7139   46.2181 H   0  0  0  0  0  0  0  0  0  0  0  0
   63.1130   32.2130   47.1700 C   0  0  0  0  0  0  0  0  0  0  0  0
   63.8429   31.9327   47.9437 H   0  0  0  0  0  0  0  0  0  0  0  0
   63.7888   32.2774   46.3044 H   0  0  0  0  0  0  0  0  0  0  0  0
   62.2360   33.4030   47.5470 C   0  0  0  0  0  0  0  0  0  0  0  0
   62.4493   33.8233   48.5409 H   0  0  0  0  0  0  0  0  0  0  0  0
   62.2693   34.3325   46.9597 H   0  0  0  0  0  0  0  0  0  0  0  0
   56.8120   30.7470   43.1190 C   0  0  0  0  0  0  0  0  0  0  0  0
   56.3266   31.2839   42.2907 H   0  0  0  0  0  0  0  0  0  0  0  0
   56.7040   29.3610   43.2170 C   0  0  0  0  0  0  0  0  0  0  0  0
   56.1257   28.8004   42.4678 H   0  0  0  0  0  0  0  0  0  0  0  0
   57.3290   28.6840   44.2650 C   0  0  0  0  0  0  0  0  0  0  0  0
   57.2407   27.5908   44.3498 H   0  0  0  0  0  0  0  0  0  0  0  0
   58.9260   29.4490   47.5510 C   0  0  0  0  0  0  0  0  0  0  0  0
   58.5635   30.4836   47.6413 H   0  0  0  0  0  0  0  0  0  0  0  0
   61.5190   28.3100   50.9930 C   0  0  0  0  0  0  0  0  0  0  0  0
   61.7863   28.1214   49.9428 H   0  0  0  0  0  0  0  0  0  0  0  0
   61.5018   27.3896   51.5952 H   0  0  0  0  0  0  0  0  0  0  0  0
   62.5920   29.2300   51.6100 C   0  0  0  0  0  0  0  0  0  0  0  0
   63.5697   28.9772   51.1739 H   0  0  0  0  0  0  0  0  0  0  0  0
   62.5886   29.0726   52.6987 H   0  0  0  0  0  0  0  0  0  0  0  0
  1  2  1  0
  2  3  1  0
  3  4  1  1
  3  5  1  0
  5  6  1  0
  5  7  1  0
  5  8  1  0
  8  9  1  0
  8 10  1  0
  8 11  1  0
 11 12  1  1
 11 13  1  0
 13 14  2  0
 14 15  1  0
 15 16  1  0
 16 17  1  0
 16 18  2  0
 18 19  1  0
 18 20  1  0
 20 21  1  0
 21 22  1  0
 22 23  1  0
 23 24  2  0
 24 25  1  0
 25 26  2  0
 25 27  1  0
 27 28  3  0
 28 29  1  0
 29 30  1  0
 29 31  1  0
 29 32  1  0
 32 33  1  0
 32 34  1  0
 34 35  1  0
 34 36  1  0
 36 37  1  0
 36 38  1  0
 36 39  1  0
 39 40  1  0
 39 41  1  0
 39 42  1  0
 42 43  1  0
 42 44  1  0
 23 45  1  0
 45 46  1  0
 45 47  2  0
 47 48  1  0
 47 49  1  0
 49 50  1  0
 20 51  2  0
 51 52  1  0
 11 53  1  0
 53 54  1  0
 53 55  1  0
 53 56  1  0
 56 57  1  0
 56 58  1  0
 56  3  1  0
 51 14  1  0
 49 21  2  0
 42 34  1  0
M  CHG  2  15  -1  22  -1
M  END
>  <UniqueID>  (76) 
74

>  <SMILES>  (76) 
O=C(C#CCNC1CCC1)/N=c1/cccc(-c2c/c(=N/C3CCC(O)CC3)[n-]cc2F)[n-]1

>  <Energy>  (76) 
135.1061616325506

>  <Genealogy>  (76) 
O=C(C#CCNC1CCC1)N=c1cccc(-c2cc(=NC3CCC(O)CC3)[n-]cc2F)[n-]1 (protonated)
O=C(C#CCNC1CCC1)/N=c1/cccc(-c2c/c(=N/C3CCC(O)CC3)[n-]cc2F)[n-]1 (cis-trans isomerization)
O=C(C#CCNC1CCC1)/N=c1/cccc(-c2c/c(=N/C3CCC(O)CC3)[n-]cc2F)[n-]1 (3D coordinates assigned)
O=C(C#CCNC1CCC1)/N=c1/cccc(-c2c/c(=N/C3CCC(O)CC3)[n-]cc2F)[n-]1 (nonaromatic ring conformer: 135.1061616325506 kcal/mol)

>  <smiles>  (76) 
O=C(C#CCNC1CCC1)N=c1cccc(-c2cc(=NC3CCC(O)CC3)[nH]cc2F)[nH]1

>  <score_type>  (76) 
oracle

>  <origin>  (76) 
adg

>  <m_score__min__energy>  (76) 
-11.630000000000001

>  <m_primary>  (76) 
energy

$$$$
76:0
     RDKit          3D

 28 30  0  0  0  0  0  0  0  0999 V2000
   59.4090   28.7258   48.1256 H   0  0  0  0  0  0  0  0  0  0  0  0
   59.0870   29.6610   48.6070 C   0  0  0  0  0  0  0  0  0  0  0  0
   59.2280   30.8770   47.9330 C   0  0  0  0  0  0  0  0  0  0  0  0
   59.6694   30.8996   46.9257 H   0  0  0  0  0  0  0  0  0  0  0  0
   58.8080   32.0650   48.5390 C   0  0  0  0  0  0  0  0  0  0  0  0
   58.9650   33.5890   47.6850 Cl  0  0  0  0  0  0  0  0  0  0  0  0
   58.2580   32.0380   49.8260 C   0  0  0  0  0  0  0  0  0  0  0  0
   57.9121   32.9719   50.2932 H   0  0  0  0  0  0  0  0  0  0  0  0
   58.1460   30.8270   50.5220 C   0  0  0  0  0  0  0  0  0  0  0  0
   57.5330   30.8250   51.8220 N   0  0  0  0  0  0  0  0  0  0  0  0
   56.3240   30.4390   52.1210 C   0  0  0  0  0  0  0  0  0  0  0  0
   56.0170   29.1310   53.1480 S   0  0  0  0  0  0  0  0  0  0  0  0
   54.3710   28.9060   53.3770 C   0  0  0  0  0  0  0  0  0  0  0  0
   53.9700   27.9640   54.1140 O   0  0  0  0  0  0  0  0  0  0  0  0
   53.4800   29.7850   52.7350 C   0  0  0  0  0  0  0  0  0  0  0  0
   52.0920   29.6040   52.9200 C   0  0  0  0  0  0  0  0  0  0  0  0
   51.7343   28.7815   53.5568 H   0  0  0  0  0  0  0  0  0  0  0  0
   51.1680   30.4490   52.3100 C   0  0  0  0  0  0  0  0  0  0  0  0
   50.0910   30.2893   52.4670 H   0  0  0  0  0  0  0  0  0  0  0  0
   51.6040   31.4940   51.5030 C   0  0  0  0  0  0  0  0  0  0  0  0
   50.6770   32.3350   50.8970 O   0  0  0  0  0  0  0  0  0  0  0  0
   52.9670   31.7010   51.2990 C   0  0  0  0  0  0  0  0  0  0  0  0
   53.2960   32.5322   50.6580 H   0  0  0  0  0  0  0  0  0  0  0  0
   53.9330   30.8660   51.8980 C   0  0  0  0  0  0  0  0  0  0  0  0
   55.2600   31.1400   51.6440 N   0  0  0  0  0  0  0  0  0  0  0  0
   55.4820   31.9550   51.0250 H   0  0  0  0  0  0  0  0  0  0  0  0
   58.5370   29.6310   49.8930 C   0  0  0  0  0  0  0  0  0  0  0  0
   58.4100   28.6702   50.4134 H   0  0  0  0  0  0  0  0  0  0  0  0
  1  2  1  0
  2  3  2  0
  3  4  1  0
  3  5  1  0
  5  6  1  0
  5  7  2  0
  7  8  1  0
  7  9  1  0
  9 10  1  0
 10 11  2  0
 11 12  1  0
 12 13  1  0
 13 14  2  0
 13 15  1  0
 15 16  2  0
 16 17  1  0
 16 18  1  0
 18 19  1  0
 18 20  2  0
 20 21  1  0
 20 22  1  0
 22 23  1  0
 22 24  2  0
 24 25  1  0
 25 26  1  0
  9 27  2  0
 27 28  1  0
 27  2  1  0
 25 11  1  0
 24 15  1  0
M  CHG  1  21  -1
M  END
>  <UniqueID>  (77) 
75

>  <SMILES>  (77) 
O=c1s/c(=N\c2cccc(Cl)c2)[nH]c2cc([O-])ccc12

>  <Energy>  (77) 
48.90615604534705

>  <Genealogy>  (77) 
O=c1sc(=Nc2cccc(Cl)c2)[nH]c2cc([O-])ccc12 (protonated)
O=c1s/c(=N\c2cccc(Cl)c2)[nH]c2cc([O-])ccc12 (cis-trans isomerization)
O=c1s/c(=N\c2cccc(Cl)c2)[nH]c2cc([O-])ccc12 (3D coordinates assigned)
O=c1s/c(=N\c2cccc(Cl)c2)[nH]c2cc([O-])ccc12 (optimized conformer: 48.90615604534705 kcal/mol)

>  <smiles>  (77) 
O=c1sc(=Nc2cccc(Cl)c2)[nH]c2cc(O)ccc12

>  <score_type>  (77) 
oracle

>  <origin>  (77) 
adg

>  <m_score__min__energy>  (77) 
-11.210000000000001

>  <m_primary>  (77) 
energy

$$$$
77:0
     RDKit          3D

 56 57  0  0  0  0  0  0  0  0999 V2000
   60.2170   29.5620   48.4150 C   0  0  0  0  0  0  0  0  0  0  0  0
   58.9310   30.3080   48.7920 C   0  0  0  0  0  0  0  0  0  0  0  0
   58.5360   30.0220   50.2470 C   0  0  0  0  0  0  0  0  0  0  0  0
   59.0670   31.8090   48.5480 C   0  0  0  0  0  0  0  0  0  0  0  0
   59.6030   32.6220   49.5630 C   0  0  0  0  0  0  0  0  0  0  0  0
   59.7740   33.9870   49.3650 C   0  0  0  0  0  0  0  0  0  0  0  0
   59.4180   34.5710   48.1550 C   0  0  0  0  0  0  0  0  0  0  0  0
   58.8630   33.8030   47.1150 C   0  0  0  0  0  0  0  0  0  0  0  0
   58.5170   34.5210   45.8100 C   0  0  0  0  0  0  0  0  0  0  0  0
   57.0980   34.2120   45.3130 C   0  0  0  0  0  0  0  0  0  0  0  0
   59.5670   34.2710   44.7210 C   0  0  0  0  0  0  0  0  0  0  0  0
   58.6730   32.4080   47.3200 C   0  0  0  0  0  0  0  0  0  0  0  0
   58.0910   31.5970   46.2900 N   0  0  0  0  0  0  0  0  0  0  0  0
   58.8940   30.7900   45.4230 C   0  0  0  0  0  0  0  0  0  0  0  0
   60.1230   30.6360   45.6600 O   0  0  0  0  0  0  0  0  0  0  0  0
   58.2920   30.1730   44.2830 N   0  0  0  0  0  0  0  0  0  0  0  0
   56.6350   29.6600   44.2300 S   0  0  0  0  0  0  0  0  0  0  0  0
   55.7320   30.7710   44.6880 O   0  0  0  0  0  0  0  0  0  0  0  0
   56.2880   29.3220   42.8090 O   0  0  0  0  0  0  0  0  0  0  0  0
   56.4100   28.2420   45.2180 N   0  0  0  0  0  0  0  0  0  0  0  0
   57.6820   27.5490   45.4890 C   0  0  0  0  0  0  0  0  0  0  0  0
   57.9140   27.3110   47.0130 C   0  0  0  0  0  0  0  0  0  0  0  0
   57.8680   25.8300   47.4210 C   0  0  0  0  0  0  0  0  0  0  0  0
   56.6830   25.1200   46.7610 C   0  0  0  0  0  0  0  0  0  0  0  0
   56.7390   25.1840   45.2210 C   0  0  0  0  0  0  0  0  0  0  0  0
   57.7220   26.2380   44.6810 C   0  0  0  0  0  0  0  0  0  0  0  0
   60.7449   29.2557   49.3301 H   0  0  0  0  0  0  0  0  0  0  0  0
   59.9635   28.6707   47.8222 H   0  0  0  0  0  0  0  0  0  0  0  0
   60.8649   30.2245   47.8222 H   0  0  0  0  0  0  0  0  0  0  0  0
   58.1266   29.9355   48.1407 H   0  0  0  0  0  0  0  0  0  0  0  0
   59.2381   30.5304   50.9242 H   0  0  0  0  0  0  0  0  0  0  0  0
   57.5167   30.3928   50.4299 H   0  0  0  0  0  0  0  0  0  0  0  0
   58.5701   28.9378   50.4299 H   0  0  0  0  0  0  0  0  0  0  0  0
   59.8902   32.1721   50.5248 H   0  0  0  0  0  0  0  0  0  0  0  0
   60.1932   34.6084   50.1701 H   0  0  0  0  0  0  0  0  0  0  0  0
   59.5725   35.6502   48.0083 H   0  0  0  0  0  0  0  0  0  0  0  0
   58.5342   35.5959   46.0428 H   0  0  0  0  0  0  0  0  0  0  0  0
   56.4309   34.0667   46.1755 H   0  0  0  0  0  0  0  0  0  0  0  0
   56.7320   35.0515   44.7037 H   0  0  0  0  0  0  0  0  0  0  0  0
   57.1142   33.2963   44.7037 H   0  0  0  0  0  0  0  0  0  0  0  0
   60.5347   34.0406   45.1906 H   0  0  0  0  0  0  0  0  0  0  0  0
   59.2518   33.4228   44.0955 H   0  0  0  0  0  0  0  0  0  0  0  0
   59.6678   35.1702   44.0955 H   0  0  0  0  0  0  0  0  0  0  0  0
   57.0840   31.7400   46.0520 H   0  0  0  0  0  0  0  0  0  0  0  0
   55.9530   28.5340   46.1120 H   0  0  0  0  0  0  0  0  0  0  0  0
   58.5130   28.1927   45.1648 H   0  0  0  0  0  0  0  0  0  0  0  0
   58.9015   27.7146   47.2811 H   0  0  0  0  0  0  0  0  0  0  0  0
   57.0952   27.8168   47.5457 H   0  0  0  0  0  0  0  0  0  0  0  0
   58.8018   25.3405   47.1073 H   0  0  0  0  0  0  0  0  0  0  0  0
   57.7514   25.7690   48.5131 H   0  0  0  0  0  0  0  0  0  0  0  0
   56.6873   24.0645   47.0705 H   0  0  0  0  0  0  0  0  0  0  0  0
   55.7646   25.6324   47.0835 H   0  0  0  0  0  0  0  0  0  0  0  0
   57.0456   24.1974   44.8433 H   0  0  0  0  0  0  0  0  0  0  0  0
   55.7357   25.4727   44.8745 H   0  0  0  0  0  0  0  0  0  0  0  0
   58.7410   25.8263   44.7264 H   0  0  0  0  0  0  0  0  0  0  0  0
   57.4269   26.4726   43.6476 H   0  0  0  0  0  0  0  0  0  0  0  0
  1  2  1  0
  2  3  1  0
  2  4  1  0
  4  5  2  0
  5  6  1  0
  6  7  2  0
  7  8  1  0
  8  9  1  0
  9 10  1  0
  9 11  1  0
  8 12  2  0
 12 13  1  0
 13 14  1  0
 14 15  2  0
 14 16  1  0
 16 17  1  0
 17 18  2  0
 17 19  2  0
 17 20  1  0
 20 21  1  0
 21 22  1  0
 22 23  1  0
 23 24  1  0
 24 25  1  0
 25 26  1  0
 12  4  1  0
 26 21  1  0
  1 27  1  0
  1 28  1  0
  1 29  1  0
  2 30  1  0
  3 31  1  0
  3 32  1  0
  3 33  1  0
  5 34  1  0
  6 35  1  0
  7 36  1  0
  9 37  1  0
 10 38  1  0
 10 39  1  0
 10 40  1  0
 11 41  1  0
 11 42  1  0
 11 43  1  0
 13 44  1  0
 20 45  1  0
 21 46  1  0
 22 47  1  0
 22 48  1  0
 23 49  1  0
 23 50  1  0
 24 51  1  0
 24 52  1  0
 25 53  1  0
 25 54  1  0
 26 55  1  0
 26 56  1  0
M  CHG  1  16  -1
M  END
>  <UniqueID>  (78) 
76

>  <SMILES>  (78) 
CC(C)c1cccc(C(C)C)c1NC(=O)[N-]S(=O)(=O)NC1CCCCC1

>  <Energy>  (78) 
59.19650254445436

>  <Genealogy>  (78) 
CC(C)c1cccc(C(C)C)c1NC(=O)[N-]S(=O)(=O)NC1CCCCC1 (protonated)
CC(C)c1cccc(C(C)C)c1NC(=O)[N-]S(=O)(=O)NC1CCCCC1 (3D coordinates assigned)
CC(C)c1cccc(C(C)C)c1NC(=O)[N-]S(=O)(=O)NC1CCCCC1 (nonaromatic ring conformer: 59.19650254445436 kcal/mol)

>  <smiles>  (78) 
CC(C)c1cccc(C(C)C)c1NC(=O)NS(=O)(=O)NC1CCCCC1

>  <score_type>  (78) 
oracle

>  <origin>  (78) 
adg

>  <m_score__min__energy>  (78) 
-10.74

>  <m_primary>  (78) 
energy

$$$$
78:0
     RDKit          3D

 31 32  0  0  0  0  0  0  0  0999 V2000
   58.1850   29.3720   48.6770 O   0  0  0  0  0  0  0  0  0  0  0  0
   59.3910   29.1230   48.4100 C   0  0  0  0  0  0  0  0  0  0  0  0
   59.8350   27.7000   48.3000 C   0  0  0  0  0  0  0  0  0  0  0  0
   59.5950   27.2050   46.9850 O   0  0  0  0  0  0  0  0  0  0  0  0
   59.8760   27.9350   45.8220 C   0  0  0  0  0  0  0  0  0  0  0  0
   61.0120   27.8480   45.2800 O   0  0  0  0  0  0  0  0  0  0  0  0
   58.8350   28.8020   45.2290 C   0  0  0  0  0  0  0  0  0  0  0  0
   59.1890   29.9620   44.5140 C   0  0  0  0  0  0  0  0  0  0  0  0
   58.2000   30.7790   43.9570 C   0  0  0  0  0  0  0  0  0  0  0  0
   56.8510   30.4470   44.1050 C   0  0  0  0  0  0  0  0  0  0  0  0
   56.4880   29.2980   44.8130 C   0  0  0  0  0  0  0  0  0  0  0  0
   55.1460   28.9700   44.9600 O   0  0  0  0  0  0  0  0  0  0  0  0
   57.4740   28.4780   45.3730 C   0  0  0  0  0  0  0  0  0  0  0  0
   60.3060   30.1720   48.0600 N   0  0  0  0  0  0  0  0  0  0  0  0
   60.0610   31.3100   47.4700 C   0  0  0  0  0  0  0  0  0  0  0  0
   58.7880   31.7150   47.1600 N   0  0  0  0  0  0  0  0  0  0  0  0
   58.5480   32.9050   46.5430 C   0  0  0  0  0  0  0  0  0  0  0  0
   59.6030   33.7580   46.2190 C   0  0  0  0  0  0  0  0  0  0  0  0
   59.2930   35.2920   45.4270 Cl  0  0  0  0  0  0  0  0  0  0  0  0
   60.9060   33.3840   46.5440 C   0  0  0  0  0  0  0  0  0  0  0  0
   61.1430   32.1620   47.1770 C   0  0  0  0  0  0  0  0  0  0  0  0
   62.7980   31.7110   47.5730 Cl  0  0  0  0  0  0  0  0  0  0  0  0
   60.9110   27.6380   48.5199 H   0  0  0  0  0  0  0  0  0  0  0  0
   59.2666   27.0922   49.0194 H   0  0  0  0  0  0  0  0  0  0  0  0
   60.2496   30.2273   44.3928 H   0  0  0  0  0  0  0  0  0  0  0  0
   58.4847   31.6846   43.4014 H   0  0  0  0  0  0  0  0  0  0  0  0
   56.0747   31.0898   43.6644 H   0  0  0  0  0  0  0  0  0  0  0  0
   57.1829   27.5747   45.9291 H   0  0  0  0  0  0  0  0  0  0  0  0
   57.9540   31.1500   47.4210 H   0  0  0  0  0  0  0  0  0  0  0  0
   57.5156   33.1954   46.2986 H   0  0  0  0  0  0  0  0  0  0  0  0
   61.7467   34.0508   46.3021 H   0  0  0  0  0  0  0  0  0  0  0  0
  1  2  2  0
  2  3  1  0
  3  4  1  0
  4  5  1  0
  5  6  2  0
  5  7  1  0
  7  8  2  0
  8  9  1  0
  9 10  2  0
 10 11  1  0
 11 12  1  0
 11 13  2  0
  2 14  1  0
 14 15  2  3
 15 16  1  0
 16 17  1  0
 17 18  2  0
 18 19  1  0
 18 20  1  0
 20 21  2  0
 21 22  1  0
 13  7  1  0
 21 15  1  0
  3 23  1  0
  3 24  1  0
  8 25  1  0
  9 26  1  0
 10 27  1  0
 13 28  1  0
 16 29  1  0
 17 30  1  0
 20 31  1  0
M  CHG  1  12  -1
M  END
>  <UniqueID>  (79) 
77

>  <SMILES>  (79) 
O=C(COC(=O)c1cccc([O-])c1)N=c1[nH]cc(Cl)cc1Cl

>  <Energy>  (79) 
37.566891650654576

>  <Genealogy>  (79) 
O=C(COC(=O)c1cccc([O-])c1)N=c1[nH]cc(Cl)cc1Cl (protonated)
O=C(COC(=O)c1cccc([O-])c1)N=c1[nH]cc(Cl)cc1Cl (3D coordinates assigned)
O=C(COC(=O)c1cccc([O-])c1)N=c1[nH]cc(Cl)cc1Cl (optimized conformer: 37.566891650654576 kcal/mol)

>  <smiles>  (79) 
O=C(COC(=O)c1cccc(O)c1)N=c1[nH]cc(Cl)cc1Cl

>  <score_type>  (79) 
oracle

>  <origin>  (79) 
adg

>  <m_score__min__energy>  (79) 
-11.050000000000001

>  <m_primary>  (79) 
energy

$$$$
79:0
     RDKit          3D

 30 31  0  0  0  0  0  0  0  0999 V2000
   59.1730   24.9730   45.6580 O   0  0  0  0  0  0  0  0  0  0  0  0
   58.3040   25.6100   46.3120 C   0  0  0  0  0  0  0  0  0  0  0  0
   57.6510   24.9770   47.5010 C   0  0  0  0  0  0  0  0  0  0  0  0
   56.5280   24.1400   47.0740 N   0  0  0  0  0  0  0  0  0  0  0  0
   56.4170   22.8060   47.2160 C   0  0  0  0  0  0  0  0  0  0  0  0
   57.3500   22.0120   47.8730 O   0  0  0  0  0  0  0  0  0  0  0  0
   55.2660   22.3380   46.6120 C   0  0  0  0  0  0  0  0  0  0  0  0
   54.6460   23.4440   46.0600 C   0  0  0  0  0  0  0  0  0  0  0  0
   55.4550   24.5260   46.3560 C   0  0  0  0  0  0  0  0  0  0  0  0
   55.2150   25.8390   45.9620 O   0  0  0  0  0  0  0  0  0  0  0  0
   57.9510   26.9440   45.9400 N   0  0  0  0  0  0  0  0  0  0  0  0
   58.8230   28.0890   46.1650 C   0  0  0  0  0  0  0  0  0  0  0  0
   57.9950   29.2970   46.6030 C   0  0  0  0  0  0  0  0  0  0  0  0
   57.4140   29.9780   45.4390 N   0  0  0  0  0  0  0  0  0  0  0  0
   56.2770   29.5750   44.8000 C   0  0  0  0  0  0  0  0  0  0  0  0
   55.5210   28.4910   45.2310 O   0  0  0  0  0  0  0  0  0  0  0  0
   55.9300   30.3220   43.6790 C   0  0  0  0  0  0  0  0  0  0  0  0
   57.0940   31.5230   43.4750 S   0  0  0  0  0  0  0  0  0  0  0  0
   57.9780   31.0400   44.8180 C   0  0  0  0  0  0  0  0  0  0  0  0
   59.0440   31.5940   45.2010 O   0  0  0  0  0  0  0  0  0  0  0  0
   58.3868   24.3550   48.0317 H   0  0  0  0  0  0  0  0  0  0  0  0
   57.2768   25.7671   48.1686 H   0  0  0  0  0  0  0  0  0  0  0  0
   54.9140   21.2964   46.5772 H   0  0  0  0  0  0  0  0  0  0  0  0
   53.7001   23.4600   45.4987 H   0  0  0  0  0  0  0  0  0  0  0  0
   55.9130   26.3610   45.4440 H   0  0  0  0  0  0  0  0  0  0  0  0
   59.5524   27.8428   46.9507 H   0  0  0  0  0  0  0  0  0  0  0  0
   59.3499   28.3315   45.2304 H   0  0  0  0  0  0  0  0  0  0  0  0
   57.1843   28.9582   47.2649 H   0  0  0  0  0  0  0  0  0  0  0  0
   58.6517   30.0021   47.1337 H   0  0  0  0  0  0  0  0  0  0  0  0
   55.0508   30.1576   43.0387 H   0  0  0  0  0  0  0  0  0  0  0  0
  1  2  2  0
  2  3  1  0
  3  4  1  0
  4  5  1  0
  5  6  1  0
  5  7  2  0
  7  8  1  0
  8  9  2  0
  9 10  1  0
  2 11  1  0
 11 12  1  0
 12 13  1  0
 13 14  1  0
 14 15  1  0
 15 16  1  0
 15 17  2  0
 17 18  1  0
 18 19  1  0
 19 20  2  0
  9  4  1  0
 19 14  1  0
  3 21  1  0
  3 22  1  0
  7 23  1  0
  8 24  1  0
 10 25  1  0
 12 26  1  0
 12 27  1  0
 13 28  1  0
 13 29  1  0
 17 30  1  0
M  CHG  3   6  -1  11  -1  16  -1
M  END
>  <UniqueID>  (80) 
78

>  <SMILES>  (80) 
O=C(Cn1c([O-])ccc1O)[N-]CCn1c([O-])csc1=O

>  <Energy>  (80) 
79.75190763845141

>  <Genealogy>  (80) 
O=C(Cn1c([O-])ccc1O)[N-]CCn1c([O-])csc1=O (protonated)
O=C(Cn1c([O-])ccc1O)[N-]CCn1c([O-])csc1=O (3D coordinates assigned)
O=C(Cn1c([O-])ccc1O)[N-]CCn1c([O-])csc1=O (optimized conformer: 79.75190763845141 kcal/mol)

>  <smiles>  (80) 
O=C(Cn1c(O)ccc1O)NCCn1c(O)csc1=O

>  <score_type>  (80) 
oracle

>  <origin>  (80) 
adg

>  <m_score__min__energy>  (80) 
-13.5

>  <m_primary>  (80) 
energy

$$$$
80:0
     RDKit          3D

 41 43  0  0  0  0  0  0  0  0999 V2000
   54.7320   27.0910   46.7000 H   0  0  0  0  0  0  0  0  0  0  0  0
   54.8030   26.3290   45.9900 N   0  0  0  0  0  0  0  0  0  0  0  0
   56.4210   25.7280   46.0550 S   0  0  0  0  0  0  0  0  0  0  0  0
   56.7550   25.3330   47.4660 O   0  0  0  0  0  0  0  0  0  0  0  0
   56.5460   24.5170   45.1730 O   0  0  0  0  0  0  0  0  0  0  0  0
   57.5310   26.9790   45.5040 C   0  0  0  0  0  0  0  0  0  0  0  0
   58.9130   26.8200   45.6680 C   0  0  0  0  0  0  0  0  0  0  0  0
   59.3088   25.9063   46.1354 H   0  0  0  0  0  0  0  0  0  0  0  0
   59.7900   27.8200   45.2390 C   0  0  0  0  0  0  0  0  0  0  0  0
   60.8751   27.6877   45.3616 H   0  0  0  0  0  0  0  0  0  0  0  0
   59.2920   28.9870   44.6550 C   0  0  0  0  0  0  0  0  0  0  0  0
   59.9871   29.7667   44.3103 H   0  0  0  0  0  0  0  0  0  0  0  0
   57.9070   29.1690   44.5060 C   0  0  0  0  0  0  0  0  0  0  0  0
   57.3660   30.4260   43.8750 C   0  0  0  0  0  0  0  0  0  0  0  0
   58.1412   30.8685   43.2322 H   0  0  0  0  0  0  0  0  0  0  0  0
   56.4766   30.1665   43.2819 H   0  0  0  0  0  0  0  0  0  0  0  0
   56.9780   31.4000   44.8980 N   0  0  0  0  0  0  0  0  0  0  0  0
   57.7350   31.9110   45.8290 C   0  0  0  0  0  0  0  0  0  0  0  0
   58.2110   31.0880   46.8010 N   0  0  0  0  0  0  0  0  0  0  0  0
   59.0130   31.5340   47.8040 C   0  0  0  0  0  0  0  0  0  0  0  0
   59.3754   30.8330   48.5703 H   0  0  0  0  0  0  0  0  0  0  0  0
   59.3780   32.8830   47.8630 C   0  0  0  0  0  0  0  0  0  0  0  0
   60.4450   33.4780   49.1350 S   0  0  0  0  0  0  0  0  0  0  0  0
   59.8560   33.1780   50.4850 O   0  0  0  0  0  0  0  0  0  0  0  0
   60.5880   34.9670   48.9970 O   0  0  0  0  0  0  0  0  0  0  0  0
   62.0090   32.7370   49.0020 N   0  0  0  0  0  0  0  0  0  0  0  0
   62.3950   32.6660   49.9710 H   0  0  0  0  0  0  0  0  0  0  0  0
   62.8880   33.6280   48.2510 C   0  0  0  0  0  0  0  0  0  0  0  0
   63.0956   34.3465   49.0576 H   0  0  0  0  0  0  0  0  0  0  0  0
   62.5330   33.7480   46.7800 C   0  0  0  0  0  0  0  0  0  0  0  0
   61.6194   33.2721   46.3941 H   0  0  0  0  0  0  0  0  0  0  0  0
   62.3933   34.5844   46.0794 H   0  0  0  0  0  0  0  0  0  0  0  0
   63.7120   32.8920   47.2090 C   0  0  0  0  0  0  0  0  0  0  0  0
   63.6523   31.7962   47.1341 H   0  0  0  0  0  0  0  0  0  0  0  0
   64.7798   32.8515   46.9481 H   0  0  0  0  0  0  0  0  0  0  0  0
   58.9060   33.7540   46.8790 C   0  0  0  0  0  0  0  0  0  0  0  0
   59.1850   34.8176   46.9079 H   0  0  0  0  0  0  0  0  0  0  0  0
   58.0810   33.2780   45.8590 C   0  0  0  0  0  0  0  0  0  0  0  0
   57.7039   33.9629   45.0852 H   0  0  0  0  0  0  0  0  0  0  0  0
   57.0320   28.1530   44.9230 C   0  0  0  0  0  0  0  0  0  0  0  0
   55.9471   28.2793   44.7928 H   0  0  0  0  0  0  0  0  0  0  0  0
  1  2  1  0
  2  3  1  0
  3  4  2  0
  3  5  2  0
  3  6  1  0
  6  7  2  0
  7  8  1  0
  7  9  1  0
  9 10  1  0
  9 11  2  0
 11 12  1  0
 11 13  1  0
 13 14  1  0
 14 15  1  0
 14 16  1  0
 14 17  1  0
 17 18  2  0
 18 19  1  0
 19 20  1  0
 20 21  1  0
 20 22  2  0
 22 23  1  0
 23 24  2  0
 23 25  2  0
 23 26  1  0
 26 27  1  0
 26 28  1  0
 28 29  1  0
 28 30  1  0
 30 31  1  0
 30 32  1  0
 30 33  1  0
 33 34  1  0
 33 35  1  0
 22 36  1  0
 36 37  1  0
 36 38  2  0
 38 39  1  0
 13 40  2  0
 40 41  1  0
 40  6  1  0
 38 18  1  0
 33 28  1  0
M  CHG  2   2  -1  19  -1
M  END
>  <UniqueID>  (81) 
79

>  <SMILES>  (81) 
[NH-]S(=O)(=O)c1cccc(C/N=c2\ccc(S(=O)(=O)NC3CC3)c[n-]2)c1

>  <Energy>  (81) 
305.33589943183676

>  <Genealogy>  (81) 
[NH-]S(=O)(=O)c1cccc(CN=c2ccc(S(=O)(=O)NC3CC3)c[n-]2)c1 (protonated)
[NH-]S(=O)(=O)c1cccc(C/N=c2\ccc(S(=O)(=O)NC3CC3)c[n-]2)c1 (cis-trans isomerization)
[NH-]S(=O)(=O)c1cccc(C/N=c2\ccc(S(=O)(=O)NC3CC3)c[n-]2)c1 (3D coordinates assigned)
[NH-]S(=O)(=O)c1cccc(C/N=c2\ccc(S(=O)(=O)NC3CC3)c[n-]2)c1 (nonaromatic ring conformer: 305.33589943183676 kcal/mol)

>  <smiles>  (81) 
NS(=O)(=O)c1cccc(CN=c2ccc(S(=O)(=O)NC3CC3)c[nH]2)c1

>  <score_type>  (81) 
oracle

>  <origin>  (81) 
adg

>  <m_score__min__energy>  (81) 
-12.65

>  <m_primary>  (81) 
energy

$$$$
81:0
     RDKit          3D

 48 51  0  0  0  0  0  0  0  0999 V2000
   59.4360   30.4310   50.2570 O   0  0  0  0  0  0  0  0  0  0  0  0
   59.8840   30.5410   49.0840 C   0  0  0  0  0  0  0  0  0  0  0  0
   59.2270   29.8770   48.0490 C   0  0  0  0  0  0  0  0  0  0  0  0
   59.7290   29.9710   46.7410 C   0  0  0  0  0  0  0  0  0  0  0  0
   59.0630   29.2990   45.5960 C   0  0  0  0  0  0  0  0  0  0  0  0
   57.9590   29.9150   44.9800 C   0  0  0  0  0  0  0  0  0  0  0  0
   57.3180   29.3060   43.8970 C   0  0  0  0  0  0  0  0  0  0  0  0
   57.7770   28.0800   43.4110 C   0  0  0  0  0  0  0  0  0  0  0  0
   58.8800   27.4630   44.0050 C   0  0  0  0  0  0  0  0  0  0  0  0
   59.5250   28.0680   45.0880 C   0  0  0  0  0  0  0  0  0  0  0  0
   60.8250   30.6890   46.5110 O   0  0  0  0  0  0  0  0  0  0  0  0
   61.4840   31.3420   47.4630 C   0  0  0  0  0  0  0  0  0  0  0  0
   62.6340   32.0560   47.1240 C   0  0  0  0  0  0  0  0  0  0  0  0
   63.3510   32.7440   48.1070 C   0  0  0  0  0  0  0  0  0  0  0  0
   64.5140   33.4380   47.7790 O   0  0  0  0  0  0  0  0  0  0  0  0
   62.9010   32.7420   49.4280 C   0  0  0  0  0  0  0  0  0  0  0  0
   61.7200   32.0630   49.7880 C   0  0  0  0  0  0  0  0  0  0  0  0
   61.2000   32.1310   51.0950 O   0  0  0  0  0  0  0  0  0  0  0  0
   60.2950   33.1170   51.5940 C   0  0  0  0  0  0  0  0  0  0  0  0
   59.2710   33.5660   50.5360 C   0  0  0  0  0  0  0  0  0  0  0  0
   59.8620   34.4860   49.4530 C   0  0  0  0  0  0  0  0  0  0  0  0
   59.3470   34.1760   48.0670 C   0  0  0  0  0  0  0  0  0  0  0  0
   59.9150   34.7980   46.9430 C   0  0  0  0  0  0  0  0  0  0  0  0
   59.4470   34.4990   45.6590 C   0  0  0  0  0  0  0  0  0  0  0  0
   58.4050   33.5850   45.4880 C   0  0  0  0  0  0  0  0  0  0  0  0
   57.8410   32.9530   46.5990 C   0  0  0  0  0  0  0  0  0  0  0  0
   58.3170   33.2350   47.8830 C   0  0  0  0  0  0  0  0  0  0  0  0
   61.0300   31.3140   48.8020 C   0  0  0  0  0  0  0  0  0  0  0  0
   58.3233   29.2847   48.2552 H   0  0  0  0  0  0  0  0  0  0  0  0
   57.5967   30.8842   45.3534 H   0  0  0  0  0  0  0  0  0  0  0  0
   56.4509   29.7933   43.4271 H   0  0  0  0  0  0  0  0  0  0  0  0
   57.2700   27.6005   42.5607 H   0  0  0  0  0  0  0  0  0  0  0  0
   59.2424   26.4985   43.6198 H   0  0  0  0  0  0  0  0  0  0  0  0
   60.3981   27.5805   45.5463 H   0  0  0  0  0  0  0  0  0  0  0  0
   62.9776   32.0775   46.0792 H   0  0  0  0  0  0  0  0  0  0  0  0
   65.2500   33.0100   47.2300 H   0  0  0  0  0  0  0  0  0  0  0  0
   63.4757   33.2774   50.1981 H   0  0  0  0  0  0  0  0  0  0  0  0
   59.7528   32.6956   52.4533 H   0  0  0  0  0  0  0  0  0  0  0  0
   60.8865   33.9985   51.8821 H   0  0  0  0  0  0  0  0  0  0  0  0
   58.8631   32.6699   50.0454 H   0  0  0  0  0  0  0  0  0  0  0  0
   58.4982   34.1452   51.0626 H   0  0  0  0  0  0  0  0  0  0  0  0
   59.6031   35.5266   49.6981 H   0  0  0  0  0  0  0  0  0  0  0  0
   60.9499   34.3239   49.4427 H   0  0  0  0  0  0  0  0  0  0  0  0
   60.7315   35.5235   47.0729 H   0  0  0  0  0  0  0  0  0  0  0  0
   59.9006   34.9847   44.7824 H   0  0  0  0  0  0  0  0  0  0  0  0
   58.0284   33.3627   44.4787 H   0  0  0  0  0  0  0  0  0  0  0  0
   57.0211   32.2323   46.4633 H   0  0  0  0  0  0  0  0  0  0  0  0
   57.8846   32.7192   48.7530 H   0  0  0  0  0  0  0  0  0  0  0  0
  1  2  2  0
  2  3  1  0
  3  4  2  0
  4  5  1  0
  5  6  2  0
  6  7  1  0
  7  8  2  0
  8  9  1  0
  9 10  2  0
  4 11  1  0
 11 12  1  0
 12 13  2  0
 13 14  1  0
 14 15  1  0
 14 16  2  0
 16 17  1  0
 17 18  1  0
 18 19  1  0
 19 20  1  0
 20 21  1  0
 21 22  1  0
 22 23  2  0
 23 24  1  0
 24 25  2  0
 25 26  1  0
 26 27  2  0
 17 28  2  0
 28  2  1  0
 10  5  1  0
 28 12  1  0
 27 22  1  0
  3 29  1  0
  6 30  1  0
  7 31  1  0
  8 32  1  0
  9 33  1  0
 10 34  1  0
 13 35  1  0
 15 36  1  0
 16 37  1  0
 19 38  1  0
 19 39  1  0
 20 40  1  0
 20 41  1  0
 21 42  1  0
 21 43  1  0
 23 44  1  0
 24 45  1  0
 25 46  1  0
 26 47  1  0
 27 48  1  0
M  END
>  <UniqueID>  (82) 
80

>  <SMILES>  (82) 
O=c1cc(-c2ccccc2)oc2cc(O)cc(OCCCc3ccccc3)c12

>  <Energy>  (82) 
55.929319215286505

>  <Genealogy>  (82) 
O=c1cc(-c2ccccc2)oc2cc(O)cc(OCCCc3ccccc3)c12 (3D coordinates assigned)
O=c1cc(-c2ccccc2)oc2cc(O)cc(OCCCc3ccccc3)c12 (optimized conformer: 55.929319215286505 kcal/mol)

>  <smiles>  (82) 
O=c1cc(-c2ccccc2)oc2cc(O)cc(OCCCc3ccccc3)c12

>  <score_type>  (82) 
oracle

>  <origin>  (82) 
adg

>  <m_score__min__energy>  (82) 
-7.7400000000000002

>  <m_primary>  (82) 
energy

$$$$
82:0
     RDKit          3D

 45 47  0  0  0  0  0  0  0  0999 V2000
   57.1710   33.2250   47.2920 O   0  0  0  0  0  0  0  0  0  0  0  0
   58.1280   32.5570   47.7740 C   0  0  0  0  0  0  0  0  0  0  0  0
   58.8590   33.0670   48.9740 C   0  0  0  0  0  0  0  0  0  0  0  0
   58.9400   31.9820   50.0110 C   0  0  0  0  0  0  0  0  0  0  0  0
   60.1910   31.5070   50.4380 C   0  0  0  0  0  0  0  0  0  0  0  0
   60.2700   30.4570   51.3560 C   0  0  0  0  0  0  0  0  0  0  0  0
   59.1060   29.8650   51.8550 C   0  0  0  0  0  0  0  0  0  0  0  0
   59.2130   28.8170   52.7690 O   0  0  0  0  0  0  0  0  0  0  0  0
   57.8510   30.3300   51.4260 C   0  0  0  0  0  0  0  0  0  0  0  0
   56.6830   29.7490   51.9060 O   0  0  0  0  0  0  0  0  0  0  0  0
   57.7710   31.3810   50.5060 C   0  0  0  0  0  0  0  0  0  0  0  0
   58.5500   31.3700   47.1660 O   0  0  0  0  0  0  0  0  0  0  0  0
   59.6070   31.3180   46.2070 C   0  0  2  0  0  0  0  0  0  0  0  0
   59.8730   29.8520   45.8280 C   0  0  0  0  0  0  0  0  0  0  0  0
   58.6110   29.0280   45.8690 C   0  0  0  0  0  0  0  0  0  0  0  0
   58.6170   27.7480   46.4490 C   0  0  0  0  0  0  0  0  0  0  0  0
   57.4570   26.9680   46.4430 C   0  0  0  0  0  0  0  0  0  0  0  0
   56.2850   27.4540   45.8540 C   0  0  0  0  0  0  0  0  0  0  0  0
   55.1370   26.6720   45.8510 O   0  0  0  0  0  0  0  0  0  0  0  0
   56.2740   28.7250   45.2670 C   0  0  0  0  0  0  0  0  0  0  0  0
   55.1150   29.2100   44.6750 O   0  0  0  0  0  0  0  0  0  0  0  0
   57.4340   29.5080   45.2710 C   0  0  0  0  0  0  0  0  0  0  0  0
   60.8540   31.9810   46.7650 C   0  0  0  0  0  0  0  0  0  0  0  0
   61.6510   31.2860   47.6930 C   0  0  0  0  0  0  0  0  0  0  0  0
   62.7940   31.8820   48.2350 C   0  0  0  0  0  0  0  0  0  0  0  0
   63.5700   31.1800   49.1500 O   0  0  0  0  0  0  0  0  0  0  0  0
   63.1520   33.1800   47.8580 C   0  0  0  0  0  0  0  0  0  0  0  0
   64.2900   33.7740   48.3930 O   0  0  0  0  0  0  0  0  0  0  0  0
   62.3640   33.8840   46.9440 C   0  0  0  0  0  0  0  0  0  0  0  0
   61.2160   33.2960   46.4020 C   0  0  0  0  0  0  0  0  0  0  0  0
   60.4420   34.0290   45.5100 O   0  0  0  0  0  0  0  0  0  0  0  0
   59.8749   33.3717   48.6822 H   0  0  0  0  0  0  0  0  0  0  0  0
   58.3216   33.9319   49.3900 H   0  0  0  0  0  0  0  0  0  0  0  0
   61.1125   31.9638   50.0478 H   0  0  0  0  0  0  0  0  0  0  0  0
   61.2538   30.0939   51.6881 H   0  0  0  0  0  0  0  0  0  0  0  0
   58.4000   28.3570   53.1570 H   0  0  0  0  0  0  0  0  0  0  0  0
   56.7871   31.7387   50.1684 H   0  0  0  0  0  0  0  0  0  0  0  0
   59.3161   31.8681   45.2999 H   0  0  0  0  0  0  0  0  0  0  0  0
   60.2890   29.8167   44.8103 H   0  0  0  0  0  0  0  0  0  0  0  0
   60.5808   29.4320   46.5578 H   0  0  0  0  0  0  0  0  0  0  0  0
   59.5372   27.3587   46.9091 H   0  0  0  0  0  0  0  0  0  0  0  0
   57.4658   25.9688   46.9029 H   0  0  0  0  0  0  0  0  0  0  0  0
   57.4240   30.5038   44.8038 H   0  0  0  0  0  0  0  0  0  0  0  0
   61.3727   30.2654   47.9947 H   0  0  0  0  0  0  0  0  0  0  0  0
   62.6474   34.9052   46.6492 H   0  0  0  0  0  0  0  0  0  0  0  0
  1  2  2  0
  2  3  1  0
  3  4  1  0
  4  5  2  0
  5  6  1  0
  6  7  2  0
  7  8  1  0
  7  9  1  0
  9 10  1  0
  9 11  2  0
  2 12  1  0
 12 13  1  0
 13 14  1  0
 14 15  1  0
 15 16  2  0
 16 17  1  0
 17 18  2  0
 18 19  1  0
 18 20  1  0
 20 21  1  0
 20 22  2  0
 13 23  1  0
 23 24  2  0
 24 25  1  0
 25 26  1  0
 25 27  2  0
 27 28  1  0
 27 29  1  0
 29 30  2  0
 30 31  1  0
 11  4  1  0
 22 15  1  0
 30 23  1  0
  3 32  1  0
  3 33  1  0
  5 34  1  0
  6 35  1  0
  8 36  1  0
 11 37  1  0
 13 38  1  6
 14 39  1  0
 14 40  1  0
 16 41  1  0
 17 42  1  0
 22 43  1  0
 24 44  1  0
 29 45  1  0
M  CHG  6  10  -1  19  -1  21  -1  26  -1  28  -1  31  -1
M  END
>  <UniqueID>  (83) 
81

>  <SMILES>  (83) 
O=C(Cc1ccc(O)c([O-])c1)O[C@H](Cc1ccc([O-])c([O-])c1)c1cc([O-])c([O-])cc1[O-]

>  <Energy>  (83) 
41.59573074394351

>  <Genealogy>  (83) 
O=C(Cc1ccc(O)c([O-])c1)OC(Cc1ccc([O-])c([O-])c1)c1cc([O-])c([O-])cc1[O-] (protonated)
O=C(Cc1ccc(O)c([O-])c1)O[C@H](Cc1ccc([O-])c([O-])c1)c1cc([O-])c([O-])cc1[O-] (chirality)
O=C(Cc1ccc(O)c([O-])c1)O[C@H](Cc1ccc([O-])c([O-])c1)c1cc([O-])c([O-])cc1[O-] (3D coordinates assigned)
O=C(Cc1ccc(O)c([O-])c1)O[C@H](Cc1ccc([O-])c([O-])c1)c1cc([O-])c([O-])cc1[O-] (optimized conformer: 41.59573074394351 kcal/mol)

>  <smiles>  (83) 
O=C(Cc1ccc(O)c(O)c1)OC(Cc1ccc(O)c(O)c1)c1cc(O)c(O)cc1O

>  <score_type>  (83) 
oracle

>  <origin>  (83) 
adg

>  <m_score__min__energy>  (83) 
-18.32

>  <m_primary>  (83) 
energy

$$$$
83:0
     RDKit          3D

 43 45  0  0  0  0  0  0  0  0999 V2000
   60.6848   34.0890   50.4383 H   0  0  0  0  0  0  0  0  0  0  0  0
   60.7600   34.0400   49.3420 C   0  0  0  0  0  0  0  0  0  0  0  0
   59.6720   34.2140   48.5980 O   0  0  0  0  0  0  0  0  0  0  0  0
   59.6870   34.1720   47.2680 C   0  0  0  0  0  0  0  0  0  0  0  0
   58.5650   34.3600   46.6350 N   0  0  0  0  0  0  0  0  0  0  0  0
   58.1430   33.7370   45.0690 S   0  0  0  0  0  0  0  0  0  0  0  0
   59.2900   33.9260   44.1140 O   0  0  0  0  0  0  0  0  0  0  0  0
   56.9310   34.4520   44.5390 O   0  0  0  0  0  0  0  0  0  0  0  0
   57.7890   32.0200   45.2210 C   0  0  0  0  0  0  0  0  0  0  0  0
   56.8520   31.4160   44.3720 C   0  0  0  0  0  0  0  0  0  0  0  0
   56.3427   32.0146   43.6024 H   0  0  0  0  0  0  0  0  0  0  0  0
   56.5630   30.0540   44.5010 C   0  0  0  0  0  0  0  0  0  0  0  0
   55.8408   29.5822   43.8185 H   0  0  0  0  0  0  0  0  0  0  0  0
   57.1870   29.2850   45.4940 C   0  0  0  0  0  0  0  0  0  0  0  0
   56.8870   27.8810   45.5880 N   0  0  0  0  0  0  0  0  0  0  0  0
   56.2680   27.4760   44.8530 H   0  0  0  0  0  0  0  0  0  0  0  0
   57.3070   27.0380   46.6750 C   0  0  0  0  0  0  0  0  0  0  0  0
   58.0290   27.4970   47.5990 O   0  0  0  0  0  0  0  0  0  0  0  0
   56.9410   25.6540   46.7140 N   0  0  0  0  0  0  0  0  0  0  0  0
   56.5190   24.8650   45.5930 C   0  0  0  0  0  0  0  0  0  0  0  0
   57.4030   24.5410   44.5460 C   0  0  0  0  0  0  0  0  0  0  0  0
   58.4514   24.8707   44.5911 H   0  0  0  0  0  0  0  0  0  0  0  0
   56.9510   23.8010   43.4490 C   0  0  0  0  0  0  0  0  0  0  0  0
   57.6475   23.5388   42.6390 H   0  0  0  0  0  0  0  0  0  0  0  0
   55.6160   23.3940   43.3800 C   0  0  0  0  0  0  0  0  0  0  0  0
   55.2646   22.8043   42.5204 H   0  0  0  0  0  0  0  0  0  0  0  0
   54.7270   23.7360   44.4030 C   0  0  0  0  0  0  0  0  0  0  0  0
   53.4280   23.3520   44.3300 F   0  0  0  0  0  0  0  0  0  0  0  0
   55.1760   24.4770   45.5010 C   0  0  0  0  0  0  0  0  0  0  0  0
   54.4704   24.7568   46.2971 H   0  0  0  0  0  0  0  0  0  0  0  0
   58.1380   29.8910   46.3330 C   0  0  0  0  0  0  0  0  0  0  0  0
   58.6552   29.2914   47.0966 H   0  0  0  0  0  0  0  0  0  0  0  0
   58.4300   31.2520   46.2020 C   0  0  0  0  0  0  0  0  0  0  0  0
   59.1657   31.7216   46.8716 H   0  0  0  0  0  0  0  0  0  0  0  0
   60.9040   33.9300   46.5980 C   0  0  0  0  0  0  0  0  0  0  0  0
   60.9390   33.9019   45.4989 H   0  0  0  0  0  0  0  0  0  0  0  0
   62.0670   33.7260   47.3500 C   0  0  0  0  0  0  0  0  0  0  0  0
   63.3850   33.5050   46.6670 C   0  0  0  0  0  0  0  0  0  0  0  0
   64.1725   33.3730   47.4236 H   0  0  0  0  0  0  0  0  0  0  0  0
   63.3257   32.6043   46.0384 H   0  0  0  0  0  0  0  0  0  0  0  0
   63.6228   34.3758   46.0384 H   0  0  0  0  0  0  0  0  0  0  0  0
   61.9950   33.7960   48.7440 C   0  0  0  0  0  0  0  0  0  0  0  0
   62.8973   33.6609   49.3584 H   0  0  0  0  0  0  0  0  0  0  0  0
  1  2  1  0
  2  3  1  0
  3  4  1  0
  4  5  2  0
  5  6  1  0
  6  7  2  0
  6  8  2  0
  6  9  1  0
  9 10  2  0
 10 11  1  0
 10 12  1  0
 12 13  1  0
 12 14  2  0
 14 15  1  0
 15 16  1  0
 15 17  1  0
 17 18  2  0
 17 19  1  0
 19 20  1  0
 20 21  2  0
 21 22  1  0
 21 23  1  0
 23 24  1  0
 23 25  2  0
 25 26  1  0
 25 27  1  0
 27 28  1  0
 27 29  2  0
 29 30  1  0
 14 31  1  0
 31 32  1  0
 31 33  2  0
 33 34  1  0
  4 35  1  0
 35 36  1  0
 35 37  2  0
 37 38  1  0
 38 39  1  0
 38 40  1  0
 38 41  1  0
 37 42  1  0
 42 43  1  0
 42  2  2  0
 33  9  1  0
 29 20  1  0
M  CHG  1  19  -1
M  END
>  <UniqueID>  (84) 
82

>  <SMILES>  (84) 
Cc1cco/c(=N/S(=O)(=O)c2ccc(NC(=O)[N-]c3cccc(F)c3)cc2)c1

>  <Energy>  (84) 
61.0981026079515

>  <Genealogy>  (84) 
Cc1ccoc(=NS(=O)(=O)c2ccc(NC(=O)[N-]c3cccc(F)c3)cc2)c1 (protonated)
Cc1cco/c(=N/S(=O)(=O)c2ccc(NC(=O)[N-]c3cccc(F)c3)cc2)c1 (cis-trans isomerization)
Cc1cco/c(=N/S(=O)(=O)c2ccc(NC(=O)[N-]c3cccc(F)c3)cc2)c1 (3D coordinates assigned)
Cc1cco/c(=N/S(=O)(=O)c2ccc(NC(=O)[N-]c3cccc(F)c3)cc2)c1 (optimized conformer: 61.0981026079515 kcal/mol)

>  <smiles>  (84) 
Cc1ccoc(=NS(=O)(=O)c2ccc(NC(=O)Nc3cccc(F)c3)cc2)c1

>  <score_type>  (84) 
oracle

>  <origin>  (84) 
adg

>  <m_score__min__energy>  (84) 
-10.43

>  <m_primary>  (84) 
energy

$$$$
84:0
     RDKit          3D

 32 33  0  0  0  0  0  0  0  0999 V2000
   55.1340   27.8440   45.9530 H   0  0  0  0  0  0  0  0  0  0  0  0
   55.1970   26.8340   45.9940 O   0  0  0  0  0  0  0  0  0  0  0  0
   56.4210   26.1620   46.0110 C   0  0  0  0  0  0  0  0  0  0  0  0
   56.4370   24.7760   45.8280 C   0  0  0  0  0  0  0  0  0  0  0  0
   55.4937   24.2312   45.6752 H   0  0  0  0  0  0  0  0  0  0  0  0
   57.6480   24.0830   45.8390 C   0  0  0  0  0  0  0  0  0  0  0  0
   57.6659   22.9925   45.6962 H   0  0  0  0  0  0  0  0  0  0  0  0
   58.8350   24.7880   46.0330 C   0  0  0  0  0  0  0  0  0  0  0  0
   59.7962   24.2532   46.0428 H   0  0  0  0  0  0  0  0  0  0  0  0
   58.8060   26.1350   46.2100 N   0  0  0  0  0  0  0  0  0  0  0  0
   57.6390   26.8430   46.2070 C   0  0  0  0  0  0  0  0  0  0  0  0
   57.6370   28.1340   46.3820 N   0  0  0  0  0  0  0  0  0  0  0  0
   57.3660   29.1430   45.3940 C   0  0  0  0  0  0  0  0  0  0  0  0
   56.1920   29.3630   44.9880 O   0  0  0  0  0  0  0  0  0  0  0  0
   58.4910   29.9810   44.8760 C   0  0  0  0  0  0  0  0  0  0  0  0
   59.0346   30.4221   45.7245 H   0  0  0  0  0  0  0  0  0  0  0  0
   59.1654   29.3452   44.2836 H   0  0  0  0  0  0  0  0  0  0  0  0
   57.9560   31.1010   43.9840 C   0  0  0  0  0  0  0  0  0  0  0  0
   58.7962   31.7289   43.6526 H   0  0  0  0  0  0  0  0  0  0  0  0
   57.4484   30.6477   43.1198 H   0  0  0  0  0  0  0  0  0  0  0  0
   56.7520   32.1410   44.8860 S   0  0  0  0  0  0  0  0  0  0  0  0
   57.9880   33.1600   45.7000 C   0  0  0  0  0  0  0  0  0  0  0  0
   58.3650   32.8850   47.0210 C   0  0  0  0  0  0  0  0  0  0  0  0
   57.8983   32.0493   47.5630 H   0  0  0  0  0  0  0  0  0  0  0  0
   59.3340   33.6720   47.6510 C   0  0  0  0  0  0  0  0  0  0  0  0
   59.6254   33.4577   48.6898 H   0  0  0  0  0  0  0  0  0  0  0  0
   59.9330   34.7310   46.9620 C   0  0  0  0  0  0  0  0  0  0  0  0
   60.6913   35.3526   47.4606 H   0  0  0  0  0  0  0  0  0  0  0  0
   59.5680   35.0000   45.6390 C   0  0  0  0  0  0  0  0  0  0  0  0
   60.0426   35.8302   45.0954 H   0  0  0  0  0  0  0  0  0  0  0  0
   58.5990   34.2130   45.0070 C   0  0  0  0  0  0  0  0  0  0  0  0
   58.3166   34.4214   43.9645 H   0  0  0  0  0  0  0  0  0  0  0  0
  1  2  1  0
  2  3  1  0
  3  4  2  0
  4  5  1  0
  4  6  1  0
  6  7  1  0
  6  8  2  0
  8  9  1  0
  8 10  1  0
 10 11  1  0
 11 12  2  0
 12 13  1  0
 13 14  2  0
 13 15  1  0
 15 16  1  0
 15 17  1  0
 15 18  1  0
 18 19  1  0
 18 20  1  0
 18 21  1  0
 21 22  1  0
 22 23  2  0
 23 24  1  0
 23 25  1  0
 25 26  1  0
 25 27  2  0
 27 28  1  0
 27 29  1  0
 29 30  1  0
 29 31  2  0
 31 32  1  0
 11  3  1  0
 31 22  1  0
M  CHG  1  10  -1
M  END
>  <UniqueID>  (85) 
83

>  <SMILES>  (85) 
O=C(CCSc1ccccc1)/N=c1\[n-]cccc1O

>  <Energy>  (85) 
29.256472688671586

>  <Genealogy>  (85) 
O=C(CCSc1ccccc1)N=c1[n-]cccc1O (protonated)
O=C(CCSc1ccccc1)/N=c1\[n-]cccc1O (cis-trans isomerization)
O=C(CCSc1ccccc1)/N=c1\[n-]cccc1O (3D coordinates assigned)
O=C(CCSc1ccccc1)/N=c1\[n-]cccc1O (optimized conformer: 29.256472688671586 kcal/mol)

>  <smiles>  (85) 
O=C(CCSc1ccccc1)N=c1[nH]cccc1O

>  <score_type>  (85) 
oracle

>  <origin>  (85) 
adg

>  <m_score__min__energy>  (85) 
-9.9199999999999999

>  <m_primary>  (85) 
energy

$$$$
85:0
     RDKit          3D

 25 26  0  0  0  0  0  0  0  0999 V2000
   54.9990   26.7150   45.9980 O   0  0  0  0  0  0  0  0  0  0  0  0
   56.3720   26.8890   45.8710 C   0  0  0  0  0  0  0  0  0  0  0  0
   57.2460   25.8910   46.3110 C   0  0  0  0  0  0  0  0  0  0  0  0
   58.6250   26.0690   46.1820 C   0  0  0  0  0  0  0  0  0  0  0  0
   59.1120   27.2490   45.6150 C   0  0  0  0  0  0  0  0  0  0  0  0
   58.2460   28.2090   45.1930 N   0  0  0  0  0  0  0  0  0  0  0  0
   56.8980   28.0570   45.3000 C   0  0  0  0  0  0  0  0  0  0  0  0
   55.8170   29.3620   44.7060 S   0  0  0  0  0  0  0  0  0  0  0  0
   57.1020   30.1870   43.7020 C   0  0  0  0  0  0  0  0  0  0  0  0
   57.6910   31.3600   44.4380 C   0  0  0  0  0  0  0  0  0  0  0  0
   57.8200   32.6070   43.8040 C   0  0  0  0  0  0  0  0  0  0  0  0
   58.3980   33.6850   44.4820 C   0  0  0  0  0  0  0  0  0  0  0  0
   58.8520   33.5260   45.7950 C   0  0  0  0  0  0  0  0  0  0  0  0
   59.6440   34.9980   46.7170 Br  0  0  0  0  0  0  0  0  0  0  0  0
   58.7270   32.2860   46.4320 C   0  0  0  0  0  0  0  0  0  0  0  0
   58.1500   31.2060   45.7570 C   0  0  0  0  0  0  0  0  0  0  0  0
   56.8486   24.9677   46.7578 H   0  0  0  0  0  0  0  0  0  0  0  0
   59.3205   25.2881   46.5233 H   0  0  0  0  0  0  0  0  0  0  0  0
   60.1962   27.4018   45.5098 H   0  0  0  0  0  0  0  0  0  0  0  0
   57.9012   29.4654   43.4771 H   0  0  0  0  0  0  0  0  0  0  0  0
   56.6400   30.5523   42.7730 H   0  0  0  0  0  0  0  0  0  0  0  0
   57.4652   32.7359   42.7708 H   0  0  0  0  0  0  0  0  0  0  0  0
   58.4957   34.6597   43.9815 H   0  0  0  0  0  0  0  0  0  0  0  0
   59.0832   32.1609   47.4652 H   0  0  0  0  0  0  0  0  0  0  0  0
   58.0551   30.2325   46.2603 H   0  0  0  0  0  0  0  0  0  0  0  0
  1  2  1  0
  2  3  2  0
  3  4  1  0
  4  5  2  0
  5  6  1  0
  6  7  2  0
  7  8  1  0
  8  9  1  0
  9 10  1  0
 10 11  2  0
 11 12  1  0
 12 13  2  0
 13 14  1  0
 13 15  1  0
 15 16  2  0
  7  2  1  0
 16 10  1  0
  3 17  1  0
  4 18  1  0
  5 19  1  0
  9 20  1  0
  9 21  1  0
 11 22  1  0
 12 23  1  0
 15 24  1  0
 16 25  1  0
M  CHG  1   1  -1
M  END
>  <UniqueID>  (86) 
84

>  <SMILES>  (86) 
[O-]c1cccnc1SCc1ccc(Br)cc1

>  <Energy>  (86) 
21.812995346582817

>  <Genealogy>  (86) 
[O-]c1cccnc1SCc1ccc(Br)cc1 (protonated)
[O-]c1cccnc1SCc1ccc(Br)cc1 (3D coordinates assigned)
[O-]c1cccnc1SCc1ccc(Br)cc1 (optimized conformer: 21.812995346582817 kcal/mol)

>  <smiles>  (86) 
Oc1cccnc1SCc1ccc(Br)cc1

>  <score_type>  (86) 
oracle

>  <origin>  (86) 
adg

>  <m_score__min__energy>  (86) 
-10.890000000000001

>  <m_primary>  (86) 
energy

$$$$
86:0
     RDKit          3D

 28 29  0  0  0  0  0  0  0  0999 V2000
   55.1560   26.3360   46.8750 H   0  0  0  0  0  0  0  0  0  0  0  0
   55.2650   26.7000   45.9580 O   0  0  0  0  0  0  0  0  0  0  0  0
   56.6380   26.9060   45.7690 C   0  0  0  0  0  0  0  0  0  0  0  0
   57.1722   26.6797   46.7036 H   0  0  0  0  0  0  0  0  0  0  0  0
   56.9946   26.2449   44.9654 H   0  0  0  0  0  0  0  0  0  0  0  0
   56.8960   28.3360   45.3820 C   0  0  0  0  0  0  0  0  0  0  0  0
   58.1290   28.9360   45.6770 C   0  0  0  0  0  0  0  0  0  0  0  0
   58.8990   28.3679   46.2194 H   0  0  0  0  0  0  0  0  0  0  0  0
   58.3830   30.2540   45.2840 C   0  0  0  0  0  0  0  0  0  0  0  0
   59.3450   30.7233   45.5378 H   0  0  0  0  0  0  0  0  0  0  0  0
   57.4210   30.9820   44.5690 C   0  0  0  0  0  0  0  0  0  0  0  0
   57.7130   32.3340   44.1720 N   0  0  0  0  0  0  0  0  0  0  0  0
   57.6420   32.5760   43.1580 H   0  0  0  0  0  0  0  0  0  0  0  0
   58.1580   33.3610   45.0730 C   0  0  0  0  0  0  0  0  0  0  0  0
   59.2840   34.4320   44.5660 S   0  0  0  0  0  0  0  0  0  0  0  0
   57.7160   33.4210   46.4360 N   0  0  0  0  0  0  0  0  0  0  0  0
   58.4830   33.4230   47.4870 C   0  0  0  0  0  0  0  0  0  0  0  0
   59.6240   34.5990   47.8920 S   0  0  0  0  0  0  0  0  0  0  0  0
   60.1270   33.7840   49.2770 C   0  0  0  0  0  0  0  0  0  0  0  0
   60.9013   34.1238   49.9805 H   0  0  0  0  0  0  0  0  0  0  0  0
   59.3930   32.6060   49.3770 C   0  0  0  0  0  0  0  0  0  0  0  0
   59.5323   31.8886   50.1992 H   0  0  0  0  0  0  0  0  0  0  0  0
   58.4910   32.4110   48.3800 N   0  0  0  0  0  0  0  0  0  0  0  0
   57.8740   31.5700   48.3170 H   0  0  0  0  0  0  0  0  0  0  0  0
   56.1830   30.3810   44.2810 C   0  0  0  0  0  0  0  0  0  0  0  0
   55.4105   30.9508   43.7439 H   0  0  0  0  0  0  0  0  0  0  0  0
   55.9280   29.0640   44.6730 C   0  0  0  0  0  0  0  0  0  0  0  0
   54.9641   28.5958   44.4247 H   0  0  0  0  0  0  0  0  0  0  0  0
  1  2  1  0
  2  3  1  0
  3  4  1  0
  3  5  1  0
  3  6  1  0
  6  7  2  0
  7  8  1  0
  7  9  1  0
  9 10  1  0
  9 11  2  0
 11 12  1  0
 12 13  1  0
 12 14  1  0
 14 15  2  0
 14 16  1  0
 16 17  2  0
 17 18  1  0
 18 19  1  0
 19 20  1  0
 19 21  2  0
 21 22  1  0
 21 23  1  0
 23 24  1  0
 11 25  1  0
 25 26  1  0
 25 27  2  0
 27 28  1  0
 27  6  1  0
 23 17  1  0
M  END
>  <UniqueID>  (87) 
85

>  <SMILES>  (87) 
OCc1ccc(NC(=S)/N=c2/[nH]ccs2)cc1

>  <Energy>  (87) 
65.86635297105201

>  <Genealogy>  (87) 
OCc1ccc(NC(=S)/N=c2/[nH]ccs2)cc1 (cis-trans isomerization)
OCc1ccc(NC(=S)/N=c2/[nH]ccs2)cc1 (3D coordinates assigned)
OCc1ccc(NC(=S)/N=c2/[nH]ccs2)cc1 (optimized conformer: 65.86635297105201 kcal/mol)

>  <smiles>  (87) 
OCc1ccc(NC(=S)N=c2[nH]ccs2)cc1

>  <score_type>  (87) 
oracle

>  <origin>  (87) 
adg

>  <m_score__min__energy>  (87) 
-6.5999999999999996

>  <m_primary>  (87) 
energy

$$$$
87:0
     RDKit          3D

 53 56  0  0  0  0  0  0  0  0999 V2000
   55.1600   26.7170   46.0040 O   0  0  0  0  0  0  0  0  0  0  0  0
   56.2780   26.1360   45.9990 C   0  0  0  0  0  0  0  0  0  0  0  0
   56.3260   24.7390   46.3130 N   0  0  0  0  0  0  0  0  0  0  0  0
   56.8150   23.7150   45.4380 C   0  0  0  0  0  0  0  0  0  0  0  0
   58.1510   23.3090   45.5580 C   0  0  0  0  0  0  0  0  0  0  0  0
   58.6690   22.3210   44.7170 C   0  0  0  0  0  0  0  0  0  0  0  0
   57.8600   21.7430   43.7380 C   0  0  0  0  0  0  0  0  0  0  0  0
   56.5360   22.1620   43.5870 C   0  0  0  0  0  0  0  0  0  0  0  0
   56.0070   23.1520   44.4250 C   0  0  0  0  0  0  0  0  0  0  0  0
   54.3660   23.7130   44.1290 Cl  0  0  0  0  0  0  0  0  0  0  0  0
   57.4770   26.8630   45.6810 N   0  0  0  0  0  0  0  0  0  0  0  0
   57.5020   28.2560   45.3260 C   0  0  0  0  0  0  0  0  0  0  0  0
   57.1470   28.6390   44.0250 C   0  0  0  0  0  0  0  0  0  0  0  0
   57.1360   29.9870   43.6630 C   0  0  0  0  0  0  0  0  0  0  0  0
   57.4720   30.9670   44.5990 C   0  0  0  0  0  0  0  0  0  0  0  0
   57.8220   30.6010   45.9100 C   0  0  0  0  0  0  0  0  0  0  0  0
   58.1330   31.5580   46.8880 O   0  0  0  0  0  0  0  0  0  0  0  0
   58.9510   32.6800   46.6950 C   0  0  0  0  0  0  0  0  0  0  0  0
   58.4250   33.9320   46.3410 C   0  0  0  0  0  0  0  0  0  0  0  0
   59.2890   35.0100   46.1440 C   0  0  0  0  0  0  0  0  0  0  0  0
   60.6300   34.8420   46.2820 N   0  0  0  0  0  0  0  0  0  0  0  0
   61.1780   33.6390   46.6090 C   0  0  0  0  0  0  0  0  0  0  0  0
   62.6410   33.5230   46.7420 C   0  0  0  0  0  0  0  0  0  0  0  0
   63.4050   34.2160   46.0160 O   0  0  0  0  0  0  0  0  0  0  0  0
   63.1930   32.6180   47.7040 N   0  0  0  0  0  0  0  0  0  0  0  0
   63.1430   32.8410   49.1450 C   0  0  0  0  0  0  0  0  0  0  0  0
   61.7310   32.7010   49.6460 C   0  0  0  0  0  0  0  0  0  0  0  0
   61.1380   31.4330   49.7700 C   0  0  0  0  0  0  0  0  0  0  0  0
   59.8180   31.3140   50.2150 C   0  0  0  0  0  0  0  0  0  0  0  0
   59.0810   32.4570   50.5360 C   0  0  0  0  0  0  0  0  0  0  0  0
   59.6610   33.7220   50.4090 C   0  0  0  0  0  0  0  0  0  0  0  0
   60.9810   33.8450   49.9640 C   0  0  0  0  0  0  0  0  0  0  0  0
   60.3360   32.5310   46.8130 C   0  0  0  0  0  0  0  0  0  0  0  0
   57.8130   29.2490   46.2720 C   0  0  0  0  0  0  0  0  0  0  0  0
   58.7961   23.7714   46.3196 H   0  0  0  0  0  0  0  0  0  0  0  0
   59.7150   21.9986   44.8266 H   0  0  0  0  0  0  0  0  0  0  0  0
   58.2653   20.9565   43.0844 H   0  0  0  0  0  0  0  0  0  0  0  0
   55.9055   21.7121   42.8059 H   0  0  0  0  0  0  0  0  0  0  0  0
   58.3970   26.3840   45.8000 H   0  0  0  0  0  0  0  0  0  0  0  0
   56.8753   27.8722   43.2846 H   0  0  0  0  0  0  0  0  0  0  0  0
   56.8620   30.2778   42.6381 H   0  0  0  0  0  0  0  0  0  0  0  0
   57.4628   32.0282   44.3096 H   0  0  0  0  0  0  0  0  0  0  0  0
   57.3395   34.0627   46.2197 H   0  0  0  0  0  0  0  0  0  0  0  0
   58.8837   35.9970   45.8766 H   0  0  0  0  0  0  0  0  0  0  0  0
   63.7820   32.1011   49.6492 H   0  0  0  0  0  0  0  0  0  0  0  0
   63.5008   33.8582   49.3625 H   0  0  0  0  0  0  0  0  0  0  0  0
   61.7143   30.5311   49.5161 H   0  0  0  0  0  0  0  0  0  0  0  0
   59.3589   30.3192   50.3126 H   0  0  0  0  0  0  0  0  0  0  0  0
   58.0436   32.3609   50.8889 H   0  0  0  0  0  0  0  0  0  0  0  0
   59.0790   34.6213   50.6592 H   0  0  0  0  0  0  0  0  0  0  0  0
   61.4339   34.8423   49.8626 H   0  0  0  0  0  0  0  0  0  0  0  0
   60.7659   31.5503   47.0646 H   0  0  0  0  0  0  0  0  0  0  0  0
   58.0515   28.9604   47.3063 H   0  0  0  0  0  0  0  0  0  0  0  0
  1  2  2  0
  2  3  1  0
  3  4  1  0
  4  5  2  0
  5  6  1  0
  6  7  2  0
  7  8  1  0
  8  9  2  0
  9 10  1  0
  2 11  1  0
 11 12  1  0
 12 13  2  0
 13 14  1  0
 14 15  2  0
 15 16  1  0
 16 17  1  0
 17 18  1  0
 18 19  2  0
 19 20  1  0
 20 21  2  0
 21 22  1  0
 22 23  1  0
 23 24  2  0
 23 25  1  0
 25 26  1  0
 26 27  1  0
 27 28  2  0
 28 29  1  0
 29 30  2  0
 30 31  1  0
 31 32  2  0
 22 33  2  0
 16 34  2  0
  9  4  1  0
 34 12  1  0
 33 18  1  0
 32 27  1  0
  5 35  1  0
  6 36  1  0
  7 37  1  0
  8 38  1  0
 11 39  1  0
 13 40  1  0
 14 41  1  0
 15 42  1  0
 19 43  1  0
 20 44  1  0
 26 45  1  0
 26 46  1  0
 28 47  1  0
 29 48  1  0
 30 49  1  0
 31 50  1  0
 32 51  1  0
 33 52  1  0
 34 53  1  0
M  CHG  2   3  -1  25  -1
M  END
>  <UniqueID>  (88) 
86

>  <SMILES>  (88) 
O=C([N-]c1ccccc1Cl)Nc1cccc(Oc2ccnc(C(=O)[N-]Cc3ccccc3)c2)c1

>  <Energy>  (88) 
73.24797305594001

>  <Genealogy>  (88) 
O=C([N-]c1ccccc1Cl)Nc1cccc(Oc2ccnc(C(=O)[N-]Cc3ccccc3)c2)c1 (protonated)
O=C([N-]c1ccccc1Cl)Nc1cccc(Oc2ccnc(C(=O)[N-]Cc3ccccc3)c2)c1 (3D coordinates assigned)
O=C([N-]c1ccccc1Cl)Nc1cccc(Oc2ccnc(C(=O)[N-]Cc3ccccc3)c2)c1 (optimized conformer: 73.24797305594001 kcal/mol)

>  <smiles>  (88) 
O=C(Nc1cccc(Oc2ccnc(C(=O)NCc3ccccc3)c2)c1)Nc1ccccc1Cl

>  <score_type>  (88) 
oracle

>  <origin>  (88) 
adg

>  <m_score__min__energy>  (88) 
-12.66

>  <m_primary>  (88) 
energy

$$$$
88:0
     RDKit          3D

 68 71  0  0  0  0  0  0  0  0999 V2000
   55.3790   29.2390   44.8510 N   0  0  0  0  0  0  0  0  0  0  0  0
   57.1030   29.3480   44.7740 S   0  0  0  0  0  0  0  0  0  0  0  0
   57.6990   28.7140   46.0000 O   0  0  0  0  0  0  0  0  0  0  0  0
   57.6010   28.6110   43.5610 O   0  0  0  0  0  0  0  0  0  0  0  0
   57.5820   31.0400   44.6790 C   0  0  0  0  0  0  0  0  0  0  0  0
   57.5970   31.6920   43.4400 C   0  0  0  0  0  0  0  0  0  0  0  0
   57.9850   33.0320   43.3590 C   0  0  0  0  0  0  0  0  0  0  0  0
   58.3440   33.7300   44.5160 C   0  0  0  0  0  0  0  0  0  0  0  0
   58.2980   33.1010   45.7670 C   0  0  0  0  0  0  0  0  0  0  0  0
   58.6980   33.8440   46.9280 N   0  0  0  0  0  0  0  0  0  0  0  0
   59.8990   33.6520   47.6880 C   0  0  0  0  0  0  0  0  0  0  0  0
   59.9940   34.0890   48.8670 O   0  0  0  0  0  0  0  0  0  0  0  0
   61.0640   32.9550   47.0550 C   0  0  0  0  0  0  0  0  0  0  0  0
   62.1480   32.6970   48.0680 C   0  0  0  0  0  0  0  0  0  0  0  0
   63.4100   33.2970   47.9220 C   0  0  0  0  0  0  0  0  0  0  0  0
   64.4120   33.0730   48.8710 C   0  0  0  0  0  0  0  0  0  0  0  0
   64.1550   32.2750   49.9870 C   0  0  0  0  0  0  0  0  0  0  0  0
   62.8850   31.7010   50.1700 C   0  0  0  0  0  0  0  0  0  0  0  0
   62.5780   30.8880   51.3110 N   0  0  0  0  0  0  0  0  0  0  0  0
   61.9350   31.3310   52.5170 C   0  0  0  0  0  0  0  0  0  0  0  0
   62.6170   31.7220   53.5010 O   0  0  0  0  0  0  0  0  0  0  0  0
   60.4330   31.3140   52.6210 C   0  0  0  0  0  0  0  0  0  0  0  0
   59.8140   32.6260   52.1080 C   0  0  0  0  0  0  0  0  0  0  0  0
   58.2970   32.6260   52.3580 C   0  0  0  0  0  0  0  0  0  0  0  0
   57.7050   31.3050   52.0880 N   0  0  0  0  0  0  0  0  0  0  0  0
   56.3260   31.0790   52.4250 C   0  0  0  0  0  0  0  0  0  0  0  0
   55.4700   31.9710   52.1760 O   0  0  0  0  0  0  0  0  0  0  0  0
   55.8840   29.7910   53.0720 C   0  0  0  0  0  0  0  0  0  0  0  0
   54.6840   29.1590   52.3500 C   0  0  0  0  0  0  0  0  0  0  0  0
   53.5040   30.0960   52.2680 C   0  0  0  0  0  0  0  0  0  0  0  0
   53.0950   30.6200   51.0290 C   0  0  0  0  0  0  0  0  0  0  0  0
   51.9880   31.4710   50.9540 C   0  0  0  0  0  0  0  0  0  0  0  0
   51.2790   31.8010   52.1130 C   0  0  0  0  0  0  0  0  0  0  0  0
   50.2020   32.6200   52.0370 F   0  0  0  0  0  0  0  0  0  0  0  0
   51.6800   31.2820   53.3480 C   0  0  0  0  0  0  0  0  0  0  0  0
   52.7890   30.4350   53.4270 C   0  0  0  0  0  0  0  0  0  0  0  0
   58.4550   30.3270   51.2900 C   0  0  0  0  0  0  0  0  0  0  0  0
   59.8470   30.0740   51.8970 C   0  0  0  0  0  0  0  0  0  0  0  0
   61.8970   31.8920   49.1940 C   0  0  0  0  0  0  0  0  0  0  0  0
   57.9300   31.7440   45.8420 C   0  0  0  0  0  0  0  0  0  0  0  0
   55.1490   28.6380   45.6750 H   0  0  0  0  0  0  0  0  0  0  0  0
   57.3031   31.1490   42.5296 H   0  0  0  0  0  0  0  0  0  0  0  0
   58.0080   33.5387   42.3829 H   0  0  0  0  0  0  0  0  0  0  0  0
   58.6646   34.7797   44.4436 H   0  0  0  0  0  0  0  0  0  0  0  0
   60.7261   31.9956   46.6362 H   0  0  0  0  0  0  0  0  0  0  0  0
   61.4701   33.5981   46.2603 H   0  0  0  0  0  0  0  0  0  0  0  0
   63.6107   33.9461   47.0569 H   0  0  0  0  0  0  0  0  0  0  0  0
   65.4052   33.5267   48.7378 H   0  0  0  0  0  0  0  0  0  0  0  0
   64.9494   32.0946   50.7262 H   0  0  0  0  0  0  0  0  0  0  0  0
   60.1668   31.2352   53.6854 H   0  0  0  0  0  0  0  0  0  0  0  0
   60.2703   33.4753   52.6376 H   0  0  0  0  0  0  0  0  0  0  0  0
   60.0015   32.7150   51.0278 H   0  0  0  0  0  0  0  0  0  0  0  0
   58.1079   32.8945   53.4078 H   0  0  0  0  0  0  0  0  0  0  0  0
   57.8353   33.3565   51.6774 H   0  0  0  0  0  0  0  0  0  0  0  0
   56.7228   29.0796   53.0537 H   0  0  0  0  0  0  0  0  0  0  0  0
   55.5748   30.0202   54.1025 H   0  0  0  0  0  0  0  0  0  0  0  0
   54.9897   28.8856   51.3293 H   0  0  0  0  0  0  0  0  0  0  0  0
   54.3720   28.2761   52.9272 H   0  0  0  0  0  0  0  0  0  0  0  0
   53.6483   30.3594   50.1147 H   0  0  0  0  0  0  0  0  0  0  0  0
   51.6748   31.8811   49.9825 H   0  0  0  0  0  0  0  0  0  0  0  0
   51.1213   31.5409   54.2595 H   0  0  0  0  0  0  0  0  0  0  0  0
   53.1026   30.0325   54.4015 H   0  0  0  0  0  0  0  0  0  0  0  0
   57.8963   29.3798   51.2632 H   0  0  0  0  0  0  0  0  0  0  0  0
   58.5825   30.7270   50.2733 H   0  0  0  0  0  0  0  0  0  0  0  0
   59.7676   29.2509   52.6224 H   0  0  0  0  0  0  0  0  0  0  0  0
   60.5258   29.8295   51.0667 H   0  0  0  0  0  0  0  0  0  0  0  0
   60.9161   31.4078   49.3097 H   0  0  0  0  0  0  0  0  0  0  0  0
   57.9152   31.2336   46.8163 H   0  0  0  0  0  0  0  0  0  0  0  0
  1  2  1  0
  2  3  2  0
  2  4  2  0
  2  5  1  0
  5  6  2  0
  6  7  1  0
  7  8  2  0
  8  9  1  0
  9 10  1  0
 10 11  1  0
 11 12  2  0
 11 13  1  0
 13 14  1  0
 14 15  2  0
 15 16  1  0
 16 17  2  0
 17 18  1  0
 18 19  1  0
 19 20  1  0
 20 21  2  0
 20 22  1  0
 22 23  1  0
 23 24  1  0
 24 25  1  0
 25 26  1  0
 26 27  2  0
 26 28  1  0
 28 29  1  0
 29 30  1  0
 30 31  2  0
 31 32  1  0
 32 33  2  0
 33 34  1  0
 33 35  1  0
 35 36  2  0
 25 37  1  0
 37 38  1  0
 18 39  2  0
  9 40  2  0
 40  5  1  0
 39 14  1  0
 38 22  1  0
 36 30  1  0
  1 41  1  0
  6 42  1  0
  7 43  1  0
  8 44  1  0
 13 45  1  0
 13 46  1  0
 15 47  1  0
 16 48  1  0
 17 49  1  0
 22 50  1  0
 23 51  1  0
 23 52  1  0
 24 53  1  0
 24 54  1  0
 28 55  1  0
 28 56  1  0
 29 57  1  0
 29 58  1  0
 31 59  1  0
 32 60  1  0
 35 61  1  0
 36 62  1  0
 37 63  1  0
 37 64  1  0
 38 65  1  0
 38 66  1  0
 39 67  1  0
 40 68  1  0
M  CHG  3   1  -1  10  -1  19  -1
M  END
>  <UniqueID>  (89) 
87

>  <SMILES>  (89) 
[NH-]S(=O)(=O)c1cccc([N-]C(=O)Cc2cccc([N-]C(=O)C3CCN(C(=O)CCc4ccc(F)cc4)CC3)c2)c1

>  <Energy>  (89) 
79.10625271804814

>  <Genealogy>  (89) 
[NH-]S(=O)(=O)c1cccc([N-]C(=O)Cc2cccc([N-]C(=O)C3CCN(C(=O)CCc4ccc(F)cc4)CC3)c2)c1 (protonated)
[NH-]S(=O)(=O)c1cccc([N-]C(=O)Cc2cccc([N-]C(=O)C3CCN(C(=O)CCc4ccc(F)cc4)CC3)c2)c1 (3D coordinates assigned)
[NH-]S(=O)(=O)c1cccc([N-]C(=O)Cc2cccc([N-]C(=O)C3CCN(C(=O)CCc4ccc(F)cc4)CC3)c2)c1 (nonaromatic ring conformer: 79.10625271804814 kcal/mol)

>  <smiles>  (89) 
NS(=O)(=O)c1cccc(NC(=O)Cc2cccc(NC(=O)C3CCN(C(=O)CCc4ccc(F)cc4)CC3)c2)c1

>  <score_type>  (89) 
oracle

>  <origin>  (89) 
adg

>  <m_score__min__energy>  (89) 
-15.359999999999999

>  <m_primary>  (89) 
energy

$$$$
89:0
     RDKit          3D

 38 40  0  0  0  0  0  0  0  0999 V2000
   62.6760   34.7110   50.1100 N   0  0  0  0  0  0  0  0  0  0  0  0
   62.7180   33.6160   48.7730 S   0  0  0  0  0  0  0  0  0  0  0  0
   62.7470   32.2010   49.2800 O   0  0  0  0  0  0  0  0  0  0  0  0
   63.9610   33.8660   47.9660 O   0  0  0  0  0  0  0  0  0  0  0  0
   61.2890   33.8540   47.7710 C   0  0  0  0  0  0  0  0  0  0  0  0
   61.4100   33.8520   46.3750 C   0  0  0  0  0  0  0  0  0  0  0  0
   60.2800   34.0290   45.5710 C   0  0  0  0  0  0  0  0  0  0  0  0
   59.0160   34.2130   46.1550 C   0  0  0  0  0  0  0  0  0  0  0  0
   57.8000   34.3720   45.2830 C   0  0  0  0  0  0  0  0  0  0  0  0
   57.0580   33.1180   45.2220 N   0  0  0  0  0  0  0  0  0  0  0  0
   57.4000   32.0360   44.3480 C   0  0  0  0  0  0  0  0  0  0  0  0
   58.1090   32.2420   43.3280 O   0  0  0  0  0  0  0  0  0  0  0  0
   56.9320   30.6780   44.6450 C   0  0  0  0  0  0  0  0  0  0  0  0
   57.7130   29.6190   45.0580 C   0  0  0  0  0  0  0  0  0  0  0  0
   56.8170   28.5700   45.1910 C   0  0  0  0  0  0  0  0  0  0  0  0
   57.1280   27.1760   45.6130 C   0  0  0  0  0  0  0  0  0  0  0  0
   58.4610   26.7130   45.6130 C   0  0  0  0  0  0  0  0  0  0  0  0
   58.7640   25.4060   46.0080 C   0  0  0  0  0  0  0  0  0  0  0  0
   60.0820   24.9670   46.0030 O   0  0  0  0  0  0  0  0  0  0  0  0
   57.7440   24.5420   46.4090 C   0  0  0  0  0  0  0  0  0  0  0  0
   56.4200   24.9820   46.4160 C   0  0  0  0  0  0  0  0  0  0  0  0
   56.1050   26.2880   46.0210 C   0  0  0  0  0  0  0  0  0  0  0  0
   54.7710   26.6810   46.0350 O   0  0  0  0  0  0  0  0  0  0  0  0
   55.5800   29.0060   44.8700 N   0  0  0  0  0  0  0  0  0  0  0  0
   55.6490   30.2850   44.5370 N   0  0  0  0  0  0  0  0  0  0  0  0
   58.8970   34.2030   47.5540 C   0  0  0  0  0  0  0  0  0  0  0  0
   60.0280   34.0250   48.3570 C   0  0  0  0  0  0  0  0  0  0  0  0
   63.6160   34.6760   50.5620 H   0  0  0  0  0  0  0  0  0  0  0  0
   62.3970   33.7108   45.9103 H   0  0  0  0  0  0  0  0  0  0  0  0
   60.3814   34.0241   44.4757 H   0  0  0  0  0  0  0  0  0  0  0  0
   57.1530   35.1573   45.7010 H   0  0  0  0  0  0  0  0  0  0  0  0
   58.1195   34.6503   44.2679 H   0  0  0  0  0  0  0  0  0  0  0  0
   58.7978   29.6092   45.2400 H   0  0  0  0  0  0  0  0  0  0  0  0
   59.2710   27.3877   45.2988 H   0  0  0  0  0  0  0  0  0  0  0  0
   57.9838   23.5143   46.7195 H   0  0  0  0  0  0  0  0  0  0  0  0
   55.6186   24.2988   46.7338 H   0  0  0  0  0  0  0  0  0  0  0  0
   57.9097   34.3358   48.0205 H   0  0  0  0  0  0  0  0  0  0  0  0
   59.9272   34.0192   49.4524 H   0  0  0  0  0  0  0  0  0  0  0  0
  1  2  1  0
  2  3  2  0
  2  4  2  0
  2  5  1  0
  5  6  2  0
  6  7  1  0
  7  8  2  0
  8  9  1  0
  9 10  1  0
 10 11  1  0
 11 12  2  0
 11 13  1  0
 13 14  2  0
 14 15  1  0
 15 16  1  0
 16 17  2  0
 17 18  1  0
 18 19  1  0
 18 20  2  0
 20 21  1  0
 21 22  2  0
 22 23  1  0
 15 24  2  0
 24 25  1  0
  8 26  1  0
 26 27  2  0
 27  5  1  0
 25 13  1  0
 22 16  1  0
  1 28  1  0
  6 29  1  0
  7 30  1  0
  9 31  1  0
  9 32  1  0
 14 33  1  0
 17 34  1  0
 20 35  1  0
 21 36  1  0
 26 37  1  0
 27 38  1  0
M  CHG  5   1  -1  10  -1  19  -1  23  -1  25  -1
M  END
>  <UniqueID>  (90) 
88

>  <SMILES>  (90) 
[NH-]S(=O)(=O)c1ccc(C[N-]C(=O)c2cc(-c3cc([O-])ccc3[O-])n[n-]2)cc1

>  <Energy>  (90) 
69.84085923478996

>  <Genealogy>  (90) 
[NH-]S(=O)(=O)c1ccc(C[N-]C(=O)c2cc(-c3cc([O-])ccc3[O-])n[n-]2)cc1 (protonated)
[NH-]S(=O)(=O)c1ccc(C[N-]C(=O)c2cc(-c3cc([O-])ccc3[O-])n[n-]2)cc1 (3D coordinates assigned)
[NH-]S(=O)(=O)c1ccc(C[N-]C(=O)c2cc(-c3cc([O-])ccc3[O-])n[n-]2)cc1 (optimized conformer: 69.84085923478996 kcal/mol)

>  <smiles>  (90) 
NS(=O)(=O)c1ccc(CNC(=O)c2cc(-c3cc(O)ccc3O)n[nH]2)cc1

>  <score_type>  (90) 
oracle

>  <origin>  (90) 
adg

>  <m_score__min__energy>  (90) 
-18.079999999999998

>  <m_primary>  (90) 
energy

$$$$
90:0
     RDKit          3D

 60 63  0  0  0  0  0  0  0  0999 V2000
   61.6250   31.6730   51.4120 N   0  0  0  0  0  0  0  0  0  0  0  0
   60.2100   31.8920   51.4160 C   0  0  0  0  0  0  0  0  0  0  0  0
   59.7000   33.0460   52.0350 C   0  0  0  0  0  0  0  0  0  0  0  0
   58.3230   33.2430   52.1380 C   0  0  0  0  0  0  0  0  0  0  0  0
   57.4400   32.2820   51.6390 C   0  0  0  0  0  0  0  0  0  0  0  0
   57.9280   31.1380   51.0140 C   0  0  0  0  0  0  0  0  0  0  0  0
   59.3070   30.9490   50.8620 C   0  0  0  0  0  0  0  0  0  0  0  0
   59.7580   29.8140   50.1110 N   0  0  0  0  0  0  0  0  0  0  0  0
   60.4860   29.8680   48.8750 C   0  0  0  0  0  0  0  0  0  0  0  0
   61.6320   30.3850   48.8720 O   0  0  0  0  0  0  0  0  0  0  0  0
   59.9310   29.3370   47.6080 C   0  0  0  0  0  0  0  0  0  0  0  0
   60.5090   29.7050   46.3820 C   0  0  0  0  0  0  0  0  0  0  0  0
   59.9750   29.2400   45.1780 C   0  0  0  0  0  0  0  0  0  0  0  0
   58.8450   28.4070   45.1770 C   0  0  0  0  0  0  0  0  0  0  0  0
   58.2520   27.9150   43.8850 C   0  0  0  0  0  0  0  0  0  0  0  0
   57.0350   28.6590   43.5690 N   0  0  0  0  0  0  0  0  0  0  0  0
   56.5110   29.7800   44.2850 C   0  0  0  0  0  0  0  0  0  0  0  0
   55.3980   29.6530   44.8600 O   0  0  0  0  0  0  0  0  0  0  0  0
   57.2110   31.0800   44.3680 C   0  0  0  0  0  0  0  0  0  0  0  0
   57.5680   31.7570   43.1910 C   0  0  0  0  0  0  0  0  0  0  0  0
   58.1920   33.0040   43.2610 C   0  0  0  0  0  0  0  0  0  0  0  0
   58.4850   33.5790   44.5010 C   0  0  0  0  0  0  0  0  0  0  0  0
   59.0750   34.8370   44.5500 O   0  0  0  0  0  0  0  0  0  0  0  0
   58.1680   32.8920   45.6820 C   0  0  0  0  0  0  0  0  0  0  0  0
   58.4940   33.4070   46.9440 O   0  0  0  0  0  0  0  0  0  0  0  0
   59.7940   33.4740   47.4710 C   0  0  0  0  0  0  0  0  0  0  0  0
   60.8450   32.9020   46.7430 C   0  0  0  0  0  0  0  0  0  0  0  0
   62.1570   32.9470   47.2340 C   0  0  0  0  0  0  0  0  0  0  0  0
   62.4400   33.5800   48.4560 C   0  0  0  0  0  0  0  0  0  0  0  0
   63.8210   33.5240   48.9950 C   0  0  0  0  0  0  0  0  0  0  0  0
   64.4880   32.4010   49.3030 C   0  0  0  0  0  0  0  0  0  0  0  0
   64.8630   32.0070   50.6730 C   0  0  0  0  0  0  0  0  0  0  0  0
   64.1020   31.2550   51.3400 O   0  0  0  0  0  0  0  0  0  0  0  0
   61.3830   34.1460   49.1920 C   0  0  0  0  0  0  0  0  0  0  0  0
   60.0780   34.1190   48.6910 C   0  0  0  0  0  0  0  0  0  0  0  0
   57.4840   31.6750   45.6060 C   0  0  0  0  0  0  0  0  0  0  0  0
   58.2960   28.0000   46.4030 C   0  0  0  0  0  0  0  0  0  0  0  0
   58.8370   28.4560   47.6080 C   0  0  0  0  0  0  0  0  0  0  0  0
   62.0380   30.8720   50.8850 H   0  0  0  0  0  0  0  0  0  0  0  0
   62.2810   32.3420   51.8720 H   0  0  0  0  0  0  0  0  0  0  0  0
   60.3914   33.7990   52.4410 H   0  0  0  0  0  0  0  0  0  0  0  0
   57.9321   34.1553   52.6123 H   0  0  0  0  0  0  0  0  0  0  0  0
   56.3547   32.4301   51.7405 H   0  0  0  0  0  0  0  0  0  0  0  0
   57.2268   30.3786   50.6376 H   0  0  0  0  0  0  0  0  0  0  0  0
   61.3892   30.3646   46.3699 H   0  0  0  0  0  0  0  0  0  0  0  0
   60.4426   29.5282   44.2250 H   0  0  0  0  0  0  0  0  0  0  0  0
   58.9827   28.0537   43.0745 H   0  0  0  0  0  0  0  0  0  0  0  0
   58.0022   26.8488   43.9894 H   0  0  0  0  0  0  0  0  0  0  0  0
   57.3556   31.3039   42.2114 H   0  0  0  0  0  0  0  0  0  0  0  0
   58.4545   33.5370   42.3352 H   0  0  0  0  0  0  0  0  0  0  0  0
   60.6392   32.4139   45.7789 H   0  0  0  0  0  0  0  0  0  0  0  0
   62.9714   32.4831   46.6582 H   0  0  0  0  0  0  0  0  0  0  0  0
   64.3403   34.4804   49.1552 H   0  0  0  0  0  0  0  0  0  0  0  0
   64.7736   31.7305   48.4791 H   0  0  0  0  0  0  0  0  0  0  0  0
   65.8045   32.3682   51.1124 H   0  0  0  0  0  0  0  0  0  0  0  0
   61.5845   34.6126   50.1675 H   0  0  0  0  0  0  0  0  0  0  0  0
   59.2671   34.6049   49.2534 H   0  0  0  0  0  0  0  0  0  0  0  0
   57.1559   31.1782   46.5310 H   0  0  0  0  0  0  0  0  0  0  0  0
   57.4337   27.3172   46.4153 H   0  0  0  0  0  0  0  0  0  0  0  0
   58.4034   28.1230   48.5625 H   0  0  0  0  0  0  0  0  0  0  0  0
  1  2  1  0
  2  3  2  0
  3  4  1  0
  4  5  2  0
  5  6  1  0
  6  7  2  0
  7  8  1  0
  8  9  1  0
  9 10  2  0
  9 11  1  0
 11 12  2  0
 12 13  1  0
 13 14  2  0
 14 15  1  0
 15 16  1  0
 16 17  1  0
 17 18  2  0
 17 19  1  0
 19 20  2  0
 20 21  1  0
 21 22  2  0
 22 23  1  0
 22 24  1  0
 24 25  1  0
 25 26  1  0
 26 27  2  0
 27 28  1  0
 28 29  2  0
 29 30  1  0
 30 31  2  3
 31 32  1  0
 32 33  2  0
 29 34  1  0
 34 35  2  0
 24 36  2  0
 14 37  1  0
 37 38  2  0
  7  2  1  0
 38 11  1  0
 36 19  1  0
 35 26  1  0
  1 39  1  0
  1 40  1  0
  3 41  1  0
  4 42  1  0
  5 43  1  0
  6 44  1  0
 12 45  1  0
 13 46  1  0
 15 47  1  0
 15 48  1  0
 20 49  1  0
 21 50  1  0
 27 51  1  0
 28 52  1  0
 30 53  1  0
 31 54  1  0
 32 55  1  0
 34 56  1  0
 35 57  1  0
 36 58  1  0
 37 59  1  0
 38 60  1  0
M  CHG  3   8  -1  16  -1  23  -1
M  END
>  <UniqueID>  (91) 
89

>  <SMILES>  (91) 
Nc1ccccc1[N-]C(=O)c1ccc(C[N-]C(=O)c2ccc([O-])c(Oc3ccc(C=CC=O)cc3)c2)cc1

>  <Energy>  (91) 
92.39635530616121

>  <Genealogy>  (91) 
Nc1ccccc1[N-]C(=O)c1ccc(C[N-]C(=O)c2ccc([O-])c(Oc3ccc(C=CC=O)cc3)c2)cc1 (protonated)
Nc1ccccc1[N-]C(=O)c1ccc(C[N-]C(=O)c2ccc([O-])c(Oc3ccc(C=CC=O)cc3)c2)cc1 (3D coordinates assigned)
Nc1ccccc1[N-]C(=O)c1ccc(C[N-]C(=O)c2ccc([O-])c(Oc3ccc(C=CC=O)cc3)c2)cc1 (optimized conformer: 92.39635530616121 kcal/mol)

>  <smiles>  (91) 
Nc1ccccc1NC(=O)c1ccc(CNC(=O)c2ccc(O)c(Oc3ccc(C=CC=O)cc3)c2)cc1

>  <score_type>  (91) 
oracle

>  <origin>  (91) 
adg

>  <m_score__min__energy>  (91) 
-14.960000000000001

>  <m_primary>  (91) 
energy

$$$$
91:0
     RDKit          3D

 55 57  0  0  0  0  0  0  0  0999 V2000
   60.0780   27.1070   46.4780 C   0  0  0  0  0  0  0  0  0  0  0  0
   58.6770   27.2450   46.0660 N   0  0  0  0  0  0  0  0  0  0  0  0
   57.6300   26.6720   46.9240 C   0  0  0  0  0  0  0  0  0  0  0  0
   56.9670   25.5060   46.2350 C   0  0  0  0  0  0  0  0  0  0  0  0
   57.6990   24.3240   46.0240 C   0  0  0  0  0  0  0  0  0  0  0  0
   57.1080   23.2230   45.3990 C   0  0  0  0  0  0  0  0  0  0  0  0
   55.7810   23.2920   44.9730 C   0  0  0  0  0  0  0  0  0  0  0  0
   55.0410   24.4620   45.1760 C   0  0  0  0  0  0  0  0  0  0  0  0
   55.6260   25.5670   45.8030 C   0  0  0  0  0  0  0  0  0  0  0  0
   54.8620   26.7150   46.0000 O   0  0  0  0  0  0  0  0  0  0  0  0
   58.3590   28.1040   44.9490 C   0  0  0  0  0  0  0  0  0  0  0  0
   59.2800   28.7630   44.3950 O   0  0  0  0  0  0  0  0  0  0  0  0
   57.0130   28.2290   44.4520 N   0  0  0  0  0  0  0  0  0  0  0  0
   56.6310   29.3590   43.6090 C   0  0  0  0  0  0  0  0  0  0  0  0
   56.4110   30.6420   44.4260 C   0  0  0  0  0  0  0  0  0  0  0  0
   57.6790   31.5030   44.5370 C   0  0  0  0  0  0  0  0  0  0  0  0
   57.4720   32.6030   45.4720 N   0  0  0  0  0  0  0  0  0  0  0  0
   57.6270   33.9730   45.0960 C   0  0  0  0  0  0  0  0  0  0  0  0
   56.6140   34.6910   44.8770 O   0  0  0  0  0  0  0  0  0  0  0  0
   58.9990   34.5470   44.9160 C   0  0  0  0  0  0  0  0  0  0  0  0
   59.8370   34.3170   46.1420 C   0  0  0  0  0  0  0  0  0  0  0  0
   59.3130   34.5880   47.4160 C   0  0  0  0  0  0  0  0  0  0  0  0
   60.0890   34.3810   48.5610 C   0  0  0  0  0  0  0  0  0  0  0  0
   61.4080   33.9200   48.4460 C   0  0  0  0  0  0  0  0  0  0  0  0
   62.2050   33.7350   49.5870 C   0  0  0  0  0  0  0  0  0  0  0  0
   63.5270   33.3040   49.4550 C   0  0  0  0  0  0  0  0  0  0  0  0
   64.0610   33.0490   48.1900 C   0  0  0  0  0  0  0  0  0  0  0  0
   63.2760   33.2210   47.0470 C   0  0  0  0  0  0  0  0  0  0  0  0
   61.9480   33.6610   47.1630 C   0  0  0  0  0  0  0  0  0  0  0  0
   61.1570   33.8590   46.0210 C   0  0  0  0  0  0  0  0  0  0  0  0
   60.1383   27.1011   47.5763 H   0  0  0  0  0  0  0  0  0  0  0  0
   60.4851   26.1644   46.0833 H   0  0  0  0  0  0  0  0  0  0  0  0
   60.6612   27.9520   46.0833 H   0  0  0  0  0  0  0  0  0  0  0  0
   58.0814   26.3276   47.8661 H   0  0  0  0  0  0  0  0  0  0  0  0
   56.8732   27.4438   47.1280 H   0  0  0  0  0  0  0  0  0  0  0  0
   58.7467   24.2657   46.3541 H   0  0  0  0  0  0  0  0  0  0  0  0
   57.6887   22.3019   45.2428 H   0  0  0  0  0  0  0  0  0  0  0  0
   55.3167   22.4266   44.4776 H   0  0  0  0  0  0  0  0  0  0  0  0
   53.9945   24.5130   44.8410 H   0  0  0  0  0  0  0  0  0  0  0  0
   56.3600   27.4240   44.5380 H   0  0  0  0  0  0  0  0  0  0  0  0
   57.4295   29.5391   42.8742 H   0  0  0  0  0  0  0  0  0  0  0  0
   55.6820   29.1062   43.1136 H   0  0  0  0  0  0  0  0  0  0  0  0
   55.6237   31.2371   43.9403 H   0  0  0  0  0  0  0  0  0  0  0  0
   56.1255   30.3407   45.4447 H   0  0  0  0  0  0  0  0  0  0  0  0
   58.5108   30.8774   44.8931 H   0  0  0  0  0  0  0  0  0  0  0  0
   57.9132   31.9191   43.5460 H   0  0  0  0  0  0  0  0  0  0  0  0
   59.4817   34.0647   44.0532 H   0  0  0  0  0  0  0  0  0  0  0  0
   58.9094   35.6303   44.7475 H   0  0  0  0  0  0  0  0  0  0  0  0
   58.2846   34.9659   47.5143 H   0  0  0  0  0  0  0  0  0  0  0  0
   59.6629   34.5806   49.5553 H   0  0  0  0  0  0  0  0  0  0  0  0
   61.7878   33.9297   50.5860 H   0  0  0  0  0  0  0  0  0  0  0  0
   64.1499   33.1649   50.3509 H   0  0  0  0  0  0  0  0  0  0  0  0
   65.1034   32.7115   48.0931 H   0  0  0  0  0  0  0  0  0  0  0  0
   63.6997   33.0111   46.0538 H   0  0  0  0  0  0  0  0  0  0  0  0
   61.5750   33.6537   45.0244 H   0  0  0  0  0  0  0  0  0  0  0  0
  1  2  1  0
  2  3  1  0
  3  4  1  0
  4  5  2  0
  5  6  1  0
  6  7  2  0
  7  8  1  0
  8  9  2  0
  9 10  1  0
  2 11  1  0
 11 12  2  0
 11 13  1  0
 13 14  1  0
 14 15  1  0
 15 16  1  0
 16 17  1  0
 17 18  1  0
 18 19  2  0
 18 20  1  0
 20 21  1  0
 21 22  2  0
 22 23  1  0
 23 24  2  0
 24 25  1  0
 25 26  2  0
 26 27  1  0
 27 28  2  0
 28 29  1  0
 29 30  2  0
  9  4  1  0
 30 21  1  0
 29 24  1  0
  1 31  1  0
  1 32  1  0
  1 33  1  0
  3 34  1  0
  3 35  1  0
  5 36  1  0
  6 37  1  0
  7 38  1  0
  8 39  1  0
 13 40  1  0
 14 41  1  0
 14 42  1  0
 15 43  1  0
 15 44  1  0
 16 45  1  0
 16 46  1  0
 20 47  1  0
 20 48  1  0
 22 49  1  0
 23 50  1  0
 25 51  1  0
 26 52  1  0
 27 53  1  0
 28 54  1  0
 30 55  1  0
M  CHG  2  10  -1  17  -1
M  END
>  <UniqueID>  (92) 
90

>  <SMILES>  (92) 
CN(Cc1ccccc1[O-])C(=O)NCCC[N-]C(=O)Cc1ccc2ccccc2c1

>  <Energy>  (92) 
44.60558675517025

>  <Genealogy>  (92) 
CN(Cc1ccccc1[O-])C(=O)NCCC[N-]C(=O)Cc1ccc2ccccc2c1 (protonated)
CN(Cc1ccccc1[O-])C(=O)NCCC[N-]C(=O)Cc1ccc2ccccc2c1 (3D coordinates assigned)
CN(Cc1ccccc1[O-])C(=O)NCCC[N-]C(=O)Cc1ccc2ccccc2c1 (optimized conformer: 44.60558675517025 kcal/mol)

>  <smiles>  (92) 
CN(Cc1ccccc1O)C(=O)NCCCNC(=O)Cc1ccc2ccccc2c1

>  <score_type>  (92) 
oracle

>  <origin>  (92) 
adg

>  <m_score__min__energy>  (92) 
-14.34

>  <m_primary>  (92) 
energy

$$$$
92:0
     RDKit          3D

 42 44  0  0  0  0  0  0  0  0999 V2000
   58.6993   35.6082   46.2868 H   0  0  0  0  0  0  0  0  0  0  0  0
   58.5300   34.5620   45.9920 C   0  0  0  0  0  0  0  0  0  0  0  0
   59.5250   33.2550   46.3690 S   0  0  0  0  0  0  0  0  0  0  0  0
   58.5380   32.1410   45.5730 C   0  0  0  0  0  0  0  0  0  0  0  0
   58.7640   30.8660   45.4430 N   0  0  0  0  0  0  0  0  0  0  0  0
   57.7670   29.8560   45.2340 C   0  0  0  0  0  0  0  0  0  0  0  0
   56.6160   30.2140   44.8680 O   0  0  0  0  0  0  0  0  0  0  0  0
   58.0310   28.4230   45.5050 C   0  0  0  0  0  0  0  0  0  0  0  0
   59.3450   27.9510   45.6460 C   0  0  0  0  0  0  0  0  0  0  0  0
   60.1893   28.6489   45.5453 H   0  0  0  0  0  0  0  0  0  0  0  0
   59.5890   26.6030   45.9130 C   0  0  0  0  0  0  0  0  0  0  0  0
   60.6244   26.2457   46.0141 H   0  0  0  0  0  0  0  0  0  0  0  0
   58.5210   25.6970   46.0540 C   0  0  0  0  0  0  0  0  0  0  0  0
   58.7410   24.3370   46.3280 O   0  0  0  0  0  0  0  0  0  0  0  0
   59.6440   23.5020   45.6110 C   0  0  0  0  0  0  0  0  0  0  0  0
   60.2601   22.9323   46.3223 H   0  0  0  0  0  0  0  0  0  0  0  0
   59.0751   22.8048   44.9784 H   0  0  0  0  0  0  0  0  0  0  0  0
   60.2946   24.1237   44.9784 H   0  0  0  0  0  0  0  0  0  0  0  0
   57.2000   26.1670   45.9260 C   0  0  0  0  0  0  0  0  0  0  0  0
   55.8150   25.0740   46.1070 S   0  0  0  0  0  0  0  0  0  0  0  0
   55.8400   24.4720   47.4850 O   0  0  0  0  0  0  0  0  0  0  0  0
   54.5360   25.8520   45.9710 O   0  0  0  0  0  0  0  0  0  0  0  0
   55.8400   23.7890   44.9220 N   0  0  0  0  0  0  0  0  0  0  0  0
   56.6310   24.1810   43.7480 C   0  0  0  0  0  0  0  0  0  0  0  0
   56.1990   25.0897   43.3035 H   0  0  0  0  0  0  0  0  0  0  0  0
   57.6681   24.3769   44.0578 H   0  0  0  0  0  0  0  0  0  0  0  0
   56.6170   23.0430   42.7040 C   0  0  0  0  0  0  0  0  0  0  0  0
   56.0563   23.3808   41.8199 H   0  0  0  0  0  0  0  0  0  0  0  0
   57.6608   22.8054   42.4509 H   0  0  0  0  0  0  0  0  0  0  0  0
   56.0120   21.8620   43.2040 O   0  0  0  0  0  0  0  0  0  0  0  0
   56.6230   21.4890   44.4240 C   0  0  0  0  0  0  0  0  0  0  0  0
   56.1996   20.5308   44.7596 H   0  0  0  0  0  0  0  0  0  0  0  0
   57.7064   21.3960   44.2580 H   0  0  0  0  0  0  0  0  0  0  0  0
   56.3840   22.5550   45.5140 C   0  0  0  0  0  0  0  0  0  0  0  0
   55.6694   22.1629   46.2526 H   0  0  0  0  0  0  0  0  0  0  0  0
   57.3435   22.7875   45.9990 H   0  0  0  0  0  0  0  0  0  0  0  0
   56.9650   27.5240   45.6570 C   0  0  0  0  0  0  0  0  0  0  0  0
   55.9310   27.8876   45.5641 H   0  0  0  0  0  0  0  0  0  0  0  0
   57.4710   32.7480   45.0120 N   0  0  0  0  0  0  0  0  0  0  0  0
   56.7380   32.2510   44.4590 H   0  0  0  0  0  0  0  0  0  0  0  0
   57.4570   34.0880   45.2430 C   0  0  0  0  0  0  0  0  0  0  0  0
   56.6597   34.7461   44.8671 H   0  0  0  0  0  0  0  0  0  0  0  0
  1  2  1  0
  2  3  1  0
  3  4  1  0
  4  5  2  0
  5  6  1  0
  6  7  2  0
  6  8  1  0
  8  9  2  0
  9 10  1  0
  9 11  1  0
 11 12  1  0
 11 13  2  0
 13 14  1  0
 14 15  1  0
 15 16  1  0
 15 17  1  0
 15 18  1  0
 13 19  1  0
 19 20  1  0
 20 21  2  0
 20 22  2  0
 20 23  1  0
 23 24  1  0
 24 25  1  0
 24 26  1  0
 24 27  1  0
 27 28  1  0
 27 29  1  0
 27 30  1  0
 30 31  1  0
 31 32  1  0
 31 33  1  0
 31 34  1  0
 34 35  1  0
 34 36  1  0
 19 37  2  0
 37 38  1  0
  4 39  1  0
 39 40  1  0
 39 41  1  0
 41 42  1  0
 41  2  2  0
 37  8  1  0
 34 23  1  0
M  END
>  <UniqueID>  (93) 
91

>  <SMILES>  (93) 
COc1ccc(C(=O)/N=c2/[nH]ccs2)cc1S(=O)(=O)N1CCOCC1

>  <Energy>  (93) 
88.62891780406174

>  <Genealogy>  (93) 
COc1ccc(C(=O)/N=c2/[nH]ccs2)cc1S(=O)(=O)N1CCOCC1 (cis-trans isomerization)
COc1ccc(C(=O)/N=c2/[nH]ccs2)cc1S(=O)(=O)N1CCOCC1 (3D coordinates assigned)
COc1ccc(C(=O)/N=c2/[nH]ccs2)cc1S(=O)(=O)N1CCOCC1 (nonaromatic ring conformer: 88.62891780406174 kcal/mol)

>  <smiles>  (93) 
COc1ccc(C(=O)N=c2[nH]ccs2)cc1S(=O)(=O)N1CCOCC1

>  <score_type>  (93) 
oracle

>  <origin>  (93) 
adg

>  <m_score__min__energy>  (93) 
-8.2200000000000006

>  <m_primary>  (93) 
energy

$$$$
93:0
     RDKit          3D

 43 47  0  0  0  0  0  0  0  0999 V2000
   55.1570   27.4840   45.2780 H   0  0  0  0  0  0  0  0  0  0  0  0
   55.1710   26.7590   45.9850 O   0  0  0  0  0  0  0  0  0  0  0  0
   55.0570   25.4120   45.6510 C   0  0  0  0  0  0  0  0  0  0  0  0
   53.9210   24.7110   45.8020 N   0  0  0  0  0  0  0  0  0  0  0  0
   54.2430   23.5040   45.2910 C   0  0  0  0  0  0  0  0  0  0  0  0
   53.4250   22.5490   45.2430 O   0  0  0  0  0  0  0  0  0  0  0  0
   55.5080   23.4020   44.8290 N   0  0  0  0  0  0  0  0  0  0  0  0
   56.0300   24.6150   45.0810 C   0  0  0  0  0  0  0  0  0  0  0  0
   57.4070   24.9880   44.7150 C   0  0  0  0  0  0  0  0  0  0  0  0
   57.8185   24.6017   43.7708 H   0  0  0  0  0  0  0  0  0  0  0  0
   58.1840   25.7730   45.4720 C   0  0  0  0  0  0  0  0  0  0  0  0
   59.2840   25.4310   46.2610 C   0  0  0  0  0  0  0  0  0  0  0  0
   59.6653   24.4095   46.4068 H   0  0  0  0  0  0  0  0  0  0  0  0
   59.8110   26.5470   46.8200 N   0  0  0  0  0  0  0  0  0  0  0  0
   59.0820   27.5730   46.4080 N   0  0  0  0  0  0  0  0  0  0  0  0
   59.2300   28.9010   46.6830 C   0  0  0  0  0  0  0  0  0  0  0  0
   60.1660   29.3690   47.4610 N   0  0  0  0  0  0  0  0  0  0  0  0
   60.3260   30.7540   47.8910 C   0  0  0  0  0  0  0  0  0  0  0  0
   59.5120   30.7764   48.6305 H   0  0  0  0  0  0  0  0  0  0  0  0
   61.7630   31.2440   47.8740 C   0  0  0  0  0  0  0  0  0  0  0  0
   62.1008   31.9842   48.6143 H   0  0  0  0  0  0  0  0  0  0  0  0
   62.7506   30.7607   47.9072 H   0  0  0  0  0  0  0  0  0  0  0  0
   60.8030   31.6570   46.7680 C   0  0  0  0  0  0  0  0  0  0  0  0
   60.4466   32.6960   46.7084 H   0  0  0  0  0  0  0  0  0  0  0  0
   60.8087   31.5962   45.6697 H   0  0  0  0  0  0  0  0  0  0  0  0
   58.3550   29.7710   46.1060 N   0  0  0  0  0  0  0  0  0  0  0  0
   57.3600   29.3280   45.2810 C   0  0  0  0  0  0  0  0  0  0  0  0
   56.5500   30.1890   44.7410 N   0  0  0  0  0  0  0  0  0  0  0  0
   56.9630   31.3050   43.8890 C   0  0  0  0  0  0  0  0  0  0  0  0
   57.6767   30.9393   43.1361 H   0  0  0  0  0  0  0  0  0  0  0  0
   56.0717   31.7240   43.3991 H   0  0  0  0  0  0  0  0  0  0  0  0
   57.6170   32.3840   44.7050 C   0  0  0  0  0  0  0  0  0  0  0  0
   57.3350   32.4900   46.0330 N   0  0  0  0  0  0  0  0  0  0  0  0
   57.8750   33.4700   46.8060 C   0  0  0  0  0  0  0  0  0  0  0  0
   57.6265   33.5262   47.8761 H   0  0  0  0  0  0  0  0  0  0  0  0
   58.7450   34.4050   46.2410 C   0  0  0  0  0  0  0  0  0  0  0  0
   59.2870   35.3850   47.0040 F   0  0  0  0  0  0  0  0  0  0  0  0
   59.0490   34.3210   44.8800 C   0  0  0  0  0  0  0  0  0  0  0  0
   59.7324   35.0509   44.4216 H   0  0  0  0  0  0  0  0  0  0  0  0
   58.4830   33.3080   44.1030 C   0  0  0  0  0  0  0  0  0  0  0  0
   58.7141   33.2357   43.0300 H   0  0  0  0  0  0  0  0  0  0  0  0
   57.2310   27.9930   45.0240 N   0  0  0  0  0  0  0  0  0  0  0  0
   58.1100   27.1410   45.6010 C   0  0  0  0  0  0  0  0  0  0  0  0
  1  2  1  0
  2  3  1  0
  3  4  1  0
  4  5  1  0
  5  6  2  0
  5  7  1  0
  7  8  1  0
  8  9  1  0
  9 10  1  0
  9 11  2  3
 11 12  1  0
 12 13  1  0
 12 14  2  0
 14 15  1  0
 15 16  1  0
 16 17  2  3
 17 18  1  0
 18 19  1  0
 18 20  1  0
 20 21  1  0
 20 22  1  0
 20 23  1  0
 23 24  1  0
 23 25  1  0
 16 26  1  0
 26 27  1  0
 27 28  2  0
 28 29  1  0
 29 30  1  0
 29 31  1  0
 29 32  1  0
 32 33  2  0
 33 34  1  0
 34 35  1  0
 34 36  2  0
 36 37  1  0
 36 38  1  0
 38 39  1  0
 38 40  2  0
 40 41  1  0
 27 42  1  0
 42 43  2  0
  8  3  2  0
 43 11  1  0
 43 15  1  0
 23 18  1  0
 40 32  1  0
M  CHG  3   4  -1   7  -1  26  -1
M  END
>  <UniqueID>  (94) 
92

>  <SMILES>  (94) 
O=c1[n-]c(O)c(C=c2cnn3c(=NC4CC4)[n-]/c(=N/Cc4ccc(F)cn4)nc23)[n-]1

>  <Energy>  (94) 
388.04382772685324

>  <Genealogy>  (94) 
O=c1[n-]c(O)c(C=c2cnn3c(=NC4CC4)[n-]c(=NCc4ccc(F)cn4)nc23)[n-]1 (protonated)
O=c1[n-]c(O)c(C=c2cnn3c(=NC4CC4)[n-]/c(=N/Cc4ccc(F)cn4)nc23)[n-]1 (cis-trans isomerization)
O=c1[n-]c(O)c(C=c2cnn3c(=NC4CC4)[n-]/c(=N/Cc4ccc(F)cn4)nc23)[n-]1 (3D coordinates assigned)
O=c1[n-]c(O)c(C=c2cnn3c(=NC4CC4)[n-]/c(=N/Cc4ccc(F)cn4)nc23)[n-]1 (nonaromatic ring conformer: 388.04382772685324 kcal/mol)

>  <smiles>  (94) 
O=c1[nH]c(O)c(C=c2cnn3c(=NC4CC4)[nH]c(=NCc4ccc(F)cn4)nc23)[nH]1

>  <score_type>  (94) 
oracle

>  <origin>  (94) 
adg

>  <m_score__min__energy>  (94) 
-14.5

>  <m_primary>  (94) 
energy

$$$$
94:0
     RDKit          3D

 34 36  0  0  0  0  0  0  0  0999 V2000
   55.3410   25.8390   46.3380 O   0  0  0  0  0  0  0  0  0  0  0  0
   56.4140   26.0820   45.7230 C   0  0  0  0  0  0  0  0  0  0  0  0
   56.9390   27.4830   45.6800 C   0  0  0  0  0  0  0  0  0  0  0  0
   55.9030   28.4160   45.2390 N   0  0  0  0  0  0  0  0  0  0  0  0
   56.1010   29.6060   44.4600 C   0  0  0  0  0  0  0  0  0  0  0  0
   55.5170   29.7030   43.3490 O   0  0  0  0  0  0  0  0  0  0  0  0
   57.0050   30.6890   44.8820 C   0  0  0  0  0  0  0  0  0  0  0  0
   57.1710   31.8890   44.1930 C   0  0  0  0  0  0  0  0  0  0  0  0
   58.1320   32.5750   44.9020 C   0  0  0  0  0  0  0  0  0  0  0  0
   58.7370   33.8040   44.6510 C   0  0  0  0  0  0  0  0  0  0  0  0
   59.7330   34.2390   45.5460 C   0  0  0  0  0  0  0  0  0  0  0  0
   60.0940   33.4430   46.6560 C   0  0  0  0  0  0  0  0  0  0  0  0
   59.4650   32.2050   46.8810 C   0  0  0  0  0  0  0  0  0  0  0  0
   58.4850   31.8000   45.9760 C   0  0  0  0  0  0  0  0  0  0  0  0
   57.7970   30.6460   45.9810 N   0  0  0  0  0  0  0  0  0  0  0  0
   57.1740   25.0280   45.1140 N   0  0  0  0  0  0  0  0  0  0  0  0
   56.7340   23.9370   44.5500 C   0  0  0  0  0  0  0  0  0  0  0  0
   56.6270   23.7830   43.1520 C   0  0  0  0  0  0  0  0  0  0  0  0
   56.2010   22.5600   42.6240 C   0  0  0  0  0  0  0  0  0  0  0  0
   55.8970   21.5270   43.4520 N   0  0  0  0  0  0  0  0  0  0  0  0
   55.9980   21.6430   44.8020 C   0  0  0  0  0  0  0  0  0  0  0  0
   56.4200   22.8470   45.3720 C   0  0  0  0  0  0  0  0  0  0  0  0
   57.2785   27.7712   46.6858 H   0  0  0  0  0  0  0  0  0  0  0  0
   57.7746   27.5230   44.9658 H   0  0  0  0  0  0  0  0  0  0  0  0
   56.6487   32.2166   43.2821 H   0  0  0  0  0  0  0  0  0  0  0  0
   58.4466   34.4141   43.7830 H   0  0  0  0  0  0  0  0  0  0  0  0
   60.2332   35.2045   45.3800 H   0  0  0  0  0  0  0  0  0  0  0  0
   60.8726   33.7939   47.3493 H   0  0  0  0  0  0  0  0  0  0  0  0
   59.7374   31.5774   47.7424 H   0  0  0  0  0  0  0  0  0  0  0  0
   57.8550   29.8900   46.6980 H   0  0  0  0  0  0  0  0  0  0  0  0
   56.8768   24.6188   42.4819 H   0  0  0  0  0  0  0  0  0  0  0  0
   56.1119   22.4342   41.5349 H   0  0  0  0  0  0  0  0  0  0  0  0
   55.7472   20.7880   45.4471 H   0  0  0  0  0  0  0  0  0  0  0  0
   56.5055   22.9388   46.4648 H   0  0  0  0  0  0  0  0  0  0  0  0
  1  2  2  0
  2  3  1  0
  3  4  1  0
  4  5  1  0
  5  6  2  0
  5  7  1  0
  7  8  2  0
  8  9  1  0
  9 10  2  0
 10 11  1  0
 11 12  2  0
 12 13  1  0
 13 14  2  0
 14 15  1  0
  2 16  1  0
 16 17  2  3
 17 18  1  0
 18 19  2  0
 19 20  1  0
 20 21  1  0
 21 22  2  0
 15  7  1  0
 22 17  1  0
 14  9  1  0
  3 23  1  0
  3 24  1  0
  8 25  1  0
 10 26  1  0
 11 27  1  0
 12 28  1  0
 13 29  1  0
 15 30  1  0
 18 31  1  0
 19 32  1  0
 21 33  1  0
 22 34  1  0
M  CHG  2   4  -1  20  -1
M  END
>  <UniqueID>  (95) 
93

>  <SMILES>  (95) 
O=C(C[N-]C(=O)c1cc2ccccc2[nH]1)N=c1cc[n-]cc1

>  <Energy>  (95) 
74.25189298733505

>  <Genealogy>  (95) 
O=C(C[N-]C(=O)c1cc2ccccc2[nH]1)N=c1cc[n-]cc1 (protonated)
O=C(C[N-]C(=O)c1cc2ccccc2[nH]1)N=c1cc[n-]cc1 (3D coordinates assigned)
O=C(C[N-]C(=O)c1cc2ccccc2[nH]1)N=c1cc[n-]cc1 (optimized conformer: 74.25189298733505 kcal/mol)

>  <smiles>  (95) 
O=C(CNC(=O)c1cc2ccccc2[nH]1)N=c1cc[nH]cc1

>  <score_type>  (95) 
oracle

>  <origin>  (95) 
adg

>  <m_score__min__energy>  (95) 
-10.99

>  <m_primary>  (95) 
energy

$$$$
95:0
     RDKit          3D

 37 39  0  0  0  0  0  0  0  0999 V2000
   56.9810   30.9600   43.0330 O   0  0  0  0  0  0  0  0  0  0  0  0
   56.9360   30.8980   44.2910 C   0  0  0  0  0  0  0  0  0  0  0  0
   56.6790   32.0850   45.0560 N   0  0  0  0  0  0  0  0  0  0  0  0
   57.6590   32.9640   45.6270 C   0  0  0  0  0  0  0  0  0  0  0  0
   58.2460   34.0100   44.8890 C   0  0  0  0  0  0  0  0  0  0  0  0
   59.2160   34.8270   45.4780 C   0  0  0  0  0  0  0  0  0  0  0  0
   59.6160   34.6020   46.7970 C   0  0  0  0  0  0  0  0  0  0  0  0
   59.0550   33.5510   47.5270 C   0  0  0  0  0  0  0  0  0  0  0  0
   58.0860   32.7300   46.9410 C   0  0  0  0  0  0  0  0  0  0  0  0
   57.0900   29.5890   44.9780 C   0  0  0  0  0  0  0  0  0  0  0  0
   56.0100   28.6850   45.0470 C   0  0  0  0  0  0  0  0  0  0  0  0
   54.7730   29.0000   44.4970 O   0  0  0  0  0  0  0  0  0  0  0  0
   56.1570   27.4910   45.6760 N   0  0  0  0  0  0  0  0  0  0  0  0
   57.3220   27.1150   46.2580 C   0  0  0  0  0  0  0  0  0  0  0  0
   57.3950   25.9840   46.8100 O   0  0  0  0  0  0  0  0  0  0  0  0
   58.4330   27.9750   46.2320 C   0  0  0  0  0  0  0  0  0  0  0  0
   59.7130   27.5460   46.8420 C   0  0  0  0  0  0  0  0  0  0  0  0
   60.4130   26.6930   46.2320 O   0  0  0  0  0  0  0  0  0  0  0  0
   60.1750   28.0810   48.1490 C   0  0  0  0  0  0  0  0  0  0  0  0
   60.3340   29.4660   48.3530 C   0  0  0  0  0  0  0  0  0  0  0  0
   60.7780   29.9540   49.5860 C   0  0  0  0  0  0  0  0  0  0  0  0
   61.0710   29.0710   50.6260 C   0  0  0  0  0  0  0  0  0  0  0  0
   60.9250   27.6940   50.4350 C   0  0  0  0  0  0  0  0  0  0  0  0
   60.4820   27.2000   49.2040 C   0  0  0  0  0  0  0  0  0  0  0  0
   58.3130   29.2250   45.5860 C   0  0  0  0  0  0  0  0  0  0  0  0
   59.3920   30.1150   45.5390 O   0  0  0  0  0  0  0  0  0  0  0  0
   57.9407   34.1847   43.8468 H   0  0  0  0  0  0  0  0  0  0  0  0
   59.6651   35.6489   44.9011 H   0  0  0  0  0  0  0  0  0  0  0  0
   60.3724   35.2520   47.2610 H   0  0  0  0  0  0  0  0  0  0  0  0
   59.3757   33.3691   48.5634 H   0  0  0  0  0  0  0  0  0  0  0  0
   57.6566   31.8957   47.5150 H   0  0  0  0  0  0  0  0  0  0  0  0
   60.1074   30.1680   47.5370 H   0  0  0  0  0  0  0  0  0  0  0  0
   60.8966   31.0372   49.7365 H   0  0  0  0  0  0  0  0  0  0  0  0
   61.4167   29.4584   51.5957 H   0  0  0  0  0  0  0  0  0  0  0  0
   61.1589   26.9980   51.2541 H   0  0  0  0  0  0  0  0  0  0  0  0
   60.3725   26.1152   49.0586 H   0  0  0  0  0  0  0  0  0  0  0  0
   59.3060   31.0790   45.2430 H   0  0  0  0  0  0  0  0  0  0  0  0
  1  2  2  0
  2  3  1  0
  3  4  1  0
  4  5  2  0
  5  6  1  0
  6  7  2  0
  7  8  1  0
  8  9  2  0
  2 10  1  0
 10 11  2  0
 11 12  1  0
 11 13  1  0
 13 14  1  0
 14 15  2  0
 14 16  1  0
 16 17  1  0
 17 18  2  0
 17 19  1  0
 19 20  2  0
 20 21  1  0
 21 22  2  0
 22 23  1  0
 23 24  2  0
 16 25  2  0
 25 26  1  0
  9  4  1  0
 25 10  1  0
 24 19  1  0
  5 27  1  0
  6 28  1  0
  7 29  1  0
  8 30  1  0
  9 31  1  0
 20 32  1  0
 21 33  1  0
 22 34  1  0
 23 35  1  0
 24 36  1  0
 26 37  1  0
M  CHG  3   3  -1  12  -1  13  -1
M  END
>  <UniqueID>  (96) 
94

>  <SMILES>  (96) 
O=C([N-]c1ccccc1)c1c([O-])[n-]c(=O)c(C(=O)c2ccccc2)c1O

>  <Energy>  (96) 
59.367507883508026

>  <Genealogy>  (96) 
O=C([N-]c1ccccc1)c1c([O-])[n-]c(=O)c(C(=O)c2ccccc2)c1O (protonated)
O=C([N-]c1ccccc1)c1c([O-])[n-]c(=O)c(C(=O)c2ccccc2)c1O (3D coordinates assigned)
O=C([N-]c1ccccc1)c1c([O-])[n-]c(=O)c(C(=O)c2ccccc2)c1O (optimized conformer: 59.367507883508026 kcal/mol)

>  <smiles>  (96) 
O=C(Nc1ccccc1)c1c(O)[nH]c(=O)c(C(=O)c2ccccc2)c1O

>  <score_type>  (96) 
oracle

>  <origin>  (96) 
adg

>  <m_score__min__energy>  (96) 
-14.76

>  <m_primary>  (96) 
energy

$$$$
