0:0
     RDKit          3D

 42 44  0  0  0  0  0  0  0  0999 V2000
   58.8520   31.8710   47.5560 C   0  0  0  0  0  0  0  0  0  0  0  0
   58.4970   32.1070   46.1040 C   0  0  0  0  0  0  0  0  0  0  0  0
   57.7500   31.1300   45.4000 C   0  0  0  0  0  0  0  0  0  0  0  0
   57.4210   29.8860   46.0420 N   0  0  0  0  0  0  0  0  0  0  0  0
   56.6490   28.8120   45.4900 C   0  0  0  0  0  0  0  0  0  0  0  0
   55.5880   29.0670   44.8570 O   0  0  0  0  0  0  0  0  0  0  0  0
   57.0460   27.3960   45.7210 C   0  0  0  0  0  0  0  0  0  0  0  0
   58.4120   27.0570   45.7090 C   0  0  0  0  0  0  0  0  0  0  0  0
   58.8050   25.7340   45.9150 C   0  0  0  0  0  0  0  0  0  0  0  0
   60.0270   25.4310   45.9000 O   0  0  0  0  0  0  0  0  0  0  0  0
   57.8390   24.7510   46.1360 C   0  0  0  0  0  0  0  0  0  0  0  0
   58.2210   23.4260   46.3420 O   0  0  0  0  0  0  0  0  0  0  0  0
   56.4890   25.1150   46.1480 C   0  0  0  0  0  0  0  0  0  0  0  0
   56.1150   26.4090   45.9470 N   0  0  0  0  0  0  0  0  0  0  0  0
   54.7710   26.7020   46.0020 O   0  0  0  0  0  0  0  0  0  0  0  0
   57.3920   31.3590   44.0610 C   0  0  0  0  0  0  0  0  0  0  0  0
   57.7380   32.5510   43.4310 C   0  0  0  0  0  0  0  0  0  0  0  0
   58.4770   33.5150   44.1110 C   0  0  0  0  0  0  0  0  0  0  0  0
   58.8910   33.3000   45.4350 C   0  0  0  0  0  0  0  0  0  0  0  0
   59.7410   34.3350   46.0710 C   0  0  0  0  0  0  0  0  0  0  0  0
   59.1980   35.3410   46.6030 O   0  0  0  0  0  0  0  0  0  0  0  0
   61.1690   34.1940   46.0820 N   0  0  0  0  0  0  0  0  0  0  0  0
   61.9920   33.8640   47.2100 C   0  0  0  0  0  0  0  0  0  0  0  0
   61.4370   33.9480   48.4930 C   0  0  0  0  0  0  0  0  0  0  0  0
   62.1990   33.6180   49.6170 C   0  0  0  0  0  0  0  0  0  0  0  0
   63.5190   33.1830   49.4660 C   0  0  0  0  0  0  0  0  0  0  0  0
   64.2760   32.8540   50.5840 O   0  0  0  0  0  0  0  0  0  0  0  0
   64.0740   33.0720   48.1880 C   0  0  0  0  0  0  0  0  0  0  0  0
   63.3130   33.4020   47.0610 C   0  0  0  0  0  0  0  0  0  0  0  0
   58.1093   32.3647   48.2000 H   0  0  0  0  0  0  0  0  0  0  0  0
   58.8551   30.7904   47.7617 H   0  0  0  0  0  0  0  0  0  0  0  0
   59.8496   32.2863   47.7617 H   0  0  0  0  0  0  0  0  0  0  0  0
   59.1701   27.8353   45.5372 H   0  0  0  0  0  0  0  0  0  0  0  0
   59.1110   23.0740   46.0100 H   0  0  0  0  0  0  0  0  0  0  0  0
   55.7204   24.3475   46.3217 H   0  0  0  0  0  0  0  0  0  0  0  0
   56.8340   30.5904   43.5061 H   0  0  0  0  0  0  0  0  0  0  0  0
   57.4263   32.7320   42.3917 H   0  0  0  0  0  0  0  0  0  0  0  0
   58.7395   34.4558   43.6051 H   0  0  0  0  0  0  0  0  0  0  0  0
   60.3943   34.2759   48.6169 H   0  0  0  0  0  0  0  0  0  0  0  0
   61.7595   33.7006   50.6220 H   0  0  0  0  0  0  0  0  0  0  0  0
   65.1108   32.7246   48.0679 H   0  0  0  0  0  0  0  0  0  0  0  0
   63.7484   33.3000   46.0560 H   0  0  0  0  0  0  0  0  0  0  0  0
  1  2  1  0
  2  3  2  0
  3  4  1  0
  4  5  1  0
  5  6  2  0
  5  7  1  0
  7  8  2  0
  8  9  1  0
  9 10  2  0
  9 11  1  0
 11 12  1  0
 11 13  2  0
 13 14  1  0
 14 15  1  0
  3 16  1  0
 16 17  2  0
 17 18  1  0
 18 19  2  0
 19 20  1  0
 20 21  2  0
 20 22  1  0
 22 23  1  0
 23 24  2  0
 24 25  1  0
 25 26  2  0
 26 27  1  0
 26 28  1  0
 28 29  2  0
 19  2  1  0
 29 23  1  0
 14  7  1  0
  1 30  1  0
  1 31  1  0
  1 32  1  0
  8 33  1  0
 12 34  1  0
 13 35  1  0
 16 36  1  0
 17 37  1  0
 18 38  1  0
 24 39  1  0
 25 40  1  0
 28 41  1  0
 29 42  1  0
M  CHG  4   4  -1  15  -1  22  -1  27  -1
M  END
>  <UniqueID>  (1) 
1

>  <SMILES>  (1) 
Cc1c([N-]C(=O)c2cc(=O)c(O)cn2[O-])cccc1C(=O)[N-]c1ccc([O-])cc1

>  <Energy>  (1) 
62.682692631773605

>  <Genealogy>  (1) 
Cc1c([N-]C(=O)c2cc(=O)c(O)cn2[O-])cccc1C(=O)[N-]c1ccc([O-])cc1 (protonated)
Cc1c([N-]C(=O)c2cc(=O)c(O)cn2[O-])cccc1C(=O)[N-]c1ccc([O-])cc1 (3D coordinates assigned)
Cc1c([N-]C(=O)c2cc(=O)c(O)cn2[O-])cccc1C(=O)[N-]c1ccc([O-])cc1 (optimized conformer: 62.682692631773605 kcal/mol)

>  <smiles>  (1) 
Cc1c(NC(=O)c2cc(=O)c(O)cn2O)cccc1C(=O)Nc1ccc(O)cc1

>  <score_type>  (1) 
oracle

>  <origin>  (1) 
adg

>  <m_score__min__energy>  (1) 
-15.35

>  <m_primary>  (1) 
energy

$$$$
1:0
     RDKit          3D

 73 77  0  0  0  0  0  0  0  0999 V2000
   59.9670   36.1040   45.9710 O   0  0  0  0  0  0  0  0  0  0  0  0
   59.4580   35.1310   46.5950 C   0  0  0  0  0  0  0  0  0  0  0  0
   58.1350   34.5600   46.1760 C   0  0  0  0  0  0  0  0  0  0  0  0
   58.2430   33.1430   45.8310 N   0  0  0  0  0  0  0  0  0  0  0  0
   59.2760   32.3300   46.1320 C   0  0  0  0  0  0  0  0  0  0  0  0
   59.0230   31.0620   45.6490 C   0  0  0  0  0  0  0  0  0  0  0  0
   60.0960   29.6770   45.8470 S   0  0  0  0  0  0  0  0  0  0  0  0
   60.3500   29.0740   44.4950 O   0  0  0  0  0  0  0  0  0  0  0  0
   61.4020   30.1020   46.4630 O   0  0  0  0  0  0  0  0  0  0  0  0
   59.3360   28.4920   46.8840 N   0  0  0  0  0  0  0  0  0  0  0  0
   59.5000   28.8570   48.3040 C   0  0  0  0  0  0  0  0  0  0  0  0
   60.1690   27.6940   49.0220 C   0  0  0  0  0  0  0  0  0  0  0  0
   60.8280   26.9010   47.9210 C   0  0  0  0  0  0  0  0  0  0  0  0
   59.9600   27.1720   46.7070 C   0  0  0  0  0  0  0  0  0  0  0  0
   57.7730   31.1120   45.0460 C   0  0  0  0  0  0  0  0  0  0  0  0
   56.8690   29.8050   44.2780 S   0  0  0  0  0  0  0  0  0  0  0  0
   55.4790   29.7600   44.8490 O   0  0  0  0  0  0  0  0  0  0  0  0
   56.7540   30.1200   42.8130 O   0  0  0  0  0  0  0  0  0  0  0  0
   57.6890   28.2670   44.4590 N   0  0  0  0  0  0  0  0  0  0  0  0
   57.8010   27.5290   43.1960 C   0  0  0  0  0  0  0  0  0  0  0  0
   57.9680   26.0650   43.5690 C   0  0  0  0  0  0  0  0  0  0  0  0
   57.3970   25.9420   44.9750 C   0  0  0  0  0  0  0  0  0  0  0  0
   57.0100   27.3570   45.3860 C   0  0  0  0  0  0  0  0  0  0  0  0
   57.3250   32.4130   45.1690 C   0  0  0  0  0  0  0  0  0  0  0  0
   60.0950   34.6120   47.7680 N   0  0  0  0  0  0  0  0  0  0  0  0
   61.4160   34.0600   47.8310 C   0  0  0  0  0  0  0  0  0  0  0  0
   62.1270   33.8740   46.6380 C   0  0  0  0  0  0  0  0  0  0  0  0
   63.4330   33.3750   46.6660 C   0  0  0  0  0  0  0  0  0  0  0  0
   64.0460   33.0780   47.8880 C   0  0  0  0  0  0  0  0  0  0  0  0
   63.3510   33.2720   49.0900 C   0  0  0  0  0  0  0  0  0  0  0  0
   64.1450   32.9200   50.6220 S   0  0  0  0  0  0  0  0  0  0  0  0
   63.1950   32.1200   51.4730 O   0  0  0  0  0  0  0  0  0  0  0  0
   64.4570   34.2040   51.3380 O   0  0  0  0  0  0  0  0  0  0  0  0
   65.6030   31.9920   50.3280 N   0  0  0  0  0  0  0  0  0  0  0  0
   66.7900   32.8480   50.1340 C   0  0  0  0  0  0  0  0  0  0  0  0
   67.4170   33.2950   51.4660 C   0  0  0  0  0  0  0  0  0  0  0  0
   67.6930   32.1840   52.2940 O   0  0  0  0  0  0  0  0  0  0  0  0
   66.4860   31.5260   52.6160 C   0  0  0  0  0  0  0  0  0  0  0  0
   65.8250   30.9550   51.3540 C   0  0  0  0  0  0  0  0  0  0  0  0
   62.0390   33.7700   49.0610 C   0  0  0  0  0  0  0  0  0  0  0  0
   57.4199   34.6718   47.0043 H   0  0  0  0  0  0  0  0  0  0  0  0
   57.7929   35.1053   45.2840 H   0  0  0  0  0  0  0  0  0  0  0  0
   60.1817   32.6313   46.6788 H   0  0  0  0  0  0  0  0  0  0  0  0
   60.1282   29.7562   48.3868 H   0  0  0  0  0  0  0  0  0  0  0  0
   58.5200   29.0686   48.7566 H   0  0  0  0  0  0  0  0  0  0  0  0
   60.9179   28.0591   49.7402 H   0  0  0  0  0  0  0  0  0  0  0  0
   59.4534   27.0919   49.6012 H   0  0  0  0  0  0  0  0  0  0  0  0
   61.8579   27.2481   47.7512 H   0  0  0  0  0  0  0  0  0  0  0  0
   60.9046   25.8294   48.1573 H   0  0  0  0  0  0  0  0  0  0  0  0
   60.5783   27.1697   45.7972 H   0  0  0  0  0  0  0  0  0  0  0  0
   59.1891   26.3939   46.6053 H   0  0  0  0  0  0  0  0  0  0  0  0
   58.6550   28.4550   44.8220 H   0  0  0  0  0  0  0  0  0  0  0  0
   56.8915   27.6667   42.5927 H   0  0  0  0  0  0  0  0  0  0  0  0
   58.6515   27.8881   42.5979 H   0  0  0  0  0  0  0  0  0  0  0  0
   57.4121   25.4232   42.8697 H   0  0  0  0  0  0  0  0  0  0  0  0
   59.0202   25.7474   43.5240 H   0  0  0  0  0  0  0  0  0  0  0  0
   56.5132   25.2872   44.9744 H   0  0  0  0  0  0  0  0  0  0  0  0
   58.1243   25.5005   45.6722 H   0  0  0  0  0  0  0  0  0  0  0  0
   55.9201   27.4875   45.3148 H   0  0  0  0  0  0  0  0  0  0  0  0
   57.3043   27.5607   46.4262 H   0  0  0  0  0  0  0  0  0  0  0  0
   56.3669   32.7937   44.7856 H   0  0  0  0  0  0  0  0  0  0  0  0
   61.6558   34.1216   45.6753 H   0  0  0  0  0  0  0  0  0  0  0  0
   63.9797   33.2156   45.7249 H   0  0  0  0  0  0  0  0  0  0  0  0
   65.0757   32.6914   47.9057 H   0  0  0  0  0  0  0  0  0  0  0  0
   67.5416   32.2846   49.5616 H   0  0  0  0  0  0  0  0  0  0  0  0
   66.4667   33.7516   49.5964 H   0  0  0  0  0  0  0  0  0  0  0  0
   68.3548   33.8317   51.2599 H   0  0  0  0  0  0  0  0  0  0  0  0
   66.7037   33.9511   51.9863 H   0  0  0  0  0  0  0  0  0  0  0  0
   66.6985   30.7041   53.3155 H   0  0  0  0  0  0  0  0  0  0  0  0
   65.7998   32.2520   53.0766 H   0  0  0  0  0  0  0  0  0  0  0  0
   66.4763   30.1742   50.9344 H   0  0  0  0  0  0  0  0  0  0  0  0
   64.8451   30.5451   51.6399 H   0  0  0  0  0  0  0  0  0  0  0  0
   61.4948   33.9346   50.0027 H   0  0  0  0  0  0  0  0  0  0  0  0
  1  2  2  0
  2  3  1  0
  3  4  1  0
  4  5  1  0
  5  6  2  0
  6  7  1  0
  7  8  2  0
  7  9  2  0
  7 10  1  0
 10 11  1  0
 11 12  1  0
 12 13  1  0
 13 14  1  0
  6 15  1  0
 15 16  1  0
 16 17  2  0
 16 18  2  0
 16 19  1  0
 19 20  1  0
 20 21  1  0
 21 22  1  0
 22 23  1  0
 15 24  2  0
  2 25  1  0
 25 26  1  0
 26 27  2  0
 27 28  1  0
 28 29  2  0
 29 30  1  0
 30 31  1  0
 31 32  2  0
 31 33  2  0
 31 34  1  0
 34 35  1  0
 35 36  1  0
 36 37  1  0
 37 38  1  0
 38 39  1  0
 30 40  2  0
 24  4  1  0
 40 26  1  0
 14 10  1  0
 23 19  1  0
 39 34  1  0
  3 41  1  0
  3 42  1  0
  5 43  1  0
 11 44  1  0
 11 45  1  0
 12 46  1  0
 12 47  1  0
 13 48  1  0
 13 49  1  0
 14 50  1  0
 14 51  1  0
 19 52  1  0
 20 53  1  0
 20 54  1  0
 21 55  1  0
 21 56  1  0
 22 57  1  0
 22 58  1  0
 23 59  1  0
 23 60  1  0
 24 61  1  0
 27 62  1  0
 28 63  1  0
 29 64  1  0
 35 65  1  0
 35 66  1  0
 36 67  1  0
 36 68  1  0
 38 69  1  0
 38 70  1  0
 39 71  1  0
 39 72  1  0
 40 73  1  0
M  CHG  2  19   1  25  -1
M  END
>  <UniqueID>  (2) 
2

>  <SMILES>  (2) 
O=C(Cn1cc(S(=O)(=O)N2CCCC2)c(S(=O)(=O)[NH+]2CCCC2)c1)[N-]c1cccc(S(=O)(=O)N2CCOCC2)c1

>  <Energy>  (2) 
113.24762256638705

>  <Genealogy>  (2) 
O=C(Cn1cc(S(=O)(=O)N2CCCC2)c(S(=O)(=O)[NH+]2CCCC2)c1)[N-]c1cccc(S(=O)(=O)N2CCOCC2)c1 (protonated)
O=C(Cn1cc(S(=O)(=O)N2CCCC2)c(S(=O)(=O)[NH+]2CCCC2)c1)[N-]c1cccc(S(=O)(=O)N2CCOCC2)c1 (3D coordinates assigned)
O=C(Cn1cc(S(=O)(=O)N2CCCC2)c(S(=O)(=O)[NH+]2CCCC2)c1)[N-]c1cccc(S(=O)(=O)N2CCOCC2)c1 (nonaromatic ring conformer: 113.24762256638705 kcal/mol)

>  <smiles>  (2) 
O=C(Cn1cc(S(=O)(=O)N2CCCC2)c(S(=O)(=O)N2CCCC2)c1)Nc1cccc(S(=O)(=O)N2CCOCC2)c1

>  <score_type>  (2) 
oracle

>  <origin>  (2) 
adg

>  <m_score__min__energy>  (2) 
-11.5

>  <m_primary>  (2) 
energy

$$$$
2:0
     RDKit          3D

 44 46  0  0  0  0  0  0  0  0999 V2000
   59.2620   29.2490   49.2830 C   0  0  0  0  0  0  0  0  0  0  0  0
   58.8980   30.6520   49.4670 N   0  0  0  0  0  0  0  0  0  0  0  0
   58.0920   31.1950   50.4030 C   0  0  0  0  0  0  0  0  0  0  0  0
   57.3910   30.4420   51.4960 C   0  0  0  0  0  0  0  0  0  0  0  0
   56.0430   30.9750   51.6810 N   0  0  0  0  0  0  0  0  0  0  0  0
   55.0570   30.2990   52.4810 C   0  0  0  0  0  0  0  0  0  0  0  0
   55.4130   29.3560   53.2390 O   0  0  0  0  0  0  0  0  0  0  0  0
   53.6300   30.6980   52.4370 C   0  0  0  0  0  0  0  0  0  0  0  0
   52.7110   30.2150   53.3870 C   0  0  0  0  0  0  0  0  0  0  0  0
   51.3710   30.6090   53.3400 C   0  0  0  0  0  0  0  0  0  0  0  0
   50.9350   31.4930   52.3520 C   0  0  0  0  0  0  0  0  0  0  0  0
   51.8380   31.9900   51.4100 C   0  0  0  0  0  0  0  0  0  0  0  0
   51.4040   32.8740   50.4290 O   0  0  0  0  0  0  0  0  0  0  0  0
   53.1810   31.5990   51.4540 C   0  0  0  0  0  0  0  0  0  0  0  0
   57.9320   32.5190   50.2060 N   0  0  0  0  0  0  0  0  0  0  0  0
   58.6240   32.8370   49.1220 N   0  0  0  0  0  0  0  0  0  0  0  0
   59.1960   31.7030   48.6760 C   0  0  0  0  0  0  0  0  0  0  0  0
   60.1790   31.6220   47.1760 S   0  0  0  0  0  0  0  0  0  0  0  0
   58.8030   32.0990   46.0690 C   0  0  0  0  0  0  0  0  0  0  0  0
   58.0430   30.8920   45.5890 C   0  0  0  0  0  0  0  0  0  0  0  0
   56.9320   31.0820   45.0210 O   0  0  0  0  0  0  0  0  0  0  0  0
   58.5610   29.5040   45.7390 C   0  0  0  0  0  0  0  0  0  0  0  0
   57.8190   28.5030   46.3990 C   0  0  0  0  0  0  0  0  0  0  0  0
   58.3300   27.2090   46.5290 C   0  0  0  0  0  0  0  0  0  0  0  0
   59.5860   26.8930   46.0060 C   0  0  0  0  0  0  0  0  0  0  0  0
   60.0790   25.6370   46.1350 F   0  0  0  0  0  0  0  0  0  0  0  0
   60.3330   27.8730   45.3500 C   0  0  0  0  0  0  0  0  0  0  0  0
   59.8270   29.1690   45.2160 C   0  0  0  0  0  0  0  0  0  0  0  0
   59.3861   28.7705   50.2657 H   0  0  0  0  0  0  0  0  0  0  0  0
   58.4676   28.7346   48.7224 H   0  0  0  0  0  0  0  0  0  0  0  0
   60.2063   29.1857   48.7224 H   0  0  0  0  0  0  0  0  0  0  0  0
   57.3284   29.3780   51.2239 H   0  0  0  0  0  0  0  0  0  0  0  0
   57.9564   30.5533   52.4330 H   0  0  0  0  0  0  0  0  0  0  0  0
   55.8140   31.8930   51.2410 H   0  0  0  0  0  0  0  0  0  0  0  0
   53.0497   29.5227   54.1719 H   0  0  0  0  0  0  0  0  0  0  0  0
   50.6585   30.2216   54.0832 H   0  0  0  0  0  0  0  0  0  0  0  0
   49.8789   31.7986   52.3153 H   0  0  0  0  0  0  0  0  0  0  0  0
   53.8907   31.9989   50.7148 H   0  0  0  0  0  0  0  0  0  0  0  0
   58.1157   32.7607   46.6165 H   0  0  0  0  0  0  0  0  0  0  0  0
   59.2248   32.6142   45.1934 H   0  0  0  0  0  0  0  0  0  0  0  0
   56.8294   28.7428   46.8151 H   0  0  0  0  0  0  0  0  0  0  0  0
   57.7410   26.4365   47.0450 H   0  0  0  0  0  0  0  0  0  0  0  0
   61.3221   27.6247   44.9376 H   0  0  0  0  0  0  0  0  0  0  0  0
   60.4222   29.9351   44.6975 H   0  0  0  0  0  0  0  0  0  0  0  0
  1  2  1  0
  2  3  1  0
  3  4  1  0
  4  5  1  0
  5  6  1  0
  6  7  2  0
  6  8  1  0
  8  9  2  0
  9 10  1  0
 10 11  2  0
 11 12  1  0
 12 13  1  0
 12 14  2  0
  3 15  2  0
 15 16  1  0
 16 17  2  0
 17 18  1  0
 18 19  1  0
 19 20  1  0
 20 21  2  0
 20 22  1  0
 22 23  2  0
 23 24  1  0
 24 25  2  0
 25 26  1  0
 25 27  1  0
 27 28  2  0
 17  2  1  0
 28 22  1  0
 14  8  1  0
  1 29  1  0
  1 30  1  0
  1 31  1  0
  4 32  1  0
  4 33  1  0
  5 34  1  0
  9 35  1  0
 10 36  1  0
 11 37  1  0
 14 38  1  0
 19 39  1  0
 19 40  1  0
 23 41  1  0
 24 42  1  0
 27 43  1  0
 28 44  1  0
M  CHG  1  13  -1
M  END
>  <UniqueID>  (3) 
3

>  <SMILES>  (3) 
Cn1c(CNC(=O)c2cccc([O-])c2)nnc1SCC(=O)c1ccc(F)cc1

>  <Energy>  (3) 
77.98751555855553

>  <Genealogy>  (3) 
Cn1c(CNC(=O)c2cccc([O-])c2)nnc1SCC(=O)c1ccc(F)cc1 (protonated)
Cn1c(CNC(=O)c2cccc([O-])c2)nnc1SCC(=O)c1ccc(F)cc1 (3D coordinates assigned)
Cn1c(CNC(=O)c2cccc([O-])c2)nnc1SCC(=O)c1ccc(F)cc1 (optimized conformer: 77.98751555855553 kcal/mol)

>  <smiles>  (3) 
Cn1c(CNC(=O)c2cccc(O)c2)nnc1SCC(=O)c1ccc(F)cc1

>  <score_type>  (3) 
oracle

>  <origin>  (3) 
adg

>  <m_score__min__energy>  (3) 
-12.630000000000001

>  <m_primary>  (3) 
energy

$$$$
3:0
     RDKit          3D

 39 40  0  0  0  0  0  0  0  0999 V2000
   56.2490   28.5930   44.9760 O   0  0  0  0  0  0  0  0  0  0  0  0
   57.3260   28.7290   44.3390 C   0  0  0  0  0  0  0  0  0  0  0  0
   58.2030   27.5220   44.1390 C   0  0  0  0  0  0  0  0  0  0  0  0
   58.5720   26.9690   45.4020 O   0  0  0  0  0  0  0  0  0  0  0  0
   57.6660   26.3190   46.2510 C   0  0  0  0  0  0  0  0  0  0  0  0
   57.6150   26.6330   47.4730 O   0  0  0  0  0  0  0  0  0  0  0  0
   56.7630   25.2620   45.7230 C   0  0  0  0  0  0  0  0  0  0  0  0
   57.3040   24.0270   45.3050 C   0  0  0  0  0  0  0  0  0  0  0  0
   56.4750   23.0190   44.8080 C   0  0  0  0  0  0  0  0  0  0  0  0
   55.0980   23.2230   44.7210 C   0  0  0  0  0  0  0  0  0  0  0  0
   54.5460   24.4430   45.1240 C   0  0  0  0  0  0  0  0  0  0  0  0
   55.3650   25.4640   45.6200 C   0  0  0  0  0  0  0  0  0  0  0  0
   54.7750   26.6680   45.9980 O   0  0  0  0  0  0  0  0  0  0  0  0
   57.7230   30.0080   43.8090 N   0  0  0  0  0  0  0  0  0  0  0  0
   57.0190   31.2420   44.0300 C   0  0  0  0  0  0  0  0  0  0  0  0
   55.8510   31.2420   44.5050 O   0  0  0  0  0  0  0  0  0  0  0  0
   57.6630   32.4740   43.7080 N   0  0  0  0  0  0  0  0  0  0  0  0
   57.4670   33.6930   44.4980 C   0  0  0  0  0  0  0  0  0  0  0  0
   58.3520   33.6490   45.7120 C   0  0  0  0  0  0  0  0  0  0  0  0
   59.5900   34.3100   45.7090 C   0  0  0  0  0  0  0  0  0  0  0  0
   60.4440   34.2160   46.8130 C   0  0  0  0  0  0  0  0  0  0  0  0
   60.0730   33.4500   47.9250 C   0  0  0  0  0  0  0  0  0  0  0  0
   58.8470   32.7770   47.9320 C   0  0  0  0  0  0  0  0  0  0  0  0
   57.9900   32.8690   46.8280 C   0  0  0  0  0  0  0  0  0  0  0  0
   57.6548   26.7664   43.5572 H   0  0  0  0  0  0  0  0  0  0  0  0
   59.1124   27.8234   43.5985 H   0  0  0  0  0  0  0  0  0  0  0  0
   58.3888   23.8570   45.3714 H   0  0  0  0  0  0  0  0  0  0  0  0
   56.9092   22.0616   44.4843 H   0  0  0  0  0  0  0  0  0  0  0  0
   54.4466   22.4247   44.3356 H   0  0  0  0  0  0  0  0  0  0  0  0
   53.4600   24.6015   45.0507 H   0  0  0  0  0  0  0  0  0  0  0  0
   58.6690   30.0680   43.3680 H   0  0  0  0  0  0  0  0  0  0  0  0
   58.3460   32.4940   42.9150 H   0  0  0  0  0  0  0  0  0  0  0  0
   57.7246   34.5712   43.8877 H   0  0  0  0  0  0  0  0  0  0  0  0
   56.4152   33.7618   44.8125 H   0  0  0  0  0  0  0  0  0  0  0  0
   59.8904   34.9051   44.8340 H   0  0  0  0  0  0  0  0  0  0  0  0
   61.4086   34.7447   46.8076 H   0  0  0  0  0  0  0  0  0  0  0  0
   60.7455   33.3776   48.7925 H   0  0  0  0  0  0  0  0  0  0  0  0
   58.5556   32.1749   48.8053 H   0  0  0  0  0  0  0  0  0  0  0  0
   57.0309   32.3304   46.8323 H   0  0  0  0  0  0  0  0  0  0  0  0
  1  2  2  0
  2  3  1  0
  3  4  1  0
  4  5  1  0
  5  6  2  0
  5  7  1  0
  7  8  2  0
  8  9  1  0
  9 10  2  0
 10 11  1  0
 11 12  2  0
 12 13  1  0
  2 14  1  0
 14 15  1  0
 15 16  2  0
 15 17  1  0
 17 18  1  0
 18 19  1  0
 19 20  2  0
 20 21  1  0
 21 22  2  0
 22 23  1  0
 23 24  2  0
 12  7  1  0
 24 19  1  0
  3 25  1  0
  3 26  1  0
  8 27  1  0
  9 28  1  0
 10 29  1  0
 11 30  1  0
 14 31  1  0
 17 32  1  0
 18 33  1  0
 18 34  1  0
 20 35  1  0
 21 36  1  0
 22 37  1  0
 23 38  1  0
 24 39  1  0
M  CHG  1  13  -1
M  END
>  <UniqueID>  (4) 
4

>  <SMILES>  (4) 
O=C(COC(=O)c1ccccc1[O-])NC(=O)NCc1ccccc1

>  <Energy>  (4) 
40.25400018006426

>  <Genealogy>  (4) 
O=C(COC(=O)c1ccccc1[O-])NC(=O)NCc1ccccc1 (protonated)
O=C(COC(=O)c1ccccc1[O-])NC(=O)NCc1ccccc1 (3D coordinates assigned)
O=C(COC(=O)c1ccccc1[O-])NC(=O)NCc1ccccc1 (optimized conformer: 40.25400018006426 kcal/mol)

>  <smiles>  (4) 
O=C(COC(=O)c1ccccc1O)NC(=O)NCc1ccccc1

>  <score_type>  (4) 
oracle

>  <origin>  (4) 
adg

>  <m_score__min__energy>  (4) 
-12.359999999999999

>  <m_primary>  (4) 
energy

$$$$
4:0
     RDKit          3D

 36 38  0  0  0  0  0  0  0  0999 V2000
   59.0935   34.6380   49.3827 H   0  0  0  0  0  0  0  0  0  0  0  0
   59.6220   34.4110   48.4450 C   0  0  0  0  0  0  0  0  0  0  0  0
   60.9650   34.0260   48.4760 C   0  0  0  0  0  0  0  0  0  0  0  0
   61.4939   33.9542   49.4378 H   0  0  0  0  0  0  0  0  0  0  0  0
   61.6370   33.7320   47.2860 C   0  0  0  0  0  0  0  0  0  0  0  0
   62.9380   33.3500   47.3190 F   0  0  0  0  0  0  0  0  0  0  0  0
   60.9670   33.8280   46.0620 C   0  0  0  0  0  0  0  0  0  0  0  0
   61.4960   33.5886   45.1277 H   0  0  0  0  0  0  0  0  0  0  0  0
   59.6210   34.2290   46.0210 C   0  0  0  0  0  0  0  0  0  0  0  0
   58.8880   34.2930   44.7090 C   0  0  0  0  0  0  0  0  0  0  0  0
   59.6013   34.5262   43.9047 H   0  0  0  0  0  0  0  0  0  0  0  0
   58.1177   35.0763   44.7647 H   0  0  0  0  0  0  0  0  0  0  0  0
   58.2320   32.9810   44.4230 C   0  0  0  0  0  0  0  0  0  0  0  0
   57.3820   32.0530   45.5430 S   0  0  0  0  0  0  0  0  0  0  0  0
   56.9440   30.9010   44.4000 C   0  0  0  0  0  0  0  0  0  0  0  0
   56.2460   29.8440   44.6980 N   0  0  0  0  0  0  0  0  0  0  0  0
   56.7110   28.5800   45.1980 C   0  0  0  0  0  0  0  0  0  0  0  0
   55.9020   27.7070   45.6090 O   0  0  0  0  0  0  0  0  0  0  0  0
   58.1130   28.3400   45.3490 N   0  0  0  0  0  0  0  0  0  0  0  0
   58.9800   28.9810   46.2960 C   0  0  0  0  0  0  0  0  0  0  0  0
   58.7810   28.7440   47.6630 C   0  0  0  0  0  0  0  0  0  0  0  0
   57.9580   28.0915   47.9899 H   0  0  0  0  0  0  0  0  0  0  0  0
   59.6210   29.3310   48.6140 C   0  0  0  0  0  0  0  0  0  0  0  0
   59.4491   29.1503   49.6854 H   0  0  0  0  0  0  0  0  0  0  0  0
   60.6800   30.1480   48.2040 C   0  0  0  0  0  0  0  0  0  0  0  0
   61.7410   30.8760   49.3960 Cl  0  0  0  0  0  0  0  0  0  0  0  0
   60.9030   30.3680   46.8400 C   0  0  0  0  0  0  0  0  0  0  0  0
   61.7414   31.0023   46.5164 H   0  0  0  0  0  0  0  0  0  0  0  0
   60.0620   29.7830   45.8870 C   0  0  0  0  0  0  0  0  0  0  0  0
   60.2468   29.9502   44.8156 H   0  0  0  0  0  0  0  0  0  0  0  0
   57.4330   31.2050   43.1720 N   0  0  0  0  0  0  0  0  0  0  0  0
   57.3260   30.6350   42.3080 H   0  0  0  0  0  0  0  0  0  0  0  0
   58.1400   32.3670   43.1770 C   0  0  0  0  0  0  0  0  0  0  0  0
   58.6012   32.7870   42.2710 H   0  0  0  0  0  0  0  0  0  0  0  0
   58.9490   34.5080   47.2220 C   0  0  0  0  0  0  0  0  0  0  0  0
   57.8897   34.8039   47.2013 H   0  0  0  0  0  0  0  0  0  0  0  0
  1  2  1  0
  2  3  2  0
  3  4  1  0
  3  5  1  0
  5  6  1  0
  5  7  2  0
  7  8  1  0
  7  9  1  0
  9 10  1  0
 10 11  1  0
 10 12  1  0
 10 13  1  0
 13 14  1  0
 14 15  1  0
 15 16  2  0
 16 17  1  0
 17 18  2  0
 17 19  1  0
 19 20  1  0
 20 21  2  0
 21 22  1  0
 21 23  1  0
 23 24  1  0
 23 25  2  0
 25 26  1  0
 25 27  1  0
 27 28  1  0
 27 29  2  0
 29 30  1  0
 15 31  1  0
 31 32  1  0
 31 33  1  0
 33 34  1  0
  9 35  2  0
 35 36  1  0
 35  2  1  0
 33 13  2  0
 29 20  1  0
M  CHG  1  19  -1
M  END
>  <UniqueID>  (5) 
5

>  <SMILES>  (5) 
O=C(/N=c1\[nH]cc(Cc2cccc(F)c2)s1)[N-]c1ccc(Cl)cc1

>  <Energy>  (5) 
74.59924882444967

>  <Genealogy>  (5) 
O=C(N=c1[nH]cc(Cc2cccc(F)c2)s1)[N-]c1ccc(Cl)cc1 (protonated)
O=C(/N=c1\[nH]cc(Cc2cccc(F)c2)s1)[N-]c1ccc(Cl)cc1 (cis-trans isomerization)
O=C(/N=c1\[nH]cc(Cc2cccc(F)c2)s1)[N-]c1ccc(Cl)cc1 (3D coordinates assigned)
O=C(/N=c1\[nH]cc(Cc2cccc(F)c2)s1)[N-]c1ccc(Cl)cc1 (optimized conformer: 74.59924882444967 kcal/mol)

>  <smiles>  (5) 
O=C(N=c1[nH]cc(Cc2cccc(F)c2)s1)Nc1ccc(Cl)cc1

>  <score_type>  (5) 
oracle

>  <origin>  (5) 
adg

>  <m_score__min__energy>  (5) 
-9.8399999999999999

>  <m_primary>  (5) 
energy

$$$$
5:0
     RDKit          3D

 46 49  0  0  0  0  0  0  0  0999 V2000
   63.5046   32.9493   46.1758 H   0  0  0  0  0  0  0  0  0  0  0  0
   62.8220   33.3020   46.9630 C   0  0  0  0  0  0  0  0  0  0  0  0
   61.5850   33.8510   46.6160 C   0  0  0  0  0  0  0  0  0  0  0  0
   61.2956   33.9201   45.5570 H   0  0  0  0  0  0  0  0  0  0  0  0
   60.7090   34.3150   47.6100 C   0  0  0  0  0  0  0  0  0  0  0  0
   59.3620   34.8660   47.2390 C   0  0  0  0  0  0  0  0  0  0  0  0
   58.7284   34.9141   48.1369 H   0  0  0  0  0  0  0  0  0  0  0  0
   59.4883   35.8738   46.8167 H   0  0  0  0  0  0  0  0  0  0  0  0
   58.7110   33.9850   46.2200 C   0  0  0  0  0  0  0  0  0  0  0  0
   57.7720   32.6300   46.5620 S   0  0  0  0  0  0  0  0  0  0  0  0
   57.3940   32.3650   44.9470 C   0  0  0  0  0  0  0  0  0  0  0  0
   56.6520   31.3690   44.5510 N   0  0  0  0  0  0  0  0  0  0  0  0
   56.7800   30.5700   43.3650 C   0  0  0  0  0  0  0  0  0  0  0  0
   56.6700   31.0720   42.2160 O   0  0  0  0  0  0  0  0  0  0  0  0
   56.9430   29.0900   43.5060 C   0  0  0  0  0  0  0  0  0  0  0  0
   56.0168   28.6585   43.9133 H   0  0  0  0  0  0  0  0  0  0  0  0
   57.1544   28.6539   42.5185 H   0  0  0  0  0  0  0  0  0  0  0  0
   58.0540   28.7940   44.4100 N   0  0  0  0  0  0  0  0  0  0  0  0
   59.2080   29.4970   44.5080 C   0  0  0  0  0  0  0  0  0  0  0  0
   59.4727   30.3572   43.8756 H   0  0  0  0  0  0  0  0  0  0  0  0
   60.0110   28.9810   45.5180 C   0  0  0  0  0  0  0  0  0  0  0  0
   61.0063   29.3345   45.8253 H   0  0  0  0  0  0  0  0  0  0  0  0
   59.2940   27.9310   46.0530 C   0  0  0  0  0  0  0  0  0  0  0  0
   59.6030   27.0690   47.1030 C   0  0  0  0  0  0  0  0  0  0  0  0
   60.5567   27.1522   47.6448 H   0  0  0  0  0  0  0  0  0  0  0  0
   58.6550   26.0890   47.4470 C   0  0  0  0  0  0  0  0  0  0  0  0
   58.8671   25.3884   48.2681 H   0  0  0  0  0  0  0  0  0  0  0  0
   57.4330   25.9980   46.7460 C   0  0  0  0  0  0  0  0  0  0  0  0
   56.6984   25.2288   47.0267 H   0  0  0  0  0  0  0  0  0  0  0  0
   57.1480   26.8840   45.6910 C   0  0  0  0  0  0  0  0  0  0  0  0
   56.1982   26.8230   45.1395 H   0  0  0  0  0  0  0  0  0  0  0  0
   58.1100   27.8440   45.3660 C   0  0  0  0  0  0  0  0  0  0  0  0
   57.9700   33.2930   44.1400 N   0  0  0  0  0  0  0  0  0  0  0  0
   57.9100   33.3310   43.1020 H   0  0  0  0  0  0  0  0  0  0  0  0
   58.6940   34.2020   44.8460 C   0  0  0  0  0  0  0  0  0  0  0  0
   59.2231   35.0405   44.3696 H   0  0  0  0  0  0  0  0  0  0  0  0
   61.0800   34.1990   48.9590 C   0  0  0  0  0  0  0  0  0  0  0  0
   60.3932   34.5418   49.7469 H   0  0  0  0  0  0  0  0  0  0  0  0
   62.3180   33.6500   49.3060 C   0  0  0  0  0  0  0  0  0  0  0  0
   62.6024   33.5725   50.3658 H   0  0  0  0  0  0  0  0  0  0  0  0
   63.1990   33.1980   48.3160 C   0  0  0  0  0  0  0  0  0  0  0  0
   64.4280   32.6540   48.7150 O   0  0  0  0  0  0  0  0  0  0  0  0
   65.1310   33.0350   49.8930 C   0  0  0  0  0  0  0  0  0  0  0  0
   64.5576   32.7243   50.7788 H   0  0  0  0  0  0  0  0  0  0  0  0
   66.1172   32.5479   49.9052 H   0  0  0  0  0  0  0  0  0  0  0  0
   65.2613   34.1272   49.9052 H   0  0  0  0  0  0  0  0  0  0  0  0
  1  2  1  0
  2  3  2  0
  3  4  1  0
  3  5  1  0
  5  6  1  0
  6  7  1  0
  6  8  1  0
  6  9  1  0
  9 10  1  0
 10 11  1  0
 11 12  2  0
 12 13  1  0
 13 14  2  0
 13 15  1  0
 15 16  1  0
 15 17  1  0
 15 18  1  0
 18 19  1  0
 19 20  1  0
 19 21  2  0
 21 22  1  0
 21 23  1  0
 23 24  2  0
 24 25  1  0
 24 26  1  0
 26 27  1  0
 26 28  2  0
 28 29  1  0
 28 30  1  0
 30 31  1  0
 30 32  2  0
 11 33  1  0
 33 34  1  0
 33 35  1  0
 35 36  1  0
  5 37  2  0
 37 38  1  0
 37 39  1  0
 39 40  1  0
 39 41  2  0
 41 42  1  0
 42 43  1  0
 43 44  1  0
 43 45  1  0
 43 46  1  0
 41  2  1  0
 35  9  2  0
 32 18  1  0
 32 23  1  0
M  END
>  <UniqueID>  (6) 
6

>  <SMILES>  (6) 
COc1ccc(Cc2c[nH]/c(=N\C(=O)Cn3ccc4ccccc43)s2)cc1

>  <Energy>  (6) 
113.63787682531152

>  <Genealogy>  (6) 
COc1ccc(Cc2c[nH]/c(=N\C(=O)Cn3ccc4ccccc43)s2)cc1 (cis-trans isomerization)
COc1ccc(Cc2c[nH]/c(=N\C(=O)Cn3ccc4ccccc43)s2)cc1 (3D coordinates assigned)
COc1ccc(Cc2c[nH]/c(=N\C(=O)Cn3ccc4ccccc43)s2)cc1 (optimized conformer: 113.63787682531152 kcal/mol)

>  <smiles>  (6) 
COc1ccc(Cc2c[nH]c(=NC(=O)Cn3ccc4ccccc43)s2)cc1

>  <score_type>  (6) 
oracle

>  <origin>  (6) 
adg

>  <m_score__min__energy>  (6) 
-8.8000000000000007

>  <m_primary>  (6) 
energy

$$$$
6:0
     RDKit          3D

 33 34  0  0  0  0  0  0  0  0999 V2000
   55.6760   26.2930   45.9880 N   0  0  0  0  0  0  0  0  0  0  0  0
   57.3390   25.8300   46.0700 S   0  0  0  0  0  0  0  0  0  0  0  0
   57.5360   24.8690   47.2080 O   0  0  0  0  0  0  0  0  0  0  0  0
   57.7320   25.1460   44.7910 O   0  0  0  0  0  0  0  0  0  0  0  0
   58.3390   27.2590   46.3150 C   0  0  0  0  0  0  0  0  0  0  0  0
   59.1390   27.7450   45.2730 C   0  0  0  0  0  0  0  0  0  0  0  0
   59.9420   28.8730   45.4700 C   0  0  0  0  0  0  0  0  0  0  0  0
   59.9650   29.5170   46.7180 C   0  0  0  0  0  0  0  0  0  0  0  0
   60.8030   30.7510   46.9190 C   0  0  0  0  0  0  0  0  0  0  0  0
   60.0850   31.9840   46.3640 C   0  0  0  0  0  0  0  0  0  0  0  0
   58.6360   31.8190   46.4610 N   0  0  0  0  0  0  0  0  0  0  0  0
   57.8480   31.2500   45.4040 C   0  0  0  0  0  0  0  0  0  0  0  0
   57.9150   31.7830   44.1120 C   0  0  0  0  0  0  0  0  0  0  0  0
   57.1330   31.2070   43.1100 C   0  0  0  0  0  0  0  0  0  0  0  0
   57.1710   31.6620   41.9370 O   0  0  0  0  0  0  0  0  0  0  0  0
   56.3290   30.1520   43.4010 N   0  0  0  0  0  0  0  0  0  0  0  0
   56.2720   29.6450   44.6590 C   0  0  0  0  0  0  0  0  0  0  0  0
   55.5210   28.6680   44.9100 O   0  0  0  0  0  0  0  0  0  0  0  0
   57.0250   30.1930   45.6480 N   0  0  0  0  0  0  0  0  0  0  0  0
   59.1570   29.0310   47.7580 C   0  0  0  0  0  0  0  0  0  0  0  0
   58.3540   27.9040   47.5590 C   0  0  0  0  0  0  0  0  0  0  0  0
   55.4670   26.5030   44.9870 H   0  0  0  0  0  0  0  0  0  0  0  0
   55.5830   27.1930   46.5100 H   0  0  0  0  0  0  0  0  0  0  0  0
   59.1357   27.2380   44.2968 H   0  0  0  0  0  0  0  0  0  0  0  0
   60.5583   29.2575   44.6439 H   0  0  0  0  0  0  0  0  0  0  0  0
   60.9865   30.8926   47.9943 H   0  0  0  0  0  0  0  0  0  0  0  0
   61.7561   30.6242   46.3847 H   0  0  0  0  0  0  0  0  0  0  0  0
   60.3880   32.8699   46.9414 H   0  0  0  0  0  0  0  0  0  0  0  0
   60.3589   32.1092   45.3060 H   0  0  0  0  0  0  0  0  0  0  0  0
   58.1690   32.0830   47.3580 H   0  0  0  0  0  0  0  0  0  0  0  0
   58.5704   32.6382   43.8908 H   0  0  0  0  0  0  0  0  0  0  0  0
   59.1557   29.5391   48.7336 H   0  0  0  0  0  0  0  0  0  0  0  0
   57.7318   27.5222   48.3818 H   0  0  0  0  0  0  0  0  0  0  0  0
  1  2  1  0
  2  3  2  0
  2  4  2  0
  2  5  1  0
  5  6  2  0
  6  7  1  0
  7  8  2  0
  8  9  1  0
  9 10  1  0
 10 11  1  0
 11 12  1  0
 12 13  2  0
 13 14  1  0
 14 15  2  0
 14 16  1  0
 16 17  1  0
 17 18  2  0
 17 19  1  0
  8 20  1  0
 20 21  2  0
 21  5  1  0
 19 12  1  0
  1 22  1  0
  1 23  1  0
  6 24  1  0
  7 25  1  0
  9 26  1  0
  9 27  1  0
 10 28  1  0
 10 29  1  0
 11 30  1  0
 13 31  1  0
 20 32  1  0
 21 33  1  0
M  CHG  2  16  -1  19  -1
M  END
>  <UniqueID>  (7) 
7

>  <SMILES>  (7) 
NS(=O)(=O)c1ccc(CCNc2cc(=O)[n-]c(=O)[n-]2)cc1

>  <Energy>  (7) 
28.380296800131838

>  <Genealogy>  (7) 
NS(=O)(=O)c1ccc(CCNc2cc(=O)[n-]c(=O)[n-]2)cc1 (protonated)
NS(=O)(=O)c1ccc(CCNc2cc(=O)[n-]c(=O)[n-]2)cc1 (3D coordinates assigned)
NS(=O)(=O)c1ccc(CCNc2cc(=O)[n-]c(=O)[n-]2)cc1 (optimized conformer: 28.380296800131838 kcal/mol)

>  <smiles>  (7) 
NS(=O)(=O)c1ccc(CCNc2cc(=O)[nH]c(=O)[nH]2)cc1

>  <score_type>  (7) 
oracle

>  <origin>  (7) 
adg

>  <m_score__min__energy>  (7) 
-11.23

>  <m_primary>  (7) 
energy

$$$$
7:0
     RDKit          3D

 47 49  0  0  0  0  0  0  0  0999 V2000
   60.2845   35.4653   48.0812 H   0  0  0  0  0  0  0  0  0  0  0  0
   59.6830   34.8850   47.3660 C   0  0  0  0  0  0  0  0  0  0  0  0
   59.6590   35.2490   46.0170 C   0  0  0  0  0  0  0  0  0  0  0  0
   60.2440   36.1138   45.6707 H   0  0  0  0  0  0  0  0  0  0  0  0
   58.8920   34.5150   45.1070 C   0  0  0  0  0  0  0  0  0  0  0  0
   58.8772   34.8030   44.0455 H   0  0  0  0  0  0  0  0  0  0  0  0
   58.1400   33.4110   45.5430 C   0  0  0  0  0  0  0  0  0  0  0  0
   57.3340   32.5990   44.5620 C   0  0  0  0  0  0  0  0  0  0  0  0
   56.4866   33.2059   44.2103 H   0  0  0  0  0  0  0  0  0  0  0  0
   56.9867   31.6911   45.0769 H   0  0  0  0  0  0  0  0  0  0  0  0
   58.1700   32.1660   43.3500 C   0  0  0  0  0  0  0  0  0  0  0  0
   58.8759   31.3829   43.6639 H   0  0  0  0  0  0  0  0  0  0  0  0
   58.7070   33.0469   42.9685 H   0  0  0  0  0  0  0  0  0  0  0  0
   57.3010   31.6270   42.2450 C   0  0  0  0  0  0  0  0  0  0  0  0
   57.2330   32.2500   41.1530 O   0  0  0  0  0  0  0  0  0  0  0  0
   56.4340   30.5060   42.4610 N   0  0  0  0  0  0  0  0  0  0  0  0
   56.4930   29.6930   43.4760 C   0  0  0  0  0  0  0  0  0  0  0  0
   57.5280   28.8360   43.8020 C   0  0  0  0  0  0  0  0  0  0  0  0
   58.4933   28.7095   43.2900 H   0  0  0  0  0  0  0  0  0  0  0  0
   57.0610   28.1740   44.9270 C   0  0  0  0  0  0  0  0  0  0  0  0
   57.8160   27.1610   45.6930 C   0  0  0  0  0  0  0  0  0  0  0  0
   59.0540   27.0550   45.4920 O   0  0  0  0  0  0  0  0  0  0  0  0
   57.2120   26.3000   46.6660 N   0  0  0  0  0  0  0  0  0  0  0  0
   55.9110   25.1880   46.3870 S   0  0  0  0  0  0  0  0  0  0  0  0
   55.5880   24.4460   47.6550 O   0  0  0  0  0  0  0  0  0  0  0  0
   54.6900   25.9260   45.9150 O   0  0  0  0  0  0  0  0  0  0  0  0
   56.4040   24.0480   45.1390 C   0  0  0  0  0  0  0  0  0  0  0  0
   55.5330   23.7240   44.0890 C   0  0  0  0  0  0  0  0  0  0  0  0
   54.5419   24.1978   44.0322 H   0  0  0  0  0  0  0  0  0  0  0  0
   55.9210   22.8010   43.1150 C   0  0  0  0  0  0  0  0  0  0  0  0
   55.2334   22.5475   42.2947 H   0  0  0  0  0  0  0  0  0  0  0  0
   57.1800   22.1990   43.1800 C   0  0  0  0  0  0  0  0  0  0  0  0
   57.4787   21.4682   42.4140 H   0  0  0  0  0  0  0  0  0  0  0  0
   58.0650   22.5240   44.2200 C   0  0  0  0  0  0  0  0  0  0  0  0
   59.3980   21.8430   44.3170 C   0  0  0  0  0  0  0  0  0  0  0  0
   59.6641   21.7070   45.3756 H   0  0  0  0  0  0  0  0  0  0  0  0
   59.3451   20.8615   43.8233 H   0  0  0  0  0  0  0  0  0  0  0  0
   60.1623   22.4611   43.8233 H   0  0  0  0  0  0  0  0  0  0  0  0
   57.6630   23.4380   45.2080 C   0  0  0  0  0  0  0  0  0  0  0  0
   58.3410   23.6761   46.0409 H   0  0  0  0  0  0  0  0  0  0  0  0
   55.8270   28.6240   45.2420 N   0  0  0  0  0  0  0  0  0  0  0  0
   55.4860   29.5380   44.3500 N   0  0  0  0  0  0  0  0  0  0  0  0
   54.5740   30.0470   44.3470 H   0  0  0  0  0  0  0  0  0  0  0  0
   58.1760   33.0470   46.9000 C   0  0  0  0  0  0  0  0  0  0  0  0
   57.5983   32.1788   47.2501 H   0  0  0  0  0  0  0  0  0  0  0  0
   58.9440   33.7850   47.8070 C   0  0  0  0  0  0  0  0  0  0  0  0
   58.9659   33.4986   48.8688 H   0  0  0  0  0  0  0  0  0  0  0  0
  1  2  1  0
  2  3  2  0
  3  4  1  0
  3  5  1  0
  5  6  1  0
  5  7  2  0
  7  8  1  0
  8  9  1  0
  8 10  1  0
  8 11  1  0
 11 12  1  0
 11 13  1  0
 11 14  1  0
 14 15  2  0
 14 16  1  0
 16 17  2  0
 17 18  1  0
 18 19  1  0
 18 20  2  0
 20 21  1  0
 21 22  2  0
 21 23  1  0
 23 24  1  0
 24 25  2  0
 24 26  2  0
 24 27  1  0
 27 28  2  0
 28 29  1  0
 28 30  1  0
 30 31  1  0
 30 32  2  0
 32 33  1  0
 32 34  1  0
 34 35  1  0
 35 36  1  0
 35 37  1  0
 35 38  1  0
 34 39  2  0
 39 40  1  0
 20 41  1  0
 41 42  1  0
 42 43  1  0
  7 44  1  0
 44 45  1  0
 44 46  2  0
 46 47  1  0
 46  2  1  0
 42 17  1  0
 39 27  1  0
M  CHG  2  23  -1  41  -1
M  END
>  <UniqueID>  (8) 
8

>  <SMILES>  (8) 
Cc1cccc(S(=O)(=O)[N-]C(=O)c2c/c(=N\C(=O)CCc3ccccc3)[nH][n-]2)c1

>  <Energy>  (8) 
89.23181945398137

>  <Genealogy>  (8) 
Cc1cccc(S(=O)(=O)[N-]C(=O)c2cc(=NC(=O)CCc3ccccc3)[nH][n-]2)c1 (protonated)
Cc1cccc(S(=O)(=O)[N-]C(=O)c2c/c(=N\C(=O)CCc3ccccc3)[nH][n-]2)c1 (cis-trans isomerization)
Cc1cccc(S(=O)(=O)[N-]C(=O)c2c/c(=N\C(=O)CCc3ccccc3)[nH][n-]2)c1 (3D coordinates assigned)
Cc1cccc(S(=O)(=O)[N-]C(=O)c2c/c(=N\C(=O)CCc3ccccc3)[nH][n-]2)c1 (optimized conformer: 89.23181945398137 kcal/mol)

>  <smiles>  (8) 
Cc1cccc(S(=O)(=O)NC(=O)c2cc(=NC(=O)CCc3ccccc3)[nH][nH]2)c1

>  <score_type>  (8) 
oracle

>  <origin>  (8) 
adg

>  <m_score__min__energy>  (8) 
-14.210000000000001

>  <m_primary>  (8) 
energy

$$$$
8:0
     RDKit          3D

 49 52  0  0  0  0  0  0  0  0999 V2000
   56.6800   30.3470   42.8340 C   0  0  0  0  0  0  0  0  0  0  0  0
   57.4490   31.5450   42.8440 O   0  0  0  0  0  0  0  0  0  0  0  0
   57.8040   32.2480   44.0050 C   0  0  0  0  0  0  0  0  0  0  0  0
   58.5080   33.4660   43.9660 C   0  0  0  0  0  0  0  0  0  0  0  0
   58.8350   34.1290   45.1530 C   0  0  0  0  0  0  0  0  0  0  0  0
   58.4680   33.5940   46.3930 C   0  0  0  0  0  0  0  0  0  0  0  0
   58.8120   34.3080   47.5520 O   0  0  0  0  0  0  0  0  0  0  0  0
   60.0790   34.2530   48.2080 C   0  0  0  0  0  0  0  0  0  0  0  0
   60.9560   33.2130   47.5850 C   0  0  0  0  0  0  0  0  0  0  0  0
   61.6950   33.5240   46.6110 O   0  0  0  0  0  0  0  0  0  0  0  0
   61.0120   31.8990   48.1540 N   0  0  0  0  0  0  0  0  0  0  0  0
   60.3550   30.7300   47.6430 C   0  0  0  0  0  0  0  0  0  0  0  0
   59.5570   29.9760   48.5090 C   0  0  0  0  0  0  0  0  0  0  0  0
   58.8780   28.8450   48.0450 C   0  0  0  0  0  0  0  0  0  0  0  0
   58.9760   28.4590   46.6970 C   0  0  0  0  0  0  0  0  0  0  0  0
   58.2570   27.2630   46.2040 C   0  0  0  0  0  0  0  0  0  0  0  0
   56.9140   27.0960   46.3460 N   0  0  0  0  0  0  0  0  0  0  0  0
   56.7040   25.9040   45.7700 C   0  0  0  0  0  0  0  0  0  0  0  0
   55.4980   25.2250   45.6360 C   0  0  0  0  0  0  0  0  0  0  0  0
   55.5200   23.9710   44.9980 C   0  0  0  0  0  0  0  0  0  0  0  0
   56.7380   23.4270   44.5000 C   0  0  0  0  0  0  0  0  0  0  0  0
   56.7340   22.1010   43.8370 C   0  0  0  0  0  0  0  0  0  0  0  0
   57.6780   21.0860   44.1880 N   0  0  0  0  0  0  0  0  0  0  0  0
   55.8910   21.8600   42.9310 O   0  0  0  0  0  0  0  0  0  0  0  0
   57.9410   24.1560   44.6700 C   0  0  0  0  0  0  0  0  0  0  0  0
   57.8740   25.3910   45.3080 C   0  0  0  0  0  0  0  0  0  0  0  0
   58.8840   26.2340   45.5710 N   0  0  0  0  0  0  0  0  0  0  0  0
   59.7590   29.2330   45.8230 C   0  0  0  0  0  0  0  0  0  0  0  0
   60.4370   30.3620   46.2890 C   0  0  0  0  0  0  0  0  0  0  0  0
   57.7700   32.3720   46.4320 C   0  0  0  0  0  0  0  0  0  0  0  0
   57.4410   31.7100   45.2460 C   0  0  0  0  0  0  0  0  0  0  0  0
   56.4780   30.0323   43.8685 H   0  0  0  0  0  0  0  0  0  0  0  0
   55.7281   30.5267   42.3129 H   0  0  0  0  0  0  0  0  0  0  0  0
   57.2397   29.5563   42.3129 H   0  0  0  0  0  0  0  0  0  0  0  0
   58.8021   33.8981   42.9981 H   0  0  0  0  0  0  0  0  0  0  0  0
   59.3860   35.0802   45.1117 H   0  0  0  0  0  0  0  0  0  0  0  0
   60.5698   35.2341   48.1270 H   0  0  0  0  0  0  0  0  0  0  0  0
   59.9178   33.9912   49.2642 H   0  0  0  0  0  0  0  0  0  0  0  0
   59.4626   30.2748   49.5634 H   0  0  0  0  0  0  0  0  0  0  0  0
   58.2632   28.2536   48.7394 H   0  0  0  0  0  0  0  0  0  0  0  0
   54.5588   25.6535   46.0158 H   0  0  0  0  0  0  0  0  0  0  0  0
   54.5846   23.4039   44.8825 H   0  0  0  0  0  0  0  0  0  0  0  0
   57.6160   20.1410   43.7470 H   0  0  0  0  0  0  0  0  0  0  0  0
   58.4900   21.2820   44.8130 H   0  0  0  0  0  0  0  0  0  0  0  0
   58.9002   23.7573   44.3081 H   0  0  0  0  0  0  0  0  0  0  0  0
   59.8385   28.9474   44.7637 H   0  0  0  0  0  0  0  0  0  0  0  0
   61.0379   30.9658   45.5930 H   0  0  0  0  0  0  0  0  0  0  0  0
   57.4823   31.9364   47.4002 H   0  0  0  0  0  0  0  0  0  0  0  0
   56.8920   30.7577   45.2876 H   0  0  0  0  0  0  0  0  0  0  0  0
  1  2  1  0
  2  3  1  0
  3  4  2  0
  4  5  1  0
  5  6  2  0
  6  7  1  0
  7  8  1  0
  8  9  1  0
  9 10  2  0
  9 11  1  0
 11 12  1  0
 12 13  2  0
 13 14  1  0
 14 15  2  0
 15 16  1  0
 16 17  2  0
 17 18  1  0
 18 19  2  0
 19 20  1  0
 20 21  2  0
 21 22  1  0
 22 23  1  0
 22 24  2  0
 21 25  1  0
 25 26  2  0
 26 27  1  0
 15 28  1  0
 28 29  2  0
  6 30  1  0
 30 31  2  0
 31  3  1  0
 29 12  1  0
 27 16  1  0
 26 18  1  0
  1 32  1  0
  1 33  1  0
  1 34  1  0
  4 35  1  0
  5 36  1  0
  8 37  1  0
  8 38  1  0
 13 39  1  0
 14 40  1  0
 19 41  1  0
 20 42  1  0
 23 43  1  0
 23 44  1  0
 25 45  1  0
 28 46  1  0
 29 47  1  0
 30 48  1  0
 31 49  1  0
M  CHG  2  11  -1  27  -1
M  END
>  <UniqueID>  (9) 
9

>  <SMILES>  (9) 
COc1ccc(OCC(=O)[N-]c2ccc(-c3nc4ccc(C(N)=O)cc4[n-]3)cc2)cc1

>  <Energy>  (9) 
91.68646891910934

>  <Genealogy>  (9) 
COc1ccc(OCC(=O)[N-]c2ccc(-c3nc4ccc(C(N)=O)cc4[n-]3)cc2)cc1 (protonated)
COc1ccc(OCC(=O)[N-]c2ccc(-c3nc4ccc(C(N)=O)cc4[n-]3)cc2)cc1 (3D coordinates assigned)
COc1ccc(OCC(=O)[N-]c2ccc(-c3nc4ccc(C(N)=O)cc4[n-]3)cc2)cc1 (optimized conformer: 91.68646891910934 kcal/mol)

>  <smiles>  (9) 
COc1ccc(OCC(=O)Nc2ccc(-c3nc4ccc(C(N)=O)cc4[nH]3)cc2)cc1

>  <score_type>  (9) 
oracle

>  <origin>  (9) 
adg

>  <m_score__min__energy>  (9) 
-10.92

>  <m_primary>  (9) 
energy

$$$$
9:0
     RDKit          3D

 52 55  0  0  0  0  0  0  0  0999 V2000
   60.3730   29.2160   48.4870 C   0  0  0  0  0  0  0  0  0  0  0  0
   60.0300   30.2380   47.5730 N   0  0  0  0  0  0  0  0  0  0  0  0
   60.3840   29.7240   46.2350 C   0  0  0  0  0  0  0  0  0  0  0  0
   58.7120   30.7330   47.5170 C   0  0  0  0  0  0  0  0  0  0  0  0
   58.4470   31.9230   46.7140 C   0  0  0  0  0  0  0  0  0  0  0  0
   58.0490   31.7090   45.3840 C   0  0  0  0  0  0  0  0  0  0  0  0
   57.8210   32.7450   44.5080 C   0  0  0  0  0  0  0  0  0  0  0  0
   57.9780   34.0450   44.9210 C   0  0  0  0  0  0  0  0  0  0  0  0
   58.3740   34.2730   46.2450 C   0  0  0  0  0  0  0  0  0  0  0  0
   58.6010   33.2280   47.1190 C   0  0  0  0  0  0  0  0  0  0  0  0
   58.9580   33.5470   48.5100 C   0  0  0  0  0  0  0  0  0  0  0  0
   60.2220   32.9000   48.9690 C   0  0  0  0  0  0  0  0  0  0  0  0
   61.4030   33.0180   48.2470 C   0  0  0  0  0  0  0  0  0  0  0  0
   61.4520   33.7440   47.0620 C   0  0  0  0  0  0  0  0  0  0  0  0
   62.6330   33.8420   46.3610 C   0  0  0  0  0  0  0  0  0  0  0  0
   63.7850   33.2320   46.8120 C   0  0  0  0  0  0  0  0  0  0  0  0
   63.7440   32.5150   47.9810 C   0  0  0  0  0  0  0  0  0  0  0  0
   62.5580   32.3990   48.7110 C   0  0  0  0  0  0  0  0  0  0  0  0
   62.5140   31.6690   49.8910 C   0  0  0  0  0  0  0  0  0  0  0  0
   63.5610   31.0930   50.3350 O   0  0  0  0  0  0  0  0  0  0  0  0
   61.3330   31.6000   50.5320 N   0  0  0  0  0  0  0  0  0  0  0  0
   60.2280   32.1760   50.1150 N   0  0  0  0  0  0  0  0  0  0  0  0
   59.0340   32.0370   50.8610 C   0  0  0  0  0  0  0  0  0  0  0  0
   58.2570   30.8800   50.8400 C   0  0  0  0  0  0  0  0  0  0  0  0
   57.0900   30.7970   51.5980 C   0  0  0  0  0  0  0  0  0  0  0  0
   56.7140   31.8680   52.3670 C   0  0  0  0  0  0  0  0  0  0  0  0
   57.4710   33.0350   52.4050 C   0  0  0  0  0  0  0  0  0  0  0  0
   58.6210   33.0970   51.6490 C   0  0  0  0  0  0  0  0  0  0  0  0
   60.2486   29.5867   49.5152 H   0  0  0  0  0  0  0  0  0  0  0  0
   59.7172   28.3472   48.3286 H   0  0  0  0  0  0  0  0  0  0  0  0
   61.4202   28.9187   48.3286 H   0  0  0  0  0  0  0  0  0  0  0  0
   61.0050   28.8223   46.3411 H   0  0  0  0  0  0  0  0  0  0  0  0
   59.4657   29.4739   45.6835 H   0  0  0  0  0  0  0  0  0  0  0  0
   60.9451   30.4928   45.6835 H   0  0  0  0  0  0  0  0  0  0  0  0
   58.0789   29.9259   47.1197 H   0  0  0  0  0  0  0  0  0  0  0  0
   58.5009   31.0523   48.5482 H   0  0  0  0  0  0  0  0  0  0  0  0
   57.9148   30.6761   45.0302 H   0  0  0  0  0  0  0  0  0  0  0  0
   57.5121   32.5313   43.4741 H   0  0  0  0  0  0  0  0  0  0  0  0
   57.7980   34.8833   44.2319 H   0  0  0  0  0  0  0  0  0  0  0  0
   58.5071   35.3068   46.5963 H   0  0  0  0  0  0  0  0  0  0  0  0
   59.0746   34.6373   48.5972 H   0  0  0  0  0  0  0  0  0  0  0  0
   58.1490   33.1589   49.1463 H   0  0  0  0  0  0  0  0  0  0  0  0
   60.5461   34.2406   46.6842 H   0  0  0  0  0  0  0  0  0  0  0  0
   62.6583   34.4175   45.4239 H   0  0  0  0  0  0  0  0  0  0  0  0
   64.7224   33.3191   46.2430 H   0  0  0  0  0  0  0  0  0  0  0  0
   64.6574   32.0246   48.3488 H   0  0  0  0  0  0  0  0  0  0  0  0
   61.3000   31.0370   51.4340 H   0  0  0  0  0  0  0  0  0  0  0  0
   58.5671   30.0256   50.2204 H   0  0  0  0  0  0  0  0  0  0  0  0
   56.4781   29.8831   51.5794 H   0  0  0  0  0  0  0  0  0  0  0  0
   55.7942   31.8034   52.9668 H   0  0  0  0  0  0  0  0  0  0  0  0
   57.1583   33.8885   53.0245 H   0  0  0  0  0  0  0  0  0  0  0  0
   59.2276   34.0143   51.6724 H   0  0  0  0  0  0  0  0  0  0  0  0
  1  2  1  0
  2  3  1  0
  2  4  1  0
  4  5  1  0
  5  6  2  0
  6  7  1  0
  7  8  2  0
  8  9  1  0
  9 10  2  0
 10 11  1  0
 11 12  1  0
 12 13  1  0
 13 14  2  0
 14 15  1  0
 15 16  2  0
 16 17  1  0
 17 18  2  0
 18 19  1  0
 19 20  2  0
 19 21  1  0
 21 22  1  0
 22 23  1  0
 23 24  2  0
 24 25  1  0
 25 26  2  0
 26 27  1  0
 27 28  2  0
 10  5  1  0
 22 12  2  0
 28 23  1  0
 18 13  1  0
  1 29  1  0
  1 30  1  0
  1 31  1  0
  3 32  1  0
  3 33  1  0
  3 34  1  0
  4 35  1  0
  4 36  1  0
  6 37  1  0
  7 38  1  0
  8 39  1  0
  9 40  1  0
 11 41  1  0
 11 42  1  0
 14 43  1  0
 15 44  1  0
 16 45  1  0
 17 46  1  0
 21 47  1  0
 24 48  1  0
 25 49  1  0
 26 50  1  0
 27 51  1  0
 28 52  1  0
M  CHG  1  22   1
M  END
>  <smiles>  (10) 
CN(C)Cc1ccccc1Cc1c2ccccc2c(=O)[nH][n+]1-c1ccccc1

>  <score_type>  (10) 
oracle

>  <origin>  (10) 
adg

>  <m_score__min__energy>  (10) 
-7.2400000000000002

>  <m_primary>  (10) 
energy

$$$$
10:0
     RDKit          3D

 35 36  0  0  0  0  0  0  0  0999 V2000
   60.0160   27.4640   44.9740 O   0  0  0  0  0  0  0  0  0  0  0  0
   58.8630   27.9300   44.7620 C   0  0  0  0  0  0  0  0  0  0  0  0
   58.7220   29.3650   44.3510 C   0  0  0  0  0  0  0  0  0  0  0  0
   57.4410   29.5880   43.7670 O   0  0  0  0  0  0  0  0  0  0  0  0
   56.3440   30.0790   44.4820 C   0  0  0  0  0  0  0  0  0  0  0  0
   55.4110   29.3070   44.8340 O   0  0  0  0  0  0  0  0  0  0  0  0
   56.2730   31.4810   44.7610 N   0  0  0  0  0  0  0  0  0  0  0  0
   57.3600   32.3280   45.1640 C   0  0  0  0  0  0  0  0  0  0  0  0
   58.1230   31.9580   46.2800 C   0  0  0  0  0  0  0  0  0  0  0  0
   59.1790   32.7660   46.7160 C   0  0  0  0  0  0  0  0  0  0  0  0
   59.4690   33.9580   46.0460 C   0  0  0  0  0  0  0  0  0  0  0  0
   58.6990   34.3480   44.9490 C   0  0  0  0  0  0  0  0  0  0  0  0
   57.6420   33.5430   44.5100 C   0  0  0  0  0  0  0  0  0  0  0  0
   57.6980   27.1080   44.9340 N   0  0  0  0  0  0  0  0  0  0  0  0
   57.7340   25.7740   45.4670 C   0  0  0  0  0  0  0  0  0  0  0  0
   58.7710   25.3560   46.0540 O   0  0  0  0  0  0  0  0  0  0  0  0
   56.5460   24.8930   45.3870 C   0  0  0  0  0  0  0  0  0  0  0  0
   56.7080   23.5500   44.9990 C   0  0  0  0  0  0  0  0  0  0  0  0
   55.6060   22.6950   44.9230 C   0  0  0  0  0  0  0  0  0  0  0  0
   54.3290   23.1710   45.2260 C   0  0  0  0  0  0  0  0  0  0  0  0
   54.1510   24.5050   45.5950 C   0  0  0  0  0  0  0  0  0  0  0  0
   55.2480   25.3710   45.6670 C   0  0  0  0  0  0  0  0  0  0  0  0
   55.0300   26.7070   45.9900 O   0  0  0  0  0  0  0  0  0  0  0  0
   58.8346   30.0088   45.2358 H   0  0  0  0  0  0  0  0  0  0  0  0
   59.4996   29.6035   43.6105 H   0  0  0  0  0  0  0  0  0  0  0  0
   57.8902   31.0264   46.8166 H   0  0  0  0  0  0  0  0  0  0  0  0
   59.7807   32.4632   47.5857 H   0  0  0  0  0  0  0  0  0  0  0  0
   60.3044   34.5890   46.3834 H   0  0  0  0  0  0  0  0  0  0  0  0
   58.9237   35.2905   44.4283 H   0  0  0  0  0  0  0  0  0  0  0  0
   57.0302   33.8597   43.6525 H   0  0  0  0  0  0  0  0  0  0  0  0
   56.7670   27.5220   44.7000 H   0  0  0  0  0  0  0  0  0  0  0  0
   57.7108   23.1704   44.7535 H   0  0  0  0  0  0  0  0  0  0  0  0
   55.7445   21.6455   44.6241 H   0  0  0  0  0  0  0  0  0  0  0  0
   53.4632   22.4945   45.1739 H   0  0  0  0  0  0  0  0  0  0  0  0
   53.1432   24.8778   45.8305 H   0  0  0  0  0  0  0  0  0  0  0  0
  1  2  2  0
  2  3  1  0
  3  4  1  0
  4  5  1  0
  5  6  2  0
  5  7  1  0
  7  8  1  0
  8  9  2  0
  9 10  1  0
 10 11  2  0
 11 12  1  0
 12 13  2  0
  2 14  1  0
 14 15  1  0
 15 16  2  0
 15 17  1  0
 17 18  2  0
 18 19  1  0
 19 20  2  0
 20 21  1  0
 21 22  2  0
 22 23  1  0
 13  8  1  0
 22 17  1  0
  3 24  1  0
  3 25  1  0
  9 26  1  0
 10 27  1  0
 11 28  1  0
 12 29  1  0
 13 30  1  0
 14 31  1  0
 18 32  1  0
 19 33  1  0
 20 34  1  0
 21 35  1  0
M  CHG  2   7  -1  23  -1
M  END
>  <UniqueID>  (11) 
10

>  <SMILES>  (11) 
O=C(COC(=O)[N-]c1ccccc1)NC(=O)c1ccccc1[O-]

>  <Energy>  (11) 
41.1881677999708

>  <Genealogy>  (11) 
O=C(COC(=O)[N-]c1ccccc1)NC(=O)c1ccccc1[O-] (protonated)
O=C(COC(=O)[N-]c1ccccc1)NC(=O)c1ccccc1[O-] (3D coordinates assigned)
O=C(COC(=O)[N-]c1ccccc1)NC(=O)c1ccccc1[O-] (optimized conformer: 41.1881677999708 kcal/mol)

>  <smiles>  (11) 
O=C(COC(=O)Nc1ccccc1)NC(=O)c1ccccc1O

>  <score_type>  (11) 
oracle

>  <origin>  (11) 
adg

>  <m_score__min__energy>  (11) 
-12.84

>  <m_primary>  (11) 
energy

$$$$
11:0
     RDKit          3D

 43 45  0  0  0  0  0  0  0  0999 V2000
   59.1970   29.8640   47.1990 C   0  0  0  0  0  0  0  0  0  0  0  0
   58.1860   30.8570   47.0580 O   0  0  0  0  0  0  0  0  0  0  0  0
   58.3840   32.1160   46.4670 C   0  0  0  0  0  0  0  0  0  0  0  0
   59.3460   33.0250   46.9510 C   0  0  0  0  0  0  0  0  0  0  0  0
   59.5120   34.2680   46.3360 C   0  0  0  0  0  0  0  0  0  0  0  0
   58.7260   34.6160   45.2370 C   0  0  0  0  0  0  0  0  0  0  0  0
   57.7700   33.7230   44.7490 C   0  0  0  0  0  0  0  0  0  0  0  0
   57.5900   32.4670   45.3630 C   0  0  0  0  0  0  0  0  0  0  0  0
   56.6360   31.5390   44.9080 O   0  0  0  0  0  0  0  0  0  0  0  0
   56.8160   30.6350   43.8180 C   0  0  0  0  0  0  0  0  0  0  0  0
   57.0330   29.2430   44.3200 C   0  0  0  0  0  0  0  0  0  0  0  0
   58.1660   28.4820   44.1190 C   0  0  0  0  0  0  0  0  0  0  0  0
   57.9330   27.2880   44.7690 C   0  0  0  0  0  0  0  0  0  0  0  0
   56.6650   27.3950   45.3150 C   0  0  0  0  0  0  0  0  0  0  0  0
   55.9670   26.3950   46.1400 C   0  0  0  0  0  0  0  0  0  0  0  0
   56.5700   25.9170   47.1350 O   0  0  0  0  0  0  0  0  0  0  0  0
   54.6190   25.9720   45.8890 N   0  0  0  0  0  0  0  0  0  0  0  0
   54.1670   24.6090   45.6220 C   0  0  0  0  0  0  0  0  0  0  0  0
   55.2720   23.7670   45.0380 C   0  0  0  0  0  0  0  0  0  0  0  0
   55.4440   23.6700   43.6460 C   0  0  0  0  0  0  0  0  0  0  0  0
   56.4980   22.9180   43.1160 C   0  0  0  0  0  0  0  0  0  0  0  0
   57.3980   22.2740   43.9700 C   0  0  0  0  0  0  0  0  0  0  0  0
   57.2520   22.3890   45.3550 C   0  0  0  0  0  0  0  0  0  0  0  0
   58.1330   21.7740   46.1820 F   0  0  0  0  0  0  0  0  0  0  0  0
   56.1990   23.1400   45.8880 C   0  0  0  0  0  0  0  0  0  0  0  0
   56.1600   28.5750   45.0360 O   0  0  0  0  0  0  0  0  0  0  0  0
   59.3840   29.6803   48.2673 H   0  0  0  0  0  0  0  0  0  0  0  0
   58.8646   28.9316   46.7193 H   0  0  0  0  0  0  0  0  0  0  0  0
   60.1233   30.2131   46.7193 H   0  0  0  0  0  0  0  0  0  0  0  0
   59.9686   32.7545   47.8166 H   0  0  0  0  0  0  0  0  0  0  0  0
   60.2638   34.9739   46.7188 H   0  0  0  0  0  0  0  0  0  0  0  0
   58.8597   35.5953   44.7543 H   0  0  0  0  0  0  0  0  0  0  0  0
   57.1542   34.0010   43.8810 H   0  0  0  0  0  0  0  0  0  0  0  0
   55.9197   30.6540   43.1806 H   0  0  0  0  0  0  0  0  0  0  0  0
   57.6994   30.9460   43.2410 H   0  0  0  0  0  0  0  0  0  0  0  0
   59.0675   28.7679   43.5573 H   0  0  0  0  0  0  0  0  0  0  0  0
   58.6145   26.4274   44.8392 H   0  0  0  0  0  0  0  0  0  0  0  0
   53.8296   24.1529   46.5644 H   0  0  0  0  0  0  0  0  0  0  0  0
   53.3443   24.6539   44.8932 H   0  0  0  0  0  0  0  0  0  0  0  0
   54.7468   24.1876   42.9707 H   0  0  0  0  0  0  0  0  0  0  0  0
   56.6186   22.8334   42.0259 H   0  0  0  0  0  0  0  0  0  0  0  0
   58.2214   21.6765   43.5517 H   0  0  0  0  0  0  0  0  0  0  0  0
   56.0960   23.2403   46.9786 H   0  0  0  0  0  0  0  0  0  0  0  0
  1  2  1  0
  2  3  1  0
  3  4  2  0
  4  5  1  0
  5  6  2  0
  6  7  1  0
  7  8  2  0
  8  9  1  0
  9 10  1  0
 10 11  1  0
 11 12  2  0
 12 13  1  0
 13 14  2  0
 14 15  1  0
 15 16  2  0
 15 17  1  0
 17 18  1  0
 18 19  1  0
 19 20  2  0
 20 21  1  0
 21 22  2  0
 22 23  1  0
 23 24  1  0
 23 25  2  0
 14 26  1  0
  8  3  1  0
 26 11  1  0
 25 19  1  0
  1 27  1  0
  1 28  1  0
  1 29  1  0
  4 30  1  0
  5 31  1  0
  6 32  1  0
  7 33  1  0
 10 34  1  0
 10 35  1  0
 12 36  1  0
 13 37  1  0
 18 38  1  0
 18 39  1  0
 20 40  1  0
 21 41  1  0
 22 42  1  0
 25 43  1  0
M  CHG  1  17  -1
M  END
>  <UniqueID>  (12) 
11

>  <SMILES>  (12) 
COc1ccccc1OCc1ccc(C(=O)[N-]Cc2cccc(F)c2)o1

>  <Energy>  (12) 
73.66046576556947

>  <Genealogy>  (12) 
COc1ccccc1OCc1ccc(C(=O)[N-]Cc2cccc(F)c2)o1 (protonated)
COc1ccccc1OCc1ccc(C(=O)[N-]Cc2cccc(F)c2)o1 (3D coordinates assigned)
COc1ccccc1OCc1ccc(C(=O)[N-]Cc2cccc(F)c2)o1 (optimized conformer: 73.66046576556947 kcal/mol)

>  <smiles>  (12) 
COc1ccccc1OCc1ccc(C(=O)NCc2cccc(F)c2)o1

>  <score_type>  (12) 
oracle

>  <origin>  (12) 
adg

>  <m_score__min__energy>  (12) 
-10.279999999999999

>  <m_primary>  (12) 
energy

$$$$
12:0
     RDKit          3D

 48 51  0  0  1  0  0  0  0  0999 V2000
   58.9950   34.9510   44.8800 C   0  0  0  0  0  0  0  0  0  0  0  0
   58.8400   33.5760   45.2950 N   0  0  0  0  0  0  0  0  0  0  0  0
   58.1660   32.6270   44.4790 C   0  0  0  0  0  0  0  0  0  0  0  0
   58.1050   32.7610   43.1100 C   0  0  0  0  0  0  0  0  0  0  0  0
   57.4530   31.8440   42.3030 C   0  0  0  0  0  0  0  0  0  0  0  0
   56.8320   30.7440   42.8730 C   0  0  0  0  0  0  0  0  0  0  0  0
   56.8890   30.6000   44.2520 C   0  0  0  0  0  0  0  0  0  0  0  0
   56.2690   29.4920   44.8710 N   0  0  0  0  0  0  0  0  0  0  0  0
   57.0200   28.6470   45.4920 C   0  0  0  0  0  0  0  0  0  0  0  0
   56.9850   27.3220   45.2580 N   0  0  0  0  0  0  0  0  0  0  0  0
   57.8050   26.4960   45.9500 C   0  0  0  0  0  0  0  0  0  0  0  0
   58.6910   26.9820   46.9060 C   0  0  0  0  0  0  0  0  0  0  0  0
   58.7080   28.3460   47.1270 C   0  0  0  0  0  0  0  0  0  0  0  0
   59.4740   28.9020   47.9730 N   0  0  0  0  0  0  0  0  0  0  0  0
   59.2470   30.2610   48.3210 C   0  0  0  0  0  0  0  0  0  0  0  0
   58.8240   30.5870   49.5190 N   0  0  0  0  0  0  0  0  0  0  0  0
   58.6780   32.0310   49.6010 C   0  0  0  0  0  0  0  0  0  0  0  0
   59.5970   32.4600   48.4900 C   0  0  2  0  0  0  0  0  0  0  0  0
   61.0620   32.3570   48.9060 C   0  0  0  0  0  0  0  0  0  0  0  0
   61.8520   32.4860   47.6150 C   0  0  0  0  0  0  0  0  0  0  0  0
   61.4950   33.8430   47.0280 C   0  0  0  0  0  0  0  0  0  0  0  0
   60.4060   34.5210   47.8200 C   0  0  0  0  0  0  0  0  0  0  0  0
   59.2920   33.7120   47.9910 O   0  0  0  0  0  0  0  0  0  0  0  0
   59.4030   31.4100   47.5580 O   0  0  0  0  0  0  0  0  0  0  0  0
   57.8730   29.1480   46.4150 N   0  0  0  0  0  0  0  0  0  0  0  0
   57.5530   31.5390   45.0440 C   0  0  0  0  0  0  0  0  0  0  0  0
   59.0677   35.5961   45.7680 H   0  0  0  0  0  0  0  0  0  0  0  0
   59.9101   35.0514   44.2780 H   0  0  0  0  0  0  0  0  0  0  0  0
   58.1252   35.2526   44.2780 H   0  0  0  0  0  0  0  0  0  0  0  0
   59.2300   33.2960   46.2030 H   0  0  0  0  0  0  0  0  0  0  0  0
   58.5920   33.6282   42.6402 H   0  0  0  0  0  0  0  0  0  0  0  0
   57.4280   31.9882   41.2128 H   0  0  0  0  0  0  0  0  0  0  0  0
   56.3080   30.0049   42.2491 H   0  0  0  0  0  0  0  0  0  0  0  0
   56.3200   26.9620   44.5420 H   0  0  0  0  0  0  0  0  0  0  0  0
   57.7697   25.4147   45.7514 H   0  0  0  0  0  0  0  0  0  0  0  0
   59.3537   26.3054   47.4655 H   0  0  0  0  0  0  0  0  0  0  0  0
   57.6406   32.3460   49.4150 H   0  0  0  0  0  0  0  0  0  0  0  0
   58.9146   32.4616   50.5852 H   0  0  0  0  0  0  0  0  0  0  0  0
   61.3237   33.1683   49.6012 H   0  0  0  0  0  0  0  0  0  0  0  0
   61.2763   31.4121   49.4267 H   0  0  0  0  0  0  0  0  0  0  0  0
   62.9310   32.4329   47.8221 H   0  0  0  0  0  0  0  0  0  0  0  0
   61.6095   31.6723   46.9157 H   0  0  0  0  0  0  0  0  0  0  0  0
   62.3908   34.4813   47.0338 H   0  0  0  0  0  0  0  0  0  0  0  0
   61.1292   33.6887   46.0021 H   0  0  0  0  0  0  0  0  0  0  0  0
   60.8037   34.7878   48.8103 H   0  0  0  0  0  0  0  0  0  0  0  0
   60.0892   35.4121   47.2583 H   0  0  0  0  0  0  0  0  0  0  0  0
   57.8900   30.1950   46.5880 H   0  0  0  0  0  0  0  0  0  0  0  0
   57.5845   31.4038   46.1352 H   0  0  0  0  0  0  0  0  0  0  0  0
  1  2  1  0
  2  3  1  0
  3  4  2  0
  4  5  1  0
  5  6  2  0
  6  7  1  0
  7  8  1  0
  8  9  2  0
  9 10  1  0
 10 11  1  0
 11 12  2  0
 12 13  1  0
 13 14  2  0
 14 15  1  0
 15 16  2  0
 16 17  1  0
 17 18  1  0
 18 19  1  0
 19 20  1  0
 20 21  1  0
 21 22  1  0
 22 23  1  0
 18 24  1  6
 13 25  1  0
  7 26  2  0
 26  3  1  0
 25  9  1  0
 24 15  1  0
 23 18  1  0
  1 27  1  0
  1 28  1  0
  1 29  1  0
  2 30  1  0
  4 31  1  0
  5 32  1  0
  6 33  1  0
 10 34  1  0
 11 35  1  0
 12 36  1  0
 17 37  1  0
 17 38  1  0
 19 39  1  0
 19 40  1  0
 20 41  1  0
 20 42  1  0
 21 43  1  0
 21 44  1  0
 22 45  1  0
 22 46  1  0
 25 47  1  0
 26 48  1  0
M  END
>  <smiles>  (13) 
CNc1cccc(N=c2[nH]ccc(=NC3=NCC4(CCCCO4)O3)[nH]2)c1

>  <score_type>  (13) 
oracle

>  <origin>  (13) 
adg

>  <m_score__min__energy>  (13) 
-9.1300000000000008

>  <m_primary>  (13) 
energy

$$$$
13:0
     RDKit          3D

 80 82  0  0  1  0  0  0  0  0999 V2000
   57.6610   33.1620   46.9090 C   0  0  0  0  0  0  0  0  0  0  0  0
   58.6030   33.7380   45.9190 C   0  0  0  0  0  0  0  0  0  0  0  0
   58.6620   33.5040   44.5080 C   0  0  0  0  0  0  0  0  0  0  0  0
   59.4940   34.5820   46.4200 C   0  0  0  0  0  0  0  0  0  0  0  0
   58.4280   28.5650   45.8230 C   0  0  0  0  0  0  0  0  0  0  0  0
   58.2930   27.2030   45.8380 C   0  0  0  0  0  0  0  0  0  0  0  0
   56.9790   26.5630   45.5800 C   0  0  0  0  0  0  0  0  0  0  0  0
   59.4460   26.3110   46.0910 C   0  0  0  0  0  0  0  0  0  0  0  0
   60.3490   26.8040   47.1720 C   0  0  0  0  0  0  0  0  0  0  0  0
   60.2810   28.2810   47.3680 C   0  0  0  0  0  0  0  0  0  0  0  0
   59.7890   29.0060   46.0990 C   0  0  0  0  0  0  0  0  0  0  0  0
   59.9850   30.4780   46.2880 C   0  0  0  0  0  0  0  0  0  0  0  0
   60.7490   28.6050   44.9720 C   0  0  0  0  0  0  0  0  0  0  0  0
   57.7790   32.9090   43.7400 C   0  0  0  0  0  0  0  0  0  0  0  0
   57.9630   31.6350   43.1170 C   0  0  0  0  0  0  0  0  0  0  0  0
   57.0340   30.4350   44.9670 C   0  0  0  0  0  0  0  0  0  0  0  0
   57.1930   30.6300   43.4960 C   0  0  0  0  0  0  0  0  0  0  0  0
   56.4900   29.6890   42.6340 C   0  0  0  0  0  0  0  0  0  0  0  0
   57.2190   29.2820   45.5420 C   0  0  0  0  0  0  0  0  0  0  0  0
   60.1270   34.5680   47.7040 C   0  0  0  0  0  0  0  0  0  0  0  0
   59.6360   34.7540   48.8340 O   0  0  0  0  0  0  0  0  0  0  0  0
   61.5110   34.3080   47.7220 O   0  0  0  0  0  0  0  0  0  0  0  0
   62.1460   33.5030   46.7440 C   0  0  0  0  0  0  0  0  0  0  0  0
   63.4900   32.9950   47.1320 C   0  0  0  0  0  0  0  0  0  0  0  0
   63.4990   32.6290   48.9000 S   0  0  0  0  0  0  0  0  0  0  0  0
   62.0030   31.8030   49.3810 C   0  0  0  0  0  0  0  0  0  0  0  0
   62.0920   30.4660   49.6110 N   0  0  0  0  0  0  0  0  0  0  0  0
   61.0090   29.7680   49.9950 C   0  0  0  0  0  0  0  0  0  0  0  0
   61.1520   28.5420   50.1910 O   0  0  0  0  0  0  0  0  0  0  0  0
   59.7790   30.3510   50.1740 C   0  0  0  0  0  0  0  0  0  0  0  0
   58.5630   29.6120   50.6010 C   0  0  0  0  0  0  0  0  0  0  0  0
   58.0780   30.1020   51.9160 C   0  0  0  0  0  0  0  0  0  0  0  0
   58.8680   30.2300   53.0270 C   0  0  0  0  0  0  0  0  0  0  0  0
   58.3950   30.6980   54.2460 C   0  0  0  0  0  0  0  0  0  0  0  0
   57.0610   31.0610   54.3700 C   0  0  0  0  0  0  0  0  0  0  0  0
   56.2630   30.9350   53.2570 C   0  0  0  0  0  0  0  0  0  0  0  0
   56.7490   30.4650   52.0410 C   0  0  0  0  0  0  0  0  0  0  0  0
   59.7080   31.7210   49.9330 C   0  0  0  0  0  0  0  0  0  0  0  0
   58.4970   32.3870   50.0920 O   0  0  0  0  0  0  0  0  0  0  0  0
   60.8180   32.3900   49.5470 N   0  0  0  0  0  0  0  0  0  0  0  0
   58.0188   33.3808   47.9259 H   0  0  0  0  0  0  0  0  0  0  0  0
   56.6642   33.6052   46.7677 H   0  0  0  0  0  0  0  0  0  0  0  0
   57.6013   32.0727   46.7677 H   0  0  0  0  0  0  0  0  0  0  0  0
   59.5662   33.8711   44.0004 H   0  0  0  0  0  0  0  0  0  0  0  0
   59.7881   35.4086   45.7565 H   0  0  0  0  0  0  0  0  0  0  0  0
   56.4923   26.3259   46.5376 H   0  0  0  0  0  0  0  0  0  0  0  0
   56.3421   27.2518   45.0056 H   0  0  0  0  0  0  0  0  0  0  0  0
   57.1287   25.6369   45.0056 H   0  0  0  0  0  0  0  0  0  0  0  0
   60.0291   26.2226   45.1625 H   0  0  0  0  0  0  0  0  0  0  0  0
   59.0419   25.3426   46.4211 H   0  0  0  0  0  0  0  0  0  0  0  0
   61.3834   26.5331   46.9138 H   0  0  0  0  0  0  0  0  0  0  0  0
   60.0204   26.3347   48.1110 H   0  0  0  0  0  0  0  0  0  0  0  0
   61.2842   28.6526   47.6238 H   0  0  0  0  0  0  0  0  0  0  0  0
   59.5648   28.4855   48.1775 H   0  0  0  0  0  0  0  0  0  0  0  0
   60.0157   30.7088   47.3631 H   0  0  0  0  0  0  0  0  0  0  0  0
   60.9319   30.7849   45.8199 H   0  0  0  0  0  0  0  0  0  0  0  0
   59.1514   31.0220   45.8199 H   0  0  0  0  0  0  0  0  0  0  0  0
   61.6816   28.2154   45.4061 H   0  0  0  0  0  0  0  0  0  0  0  0
   60.2807   27.8272   44.3508 H   0  0  0  0  0  0  0  0  0  0  0  0
   60.9731   29.4847   44.3508 H   0  0  0  0  0  0  0  0  0  0  0  0
   56.8263   33.4294   43.5624 H   0  0  0  0  0  0  0  0  0  0  0  0
   58.7285   31.4947   42.3396 H   0  0  0  0  0  0  0  0  0  0  0  0
   56.7500   31.2973   45.5881 H   0  0  0  0  0  0  0  0  0  0  0  0
   55.9459   28.9606   43.2532 H   0  0  0  0  0  0  0  0  0  0  0  0
   55.7772   30.2355   41.9990 H   0  0  0  0  0  0  0  0  0  0  0  0
   57.2162   29.1604   41.9990 H   0  0  0  0  0  0  0  0  0  0  0  0
   56.2976   28.7753   45.8649 H   0  0  0  0  0  0  0  0  0  0  0  0
   61.4986   32.6374   46.5400 H   0  0  0  0  0  0  0  0  0  0  0  0
   62.2995   34.1462   45.8649 H   0  0  0  0  0  0  0  0  0  0  0  0
   63.7147   32.0792   46.5656 H   0  0  0  0  0  0  0  0  0  0  0  0
   64.2515   33.7567   46.9085 H   0  0  0  0  0  0  0  0  0  0  0  0
   57.7724   29.7553   49.8497 H   0  0  0  0  0  0  0  0  0  0  0  0
   58.8156   28.5456   50.6954 H   0  0  0  0  0  0  0  0  0  0  0  0
   59.9286   29.9485   52.9503 H   0  0  0  0  0  0  0  0  0  0  0  0
   59.0734   30.7805   55.1080 H   0  0  0  0  0  0  0  0  0  0  0  0
   56.6574   31.4353   55.3224 H   0  0  0  0  0  0  0  0  0  0  0  0
   55.2021   31.2160   53.3309 H   0  0  0  0  0  0  0  0  0  0  0  0
   56.0743   30.3818   51.1762 H   0  0  0  0  0  0  0  0  0  0  0  0
   58.3860   33.3820   49.9560 H   0  0  0  0  0  0  0  0  0  0  0  0
   60.7070   33.3970   49.3690 H   0  0  0  0  0  0  0  0  0  0  0  0
  1  2  1  0
  2  3  1  0
  3  4  2  0
  4  5  1  0
  5  6  2  0
  6  7  1  0
  6  8  1  0
  8  9  1  0
  9 10  1  0
 10 11  1  0
 11 12  1  0
 11 13  1  0
  2 14  2  0
 14 15  1  0
 15 16  2  0
 16 17  1  0
 17 18  1  0
 17 19  2  0
 19 20  1  0
 20 21  2  0
 20 22  1  0
 22 23  1  0
 23 24  1  0
 24 25  1  0
 25 26  1  0
 26 27  2  0
 27 28  1  0
 28 29  2  0
 28 30  1  0
 30 31  1  0
 31 32  1  0
 32 33  2  0
 33 34  1  0
 34 35  2  0
 35 36  1  0
 36 37  2  0
 30 38  2  0
 38 39  1  0
 38 40  1  0
 11  5  1  0
 40 26  1  0
 37 32  1  0
  1 41  1  0
  1 42  1  0
  1 43  1  0
  3 44  1  0
  4 45  1  0
  7 46  1  0
  7 47  1  0
  7 48  1  0
  8 49  1  0
  8 50  1  0
  9 51  1  0
  9 52  1  0
 10 53  1  0
 10 54  1  0
 12 55  1  0
 12 56  1  0
 12 57  1  0
 13 58  1  0
 13 59  1  0
 13 60  1  0
 14 61  1  0
 15 62  1  0
 16 63  1  0
 18 64  1  0
 18 65  1  0
 18 66  1  0
 19 67  1  0
 23 68  1  0
 23 69  1  0
 24 70  1  0
 24 71  1  0
 31 72  1  0
 31 73  1  0
 33 74  1  0
 34 75  1  0
 35 76  1  0
 36 77  1  0
 37 78  1  0
 39 79  1  0
 40 80  1  0
M  END
>  <smiles>  (14) 
CC(C=CC1=C(C)CCCC1(C)C)=CC=CC(C)=CC(=O)OCCSc1nc(=O)c(Cc2ccccc2)c(O)[nH]1

>  <score_type>  (14) 
oracle

>  <origin>  (14) 
adg

>  <m_score__min__energy>  (14) 
-13.15

>  <m_primary>  (14) 
energy

$$$$
14:0
     RDKit          3D

 32 33  0  0  0  0  0  0  0  0999 V2000
   55.1630   29.3130   44.8740 N   0  0  0  0  0  0  0  0  0  0  0  0
   56.8220   29.5870   44.4790 S   0  0  0  0  0  0  0  0  0  0  0  0
   57.0230   29.3510   43.0080 O   0  0  0  0  0  0  0  0  0  0  0  0
   57.1860   31.0120   44.7890 O   0  0  0  0  0  0  0  0  0  0  0  0
   57.8450   28.4920   45.4190 C   0  0  0  0  0  0  0  0  0  0  0  0
   57.6400   27.1070   45.3180 C   0  0  0  0  0  0  0  0  0  0  0  0
   58.4430   26.2170   46.0340 C   0  0  0  0  0  0  0  0  0  0  0  0
   59.4550   26.7000   46.8640 C   0  0  0  0  0  0  0  0  0  0  0  0
   59.6660   28.0750   46.9790 C   0  0  0  0  0  0  0  0  0  0  0  0
   58.8740   28.9850   46.2560 C   0  0  0  0  0  0  0  0  0  0  0  0
   59.0760   30.4000   46.4190 N   0  0  0  0  0  0  0  0  0  0  0  0
   60.3400   30.9820   46.7730 C   0  0  0  0  0  0  0  0  0  0  0  0
   61.3910   30.2850   46.7620 O   0  0  0  0  0  0  0  0  0  0  0  0
   60.4150   32.4270   47.1580 C   0  0  0  0  0  0  0  0  0  0  0  0
   59.3320   33.1800   46.5080 N   0  0  0  0  0  0  0  0  0  0  0  0
   59.6150   33.9590   45.4200 C   0  0  0  0  0  0  0  0  0  0  0  0
   58.6020   34.6590   44.7680 C   0  0  0  0  0  0  0  0  0  0  0  0
   57.3000   34.5420   45.2430 C   0  0  0  0  0  0  0  0  0  0  0  0
   56.3600   35.1610   44.6790 O   0  0  0  0  0  0  0  0  0  0  0  0
   57.0420   33.7530   46.3160 N   0  0  0  0  0  0  0  0  0  0  0  0
   58.0360   33.0740   46.9470 C   0  0  0  0  0  0  0  0  0  0  0  0
   57.7480   32.3450   47.9350 O   0  0  0  0  0  0  0  0  0  0  0  0
   55.1470   28.6190   45.6550 H   0  0  0  0  0  0  0  0  0  0  0  0
   56.8403   26.7197   44.6696 H   0  0  0  0  0  0  0  0  0  0  0  0
   58.2774   25.1333   45.9435 H   0  0  0  0  0  0  0  0  0  0  0  0
   60.0865   25.9975   47.4276 H   0  0  0  0  0  0  0  0  0  0  0  0
   60.4596   28.4506   47.6417 H   0  0  0  0  0  0  0  0  0  0  0  0
   58.2730   31.0430   46.2450 H   0  0  0  0  0  0  0  0  0  0  0  0
   60.3171   32.5182   48.2498 H   0  0  0  0  0  0  0  0  0  0  0  0
   61.3831   32.8362   46.8336 H   0  0  0  0  0  0  0  0  0  0  0  0
   60.6506   34.0335   45.0568 H   0  0  0  0  0  0  0  0  0  0  0  0
   58.8272   35.2908   43.8961 H   0  0  0  0  0  0  0  0  0  0  0  0
  1  2  1  0
  2  3  2  0
  2  4  2  0
  2  5  1  0
  5  6  2  0
  6  7  1  0
  7  8  2  0
  8  9  1  0
  9 10  2  0
 10 11  1  0
 11 12  1  0
 12 13  2  0
 12 14  1  0
 14 15  1  0
 15 16  1  0
 16 17  2  0
 17 18  1  0
 18 19  2  0
 18 20  1  0
 20 21  1  0
 21 22  2  0
 10  5  1  0
 21 15  1  0
  1 23  1  0
  6 24  1  0
  7 25  1  0
  8 26  1  0
  9 27  1  0
 11 28  1  0
 14 29  1  0
 14 30  1  0
 16 31  1  0
 17 32  1  0
M  CHG  2   1  -1  20  -1
M  END
>  <UniqueID>  (15) 
12

>  <SMILES>  (15) 
[NH-]S(=O)(=O)c1ccccc1NC(=O)Cn1ccc(=O)[n-]c1=O

>  <Energy>  (15) 
38.21143504074845

>  <Genealogy>  (15) 
[NH-]S(=O)(=O)c1ccccc1NC(=O)Cn1ccc(=O)[n-]c1=O (protonated)
[NH-]S(=O)(=O)c1ccccc1NC(=O)Cn1ccc(=O)[n-]c1=O (3D coordinates assigned)
[NH-]S(=O)(=O)c1ccccc1NC(=O)Cn1ccc(=O)[n-]c1=O (optimized conformer: 38.21143504074845 kcal/mol)

>  <smiles>  (15) 
NS(=O)(=O)c1ccccc1NC(=O)Cn1ccc(=O)[nH]c1=O

>  <score_type>  (15) 
oracle

>  <origin>  (15) 
adg

>  <m_score__min__energy>  (15) 
-11.5

>  <m_primary>  (15) 
energy

$$$$
15:0
     RDKit          3D

 58 61  0  0  0  0  0  0  0  0999 V2000
   59.2300   35.7720   49.4060 H   0  0  0  0  0  0  0  0  0  0  0  0
   59.3420   34.7850   49.2240 O   0  0  0  0  0  0  0  0  0  0  0  0
   60.5010   34.2210   48.6850 C   0  0  0  0  0  0  0  0  0  0  0  0
   60.7390   34.2040   47.2860 C   0  0  0  0  0  0  0  0  0  0  0  0
   59.7750   34.8220   46.2980 C   0  0  0  0  0  0  0  0  0  0  0  0
   60.3481   35.3416   45.5159 H   0  0  0  0  0  0  0  0  0  0  0  0
   59.1275   35.5266   46.8404 H   0  0  0  0  0  0  0  0  0  0  0  0
   58.9020   33.7750   45.6530 C   0  0  0  0  0  0  0  0  0  0  0  0
   58.1940   32.8480   46.4340 C   0  0  0  0  0  0  0  0  0  0  0  0
   58.2657   32.8872   47.5310 H   0  0  0  0  0  0  0  0  0  0  0  0
   57.4200   31.9020   45.8390 N   0  0  0  0  0  0  0  0  0  0  0  0
   57.3110   31.8010   44.4850 C   0  0  0  0  0  0  0  0  0  0  0  0
   56.5470   30.9040   43.9320 N   0  0  0  0  0  0  0  0  0  0  0  0
   56.2840   29.5780   44.4190 C   0  0  0  0  0  0  0  0  0  0  0  0
   55.1540   29.3450   44.9200 O   0  0  0  0  0  0  0  0  0  0  0  0
   57.2850   28.4890   44.2650 C   0  0  0  0  0  0  0  0  0  0  0  0
   56.9070   27.5014   43.9622 H   0  0  0  0  0  0  0  0  0  0  0  0
   58.6080   28.6020   44.4620 C   0  0  0  0  0  0  0  0  0  0  0  0
   59.2677   28.3963   43.6061 H   0  0  0  0  0  0  0  0  0  0  0  0
   59.2450   28.9800   45.7350 C   0  0  0  0  0  0  0  0  0  0  0  0
   60.4270   29.7340   45.7430 C   0  0  0  0  0  0  0  0  0  0  0  0
   60.9040   30.0171   44.7931 H   0  0  0  0  0  0  0  0  0  0  0  0
   61.0010   30.1270   46.9570 C   0  0  0  0  0  0  0  0  0  0  0  0
   61.9357   30.7069   46.9564 H   0  0  0  0  0  0  0  0  0  0  0  0
   60.3950   29.7880   48.1720 C   0  0  0  0  0  0  0  0  0  0  0  0
   61.0120   30.2030   49.3620 O   0  0  0  0  0  0  0  0  0  0  0  0
   61.3080   29.3410   50.4570 C   0  0  0  0  0  0  0  0  0  0  0  0
   61.1253   29.8730   51.4023 H   0  0  0  0  0  0  0  0  0  0  0  0
   60.6642   28.4505   50.4071 H   0  0  0  0  0  0  0  0  0  0  0  0
   62.3631   29.0339   50.4071 H   0  0  0  0  0  0  0  0  0  0  0  0
   59.1960   29.0520   48.1600 C   0  0  0  0  0  0  0  0  0  0  0  0
   58.7085   28.7844   49.1090 H   0  0  0  0  0  0  0  0  0  0  0  0
   58.6210   28.6590   46.9470 C   0  0  0  0  0  0  0  0  0  0  0  0
   57.6759   28.0962   46.9450 H   0  0  0  0  0  0  0  0  0  0  0  0
   58.0020   32.7050   43.6710 C   0  0  0  0  0  0  0  0  0  0  0  0
   57.9139   32.6432   42.5763 H   0  0  0  0  0  0  0  0  0  0  0  0
   58.8040   33.6860   44.2570 C   0  0  0  0  0  0  0  0  0  0  0  0
   59.3605   34.3910   43.6220 H   0  0  0  0  0  0  0  0  0  0  0  0
   61.9240   33.6250   46.8000 C   0  0  0  0  0  0  0  0  0  0  0  0
   62.1225   33.6177   45.7181 H   0  0  0  0  0  0  0  0  0  0  0  0
   62.8500   33.0600   47.6750 C   0  0  0  0  0  0  0  0  0  0  0  0
   63.7703   32.6047   47.2803 H   0  0  0  0  0  0  0  0  0  0  0  0
   62.6140   33.0700   49.0470 C   0  0  0  0  0  0  0  0  0  0  0  0
   63.3457   32.6143   49.7303 H   0  0  0  0  0  0  0  0  0  0  0  0
   61.4500   33.6570   49.5640 C   0  0  0  0  0  0  0  0  0  0  0  0
   61.2060   33.6280   51.0540 C   0  0  0  0  0  0  0  0  0  0  0  0
   61.9297   32.9472   51.5260 H   0  0  0  0  0  0  0  0  0  0  0  0
   61.3258   34.6458   51.4537 H   0  0  0  0  0  0  0  0  0  0  0  0
   59.8100   33.1500   51.3510 C   0  0  0  0  0  0  0  0  0  0  0  0
   59.2720   32.0460   50.6720 C   0  0  0  0  0  0  0  0  0  0  0  0
   59.8610   31.5306   49.8991 H   0  0  0  0  0  0  0  0  0  0  0  0
   57.9840   31.6060   50.9840 C   0  0  0  0  0  0  0  0  0  0  0  0
   57.5546   30.7439   50.4526 H   0  0  0  0  0  0  0  0  0  0  0  0
   57.2600   32.2410   51.9430 N   0  0  0  0  0  0  0  0  0  0  0  0
   57.7580   33.3080   52.6220 C   0  0  0  0  0  0  0  0  0  0  0  0
   57.1487   33.7994   53.3949 H   0  0  0  0  0  0  0  0  0  0  0  0
   59.0410   33.7820   52.3410 C   0  0  0  0  0  0  0  0  0  0  0  0
   59.4461   34.6441   52.8912 H   0  0  0  0  0  0  0  0  0  0  0  0
  1  2  1  0
  2  3  1  0
  3  4  2  0
  4  5  1  0
  5  6  1  0
  5  7  1  0
  5  8  1  0
  8  9  2  0
  9 10  1  0
  9 11  1  0
 11 12  1  0
 12 13  2  0
 13 14  1  0
 14 15  2  0
 14 16  1  0
 16 17  1  0
 16 18  2  3
 18 19  1  0
 18 20  1  0
 20 21  2  0
 21 22  1  0
 21 23  1  0
 23 24  1  0
 23 25  2  0
 25 26  1  0
 26 27  1  0
 27 28  1  0
 27 29  1  0
 27 30  1  0
 25 31  1  0
 31 32  1  0
 31 33  2  0
 33 34  1  0
 12 35  1  0
 35 36  1  0
 35 37  2  0
 37 38  1  0
  4 39  1  0
 39 40  1  0
 39 41  2  0
 41 42  1  0
 41 43  1  0
 43 44  1  0
 43 45  2  0
 45 46  1  0
 46 47  1  0
 46 48  1  0
 46 49  1  0
 49 50  2  0
 50 51  1  0
 50 52  1  0
 52 53  1  0
 52 54  2  0
 54 55  1  0
 55 56  1  0
 55 57  2  0
 57 58  1  0
 45  3  1  0
 57 49  1  0
 37  8  1  0
 33 20  1  0
M  CHG  1  11  -1
M  END
>  <UniqueID>  (16) 
13

>  <SMILES>  (16) 
COc1ccc(C=CC(=O)/N=c2/ccc(Cc3cccc(Cc4ccncc4)c3O)c[n-]2)cc1

>  <Energy>  (16) 
78.6028766701544

>  <Genealogy>  (16) 
COc1ccc(C=CC(=O)N=c2ccc(Cc3cccc(Cc4ccncc4)c3O)c[n-]2)cc1 (protonated)
COc1ccc(C=CC(=O)/N=c2/ccc(Cc3cccc(Cc4ccncc4)c3O)c[n-]2)cc1 (cis-trans isomerization)
COc1ccc(C=CC(=O)/N=c2/ccc(Cc3cccc(Cc4ccncc4)c3O)c[n-]2)cc1 (3D coordinates assigned)
COc1ccc(C=CC(=O)/N=c2/ccc(Cc3cccc(Cc4ccncc4)c3O)c[n-]2)cc1 (optimized conformer: 78.6028766701544 kcal/mol)

>  <smiles>  (16) 
COc1ccc(C=CC(=O)N=c2ccc(Cc3cccc(Cc4ccncc4)c3O)c[nH]2)cc1

>  <score_type>  (16) 
oracle

>  <origin>  (16) 
adg

>  <m_score__min__energy>  (16) 
-11.06

>  <m_primary>  (16) 
energy

$$$$
16:0
     RDKit          3D

 36 38  0  0  0  0  0  0  0  0999 V2000
   58.1045   32.3675   45.3384 H   0  0  0  0  0  0  0  0  0  0  0  0
   58.5870   33.1640   45.9240 C   0  0  0  0  0  0  0  0  0  0  0  0
   58.9000   33.0160   47.2390 N   0  0  0  0  0  0  0  0  0  0  0  0
   59.4910   34.1250   47.7350 C   0  0  0  0  0  0  0  0  0  0  0  0
   59.8650   34.2690   48.9720 N   0  0  0  0  0  0  0  0  0  0  0  0
   59.4440   33.4630   50.0820 C   0  0  0  0  0  0  0  0  0  0  0  0
   59.7480   33.8330   51.2460 O   0  0  0  0  0  0  0  0  0  0  0  0
   58.7700   32.2090   49.8810 N   0  0  0  0  0  0  0  0  0  0  0  0
   58.9840   31.6760   49.0090 H   0  0  0  0  0  0  0  0  0  0  0  0
   57.9440   31.5780   50.8750 C   0  0  0  0  0  0  0  0  0  0  0  0
   58.0330   30.1910   51.0650 C   0  0  0  0  0  0  0  0  0  0  0  0
   58.7452   29.6026   50.4678 H   0  0  0  0  0  0  0  0  0  0  0  0
   57.2230   29.5510   52.0080 C   0  0  0  0  0  0  0  0  0  0  0  0
   57.3159   28.4656   52.1603 H   0  0  0  0  0  0  0  0  0  0  0  0
   56.2920   30.2830   52.7620 C   0  0  0  0  0  0  0  0  0  0  0  0
   55.4370   29.5950   53.7580 C   0  0  0  0  0  0  0  0  0  0  0  0
   55.9430   29.2110   54.8450 O   0  0  0  0  0  0  0  0  0  0  0  0
   54.0320   29.3960   53.5480 N   0  0  0  0  0  0  0  0  0  0  0  0
   53.1970   30.1370   52.6450 C   0  0  0  0  0  0  0  0  0  0  0  0
   53.0600   29.7670   51.2940 C   0  0  0  0  0  0  0  0  0  0  0  0
   53.6089   28.8966   50.9051 H   0  0  0  0  0  0  0  0  0  0  0  0
   52.2280   30.5030   50.4450 C   0  0  0  0  0  0  0  0  0  0  0  0
   52.1090   30.1440   49.1420 F   0  0  0  0  0  0  0  0  0  0  0  0
   51.5140   31.6010   50.9390 C   0  0  0  0  0  0  0  0  0  0  0  0
   50.6880   32.3320   50.0940 O   0  0  0  0  0  0  0  0  0  0  0  0
   51.6290   31.9580   52.2880 C   0  0  0  0  0  0  0  0  0  0  0  0
   50.9340   33.0150   52.7740 F   0  0  0  0  0  0  0  0  0  0  0  0
   52.4630   31.2220   53.1380 C   0  0  0  0  0  0  0  0  0  0  0  0
   52.5420   31.4981   54.1999 H   0  0  0  0  0  0  0  0  0  0  0  0
   56.2010   31.6720   52.5700 C   0  0  0  0  0  0  0  0  0  0  0  0
   55.4873   32.2598   53.1660 H   0  0  0  0  0  0  0  0  0  0  0  0
   57.0100   32.3120   51.6280 C   0  0  0  0  0  0  0  0  0  0  0  0
   56.9159   33.3971   51.4742 H   0  0  0  0  0  0  0  0  0  0  0  0
   59.6330   35.3320   46.5790 S   0  0  0  0  0  0  0  0  0  0  0  0
   58.9220   34.3970   45.3740 C   0  0  0  0  0  0  0  0  0  0  0  0
   58.7517   34.7070   44.3324 H   0  0  0  0  0  0  0  0  0  0  0  0
  1  2  1  0
  2  3  1  0
  3  4  1  0
  4  5  2  0
  5  6  1  0
  6  7  2  0
  6  8  1  0
  8  9  1  0
  8 10  1  0
 10 11  2  0
 11 12  1  0
 11 13  1  0
 13 14  1  0
 13 15  2  0
 15 16  1  0
 16 17  2  0
 16 18  1  0
 18 19  1  0
 19 20  2  0
 20 21  1  0
 20 22  1  0
 22 23  1  0
 22 24  2  0
 24 25  1  0
 24 26  1  0
 26 27  1  0
 26 28  2  0
 28 29  1  0
 15 30  1  0
 30 31  1  0
 30 32  2  0
 32 33  1  0
  4 34  1  0
 34 35  1  0
 35 36  1  0
 35  2  2  0
 32 10  1  0
 28 19  1  0
M  CHG  3   3  -1  18  -1  25  -1
M  END
>  <UniqueID>  (17) 
14

>  <SMILES>  (17) 
O=C(/N=c1\[n-]ccs1)Nc1ccc(C(=O)[N-]c2cc(F)c([O-])c(F)c2)cc1

>  <Energy>  (17) 
82.9782817628317

>  <Genealogy>  (17) 
O=C(N=c1[n-]ccs1)Nc1ccc(C(=O)[N-]c2cc(F)c([O-])c(F)c2)cc1 (protonated)
O=C(/N=c1\[n-]ccs1)Nc1ccc(C(=O)[N-]c2cc(F)c([O-])c(F)c2)cc1 (cis-trans isomerization)
O=C(/N=c1\[n-]ccs1)Nc1ccc(C(=O)[N-]c2cc(F)c([O-])c(F)c2)cc1 (3D coordinates assigned)
O=C(/N=c1\[n-]ccs1)Nc1ccc(C(=O)[N-]c2cc(F)c([O-])c(F)c2)cc1 (optimized conformer: 82.9782817628317 kcal/mol)

>  <smiles>  (17) 
O=C(N=c1[nH]ccs1)Nc1ccc(C(=O)Nc2cc(F)c(O)c(F)c2)cc1

>  <score_type>  (17) 
oracle

>  <origin>  (17) 
adg

>  <m_score__min__energy>  (17) 
-12.859999999999999

>  <m_primary>  (17) 
energy

$$$$
17:0
     RDKit          3D

 39 40  0  0  0  0  0  0  0  0999 V2000
   57.5160   25.0040   44.2420 C   0  0  0  0  0  0  0  0  0  0  0  0
   57.7590   26.4860   44.4970 C   0  0  0  0  0  0  0  0  0  0  0  0
   56.6360   27.1160   45.7360 S   0  0  0  0  0  0  0  0  0  0  0  0
   57.4080   27.3730   47.0000 O   0  0  0  0  0  0  0  0  0  0  0  0
   55.5800   26.0840   46.0180 O   0  0  0  0  0  0  0  0  0  0  0  0
   55.9180   28.6160   45.2080 N   0  0  0  0  0  0  0  0  0  0  0  0
   56.8370   29.4010   44.3830 C   0  0  0  0  0  0  0  0  0  0  0  0
   57.5040   30.4690   45.1900 C   0  0  0  0  0  0  0  0  0  0  0  0
   58.2060   30.2740   46.3640 C   0  0  0  0  0  0  0  0  0  0  0  0
   58.6990   31.5250   46.6710 C   0  0  0  0  0  0  0  0  0  0  0  0
   58.2710   32.4090   45.7370 N   0  0  0  0  0  0  0  0  0  0  0  0
   57.5640   31.7630   44.8220 N   0  0  0  0  0  0  0  0  0  0  0  0
   58.6200   33.8270   45.5980 C   0  0  0  0  0  0  0  0  0  0  0  0
   58.7840   34.5270   46.9550 C   0  0  0  0  0  0  0  0  0  0  0  0
   60.1690   34.2770   47.5750 C   0  0  0  0  0  0  0  0  0  0  0  0
   60.5340   32.8500   47.5530 N   0  0  0  0  0  0  0  0  0  0  0  0
   61.8520   32.4100   47.1560 C   0  0  0  0  0  0  0  0  0  0  0  0
   62.9180   33.3820   46.7500 C   0  0  0  0  0  0  0  0  0  0  0  0
   62.1200   31.1770   47.1290 O   0  0  0  0  0  0  0  0  0  0  0  0
   59.5110   31.8550   47.8880 C   0  0  0  0  0  0  0  0  0  0  0  0
   57.4294   24.4760   45.2031 H   0  0  0  0  0  0  0  0  0  0  0  0
   56.5852   24.8783   43.6694 H   0  0  0  0  0  0  0  0  0  0  0  0
   58.3579   24.5876   43.6694 H   0  0  0  0  0  0  0  0  0  0  0  0
   58.7932   26.6262   44.8445 H   0  0  0  0  0  0  0  0  0  0  0  0
   57.5894   27.0351   43.5591 H   0  0  0  0  0  0  0  0  0  0  0  0
   57.6050   28.7333   43.9655 H   0  0  0  0  0  0  0  0  0  0  0  0
   56.2619   29.8793   43.5765 H   0  0  0  0  0  0  0  0  0  0  0  0
   58.3406   29.3371   46.9245 H   0  0  0  0  0  0  0  0  0  0  0  0
   59.5671   33.9047   45.0440 H   0  0  0  0  0  0  0  0  0  0  0  0
   57.7971   34.3233   45.0627 H   0  0  0  0  0  0  0  0  0  0  0  0
   58.6496   35.6095   46.8135 H   0  0  0  0  0  0  0  0  0  0  0  0
   58.0284   34.1155   47.6403 H   0  0  0  0  0  0  0  0  0  0  0  0
   60.9203   34.8446   47.0064 H   0  0  0  0  0  0  0  0  0  0  0  0
   60.1350   34.6029   48.6251 H   0  0  0  0  0  0  0  0  0  0  0  0
   63.3864   33.8091   47.6490 H   0  0  0  0  0  0  0  0  0  0  0  0
   63.6802   32.8615   46.1515 H   0  0  0  0  0  0  0  0  0  0  0  0
   62.4699   34.1888   46.1515 H   0  0  0  0  0  0  0  0  0  0  0  0
   59.9988   30.9416   48.2592 H   0  0  0  0  0  0  0  0  0  0  0  0
   58.8483   32.2655   48.6641 H   0  0  0  0  0  0  0  0  0  0  0  0
  1  2  1  0
  2  3  1  0
  3  4  2  0
  3  5  2  0
  3  6  1  0
  6  7  1  0
  7  8  1  0
  8  9  1  0
  9 10  2  0
 10 11  1  0
 11 12  1  0
 11 13  1  0
 13 14  1  0
 14 15  1  0
 15 16  1  0
 16 17  1  0
 17 18  1  0
 17 19  2  0
 16 20  1  0
 12  8  2  0
 20 10  1  0
  1 21  1  0
  1 22  1  0
  1 23  1  0
  2 24  1  0
  2 25  1  0
  7 26  1  0
  7 27  1  0
  9 28  1  0
 13 29  1  0
 13 30  1  0
 14 31  1  0
 14 32  1  0
 15 33  1  0
 15 34  1  0
 18 35  1  0
 18 36  1  0
 18 37  1  0
 20 38  1  0
 20 39  1  0
M  CHG  1   6  -1
M  END
>  <UniqueID>  (18) 
15

>  <SMILES>  (18) 
CCS(=O)(=O)[N-]Cc1cc2n(n1)CCCN(C(C)=O)C2

>  <Energy>  (18) 
59.04888899428762

>  <Genealogy>  (18) 
CCS(=O)(=O)[N-]Cc1cc2n(n1)CCCN(C(C)=O)C2 (protonated)
CCS(=O)(=O)[N-]Cc1cc2n(n1)CCCN(C(C)=O)C2 (3D coordinates assigned)
CCS(=O)(=O)[N-]Cc1cc2n(n1)CCCN(C(C)=O)C2 (nonaromatic ring conformer: 59.04888899428762 kcal/mol)

>  <smiles>  (18) 
CCS(=O)(=O)NCc1cc2n(n1)CCCN(C(C)=O)C2

>  <score_type>  (18) 
oracle

>  <origin>  (18) 
adg

>  <m_score__min__energy>  (18) 
-7.4900000000000002

>  <m_primary>  (18) 
energy

$$$$
18:0
     RDKit          3D

 44 46  0  0  0  0  0  0  0  0999 V2000
   51.3150   23.8470   44.8110 C   0  0  0  0  0  0  0  0  0  0  0  0
   52.4450   23.0040   44.8400 O   0  0  0  0  0  0  0  0  0  0  0  0
   52.4300   22.1940   46.0020 C   0  0  0  0  0  0  0  0  0  0  0  0
   53.7550   22.3090   46.7610 C   0  0  0  0  0  0  0  0  0  0  0  0
   54.1480   23.7070   46.9020 N   0  0  0  0  0  0  0  0  0  0  0  0
   55.0080   24.3910   45.9860 C   0  0  0  0  0  0  0  0  0  0  0  0
   54.7620   25.5890   45.6740 O   0  0  0  0  0  0  0  0  0  0  0  0
   56.1660   23.6930   45.3750 C   0  0  0  0  0  0  0  0  0  0  0  0
   55.9370   22.7830   44.3270 C   0  0  0  0  0  0  0  0  0  0  0  0
   56.9970   22.0920   43.7380 C   0  0  0  0  0  0  0  0  0  0  0  0
   58.2990   22.2970   44.1870 C   0  0  0  0  0  0  0  0  0  0  0  0
   58.5500   23.2070   45.2150 C   0  0  0  0  0  0  0  0  0  0  0  0
   57.4960   23.9320   45.8030 C   0  0  0  0  0  0  0  0  0  0  0  0
   57.7580   24.8910   46.8410 N   0  0  0  0  0  0  0  0  0  0  0  0
   58.4000   26.1610   46.6800 C   0  0  0  0  0  0  0  0  0  0  0  0
   59.5600   26.2400   46.1920 O   0  0  0  0  0  0  0  0  0  0  0  0
   57.6860   27.4080   47.0910 C   0  0  0  0  0  0  0  0  0  0  0  0
   58.2860   28.5670   46.4280 N   0  0  0  0  0  0  0  0  0  0  0  0
   59.5160   29.0890   46.6660 C   0  0  0  0  0  0  0  0  0  0  0  0
   60.3420   28.5710   47.4650 O   0  0  0  0  0  0  0  0  0  0  0  0
   59.7830   30.2260   45.9790 N   0  0  0  0  0  0  0  0  0  0  0  0
   58.6450   30.4220   45.2870 C   0  0  0  0  0  0  0  0  0  0  0  0
   58.3620   31.4730   44.4190 C   0  0  0  0  0  0  0  0  0  0  0  0
   57.0960   31.5010   43.8100 C   0  0  0  0  0  0  0  0  0  0  0  0
   56.1510   30.4880   44.0800 C   0  0  0  0  0  0  0  0  0  0  0  0
   56.4630   29.4350   44.9610 C   0  0  0  0  0  0  0  0  0  0  0  0
   55.5290   28.4410   45.2150 O   0  0  0  0  0  0  0  0  0  0  0  0
   57.7350   29.4340   45.5540 C   0  0  0  0  0  0  0  0  0  0  0  0
   51.0041   24.0790   45.8403 H   0  0  0  0  0  0  0  0  0  0  0  0
   51.5668   24.7797   44.2850 H   0  0  0  0  0  0  0  0  0  0  0  0
   50.4927   23.3399   44.2850 H   0  0  0  0  0  0  0  0  0  0  0  0
   51.6090   22.5192   46.6579 H   0  0  0  0  0  0  0  0  0  0  0  0
   52.2860   21.1461   45.7000 H   0  0  0  0  0  0  0  0  0  0  0  0
   53.6388   21.8639   47.7602 H   0  0  0  0  0  0  0  0  0  0  0  0
   54.5344   21.7775   46.1952 H   0  0  0  0  0  0  0  0  0  0  0  0
   54.9111   22.6141   43.9677 H   0  0  0  0  0  0  0  0  0  0  0  0
   56.8036   21.3846   42.9181 H   0  0  0  0  0  0  0  0  0  0  0  0
   59.1311   21.7408   43.7307 H   0  0  0  0  0  0  0  0  0  0  0  0
   59.5803   23.3591   45.5689 H   0  0  0  0  0  0  0  0  0  0  0  0
   56.6264   27.3326   46.8055 H   0  0  0  0  0  0  0  0  0  0  0  0
   57.7695   27.5307   48.1809 H   0  0  0  0  0  0  0  0  0  0  0  0
   59.1063   32.2571   44.2162 H   0  0  0  0  0  0  0  0  0  0  0  0
   56.8399   32.3173   43.1186 H   0  0  0  0  0  0  0  0  0  0  0  0
   55.1627   30.5215   43.5982 H   0  0  0  0  0  0  0  0  0  0  0  0
  1  2  1  0
  2  3  1  0
  3  4  1  0
  4  5  1  0
  5  6  1  0
  6  7  2  0
  6  8  1  0
  8  9  2  0
  9 10  1  0
 10 11  2  0
 11 12  1  0
 12 13  2  0
 13 14  1  0
 14 15  1  0
 15 16  2  0
 15 17  1  0
 17 18  1  0
 18 19  1  0
 19 20  2  0
 19 21  1  0
 21 22  1  0
 22 23  2  0
 23 24  1  0
 24 25  2  0
 25 26  1  0
 26 27  1  0
 26 28  2  0
 13  8  1  0
 28 18  1  0
 28 22  1  0
  1 29  1  0
  1 30  1  0
  1 31  1  0
  3 32  1  0
  3 33  1  0
  4 34  1  0
  4 35  1  0
  9 36  1  0
 10 37  1  0
 11 38  1  0
 12 39  1  0
 17 40  1  0
 17 41  1  0
 23 42  1  0
 24 43  1  0
 25 44  1  0
M  CHG  4   5  -1  14  -1  21  -1  27  -1
M  END
>  <UniqueID>  (19) 
16

>  <SMILES>  (19) 
COCC[N-]C(=O)c1ccccc1[N-]C(=O)Cn1c(=O)[n-]c2cccc([O-])c21

>  <Energy>  (19) 
87.90278603420488

>  <Genealogy>  (19) 
COCC[N-]C(=O)c1ccccc1[N-]C(=O)Cn1c(=O)[n-]c2cccc([O-])c21 (protonated)
COCC[N-]C(=O)c1ccccc1[N-]C(=O)Cn1c(=O)[n-]c2cccc([O-])c21 (3D coordinates assigned)
COCC[N-]C(=O)c1ccccc1[N-]C(=O)Cn1c(=O)[n-]c2cccc([O-])c21 (optimized conformer: 87.90278603420488 kcal/mol)

>  <smiles>  (19) 
COCCNC(=O)c1ccccc1NC(=O)Cn1c(=O)[nH]c2cccc(O)c21

>  <score_type>  (19) 
oracle

>  <origin>  (19) 
adg

>  <m_score__min__energy>  (19) 
-14.77

>  <m_primary>  (19) 
energy

$$$$
19:0
     RDKit          3D

 49 51  0  0  0  0  0  0  0  0999 V2000
   57.7370   33.6580   46.4580 C   0  0  0  0  0  0  0  0  0  0  0  0
   59.0490   34.4120   46.7360 C   0  0  0  0  0  0  0  0  0  0  0  0
   60.2310   33.7790   45.9530 C   0  0  0  0  0  0  0  0  0  0  0  0
   61.0230   32.7710   46.7960 C   0  0  0  0  0  0  0  0  0  0  0  0
   61.4750   33.3810   48.0550 N   0  0  0  0  0  0  0  0  0  0  0  0
   62.4120   32.6740   48.8800 C   0  0  0  0  0  0  0  0  0  0  0  0
   63.6890   33.2200   49.0830 C   0  0  0  0  0  0  0  0  0  0  0  0
   64.6270   32.5490   49.8700 C   0  0  0  0  0  0  0  0  0  0  0  0
   64.3010   31.3250   50.4570 C   0  0  0  0  0  0  0  0  0  0  0  0
   63.0340   30.7690   50.2580 C   0  0  0  0  0  0  0  0  0  0  0  0
   62.0760   31.4360   49.4760 C   0  0  0  0  0  0  0  0  0  0  0  0
   60.4580   30.7450   49.3150 S   0  0  0  0  0  0  0  0  0  0  0  0
   59.4360   31.8450   49.2210 O   0  0  0  0  0  0  0  0  0  0  0  0
   60.1610   29.8840   50.5100 O   0  0  0  0  0  0  0  0  0  0  0  0
   60.4010   29.8030   47.8640 N   0  0  0  0  0  0  0  0  0  0  0  0
   59.2330   29.5600   47.0700 C   0  0  0  0  0  0  0  0  0  0  0  0
   58.6030   30.5790   46.3390 C   0  0  0  0  0  0  0  0  0  0  0  0
   57.4520   30.3010   45.6000 C   0  0  0  0  0  0  0  0  0  0  0  0
   56.9110   29.0110   45.5790 C   0  0  0  0  0  0  0  0  0  0  0  0
   55.7500   28.7970   44.8310 O   0  0  0  0  0  0  0  0  0  0  0  0
   57.5440   27.9750   46.3060 C   0  0  0  0  0  0  0  0  0  0  0  0
   56.8930   26.3300   46.3270 S   0  0  0  0  0  0  0  0  0  0  0  0
   55.1690   26.3400   46.1700 N   0  0  0  0  0  0  0  0  0  0  0  0
   57.2480   25.6680   47.6300 O   0  0  0  0  0  0  0  0  0  0  0  0
   57.4770   25.5440   45.1860 O   0  0  0  0  0  0  0  0  0  0  0  0
   58.7070   28.2650   47.0370 C   0  0  0  0  0  0  0  0  0  0  0  0
   60.8060   34.5820   48.5780 C   0  0  0  0  0  0  0  0  0  0  0  0
   59.3100   34.5040   48.2660 C   0  0  0  0  0  0  0  0  0  0  0  0
   57.2619   33.3849   47.4118 H   0  0  0  0  0  0  0  0  0  0  0  0
   57.0580   34.3037   45.8817 H   0  0  0  0  0  0  0  0  0  0  0  0
   57.9531   32.7463   45.8817 H   0  0  0  0  0  0  0  0  0  0  0  0
   58.9550   35.4443   46.3679 H   0  0  0  0  0  0  0  0  0  0  0  0
   59.8311   33.2616   45.0685 H   0  0  0  0  0  0  0  0  0  0  0  0
   60.9176   34.5909   45.6714 H   0  0  0  0  0  0  0  0  0  0  0  0
   60.3798   31.9083   47.0243 H   0  0  0  0  0  0  0  0  0  0  0  0
   61.9060   32.4509   46.2235 H   0  0  0  0  0  0  0  0  0  0  0  0
   63.9523   34.1821   48.6194 H   0  0  0  0  0  0  0  0  0  0  0  0
   65.6243   32.9854   50.0277 H   0  0  0  0  0  0  0  0  0  0  0  0
   65.0415   30.7978   51.0764 H   0  0  0  0  0  0  0  0  0  0  0  0
   62.7849   29.8011   50.7175 H   0  0  0  0  0  0  0  0  0  0  0  0
   59.0169   31.5981   46.3485 H   0  0  0  0  0  0  0  0  0  0  0  0
   56.9652   31.1047   45.0281 H   0  0  0  0  0  0  0  0  0  0  0  0
   55.1430   28.0010   44.9610 H   0  0  0  0  0  0  0  0  0  0  0  0
   54.9440   26.7870   45.2510 H   0  0  0  0  0  0  0  0  0  0  0  0
   59.2122   27.4610   47.5923 H   0  0  0  0  0  0  0  0  0  0  0  0
   60.9518   34.6391   49.6668 H   0  0  0  0  0  0  0  0  0  0  0  0
   61.2347   35.4779   48.1053 H   0  0  0  0  0  0  0  0  0  0  0  0
   58.8894   33.6125   48.7542 H   0  0  0  0  0  0  0  0  0  0  0  0
   58.8316   35.4202   48.6424 H   0  0  0  0  0  0  0  0  0  0  0  0
  1  2  1  0
  2  3  1  0
  3  4  1  0
  4  5  1  0
  5  6  1  0
  6  7  2  0
  7  8  1  0
  8  9  2  0
  9 10  1  0
 10 11  2  0
 11 12  1  0
 12 13  2  0
 12 14  2  0
 12 15  1  0
 15 16  1  0
 16 17  2  0
 17 18  1  0
 18 19  2  0
 19 20  1  0
 19 21  1  0
 21 22  1  0
 22 23  1  0
 22 24  2  0
 22 25  2  0
 21 26  2  0
  5 27  1  0
 27 28  1  0
 28  2  1  0
 11  6  1  0
 26 16  1  0
  1 29  1  0
  1 30  1  0
  1 31  1  0
  2 32  1  0
  3 33  1  0
  3 34  1  0
  4 35  1  0
  4 36  1  0
  7 37  1  0
  8 38  1  0
  9 39  1  0
 10 40  1  0
 17 41  1  0
 18 42  1  0
 20 43  1  0
 23 44  1  0
 26 45  1  0
 27 46  1  0
 27 47  1  0
 28 48  1  0
 28 49  1  0
M  CHG  2  15  -1  23  -1
M  END
>  <UniqueID>  (20) 
17

>  <SMILES>  (20) 
CC1CCN(c2ccccc2S(=O)(=O)[N-]c2ccc(O)c(S([NH-])(=O)=O)c2)CC1

>  <Energy>  (20) 
60.23169849652621

>  <Genealogy>  (20) 
CC1CCN(c2ccccc2S(=O)(=O)[N-]c2ccc(O)c(S([NH-])(=O)=O)c2)CC1 (protonated)
CC1CCN(c2ccccc2S(=O)(=O)[N-]c2ccc(O)c(S([NH-])(=O)=O)c2)CC1 (3D coordinates assigned)
CC1CCN(c2ccccc2S(=O)(=O)[N-]c2ccc(O)c(S([NH-])(=O)=O)c2)CC1 (nonaromatic ring conformer: 60.23169849652621 kcal/mol)

>  <smiles>  (20) 
CC1CCN(c2ccccc2S(=O)(=O)Nc2ccc(O)c(S(N)(=O)=O)c2)CC1

>  <score_type>  (20) 
oracle

>  <origin>  (20) 
adg

>  <m_score__min__energy>  (20) 
-13.4

>  <m_primary>  (20) 
energy

$$$$
20:0
     RDKit          3D

 54 58  0  0  0  0  0  0  0  0999 V2000
   55.8950   29.6260   42.6920 O   0  0  0  0  0  0  0  0  0  0  0  0
   56.5540   29.5850   44.0430 S   0  0  0  0  0  0  0  0  0  0  0  0
   55.4900   29.4100   45.0910 O   0  0  0  0  0  0  0  0  0  0  0  0
   57.6410   28.2370   44.0980 N   0  0  0  0  0  0  0  0  0  0  0  0
   58.3080   27.8480   45.2990 C   0  0  0  0  0  0  0  0  0  0  0  0
   58.5250   26.4780   45.5950 C   0  0  0  0  0  0  0  0  0  0  0  0
   59.2130   26.1000   46.7620 C   0  0  0  0  0  0  0  0  0  0  0  0
   59.6550   27.1110   47.6160 C   0  0  0  0  0  0  0  0  0  0  0  0
   60.3580   26.9680   48.7530 N   0  0  0  0  0  0  0  0  0  0  0  0
   60.5880   28.2220   49.2100 C   0  0  0  0  0  0  0  0  0  0  0  0
   60.0110   29.1640   48.3620 C   0  0  0  0  0  0  0  0  0  0  0  0
   60.1450   30.6560   48.4610 C   0  0  0  0  0  0  0  0  0  0  0  0
   61.3610   31.1580   47.6650 C   0  0  0  0  0  0  0  0  0  0  0  0
   61.6220   32.5930   47.9350 N   0  0  0  0  0  0  0  0  0  0  0  0
   62.6000   32.7720   49.0200 C   0  0  0  0  0  0  0  0  0  0  0  0
   63.9810   32.9370   48.3940 C   0  0  0  0  0  0  0  0  0  0  0  0
   63.7380   33.1280   46.9110 C   0  0  0  0  0  0  0  0  0  0  0  0
   62.2320   33.2540   46.7720 C   0  0  0  0  0  0  0  0  0  0  0  0
   59.4250   28.4350   47.3440 C   0  0  0  0  0  0  0  0  0  0  0  0
   58.7420   28.8420   46.1970 C   0  0  0  0  0  0  0  0  0  0  0  0
   57.4120   31.1000   44.3180 C   0  0  0  0  0  0  0  0  0  0  0  0
   57.8530   31.8640   43.2270 C   0  0  0  0  0  0  0  0  0  0  0  0
   58.4940   33.0890   43.4340 C   0  0  0  0  0  0  0  0  0  0  0  0
   58.6980   33.5670   44.7380 C   0  0  0  0  0  0  0  0  0  0  0  0
   59.3360   34.7980   44.9590 C   0  0  0  0  0  0  0  0  0  0  0  0
   59.5290   35.2660   46.2640 C   0  0  0  0  0  0  0  0  0  0  0  0
   59.0870   34.5110   47.3550 C   0  0  0  0  0  0  0  0  0  0  0  0
   58.4500   33.2810   47.1490 C   0  0  0  0  0  0  0  0  0  0  0  0
   58.2520   32.8000   45.8440 C   0  0  0  0  0  0  0  0  0  0  0  0
   57.6120   31.5690   45.6250 C   0  0  0  0  0  0  0  0  0  0  0  0
   58.1524   25.7052   44.9066 H   0  0  0  0  0  0  0  0  0  0  0  0
   59.3969   25.0406   46.9942 H   0  0  0  0  0  0  0  0  0  0  0  0
   60.6860   26.0750   49.1840 H   0  0  0  0  0  0  0  0  0  0  0  0
   61.1518   28.4628   50.1233 H   0  0  0  0  0  0  0  0  0  0  0  0
   59.2347   31.1256   48.0600 H   0  0  0  0  0  0  0  0  0  0  0  0
   60.2855   30.9242   49.5185 H   0  0  0  0  0  0  0  0  0  0  0  0
   62.2459   30.5717   47.9534 H   0  0  0  0  0  0  0  0  0  0  0  0
   61.1496   31.0377   46.5922 H   0  0  0  0  0  0  0  0  0  0  0  0
   62.3469   33.6683   49.6054 H   0  0  0  0  0  0  0  0  0  0  0  0
   62.5882   31.8997   49.6901 H   0  0  0  0  0  0  0  0  0  0  0  0
   64.4908   33.8159   48.8155 H   0  0  0  0  0  0  0  0  0  0  0  0
   64.6233   32.0661   48.5916 H   0  0  0  0  0  0  0  0  0  0  0  0
   64.2369   34.0402   46.5519 H   0  0  0  0  0  0  0  0  0  0  0  0
   64.1392   32.2942   46.3161 H   0  0  0  0  0  0  0  0  0  0  0  0
   61.9447   34.3156   46.7504 H   0  0  0  0  0  0  0  0  0  0  0  0
   61.8895   32.7857   45.8375 H   0  0  0  0  0  0  0  0  0  0  0  0
   58.5486   29.9069   46.0004 H   0  0  0  0  0  0  0  0  0  0  0  0
   57.6934   31.4968   42.2024 H   0  0  0  0  0  0  0  0  0  0  0  0
   58.8394   33.6798   42.5728 H   0  0  0  0  0  0  0  0  0  0  0  0
   59.6851   35.3962   44.1044 H   0  0  0  0  0  0  0  0  0  0  0  0
   60.0300   36.2308   46.4319 H   0  0  0  0  0  0  0  0  0  0  0  0
   59.2402   34.8845   48.3783 H   0  0  0  0  0  0  0  0  0  0  0  0
   58.1042   32.6906   48.0103 H   0  0  0  0  0  0  0  0  0  0  0  0
   57.2665   30.9708   46.4810 H   0  0  0  0  0  0  0  0  0  0  0  0
  1  2  2  0
  2  3  2  0
  2  4  1  0
  4  5  1  0
  5  6  2  0
  6  7  1  0
  7  8  2  0
  8  9  1  0
  9 10  1  0
 10 11  2  0
 11 12  1  0
 12 13  1  0
 13 14  1  0
 14 15  1  0
 15 16  1  0
 16 17  1  0
 17 18  1  0
 11 19  1  0
 19 20  2  0
  2 21  1  0
 21 22  2  0
 22 23  1  0
 23 24  2  0
 24 25  1  0
 25 26  2  0
 26 27  1  0
 27 28  2  0
 28 29  1  0
 29 30  2  0
 20  5  1  0
 30 21  1  0
 19  8  1  0
 29 24  1  0
 18 14  1  0
  6 31  1  0
  7 32  1  0
  9 33  1  0
 10 34  1  0
 12 35  1  0
 12 36  1  0
 13 37  1  0
 13 38  1  0
 15 39  1  0
 15 40  1  0
 16 41  1  0
 16 42  1  0
 17 43  1  0
 17 44  1  0
 18 45  1  0
 18 46  1  0
 20 47  1  0
 22 48  1  0
 23 49  1  0
 25 50  1  0
 26 51  1  0
 27 52  1  0
 28 53  1  0
 30 54  1  0
M  CHG  1   4  -1
M  END
>  <UniqueID>  (21) 
18

>  <SMILES>  (21) 
O=S(=O)([N-]c1ccc2[nH]cc(CCN3CCCC3)c2c1)c1ccc2ccccc2c1

>  <Energy>  (21) 
102.7002949178441

>  <Genealogy>  (21) 
O=S(=O)([N-]c1ccc2[nH]cc(CCN3CCCC3)c2c1)c1ccc2ccccc2c1 (protonated)
O=S(=O)([N-]c1ccc2[nH]cc(CCN3CCCC3)c2c1)c1ccc2ccccc2c1 (3D coordinates assigned)
O=S(=O)([N-]c1ccc2[nH]cc(CCN3CCCC3)c2c1)c1ccc2ccccc2c1 (nonaromatic ring conformer: 102.7002949178441 kcal/mol)

>  <smiles>  (21) 
O=S(=O)(Nc1ccc2[nH]cc(CCN3CCCC3)c2c1)c1ccc2ccccc2c1

>  <score_type>  (21) 
oracle

>  <origin>  (21) 
adg

>  <m_score__min__energy>  (21) 
-11.49

>  <m_primary>  (21) 
energy

$$$$
21:0
     RDKit          3D

 28 29  0  0  0  0  0  0  0  0999 V2000
   55.1460   29.7120   43.7240 C   0  0  0  0  0  0  0  0  0  0  0  0
   55.5100   28.9630   44.8780 O   0  0  0  0  0  0  0  0  0  0  0  0
   56.8310   28.6440   45.2350 C   0  0  0  0  0  0  0  0  0  0  0  0
   57.9190   29.4700   44.8880 C   0  0  0  0  0  0  0  0  0  0  0  0
   59.2180   29.1210   45.2650 C   0  0  0  0  0  0  0  0  0  0  0  0
   59.4450   27.9550   45.9980 C   0  0  0  0  0  0  0  0  0  0  0  0
   58.3750   27.1290   46.3480 C   0  0  0  0  0  0  0  0  0  0  0  0
   57.0650   27.4590   45.9530 C   0  0  0  0  0  0  0  0  0  0  0  0
   55.9490   26.6320   46.3180 N   0  0  0  0  0  0  0  0  0  0  0  0
   55.9680   25.2080   46.4820 C   0  0  0  0  0  0  0  0  0  0  0  0
   55.8790   24.7350   47.6470 O   0  0  0  0  0  0  0  0  0  0  0  0
   56.0310   24.2830   45.3250 C   0  0  0  0  0  0  0  0  0  0  0  0
   56.9440   24.5130   44.2840 C   0  0  0  0  0  0  0  0  0  0  0  0
   57.0040   23.6350   43.1990 C   0  0  0  0  0  0  0  0  0  0  0  0
   56.1570   22.5250   43.1690 C   0  0  0  0  0  0  0  0  0  0  0  0
   56.1970   21.7250   42.1980 O   0  0  0  0  0  0  0  0  0  0  0  0
   55.2900   22.3050   44.1910 N   0  0  0  0  0  0  0  0  0  0  0  0
   55.2100   23.1450   45.2570 C   0  0  0  0  0  0  0  0  0  0  0  0
   54.6846   30.6614   44.0336 H   0  0  0  0  0  0  0  0  0  0  0  0
   56.0438   29.9194   43.1232 H   0  0  0  0  0  0  0  0  0  0  0  0
   54.4282   29.1342   43.1232 H   0  0  0  0  0  0  0  0  0  0  0  0
   57.7444   30.3941   44.3175 H   0  0  0  0  0  0  0  0  0  0  0  0
   60.0634   29.7661   44.9838 H   0  0  0  0  0  0  0  0  0  0  0  0
   60.4680   27.6865   46.3003 H   0  0  0  0  0  0  0  0  0  0  0  0
   58.5566   26.2165   46.9349 H   0  0  0  0  0  0  0  0  0  0  0  0
   57.6129   25.3854   44.3225 H   0  0  0  0  0  0  0  0  0  0  0  0
   57.7114   23.8162   42.3764 H   0  0  0  0  0  0  0  0  0  0  0  0
   54.4996   22.9327   46.0695 H   0  0  0  0  0  0  0  0  0  0  0  0
  1  2  1  0
  2  3  1  0
  3  4  2  0
  4  5  1  0
  5  6  2  0
  6  7  1  0
  7  8  2  0
  8  9  1  0
  9 10  1  0
 10 11  2  0
 10 12  1  0
 12 13  1  0
 13 14  2  0
 14 15  1  0
 15 16  2  0
 15 17  1  0
 17 18  1  0
  8  3  1  0
 18 12  2  0
  1 19  1  0
  1 20  1  0
  1 21  1  0
  4 22  1  0
  5 23  1  0
  6 24  1  0
  7 25  1  0
 13 26  1  0
 14 27  1  0
 18 28  1  0
M  CHG  2   9  -1  17  -1
M  END
>  <UniqueID>  (22) 
19

>  <SMILES>  (22) 
COc1ccccc1[N-]C(=O)c1ccc(=O)[n-]c1

>  <Energy>  (22) 
36.32466130308847

>  <Genealogy>  (22) 
COc1ccccc1[N-]C(=O)c1ccc(=O)[n-]c1 (protonated)
COc1ccccc1[N-]C(=O)c1ccc(=O)[n-]c1 (3D coordinates assigned)
COc1ccccc1[N-]C(=O)c1ccc(=O)[n-]c1 (optimized conformer: 36.32466130308847 kcal/mol)

>  <smiles>  (22) 
COc1ccccc1NC(=O)c1ccc(=O)[nH]c1

>  <score_type>  (22) 
oracle

>  <origin>  (22) 
adg

>  <m_score__min__energy>  (22) 
-10.199999999999999

>  <m_primary>  (22) 
energy

$$$$
22:0
     RDKit          3D

 20 20  0  0  0  0  0  0  0  0999 V2000
   57.2803   27.3134   46.6944 H   0  0  0  0  0  0  0  0  0  0  0  0
   57.4150   27.3990   45.6060 C   0  0  0  0  0  0  0  0  0  0  0  0
   57.5880   28.7420   45.0100 C   0  0  0  0  0  0  0  0  0  0  0  0
   58.7130   29.0990   44.5660 O   0  0  0  0  0  0  0  0  0  0  0  0
   56.4590   29.6800   44.9220 C   0  0  0  0  0  0  0  0  0  0  0  0
   56.6550   30.9240   44.8850 O   0  0  0  0  0  0  0  0  0  0  0  0
   55.1570   29.1950   44.8790 O   0  0  0  0  0  0  0  0  0  0  0  0
   57.4170   26.2840   44.8640 C   0  0  0  0  0  0  0  0  0  0  0  0
   58.1984   26.1633   44.0993 H   0  0  0  0  0  0  0  0  0  0  0  0
   56.4140   25.2060   45.0270 C   0  0  0  0  0  0  0  0  0  0  0  0
   56.7180   23.9310   44.5210 C   0  0  0  0  0  0  0  0  0  0  0  0
   57.6820   23.7581   44.0203 H   0  0  0  0  0  0  0  0  0  0  0  0
   55.8050   22.8810   44.6490 C   0  0  0  0  0  0  0  0  0  0  0  0
   56.0574   21.8840   44.2588 H   0  0  0  0  0  0  0  0  0  0  0  0
   54.5730   23.0940   45.2710 C   0  0  0  0  0  0  0  0  0  0  0  0
   53.6690   22.0470   45.4000 O   0  0  0  0  0  0  0  0  0  0  0  0
   54.2470   24.3640   45.7560 C   0  0  0  0  0  0  0  0  0  0  0  0
   53.2742   24.5314   46.2414 H   0  0  0  0  0  0  0  0  0  0  0  0
   55.1520   25.4230   45.6270 C   0  0  0  0  0  0  0  0  0  0  0  0
   54.7730   26.6860   46.0670 O   0  0  0  0  0  0  0  0  0  0  0  0
  1  2  1  0
  2  3  1  0
  3  4  2  0
  3  5  1  0
  5  6  2  0
  5  7  1  0
  2  8  2  0
  8  9  1  0
  8 10  1  0
 10 11  2  0
 11 12  1  0
 11 13  1  0
 13 14  1  0
 13 15  2  0
 15 16  1  0
 15 17  1  0
 17 18  1  0
 17 19  2  0
 19 20  1  0
 19 10  1  0
M  CHG  3   7  -1  16  -1  20  -1
M  END
>  <UniqueID>  (23) 
20

>  <SMILES>  (23) 
O=C([O-])C(=O)/C=C/c1ccc([O-])cc1[O-]

>  <Energy>  (23) 
22.01522454920478

>  <Genealogy>  (23) 
O=C([O-])C(=O)C=Cc1ccc([O-])cc1[O-] (protonated)
O=C([O-])C(=O)/C=C/c1ccc([O-])cc1[O-] (cis-trans isomerization)
O=C([O-])C(=O)/C=C/c1ccc([O-])cc1[O-] (3D coordinates assigned)
O=C([O-])C(=O)/C=C/c1ccc([O-])cc1[O-] (optimized conformer: 22.01522454920478 kcal/mol)

>  <smiles>  (23) 
O=C(O)C(=O)C=Cc1ccc(O)cc1O

>  <score_type>  (23) 
oracle

>  <origin>  (23) 
adg

>  <m_score__min__energy>  (23) 
-13.67

>  <m_primary>  (23) 
energy

$$$$
23:0
     RDKit          3D

 59 61  0  0  0  0  0  0  0  0999 V2000
   59.0970   34.9730   45.9840 C   0  0  0  0  0  0  0  0  0  0  0  0
   58.6200   33.6420   45.4820 C   0  0  0  0  0  0  0  0  0  0  0  0
   58.2940   32.6250   46.3890 C   0  0  0  0  0  0  0  0  0  0  0  0
   57.8150   31.3960   45.9280 C   0  0  0  0  0  0  0  0  0  0  0  0
   57.6610   31.1640   44.5520 C   0  0  0  0  0  0  0  0  0  0  0  0
   57.1550   29.9060   44.0840 N   0  0  0  0  0  0  0  0  0  0  0  0
   56.3380   29.0130   44.8520 C   0  0  0  0  0  0  0  0  0  0  0  0
   55.1520   29.3440   45.1130 O   0  0  0  0  0  0  0  0  0  0  0  0
   56.8240   27.6510   45.2470 C   0  0  0  0  0  0  0  0  0  0  0  0
   58.3710   27.2840   44.3540 S   0  0  0  0  0  0  0  0  0  0  0  0
   59.4250   27.8370   45.6870 C   0  0  0  0  0  0  0  0  0  0  0  0
   60.0860   27.0080   46.5170 N   0  0  0  0  0  0  0  0  0  0  0  0
   60.7560   27.7830   47.3540 N   0  0  0  0  0  0  0  0  0  0  0  0
   60.4730   29.0520   47.0020 C   0  0  0  0  0  0  0  0  0  0  0  0
   61.0590   30.2550   47.6650 C   0  0  0  0  0  0  0  0  0  0  0  0
   60.0650   30.8690   48.5420 N   0  0  0  0  0  0  0  0  0  0  0  0
   59.6730   30.2810   49.7910 C   0  0  0  0  0  0  0  0  0  0  0  0
   60.1640   29.1800   50.1580 O   0  0  0  0  0  0  0  0  0  0  0  0
   58.6900   30.9820   50.6800 C   0  0  0  0  0  0  0  0  0  0  0  0
   58.4450   32.4370   50.2480 C   0  0  0  0  0  0  0  0  0  0  0  0
   59.6770   33.3550   50.4130 C   0  0  0  0  0  0  0  0  0  0  0  0
   60.0620   34.1360   49.1440 C   0  0  0  0  0  0  0  0  0  0  0  0
   61.4270   33.7600   48.6280 C   0  0  0  0  0  0  0  0  0  0  0  0
   61.6860   33.7590   47.2460 C   0  0  0  0  0  0  0  0  0  0  0  0
   62.9550   33.4200   46.7670 C   0  0  0  0  0  0  0  0  0  0  0  0
   63.9740   33.0810   47.6620 C   0  0  0  0  0  0  0  0  0  0  0  0
   63.7240   33.0810   49.0380 C   0  0  0  0  0  0  0  0  0  0  0  0
   62.4570   33.4180   49.5210 C   0  0  0  0  0  0  0  0  0  0  0  0
   59.6560   29.0930   45.9770 O   0  0  0  0  0  0  0  0  0  0  0  0
   57.9440   32.1960   43.6360 C   0  0  0  0  0  0  0  0  0  0  0  0
   57.7620   31.9740   42.1610 C   0  0  0  0  0  0  0  0  0  0  0  0
   58.4260   33.4300   44.1080 C   0  0  0  0  0  0  0  0  0  0  0  0
   59.0965   34.9716   47.0840 H   0  0  0  0  0  0  0  0  0  0  0  0
   60.1176   35.1586   45.6180 H   0  0  0  0  0  0  0  0  0  0  0  0
   58.4266   35.7646   45.6180 H   0  0  0  0  0  0  0  0  0  0  0  0
   58.4157   32.7949   47.4690 H   0  0  0  0  0  0  0  0  0  0  0  0
   57.5569   30.6052   46.6478 H   0  0  0  0  0  0  0  0  0  0  0  0
   57.0103   27.6269   46.3308 H   0  0  0  0  0  0  0  0  0  0  0  0
   56.0629   26.8988   44.9922 H   0  0  0  0  0  0  0  0  0  0  0  0
   61.9346   29.9546   48.2592 H   0  0  0  0  0  0  0  0  0  0  0  0
   61.3642   30.9810   46.8970 H   0  0  0  0  0  0  0  0  0  0  0  0
   59.5690   31.7290   48.2170 H   0  0  0  0  0  0  0  0  0  0  0  0
   57.7344   30.4382   50.6483 H   0  0  0  0  0  0  0  0  0  0  0  0
   59.1095   30.9995   51.6967 H   0  0  0  0  0  0  0  0  0  0  0  0
   58.1512   32.4388   49.1880 H   0  0  0  0  0  0  0  0  0  0  0  0
   57.6585   32.8370   50.9048 H   0  0  0  0  0  0  0  0  0  0  0  0
   59.4612   34.0804   51.2113 H   0  0  0  0  0  0  0  0  0  0  0  0
   60.5281   32.6991   50.6484 H   0  0  0  0  0  0  0  0  0  0  0  0
   59.3185   33.9258   48.3610 H   0  0  0  0  0  0  0  0  0  0  0  0
   60.0849   35.2049   49.4029 H   0  0  0  0  0  0  0  0  0  0  0  0
   60.8869   34.0260   46.5388 H   0  0  0  0  0  0  0  0  0  0  0  0
   63.1518   33.4200   45.6847 H   0  0  0  0  0  0  0  0  0  0  0  0
   64.9720   32.8144   47.2841 H   0  0  0  0  0  0  0  0  0  0  0  0
   64.5267   32.8151   49.7416 H   0  0  0  0  0  0  0  0  0  0  0  0
   62.2649   33.4156   50.6041 H   0  0  0  0  0  0  0  0  0  0  0  0
   57.0722   31.1326   41.9992 H   0  0  0  0  0  0  0  0  0  0  0  0
   57.3457   32.8829   41.7020 H   0  0  0  0  0  0  0  0  0  0  0  0
   58.7349   31.7440   41.7020 H   0  0  0  0  0  0  0  0  0  0  0  0
   58.6529   34.2358   43.3945 H   0  0  0  0  0  0  0  0  0  0  0  0
  1  2  1  0
  2  3  2  0
  3  4  1  0
  4  5  2  0
  5  6  1  0
  6  7  1  0
  7  8  2  0
  7  9  1  0
  9 10  1  0
 10 11  1  0
 11 12  2  0
 12 13  1  0
 13 14  2  0
 14 15  1  0
 15 16  1  0
 16 17  1  0
 17 18  2  0
 17 19  1  0
 19 20  1  0
 20 21  1  0
 21 22  1  0
 22 23  1  0
 23 24  2  0
 24 25  1  0
 25 26  2  0
 26 27  1  0
 27 28  2  0
 14 29  1  0
  5 30  1  0
 30 31  1  0
 30 32  2  0
 32  2  1  0
 29 11  1  0
 28 23  1  0
  1 33  1  0
  1 34  1  0
  1 35  1  0
  3 36  1  0
  4 37  1  0
  9 38  1  0
  9 39  1  0
 15 40  1  0
 15 41  1  0
 16 42  1  0
 19 43  1  0
 19 44  1  0
 20 45  1  0
 20 46  1  0
 21 47  1  0
 21 48  1  0
 22 49  1  0
 22 50  1  0
 24 51  1  0
 25 52  1  0
 26 53  1  0
 27 54  1  0
 28 55  1  0
 31 56  1  0
 31 57  1  0
 31 58  1  0
 32 59  1  0
M  CHG  1   6  -1
M  END
>  <UniqueID>  (24) 
21

>  <SMILES>  (24) 
Cc1ccc([N-]C(=O)CSc2nnc(CNC(=O)CCCCc3ccccc3)o2)c(C)c1

>  <Energy>  (24) 
86.64914621878445

>  <Genealogy>  (24) 
Cc1ccc([N-]C(=O)CSc2nnc(CNC(=O)CCCCc3ccccc3)o2)c(C)c1 (protonated)
Cc1ccc([N-]C(=O)CSc2nnc(CNC(=O)CCCCc3ccccc3)o2)c(C)c1 (3D coordinates assigned)
Cc1ccc([N-]C(=O)CSc2nnc(CNC(=O)CCCCc3ccccc3)o2)c(C)c1 (optimized conformer: 86.64914621878445 kcal/mol)

>  <smiles>  (24) 
Cc1ccc(NC(=O)CSc2nnc(CNC(=O)CCCCc3ccccc3)o2)c(C)c1

>  <score_type>  (24) 
oracle

>  <origin>  (24) 
adg

>  <m_score__min__energy>  (24) 
-9.9299999999999997

>  <m_primary>  (24) 
energy

$$$$
24:0
     RDKit          3D

 46 48  0  0  0  0  0  0  0  0999 V2000
   58.7696   33.4957   49.5162 H   0  0  0  0  0  0  0  0  0  0  0  0
   59.1580   33.1980   48.5310 C   0  0  0  0  0  0  0  0  0  0  0  0
   60.0220   34.3930   47.5120 S   0  0  0  0  0  0  0  0  0  0  0  0
   61.6250   33.9200   48.1630 C   0  0  0  0  0  0  0  0  0  0  0  0
   62.5740   33.3210   47.3260 C   0  0  0  0  0  0  0  0  0  0  0  0
   62.3335   33.1319   46.2694 H   0  0  0  0  0  0  0  0  0  0  0  0
   63.8270   32.9630   47.8320 C   0  0  0  0  0  0  0  0  0  0  0  0
   64.5726   32.4952   47.1723 H   0  0  0  0  0  0  0  0  0  0  0  0
   64.1340   33.1990   49.1770 C   0  0  0  0  0  0  0  0  0  0  0  0
   65.7080   32.7520   49.8120 Cl  0  0  0  0  0  0  0  0  0  0  0  0
   63.1840   33.7910   50.0160 C   0  0  0  0  0  0  0  0  0  0  0  0
   63.4238   33.9744   51.0738 H   0  0  0  0  0  0  0  0  0  0  0  0
   61.9300   34.1500   49.5120 C   0  0  0  0  0  0  0  0  0  0  0  0
   61.1830   34.6127   50.1738 H   0  0  0  0  0  0  0  0  0  0  0  0
   58.9850   31.9480   48.0970 C   0  0  0  0  0  0  0  0  0  0  0  0
   58.1717   31.7420   47.3856 H   0  0  0  0  0  0  0  0  0  0  0  0
   59.8460   30.8300   48.5370 C   0  0  0  0  0  0  0  0  0  0  0  0
   61.0390   31.0460   48.8830 O   0  0  0  0  0  0  0  0  0  0  0  0
   59.3730   29.4780   48.4990 N   0  0  0  0  0  0  0  0  0  0  0  0
   58.9050   28.8020   47.3270 C   0  0  0  0  0  0  0  0  0  0  0  0
   59.0730   27.4170   47.1690 C   0  0  0  0  0  0  0  0  0  0  0  0
   59.5752   26.8319   47.9535 H   0  0  0  0  0  0  0  0  0  0  0  0
   58.6030   26.7800   46.0160 C   0  0  0  0  0  0  0  0  0  0  0  0
   58.7411   25.6957   45.8927 H   0  0  0  0  0  0  0  0  0  0  0  0
   57.9580   27.5190   45.0200 C   0  0  0  0  0  0  0  0  0  0  0  0
   57.5791   27.0142   44.1191 H   0  0  0  0  0  0  0  0  0  0  0  0
   57.7940   28.9030   45.1690 C   0  0  0  0  0  0  0  0  0  0  0  0
   56.9070   29.8340   43.9670 S   0  0  0  0  0  0  0  0  0  0  0  0
   55.5820   30.2870   44.5120 O   0  0  0  0  0  0  0  0  0  0  0  0
   56.6660   28.9660   42.7640 O   0  0  0  0  0  0  0  0  0  0  0  0
   57.8370   31.2230   43.4950 N   0  0  0  0  0  0  0  0  0  0  0  0
   58.4400   31.1300   42.6470 H   0  0  0  0  0  0  0  0  0  0  0  0
   57.8320   32.3500   44.1490 C   0  0  0  0  0  0  0  0  0  0  0  0
   56.9600   32.5850   45.2350 N   0  0  0  0  0  0  0  0  0  0  0  0
   56.2670   31.8980   45.6080 H   0  0  0  0  0  0  0  0  0  0  0  0
   57.1980   33.8970   45.7990 C   0  0  0  0  0  0  0  0  0  0  0  0
   57.5531   33.8074   46.8362 H   0  0  0  0  0  0  0  0  0  0  0  0
   56.2770   34.4982   45.8179 H   0  0  0  0  0  0  0  0  0  0  0  0
   58.2780   34.5530   44.9200 C   0  0  0  0  0  0  0  0  0  0  0  0
   59.1384   34.8477   45.5388 H   0  0  0  0  0  0  0  0  0  0  0  0
   57.8841   35.4553   44.4295 H   0  0  0  0  0  0  0  0  0  0  0  0
   58.7140   33.5140   43.8750 C   0  0  0  0  0  0  0  0  0  0  0  0
   59.7722   33.2444   44.0073 H   0  0  0  0  0  0  0  0  0  0  0  0
   58.6252   33.8834   42.8427 H   0  0  0  0  0  0  0  0  0  0  0  0
   58.2910   29.5430   46.3110 C   0  0  0  0  0  0  0  0  0  0  0  0
   58.1982   30.6346   46.4101 H   0  0  0  0  0  0  0  0  0  0  0  0
  1  2  1  0
  2  3  1  0
  3  4  1  0
  4  5  2  0
  5  6  1  0
  5  7  1  0
  7  8  1  0
  7  9  2  0
  9 10  1  0
  9 11  1  0
 11 12  1  0
 11 13  2  0
 13 14  1  0
  2 15  2  3
 15 16  1  0
 15 17  1  0
 17 18  2  0
 17 19  1  0
 19 20  1  0
 20 21  2  0
 21 22  1  0
 21 23  1  0
 23 24  1  0
 23 25  2  0
 25 26  1  0
 25 27  1  0
 27 28  1  0
 28 29  2  0
 28 30  2  0
 28 31  1  0
 31 32  1  0
 31 33  2  0
 33 34  1  0
 34 35  1  0
 34 36  1  0
 36 37  1  0
 36 38  1  0
 36 39  1  0
 39 40  1  0
 39 41  1  0
 39 42  1  0
 42 43  1  0
 42 44  1  0
 27 45  2  0
 45 46  1  0
 13  4  1  0
 45 20  1  0
 42 33  1  0
M  CHG  2  19  -1  31   1
M  END
>  <UniqueID>  (25) 
22

>  <SMILES>  (25) 
O=C(C=CSc1ccc(Cl)cc1)[N-]c1cccc(S(=O)(=O)/[NH+]=C2\CCCN2)c1

>  <Energy>  (25) 
52.29903847611964

>  <Genealogy>  (25) 
O=C(C=CSc1ccc(Cl)cc1)[N-]c1cccc(S(=O)(=O)[NH+]=C2CCCN2)c1 (protonated)
O=C(C=CSc1ccc(Cl)cc1)[N-]c1cccc(S(=O)(=O)/[NH+]=C2\CCCN2)c1 (cis-trans isomerization)
O=C(C=CSc1ccc(Cl)cc1)[N-]c1cccc(S(=O)(=O)/[NH+]=C2\CCCN2)c1 (3D coordinates assigned)
O=C(C=CSc1ccc(Cl)cc1)[N-]c1cccc(S(=O)(=O)/[NH+]=C2\CCCN2)c1 (nonaromatic ring conformer: 52.29903847611964 kcal/mol)

>  <smiles>  (25) 
O=C(C=CSc1ccc(Cl)cc1)Nc1cccc(S(=O)(=O)N=C2CCCN2)c1

>  <score_type>  (25) 
oracle

>  <origin>  (25) 
adg

>  <m_score__min__energy>  (25) 
-10.26

>  <m_primary>  (25) 
energy

$$$$
25:0
     RDKit          3D

 35 37  0  0  0  0  0  0  0  0999 V2000
   59.5470   27.9870   45.3310 O   0  0  0  0  0  0  0  0  0  0  0  0
   58.1710   28.0700   44.7340 S   0  0  0  0  0  0  0  0  0  0  0  0
   58.1900   27.4510   43.3640 O   0  0  0  0  0  0  0  0  0  0  0  0
   57.0560   27.2050   45.7410 N   0  0  0  0  0  0  0  0  0  0  0  0
   56.7470   25.8100   45.6270 C   0  0  0  0  0  0  0  0  0  0  0  0
   57.7430   24.8390   45.4020 C   0  0  0  0  0  0  0  0  0  0  0  0
   57.4020   23.4860   45.3100 C   0  0  0  0  0  0  0  0  0  0  0  0
   56.0690   23.0880   45.4400 C   0  0  0  0  0  0  0  0  0  0  0  0
   55.0760   24.0430   45.6670 C   0  0  0  0  0  0  0  0  0  0  0  0
   55.4110   25.3980   45.7600 C   0  0  0  0  0  0  0  0  0  0  0  0
   54.4090   26.3370   45.9810 O   0  0  0  0  0  0  0  0  0  0  0  0
   57.6920   29.7510   44.6360 C   0  0  0  0  0  0  0  0  0  0  0  0
   56.5270   30.2360   45.1060 N   0  0  0  0  0  0  0  0  0  0  0  0
   56.5460   31.5380   44.8620 N   0  0  0  0  0  0  0  0  0  0  0  0
   57.7200   31.7890   44.2520 C   0  0  0  0  0  0  0  0  0  0  0  0
   58.1750   33.1450   43.8320 C   0  0  0  0  0  0  0  0  0  0  0  0
   58.1210   34.0200   44.9560 O   0  0  0  0  0  0  0  0  0  0  0  0
   58.9370   33.9030   46.0900 C   0  0  0  0  0  0  0  0  0  0  0  0
   58.4100   33.7850   47.3920 C   0  0  0  0  0  0  0  0  0  0  0  0
   59.2660   33.6750   48.4910 C   0  0  0  0  0  0  0  0  0  0  0  0
   60.6490   33.6820   48.3040 C   0  0  0  0  0  0  0  0  0  0  0  0
   61.1820   33.7970   47.0160 C   0  0  0  0  0  0  0  0  0  0  0  0
   63.0730   33.8020   46.7610 Br  0  0  0  0  0  0  0  0  0  0  0  0
   60.3270   33.9060   45.9140 C   0  0  0  0  0  0  0  0  0  0  0  0
   58.4330   30.6970   44.1150 O   0  0  0  0  0  0  0  0  0  0  0  0
   58.7939   25.1468   45.2982 H   0  0  0  0  0  0  0  0  0  0  0  0
   58.1849   22.7334   45.1349 H   0  0  0  0  0  0  0  0  0  0  0  0
   55.8022   22.0236   45.3636 H   0  0  0  0  0  0  0  0  0  0  0  0
   54.0271   23.7289   45.7730 H   0  0  0  0  0  0  0  0  0  0  0  0
   59.2078   33.0882   43.4578 H   0  0  0  0  0  0  0  0  0  0  0  0
   57.5224   33.5255   43.0324 H   0  0  0  0  0  0  0  0  0  0  0  0
   57.3205   33.7795   47.5435 H   0  0  0  0  0  0  0  0  0  0  0  0
   58.8492   33.5828   49.5048 H   0  0  0  0  0  0  0  0  0  0  0  0
   61.3208   33.5969   49.1708 H   0  0  0  0  0  0  0  0  0  0  0  0
   60.7491   33.9947   44.9021 H   0  0  0  0  0  0  0  0  0  0  0  0
  1  2  2  0
  2  3  2  0
  2  4  1  0
  4  5  1  0
  5  6  2  0
  6  7  1  0
  7  8  2  0
  8  9  1  0
  9 10  2  0
 10 11  1  0
  2 12  1  0
 12 13  2  0
 13 14  1  0
 14 15  2  0
 15 16  1  0
 16 17  1  0
 17 18  1  0
 18 19  2  0
 19 20  1  0
 20 21  2  0
 21 22  1  0
 22 23  1  0
 22 24  2  0
 15 25  1  0
 10  5  1  0
 25 12  1  0
 24 18  1  0
  6 26  1  0
  7 27  1  0
  8 28  1  0
  9 29  1  0
 16 30  1  0
 16 31  1  0
 19 32  1  0
 20 33  1  0
 21 34  1  0
 24 35  1  0
M  CHG  2   4  -1  11  -1
M  END
>  <UniqueID>  (26) 
23

>  <SMILES>  (26) 
O=S(=O)([N-]c1ccccc1[O-])c1nnc(COc2cccc(Br)c2)o1

>  <Energy>  (26) 
74.03991554902876

>  <Genealogy>  (26) 
O=S(=O)([N-]c1ccccc1[O-])c1nnc(COc2cccc(Br)c2)o1 (protonated)
O=S(=O)([N-]c1ccccc1[O-])c1nnc(COc2cccc(Br)c2)o1 (3D coordinates assigned)
O=S(=O)([N-]c1ccccc1[O-])c1nnc(COc2cccc(Br)c2)o1 (optimized conformer: 74.03991554902876 kcal/mol)

>  <smiles>  (26) 
O=S(=O)(Nc1ccccc1O)c1nnc(COc2cccc(Br)c2)o1

>  <score_type>  (26) 
oracle

>  <origin>  (26) 
adg

>  <m_score__min__energy>  (26) 
-14.859999999999999

>  <m_primary>  (26) 
energy

$$$$
26:0
     RDKit          3D

 45 47  0  0  1  0  0  0  0  0999 V2000
   57.3340   25.2760   44.6850 C   0  0  0  0  0  0  0  0  0  0  0  0
   57.9890   26.2080   45.6570 C   0  0  0  0  0  0  0  0  0  0  0  0
   58.6450   25.6540   46.7610 C   0  0  0  0  0  0  0  0  0  0  0  0
   59.2690   26.4620   47.6940 C   0  0  0  0  0  0  0  0  0  0  0  0
   59.2250   27.8280   47.5030 C   0  0  0  0  0  0  0  0  0  0  0  0
   59.8570   28.6970   48.4450 N   0  0  0  0  0  0  0  0  0  0  0  0
   59.3460   29.8450   48.6820 C   0  0  0  0  0  0  0  0  0  0  0  0
   59.4780   30.8790   47.7460 C   0  0  0  0  0  0  0  0  0  0  0  0
   58.9230   32.1250   48.0050 C   0  0  0  0  0  0  0  0  0  0  0  0
   59.0510   33.2100   47.0420 C   0  0  0  0  0  0  0  0  0  0  0  0
   59.8800   34.2970   47.2440 C   0  0  0  0  0  0  0  0  0  0  0  0
   59.9940   35.3290   46.3160 C   0  0  0  0  0  0  0  0  0  0  0  0
   59.2750   35.3030   45.1420 C   0  0  0  0  0  0  0  0  0  0  0  0
   58.4440   34.2270   44.9220 C   0  0  0  0  0  0  0  0  0  0  0  0
   58.3360   33.1950   45.8620 C   0  0  0  0  0  0  0  0  0  0  0  0
   58.2770   32.2470   49.1790 N   0  0  0  0  0  0  0  0  0  0  0  0
   58.1640   31.2330   50.0660 C   0  0  0  0  0  0  0  0  0  0  0  0
   57.5360   31.4040   51.1750 N   0  0  0  0  0  0  0  0  0  0  0  0
   58.6910   30.0190   49.8410 N   0  0  0  0  0  0  0  0  0  0  0  0
   58.5670   28.3600   46.3990 C   0  0  0  0  0  0  0  0  0  0  0  0
   57.9400   27.5750   45.4590 C   0  0  0  0  0  0  0  0  0  0  0  0
   57.2710   28.1310   44.3340 N   0  0  0  0  0  0  0  0  0  0  0  0
   56.6240   29.7170   44.4580 S   0  0  0  0  0  0  0  0  0  0  0  0
   56.8100   30.5650   42.9170 C   0  0  0  0  0  0  0  0  0  0  0  0
   57.3160   30.5230   45.5180 O   0  0  0  0  0  0  0  0  0  0  0  0
   55.1680   29.5870   44.8400 O   0  0  0  0  0  0  0  0  0  0  0  0
   56.7866   24.4970   45.2359 H   0  0  0  0  0  0  0  0  0  0  0  0
   56.6323   25.8396   44.0525 H   0  0  0  0  0  0  0  0  0  0  0  0
   58.1020   24.8067   44.0525 H   0  0  0  0  0  0  0  0  0  0  0  0
   58.6649   24.5616   46.8889 H   0  0  0  0  0  0  0  0  0  0  0  0
   59.7854   26.0284   48.5631 H   0  0  0  0  0  0  0  0  0  0  0  0
   60.0214   30.7037   46.8058 H   0  0  0  0  0  0  0  0  0  0  0  0
   60.4707   34.3489   48.1705 H   0  0  0  0  0  0  0  0  0  0  0  0
   60.6662   36.1747   46.5232 H   0  0  0  0  0  0  0  0  0  0  0  0
   59.3614   36.1145   44.4045 H   0  0  0  0  0  0  0  0  0  0  0  0
   57.8561   34.1776   43.9936 H   0  0  0  0  0  0  0  0  0  0  0  0
   57.6633   32.3498   45.6543 H   0  0  0  0  0  0  0  0  0  0  0  0
   57.8310   33.1430   49.4560 H   0  0  0  0  0  0  0  0  0  0  0  0
   56.6200   31.9020   51.1620 H   0  0  0  0  0  0  0  0  0  0  0  0
   58.5910   29.2530   50.5400 H   0  0  0  0  0  0  0  0  0  0  0  0
   58.5471   29.4525   46.2724 H   0  0  0  0  0  0  0  0  0  0  0  0
   57.1960   27.5570   43.4660 H   0  0  0  0  0  0  0  0  0  0  0  0
   57.0421   31.6234   43.1066 H   0  0  0  0  0  0  0  0  0  0  0  0
   57.6291   30.1071   42.3430 H   0  0  0  0  0  0  0  0  0  0  0  0
   55.8745   30.4919   42.3430 H   0  0  0  0  0  0  0  0  0  0  0  0
  1  2  1  0
  2  3  2  0
  3  4  1  0
  4  5  2  0
  5  6  1  0
  6  7  2  0
  7  8  1  0
  8  9  2  0
  9 10  1  0
 10 11  2  0
 11 12  1  0
 12 13  2  0
 13 14  1  0
 14 15  2  0
  9 16  1  0
 16 17  1  0
 17 18  2  3
 17 19  1  0
  5 20  1  0
 20 21  2  0
 21 22  1  0
 22 23  1  0
 23 24  1  0
 23 25  2  0
 23 26  2  0
 21  2  1  0
 19  7  1  0
 15 10  1  0
  1 27  1  0
  1 28  1  0
  1 29  1  0
  3 30  1  0
  4 31  1  0
  8 32  1  0
 11 33  1  0
 12 34  1  0
 13 35  1  0
 14 36  1  0
 15 37  1  0
 16 38  1  0
 18 39  1  0
 19 40  1  0
 20 41  1  0
 22 42  1  0
 24 43  1  0
 24 44  1  0
 24 45  1  0
M  END
>  <smiles>  (27) 
Cc1ccc(N=c2cc(-c3ccccc3)[nH]c(=N)[nH]2)cc1NS(C)(=O)=O

>  <score_type>  (27) 
oracle

>  <origin>  (27) 
adg

>  <m_score__min__energy>  (27) 
-8.9499999999999993

>  <m_primary>  (27) 
energy

$$$$
27:0
     RDKit          3D

 45 47  0  0  0  0  0  0  0  0999 V2000
   57.2760   26.9690   47.2680 O   0  0  0  0  0  0  0  0  0  0  0  0
   56.7220   26.4710   46.2510 C   0  0  0  0  0  0  0  0  0  0  0  0
   57.2770   26.7550   44.8930 C   0  0  0  0  0  0  0  0  0  0  0  0
   57.5240   28.1870   44.7500 N   0  0  0  0  0  0  0  0  0  0  0  0
   56.6200   29.1790   44.7750 C   0  0  0  0  0  0  0  0  0  0  0  0
   55.2460   28.9940   44.8790 O   0  0  0  0  0  0  0  0  0  0  0  0
   57.2750   30.3870   44.6680 C   0  0  0  0  0  0  0  0  0  0  0  0
   56.6390   31.7310   44.5140 C   0  0  0  0  0  0  0  0  0  0  0  0
   57.3240   32.6980   45.4260 C   0  0  0  0  0  0  0  0  0  0  0  0
   56.6710   33.6500   45.9330 O   0  0  0  0  0  0  0  0  0  0  0  0
   58.6890   32.4770   45.8030 N   0  0  0  0  0  0  0  0  0  0  0  0
   59.1560   32.7600   47.1560 C   0  0  0  0  0  0  0  0  0  0  0  0
   60.6620   32.7670   47.1770 C   0  0  0  0  0  0  0  0  0  0  0  0
   61.3710   33.8600   46.6500 C   0  0  0  0  0  0  0  0  0  0  0  0
   62.7680   33.8380   46.6010 C   0  0  0  0  0  0  0  0  0  0  0  0
   63.4670   32.7160   47.0580 C   0  0  0  0  0  0  0  0  0  0  0  0
   62.7690   31.6180   47.5720 C   0  0  0  0  0  0  0  0  0  0  0  0
   61.3720   31.6410   47.6300 C   0  0  0  0  0  0  0  0  0  0  0  0
   58.6050   30.1660   44.5620 N   0  0  0  0  0  0  0  0  0  0  0  0
   58.7110   28.8200   44.6330 C   0  0  0  0  0  0  0  0  0  0  0  0
   59.8180   28.2190   44.5850 O   0  0  0  0  0  0  0  0  0  0  0  0
   55.5670   25.6340   46.3770 N   0  0  0  0  0  0  0  0  0  0  0  0
   55.4850   24.2360   46.0600 C   0  0  0  0  0  0  0  0  0  0  0  0
   54.9350   23.2980   46.9540 C   0  0  0  0  0  0  0  0  0  0  0  0
   54.8980   21.9410   46.6150 C   0  0  0  0  0  0  0  0  0  0  0  0
   55.4190   21.5090   45.3920 C   0  0  0  0  0  0  0  0  0  0  0  0
   55.9860   22.4320   44.5090 C   0  0  0  0  0  0  0  0  0  0  0  0
   56.6520   21.8870   42.9790 Cl  0  0  0  0  0  0  0  0  0  0  0  0
   56.0260   23.7900   44.8470 C   0  0  0  0  0  0  0  0  0  0  0  0
   58.2215   26.2065   44.7623 H   0  0  0  0  0  0  0  0  0  0  0  0
   56.5532   26.4330   44.1298 H   0  0  0  0  0  0  0  0  0  0  0  0
   56.7403   32.0704   43.4726 H   0  0  0  0  0  0  0  0  0  0  0  0
   55.5710   31.6696   44.7700 H   0  0  0  0  0  0  0  0  0  0  0  0
   59.2880   31.8760   45.1930 H   0  0  0  0  0  0  0  0  0  0  0  0
   58.7804   33.7434   47.4752 H   0  0  0  0  0  0  0  0  0  0  0  0
   58.7837   31.9846   47.8417 H   0  0  0  0  0  0  0  0  0  0  0  0
   60.8240   34.7372   46.2742 H   0  0  0  0  0  0  0  0  0  0  0  0
   63.3178   34.7036   46.2028 H   0  0  0  0  0  0  0  0  0  0  0  0
   64.5659   32.6970   47.0132 H   0  0  0  0  0  0  0  0  0  0  0  0
   63.3195   30.7358   47.9308 H   0  0  0  0  0  0  0  0  0  0  0  0
   60.8262   30.7746   48.0317 H   0  0  0  0  0  0  0  0  0  0  0  0
   54.5332   23.6328   47.9217 H   0  0  0  0  0  0  0  0  0  0  0  0
   54.4581   21.2128   47.3123 H   0  0  0  0  0  0  0  0  0  0  0  0
   55.3827   20.4426   45.1246 H   0  0  0  0  0  0  0  0  0  0  0  0
   56.4853   24.5117   44.1555 H   0  0  0  0  0  0  0  0  0  0  0  0
  1  2  2  0
  2  3  1  0
  3  4  1  0
  4  5  1  0
  5  6  1  0
  5  7  2  0
  7  8  1  0
  8  9  1  0
  9 10  2  0
  9 11  1  0
 11 12  1  0
 12 13  1  0
 13 14  2  0
 14 15  1  0
 15 16  2  0
 16 17  1  0
 17 18  2  0
  7 19  1  0
 19 20  1  0
 20 21  2  0
  2 22  1  0
 22 23  1  0
 23 24  2  0
 24 25  1  0
 25 26  2  0
 26 27  1  0
 27 28  1  0
 27 29  2  0
 20  4  1  0
 29 23  1  0
 18 13  1  0
  3 30  1  0
  3 31  1  0
  8 32  1  0
  8 33  1  0
 11 34  1  0
 12 35  1  0
 12 36  1  0
 14 37  1  0
 15 38  1  0
 16 39  1  0
 17 40  1  0
 18 41  1  0
 24 42  1  0
 25 43  1  0
 26 44  1  0
 29 45  1  0
M  CHG  3   6  -1  19  -1  22  -1
M  END
>  <UniqueID>  (28) 
24

>  <SMILES>  (28) 
O=C(Cn1c([O-])c(CC(=O)NCc2ccccc2)[n-]c1=O)[N-]c1cccc(Cl)c1

>  <Energy>  (28) 
73.3441187679748

>  <Genealogy>  (28) 
O=C(Cn1c([O-])c(CC(=O)NCc2ccccc2)[n-]c1=O)[N-]c1cccc(Cl)c1 (protonated)
O=C(Cn1c([O-])c(CC(=O)NCc2ccccc2)[n-]c1=O)[N-]c1cccc(Cl)c1 (3D coordinates assigned)
O=C(Cn1c([O-])c(CC(=O)NCc2ccccc2)[n-]c1=O)[N-]c1cccc(Cl)c1 (optimized conformer: 73.3441187679748 kcal/mol)

>  <smiles>  (28) 
O=C(Cc1[nH]c(=O)n(CC(=O)Nc2cccc(Cl)c2)c1O)NCc1ccccc1

>  <score_type>  (28) 
oracle

>  <origin>  (28) 
adg

>  <m_score__min__energy>  (28) 
-15.48

>  <m_primary>  (28) 
energy

$$$$
28:0
     RDKit          3D

 38 40  0  0  0  0  0  0  0  0999 V2000
   55.9150   25.2100   47.1780 O   0  0  0  0  0  0  0  0  0  0  0  0
   55.9590   25.6020   45.9810 C   0  0  0  0  0  0  0  0  0  0  0  0
   55.6880   24.6360   44.8720 C   0  0  0  0  0  0  0  0  0  0  0  0
   54.5310   23.8110   45.2030 N   0  0  0  0  0  0  0  0  0  0  0  0
   54.3930   23.0000   46.2650 C   0  0  0  0  0  0  0  0  0  0  0  0
   53.1170   22.4830   46.2360 C   0  0  0  0  0  0  0  0  0  0  0  0
   52.4520   22.9750   45.1700 N   0  0  0  0  0  0  0  0  0  0  0  0
   53.3450   23.7860   44.5650 C   0  0  0  0  0  0  0  0  0  0  0  0
   56.2330   26.9710   45.6650 N   0  0  0  0  0  0  0  0  0  0  0  0
   57.5270   27.5860   45.5560 C   0  0  0  0  0  0  0  0  0  0  0  0
   58.6970   26.8310   45.7740 C   0  0  0  0  0  0  0  0  0  0  0  0
   59.9560   27.4120   45.6200 C   0  0  0  0  0  0  0  0  0  0  0  0
   60.0680   28.7430   45.2290 C   0  0  0  0  0  0  0  0  0  0  0  0
   58.9220   29.5000   44.9830 C   0  0  0  0  0  0  0  0  0  0  0  0
   57.6390   28.9370   45.1380 C   0  0  0  0  0  0  0  0  0  0  0  0
   56.4430   29.7810   44.8650 C   0  0  0  0  0  0  0  0  0  0  0  0
   55.2850   29.3410   45.1030 O   0  0  0  0  0  0  0  0  0  0  0  0
   56.6100   31.1230   44.3870 N   0  0  0  0  0  0  0  0  0  0  0  0
   57.3670   32.1660   45.0180 C   0  0  0  0  0  0  0  0  0  0  0  0
   57.7820   33.3140   44.3170 C   0  0  0  0  0  0  0  0  0  0  0  0
   58.5420   34.2960   44.9630 C   0  0  0  0  0  0  0  0  0  0  0  0
   58.9020   34.1360   46.3030 C   0  0  0  0  0  0  0  0  0  0  0  0
   58.5120   32.9860   47.0000 C   0  0  0  0  0  0  0  0  0  0  0  0
   58.9770   32.7770   48.6770 Cl  0  0  0  0  0  0  0  0  0  0  0  0
   57.7540   32.0020   46.3540 C   0  0  0  0  0  0  0  0  0  0  0  0
   55.4858   25.1925   43.9450 H   0  0  0  0  0  0  0  0  0  0  0  0
   56.5664   23.9885   44.7333 H   0  0  0  0  0  0  0  0  0  0  0  0
   55.1618   22.7870   47.0223 H   0  0  0  0  0  0  0  0  0  0  0  0
   52.7028   21.7764   46.9702 H   0  0  0  0  0  0  0  0  0  0  0  0
   53.1286   24.3620   43.6532 H   0  0  0  0  0  0  0  0  0  0  0  0
   58.6167   25.7741   46.0682 H   0  0  0  0  0  0  0  0  0  0  0  0
   60.8619   26.8170   45.8080 H   0  0  0  0  0  0  0  0  0  0  0  0
   61.0623   29.1992   45.1136 H   0  0  0  0  0  0  0  0  0  0  0  0
   59.0209   30.5482   44.6644 H   0  0  0  0  0  0  0  0  0  0  0  0
   57.5084   33.4397   43.2590 H   0  0  0  0  0  0  0  0  0  0  0  0
   58.8565   35.1959   44.4140 H   0  0  0  0  0  0  0  0  0  0  0  0
   59.4919   34.9134   46.8107 H   0  0  0  0  0  0  0  0  0  0  0  0
   57.4602   31.0933   46.8998 H   0  0  0  0  0  0  0  0  0  0  0  0
  1  2  2  0
  2  3  1  0
  3  4  1  0
  4  5  1  0
  5  6  2  0
  6  7  1  0
  7  8  2  0
  2  9  1  0
  9 10  1  0
 10 11  2  0
 11 12  1  0
 12 13  2  0
 13 14  1  0
 14 15  2  0
 15 16  1  0
 16 17  2  0
 16 18  1  0
 18 19  1  0
 19 20  2  0
 20 21  1  0
 21 22  2  0
 22 23  1  0
 23 24  1  0
 23 25  2  0
  8  4  1  0
 15 10  1  0
 25 19  1  0
  3 26  1  0
  3 27  1  0
  5 28  1  0
  6 29  1  0
  8 30  1  0
 11 31  1  0
 12 32  1  0
 13 33  1  0
 14 34  1  0
 20 35  1  0
 21 36  1  0
 22 37  1  0
 25 38  1  0
M  CHG  2   9  -1  18  -1
M  END
>  <UniqueID>  (29) 
25

>  <SMILES>  (29) 
O=C(Cn1ccnc1)[N-]c1ccccc1C(=O)[N-]c1cccc(Cl)c1

>  <Energy>  (29) 
77.60480820729882

>  <Genealogy>  (29) 
O=C(Cn1ccnc1)[N-]c1ccccc1C(=O)[N-]c1cccc(Cl)c1 (protonated)
O=C(Cn1ccnc1)[N-]c1ccccc1C(=O)[N-]c1cccc(Cl)c1 (3D coordinates assigned)
O=C(Cn1ccnc1)[N-]c1ccccc1C(=O)[N-]c1cccc(Cl)c1 (optimized conformer: 77.60480820729882 kcal/mol)

>  <smiles>  (29) 
O=C(Cn1ccnc1)Nc1ccccc1C(=O)Nc1cccc(Cl)c1

>  <score_type>  (29) 
oracle

>  <origin>  (29) 
adg

>  <m_score__min__energy>  (29) 
-12.050000000000001

>  <m_primary>  (29) 
energy

$$$$
29:0
     RDKit          3D

 26 26  0  0  0  0  0  0  0  0999 V2000
   55.9890   29.7410   43.0750 C   0  0  0  0  0  0  0  0  0  0  0  0
   56.8460   30.5060   43.7550 C   0  0  0  0  0  0  0  0  0  0  0  0
   57.4430   30.0640   45.0610 C   0  0  0  0  0  0  0  0  0  0  0  0
   56.8980   28.8050   45.4440 O   0  0  0  0  0  0  0  0  0  0  0  0
   57.6790   27.6700   45.7000 C   0  0  0  0  0  0  0  0  0  0  0  0
   58.3250   27.5780   46.7800 O   0  0  0  0  0  0  0  0  0  0  0  0
   57.7180   26.5530   44.7290 C   0  0  0  0  0  0  0  0  0  0  0  0
   58.0790   26.8480   43.3630 C   0  0  0  0  0  0  0  0  0  0  0  0
   58.3680   27.0850   42.2680 N   0  0  0  0  0  0  0  0  0  0  0  0
   57.4670   25.2730   45.0590 C   0  0  0  0  0  0  0  0  0  0  0  0
   56.1190   24.6620   45.0820 C   0  0  0  0  0  0  0  0  0  0  0  0
   55.0140   25.3630   45.6030 C   0  0  0  0  0  0  0  0  0  0  0  0
   55.1290   26.6690   46.0810 O   0  0  0  0  0  0  0  0  0  0  0  0
   53.7930   24.7660   45.6310 N   0  0  0  0  0  0  0  0  0  0  0  0
   53.6150   23.5000   45.1760 C   0  0  0  0  0  0  0  0  0  0  0  0
   52.4710   22.9770   45.2110 O   0  0  0  0  0  0  0  0  0  0  0  0
   54.6670   22.7980   44.6890 N   0  0  0  0  0  0  0  0  0  0  0  0
   55.9100   23.3420   44.6380 C   0  0  0  0  0  0  0  0  0  0  0  0
   56.8680   22.6500   44.2010 O   0  0  0  0  0  0  0  0  0  0  0  0
   55.5713   30.0967   42.1216 H   0  0  0  0  0  0  0  0  0  0  0  0
   55.7005   28.7550   43.4681 H   0  0  0  0  0  0  0  0  0  0  0  0
   57.1233   31.4892   43.3470 H   0  0  0  0  0  0  0  0  0  0  0  0
   58.5334   29.9704   44.9501 H   0  0  0  0  0  0  0  0  0  0  0  0
   57.2096   30.8094   45.8356 H   0  0  0  0  0  0  0  0  0  0  0  0
   58.3224   24.6368   45.3304 H   0  0  0  0  0  0  0  0  0  0  0  0
   55.1460   27.4770   45.4720 H   0  0  0  0  0  0  0  0  0  0  0  0
  1  2  2  0
  2  3  1  0
  3  4  1  0
  4  5  1  0
  5  6  2  0
  5  7  1  0
  7  8  1  0
  8  9  3  0
  7 10  2  3
 10 11  1  0
 11 12  2  0
 12 13  1  0
 12 14  1  0
 14 15  1  0
 15 16  2  0
 15 17  1  0
 17 18  1  0
 18 19  2  0
 18 11  1  0
  1 20  1  0
  1 21  1  0
  2 22  1  0
  3 23  1  0
  3 24  1  0
 10 25  1  0
 13 26  1  0
M  CHG  2  14  -1  17  -1
M  END
>  <UniqueID>  (30) 
26

>  <SMILES>  (30) 
C=CCOC(=O)C(C#N)=Cc1c(O)[n-]c(=O)[n-]c1=O

>  <Energy>  (30) 
30.761048935567104

>  <Genealogy>  (30) 
C=CCOC(=O)C(C#N)=Cc1c(O)[n-]c(=O)[n-]c1=O (protonated)
C=CCOC(=O)C(C#N)=Cc1c(O)[n-]c(=O)[n-]c1=O (3D coordinates assigned)
C=CCOC(=O)C(C#N)=Cc1c(O)[n-]c(=O)[n-]c1=O (optimized conformer: 30.761048935567104 kcal/mol)

>  <smiles>  (30) 
C=CCOC(=O)C(C#N)=Cc1c(O)[nH]c(=O)[nH]c1=O

>  <score_type>  (30) 
oracle

>  <origin>  (30) 
adg

>  <m_score__min__energy>  (30) 
-10.890000000000001

>  <m_primary>  (30) 
energy

$$$$
30:0
     RDKit          3D

 61 65  0  0  0  0  0  0  0  0999 V2000
   57.7010   32.5110   42.9170 O   0  0  0  0  0  0  0  0  0  0  0  0
   57.9430   31.9630   44.0260 C   0  0  0  0  0  0  0  0  0  0  0  0
   57.6300   30.6170   44.2110 C   0  0  0  0  0  0  0  0  0  0  0  0
   57.9030   30.0090   45.4500 C   0  0  0  0  0  0  0  0  0  0  0  0
   57.5840   28.5800   45.6950 C   0  0  0  0  0  0  0  0  0  0  0  0
   58.6030   27.6680   46.0360 C   0  0  0  0  0  0  0  0  0  0  0  0
   58.3070   26.3200   46.2520 C   0  0  0  0  0  0  0  0  0  0  0  0
   56.9950   25.8620   46.1250 C   0  0  0  0  0  0  0  0  0  0  0  0
   55.9740   26.7500   45.7780 C   0  0  0  0  0  0  0  0  0  0  0  0
   54.6710   26.2840   45.6520 O   0  0  0  0  0  0  0  0  0  0  0  0
   56.2620   28.1050   45.5610 C   0  0  0  0  0  0  0  0  0  0  0  0
   55.2250   28.9720   45.2270 O   0  0  0  0  0  0  0  0  0  0  0  0
   58.4620   30.7260   46.4240 O   0  0  0  0  0  0  0  0  0  0  0  0
   58.7760   32.0110   46.2920 C   0  0  0  0  0  0  0  0  0  0  0  0
   59.3570   32.6950   47.3640 C   0  0  0  0  0  0  0  0  0  0  0  0
   59.6880   34.0510   47.2530 C   0  0  0  0  0  0  0  0  0  0  0  0
   60.2600   34.6850   48.3690 O   0  0  0  0  0  0  0  0  0  0  0  0
   61.6330   34.6050   48.7530 C   0  0  0  0  0  0  0  0  0  0  0  0
   61.9690   33.2000   49.2640 C   0  0  0  0  0  0  0  0  0  0  0  0
   62.1200   32.2090   48.0990 C   0  0  0  0  0  0  0  0  0  0  0  0
   62.3690   30.8220   48.5670 N   0  0  0  0  0  0  0  0  0  0  0  0
   62.7930   30.7990   49.9930 C   0  0  0  0  0  0  0  0  0  0  0  0
   61.6440   30.5080   50.9830 C   0  0  0  0  0  0  0  0  0  0  0  0
   60.3490   30.8720   50.4010 N   0  0  0  0  0  0  0  0  0  0  0  0
   59.4490   31.7700   51.0780 C   0  0  0  0  0  0  0  0  0  0  0  0
   59.9190   32.9850   51.6060 C   0  0  0  0  0  0  0  0  0  0  0  0
   59.0470   33.8470   52.2770 C   0  0  0  0  0  0  0  0  0  0  0  0
   57.7040   33.5020   52.4330 C   0  0  0  0  0  0  0  0  0  0  0  0
   57.2290   32.2920   51.9240 C   0  0  0  0  0  0  0  0  0  0  0  0
   58.0960   31.4270   51.2510 C   0  0  0  0  0  0  0  0  0  0  0  0
   59.9830   30.3030   49.0980 C   0  0  0  0  0  0  0  0  0  0  0  0
   61.2440   29.8900   48.3230 C   0  0  0  0  0  0  0  0  0  0  0  0
   59.4430   34.7200   46.0370 C   0  0  0  0  0  0  0  0  0  0  0  0
   58.8650   34.0440   44.9590 C   0  0  0  0  0  0  0  0  0  0  0  0
   58.5250   32.6870   45.0780 C   0  0  0  0  0  0  0  0  0  0  0  0
   57.1739   30.0359   43.3959 H   0  0  0  0  0  0  0  0  0  0  0  0
   59.6404   28.0207   46.1329 H   0  0  0  0  0  0  0  0  0  0  0  0
   59.1096   25.6182   46.5227 H   0  0  0  0  0  0  0  0  0  0  0  0
   56.7645   24.8005   46.2983 H   0  0  0  0  0  0  0  0  0  0  0  0
   59.5564   32.1619   48.3053 H   0  0  0  0  0  0  0  0  0  0  0  0
   62.2657   34.8341   47.8828 H   0  0  0  0  0  0  0  0  0  0  0  0
   61.8185   35.3295   49.5596 H   0  0  0  0  0  0  0  0  0  0  0  0
   62.9130   33.2388   49.8273 H   0  0  0  0  0  0  0  0  0  0  0  0
   61.1472   32.8573   49.9099 H   0  0  0  0  0  0  0  0  0  0  0  0
   61.1956   32.2205   47.5029 H   0  0  0  0  0  0  0  0  0  0  0  0
   62.9881   32.5230   47.5008 H   0  0  0  0  0  0  0  0  0  0  0  0
   63.5599   30.0197   50.1138 H   0  0  0  0  0  0  0  0  0  0  0  0
   63.1715   31.8043   50.2298 H   0  0  0  0  0  0  0  0  0  0  0  0
   61.6410   29.4353   51.2263 H   0  0  0  0  0  0  0  0  0  0  0  0
   61.8023   31.1071   51.8919 H   0  0  0  0  0  0  0  0  0  0  0  0
   60.9781   33.2587   51.4906 H   0  0  0  0  0  0  0  0  0  0  0  0
   59.4201   34.7989   52.6828 H   0  0  0  0  0  0  0  0  0  0  0  0
   57.0188   34.1842   52.9576 H   0  0  0  0  0  0  0  0  0  0  0  0
   56.1712   32.0192   52.0528 H   0  0  0  0  0  0  0  0  0  0  0  0
   57.7184   30.4730   50.8545 H   0  0  0  0  0  0  0  0  0  0  0  0
   59.3471   29.4191   49.2538 H   0  0  0  0  0  0  0  0  0  0  0  0
   59.4383   31.0615   48.5167 H   0  0  0  0  0  0  0  0  0  0  0  0
   61.5427   28.8802   48.6410 H   0  0  0  0  0  0  0  0  0  0  0  0
   61.0080   29.9124   47.2488 H   0  0  0  0  0  0  0  0  0  0  0  0
   59.7088   35.7826   45.9356 H   0  0  0  0  0  0  0  0  0  0  0  0
   58.6760   34.5763   44.0151 H   0  0  0  0  0  0  0  0  0  0  0  0
  1  2  2  0
  2  3  1  0
  3  4  2  0
  4  5  1  0
  5  6  2  0
  6  7  1  0
  7  8  2  0
  8  9  1  0
  9 10  1  0
  9 11  2  0
 11 12  1  0
  4 13  1  0
 13 14  1  0
 14 15  2  0
 15 16  1  0
 16 17  1  0
 17 18  1  0
 18 19  1  0
 19 20  1  0
 20 21  1  0
 21 22  1  0
 22 23  1  0
 23 24  1  0
 24 25  1  0
 25 26  2  0
 26 27  1  0
 27 28  2  0
 28 29  1  0
 29 30  2  0
 24 31  1  0
 31 32  1  0
 16 33  2  0
 33 34  1  0
 34 35  2  0
 35  2  1  0
 11  5  1  0
 35 14  1  0
 32 21  1  0
 30 25  1  0
  3 36  1  0
  6 37  1  0
  7 38  1  0
  8 39  1  0
 15 40  1  0
 18 41  1  0
 18 42  1  0
 19 43  1  0
 19 44  1  0
 20 45  1  0
 20 46  1  0
 22 47  1  0
 22 48  1  0
 23 49  1  0
 23 50  1  0
 26 51  1  0
 27 52  1  0
 28 53  1  0
 29 54  1  0
 30 55  1  0
 31 56  1  0
 31 57  1  0
 32 58  1  0
 32 59  1  0
 33 60  1  0
 34 61  1  0
M  CHG  2  10  -1  12  -1
M  END
>  <UniqueID>  (31) 
27

>  <SMILES>  (31) 
O=c1cc(-c2cccc([O-])c2[O-])oc2cc(OCCCN3CCN(c4ccccc4)CC3)ccc12

>  <Energy>  (31) 
87.59194106936404

>  <Genealogy>  (31) 
O=c1cc(-c2cccc([O-])c2[O-])oc2cc(OCCCN3CCN(c4ccccc4)CC3)ccc12 (protonated)
O=c1cc(-c2cccc([O-])c2[O-])oc2cc(OCCCN3CCN(c4ccccc4)CC3)ccc12 (3D coordinates assigned)
O=c1cc(-c2cccc([O-])c2[O-])oc2cc(OCCCN3CCN(c4ccccc4)CC3)ccc12 (nonaromatic ring conformer: 87.59194106936404 kcal/mol)

>  <smiles>  (31) 
O=c1cc(-c2cccc(O)c2O)oc2cc(OCCCN3CCN(c4ccccc4)CC3)ccc12

>  <score_type>  (31) 
oracle

>  <origin>  (31) 
adg

>  <m_score__min__energy>  (31) 
-16.629999999999999

>  <m_primary>  (31) 
energy

$$$$
31:0
     RDKit          3D

 62 65  0  0  0  0  0  0  0  0999 V2000
   60.7890   29.1590   49.9010 O   0  0  0  0  0  0  0  0  0  0  0  0
   59.6010   29.0210   49.4970 C   0  0  0  0  0  0  0  0  0  0  0  0
   58.5190   29.8660   50.1160 C   0  0  0  0  0  0  0  0  0  0  0  0
   58.8300   31.3500   50.1230 C   0  0  0  0  0  0  0  0  0  0  0  0
   59.4870   31.9000   49.0060 C   0  0  0  0  0  0  0  0  0  0  0  0
   59.9070   33.2380   49.0050 C   0  0  0  0  0  0  0  0  0  0  0  0
   60.7830   33.8960   47.6180 S   0  0  0  0  0  0  0  0  0  0  0  0
   60.5520   33.0090   46.4250 O   0  0  0  0  0  0  0  0  0  0  0  0
   60.2450   35.2620   47.2930 O   0  0  0  0  0  0  0  0  0  0  0  0
   62.5000   34.0180   47.9350 N   0  0  0  0  0  0  0  0  0  0  0  0
   63.2780   33.0490   47.1320 C   0  0  0  0  0  0  0  0  0  0  0  0
   63.7660   31.8580   47.9780 C   0  0  0  0  0  0  0  0  0  0  0  0
   64.5840   32.2480   49.0740 O   0  0  0  0  0  0  0  0  0  0  0  0
   64.2240   33.5040   49.6440 C   0  0  0  0  0  0  0  0  0  0  0  0
   62.7640   33.9170   49.3850 C   0  0  0  0  0  0  0  0  0  0  0  0
   59.6550   34.0430   50.1240 C   0  0  0  0  0  0  0  0  0  0  0  0
   58.9980   33.5150   51.2350 C   0  0  0  0  0  0  0  0  0  0  0  0
   58.5930   32.1770   51.2470 C   0  0  0  0  0  0  0  0  0  0  0  0
   57.9600   31.7090   52.3520 F   0  0  0  0  0  0  0  0  0  0  0  0
   59.3150   27.9640   48.5700 N   0  0  0  0  0  0  0  0  0  0  0  0
   59.1340   28.0510   47.1470 C   0  0  0  0  0  0  0  0  0  0  0  0
   58.1510   28.8780   46.5740 C   0  0  0  0  0  0  0  0  0  0  0  0
   58.0520   29.0080   45.1820 C   0  0  0  0  0  0  0  0  0  0  0  0
   56.8140   30.0510   44.4710 S   0  0  0  0  0  0  0  0  0  0  0  0
   55.4690   29.6430   45.0060 O   0  0  0  0  0  0  0  0  0  0  0  0
   56.7940   29.8670   42.9790 O   0  0  0  0  0  0  0  0  0  0  0  0
   57.1000   31.7360   44.8370 N   0  0  0  0  0  0  0  0  0  0  0  0
   57.7700   31.8750   46.1390 C   0  0  0  0  0  0  0  0  0  0  0  0
   57.7640   33.3500   46.5800 C   0  0  0  0  0  0  0  0  0  0  0  0
   57.7260   34.3190   45.3850 C   0  0  0  0  0  0  0  0  0  0  0  0
   58.4650   33.7430   44.1760 C   0  0  0  0  0  0  0  0  0  0  0  0
   57.8910   32.3680   43.7580 C   0  0  0  0  0  0  0  0  0  0  0  0
   58.9510   28.3200   44.3570 C   0  0  0  0  0  0  0  0  0  0  0  0
   59.9350   27.5030   44.9180 C   0  0  0  0  0  0  0  0  0  0  0  0
   60.0320   27.3730   46.3070 C   0  0  0  0  0  0  0  0  0  0  0  0
   61.0240   26.5630   46.8510 O   0  0  0  0  0  0  0  0  0  0  0  0
   57.5895   29.7092   49.5490 H   0  0  0  0  0  0  0  0  0  0  0  0
   58.4294   29.5525   51.1666 H   0  0  0  0  0  0  0  0  0  0  0  0
   59.6734   31.2720   48.1223 H   0  0  0  0  0  0  0  0  0  0  0  0
   62.6416   32.6698   46.3188 H   0  0  0  0  0  0  0  0  0  0  0  0
   64.1626   33.5691   46.7358 H   0  0  0  0  0  0  0  0  0  0  0  0
   62.8877   31.3241   48.3697 H   0  0  0  0  0  0  0  0  0  0  0  0
   64.3784   31.2207   47.3232 H   0  0  0  0  0  0  0  0  0  0  0  0
   64.3790   33.4468   50.7315 H   0  0  0  0  0  0  0  0  0  0  0  0
   64.8582   34.2635   49.1635 H   0  0  0  0  0  0  0  0  0  0  0  0
   62.0924   33.1638   49.8228 H   0  0  0  0  0  0  0  0  0  0  0  0
   62.5870   34.8998   49.8463 H   0  0  0  0  0  0  0  0  0  0  0  0
   59.9765   35.0950   50.1261 H   0  0  0  0  0  0  0  0  0  0  0  0
   58.7973   34.1550   52.1069 H   0  0  0  0  0  0  0  0  0  0  0  0
   57.4540   29.4274   47.2239 H   0  0  0  0  0  0  0  0  0  0  0  0
   57.2396   31.2688   46.8881 H   0  0  0  0  0  0  0  0  0  0  0  0
   58.8105   31.5297   46.0481 H   0  0  0  0  0  0  0  0  0  0  0  0
   56.8780   33.5276   47.2073 H   0  0  0  0  0  0  0  0  0  0  0  0
   58.6949   33.5381   47.1351 H   0  0  0  0  0  0  0  0  0  0  0  0
   56.6778   34.5052   45.1084 H   0  0  0  0  0  0  0  0  0  0  0  0
   58.2234   35.2542   45.6816 H   0  0  0  0  0  0  0  0  0  0  0  0
   58.3674   34.4418   43.3321 H   0  0  0  0  0  0  0  0  0  0  0  0
   59.5207   33.6049   44.4525 H   0  0  0  0  0  0  0  0  0  0  0  0
   57.2430   32.5077   42.8802 H   0  0  0  0  0  0  0  0  0  0  0  0
   58.7391   31.7052   43.5312 H   0  0  0  0  0  0  0  0  0  0  0  0
   58.8817   28.4235   43.2641 H   0  0  0  0  0  0  0  0  0  0  0  0
   60.6353   26.9605   44.2658 H   0  0  0  0  0  0  0  0  0  0  0  0
  1  2  2  0
  2  3  1  0
  3  4  1  0
  4  5  2  0
  5  6  1  0
  6  7  1  0
  7  8  2  0
  7  9  2  0
  7 10  1  0
 10 11  1  0
 11 12  1  0
 12 13  1  0
 13 14  1  0
 14 15  1  0
  6 16  2  0
 16 17  1  0
 17 18  2  0
 18 19  1  0
  2 20  1  0
 20 21  1  0
 21 22  2  0
 22 23  1  0
 23 24  1  0
 24 25  2  0
 24 26  2  0
 24 27  1  0
 27 28  1  0
 28 29  1  0
 29 30  1  0
 30 31  1  0
 31 32  1  0
 23 33  2  0
 33 34  1  0
 34 35  2  0
 35 36  1  0
 18  4  1  0
 35 21  1  0
 15 10  1  0
 32 27  1  0
  3 37  1  0
  3 38  1  0
  5 39  1  0
 11 40  1  0
 11 41  1  0
 12 42  1  0
 12 43  1  0
 14 44  1  0
 14 45  1  0
 15 46  1  0
 15 47  1  0
 16 48  1  0
 17 49  1  0
 22 50  1  0
 28 51  1  0
 28 52  1  0
 29 53  1  0
 29 54  1  0
 30 55  1  0
 30 56  1  0
 31 57  1  0
 31 58  1  0
 32 59  1  0
 32 60  1  0
 33 61  1  0
 34 62  1  0
M  CHG  2  20  -1  36  -1
M  END
>  <UniqueID>  (32) 
28

>  <SMILES>  (32) 
O=C(Cc1cc(S(=O)(=O)N2CCOCC2)ccc1F)[N-]c1cc(S(=O)(=O)N2CCCCC2)ccc1[O-]

>  <Energy>  (32) 
83.7365773483881

>  <Genealogy>  (32) 
O=C(Cc1cc(S(=O)(=O)N2CCOCC2)ccc1F)[N-]c1cc(S(=O)(=O)N2CCCCC2)ccc1[O-] (protonated)
O=C(Cc1cc(S(=O)(=O)N2CCOCC2)ccc1F)[N-]c1cc(S(=O)(=O)N2CCCCC2)ccc1[O-] (3D coordinates assigned)
O=C(Cc1cc(S(=O)(=O)N2CCOCC2)ccc1F)[N-]c1cc(S(=O)(=O)N2CCCCC2)ccc1[O-] (nonaromatic ring conformer: 83.7365773483881 kcal/mol)

>  <smiles>  (32) 
O=C(Cc1cc(S(=O)(=O)N2CCOCC2)ccc1F)Nc1cc(S(=O)(=O)N2CCCCC2)ccc1O

>  <score_type>  (32) 
oracle

>  <origin>  (32) 
adg

>  <m_score__min__energy>  (32) 
-16.57

>  <m_primary>  (32) 
energy

$$$$
32:0
     RDKit          3D

 55 58  0  0  0  0  0  0  0  0999 V2000
   63.0582   30.5123   49.2783 H   0  0  0  0  0  0  0  0  0  0  0  0
   62.9140   31.6010   49.3410 C   0  0  0  0  0  0  0  0  0  0  0  0
   61.7200   32.1500   48.9900 N   0  0  0  0  0  0  0  0  0  0  0  0
   61.4940   33.4930   49.0570 C   0  0  0  0  0  0  0  0  0  0  0  0
   60.2290   34.0660   48.6840 N   0  0  0  0  0  0  0  0  0  0  0  0
   59.4930   33.7900   47.6460 C   0  0  0  0  0  0  0  0  0  0  0  0
   58.1990   33.4180   47.7710 N   0  0  0  0  0  0  0  0  0  0  0  0
   57.6240   33.1660   46.5660 C   0  0  0  0  0  0  0  0  0  0  0  0
   56.5752   32.8510   46.4621 H   0  0  0  0  0  0  0  0  0  0  0  0
   58.4660   33.3380   45.4780 C   0  0  0  0  0  0  0  0  0  0  0  0
   58.0340   33.0840   43.7630 S   0  0  0  0  0  0  0  0  0  0  0  0
   57.6660   31.3490   44.0080 C   0  0  0  0  0  0  0  0  0  0  0  0
   56.4440   30.8270   43.5720 C   0  0  0  0  0  0  0  0  0  0  0  0
   55.7277   31.4732   43.0436 H   0  0  0  0  0  0  0  0  0  0  0  0
   56.1320   29.4850   43.8070 C   0  0  0  0  0  0  0  0  0  0  0  0
   55.1729   29.0745   43.4582 H   0  0  0  0  0  0  0  0  0  0  0  0
   57.0380   28.6640   44.4850 C   0  0  0  0  0  0  0  0  0  0  0  0
   56.7901   27.6070   44.6620 H   0  0  0  0  0  0  0  0  0  0  0  0
   58.2630   29.1790   44.9420 C   0  0  0  0  0  0  0  0  0  0  0  0
   59.2230   28.2920   45.6420 C   0  0  0  0  0  0  0  0  0  0  0  0
   60.3760   28.1390   45.1580 O   0  0  0  0  0  0  0  0  0  0  0  0
   58.9020   27.6170   46.8650 N   0  0  0  0  0  0  0  0  0  0  0  0
   59.6910   27.6430   48.0950 C   0  0  0  0  0  0  0  0  0  0  0  0
   59.0920   27.2368   48.9233 H   0  0  0  0  0  0  0  0  0  0  0  0
   60.5961   27.0321   47.9625 H   0  0  0  0  0  0  0  0  0  0  0  0
   60.0920   29.0860   48.4150 C   0  0  0  0  0  0  0  0  0  0  0  0
   60.4933   29.1245   49.4384 H   0  0  0  0  0  0  0  0  0  0  0  0
   60.8473   29.3999   47.6795 H   0  0  0  0  0  0  0  0  0  0  0  0
   58.9020   30.0490   48.3130 C   0  0  0  0  0  0  0  0  0  0  0  0
   58.8341   30.4265   47.2820 H   0  0  0  0  0  0  0  0  0  0  0  0
   57.9885   29.5017   48.5886 H   0  0  0  0  0  0  0  0  0  0  0  0
   59.0540   31.1820   49.2260 N   0  0  0  0  0  0  0  0  0  0  0  0
   59.5420   32.0460   48.9030 H   0  0  0  0  0  0  0  0  0  0  0  0
   58.5360   31.1450   50.5630 C   0  0  0  0  0  0  0  0  0  0  0  0
   57.7290   30.2360   50.8960 O   0  0  0  0  0  0  0  0  0  0  0  0
   58.9110   32.1840   51.5490 C   0  0  0  0  0  0  0  0  0  0  0  0
   60.2690   32.4800   51.7650 C   0  0  0  0  0  0  0  0  0  0  0  0
   61.0421   31.9470   51.1920 H   0  0  0  0  0  0  0  0  0  0  0  0
   60.6430   33.4470   52.7030 C   0  0  0  0  0  0  0  0  0  0  0  0
   61.7078   33.6659   52.8714 H   0  0  0  0  0  0  0  0  0  0  0  0
   59.6660   34.1360   53.4270 C   0  0  0  0  0  0  0  0  0  0  0  0
   59.9619   34.8903   54.1710 H   0  0  0  0  0  0  0  0  0  0  0  0
   58.3130   33.8660   53.2050 C   0  0  0  0  0  0  0  0  0  0  0  0
   57.5452   34.4154   53.7695 H   0  0  0  0  0  0  0  0  0  0  0  0
   57.9310   32.9010   52.2690 C   0  0  0  0  0  0  0  0  0  0  0  0
   56.6080   32.7010   52.0410 F   0  0  0  0  0  0  0  0  0  0  0  0
   58.5820   30.5220   44.6700 C   0  0  0  0  0  0  0  0  0  0  0  0
   59.5575   30.9252   44.9794 H   0  0  0  0  0  0  0  0  0  0  0  0
   59.9790   33.8170   46.0270 S   0  0  0  0  0  0  0  0  0  0  0  0
   62.5210   34.3410   49.4900 C   0  0  0  0  0  0  0  0  0  0  0  0
   62.3566   35.4273   49.5437 H   0  0  0  0  0  0  0  0  0  0  0  0
   63.7550   33.7980   49.8530 C   0  0  0  0  0  0  0  0  0  0  0  0
   64.5670   34.4563   50.1953 H   0  0  0  0  0  0  0  0  0  0  0  0
   63.9570   32.4190   49.7810 C   0  0  0  0  0  0  0  0  0  0  0  0
   64.9251   31.9820   50.0671 H   0  0  0  0  0  0  0  0  0  0  0  0
  1  2  1  0
  2  3  2  0
  3  4  1  0
  4  5  1  0
  5  6  2  0
  6  7  1  0
  7  8  1  0
  8  9  1  0
  8 10  2  0
 10 11  1  0
 11 12  1  0
 12 13  2  0
 13 14  1  0
 13 15  1  0
 15 16  1  0
 15 17  2  0
 17 18  1  0
 17 19  1  0
 19 20  1  0
 20 21  2  0
 20 22  1  0
 22 23  1  0
 23 24  1  0
 23 25  1  0
 23 26  1  0
 26 27  1  0
 26 28  1  0
 26 29  1  0
 29 30  1  0
 29 31  1  0
 29 32  1  0
 32 33  1  0
 32 34  1  0
 34 35  2  0
 34 36  1  0
 36 37  2  0
 37 38  1  0
 37 39  1  0
 39 40  1  0
 39 41  2  0
 41 42  1  0
 41 43  1  0
 43 44  1  0
 43 45  2  0
 45 46  1  0
 19 47  2  0
 47 48  1  0
 10 49  1  0
  4 50  2  0
 50 51  1  0
 50 52  1  0
 52 53  1  0
 52 54  2  0
 54 55  1  0
 54  2  1  0
 49  6  1  0
 47 12  1  0
 45 36  1  0
M  CHG  2   7  -1  22  -1
M  END
>  <UniqueID>  (33) 
29

>  <SMILES>  (33) 
O=C([N-]CCCNC(=O)c1ccccc1F)c1cccc(Sc2c[n-]/c(=N/c3ccccn3)s2)c1

>  <Energy>  (33) 
91.70540175637403

>  <Genealogy>  (33) 
O=C([N-]CCCNC(=O)c1ccccc1F)c1cccc(Sc2c[n-]c(=Nc3ccccn3)s2)c1 (protonated)
O=C([N-]CCCNC(=O)c1ccccc1F)c1cccc(Sc2c[n-]/c(=N/c3ccccn3)s2)c1 (cis-trans isomerization)
O=C([N-]CCCNC(=O)c1ccccc1F)c1cccc(Sc2c[n-]/c(=N/c3ccccn3)s2)c1 (3D coordinates assigned)
O=C([N-]CCCNC(=O)c1ccccc1F)c1cccc(Sc2c[n-]/c(=N/c3ccccn3)s2)c1 (optimized conformer: 91.70540175637403 kcal/mol)

>  <smiles>  (33) 
O=C(NCCCNC(=O)c1ccccc1F)c1cccc(Sc2c[nH]c(=Nc3ccccn3)s2)c1

>  <score_type>  (33) 
oracle

>  <origin>  (33) 
adg

>  <m_score__min__energy>  (33) 
-12.27

>  <m_primary>  (33) 
energy

$$$$
33:0
     RDKit          3D

 36 38  0  0  0  0  0  0  0  0999 V2000
   55.1260   29.3800   44.8570 O   0  0  0  0  0  0  0  0  0  0  0  0
   56.3840   29.4110   44.8720 C   0  0  0  0  0  0  0  0  0  0  0  0
   57.1470   28.2290   44.3340 C   0  0  0  0  0  0  0  0  0  0  0  0
   57.4900   27.2450   45.4290 C   0  0  0  0  0  0  0  0  0  0  0  0
   58.8390   26.9900   45.7390 C   0  0  0  0  0  0  0  0  0  0  0  0
   59.1770   26.0770   46.7400 C   0  0  0  0  0  0  0  0  0  0  0  0
   58.1750   25.3970   47.4340 C   0  0  0  0  0  0  0  0  0  0  0  0
   56.8330   25.6240   47.1230 C   0  0  0  0  0  0  0  0  0  0  0  0
   56.4840   26.5360   46.1210 C   0  0  0  0  0  0  0  0  0  0  0  0
   55.1400   26.7280   45.8210 O   0  0  0  0  0  0  0  0  0  0  0  0
   57.0360   30.5960   45.3500 N   0  0  0  0  0  0  0  0  0  0  0  0
   58.4080   30.6850   45.8530 C   0  0  2  0  0  0  0  0  0  0  0  0
   58.5220   29.9200   47.1980 C   0  0  0  0  0  0  0  0  0  0  0  0
   59.7230   30.3180   48.0890 C   0  0  0  0  0  0  0  0  0  0  0  0
   61.1120   30.9980   47.1180 S   0  0  0  0  0  0  0  0  0  0  0  0
   60.1070   32.3820   46.5750 C   0  0  0  0  0  0  0  0  0  0  0  0
   60.5400   33.6940   46.7940 C   0  0  0  0  0  0  0  0  0  0  0  0
   59.7460   34.7680   46.3860 C   0  0  0  0  0  0  0  0  0  0  0  0
   58.5140   34.5320   45.7710 C   0  0  0  0  0  0  0  0  0  0  0  0
   58.0630   33.2230   45.5760 C   0  0  0  0  0  0  0  0  0  0  0  0
   58.8510   32.1320   45.9950 C   0  0  0  0  0  0  0  0  0  0  0  0
   56.5315   27.7209   43.5770 H   0  0  0  0  0  0  0  0  0  0  0  0
   58.0859   28.5961   43.8938 H   0  0  0  0  0  0  0  0  0  0  0  0
   59.6337   27.5143   45.1881 H   0  0  0  0  0  0  0  0  0  0  0  0
   60.2343   25.8935   46.9819 H   0  0  0  0  0  0  0  0  0  0  0  0
   58.4427   24.6822   48.2261 H   0  0  0  0  0  0  0  0  0  0  0  0
   56.0459   25.0830   47.6686 H   0  0  0  0  0  0  0  0  0  0  0  0
   59.0843   30.2144   45.1241 H   0  0  0  0  0  0  0  0  0  0  0  0
   57.6003   30.1010   47.7704 H   0  0  0  0  0  0  0  0  0  0  0  0
   58.6782   28.8638   46.9333 H   0  0  0  0  0  0  0  0  0  0  0  0
   59.3908   31.0783   48.8113 H   0  0  0  0  0  0  0  0  0  0  0  0
   60.0804   29.4100   48.5967 H   0  0  0  0  0  0  0  0  0  0  0  0
   61.5055   33.8797   47.2874 H   0  0  0  0  0  0  0  0  0  0  0  0
   60.0907   35.7998   46.5489 H   0  0  0  0  0  0  0  0  0  0  0  0
   57.8963   35.3794   45.4388 H   0  0  0  0  0  0  0  0  0  0  0  0
   57.0904   33.0441   45.0942 H   0  0  0  0  0  0  0  0  0  0  0  0
  1  2  2  0
  2  3  1  0
  3  4  1  0
  4  5  2  0
  5  6  1  0
  6  7  2  0
  7  8  1  0
  8  9  2  0
  9 10  1  0
  2 11  1  0
 11 12  1  0
 12 13  1  0
 13 14  1  0
 14 15  1  0
 15 16  1  0
 16 17  2  0
 17 18  1  0
 18 19  2  0
 19 20  1  0
 20 21  2  0
  9  4  1  0
 21 12  1  0
 21 16  1  0
  3 22  1  0
  3 23  1  0
  5 24  1  0
  6 25  1  0
  7 26  1  0
  8 27  1  0
 12 28  1  6
 13 29  1  0
 13 30  1  0
 14 31  1  0
 14 32  1  0
 17 33  1  0
 18 34  1  0
 19 35  1  0
 20 36  1  0
M  CHG  2  10  -1  11  -1
M  END
>  <UniqueID>  (34) 
30

>  <SMILES>  (34) 
O=C(Cc1ccccc1[O-])[N-][C@@H]1CCSc2ccccc21

>  <Energy>  (34) 
44.88707783102186

>  <Genealogy>  (34) 
O=C(Cc1ccccc1[O-])[N-]C1CCSc2ccccc21 (protonated)
O=C(Cc1ccccc1[O-])[N-][C@@H]1CCSc2ccccc21 (chirality)
O=C(Cc1ccccc1[O-])[N-][C@@H]1CCSc2ccccc21 (3D coordinates assigned)
O=C(Cc1ccccc1[O-])[N-][C@@H]1CCSc2ccccc21 (nonaromatic ring conformer: 44.88707783102186 kcal/mol)

>  <smiles>  (34) 
O=C(Cc1ccccc1O)NC1CCSc2ccccc21

>  <score_type>  (34) 
oracle

>  <origin>  (34) 
adg

>  <m_score__min__energy>  (34) 
-13.51

>  <m_primary>  (34) 
energy

$$$$
34:0
     RDKit          3D

 42 44  0  0  0  0  0  0  0  0999 V2000
   55.5560   29.0930   44.9690 O   0  0  0  0  0  0  0  0  0  0  0  0
   56.7850   29.1300   45.2420 C   0  0  0  0  0  0  0  0  0  0  0  0
   57.3570   28.2160   46.2940 C   0  0  0  0  0  0  0  0  0  0  0  0
   57.1890   26.8080   45.9260 N   0  0  0  0  0  0  0  0  0  0  0  0
   56.0230   26.1460   45.7700 C   0  0  0  0  0  0  0  0  0  0  0  0
   54.7700   26.7030   46.0060 O   0  0  0  0  0  0  0  0  0  0  0  0
   56.2550   24.8580   45.3390 C   0  0  0  0  0  0  0  0  0  0  0  0
   57.6230   24.7130   45.2510 C   0  0  0  0  0  0  0  0  0  0  0  0
   58.1680   25.9400   45.5880 C   0  0  0  0  0  0  0  0  0  0  0  0
   59.5220   26.2640   45.5720 O   0  0  0  0  0  0  0  0  0  0  0  0
   58.3010   23.4790   44.7350 C   0  0  0  0  0  0  0  0  0  0  0  0
   57.3410   22.2740   44.7950 C   0  0  0  0  0  0  0  0  0  0  0  0
   55.9370   22.6310   44.2610 C   0  0  0  0  0  0  0  0  0  0  0  0
   55.2770   23.7510   45.0890 C   0  0  0  0  0  0  0  0  0  0  0  0
   57.6180   30.0580   44.5380 N   0  0  0  0  0  0  0  0  0  0  0  0
   57.1630   31.3550   44.0530 C   0  0  0  0  0  0  0  0  0  0  0  0
   57.8570   32.4430   44.8200 C   0  0  0  0  0  0  0  0  0  0  0  0
   58.3800   33.5570   44.1470 C   0  0  0  0  0  0  0  0  0  0  0  0
   59.0550   34.5530   44.8560 C   0  0  0  0  0  0  0  0  0  0  0  0
   59.2230   34.4400   46.2390 C   0  0  0  0  0  0  0  0  0  0  0  0
   58.7210   33.3230   46.9290 C   0  0  0  0  0  0  0  0  0  0  0  0
   58.9090   33.2030   48.3910 C   0  0  0  0  0  0  0  0  0  0  0  0
   58.3490   32.2750   49.0360 O   0  0  0  0  0  0  0  0  0  0  0  0
   59.7070   34.1120   49.0770 O   0  0  0  0  0  0  0  0  0  0  0  0
   58.0410   32.3230   46.2080 C   0  0  0  0  0  0  0  0  0  0  0  0
   58.4297   28.4303   46.4097 H   0  0  0  0  0  0  0  0  0  0  0  0
   56.8199   28.3942   47.2373 H   0  0  0  0  0  0  0  0  0  0  0  0
   59.8370   27.1900   45.3090 H   0  0  0  0  0  0  0  0  0  0  0  0
   58.6105   23.6444   43.6925 H   0  0  0  0  0  0  0  0  0  0  0  0
   59.1803   23.2665   45.3609 H   0  0  0  0  0  0  0  0  0  0  0  0
   57.7563   21.4575   44.1861 H   0  0  0  0  0  0  0  0  0  0  0  0
   57.2391   21.9707   45.8474 H   0  0  0  0  0  0  0  0  0  0  0  0
   56.0277   22.9662   43.2173 H   0  0  0  0  0  0  0  0  0  0  0  0
   55.3050   21.7337   44.3348 H   0  0  0  0  0  0  0  0  0  0  0  0
   54.4122   24.1485   44.5375 H   0  0  0  0  0  0  0  0  0  0  0  0
   54.9504   23.3372   46.0545 H   0  0  0  0  0  0  0  0  0  0  0  0
   57.4001   31.4510   42.9832 H   0  0  0  0  0  0  0  0  0  0  0  0
   56.0755   31.4405   44.1946 H   0  0  0  0  0  0  0  0  0  0  0  0
   58.2581   33.6464   43.0574 H   0  0  0  0  0  0  0  0  0  0  0  0
   59.4556   35.4289   44.3246 H   0  0  0  0  0  0  0  0  0  0  0  0
   59.7518   35.2308   46.7913 H   0  0  0  0  0  0  0  0  0  0  0  0
   57.6505   31.4403   46.7356 H   0  0  0  0  0  0  0  0  0  0  0  0
  1  2  2  0
  2  3  1  0
  3  4  1  0
  4  5  1  0
  5  6  1  0
  5  7  2  0
  7  8  1  0
  8  9  2  0
  9 10  1  0
  8 11  1  0
 11 12  1  0
 12 13  1  0
 13 14  1  0
  2 15  1  0
 15 16  1  0
 16 17  1  0
 17 18  2  0
 18 19  1  0
 19 20  2  0
 20 21  1  0
 21 22  1  0
 22 23  2  0
 22 24  1  0
 21 25  2  0
  9  4  1  0
 25 17  1  0
 14  7  1  0
  3 26  1  0
  3 27  1  0
 10 28  1  0
 11 29  1  0
 11 30  1  0
 12 31  1  0
 12 32  1  0
 13 33  1  0
 13 34  1  0
 14 35  1  0
 14 36  1  0
 16 37  1  0
 16 38  1  0
 18 39  1  0
 19 40  1  0
 20 41  1  0
 25 42  1  0
M  CHG  3   6  -1  15  -1  24  -1
M  END
>  <UniqueID>  (35) 
31

>  <SMILES>  (35) 
O=C(Cn1c([O-])c2c(c1O)CCCC2)[N-]Cc1cccc(C(=O)[O-])c1

>  <Energy>  (35) 
68.75016029552607

>  <Genealogy>  (35) 
O=C(Cn1c([O-])c2c(c1O)CCCC2)[N-]Cc1cccc(C(=O)[O-])c1 (protonated)
O=C(Cn1c([O-])c2c(c1O)CCCC2)[N-]Cc1cccc(C(=O)[O-])c1 (3D coordinates assigned)
O=C(Cn1c([O-])c2c(c1O)CCCC2)[N-]Cc1cccc(C(=O)[O-])c1 (nonaromatic ring conformer: 68.75016029552607 kcal/mol)

>  <smiles>  (35) 
O=C(Cn1c(O)c2c(c1O)CCCC2)NCc1cccc(C(=O)O)c1

>  <score_type>  (35) 
oracle

>  <origin>  (35) 
adg

>  <m_score__min__energy>  (35) 
-13.720000000000001

>  <m_primary>  (35) 
energy

$$$$
35:0
     RDKit          3D

 42 44  0  0  0  0  0  0  0  0999 V2000
   53.8370   25.9660   46.3780 H   0  0  0  0  0  0  0  0  0  0  0  0
   54.5870   26.3200   45.7970 O   0  0  0  0  0  0  0  0  0  0  0  0
   55.8590   26.4230   46.3100 N   0  0  0  0  0  0  0  0  0  0  0  0
   56.8870   26.8020   45.6000 C   0  0  0  0  0  0  0  0  0  0  0  0
   57.7690   25.7760   44.9490 C   0  0  0  0  0  0  0  0  0  0  0  0
   58.6920   25.1440   45.6910 C   0  0  0  0  0  0  0  0  0  0  0  0
   58.7356   25.3144   46.7768 H   0  0  0  0  0  0  0  0  0  0  0  0
   59.4047   24.4557   45.2132 H   0  0  0  0  0  0  0  0  0  0  0  0
   57.7040   25.5440   43.4460 C   0  0  0  0  0  0  0  0  0  0  0  0
   58.3802   24.7140   43.1934 H   0  0  0  0  0  0  0  0  0  0  0  0
   56.6551   25.3211   43.2007 H   0  0  0  0  0  0  0  0  0  0  0  0
   58.1070   26.7650   42.6160 C   0  0  0  0  0  0  0  0  0  0  0  0
   58.3798   27.5916   43.2885 H   0  0  0  0  0  0  0  0  0  0  0  0
   58.9683   26.5090   41.9815 H   0  0  0  0  0  0  0  0  0  0  0  0
   57.2625   27.0720   41.9815 H   0  0  0  0  0  0  0  0  0  0  0  0
   57.1720   28.2710   45.4890 C   0  0  0  0  0  0  0  0  0  0  0  0
   56.4740   29.0590   44.5210 C   0  0  0  0  0  0  0  0  0  0  0  0
   55.7451   28.5740   43.8551 H   0  0  0  0  0  0  0  0  0  0  0  0
   56.7010   30.4400   44.4040 C   0  0  0  0  0  0  0  0  0  0  0  0
   56.1588   31.0437   43.6614 H   0  0  0  0  0  0  0  0  0  0  0  0
   57.6330   31.0190   45.2570 C   0  0  0  0  0  0  0  0  0  0  0  0
   58.1120   32.3040   45.3380 C   0  0  0  0  0  0  0  0  0  0  0  0
   57.8040   33.4490   44.6050 C   0  0  0  0  0  0  0  0  0  0  0  0
   57.0122   33.4404   43.8415 H   0  0  0  0  0  0  0  0  0  0  0  0
   58.5410   34.6150   44.8760 C   0  0  0  0  0  0  0  0  0  0  0  0
   58.3197   35.5409   44.3248 H   0  0  0  0  0  0  0  0  0  0  0  0
   59.5640   34.6070   45.8510 C   0  0  0  0  0  0  0  0  0  0  0  0
   60.1373   35.5255   46.0453 H   0  0  0  0  0  0  0  0  0  0  0  0
   59.8570   33.4390   46.5750 C   0  0  0  0  0  0  0  0  0  0  0  0
   60.6540   33.4282   47.3331 H   0  0  0  0  0  0  0  0  0  0  0  0
   59.1060   32.2900   46.3040 C   0  0  0  0  0  0  0  0  0  0  0  0
   59.2280   31.0560   46.8560 N   0  0  0  0  0  0  0  0  0  0  0  0
   60.2500   30.6090   47.8140 C   0  0  0  0  0  0  0  0  0  0  0  0
   60.7751   29.7339   47.4036 H   0  0  0  0  0  0  0  0  0  0  0  0
   60.9641   31.4278   47.9862 H   0  0  0  0  0  0  0  0  0  0  0  0
   59.5980   30.2300   49.1380 C   0  0  0  0  0  0  0  0  0  0  0  0
   60.2202   30.5917   49.9699 H   0  0  0  0  0  0  0  0  0  0  0  0
   58.6002   30.6888   49.2000 H   0  0  0  0  0  0  0  0  0  0  0  0
   59.5029   29.1359   49.2000 H   0  0  0  0  0  0  0  0  0  0  0  0
   58.3330   30.2810   46.1930 C   0  0  0  0  0  0  0  0  0  0  0  0
   58.0960   28.9140   46.3520 C   0  0  0  0  0  0  0  0  0  0  0  0
   58.6181   28.3443   47.1349 H   0  0  0  0  0  0  0  0  0  0  0  0
  1  2  1  0
  2  3  1  0
  3  4  2  0
  4  5  1  0
  5  6  2  0
  6  7  1  0
  6  8  1  0
  5  9  1  0
  9 10  1  0
  9 11  1  0
  9 12  1  0
 12 13  1  0
 12 14  1  0
 12 15  1  0
  4 16  1  0
 16 17  2  0
 17 18  1  0
 17 19  1  0
 19 20  1  0
 19 21  2  0
 21 22  1  0
 22 23  2  0
 23 24  1  0
 23 25  1  0
 25 26  1  0
 25 27  2  0
 27 28  1  0
 27 29  1  0
 29 30  1  0
 29 31  2  0
 31 32  1  0
 32 33  1  0
 33 34  1  0
 33 35  1  0
 33 36  1  0
 36 37  1  0
 36 38  1  0
 36 39  1  0
 32 40  1  0
 40 41  2  0
 41 42  1  0
 41 16  1  0
 40 21  1  0
 31 22  1  0
M  END
>  <UniqueID>  (36) 
32

>  <SMILES>  (36) 
C=C(CC)/C(=N\O)c1ccc2c3ccccc3n(CC)c2c1

>  <Energy>  (36) 
88.01404045989484

>  <Genealogy>  (36) 
C=C(CC)/C(=N\O)c1ccc2c3ccccc3n(CC)c2c1 (cis-trans isomerization)
C=C(CC)/C(=N\O)c1ccc2c3ccccc3n(CC)c2c1 (3D coordinates assigned)
C=C(CC)/C(=N\O)c1ccc2c3ccccc3n(CC)c2c1 (optimized conformer: 88.01404045989484 kcal/mol)

>  <smiles>  (36) 
C=C(CC)C(=NO)c1ccc2c3ccccc3n(CC)c2c1

>  <score_type>  (36) 
oracle

>  <origin>  (36) 
adg

>  <m_score__min__energy>  (36) 
-9.6300000000000008

>  <m_primary>  (36) 
energy

$$$$
36:0
     RDKit          3D

 53 56  0  0  0  0  0  0  0  0999 V2000
   56.2770   30.4030   52.4700 C   0  0  0  0  0  0  0  0  0  0  0  0
   57.3520   30.0990   51.5840 O   0  0  0  0  0  0  0  0  0  0  0  0
   58.1610   31.0550   50.9500 C   0  0  0  0  0  0  0  0  0  0  0  0
   58.2340   32.3380   51.5090 C   0  0  0  0  0  0  0  0  0  0  0  0
   59.0260   33.3290   50.9210 C   0  0  0  0  0  0  0  0  0  0  0  0
   59.7610   33.0480   49.7550 C   0  0  0  0  0  0  0  0  0  0  0  0
   60.5760   34.1310   49.0890 C   0  0  0  0  0  0  0  0  0  0  0  0
   60.7330   33.8450   47.6560 N   0  0  0  0  0  0  0  0  0  0  0  0
   62.0280   33.4550   47.1540 C   0  0  0  0  0  0  0  0  0  0  0  0
   62.6440   34.2190   46.3570 O   0  0  0  0  0  0  0  0  0  0  0  0
   62.6230   32.1090   47.4690 C   0  0  0  0  0  0  0  0  0  0  0  0
   63.3980   32.1800   48.7570 C   0  0  0  0  0  0  0  0  0  0  0  0
   64.4870   33.0630   48.8820 C   0  0  0  0  0  0  0  0  0  0  0  0
   65.2270   33.1020   50.0700 C   0  0  0  0  0  0  0  0  0  0  0  0
   64.8930   32.2580   51.1340 C   0  0  0  0  0  0  0  0  0  0  0  0
   63.8230   31.3650   51.0110 C   0  0  0  0  0  0  0  0  0  0  0  0
   63.0770   31.3240   49.8270 C   0  0  0  0  0  0  0  0  0  0  0  0
   59.6270   34.0720   46.7590 C   0  0  0  0  0  0  0  0  0  0  0  0
   59.2750   35.2530   46.4890 O   0  0  0  0  0  0  0  0  0  0  0  0
   58.9070   32.9410   46.1210 C   0  0  0  0  0  0  0  0  0  0  0  0
   59.5430   31.6940   46.0070 C   0  0  0  0  0  0  0  0  0  0  0  0
   58.8600   30.6010   45.4590 C   0  0  0  0  0  0  0  0  0  0  0  0
   59.4640   29.3380   45.3640 C   0  0  0  0  0  0  0  0  0  0  0  0
   58.7510   28.2600   44.8260 C   0  0  0  0  0  0  0  0  0  0  0  0
   57.4380   28.4410   44.3770 C   0  0  0  0  0  0  0  0  0  0  0  0
   56.8310   29.6980   44.4660 C   0  0  0  0  0  0  0  0  0  0  0  0
   57.5360   30.7800   45.0060 C   0  0  0  0  0  0  0  0  0  0  0  0
   56.9480   32.0030   45.0990 N   0  0  0  0  0  0  0  0  0  0  0  0
   57.5910   33.0760   45.6320 C   0  0  0  0  0  0  0  0  0  0  0  0
   57.0020   34.1900   45.6650 O   0  0  0  0  0  0  0  0  0  0  0  0
   59.6870   31.7630   49.1880 C   0  0  0  0  0  0  0  0  0  0  0  0
   58.8950   30.7710   49.7810 C   0  0  0  0  0  0  0  0  0  0  0  0
   56.6207   30.3058   53.5104 H   0  0  0  0  0  0  0  0  0  0  0  0
   55.9349   31.4331   52.2916 H   0  0  0  0  0  0  0  0  0  0  0  0
   55.4461   29.7046   52.2916 H   0  0  0  0  0  0  0  0  0  0  0  0
   57.6621   32.5679   52.4201 H   0  0  0  0  0  0  0  0  0  0  0  0
   59.0745   34.3313   51.3716 H   0  0  0  0  0  0  0  0  0  0  0  0
   60.0646   35.0971   49.2120 H   0  0  0  0  0  0  0  0  0  0  0  0
   61.5708   34.1681   49.5569 H   0  0  0  0  0  0  0  0  0  0  0  0
   61.8162   31.3681   47.5692 H   0  0  0  0  0  0  0  0  0  0  0  0
   63.3007   31.8132   46.6546 H   0  0  0  0  0  0  0  0  0  0  0  0
   64.7572   33.7236   48.0449 H   0  0  0  0  0  0  0  0  0  0  0  0
   66.0731   33.7982   50.1667 H   0  0  0  0  0  0  0  0  0  0  0  0
   65.4721   32.2963   52.0684 H   0  0  0  0  0  0  0  0  0  0  0  0
   63.5677   30.6947   51.8450 H   0  0  0  0  0  0  0  0  0  0  0  0
   62.2369   30.6202   49.7327 H   0  0  0  0  0  0  0  0  0  0  0  0
   60.5816   31.5753   46.3494 H   0  0  0  0  0  0  0  0  0  0  0  0
   60.4976   29.1950   45.7122 H   0  0  0  0  0  0  0  0  0  0  0  0
   59.2236   27.2692   44.7561 H   0  0  0  0  0  0  0  0  0  0  0  0
   56.8816   27.5922   43.9528 H   0  0  0  0  0  0  0  0  0  0  0  0
   55.7990   29.8364   44.1114 H   0  0  0  0  0  0  0  0  0  0  0  0
   60.2543   31.5355   48.2735 H   0  0  0  0  0  0  0  0  0  0  0  0
   58.8460   29.7676   49.3328 H   0  0  0  0  0  0  0  0  0  0  0  0
  1  2  1  0
  2  3  1  0
  3  4  2  0
  4  5  1  0
  5  6  2  0
  6  7  1  0
  7  8  1  0
  8  9  1  0
  9 10  2  0
  9 11  1  0
 11 12  1  0
 12 13  2  0
 13 14  1  0
 14 15  2  0
 15 16  1  0
 16 17  2  0
  8 18  1  0
 18 19  2  0
 18 20  1  0
 20 21  2  0
 21 22  1  0
 22 23  2  0
 23 24  1  0
 24 25  2  0
 25 26  1  0
 26 27  2  0
 27 28  1  0
 28 29  1  0
 29 30  2  0
  6 31  1  0
 31 32  2  0
 32  3  1  0
 17 12  1  0
 29 20  1  0
 27 22  1  0
  1 33  1  0
  1 34  1  0
  1 35  1  0
  4 36  1  0
  5 37  1  0
  7 38  1  0
  7 39  1  0
 11 40  1  0
 11 41  1  0
 13 42  1  0
 14 43  1  0
 15 44  1  0
 16 45  1  0
 17 46  1  0
 21 47  1  0
 23 48  1  0
 24 49  1  0
 25 50  1  0
 26 51  1  0
 31 52  1  0
 32 53  1  0
M  CHG  1  28  -1
M  END
>  <UniqueID>  (37) 
33

>  <SMILES>  (37) 
COc1ccc(CN(C(=O)Cc2ccccc2)C(=O)c2cc3ccccc3[n-]c2=O)cc1

>  <Energy>  (37) 
64.20213062856152

>  <Genealogy>  (37) 
COc1ccc(CN(C(=O)Cc2ccccc2)C(=O)c2cc3ccccc3[n-]c2=O)cc1 (protonated)
COc1ccc(CN(C(=O)Cc2ccccc2)C(=O)c2cc3ccccc3[n-]c2=O)cc1 (3D coordinates assigned)
COc1ccc(CN(C(=O)Cc2ccccc2)C(=O)c2cc3ccccc3[n-]c2=O)cc1 (optimized conformer: 64.20213062856152 kcal/mol)

>  <smiles>  (37) 
COc1ccc(CN(C(=O)Cc2ccccc2)C(=O)c2cc3ccccc3[nH]c2=O)cc1

>  <score_type>  (37) 
oracle

>  <origin>  (37) 
adg

>  <m_score__min__energy>  (37) 
-11.24

>  <m_primary>  (37) 
energy

$$$$
37:0
     RDKit          3D

 49 52  0  0  0  0  0  0  0  0999 V2000
   59.1980   27.7320   47.2180 O   0  0  0  0  0  0  0  0  0  0  0  0
   58.0590   27.8950   46.7000 C   0  0  0  0  0  0  0  0  0  0  0  0
   57.0110   26.9570   46.9710 N   0  0  0  0  0  0  0  0  0  0  0  0
   56.7480   25.7870   46.1860 C   0  0  0  0  0  0  0  0  0  0  0  0
   57.8180   24.9610   45.8160 C   0  0  0  0  0  0  0  0  0  0  0  0
   57.5990   23.8360   45.0150 C   0  0  0  0  0  0  0  0  0  0  0  0
   56.3100   23.5420   44.5580 C   0  0  0  0  0  0  0  0  0  0  0  0
   55.2400   24.3710   44.9050 C   0  0  0  0  0  0  0  0  0  0  0  0
   55.4540   25.4980   45.7050 C   0  0  0  0  0  0  0  0  0  0  0  0
   54.3830   26.3410   45.9900 O   0  0  0  0  0  0  0  0  0  0  0  0
   57.8420   28.9620   45.7020 C   0  0  0  0  0  0  0  0  0  0  0  0
   56.5280   29.1310   45.2290 C   0  0  0  0  0  0  0  0  0  0  0  0
   56.2280   30.1090   44.2840 C   0  0  0  0  0  0  0  0  0  0  0  0
   57.2310   30.9450   43.8020 C   0  0  0  0  0  0  0  0  0  0  0  0
   58.5370   30.8100   44.2670 C   0  0  0  0  0  0  0  0  0  0  0  0
   58.8760   29.8260   45.2240 C   0  0  0  0  0  0  0  0  0  0  0  0
   60.2840   29.7860   45.7210 C   0  0  0  0  0  0  0  0  0  0  0  0
   61.1310   29.0080   45.2080 O   0  0  0  0  0  0  0  0  0  0  0  0
   60.7000   30.6840   46.7630 N   0  0  0  0  0  0  0  0  0  0  0  0
   60.0850   30.8440   48.0520 C   0  0  0  0  0  0  0  0  0  0  0  0
   60.3600   29.9590   49.1130 C   0  0  0  0  0  0  0  0  0  0  0  0
   59.7340   30.1260   50.3510 C   0  0  0  0  0  0  0  0  0  0  0  0
   58.8240   31.1680   50.5390 C   0  0  0  0  0  0  0  0  0  0  0  0
   58.5270   32.0370   49.4880 C   0  0  0  0  0  0  0  0  0  0  0  0
   59.1480   31.8780   48.2340 C   0  0  0  0  0  0  0  0  0  0  0  0
   58.8490   32.7420   47.1300 N   0  0  0  0  0  0  0  0  0  0  0  0
   59.8150   34.0860   46.6210 S   0  0  0  0  0  0  0  0  0  0  0  0
   59.2700   35.3620   47.1970 O   0  0  0  0  0  0  0  0  0  0  0  0
   59.8230   34.1800   45.1200 O   0  0  0  0  0  0  0  0  0  0  0  0
   61.4570   33.8610   47.1940 C   0  0  0  0  0  0  0  0  0  0  0  0
   62.5690   33.6400   46.3980 C   0  0  0  0  0  0  0  0  0  0  0  0
   63.7470   33.4910   47.1370 C   0  0  0  0  0  0  0  0  0  0  0  0
   63.5630   33.6080   48.5110 C   0  0  0  0  0  0  0  0  0  0  0  0
   61.9290   33.8930   48.8050 S   0  0  0  0  0  0  0  0  0  0  0  0
   58.8361   25.1991   46.1577 H   0  0  0  0  0  0  0  0  0  0  0  0
   58.4408   23.1818   44.7441 H   0  0  0  0  0  0  0  0  0  0  0  0
   56.1387   22.6584   43.9256 H   0  0  0  0  0  0  0  0  0  0  0  0
   54.2264   24.1365   44.5479 H   0  0  0  0  0  0  0  0  0  0  0  0
   55.7264   28.4817   45.6108 H   0  0  0  0  0  0  0  0  0  0  0  0
   55.1968   30.2209   43.9180 H   0  0  0  0  0  0  0  0  0  0  0  0
   56.9918   31.7137   43.0524 H   0  0  0  0  0  0  0  0  0  0  0  0
   59.3190   31.4813   43.8826 H   0  0  0  0  0  0  0  0  0  0  0  0
   61.0709   29.1326   48.9662 H   0  0  0  0  0  0  0  0  0  0  0  0
   59.9583   29.4361   51.1779 H   0  0  0  0  0  0  0  0  0  0  0  0
   58.3401   31.3044   51.5174 H   0  0  0  0  0  0  0  0  0  0  0  0
   57.8033   32.8513   49.6401 H   0  0  0  0  0  0  0  0  0  0  0  0
   62.5296   33.5872   45.3000 H   0  0  0  0  0  0  0  0  0  0  0  0
   64.7268   33.2993   46.6753 H   0  0  0  0  0  0  0  0  0  0  0  0
   64.3502   33.5280   49.2751 H   0  0  0  0  0  0  0  0  0  0  0  0
  1  2  2  0
  2  3  1  0
  3  4  1  0
  4  5  2  0
  5  6  1  0
  6  7  2  0
  7  8  1  0
  8  9  2  0
  9 10  1  0
  2 11  1  0
 11 12  2  0
 12 13  1  0
 13 14  2  0
 14 15  1  0
 15 16  2  0
 16 17  1  0
 17 18  2  0
 17 19  1  0
 19 20  1  0
 20 21  2  0
 21 22  1  0
 22 23  2  0
 23 24  1  0
 24 25  2  0
 25 26  1  0
 26 27  1  0
 27 28  2  0
 27 29  2  0
 27 30  1  0
 30 31  2  0
 31 32  1  0
 32 33  2  0
 33 34  1  0
  9  4  1  0
 16 11  1  0
 25 20  1  0
 34 30  1  0
  5 35  1  0
  6 36  1  0
  7 37  1  0
  8 38  1  0
 12 39  1  0
 13 40  1  0
 14 41  1  0
 15 42  1  0
 21 43  1  0
 22 44  1  0
 23 45  1  0
 24 46  1  0
 31 47  1  0
 32 48  1  0
 33 49  1  0
M  CHG  4   3  -1  10  -1  19  -1  26  -1
M  END
>  <UniqueID>  (38) 
34

>  <SMILES>  (38) 
O=C([N-]c1ccccc1[O-])c1ccccc1C(=O)[N-]c1ccccc1[N-]S(=O)(=O)c1cccs1

>  <Energy>  (38) 
105.19178843787176

>  <Genealogy>  (38) 
O=C([N-]c1ccccc1[O-])c1ccccc1C(=O)[N-]c1ccccc1[N-]S(=O)(=O)c1cccs1 (protonated)
O=C([N-]c1ccccc1[O-])c1ccccc1C(=O)[N-]c1ccccc1[N-]S(=O)(=O)c1cccs1 (3D coordinates assigned)
O=C([N-]c1ccccc1[O-])c1ccccc1C(=O)[N-]c1ccccc1[N-]S(=O)(=O)c1cccs1 (optimized conformer: 105.19178843787176 kcal/mol)

>  <smiles>  (38) 
O=C(Nc1ccccc1O)c1ccccc1C(=O)Nc1ccccc1NS(=O)(=O)c1cccs1

>  <score_type>  (38) 
oracle

>  <origin>  (38) 
adg

>  <m_score__min__energy>  (38) 
-17.23

>  <m_primary>  (38) 
energy

$$$$
38:0
     RDKit          3D

 31 33  0  0  0  0  0  0  0  0999 V2000
   58.4560   32.3120   43.0500 O   0  0  0  0  0  0  0  0  0  0  0  0
   57.6140   31.6780   43.7410 C   0  0  0  0  0  0  0  0  0  0  0  0
   56.6510   30.7610   43.0580 C   0  0  0  0  0  0  0  0  0  0  0  0
   56.2480   29.4050   44.1380 Cl  0  0  0  0  0  0  0  0  0  0  0  0
   57.5110   31.8990   45.1570 N   0  0  0  0  0  0  0  0  0  0  0  0
   58.4870   32.6110   45.9360 C   0  0  0  0  0  0  0  0  0  0  0  0
   58.3260   34.0080   46.1360 C   0  0  0  0  0  0  0  0  0  0  0  0
   59.2470   34.7390   46.9130 C   0  0  0  0  0  0  0  0  0  0  0  0
   60.3030   34.0360   47.4790 C   0  0  0  0  0  0  0  0  0  0  0  0
   61.2930   34.4870   48.2610 N   0  0  0  0  0  0  0  0  0  0  0  0
   62.0240   33.4090   48.5450 N   0  0  0  0  0  0  0  0  0  0  0  0
   63.2030   33.4390   49.3710 C   0  0  0  0  0  0  0  0  0  0  0  0
   63.2150   34.1700   50.5730 C   0  0  0  0  0  0  0  0  0  0  0  0
   64.3600   34.1980   51.3740 C   0  0  0  0  0  0  0  0  0  0  0  0
   65.5070   33.4990   50.9850 C   0  0  0  0  0  0  0  0  0  0  0  0
   66.9430   33.5360   51.9910 Cl  0  0  0  0  0  0  0  0  0  0  0  0
   65.5060   32.7690   49.7920 C   0  0  0  0  0  0  0  0  0  0  0  0
   64.3620   32.7380   48.9890 C   0  0  0  0  0  0  0  0  0  0  0  0
   61.5430   32.2990   47.9850 N   0  0  0  0  0  0  0  0  0  0  0  0
   60.4560   32.6970   47.3090 C   0  0  0  0  0  0  0  0  0  0  0  0
   59.5710   31.9370   46.5520 C   0  0  0  0  0  0  0  0  0  0  0  0
   55.7339   31.3142   42.8074 H   0  0  0  0  0  0  0  0  0  0  0  0
   57.1092   30.3706   42.1373 H   0  0  0  0  0  0  0  0  0  0  0  0
   56.6320   31.5920   45.6320 H   0  0  0  0  0  0  0  0  0  0  0  0
   57.4707   34.5265   45.6781 H   0  0  0  0  0  0  0  0  0  0  0  0
   59.1342   35.8226   47.0651 H   0  0  0  0  0  0  0  0  0  0  0  0
   62.3169   34.7234   50.8846 H   0  0  0  0  0  0  0  0  0  0  0  0
   64.3589   34.7713   52.3128 H   0  0  0  0  0  0  0  0  0  0  0  0
   66.4072   32.2181   49.4849 H   0  0  0  0  0  0  0  0  0  0  0  0
   64.3678   32.1617   48.0521 H   0  0  0  0  0  0  0  0  0  0  0  0
   59.7074   30.8517   46.4355 H   0  0  0  0  0  0  0  0  0  0  0  0
  1  2  2  0
  2  3  1  0
  3  4  1  0
  2  5  1  0
  5  6  1  0
  6  7  1  0
  7  8  2  0
  8  9  1  0
  9 10  2  0
 10 11  1  0
 11 12  1  0
 12 13  2  0
 13 14  1  0
 14 15  2  0
 15 16  1  0
 15 17  1  0
 17 18  2  0
 11 19  1  0
 19 20  2  0
 20 21  1  0
 21  6  2  0
 20  9  1  0
 18 12  1  0
  3 22  1  0
  3 23  1  0
  5 24  1  0
  7 25  1  0
  8 26  1  0
 13 27  1  0
 14 28  1  0
 17 29  1  0
 18 30  1  0
 21 31  1  0
M  END
>  <UniqueID>  (39) 
35

>  <SMILES>  (39) 
O=C(CCl)Nc1ccc2nn(-c3ccc(Cl)cc3)nc2c1

>  <Energy>  (39) 
78.34987851175015

>  <Genealogy>  (39) 
O=C(CCl)Nc1ccc2nn(-c3ccc(Cl)cc3)nc2c1 (3D coordinates assigned)
O=C(CCl)Nc1ccc2nn(-c3ccc(Cl)cc3)nc2c1 (optimized conformer: 78.34987851175015 kcal/mol)

>  <smiles>  (39) 
O=C(CCl)Nc1ccc2nn(-c3ccc(Cl)cc3)nc2c1

>  <score_type>  (39) 
oracle

>  <origin>  (39) 
adg

>  <m_score__min__energy>  (39) 
-6.8200000000000003

>  <m_primary>  (39) 
energy

$$$$
39:0
     RDKit          3D

 51 54  0  0  0  0  0  0  0  0999 V2000
   59.0123   23.5990   46.2627 H   0  0  0  0  0  0  0  0  0  0  0  0
   58.1200   24.2410   46.2220 C   0  0  0  0  0  0  0  0  0  0  0  0
   58.2350   25.5810   46.4260 N   0  0  0  0  0  0  0  0  0  0  0  0
   57.1580   26.4170   46.3770 C   0  0  0  0  0  0  0  0  0  0  0  0
   57.2960   27.7020   46.5500 N   0  0  0  0  0  0  0  0  0  0  0  0
   58.3210   28.5080   45.9580 C   0  0  0  0  0  0  0  0  0  0  0  0
   59.5220   28.1540   46.0970 O   0  0  0  0  0  0  0  0  0  0  0  0
   58.0040   29.7210   45.1710 C   0  0  0  0  0  0  0  0  0  0  0  0
   57.7110   29.6260   43.8010 C   0  0  0  0  0  0  0  0  0  0  0  0
   57.7344   28.6460   43.3020 H   0  0  0  0  0  0  0  0  0  0  0  0
   57.3900   30.7720   43.0700 C   0  0  0  0  0  0  0  0  0  0  0  0
   57.1711   30.6928   41.9949 H   0  0  0  0  0  0  0  0  0  0  0  0
   57.3460   32.0180   43.6990 C   0  0  0  0  0  0  0  0  0  0  0  0
   57.0934   32.9176   43.1185 H   0  0  0  0  0  0  0  0  0  0  0  0
   57.6230   32.1240   45.0680 C   0  0  0  0  0  0  0  0  0  0  0  0
   57.4540   33.6730   45.8960 S   0  0  0  0  0  0  0  0  0  0  0  0
   56.6560   33.4850   47.1570 O   0  0  0  0  0  0  0  0  0  0  0  0
   56.7070   34.6280   45.0050 O   0  0  0  0  0  0  0  0  0  0  0  0
   59.0230   34.3470   46.2850 N   0  0  0  0  0  0  0  0  0  0  0  0
   59.1120   34.7290   47.7150 C   0  0  0  0  0  0  0  0  0  0  0  0
   59.5059   35.7541   47.7781 H   0  0  0  0  0  0  0  0  0  0  0  0
   58.0995   34.6456   48.1367 H   0  0  0  0  0  0  0  0  0  0  0  0
   60.0230   33.8060   48.5380 C   0  0  0  0  0  0  0  0  0  0  0  0
   60.1222   34.2026   49.5592 H   0  0  0  0  0  0  0  0  0  0  0  0
   59.5855   32.7976   48.5801 H   0  0  0  0  0  0  0  0  0  0  0  0
   61.3430   33.7430   47.9070 N   0  0  0  0  0  0  0  0  0  0  0  0
   62.5270   33.6530   48.7100 C   0  0  0  0  0  0  0  0  0  0  0  0
   63.6670   33.0000   48.2170 C   0  0  0  0  0  0  0  0  0  0  0  0
   63.6700   32.5990   47.1927 H   0  0  0  0  0  0  0  0  0  0  0  0
   64.7990   32.8580   49.0250 C   0  0  0  0  0  0  0  0  0  0  0  0
   65.6834   32.3284   48.6411 H   0  0  0  0  0  0  0  0  0  0  0  0
   64.8110   33.3870   50.3200 C   0  0  0  0  0  0  0  0  0  0  0  0
   65.9200   33.2090   51.1350 O   0  0  0  0  0  0  0  0  0  0  0  0
   63.6910   34.0800   50.7980 C   0  0  0  0  0  0  0  0  0  0  0  0
   63.7123   34.5335   51.7999 H   0  0  0  0  0  0  0  0  0  0  0  0
   62.5470   34.1960   50.0040 C   0  0  0  0  0  0  0  0  0  0  0  0
   61.6591   34.7147   50.3945 H   0  0  0  0  0  0  0  0  0  0  0  0
   61.4510   33.7690   46.4460 C   0  0  0  0  0  0  0  0  0  0  0  0
   61.7744   34.7698   46.1236 H   0  0  0  0  0  0  0  0  0  0  0  0
   62.1862   33.0152   46.1277 H   0  0  0  0  0  0  0  0  0  0  0  0
   60.0950   33.4450   45.8070 C   0  0  0  0  0  0  0  0  0  0  0  0
   60.1840   33.5476   44.7154 H   0  0  0  0  0  0  0  0  0  0  0  0
   59.8241   32.4175   46.0912 H   0  0  0  0  0  0  0  0  0  0  0  0
   57.9730   30.9750   45.7970 C   0  0  0  0  0  0  0  0  0  0  0  0
   58.2240   31.0598   46.8646 H   0  0  0  0  0  0  0  0  0  0  0  0
   55.8890   25.8850   46.1010 C   0  0  0  0  0  0  0  0  0  0  0  0
   54.7760   26.7150   46.0140 O   0  0  0  0  0  0  0  0  0  0  0  0
   55.7480   24.5090   45.9020 C   0  0  0  0  0  0  0  0  0  0  0  0
   54.7556   24.0799   45.6993 H   0  0  0  0  0  0  0  0  0  0  0  0
   56.8680   23.6820   45.9610 C   0  0  0  0  0  0  0  0  0  0  0  0
   56.7663   22.5981   45.8033 H   0  0  0  0  0  0  0  0  0  0  0  0
  1  2  1  0
  2  3  1  0
  3  4  1  0
  4  5  2  0
  5  6  1  0
  6  7  2  0
  6  8  1  0
  8  9  2  0
  9 10  1  0
  9 11  1  0
 11 12  1  0
 11 13  2  0
 13 14  1  0
 13 15  1  0
 15 16  1  0
 16 17  2  0
 16 18  2  0
 16 19  1  0
 19 20  1  0
 20 21  1  0
 20 22  1  0
 20 23  1  0
 23 24  1  0
 23 25  1  0
 23 26  1  0
 26 27  1  0
 27 28  2  0
 28 29  1  0
 28 30  1  0
 30 31  1  0
 30 32  2  0
 32 33  1  0
 32 34  1  0
 34 35  1  0
 34 36  2  0
 36 37  1  0
 26 38  1  0
 38 39  1  0
 38 40  1  0
 38 41  1  0
 41 42  1  0
 41 43  1  0
 15 44  2  0
 44 45  1  0
  4 46  1  0
 46 47  1  0
 46 48  2  0
 48 49  1  0
 48 50  1  0
 50 51  1  0
 50  2  2  0
 44  8  1  0
 41 19  1  0
 36 27  1  0
M  CHG  3   3  -1  33  -1  47  -1
M  END
>  <UniqueID>  (40) 
36

>  <SMILES>  (40) 
O=C(/N=c1\[n-]cccc1[O-])c1cccc(S(=O)(=O)N2CCN(c3ccc([O-])cc3)CC2)c1

>  <Energy>  (40) 
73.03989118700679

>  <Genealogy>  (40) 
O=C(N=c1[n-]cccc1[O-])c1cccc(S(=O)(=O)N2CCN(c3ccc([O-])cc3)CC2)c1 (protonated)
O=C(/N=c1\[n-]cccc1[O-])c1cccc(S(=O)(=O)N2CCN(c3ccc([O-])cc3)CC2)c1 (cis-trans isomerization)
O=C(/N=c1\[n-]cccc1[O-])c1cccc(S(=O)(=O)N2CCN(c3ccc([O-])cc3)CC2)c1 (3D coordinates assigned)
O=C(/N=c1\[n-]cccc1[O-])c1cccc(S(=O)(=O)N2CCN(c3ccc([O-])cc3)CC2)c1 (nonaromatic ring conformer: 73.03989118700679 kcal/mol)

>  <smiles>  (40) 
O=C(N=c1[nH]cccc1O)c1cccc(S(=O)(=O)N2CCN(c3ccc(O)cc3)CC2)c1

>  <score_type>  (40) 
oracle

>  <origin>  (40) 
adg

>  <m_score__min__energy>  (40) 
-15.94

>  <m_primary>  (40) 
energy

$$$$
40:0
     RDKit          3D

 41 42  0  0  0  0  0  0  0  0999 V2000
   63.4250   33.6450   47.2310 C   0  0  0  0  0  0  0  0  0  0  0  0
   62.2010   32.7950   47.1200 C   0  0  0  0  0  0  0  0  0  0  0  0
   61.0910   33.3390   46.8780 O   0  0  0  0  0  0  0  0  0  0  0  0
   62.3180   31.3640   47.1940 N   0  0  0  0  0  0  0  0  0  0  0  0
   61.1970   30.4660   47.2760 C   0  0  0  0  0  0  0  0  0  0  0  0
   60.7950   29.6900   46.1750 C   0  0  0  0  0  0  0  0  0  0  0  0
   59.6860   28.8420   46.2730 C   0  0  0  0  0  0  0  0  0  0  0  0
   58.9620   28.7600   47.4750 C   0  0  0  0  0  0  0  0  0  0  0  0
   57.8070   27.9200   47.6140 N   0  0  0  0  0  0  0  0  0  0  0  0
   57.3590   26.9250   46.6840 C   0  0  0  0  0  0  0  0  0  0  0  0
   57.2030   25.7270   47.0440 O   0  0  0  0  0  0  0  0  0  0  0  0
   57.0460   27.3190   45.2740 C   0  0  0  0  0  0  0  0  0  0  0  0
   56.0360   28.3710   45.2410 N   0  0  0  0  0  0  0  0  0  0  0  0
   56.1920   29.6710   44.6560 C   0  0  0  0  0  0  0  0  0  0  0  0
   55.1740   30.4020   44.5300 O   0  0  0  0  0  0  0  0  0  0  0  0
   57.5300   30.2090   44.2240 C   0  0  0  0  0  0  0  0  0  0  0  0
   57.7850   31.5730   44.8090 C   0  0  0  0  0  0  0  0  0  0  0  0
   57.8450   31.7520   46.2030 C   0  0  0  0  0  0  0  0  0  0  0  0
   58.0890   33.0190   46.7410 C   0  0  0  0  0  0  0  0  0  0  0  0
   58.2850   34.1140   45.8940 C   0  0  0  0  0  0  0  0  0  0  0  0
   58.2380   33.9430   44.5090 C   0  0  0  0  0  0  0  0  0  0  0  0
   57.9910   32.6780   43.9660 C   0  0  0  0  0  0  0  0  0  0  0  0
   59.3360   29.5690   48.5550 C   0  0  0  0  0  0  0  0  0  0  0  0
   60.4440   30.4150   48.4570 C   0  0  0  0  0  0  0  0  0  0  0  0
   63.6621   33.8096   48.2925 H   0  0  0  0  0  0  0  0  0  0  0  0
   64.2693   33.1378   46.7411 H   0  0  0  0  0  0  0  0  0  0  0  0
   63.2447   34.6132   46.7411 H   0  0  0  0  0  0  0  0  0  0  0  0
   63.2730   30.9510   47.0990 H   0  0  0  0  0  0  0  0  0  0  0  0
   61.3556   29.7497   45.2305 H   0  0  0  0  0  0  0  0  0  0  0  0
   59.3799   28.2376   45.4064 H   0  0  0  0  0  0  0  0  0  0  0  0
   57.9635   27.6849   44.7899 H   0  0  0  0  0  0  0  0  0  0  0  0
   56.6558   26.4394   44.7410 H   0  0  0  0  0  0  0  0  0  0  0  0
   58.3190   29.5209   44.5616 H   0  0  0  0  0  0  0  0  0  0  0  0
   57.5324   30.2951   43.1274 H   0  0  0  0  0  0  0  0  0  0  0  0
   57.6993   30.8914   46.8725 H   0  0  0  0  0  0  0  0  0  0  0  0
   58.1268   33.1546   47.8320 H   0  0  0  0  0  0  0  0  0  0  0  0
   58.4763   35.1105   46.3188 H   0  0  0  0  0  0  0  0  0  0  0  0
   58.3955   34.8048   43.8438 H   0  0  0  0  0  0  0  0  0  0  0  0
   57.9579   32.5476   42.8743 H   0  0  0  0  0  0  0  0  0  0  0  0
   58.7533   29.5384   49.4875 H   0  0  0  0  0  0  0  0  0  0  0  0
   60.7272   31.0454   49.3128 H   0  0  0  0  0  0  0  0  0  0  0  0
  1  2  1  0
  2  3  2  0
  2  4  1  0
  4  5  1  0
  5  6  2  0
  6  7  1  0
  7  8  2  0
  8  9  1  0
  9 10  1  0
 10 11  2  0
 10 12  1  0
 12 13  1  0
 13 14  1  0
 14 15  2  0
 14 16  1  0
 16 17  1  0
 17 18  2  0
 18 19  1  0
 19 20  2  0
 20 21  1  0
 21 22  2  0
  8 23  1  0
 23 24  2  0
 24  5  1  0
 22 17  1  0
  1 25  1  0
  1 26  1  0
  1 27  1  0
  4 28  1  0
  6 29  1  0
  7 30  1  0
 12 31  1  0
 12 32  1  0
 16 33  1  0
 16 34  1  0
 18 35  1  0
 19 36  1  0
 20 37  1  0
 21 38  1  0
 22 39  1  0
 23 40  1  0
 24 41  1  0
M  CHG  2   9  -1  13  -1
M  END
>  <UniqueID>  (41) 
37

>  <SMILES>  (41) 
CC(=O)Nc1ccc([N-]C(=O)C[N-]C(=O)Cc2ccccc2)cc1

>  <Energy>  (41) 
42.364071367951816

>  <Genealogy>  (41) 
CC(=O)Nc1ccc([N-]C(=O)C[N-]C(=O)Cc2ccccc2)cc1 (protonated)
CC(=O)Nc1ccc([N-]C(=O)C[N-]C(=O)Cc2ccccc2)cc1 (3D coordinates assigned)
CC(=O)Nc1ccc([N-]C(=O)C[N-]C(=O)Cc2ccccc2)cc1 (optimized conformer: 42.364071367951816 kcal/mol)

>  <smiles>  (41) 
CC(=O)Nc1ccc(NC(=O)CNC(=O)Cc2ccccc2)cc1

>  <score_type>  (41) 
oracle

>  <origin>  (41) 
adg

>  <m_score__min__energy>  (41) 
-10.720000000000001

>  <m_primary>  (41) 
energy

$$$$
41:0
     RDKit          3D

 42 44  0  0  0  0  0  0  0  0999 V2000
   57.5920   30.0700   44.4370 C   0  0  0  0  0  0  0  0  0  0  0  0
   56.9870   31.2360   44.9860 O   0  0  0  0  0  0  0  0  0  0  0  0
   57.6810   32.3920   45.3760 C   0  0  0  0  0  0  0  0  0  0  0  0
   57.8050   33.4940   44.5050 C   0  0  0  0  0  0  0  0  0  0  0  0
   58.5380   34.6210   44.8830 C   0  0  0  0  0  0  0  0  0  0  0  0
   59.1580   34.6640   46.1290 C   0  0  0  0  0  0  0  0  0  0  0  0
   59.0380   33.5850   47.0060 C   0  0  0  0  0  0  0  0  0  0  0  0
   58.2910   32.4530   46.6550 C   0  0  0  0  0  0  0  0  0  0  0  0
   58.2090   31.3940   47.6220 N   0  0  0  0  0  0  0  0  0  0  0  0
   59.2080   31.1600   49.0220 S   0  0  0  0  0  0  0  0  0  0  0  0
   59.6760   29.7310   49.0740 O   0  0  0  0  0  0  0  0  0  0  0  0
   60.3850   32.0920   48.9550 O   0  0  0  0  0  0  0  0  0  0  0  0
   58.2850   31.4980   50.4870 C   0  0  0  0  0  0  0  0  0  0  0  0
   57.4160   30.5300   51.0150 C   0  0  0  0  0  0  0  0  0  0  0  0
   56.6710   30.7950   52.1760 C   0  0  0  0  0  0  0  0  0  0  0  0
   55.7630   29.7600   52.7300 C   0  0  0  0  0  0  0  0  0  0  0  0
   56.1180   29.1150   53.7530 O   0  0  0  0  0  0  0  0  0  0  0  0
   54.4620   29.5060   52.1770 N   0  0  0  0  0  0  0  0  0  0  0  0
   53.4720   30.3490   52.1320 C   0  0  0  0  0  0  0  0  0  0  0  0
   53.1730   30.9940   50.9250 C   0  0  0  0  0  0  0  0  0  0  0  0
   52.1210   31.9120   50.8780 C   0  0  0  0  0  0  0  0  0  0  0  0
   51.3850   32.1850   52.0320 C   0  0  0  0  0  0  0  0  0  0  0  0
   50.3360   33.0960   51.9980 O   0  0  0  0  0  0  0  0  0  0  0  0
   51.7150   31.5330   53.2230 C   0  0  0  0  0  0  0  0  0  0  0  0
   52.7420   30.6430   53.2470 N   0  0  0  0  0  0  0  0  0  0  0  0
   56.8250   32.0330   52.8220 C   0  0  0  0  0  0  0  0  0  0  0  0
   57.6910   32.9970   52.3020 C   0  0  0  0  0  0  0  0  0  0  0  0
   58.4210   32.7350   51.1390 C   0  0  0  0  0  0  0  0  0  0  0  0
   59.2810   33.7080   50.6400 O   0  0  0  0  0  0  0  0  0  0  0  0
   57.9320   29.4147   45.2525 H   0  0  0  0  0  0  0  0  0  0  0  0
   56.8585   29.5335   43.8172 H   0  0  0  0  0  0  0  0  0  0  0  0
   58.4529   30.3608   43.8172 H   0  0  0  0  0  0  0  0  0  0  0  0
   57.3197   33.4657   43.5183 H   0  0  0  0  0  0  0  0  0  0  0  0
   58.6256   35.4755   44.1958 H   0  0  0  0  0  0  0  0  0  0  0  0
   59.7425   35.5486   46.4222 H   0  0  0  0  0  0  0  0  0  0  0  0
   59.5365   33.6239   47.9858 H   0  0  0  0  0  0  0  0  0  0  0  0
   57.3176   29.5552   50.5150 H   0  0  0  0  0  0  0  0  0  0  0  0
   53.7620   30.7793   50.0211 H   0  0  0  0  0  0  0  0  0  0  0  0
   51.8733   32.4186   49.9335 H   0  0  0  0  0  0  0  0  0  0  0  0
   51.1442   31.7398   54.1403 H   0  0  0  0  0  0  0  0  0  0  0  0
   56.2604   32.2440   53.7422 H   0  0  0  0  0  0  0  0  0  0  0  0
   57.7993   33.9668   52.8097 H   0  0  0  0  0  0  0  0  0  0  0  0
  1  2  1  0
  2  3  1  0
  3  4  2  0
  4  5  1  0
  5  6  2  0
  6  7  1  0
  7  8  2  0
  8  9  1  0
  9 10  1  0
 10 11  2  0
 10 12  2  0
 10 13  1  0
 13 14  2  0
 14 15  1  0
 15 16  1  0
 16 17  2  0
 16 18  1  0
 18 19  2  3
 19 20  1  0
 20 21  2  0
 21 22  1  0
 22 23  1  0
 22 24  2  0
 24 25  1  0
 15 26  2  0
 26 27  1  0
 27 28  2  0
 28 29  1  0
  8  3  1  0
 28 13  1  0
 25 19  1  0
  1 30  1  0
  1 31  1  0
  1 32  1  0
  4 33  1  0
  5 34  1  0
  6 35  1  0
  7 36  1  0
 14 37  1  0
 20 38  1  0
 21 39  1  0
 24 40  1  0
 26 41  1  0
 27 42  1  0
M  CHG  4   9  -1  23  -1  25  -1  29  -1
M  END
>  <UniqueID>  (42) 
38

>  <SMILES>  (42) 
COc1ccccc1[N-]S(=O)(=O)c1cc(C(=O)N=c2ccc([O-])c[n-]2)ccc1[O-]

>  <Energy>  (42) 
61.56118250553481

>  <Genealogy>  (42) 
COc1ccccc1[N-]S(=O)(=O)c1cc(C(=O)N=c2ccc([O-])c[n-]2)ccc1[O-] (protonated)
COc1ccccc1[N-]S(=O)(=O)c1cc(C(=O)N=c2ccc([O-])c[n-]2)ccc1[O-] (3D coordinates assigned)
COc1ccccc1[N-]S(=O)(=O)c1cc(C(=O)N=c2ccc([O-])c[n-]2)ccc1[O-] (optimized conformer: 61.56118250553481 kcal/mol)

>  <smiles>  (42) 
COc1ccccc1NS(=O)(=O)c1cc(C(=O)N=c2ccc(O)c[nH]2)ccc1O

>  <score_type>  (42) 
oracle

>  <origin>  (42) 
adg

>  <m_score__min__energy>  (42) 
-15.34

>  <m_primary>  (42) 
energy

$$$$
42:0
     RDKit          3D

 47 50  0  0  0  0  0  0  0  0999 V2000
   56.1770   31.2580   45.2410 H   0  0  0  0  0  0  0  0  0  0  0  0
   56.2860   32.2650   45.2190 O   0  0  0  0  0  0  0  0  0  0  0  0
   57.4380   32.8820   45.7010 C   0  0  0  0  0  0  0  0  0  0  0  0
   58.2500   33.6110   44.8250 C   0  0  0  0  0  0  0  0  0  0  0  0
   57.9719   33.6993   43.7644 H   0  0  0  0  0  0  0  0  0  0  0  0
   59.4130   34.2270   45.2940 C   0  0  0  0  0  0  0  0  0  0  0  0
   60.0505   34.7962   44.6015 H   0  0  0  0  0  0  0  0  0  0  0  0
   59.7680   34.1210   46.6430 C   0  0  0  0  0  0  0  0  0  0  0  0
   60.6861   34.6039   47.0090 H   0  0  0  0  0  0  0  0  0  0  0  0
   58.9550   33.4000   47.5290 C   0  0  0  0  0  0  0  0  0  0  0  0
   59.3970   33.2310   49.2240 S   0  0  0  0  0  0  0  0  0  0  0  0
   59.6320   34.5740   49.8570 O   0  0  0  0  0  0  0  0  0  0  0  0
   58.2810   32.5410   49.9550 O   0  0  0  0  0  0  0  0  0  0  0  0
   60.8380   32.2760   49.3430 N   0  0  0  0  0  0  0  0  0  0  0  0
   60.8940   31.1130   49.9210 C   0  0  0  0  0  0  0  0  0  0  0  0
   60.7660   31.0250   51.2750 N   0  0  0  0  0  0  0  0  0  0  0  0
   60.7490   29.8330   51.9190 C   0  0  0  0  0  0  0  0  0  0  0  0
   60.6180   29.7760   53.3100 C   0  0  0  0  0  0  0  0  0  0  0  0
   60.5389   30.7037   53.8958 H   0  0  0  0  0  0  0  0  0  0  0  0
   60.5880   28.5330   53.9540 C   0  0  0  0  0  0  0  0  0  0  0  0
   60.4872   28.4845   55.0483 H   0  0  0  0  0  0  0  0  0  0  0  0
   60.6860   27.3520   53.2090 C   0  0  0  0  0  0  0  0  0  0  0  0
   60.6600   26.3779   53.7193 H   0  0  0  0  0  0  0  0  0  0  0  0
   60.8170   27.4070   51.8170 C   0  0  0  0  0  0  0  0  0  0  0  0
   60.8946   26.4781   51.2330 H   0  0  0  0  0  0  0  0  0  0  0  0
   60.8490   28.6480   51.1700 C   0  0  0  0  0  0  0  0  0  0  0  0
   60.9890   28.7240   49.8220 N   0  0  0  0  0  0  0  0  0  0  0  0
   61.0410   29.9150   49.1640 C   0  0  0  0  0  0  0  0  0  0  0  0
   61.2100   29.8810   47.8680 N   0  0  0  0  0  0  0  0  0  0  0  0
   60.2370   29.6130   46.8470 C   0  0  0  0  0  0  0  0  0  0  0  0
   58.8750   29.7360   47.1410 C   0  0  0  0  0  0  0  0  0  0  0  0
   58.5575   30.0619   48.1425 H   0  0  0  0  0  0  0  0  0  0  0  0
   57.9160   29.4460   46.1660 C   0  0  0  0  0  0  0  0  0  0  0  0
   56.8468   29.5558   46.3998 H   0  0  0  0  0  0  0  0  0  0  0  0
   58.3120   29.0150   44.8890 C   0  0  0  0  0  0  0  0  0  0  0  0
   57.2800   28.6770   43.8490 C   0  0  0  0  0  0  0  0  0  0  0  0
   56.9680   27.6295   43.9730 H   0  0  0  0  0  0  0  0  0  0  0  0
   57.7154   28.8220   42.8493 H   0  0  0  0  0  0  0  0  0  0  0  0
   56.0900   29.5680   43.9980 C   0  0  0  0  0  0  0  0  0  0  0  0
   55.9110   30.5260   43.2000 O   0  0  0  0  0  0  0  0  0  0  0  0
   55.1460   29.3100   44.9840 O   0  0  0  0  0  0  0  0  0  0  0  0
   59.6780   28.8450   44.6120 C   0  0  0  0  0  0  0  0  0  0  0  0
   59.9963   28.4833   43.6231 H   0  0  0  0  0  0  0  0  0  0  0  0
   60.6340   29.1340   45.5890 C   0  0  0  0  0  0  0  0  0  0  0  0
   61.7020   28.9855   45.3714 H   0  0  0  0  0  0  0  0  0  0  0  0
   57.7920   32.7780   47.0540 C   0  0  0  0  0  0  0  0  0  0  0  0
   57.1549   32.2064   47.7449 H   0  0  0  0  0  0  0  0  0  0  0  0
  1  2  1  0
  2  3  1  0
  3  4  2  0
  4  5  1  0
  4  6  1  0
  6  7  1  0
  6  8  2  0
  8  9  1  0
  8 10  1  0
 10 11  1  0
 11 12  2  0
 11 13  2  0
 11 14  1  0
 14 15  2  3
 15 16  1  0
 16 17  1  0
 17 18  2  0
 18 19  1  0
 18 20  1  0
 20 21  1  0
 20 22  2  0
 22 23  1  0
 22 24  1  0
 24 25  1  0
 24 26  2  0
 26 27  1  0
 27 28  1  0
 28 29  2  0
 29 30  1  0
 30 31  2  0
 31 32  1  0
 31 33  1  0
 33 34  1  0
 33 35  2  0
 35 36  1  0
 36 37  1  0
 36 38  1  0
 36 39  1  0
 39 40  2  0
 39 41  1  0
 35 42  1  0
 42 43  1  0
 42 44  2  0
 44 45  1  0
 10 46  2  0
 46 47  1  0
 46  3  1  0
 28 15  1  0
 44 30  1  0
 26 17  1  0
M  CHG  3  16  -1  27  -1  41  -1
M  END
>  <UniqueID>  (43) 
39

>  <SMILES>  (43) 
O=C([O-])Cc1ccc(/N=c2/[n-]c3ccccc3[n-]c2=NS(=O)(=O)c2cccc(O)c2)cc1

>  <Energy>  (43) 
68.73462437444876

>  <Genealogy>  (43) 
O=C([O-])Cc1ccc(N=c2[n-]c3ccccc3[n-]c2=NS(=O)(=O)c2cccc(O)c2)cc1 (protonated)
O=C([O-])Cc1ccc(/N=c2/[n-]c3ccccc3[n-]c2=NS(=O)(=O)c2cccc(O)c2)cc1 (cis-trans isomerization)
O=C([O-])Cc1ccc(/N=c2/[n-]c3ccccc3[n-]c2=NS(=O)(=O)c2cccc(O)c2)cc1 (3D coordinates assigned)
O=C([O-])Cc1ccc(/N=c2/[n-]c3ccccc3[n-]c2=NS(=O)(=O)c2cccc(O)c2)cc1 (optimized conformer: 68.73462437444876 kcal/mol)

>  <smiles>  (43) 
O=C(O)Cc1ccc(N=c2[nH]c3ccccc3[nH]c2=NS(=O)(=O)c2cccc(O)c2)cc1

>  <score_type>  (43) 
oracle

>  <origin>  (43) 
adg

>  <m_score__min__energy>  (43) 
-14.720000000000001

>  <m_primary>  (43) 
energy

$$$$
43:0
     RDKit          3D

 79 83  0  0  0  0  0  0  0  0999 V2000
   65.3820   29.1600   51.9710 C   0  0  0  0  0  0  0  0  0  0  0  0
   66.0650   30.4740   51.5930 C   0  0  0  0  0  0  0  0  0  0  0  0
   65.1500   31.3440   50.7560 C   0  0  0  0  0  0  0  0  0  0  0  0
   63.8330   30.9130   50.5500 C   0  0  0  0  0  0  0  0  0  0  0  0
   62.9400   31.6730   49.7910 C   0  0  0  0  0  0  0  0  0  0  0  0
   61.5670   31.2690   49.6960 N   0  0  0  0  0  0  0  0  0  0  0  0
   60.6470   31.2670   50.7010 C   0  0  0  0  0  0  0  0  0  0  0  0
   61.0220   31.5460   52.1410 C   0  0  0  0  0  0  0  0  0  0  0  0
   61.1260   33.0460   52.4150 C   0  0  0  0  0  0  0  0  0  0  0  0
   59.3710   30.9450   50.1780 C   0  0  0  0  0  0  0  0  0  0  0  0
   58.0310   30.6980   50.8580 C   0  0  0  0  0  0  0  0  0  0  0  0
   58.1640   29.6100   51.9260 C   0  0  0  0  0  0  0  0  0  0  0  0
   57.3440   31.9480   51.4180 C   0  0  0  0  0  0  0  0  0  0  0  0
   59.5850   30.7470   48.8180 C   0  0  0  0  0  0  0  0  0  0  0  0
   58.6980   30.3970   47.7960 C   0  0  0  0  0  0  0  0  0  0  0  0
   59.2040   30.2470   46.4880 C   0  0  0  0  0  0  0  0  0  0  0  0
   58.1310   29.8090   45.1610 S   0  0  0  0  0  0  0  0  0  0  0  0
   58.4830   30.6320   43.9530 O   0  0  0  0  0  0  0  0  0  0  0  0
   56.6960   30.0790   45.5240 O   0  0  0  0  0  0  0  0  0  0  0  0
   58.3260   28.1290   44.7830 N   0  0  0  0  0  0  0  0  0  0  0  0
   57.9900   27.1570   45.5770 C   0  0  0  0  0  0  0  0  0  0  0  0
   56.9160   26.3750   45.3530 N   0  0  0  0  0  0  0  0  0  0  0  0
   56.7670   25.4180   46.3060 C   0  0  0  0  0  0  0  0  0  0  0  0
   57.7310   25.4340   47.3080 C   0  0  0  0  0  0  0  0  0  0  0  0
   58.8090   26.6860   46.9770 S   0  0  0  0  0  0  0  0  0  0  0  0
   60.5820   30.4270   46.2420 C   0  0  0  0  0  0  0  0  0  0  0  0
   61.4540   30.7680   47.2890 C   0  0  0  0  0  0  0  0  0  0  0  0
   60.9160   30.9410   48.5660 C   0  0  0  0  0  0  0  0  0  0  0  0
   63.3550   32.8830   49.2140 C   0  0  0  0  0  0  0  0  0  0  0  0
   62.4230   33.6200   48.4600 O   0  0  0  0  0  0  0  0  0  0  0  0
   61.5060   34.5860   48.9790 C   0  0  0  0  0  0  0  0  0  0  0  0
   60.0630   34.2210   48.7440 C   0  0  0  0  0  0  0  0  0  0  0  0
   59.3590   33.9090   49.7470 O   0  0  0  0  0  0  0  0  0  0  0  0
   59.4940   34.1250   47.4250 N   0  0  0  0  0  0  0  0  0  0  0  0
   60.1540   34.5390   46.1980 C   0  0  0  0  0  0  0  0  0  0  0  0
   59.2580   34.0460   45.0700 C   0  0  0  0  0  0  0  0  0  0  0  0
   57.8820   33.8770   45.7010 C   0  0  0  0  0  0  0  0  0  0  0  0
   58.1390   33.6570   47.1860 C   0  0  0  0  0  0  0  0  0  0  0  0
   64.6750   33.3230   49.4140 C   0  0  0  0  0  0  0  0  0  0  0  0
   65.5880   32.5530   50.1560 C   0  0  0  0  0  0  0  0  0  0  0  0
   66.9920   33.0700   50.3410 C   0  0  0  0  0  0  0  0  0  0  0  0
   65.3364   29.0724   53.0666 H   0  0  0  0  0  0  0  0  0  0  0  0
   64.3621   29.1452   51.5592 H   0  0  0  0  0  0  0  0  0  0  0  0
   65.9559   28.3167   51.5592 H   0  0  0  0  0  0  0  0  0  0  0  0
   66.3345   31.0159   52.5116 H   0  0  0  0  0  0  0  0  0  0  0  0
   66.9636   30.2430   51.0022 H   0  0  0  0  0  0  0  0  0  0  0  0
   63.4976   29.9632   50.9920 H   0  0  0  0  0  0  0  0  0  0  0  0
   60.2536   31.1152   52.7998 H   0  0  0  0  0  0  0  0  0  0  0  0
   62.0051   31.0920   52.3346 H   0  0  0  0  0  0  0  0  0  0  0  0
   61.1381   33.2204   53.5010 H   0  0  0  0  0  0  0  0  0  0  0  0
   62.0534   33.4365   51.9706 H   0  0  0  0  0  0  0  0  0  0  0  0
   60.2614   33.5607   51.9706 H   0  0  0  0  0  0  0  0  0  0  0  0
   57.3591   30.3520   50.0587 H   0  0  0  0  0  0  0  0  0  0  0  0
   58.1080   30.0677   52.9247 H   0  0  0  0  0  0  0  0  0  0  0  0
   57.3483   28.8811   51.8105 H   0  0  0  0  0  0  0  0  0  0  0  0
   59.1313   29.0991   51.8105 H   0  0  0  0  0  0  0  0  0  0  0  0
   57.3622   31.9150   52.5174 H   0  0  0  0  0  0  0  0  0  0  0  0
   57.8754   32.8458   51.0693 H   0  0  0  0  0  0  0  0  0  0  0  0
   56.3012   31.9806   51.0693 H   0  0  0  0  0  0  0  0  0  0  0  0
   57.6296   30.2421   48.0070 H   0  0  0  0  0  0  0  0  0  0  0  0
   56.2820   26.4740   44.5310 H   0  0  0  0  0  0  0  0  0  0  0  0
   55.9461   24.6861   46.2863 H   0  0  0  0  0  0  0  0  0  0  0  0
   57.7811   24.7487   48.1670 H   0  0  0  0  0  0  0  0  0  0  0  0
   60.9760   30.2993   45.2229 H   0  0  0  0  0  0  0  0  0  0  0  0
   62.5315   30.8953   47.1080 H   0  0  0  0  0  0  0  0  0  0  0  0
   61.6713   34.6781   50.0626 H   0  0  0  0  0  0  0  0  0  0  0  0
   61.6941   35.5322   48.4504 H   0  0  0  0  0  0  0  0  0  0  0  0
   60.2492   35.6343   46.1630 H   0  0  0  0  0  0  0  0  0  0  0  0
   61.1711   34.1271   46.1219 H   0  0  0  0  0  0  0  0  0  0  0  0
   59.2212   34.7842   44.2554 H   0  0  0  0  0  0  0  0  0  0  0  0
   59.6276   33.1080   44.6301 H   0  0  0  0  0  0  0  0  0  0  0  0
   57.2744   34.7807   45.5458 H   0  0  0  0  0  0  0  0  0  0  0  0
   57.3286   33.0379   45.2541 H   0  0  0  0  0  0  0  0  0  0  0  0
   57.4222   34.2340   47.7887 H   0  0  0  0  0  0  0  0  0  0  0  0
   58.0196   32.6000   47.4661 H   0  0  0  0  0  0  0  0  0  0  0  0
   64.9980   34.2827   48.9842 H   0  0  0  0  0  0  0  0  0  0  0  0
   67.2140   33.1518   51.4152 H   0  0  0  0  0  0  0  0  0  0  0  0
   67.7035   32.3749   49.8714 H   0  0  0  0  0  0  0  0  0  0  0  0
   67.0828   34.0606   49.8714 H   0  0  0  0  0  0  0  0  0  0  0  0
  1  2  1  0
  2  3  1  0
  3  4  2  0
  4  5  1  0
  5  6  1  0
  6  7  1  0
  7  8  1  0
  8  9  1  0
  7 10  2  0
 10 11  1  0
 11 12  1  0
 11 13  1  0
 10 14  1  0
 14 15  2  0
 15 16  1  0
 16 17  1  0
 17 18  2  0
 17 19  2  0
 17 20  1  0
 20 21  2  3
 21 22  1  0
 22 23  1  0
 23 24  2  0
 24 25  1  0
 16 26  2  0
 26 27  1  0
 27 28  2  0
  5 29  2  0
 29 30  1  0
 30 31  1  0
 31 32  1  0
 32 33  2  0
 32 34  1  0
 34 35  1  0
 35 36  1  0
 36 37  1  0
 37 38  1  0
 29 39  1  0
 39 40  2  0
 40 41  1  0
 40  3  1  0
 28  6  1  0
 38 34  1  0
 28 14  1  0
 25 21  1  0
  1 42  1  0
  1 43  1  0
  1 44  1  0
  2 45  1  0
  2 46  1  0
  4 47  1  0
  8 48  1  0
  8 49  1  0
  9 50  1  0
  9 51  1  0
  9 52  1  0
 11 53  1  0
 12 54  1  0
 12 55  1  0
 12 56  1  0
 13 57  1  0
 13 58  1  0
 13 59  1  0
 15 60  1  0
 22 61  1  0
 23 62  1  0
 24 63  1  0
 26 64  1  0
 27 65  1  0
 31 66  1  0
 31 67  1  0
 35 68  1  0
 35 69  1  0
 36 70  1  0
 36 71  1  0
 37 72  1  0
 37 73  1  0
 38 74  1  0
 38 75  1  0
 39 76  1  0
 41 77  1  0
 41 78  1  0
 41 79  1  0
M  END
>  <UniqueID>  (44) 
40

>  <SMILES>  (44) 
CCc1cc(-n2c(CC)c(C(C)C)c3cc(S(=O)(=O)N=c4[nH]ccs4)ccc32)c(OCC(=O)N2CCCC2)cc1C

>  <Energy>  (44) 
149.82989023028998

>  <Genealogy>  (44) 
CCc1cc(-n2c(CC)c(C(C)C)c3cc(S(=O)(=O)N=c4[nH]ccs4)ccc32)c(OCC(=O)N2CCCC2)cc1C (3D coordinates assigned)
CCc1cc(-n2c(CC)c(C(C)C)c3cc(S(=O)(=O)N=c4[nH]ccs4)ccc32)c(OCC(=O)N2CCCC2)cc1C (nonaromatic ring conformer: 149.82989023028998 kcal/mol)

>  <smiles>  (44) 
CCc1cc(-n2c(CC)c(C(C)C)c3cc(S(=O)(=O)N=c4[nH]ccs4)ccc32)c(OCC(=O)N2CCCC2)cc1C

>  <score_type>  (44) 
oracle

>  <origin>  (44) 
adg

>  <m_score__min__energy>  (44) 
-11.869999999999999

>  <m_primary>  (44) 
energy

$$$$
44:0
     RDKit          3D

 68 71  0  0  0  0  0  0  0  0999 V2000
   62.1660   31.3400   48.1110 O   0  0  0  0  0  0  0  0  0  0  0  0
   61.5690   32.3330   48.6060 C   0  0  0  0  0  0  0  0  0  0  0  0
   61.0170   32.2660   50.0110 C   0  0  0  0  0  0  0  0  0  0  0  0
   60.8070   30.8240   50.5050 C   0  0  0  0  0  0  0  0  0  0  0  0
   60.3010   29.9400   49.4310 N   0  0  0  0  0  0  0  0  0  0  0  0
   60.6660   28.5180   49.6680 C   0  0  0  0  0  0  0  0  0  0  0  0
   61.2570   28.3430   51.0440 C   0  0  0  0  0  0  0  0  0  0  0  0
   60.4430   27.9720   52.1270 C   0  0  0  0  0  0  0  0  0  0  0  0
   60.9760   27.8930   53.4160 C   0  0  0  0  0  0  0  0  0  0  0  0
   62.3250   28.1970   53.6370 C   0  0  0  0  0  0  0  0  0  0  0  0
   63.1380   28.5780   52.5670 C   0  0  0  0  0  0  0  0  0  0  0  0
   62.6080   28.6530   51.2750 C   0  0  0  0  0  0  0  0  0  0  0  0
   58.8340   30.0980   49.2980 C   0  0  0  0  0  0  0  0  0  0  0  0
   58.2440   30.6350   50.5760 C   0  0  0  0  0  0  0  0  0  0  0  0
   57.9720   32.0070   50.7190 C   0  0  0  0  0  0  0  0  0  0  0  0
   57.4610   32.5010   51.9230 C   0  0  0  0  0  0  0  0  0  0  0  0
   57.2090   31.6300   52.9860 C   0  0  0  0  0  0  0  0  0  0  0  0
   57.4720   30.2650   52.8500 C   0  0  0  0  0  0  0  0  0  0  0  0
   57.9900   29.7670   51.6500 C   0  0  0  0  0  0  0  0  0  0  0  0
   61.4440   33.5180   47.8100 N   0  0  0  0  0  0  0  0  0  0  0  0
   60.1960   34.2240   47.5290 C   0  0  0  0  0  0  0  0  0  0  0  0
   59.3500   33.4560   46.5470 C   0  0  0  0  0  0  0  0  0  0  0  0
   58.3630   34.1110   45.7950 C   0  0  0  0  0  0  0  0  0  0  0  0
   57.5810   33.3980   44.8820 C   0  0  0  0  0  0  0  0  0  0  0  0
   57.7650   32.0170   44.7190 C   0  0  0  0  0  0  0  0  0  0  0  0
   56.9650   31.2500   43.7010 C   0  0  0  0  0  0  0  0  0  0  0  0
   57.1390   29.8170   43.9050 N   0  0  0  0  0  0  0  0  0  0  0  0
   56.4650   29.0750   44.9290 C   0  0  0  0  0  0  0  0  0  0  0  0
   55.2640   29.3520   45.2080 O   0  0  0  0  0  0  0  0  0  0  0  0
   57.1580   27.9810   45.6580 C   0  0  0  0  0  0  0  0  0  0  0  0
   58.5500   28.0730   45.8770 C   0  0  0  0  0  0  0  0  0  0  0  0
   59.2270   27.0850   46.6010 C   0  0  0  0  0  0  0  0  0  0  0  0
   58.5330   25.9910   47.1090 C   0  0  0  0  0  0  0  0  0  0  0  0
   57.1600   25.8720   46.8870 C   0  0  0  0  0  0  0  0  0  0  0  0
   56.4670   26.8590   46.1770 C   0  0  0  0  0  0  0  0  0  0  0  0
   55.0960   26.7060   45.9940 O   0  0  0  0  0  0  0  0  0  0  0  0
   58.7430   31.3590   45.4790 C   0  0  0  0  0  0  0  0  0  0  0  0
   59.5240   32.0720   46.3920 C   0  0  0  0  0  0  0  0  0  0  0  0
   61.7215   32.7700   50.6890 H   0  0  0  0  0  0  0  0  0  0  0  0
   60.0332   32.7580   50.0024 H   0  0  0  0  0  0  0  0  0  0  0  0
   61.7675   30.4290   50.8675 H   0  0  0  0  0  0  0  0  0  0  0  0
   60.0575   30.8455   51.3098 H   0  0  0  0  0  0  0  0  0  0  0  0
   59.7644   27.8940   49.5800 H   0  0  0  0  0  0  0  0  0  0  0  0
   61.4136   28.2149   48.9202 H   0  0  0  0  0  0  0  0  0  0  0  0
   59.3804   27.7425   51.9593 H   0  0  0  0  0  0  0  0  0  0  0  0
   60.3355   27.5918   54.2580 H   0  0  0  0  0  0  0  0  0  0  0  0
   62.7440   28.1358   54.6522 H   0  0  0  0  0  0  0  0  0  0  0  0
   64.1970   28.8195   52.7409 H   0  0  0  0  0  0  0  0  0  0  0  0
   63.2515   28.9560   50.4359 H   0  0  0  0  0  0  0  0  0  0  0  0
   58.6181   30.7979   48.4773 H   0  0  0  0  0  0  0  0  0  0  0  0
   58.3878   29.1153   49.0851 H   0  0  0  0  0  0  0  0  0  0  0  0
   58.1618   32.6939   49.8810 H   0  0  0  0  0  0  0  0  0  0  0  0
   57.2572   33.5763   52.0335 H   0  0  0  0  0  0  0  0  0  0  0  0
   56.8030   32.0197   53.9311 H   0  0  0  0  0  0  0  0  0  0  0  0
   57.2715   29.5808   53.6877 H   0  0  0  0  0  0  0  0  0  0  0  0
   58.1991   28.6919   51.5473 H   0  0  0  0  0  0  0  0  0  0  0  0
   59.6346   34.3490   48.4666 H   0  0  0  0  0  0  0  0  0  0  0  0
   60.4386   35.2035   47.0913 H   0  0  0  0  0  0  0  0  0  0  0  0
   58.2038   35.1917   45.9247 H   0  0  0  0  0  0  0  0  0  0  0  0
   56.8176   33.9223   44.2884 H   0  0  0  0  0  0  0  0  0  0  0  0
   55.9004   31.5061   43.8065 H   0  0  0  0  0  0  0  0  0  0  0  0
   57.3152   31.5157   42.6927 H   0  0  0  0  0  0  0  0  0  0  0  0
   59.1084   28.9308   45.4740 H   0  0  0  0  0  0  0  0  0  0  0  0
   60.3105   27.1734   46.7689 H   0  0  0  0  0  0  0  0  0  0  0  0
   59.0661   25.2204   47.6852 H   0  0  0  0  0  0  0  0  0  0  0  0
   56.6186   24.9957   47.2731 H   0  0  0  0  0  0  0  0  0  0  0  0
   58.8958   30.2767   45.3557 H   0  0  0  0  0  0  0  0  0  0  0  0
   60.2799   31.5454   46.9931 H   0  0  0  0  0  0  0  0  0  0  0  0
  1  2  2  0
  2  3  1  0
  3  4  1  0
  4  5  1  0
  5  6  1  0
  6  7  1  0
  7  8  2  0
  8  9  1  0
  9 10  2  0
 10 11  1  0
 11 12  2  0
  5 13  1  0
 13 14  1  0
 14 15  2  0
 15 16  1  0
 16 17  2  0
 17 18  1  0
 18 19  2  0
  2 20  1  0
 20 21  1  0
 21 22  1  0
 22 23  2  0
 23 24  1  0
 24 25  2  0
 25 26  1  0
 26 27  1  0
 27 28  1  0
 28 29  2  0
 28 30  1  0
 30 31  2  0
 31 32  1  0
 32 33  2  0
 33 34  1  0
 34 35  2  0
 35 36  1  0
 25 37  1  0
 37 38  2  0
 12  7  1  0
 19 14  1  0
 38 22  1  0
 35 30  1  0
  3 39  1  0
  3 40  1  0
  4 41  1  0
  4 42  1  0
  6 43  1  0
  6 44  1  0
  8 45  1  0
  9 46  1  0
 10 47  1  0
 11 48  1  0
 12 49  1  0
 13 50  1  0
 13 51  1  0
 15 52  1  0
 16 53  1  0
 17 54  1  0
 18 55  1  0
 19 56  1  0
 21 57  1  0
 21 58  1  0
 23 59  1  0
 24 60  1  0
 26 61  1  0
 26 62  1  0
 31 63  1  0
 32 64  1  0
 33 65  1  0
 34 66  1  0
 37 67  1  0
 38 68  1  0
M  CHG  3  20  -1  27  -1  36  -1
M  END
>  <UniqueID>  (45) 
41

>  <SMILES>  (45) 
O=C(CCN(Cc1ccccc1)Cc1ccccc1)[N-]Cc1ccc(C[N-]C(=O)c2ccccc2[O-])cc1

>  <Energy>  (45) 
66.412923968738

>  <Genealogy>  (45) 
O=C(CCN(Cc1ccccc1)Cc1ccccc1)[N-]Cc1ccc(C[N-]C(=O)c2ccccc2[O-])cc1 (protonated)
O=C(CCN(Cc1ccccc1)Cc1ccccc1)[N-]Cc1ccc(C[N-]C(=O)c2ccccc2[O-])cc1 (3D coordinates assigned)
O=C(CCN(Cc1ccccc1)Cc1ccccc1)[N-]Cc1ccc(C[N-]C(=O)c2ccccc2[O-])cc1 (optimized conformer: 66.412923968738 kcal/mol)

>  <smiles>  (45) 
O=C(CCN(Cc1ccccc1)Cc1ccccc1)NCc1ccc(CNC(=O)c2ccccc2O)cc1

>  <score_type>  (45) 
oracle

>  <origin>  (45) 
adg

>  <m_score__min__energy>  (45) 
-14.789999999999999

>  <m_primary>  (45) 
energy

$$$$
45:0
     RDKit          3D

 39 42  0  0  0  0  0  0  0  0999 V2000
   59.6380   27.4390   48.4080 C   0  0  0  0  0  0  0  0  0  0  0  0
   59.1430   27.7030   47.0160 C   0  0  0  0  0  0  0  0  0  0  0  0
   58.4750   26.7280   46.2780 C   0  0  0  0  0  0  0  0  0  0  0  0
   58.0970   27.3600   44.7710 S   0  0  0  0  0  0  0  0  0  0  0  0
   58.7700   28.8790   45.0330 C   0  0  0  0  0  0  0  0  0  0  0  0
   58.7050   29.9720   44.1060 N   0  0  0  0  0  0  0  0  0  0  0  0
   57.4460   31.1600   44.1750 S   0  0  0  0  0  0  0  0  0  0  0  0
   57.0650   31.5530   42.7740 O   0  0  0  0  0  0  0  0  0  0  0  0
   56.2470   30.5770   44.8660 O   0  0  0  0  0  0  0  0  0  0  0  0
   58.0020   32.5620   45.0820 C   0  0  0  0  0  0  0  0  0  0  0  0
   58.8630   33.4990   44.4900 C   0  0  0  0  0  0  0  0  0  0  0  0
   59.3070   34.6040   45.2220 C   0  0  0  0  0  0  0  0  0  0  0  0
   58.8920   34.7810   46.5450 C   0  0  0  0  0  0  0  0  0  0  0  0
   58.0310   33.8520   47.1380 C   0  0  0  0  0  0  0  0  0  0  0  0
   57.5850   32.7460   46.4080 C   0  0  0  0  0  0  0  0  0  0  0  0
   59.3120   28.9260   46.3220 C   0  0  0  0  0  0  0  0  0  0  0  0
   60.0260   30.0980   46.8740 C   0  0  0  0  0  0  0  0  0  0  0  0
   61.2310   30.5160   46.4020 N   0  0  0  0  0  0  0  0  0  0  0  0
   61.5070   31.5680   47.1860 C   0  0  0  0  0  0  0  0  0  0  0  0
   62.6300   32.3890   47.1480 C   0  0  0  0  0  0  0  0  0  0  0  0
   62.7010   33.4410   48.0830 C   0  0  0  0  0  0  0  0  0  0  0  0
   61.6600   33.6370   49.0180 C   0  0  0  0  0  0  0  0  0  0  0  0
   60.5400   32.7840   49.0260 C   0  0  0  0  0  0  0  0  0  0  0  0
   60.5050   31.7570   48.0860 C   0  0  0  0  0  0  0  0  0  0  0  0
   59.5480   30.8340   47.9130 N   0  0  0  0  0  0  0  0  0  0  0  0
   58.9102   27.8272   49.1357 H   0  0  0  0  0  0  0  0  0  0  0  0
   59.7607   26.3557   48.5543 H   0  0  0  0  0  0  0  0  0  0  0  0
   60.6060   27.9406   48.5543 H   0  0  0  0  0  0  0  0  0  0  0  0
   58.2353   25.7124   46.6259 H   0  0  0  0  0  0  0  0  0  0  0  0
   59.4280   30.0780   43.3620 H   0  0  0  0  0  0  0  0  0  0  0  0
   59.1890   33.3636   43.4482 H   0  0  0  0  0  0  0  0  0  0  0  0
   59.9839   35.3353   44.7562 H   0  0  0  0  0  0  0  0  0  0  0  0
   59.2426   35.6509   47.1197 H   0  0  0  0  0  0  0  0  0  0  0  0
   57.7045   33.9915   48.1791 H   0  0  0  0  0  0  0  0  0  0  0  0
   56.9052   32.0183   46.8752 H   0  0  0  0  0  0  0  0  0  0  0  0
   63.4330   32.2229   46.4148 H   0  0  0  0  0  0  0  0  0  0  0  0
   63.5717   34.1133   48.0849 H   0  0  0  0  0  0  0  0  0  0  0  0
   61.7250   34.4609   49.7439 H   0  0  0  0  0  0  0  0  0  0  0  0
   59.7223   32.9236   49.7484 H   0  0  0  0  0  0  0  0  0  0  0  0
  1  2  1  0
  2  3  2  0
  3  4  1  0
  4  5  1  0
  5  6  1  0
  6  7  1  0
  7  8  2  0
  7  9  2  0
  7 10  1  0
 10 11  2  0
 11 12  1  0
 12 13  2  0
 13 14  1  0
 14 15  2  0
  5 16  2  0
 16 17  1  0
 17 18  2  0
 18 19  1  0
 19 20  2  0
 20 21  1  0
 21 22  2  0
 22 23  1  0
 23 24  2  0
 24 25  1  0
 16  2  1  0
 25 17  1  0
 15 10  1  0
 24 19  1  0
  1 26  1  0
  1 27  1  0
  1 28  1  0
  3 29  1  0
  6 30  1  0
 11 31  1  0
 12 32  1  0
 13 33  1  0
 14 34  1  0
 15 35  1  0
 20 36  1  0
 21 37  1  0
 22 38  1  0
 23 39  1  0
M  CHG  1  25  -1
M  END
>  <UniqueID>  (46) 
42

>  <SMILES>  (46) 
Cc1csc(NS(=O)(=O)c2ccccc2)c1-c1nc2ccccc2[n-]1

>  <Energy>  (46) 
108.88598808031311

>  <Genealogy>  (46) 
Cc1csc(NS(=O)(=O)c2ccccc2)c1-c1nc2ccccc2[n-]1 (protonated)
Cc1csc(NS(=O)(=O)c2ccccc2)c1-c1nc2ccccc2[n-]1 (3D coordinates assigned)
Cc1csc(NS(=O)(=O)c2ccccc2)c1-c1nc2ccccc2[n-]1 (optimized conformer: 108.88598808031311 kcal/mol)

>  <smiles>  (46) 
Cc1csc(NS(=O)(=O)c2ccccc2)c1-c1nc2ccccc2[nH]1

>  <score_type>  (46) 
oracle

>  <origin>  (46) 
adg

>  <m_score__min__energy>  (46) 
-10.18

>  <m_primary>  (46) 
energy

$$$$
46:0
     RDKit          3D

 65 68  0  0  0  0  0  0  0  0999 V2000
   59.7490   31.6820   52.8920 C   0  0  0  0  0  0  0  0  0  0  0  0
   59.3950   32.4450   51.6840 N   0  0  0  0  0  0  0  0  0  0  0  0
   59.1380   33.8510   52.0470 C   0  0  0  0  0  0  0  0  0  0  0  0
   58.2250   31.8350   51.0040 C   0  0  0  0  0  0  0  0  0  0  0  0
   58.1100   32.3360   49.5570 C   0  0  0  0  0  0  0  0  0  0  0  0
   59.4520   32.6000   48.9320 C   0  0  0  0  0  0  0  0  0  0  0  0
   60.6050   32.0670   49.4040 N   0  0  0  0  0  0  0  0  0  0  0  0
   61.5770   32.5040   48.5850 C   0  0  0  0  0  0  0  0  0  0  0  0
   62.9370   32.2060   48.6600 C   0  0  0  0  0  0  0  0  0  0  0  0
   63.7870   32.7650   47.6910 C   0  0  0  0  0  0  0  0  0  0  0  0
   63.2660   33.6050   46.6810 C   0  0  0  0  0  0  0  0  0  0  0  0
   61.8890   33.8910   46.6310 C   0  0  0  0  0  0  0  0  0  0  0  0
   61.0690   33.3180   47.6040 C   0  0  0  0  0  0  0  0  0  0  0  0
   59.7040   33.4080   47.8170 C   0  0  0  0  0  0  0  0  0  0  0  0
   58.7180   34.2250   47.0260 C   0  0  0  0  0  0  0  0  0  0  0  0
   57.5730   33.3730   46.4640 C   0  0  0  0  0  0  0  0  0  0  0  0
   57.7060   33.1890   45.0140 N   0  0  0  0  0  0  0  0  0  0  0  0
   57.7210   31.4930   44.6300 S   0  0  0  0  0  0  0  0  0  0  0  0
   58.3720   31.3070   43.2890 O   0  0  0  0  0  0  0  0  0  0  0  0
   56.3110   30.9790   44.5440 O   0  0  0  0  0  0  0  0  0  0  0  0
   58.6050   30.5660   45.8430 C   0  0  0  0  0  0  0  0  0  0  0  0
   59.9910   30.7180   45.9820 C   0  0  0  0  0  0  0  0  0  0  0  0
   60.6940   29.9480   46.9140 C   0  0  0  0  0  0  0  0  0  0  0  0
   60.0200   29.0220   47.7240 C   0  0  0  0  0  0  0  0  0  0  0  0
   60.7740   28.2830   48.6960 N   0  0  0  0  0  0  0  0  0  0  0  0
   61.1540   28.8450   50.2930 S   0  0  0  0  0  0  0  0  0  0  0  0
   59.9300   29.4810   50.8900 O   0  0  0  0  0  0  0  0  0  0  0  0
   62.2420   29.8760   50.2110 O   0  0  0  0  0  0  0  0  0  0  0  0
   61.7040   27.5100   51.3010 C   0  0  0  0  0  0  0  0  0  0  0  0
   61.0400   26.2740   51.2650 C   0  0  0  0  0  0  0  0  0  0  0  0
   61.4890   25.2100   52.0560 C   0  0  0  0  0  0  0  0  0  0  0  0
   62.5950   25.3800   52.8940 C   0  0  0  0  0  0  0  0  0  0  0  0
   63.2580   26.6110   52.9370 C   0  0  0  0  0  0  0  0  0  0  0  0
   62.8160   27.6750   52.1420 C   0  0  0  0  0  0  0  0  0  0  0  0
   58.6280   28.8810   47.5920 C   0  0  0  0  0  0  0  0  0  0  0  0
   57.9280   29.6420   46.6500 C   0  0  0  0  0  0  0  0  0  0  0  0
   59.4790   32.2640   53.7855 H   0  0  0  0  0  0  0  0  0  0  0  0
   59.2016   30.7279   52.8966 H   0  0  0  0  0  0  0  0  0  0  0  0
   60.8310   31.4839   52.8966 H   0  0  0  0  0  0  0  0  0  0  0  0
   59.1200   33.9495   53.1424 H   0  0  0  0  0  0  0  0  0  0  0  0
   59.9347   34.4877   51.6347 H   0  0  0  0  0  0  0  0  0  0  0  0
   58.1676   34.1647   51.6347 H   0  0  0  0  0  0  0  0  0  0  0  0
   58.3416   30.7412   50.9983 H   0  0  0  0  0  0  0  0  0  0  0  0
   57.3132   32.1212   51.5487 H   0  0  0  0  0  0  0  0  0  0  0  0
   57.5864   31.5745   48.9604 H   0  0  0  0  0  0  0  0  0  0  0  0
   57.5562   33.2862   49.5747 H   0  0  0  0  0  0  0  0  0  0  0  0
   60.7170   31.4340   50.2270 H   0  0  0  0  0  0  0  0  0  0  0  0
   63.3320   31.5538   49.4528 H   0  0  0  0  0  0  0  0  0  0  0  0
   64.8649   32.5474   47.7187 H   0  0  0  0  0  0  0  0  0  0  0  0
   63.9415   34.0383   45.9287 H   0  0  0  0  0  0  0  0  0  0  0  0
   61.4726   34.5448   45.8505 H   0  0  0  0  0  0  0  0  0  0  0  0
   58.2935   34.9993   47.6820 H   0  0  0  0  0  0  0  0  0  0  0  0
   59.2554   34.6691   46.1752 H   0  0  0  0  0  0  0  0  0  0  0  0
   57.5865   32.3877   46.9528 H   0  0  0  0  0  0  0  0  0  0  0  0
   56.6242   33.8932   46.6620 H   0  0  0  0  0  0  0  0  0  0  0  0
   56.8510   33.5740   44.5530 H   0  0  0  0  0  0  0  0  0  0  0  0
   60.5280   31.4456   45.3558 H   0  0  0  0  0  0  0  0  0  0  0  0
   61.7828   30.0693   47.0126 H   0  0  0  0  0  0  0  0  0  0  0  0
   60.1640   26.1410   50.6131 H   0  0  0  0  0  0  0  0  0  0  0  0
   60.9716   24.2400   52.0182 H   0  0  0  0  0  0  0  0  0  0  0  0
   62.9440   24.5454   53.5198 H   0  0  0  0  0  0  0  0  0  0  0  0
   64.1282   26.7431   53.5967 H   0  0  0  0  0  0  0  0  0  0  0  0
   63.3404   28.6413   52.1762 H   0  0  0  0  0  0  0  0  0  0  0  0
   58.0866   28.1691   48.2323 H   0  0  0  0  0  0  0  0  0  0  0  0
   56.8408   29.5145   46.5422 H   0  0  0  0  0  0  0  0  0  0  0  0
  1  2  1  0
  2  3  1  0
  2  4  1  0
  4  5  1  0
  5  6  1  0
  6  7  1  0
  7  8  1  0
  8  9  2  0
  9 10  1  0
 10 11  2  0
 11 12  1  0
 12 13  2  0
 13 14  1  0
 14 15  1  0
 15 16  1  0
 16 17  1  0
 17 18  1  0
 18 19  2  0
 18 20  2  0
 18 21  1  0
 21 22  2  0
 22 23  1  0
 23 24  2  0
 24 25  1  0
 25 26  1  0
 26 27  2  0
 26 28  2  0
 26 29  1  0
 29 30  2  0
 30 31  1  0
 31 32  2  0
 32 33  1  0
 33 34  2  0
 24 35  1  0
 35 36  2  0
 14  6  2  0
 36 21  1  0
 13  8  1  0
 34 29  1  0
  1 37  1  0
  1 38  1  0
  1 39  1  0
  3 40  1  0
  3 41  1  0
  3 42  1  0
  4 43  1  0
  4 44  1  0
  5 45  1  0
  5 46  1  0
  7 47  1  0
  9 48  1  0
 10 49  1  0
 11 50  1  0
 12 51  1  0
 15 52  1  0
 15 53  1  0
 16 54  1  0
 16 55  1  0
 17 56  1  0
 22 57  1  0
 23 58  1  0
 30 59  1  0
 31 60  1  0
 32 61  1  0
 33 62  1  0
 34 63  1  0
 35 64  1  0
 36 65  1  0
M  CHG  1  25  -1
M  END
>  <UniqueID>  (47) 
43

>  <SMILES>  (47) 
CN(C)CCc1[nH]c2ccccc2c1CCNS(=O)(=O)c1ccc([N-]S(=O)(=O)c2ccccc2)cc1

>  <Energy>  (47) 
95.40243717459857

>  <Genealogy>  (47) 
CN(C)CCc1[nH]c2ccccc2c1CCNS(=O)(=O)c1ccc([N-]S(=O)(=O)c2ccccc2)cc1 (protonated)
CN(C)CCc1[nH]c2ccccc2c1CCNS(=O)(=O)c1ccc([N-]S(=O)(=O)c2ccccc2)cc1 (3D coordinates assigned)
CN(C)CCc1[nH]c2ccccc2c1CCNS(=O)(=O)c1ccc([N-]S(=O)(=O)c2ccccc2)cc1 (optimized conformer: 95.40243717459857 kcal/mol)

>  <smiles>  (47) 
CN(C)CCc1[nH]c2ccccc2c1CCNS(=O)(=O)c1ccc(NS(=O)(=O)c2ccccc2)cc1

>  <score_type>  (47) 
oracle

>  <origin>  (47) 
adg

>  <m_score__min__energy>  (47) 
-11.949999999999999

>  <m_primary>  (47) 
energy

$$$$
47:0
     RDKit          3D

 39 41  0  0  0  0  0  0  0  0999 V2000
   55.1170   29.0780   44.5960 O   0  0  0  0  0  0  0  0  0  0  0  0
   56.2970   29.1620   45.0320 C   0  0  0  0  0  0  0  0  0  0  0  0
   56.9000   30.4520   45.1910 N   0  0  0  0  0  0  0  0  0  0  0  0
   57.8140   30.7900   46.2760 C   0  0  0  0  0  0  0  0  0  0  0  0
   58.2800   32.2200   46.1600 C   0  0  0  0  0  0  0  0  0  0  0  0
   57.8890   32.9730   45.0370 C   0  0  0  0  0  0  0  0  0  0  0  0
   58.2870   34.3020   44.8970 C   0  0  0  0  0  0  0  0  0  0  0  0
   59.0780   34.9020   45.8770 C   0  0  0  0  0  0  0  0  0  0  0  0
   59.4770   34.1710   46.9950 C   0  0  0  0  0  0  0  0  0  0  0  0
   59.1020   32.8270   47.1440 C   0  0  0  0  0  0  0  0  0  0  0  0
   59.6410   31.9640   48.6350 S   0  0  0  0  0  0  0  0  0  0  0  0
   61.3460   32.5350   48.5360 C   0  0  0  0  0  0  0  0  0  0  0  0
   62.1430   32.1210   47.4580 C   0  0  0  0  0  0  0  0  0  0  0  0
   63.4780   32.5240   47.3700 C   0  0  0  0  0  0  0  0  0  0  0  0
   64.0230   33.3560   48.3490 C   0  0  0  0  0  0  0  0  0  0  0  0
   63.2270   33.8050   49.4060 C   0  0  0  0  0  0  0  0  0  0  0  0
   61.8850   33.4180   49.4980 C   0  0  0  0  0  0  0  0  0  0  0  0
   61.1110   33.9500   50.5300 O   0  0  0  0  0  0  0  0  0  0  0  0
   57.0630   27.9390   45.3840 C   0  0  0  0  0  0  0  0  0  0  0  0
   58.4630   27.9230   45.2470 C   0  0  0  0  0  0  0  0  0  0  0  0
   59.1940   26.7830   45.5810 C   0  0  0  0  0  0  0  0  0  0  0  0
   58.5230   25.6540   46.0510 C   0  0  0  0  0  0  0  0  0  0  0  0
   59.1670   24.6160   46.3570 O   0  0  0  0  0  0  0  0  0  0  0  0
   57.1720   25.6740   46.1810 N   0  0  0  0  0  0  0  0  0  0  0  0
   56.4300   26.7700   45.8650 C   0  0  0  0  0  0  0  0  0  0  0  0
   55.0500   26.7110   46.0240 O   0  0  0  0  0  0  0  0  0  0  0  0
   57.2969   30.6564   47.2376 H   0  0  0  0  0  0  0  0  0  0  0  0
   58.6907   30.1283   46.2167 H   0  0  0  0  0  0  0  0  0  0  0  0
   57.2627   32.5080   44.2614 H   0  0  0  0  0  0  0  0  0  0  0  0
   57.9769   34.8780   44.0127 H   0  0  0  0  0  0  0  0  0  0  0  0
   59.3869   35.9520   45.7676 H   0  0  0  0  0  0  0  0  0  0  0  0
   60.0925   34.6530   47.7688 H   0  0  0  0  0  0  0  0  0  0  0  0
   61.7143   31.4753   46.6775 H   0  0  0  0  0  0  0  0  0  0  0  0
   64.1000   32.1852   46.5283 H   0  0  0  0  0  0  0  0  0  0  0  0
   65.0789   33.6582   48.2886 H   0  0  0  0  0  0  0  0  0  0  0  0
   63.6581   34.4673   50.1712 H   0  0  0  0  0  0  0  0  0  0  0  0
   60.2210   33.5550   50.8090 H   0  0  0  0  0  0  0  0  0  0  0  0
   58.9852   28.8163   44.8737 H   0  0  0  0  0  0  0  0  0  0  0  0
   60.2888   26.7744   45.4748 H   0  0  0  0  0  0  0  0  0  0  0  0
  1  2  2  0
  2  3  1  0
  3  4  1  0
  4  5  1  0
  5  6  2  0
  6  7  1  0
  7  8  2  0
  8  9  1  0
  9 10  2  0
 10 11  1  0
 11 12  1  0
 12 13  2  0
 13 14  1  0
 14 15  2  0
 15 16  1  0
 16 17  2  0
 17 18  1  0
  2 19  1  0
 19 20  1  0
 20 21  2  0
 21 22  1  0
 22 23  2  0
 22 24  1  0
 24 25  1  0
 25 26  1  0
 10  5  1  0
 17 12  1  0
 25 19  2  0
  4 27  1  0
  4 28  1  0
  6 29  1  0
  7 30  1  0
  8 31  1  0
  9 32  1  0
 13 33  1  0
 14 34  1  0
 15 35  1  0
 16 36  1  0
 18 37  1  0
 20 38  1  0
 21 39  1  0
M  CHG  3   3  -1  24  -1  26  -1
M  END
>  <UniqueID>  (48) 
44

>  <SMILES>  (48) 
O=C([N-]Cc1ccccc1Sc1ccccc1O)c1ccc(=O)[n-]c1[O-]

>  <Energy>  (48) 
41.96771316019803

>  <Genealogy>  (48) 
O=C([N-]Cc1ccccc1Sc1ccccc1O)c1ccc(=O)[n-]c1[O-] (protonated)
O=C([N-]Cc1ccccc1Sc1ccccc1O)c1ccc(=O)[n-]c1[O-] (3D coordinates assigned)
O=C([N-]Cc1ccccc1Sc1ccccc1O)c1ccc(=O)[n-]c1[O-] (optimized conformer: 41.96771316019803 kcal/mol)

>  <smiles>  (48) 
O=C(NCc1ccccc1Sc1ccccc1O)c1ccc(=O)[nH]c1O

>  <score_type>  (48) 
oracle

>  <origin>  (48) 
adg

>  <m_score__min__energy>  (48) 
-16.170000000000002

>  <m_primary>  (48) 
energy

$$$$
48:0
     RDKit          3D

 73 76  0  0  0  0  0  0  0  0999 V2000
   55.1400   29.0570   44.8670 O   0  0  0  0  0  0  0  0  0  0  0  0
   56.1650   29.7290   44.5810 C   0  0  0  0  0  0  0  0  0  0  0  0
   56.1540   31.1080   44.7550 O   0  0  0  0  0  0  0  0  0  0  0  0
   57.4010   29.0470   44.0840 C   0  0  0  0  0  0  0  0  0  0  0  0
   58.6560   29.7990   44.5250 C   0  0  0  0  0  0  0  0  0  0  0  0
   59.0510   29.3630   45.8590 N   0  0  0  0  0  0  0  0  0  0  0  0
   59.8530   30.1410   46.7550 C   0  0  0  0  0  0  0  0  0  0  0  0
   60.9510   30.5970   46.3450 O   0  0  0  0  0  0  0  0  0  0  0  0
   59.4440   30.3990   48.1500 C   0  0  0  0  0  0  0  0  0  0  0  0
   59.2410   29.3340   49.0410 C   0  0  0  0  0  0  0  0  0  0  0  0
   58.8500   29.5820   50.3580 C   0  0  0  0  0  0  0  0  0  0  0  0
   58.6330   30.8970   50.7990 C   0  0  0  0  0  0  0  0  0  0  0  0
   58.2350   31.1620   52.2300 C   0  0  0  0  0  0  0  0  0  0  0  0
   57.8060   29.8760   52.9580 C   0  0  2  0  0  0  0  0  0  0  0  0
   56.2150   30.1860   53.8320 S   0  0  0  0  0  0  0  0  0  0  0  0
   55.0870   29.4230   52.6090 C   0  0  0  0  0  0  0  0  0  0  0  0
   53.8730   30.2760   52.3620 C   0  0  0  0  0  0  0  0  0  0  0  0
   53.6270   30.8080   51.0870 C   0  0  0  0  0  0  0  0  0  0  0  0
   52.5060   31.6110   50.8610 C   0  0  0  0  0  0  0  0  0  0  0  0
   51.6200   31.8870   51.9050 C   0  0  0  0  0  0  0  0  0  0  0  0
   50.5100   32.6920   51.6800 O   0  0  0  0  0  0  0  0  0  0  0  0
   51.8510   31.3510   53.1770 C   0  0  0  0  0  0  0  0  0  0  0  0
   52.9680   30.5420   53.4040 C   0  0  0  0  0  0  0  0  0  0  0  0
   58.8640   29.4490   53.9520 C   0  0  0  0  0  0  0  0  0  0  0  0
   58.5220   28.8940   55.0310 O   0  0  0  0  0  0  0  0  0  0  0  0
   60.2310   29.8540   53.7930 N   0  0  0  0  0  0  0  0  0  0  0  0
   61.1080   29.6310   52.6380 C   0  0  1  0  0  0  0  0  0  0  0  0
   62.3190   30.5880   52.6160 C   0  0  0  0  0  0  0  0  0  0  0  0
   63.7550   29.9610   51.6620 S   0  0  0  0  0  0  0  0  0  0  0  0
   63.6550   31.2240   50.3940 C   0  0  0  0  0  0  0  0  0  0  0  0
   64.6930   32.1550   50.2380 C   0  0  0  0  0  0  0  0  0  0  0  0
   64.6020   33.1450   49.2510 C   0  0  0  0  0  0  0  0  0  0  0  0
   63.4790   33.2010   48.4180 C   0  0  0  0  0  0  0  0  0  0  0  0
   62.4480   32.2690   48.5680 C   0  0  0  0  0  0  0  0  0  0  0  0
   62.5340   31.2800   49.5540 C   0  0  0  0  0  0  0  0  0  0  0  0
   61.4960   28.1720   52.4540 C   0  0  0  0  0  0  0  0  0  0  0  0
   61.0650   27.4820   51.3030 C   0  0  0  0  0  0  0  0  0  0  0  0
   61.4600   26.1610   51.0710 C   0  0  0  0  0  0  0  0  0  0  0  0
   62.2850   25.5100   51.9900 C   0  0  0  0  0  0  0  0  0  0  0  0
   62.6870   24.2010   51.7550 O   0  0  0  0  0  0  0  0  0  0  0  0
   62.7030   26.1740   53.1470 C   0  0  0  0  0  0  0  0  0  0  0  0
   62.3040   27.4920   53.3860 C   0  0  0  0  0  0  0  0  0  0  0  0
   58.8200   31.9610   49.9020 C   0  0  0  0  0  0  0  0  0  0  0  0
   59.2160   31.7130   48.5850 C   0  0  0  0  0  0  0  0  0  0  0  0
   57.4343   28.0241   44.4871 H   0  0  0  0  0  0  0  0  0  0  0  0
   57.3724   29.0271   42.9846 H   0  0  0  0  0  0  0  0  0  0  0  0
   59.4724   29.5933   43.8171 H   0  0  0  0  0  0  0  0  0  0  0  0
   58.4443   30.8783   44.5439 H   0  0  0  0  0  0  0  0  0  0  0  0
   59.3907   28.2989   48.7001 H   0  0  0  0  0  0  0  0  0  0  0  0
   58.7111   28.7419   51.0544 H   0  0  0  0  0  0  0  0  0  0  0  0
   59.0922   31.6014   52.7612 H   0  0  0  0  0  0  0  0  0  0  0  0
   57.3764   31.8495   52.2215 H   0  0  0  0  0  0  0  0  0  0  0  0
   57.6785   29.0687   52.2217 H   0  0  0  0  0  0  0  0  0  0  0  0
   55.6277   29.2896   51.6604 H   0  0  0  0  0  0  0  0  0  0  0  0
   54.7500   28.4560   53.0107 H   0  0  0  0  0  0  0  0  0  0  0  0
   54.3204   30.5917   50.2609 H   0  0  0  0  0  0  0  0  0  0  0  0
   52.3210   32.0264   49.8594 H   0  0  0  0  0  0  0  0  0  0  0  0
   51.1527   31.5666   53.9991 H   0  0  0  0  0  0  0  0  0  0  0  0
   53.1394   30.1119   54.4018 H   0  0  0  0  0  0  0  0  0  0  0  0
   60.5076   29.8856   51.7522 H   0  0  0  0  0  0  0  0  0  0  0  0
   61.9978   31.5408   52.1698 H   0  0  0  0  0  0  0  0  0  0  0  0
   62.6548   30.6973   53.6578 H   0  0  0  0  0  0  0  0  0  0  0  0
   65.5776   32.1076   50.8902 H   0  0  0  0  0  0  0  0  0  0  0  0
   65.4132   33.8782   49.1308 H   0  0  0  0  0  0  0  0  0  0  0  0
   63.4074   33.9795   47.6441 H   0  0  0  0  0  0  0  0  0  0  0  0
   61.5677   32.3132   47.9098 H   0  0  0  0  0  0  0  0  0  0  0  0
   61.7223   30.5467   49.6700 H   0  0  0  0  0  0  0  0  0  0  0  0
   60.4102   27.9887   50.5788 H   0  0  0  0  0  0  0  0  0  0  0  0
   61.1213   25.6356   50.1659 H   0  0  0  0  0  0  0  0  0  0  0  0
   63.3486   25.6571   53.8723 H   0  0  0  0  0  0  0  0  0  0  0  0
   62.6229   28.0013   54.3074 H   0  0  0  0  0  0  0  0  0  0  0  0
   58.6539   32.9952   50.2378 H   0  0  0  0  0  0  0  0  0  0  0  0
   59.3495   32.5520   47.8862 H   0  0  0  0  0  0  0  0  0  0  0  0
  1  2  2  0
  2  3  1  0
  2  4  1  0
  4  5  1  0
  5  6  1  0
  6  7  1  0
  7  8  2  0
  7  9  1  0
  9 10  2  0
 10 11  1  0
 11 12  2  0
 12 13  1  0
 13 14  1  0
 14 15  1  0
 15 16  1  0
 16 17  1  0
 17 18  2  0
 18 19  1  0
 19 20  2  0
 20 21  1  0
 20 22  1  0
 22 23  2  0
 14 24  1  0
 24 25  2  0
 24 26  1  0
 26 27  1  0
 27 28  1  0
 28 29  1  0
 29 30  1  0
 30 31  2  0
 31 32  1  0
 32 33  2  0
 33 34  1  0
 34 35  2  0
 27 36  1  0
 36 37  2  0
 37 38  1  0
 38 39  2  0
 39 40  1  0
 39 41  1  0
 41 42  2  0
 12 43  1  0
 43 44  2  0
 44  9  1  0
 23 17  1  0
 35 30  1  0
 42 36  1  0
  4 45  1  0
  4 46  1  0
  5 47  1  0
  5 48  1  0
 10 49  1  0
 11 50  1  0
 13 51  1  0
 13 52  1  0
 14 53  1  6
 16 54  1  0
 16 55  1  0
 18 56  1  0
 19 57  1  0
 22 58  1  0
 23 59  1  0
 27 60  1  6
 28 61  1  0
 28 62  1  0
 31 63  1  0
 32 64  1  0
 33 65  1  0
 34 66  1  0
 35 67  1  0
 37 68  1  0
 38 69  1  0
 41 70  1  0
 42 71  1  0
 43 72  1  0
 44 73  1  0
M  CHG  5   3  -1   6  -1  21  -1  26  -1  40  -1
M  END
>  <UniqueID>  (49) 
45

>  <SMILES>  (49) 
O=C([O-])CC[N-]C(=O)c1ccc(C[C@H](SCc2ccc([O-])cc2)C(=O)[N-][C@@H](CSc2ccccc2)c2ccc([O-])cc2)cc1

>  <Energy>  (49) 
74.86173208299748

>  <Genealogy>  (49) 
O=C([O-])CC[N-]C(=O)c1ccc(CC(SCc2ccc([O-])cc2)C(=O)[N-]C(CSc2ccccc2)c2ccc([O-])cc2)cc1 (protonated)
O=C([O-])CC[N-]C(=O)c1ccc(C[C@H](SCc2ccc([O-])cc2)C(=O)[N-][C@@H](CSc2ccccc2)c2ccc([O-])cc2)cc1 (chirality)
O=C([O-])CC[N-]C(=O)c1ccc(C[C@H](SCc2ccc([O-])cc2)C(=O)[N-][C@@H](CSc2ccccc2)c2ccc([O-])cc2)cc1 (3D coordinates assigned)
O=C([O-])CC[N-]C(=O)c1ccc(C[C@H](SCc2ccc([O-])cc2)C(=O)[N-][C@@H](CSc2ccccc2)c2ccc([O-])cc2)cc1 (optimized conformer: 74.86173208299748 kcal/mol)

>  <smiles>  (49) 
O=C(O)CCNC(=O)c1ccc(CC(SCc2ccc(O)cc2)C(=O)NC(CSc2ccccc2)c2ccc(O)cc2)cc1

>  <score_type>  (49) 
oracle

>  <origin>  (49) 
adg

>  <m_score__min__energy>  (49) 
-19.399999999999999

>  <m_primary>  (49) 
energy

$$$$
49:0
     RDKit          3D

 37 39  0  0  0  0  0  0  0  0999 V2000
   61.6640   27.4050   52.2080 O   0  0  0  0  0  0  0  0  0  0  0  0
   61.1620   27.7260   50.9520 C   0  0  0  0  0  0  0  0  0  0  0  0
   60.7530   29.0350   50.6760 C   0  0  0  0  0  0  0  0  0  0  0  0
   60.2510   29.3600   49.4130 C   0  0  0  0  0  0  0  0  0  0  0  0
   60.1620   28.3800   48.4110 C   0  0  0  0  0  0  0  0  0  0  0  0
   59.6140   28.7320   47.0740 C   0  0  0  0  0  0  0  0  0  0  0  0
   60.2610   29.5780   46.2330 C   0  0  0  0  0  0  0  0  0  0  0  0
   61.2490   28.9590   44.9050 Cl  0  0  0  0  0  0  0  0  0  0  0  0
   60.2000   31.0530   46.3800 C   0  0  0  0  0  0  0  0  0  0  0  0
   59.1290   31.7850   45.8380 C   0  0  0  0  0  0  0  0  0  0  0  0
   59.0810   33.1750   45.9780 C   0  0  0  0  0  0  0  0  0  0  0  0
   60.1060   33.8490   46.6480 C   0  0  0  0  0  0  0  0  0  0  0  0
   60.0460   35.2350   46.7830 O   0  0  0  0  0  0  0  0  0  0  0  0
   61.1850   33.1270   47.1760 C   0  0  0  0  0  0  0  0  0  0  0  0
   61.2340   31.7370   47.0380 C   0  0  0  0  0  0  0  0  0  0  0  0
   58.3430   28.0810   46.6740 C   0  0  0  0  0  0  0  0  0  0  0  0
   57.4910   28.6870   45.7340 C   0  0  0  0  0  0  0  0  0  0  0  0
   56.2790   28.0810   45.3880 C   0  0  0  0  0  0  0  0  0  0  0  0
   55.9020   26.8750   45.9860 C   0  0  0  0  0  0  0  0  0  0  0  0
   54.6980   26.2750   45.6410 O   0  0  0  0  0  0  0  0  0  0  0  0
   56.7370   26.2740   46.9340 C   0  0  0  0  0  0  0  0  0  0  0  0
   57.9490   26.8760   47.2820 C   0  0  0  0  0  0  0  0  0  0  0  0
   60.5590   27.0620   48.7020 C   0  0  0  0  0  0  0  0  0  0  0  0
   61.0630   26.7420   49.9660 C   0  0  0  0  0  0  0  0  0  0  0  0
   60.8266   29.8092   51.4539 H   0  0  0  0  0  0  0  0  0  0  0  0
   59.9238   30.3889   49.2025 H   0  0  0  0  0  0  0  0  0  0  0  0
   58.3246   31.2611   45.3009 H   0  0  0  0  0  0  0  0  0  0  0  0
   58.2346   33.7397   45.5599 H   0  0  0  0  0  0  0  0  0  0  0  0
   59.5350   35.6720   47.5410 H   0  0  0  0  0  0  0  0  0  0  0  0
   61.9950   33.6554   47.7001 H   0  0  0  0  0  0  0  0  0  0  0  0
   62.0873   31.1762   47.4472 H   0  0  0  0  0  0  0  0  0  0  0  0
   57.7788   29.6414   45.2689 H   0  0  0  0  0  0  0  0  0  0  0  0
   55.6212   28.5541   44.6440 H   0  0  0  0  0  0  0  0  0  0  0  0
   56.4390   25.3262   47.4061 H   0  0  0  0  0  0  0  0  0  0  0  0
   58.5979   26.4050   48.0351 H   0  0  0  0  0  0  0  0  0  0  0  0
   60.4725   26.2808   47.9324 H   0  0  0  0  0  0  0  0  0  0  0  0
   61.3825   25.7124   50.1846 H   0  0  0  0  0  0  0  0  0  0  0  0
  1  2  1  0
  2  3  2  0
  3  4  1  0
  4  5  2  0
  5  6  1  0
  6  7  2  3
  7  8  1  0
  7  9  1  0
  9 10  2  0
 10 11  1  0
 11 12  2  0
 12 13  1  0
 12 14  1  0
 14 15  2  0
  6 16  1  0
 16 17  2  0
 17 18  1  0
 18 19  2  0
 19 20  1  0
 19 21  1  0
 21 22  2  0
  5 23  1  0
 23 24  2  0
 24  2  1  0
 15  9  1  0
 22 16  1  0
  3 25  1  0
  4 26  1  0
 10 27  1  0
 11 28  1  0
 13 29  1  0
 14 30  1  0
 15 31  1  0
 17 32  1  0
 18 33  1  0
 21 34  1  0
 22 35  1  0
 23 36  1  0
 24 37  1  0
M  CHG  2   1  -1  20  -1
M  END
>  <UniqueID>  (50) 
46

>  <SMILES>  (50) 
[O-]c1ccc(C(=C(Cl)c2ccc(O)cc2)c2ccc([O-])cc2)cc1

>  <Energy>  (50) 
58.537132333464264

>  <Genealogy>  (50) 
[O-]c1ccc(C(=C(Cl)c2ccc(O)cc2)c2ccc([O-])cc2)cc1 (protonated)
[O-]c1ccc(C(=C(Cl)c2ccc(O)cc2)c2ccc([O-])cc2)cc1 (3D coordinates assigned)
[O-]c1ccc(C(=C(Cl)c2ccc(O)cc2)c2ccc([O-])cc2)cc1 (optimized conformer: 58.537132333464264 kcal/mol)

>  <smiles>  (50) 
Oc1ccc(C(Cl)=C(c2ccc(O)cc2)c2ccc(O)cc2)cc1

>  <score_type>  (50) 
oracle

>  <origin>  (50) 
adg

>  <m_score__min__energy>  (50) 
-10.19

>  <m_primary>  (50) 
energy

$$$$
50:0
     RDKit          3D

 52 54  0  0  1  0  0  0  0  0999 V2000
   58.5170   33.3800   47.8050 C   0  0  0  0  0  0  0  0  0  0  0  0
   58.4100   33.1130   46.3570 C   0  0  0  0  0  0  0  0  0  0  0  0
   58.9600   33.9970   45.4530 C   0  0  0  0  0  0  0  0  0  0  0  0
   58.8310   33.6980   44.1220 C   0  0  0  0  0  0  0  0  0  0  0  0
   58.1810   32.5650   43.6660 C   0  0  0  0  0  0  0  0  0  0  0  0
   58.0830   32.3120   42.1940 C   0  0  0  0  0  0  0  0  0  0  0  0
   57.6170   31.6580   44.5770 C   0  0  0  0  0  0  0  0  0  0  0  0
   56.8920   30.2400   43.9340 S   0  0  0  0  0  0  0  0  0  0  0  0
   55.7650   29.8520   44.9020 O   0  0  0  0  0  0  0  0  0  0  0  0
   56.1640   30.5160   42.6340 O   0  0  0  0  0  0  0  0  0  0  0  0
   57.9020   28.8810   43.8120 N   0  0  0  0  0  0  0  0  0  0  0  0
   58.4350   28.0810   44.8290 C   0  0  0  0  0  0  0  0  0  0  0  0
   58.6420   26.7390   44.8530 C   0  0  0  0  0  0  0  0  0  0  0  0
   59.2200   26.0830   45.9490 C   0  0  0  0  0  0  0  0  0  0  0  0
   59.6080   26.7900   47.0650 C   0  0  0  0  0  0  0  0  0  0  0  0
   59.4100   28.1380   47.0640 C   0  0  0  0  0  0  0  0  0  0  0  0
   59.8970   29.0690   48.4790 S   0  0  0  0  0  0  0  0  0  0  0  0
   60.0430   28.1960   49.6830 O   0  0  0  0  0  0  0  0  0  0  0  0
   58.8400   30.0870   48.7300 O   0  0  0  0  0  0  0  0  0  0  0  0
   61.4570   29.7910   48.1960 N   0  0  0  0  0  0  0  0  0  0  0  0
   61.5740   31.0660   48.3660 C   0  0  0  0  0  0  0  0  0  0  0  0
   61.0670   31.6900   49.5040 C   0  0  0  0  0  0  0  0  0  0  0  0
   61.2260   33.0570   49.6250 C   0  0  0  0  0  0  0  0  0  0  0  0
   60.7180   33.8130   50.8030 C   0  0  0  0  0  0  0  0  0  0  0  0
   61.8590   33.7330   48.6440 N   0  0  0  0  0  0  0  0  0  0  0  0
   62.3490   33.1330   47.5460 C   0  0  0  0  0  0  0  0  0  0  0  0
   63.0500   33.8680   46.4590 C   0  0  0  0  0  0  0  0  0  0  0  0
   62.2050   31.8000   47.4100 N   0  0  0  0  0  0  0  0  0  0  0  0
   58.8440   28.7760   45.9900 C   0  0  0  0  0  0  0  0  0  0  0  0
   57.7650   31.9860   45.8990 C   0  0  0  0  0  0  0  0  0  0  0  0
   58.1652   32.5021   48.3667 H   0  0  0  0  0  0  0  0  0  0  0  0
   59.5665   33.5843   48.0636 H   0  0  0  0  0  0  0  0  0  0  0  0
   57.8991   34.2525   48.0636 H   0  0  0  0  0  0  0  0  0  0  0  0
   59.4816   34.9061   45.7870 H   0  0  0  0  0  0  0  0  0  0  0  0
   59.2633   34.3892   43.3835 H   0  0  0  0  0  0  0  0  0  0  0  0
   57.6906   31.2990   42.0214 H   0  0  0  0  0  0  0  0  0  0  0  0
   57.4057   33.0500   41.7394 H   0  0  0  0  0  0  0  0  0  0  0  0
   59.0807   32.4011   41.7394 H   0  0  0  0  0  0  0  0  0  0  0  0
   58.1740   28.5950   42.8150 H   0  0  0  0  0  0  0  0  0  0  0  0
   58.3443   26.1430   43.9777 H   0  0  0  0  0  0  0  0  0  0  0  0
   59.3649   24.9931   45.9170 H   0  0  0  0  0  0  0  0  0  0  0  0
   60.0628   26.2832   47.9289 H   0  0  0  0  0  0  0  0  0  0  0  0
   60.5539   31.1098   50.2851 H   0  0  0  0  0  0  0  0  0  0  0  0
   61.0505   33.3182   51.7274 H   0  0  0  0  0  0  0  0  0  0  0  0
   61.1096   34.8406   50.7759 H   0  0  0  0  0  0  0  0  0  0  0  0
   59.6186   33.8387   50.7759 H   0  0  0  0  0  0  0  0  0  0  0  0
   61.9690   34.7700   48.7560 H   0  0  0  0  0  0  0  0  0  0  0  0
   63.7458   34.5975   46.8991 H   0  0  0  0  0  0  0  0  0  0  0  0
   63.6112   33.1551   45.8371 H   0  0  0  0  0  0  0  0  0  0  0  0
   62.3113   34.3949   45.8371 H   0  0  0  0  0  0  0  0  0  0  0  0
   58.7035   29.8661   46.0335 H   0  0  0  0  0  0  0  0  0  0  0  0
   57.3387   31.3011   46.6468 H   0  0  0  0  0  0  0  0  0  0  0  0
  1  2  1  0
  2  3  2  0
  3  4  1  0
  4  5  2  0
  5  6  1  0
  5  7  1  0
  7  8  1  0
  8  9  2  0
  8 10  2  0
  8 11  1  0
 11 12  1  0
 12 13  2  0
 13 14  1  0
 14 15  2  0
 15 16  1  0
 16 17  1  0
 17 18  2  0
 17 19  2  0
 17 20  1  0
 20 21  2  0
 21 22  1  0
 22 23  2  0
 23 24  1  0
 23 25  1  0
 25 26  1  0
 26 27  1  0
 26 28  2  0
 16 29  2  0
  7 30  2  0
 30  2  1  0
 29 12  1  0
 28 21  1  0
  1 31  1  0
  1 32  1  0
  1 33  1  0
  3 34  1  0
  4 35  1  0
  6 36  1  0
  6 37  1  0
  6 38  1  0
 11 39  1  0
 13 40  1  0
 14 41  1  0
 15 42  1  0
 22 43  1  0
 24 44  1  0
 24 45  1  0
 24 46  1  0
 25 47  1  0
 27 48  1  0
 27 49  1  0
 27 50  1  0
 29 51  1  0
 30 52  1  0
M  END
>  <smiles>  (51) 
Cc1ccc(C)c(S(=O)(=O)Nc2cccc(S(=O)(=O)N=c3cc(C)[nH]c(C)n3)c2)c1

>  <score_type>  (51) 
oracle

>  <origin>  (51) 
adg

>  <m_score__min__energy>  (51) 
-11.050000000000001

>  <m_primary>  (51) 
energy

$$$$
51:0
     RDKit          3D

 49 51  0  0  0  0  0  0  0  0999 V2000
   55.3430   30.2690   52.4290 C   0  0  0  0  0  0  0  0  0  0  0  0
   56.6760   30.0410   51.9840 O   0  0  0  0  0  0  0  0  0  0  0  0
   57.5290   31.0420   51.4950 C   0  0  0  0  0  0  0  0  0  0  0  0
   57.6570   32.2970   52.1210 C   0  0  0  0  0  0  0  0  0  0  0  0
   58.5360   33.2560   51.6060 C   0  0  0  0  0  0  0  0  0  0  0  0
   59.2840   32.9830   50.4460 C   0  0  0  0  0  0  0  0  0  0  0  0
   60.2020   33.9010   49.9110 O   0  0  0  0  0  0  0  0  0  0  0  0
   61.1170   33.6250   48.8840 C   0  0  0  0  0  0  0  0  0  0  0  0
   62.2480   32.8220   49.1210 C   0  0  0  0  0  0  0  0  0  0  0  0
   63.1520   32.5560   48.0910 C   0  0  0  0  0  0  0  0  0  0  0  0
   62.9450   33.0980   46.8220 C   0  0  0  0  0  0  0  0  0  0  0  0
   61.8320   33.9100   46.5780 C   0  0  0  0  0  0  0  0  0  0  0  0
   60.9140   34.1840   47.6060 C   0  0  0  0  0  0  0  0  0  0  0  0
   59.6930   35.0270   47.3290 C   0  0  0  0  0  0  0  0  0  0  0  0
   58.7840   34.3160   46.4360 N   0  0  0  0  0  0  0  0  0  0  0  0
   58.3670   32.9650   46.6510 C   0  0  0  0  0  0  0  0  0  0  0  0
   57.4110   32.7150   47.4350 O   0  0  0  0  0  0  0  0  0  0  0  0
   59.0090   31.9100   45.9270 N   0  0  0  0  0  0  0  0  0  0  0  0
   58.6960   30.5230   46.1250 C   0  0  0  0  0  0  0  0  0  0  0  0
   59.4320   29.7570   47.0470 C   0  0  0  0  0  0  0  0  0  0  0  0
   59.1300   28.4070   47.2450 C   0  0  0  0  0  0  0  0  0  0  0  0
   58.0890   27.8100   46.5310 C   0  0  0  0  0  0  0  0  0  0  0  0
   57.3540   28.5590   45.6070 C   0  0  0  0  0  0  0  0  0  0  0  0
   57.6610   29.9090   45.3880 C   0  0  0  0  0  0  0  0  0  0  0  0
   56.6600   30.8480   44.2270 S   0  0  0  0  0  0  0  0  0  0  0  0
   56.6200   29.5210   42.9830 C   0  0  0  0  0  0  0  0  0  0  0  0
   59.1490   31.7380   49.8240 C   0  0  0  0  0  0  0  0  0  0  0  0
   58.2770   30.7750   50.3440 C   0  0  0  0  0  0  0  0  0  0  0  0
   55.3192   30.2731   53.5287 H   0  0  0  0  0  0  0  0  0  0  0  0
   54.9913   31.2403   52.0510 H   0  0  0  0  0  0  0  0  0  0  0  0
   54.6885   29.4698   52.0510 H   0  0  0  0  0  0  0  0  0  0  0  0
   57.0633   32.5243   53.0187 H   0  0  0  0  0  0  0  0  0  0  0  0
   58.6428   34.2278   52.1103 H   0  0  0  0  0  0  0  0  0  0  0  0
   62.4207   32.4018   50.1228 H   0  0  0  0  0  0  0  0  0  0  0  0
   64.0283   31.9185   48.2800 H   0  0  0  0  0  0  0  0  0  0  0  0
   63.6583   32.8865   46.0118 H   0  0  0  0  0  0  0  0  0  0  0  0
   61.6748   34.3361   45.5762 H   0  0  0  0  0  0  0  0  0  0  0  0
   59.1774   35.2427   48.2764 H   0  0  0  0  0  0  0  0  0  0  0  0
   60.0057   35.9667   46.8503 H   0  0  0  0  0  0  0  0  0  0  0  0
   59.6390   32.1760   45.1390 H   0  0  0  0  0  0  0  0  0  0  0  0
   60.2501   30.2234   47.6155 H   0  0  0  0  0  0  0  0  0  0  0  0
   59.7133   27.8137   47.9645 H   0  0  0  0  0  0  0  0  0  0  0  0
   57.8470   26.7496   46.6956 H   0  0  0  0  0  0  0  0  0  0  0  0
   56.5315   28.0869   45.0497 H   0  0  0  0  0  0  0  0  0  0  0  0
   56.5906   28.5448   43.4891 H   0  0  0  0  0  0  0  0  0  0  0  0
   55.7249   29.6350   42.3539 H   0  0  0  0  0  0  0  0  0  0  0  0
   57.5204   29.5809   42.3539 H   0  0  0  0  0  0  0  0  0  0  0  0
   59.7327   31.5139   48.9190 H   0  0  0  0  0  0  0  0  0  0  0  0
   58.1791   29.8004   49.8435 H   0  0  0  0  0  0  0  0  0  0  0  0
  1  2  1  0
  2  3  1  0
  3  4  2  0
  4  5  1  0
  5  6  2  0
  6  7  1  0
  7  8  1  0
  8  9  2  0
  9 10  1  0
 10 11  2  0
 11 12  1  0
 12 13  2  0
 13 14  1  0
 14 15  1  0
 15 16  1  0
 16 17  2  0
 16 18  1  0
 18 19  1  0
 19 20  2  0
 20 21  1  0
 21 22  2  0
 22 23  1  0
 23 24  2  0
 24 25  1  0
 25 26  1  0
  6 27  1  0
 27 28  2  0
 28  3  1  0
 13  8  1  0
 24 19  1  0
  1 29  1  0
  1 30  1  0
  1 31  1  0
  4 32  1  0
  5 33  1  0
  9 34  1  0
 10 35  1  0
 11 36  1  0
 12 37  1  0
 14 38  1  0
 14 39  1  0
 18 40  1  0
 20 41  1  0
 21 42  1  0
 22 43  1  0
 23 44  1  0
 26 45  1  0
 26 46  1  0
 26 47  1  0
 27 48  1  0
 28 49  1  0
M  CHG  1  15  -1
M  END
>  <UniqueID>  (52) 
47

>  <SMILES>  (52) 
COc1ccc(Oc2ccccc2C[N-]C(=O)Nc2ccccc2SC)cc1

>  <Energy>  (52) 
53.14286878662794

>  <Genealogy>  (52) 
COc1ccc(Oc2ccccc2C[N-]C(=O)Nc2ccccc2SC)cc1 (protonated)
COc1ccc(Oc2ccccc2C[N-]C(=O)Nc2ccccc2SC)cc1 (3D coordinates assigned)
COc1ccc(Oc2ccccc2C[N-]C(=O)Nc2ccccc2SC)cc1 (optimized conformer: 53.14286878662794 kcal/mol)

>  <smiles>  (52) 
COc1ccc(Oc2ccccc2CNC(=O)Nc2ccccc2SC)cc1

>  <score_type>  (52) 
oracle

>  <origin>  (52) 
adg

>  <m_score__min__energy>  (52) 
-10.220000000000001

>  <m_primary>  (52) 
energy

$$$$
52:0
     RDKit          3D

 48 51  0  0  0  0  0  0  0  0999 V2000
   57.0380   32.9540   45.1990 O   0  0  0  0  0  0  0  0  0  0  0  0
   57.8500   32.0330   44.9120 C   0  0  0  0  0  0  0  0  0  0  0  0
   57.5410   31.1060   43.7760 C   0  0  0  0  0  0  0  0  0  0  0  0
   57.6500   29.7180   44.2170 N   0  0  0  0  0  0  0  0  0  0  0  0
   56.6240   28.9570   44.8590 C   0  0  0  0  0  0  0  0  0  0  0  0
   55.4060   29.2800   44.8750 O   0  0  0  0  0  0  0  0  0  0  0  0
   57.2000   27.7870   45.5130 C   0  0  0  0  0  0  0  0  0  0  0  0
   56.6020   26.7690   46.2520 C   0  0  0  0  0  0  0  0  0  0  0  0
   57.4310   25.7650   46.7860 C   0  0  0  0  0  0  0  0  0  0  0  0
   58.8270   25.8040   46.5750 C   0  0  0  0  0  0  0  0  0  0  0  0
   59.4070   26.8450   45.8290 C   0  0  0  0  0  0  0  0  0  0  0  0
   58.5630   27.8250   45.3080 C   0  0  0  0  0  0  0  0  0  0  0  0
   58.8590   29.0170   44.5240 C   0  0  0  0  0  0  0  0  0  0  0  0
   60.0080   29.3970   44.1720 O   0  0  0  0  0  0  0  0  0  0  0  0
   59.0690   31.8780   45.6540 N   0  0  0  0  0  0  0  0  0  0  0  0
   59.3120   32.5040   46.9270 C   0  0  0  0  0  0  0  0  0  0  0  0
   59.4720   33.9000   47.0100 C   0  0  0  0  0  0  0  0  0  0  0  0
   59.6440   34.5220   48.2480 C   0  0  0  0  0  0  0  0  0  0  0  0
   59.6480   33.7630   49.4170 C   0  0  0  0  0  0  0  0  0  0  0  0
   59.4740   32.3800   49.3550 C   0  0  0  0  0  0  0  0  0  0  0  0
   59.2960   31.7390   48.1180 C   0  0  0  0  0  0  0  0  0  0  0  0
   59.1480   30.2660   48.0850 C   0  0  0  0  0  0  0  0  0  0  0  0
   58.2360   29.7630   47.3740 O   0  0  0  0  0  0  0  0  0  0  0  0
   60.0210   29.4040   48.8440 N   0  0  0  0  0  0  0  0  0  0  0  0
   60.7560   29.9070   50.0120 C   0  0  0  0  0  0  0  0  0  0  0  0
   60.9170   28.7880   51.0440 C   0  0  0  0  0  0  0  0  0  0  0  0
   61.4720   27.6310   50.4500 O   0  0  0  0  0  0  0  0  0  0  0  0
   60.5660   27.1010   49.5010 C   0  0  0  0  0  0  0  0  0  0  0  0
   60.3680   28.0740   48.3330 C   0  0  0  0  0  0  0  0  0  0  0  0
   56.5176   31.2953   43.4200 H   0  0  0  0  0  0  0  0  0  0  0  0
   58.2592   31.2825   42.9617 H   0  0  0  0  0  0  0  0  0  0  0  0
   55.5141   26.7504   46.4134 H   0  0  0  0  0  0  0  0  0  0  0  0
   56.9892   24.9450   47.3712 H   0  0  0  0  0  0  0  0  0  0  0  0
   59.4652   25.0140   46.9975 H   0  0  0  0  0  0  0  0  0  0  0  0
   60.4934   26.8851   45.6615 H   0  0  0  0  0  0  0  0  0  0  0  0
   59.8240   31.2900   45.2340 H   0  0  0  0  0  0  0  0  0  0  0  0
   59.4614   34.5058   46.0919 H   0  0  0  0  0  0  0  0  0  0  0  0
   59.7766   35.6127   48.3009 H   0  0  0  0  0  0  0  0  0  0  0  0
   59.7886   34.2554   50.3906 H   0  0  0  0  0  0  0  0  0  0  0  0
   59.4762   31.7874   50.2817 H   0  0  0  0  0  0  0  0  0  0  0  0
   61.7494   30.2575   49.6953 H   0  0  0  0  0  0  0  0  0  0  0  0
   60.1959   30.7394   50.4630 H   0  0  0  0  0  0  0  0  0  0  0  0
   61.5816   29.1336   51.8495 H   0  0  0  0  0  0  0  0  0  0  0  0
   59.9250   28.5354   51.4468 H   0  0  0  0  0  0  0  0  0  0  0  0
   60.9634   26.1507   49.1150 H   0  0  0  0  0  0  0  0  0  0  0  0
   59.5955   26.9393   49.9929 H   0  0  0  0  0  0  0  0  0  0  0  0
   61.2988   28.1386   47.7505 H   0  0  0  0  0  0  0  0  0  0  0  0
   59.5524   27.7085   47.6918 H   0  0  0  0  0  0  0  0  0  0  0  0
  1  2  2  0
  2  3  1  0
  3  4  1  0
  4  5  1  0
  5  6  2  0
  5  7  1  0
  7  8  2  0
  8  9  1  0
  9 10  2  0
 10 11  1  0
 11 12  2  0
 12 13  1  0
 13 14  2  0
  2 15  1  0
 15 16  1  0
 16 17  2  0
 17 18  1  0
 18 19  2  0
 19 20  1  0
 20 21  2  0
 21 22  1  0
 22 23  2  0
 22 24  1  0
 24 25  1  0
 25 26  1  0
 26 27  1  0
 27 28  1  0
 28 29  1  0
 13  4  1  0
 21 16  1  0
 29 24  1  0
 12  7  1  0
  3 30  1  0
  3 31  1  0
  8 32  1  0
  9 33  1  0
 10 34  1  0
 11 35  1  0
 15 36  1  0
 17 37  1  0
 18 38  1  0
 19 39  1  0
 20 40  1  0
 25 41  1  0
 25 42  1  0
 26 43  1  0
 26 44  1  0
 28 45  1  0
 28 46  1  0
 29 47  1  0
 29 48  1  0
M  END
>  <UniqueID>  (53) 
48

>  <SMILES>  (53) 
O=C(CN1C(=O)c2ccccc2C1=O)Nc1ccccc1C(=O)N1CCOCC1

>  <Energy>  (53) 
92.46425020715488

>  <Genealogy>  (53) 
O=C(CN1C(=O)c2ccccc2C1=O)Nc1ccccc1C(=O)N1CCOCC1 (3D coordinates assigned)
O=C(CN1C(=O)c2ccccc2C1=O)Nc1ccccc1C(=O)N1CCOCC1 (nonaromatic ring conformer: 92.46425020715488 kcal/mol)

>  <smiles>  (53) 
O=C(CN1C(=O)c2ccccc2C1=O)Nc1ccccc1C(=O)N1CCOCC1

>  <score_type>  (53) 
oracle

>  <origin>  (53) 
adg

>  <m_score__min__energy>  (53) 
-8.4299999999999997

>  <m_primary>  (53) 
energy

$$$$
53:0
     RDKit          3D

 29 29  0  0  0  0  0  0  0  0999 V2000
   58.8080   32.9000   45.3470 C   0  0  0  0  0  0  0  0  0  0  0  0
   57.9010   33.1730   44.1470 C   0  0  0  0  0  0  0  0  0  0  0  0
   58.0790   32.1250   43.0390 C   0  0  0  0  0  0  0  0  0  0  0  0
   57.9640   30.7630   43.5620 N   0  0  0  0  0  0  0  0  0  0  0  0
   56.8350   30.3560   44.3450 C   0  0  0  0  0  0  0  0  0  0  0  0
   55.9040   31.1660   44.5980 O   0  0  0  0  0  0  0  0  0  0  0  0
   56.7580   29.0120   44.8460 C   0  0  0  0  0  0  0  0  0  0  0  0
   56.6900   27.8880   45.2740 C   0  0  0  0  0  0  0  0  0  0  0  0
   56.6170   26.5090   45.7980 C   0  0  1  0  0  0  0  0  0  0  0  0
   55.3080   26.0950   46.0850 O   0  0  0  0  0  0  0  0  0  0  0  0
   57.3630   25.4970   44.9550 C   0  0  0  0  0  0  0  0  0  0  0  0
   58.2570   25.1780   45.9990 O   0  0  0  0  0  0  0  0  0  0  0  0
   57.6280   26.0970   46.8640 C   0  0  1  0  0  0  0  0  0  0  0  0
   58.6140   27.1740   47.3290 C   0  0  0  0  0  0  0  0  0  0  0  0
   58.2460   33.0692   46.2774 H   0  0  0  0  0  0  0  0  0  0  0  0
   59.1564   31.8572   45.3135 H   0  0  0  0  0  0  0  0  0  0  0  0
   59.6742   33.5772   45.3135 H   0  0  0  0  0  0  0  0  0  0  0  0
   56.8538   33.1593   44.4834 H   0  0  0  0  0  0  0  0  0  0  0  0
   58.1738   34.1546   43.7322 H   0  0  0  0  0  0  0  0  0  0  0  0
   57.3045   32.2799   42.2734 H   0  0  0  0  0  0  0  0  0  0  0  0
   59.0849   32.2451   42.6103 H   0  0  0  0  0  0  0  0  0  0  0  0
   58.7210   30.0630   43.3790 H   0  0  0  0  0  0  0  0  0  0  0  0
   55.1370   26.3410   47.0320 H   0  0  0  0  0  0  0  0  0  0  0  0
   56.7400   24.6477   44.6378 H   0  0  0  0  0  0  0  0  0  0  0  0
   57.7725   25.8142   43.9846 H   0  0  0  0  0  0  0  0  0  0  0  0
   57.2166   25.7875   47.8361 H   0  0  0  0  0  0  0  0  0  0  0  0
   58.6374   27.1996   48.4285 H   0  0  0  0  0  0  0  0  0  0  0  0
   59.6186   26.9413   46.9462 H   0  0  0  0  0  0  0  0  0  0  0  0
   58.2937   28.1542   46.9462 H   0  0  0  0  0  0  0  0  0  0  0  0
  1  2  1  0
  2  3  1  0
  3  4  1  0
  4  5  1  0
  5  6  2  0
  5  7  1  0
  7  8  3  0
  9  8  1  6
  9 10  1  0
  9 11  1  0
 11 12  1  0
 12 13  1  0
 13 14  1  0
 13  9  1  0
  1 15  1  0
  1 16  1  0
  1 17  1  0
  2 18  1  0
  2 19  1  0
  3 20  1  0
  3 21  1  0
  4 22  1  0
 10 23  1  0
 11 24  1  0
 11 25  1  0
 13 26  1  1
 14 27  1  0
 14 28  1  0
 14 29  1  0
M  END
>  <UniqueID>  (54) 
49

>  <SMILES>  (54) 
CCCNC(=O)C#C[C@@]1(O)CO[C@H]1C

>  <Energy>  (54) 
79.95951135383328

>  <Genealogy>  (54) 
CCCNC(=O)C#C[C@@]1(O)CO[C@H]1C (chirality)
CCCNC(=O)C#C[C@@]1(O)CO[C@H]1C (3D coordinates assigned)
CCCNC(=O)C#C[C@@]1(O)CO[C@H]1C (nonaromatic ring conformer: 79.95951135383328 kcal/mol)

>  <smiles>  (54) 
CCCNC(=O)C#CC1(O)COC1C

>  <score_type>  (54) 
oracle

>  <origin>  (54) 
adg

>  <m_score__min__energy>  (54) 
-5.8799999999999999

>  <m_primary>  (54) 
energy

$$$$
54:0
     RDKit          3D

 75 79  0  0  0  0  0  0  0  0999 V2000
   60.4010   34.2500   49.3530 O   0  0  0  0  0  0  0  0  0  0  0  0
   61.3270   34.1010   50.1990 C   0  0  0  0  0  0  0  0  0  0  0  0
   62.7530   34.2470   49.7870 C   0  0  0  0  0  0  0  0  0  0  0  0
   62.8670   34.2030   48.3330 N   0  0  0  0  0  0  0  0  0  0  0  0
   63.0350   33.0040   47.5730 C   0  0  0  0  0  0  0  0  0  0  0  0
   63.9200   32.9310   46.6740 O   0  0  0  0  0  0  0  0  0  0  0  0
   62.2410   31.8950   47.8790 O   0  0  0  0  0  0  0  0  0  0  0  0
   61.2580   31.3700   46.9930 C   0  0  0  0  0  0  0  0  0  0  0  0
   60.1520   32.3650   46.7650 C   0  0  0  0  0  0  0  0  0  0  0  0
   60.4090   33.5510   46.0540 C   0  0  0  0  0  0  0  0  0  0  0  0
   59.3890   34.4920   45.8720 C   0  0  0  0  0  0  0  0  0  0  0  0
   58.1120   34.2610   46.4070 C   0  0  0  0  0  0  0  0  0  0  0  0
   57.8520   33.0810   47.1140 C   0  0  0  0  0  0  0  0  0  0  0  0
   58.8630   32.1240   47.2730 C   0  0  0  0  0  0  0  0  0  0  0  0
   61.0170   33.8100   51.5630 N   0  0  0  0  0  0  0  0  0  0  0  0
   59.9460   32.9100   51.9750 C   0  0  0  0  0  0  0  0  0  0  0  0
   59.8670   31.6730   51.1130 C   0  0  0  0  0  0  0  0  0  0  0  0
   58.6650   31.2670   50.5030 C   0  0  0  0  0  0  0  0  0  0  0  0
   58.6240   30.1060   49.7160 C   0  0  0  0  0  0  0  0  0  0  0  0
   59.8020   29.3710   49.4890 C   0  0  0  0  0  0  0  0  0  0  0  0
   59.8140   28.1320   48.7690 N   0  0  0  0  0  0  0  0  0  0  0  0
   59.7520   27.9650   47.3470 C   0  0  0  0  0  0  0  0  0  0  0  0
   60.7430   28.2610   46.6160 O   0  0  0  0  0  0  0  0  0  0  0  0
   58.4980   27.3950   46.7390 C   0  0  1  0  0  0  0  0  0  0  0  0
   58.4730   27.5750   45.2070 C   0  0  0  0  0  0  0  0  0  0  0  0
   57.9670   28.9240   44.7620 C   0  0  0  0  0  0  0  0  0  0  0  0
   58.8660   29.9690   44.4990 C   0  0  0  0  0  0  0  0  0  0  0  0
   58.3950   31.2040   44.0410 C   0  0  0  0  0  0  0  0  0  0  0  0
   57.0270   31.4010   43.8440 C   0  0  0  0  0  0  0  0  0  0  0  0
   56.1240   30.3650   44.1040 C   0  0  0  0  0  0  0  0  0  0  0  0
   56.5920   29.1320   44.5580 C   0  0  0  0  0  0  0  0  0  0  0  0
   58.4100   25.9650   47.0250 N   0  0  0  0  0  0  0  0  0  0  0  0
   57.1950   25.2390   47.2280 C   0  0  0  0  0  0  0  0  0  0  0  0
   56.1020   25.6590   46.7470 O   0  0  0  0  0  0  0  0  0  0  0  0
   57.2180   24.0240   47.9780 N   0  0  0  0  0  0  0  0  0  0  0  0
   56.3680   22.9060   47.6720 C   0  0  0  0  0  0  0  0  0  0  0  0
   55.2170   23.0770   46.8840 C   0  0  0  0  0  0  0  0  0  0  0  0
   54.3510   21.9990   46.6280 C   0  0  0  0  0  0  0  0  0  0  0  0
   53.1070   22.2170   45.8600 C   0  0  0  0  0  0  0  0  0  0  0  0
   52.8690   23.2680   45.0510 N   0  0  0  0  0  0  0  0  0  0  0  0
   51.6980   23.0080   44.4890 N   0  0  0  0  0  0  0  0  0  0  0  0
   51.2310   21.8550   44.9390 N   0  0  0  0  0  0  0  0  0  0  0  0
   52.0930   21.3290   45.7980 N   0  0  0  0  0  0  0  0  0  0  0  0
   54.6540   20.7330   47.1660 C   0  0  0  0  0  0  0  0  0  0  0  0
   55.7910   20.5610   47.9680 C   0  0  0  0  0  0  0  0  0  0  0  0
   56.6430   21.6430   48.2260 C   0  0  0  0  0  0  0  0  0  0  0  0
   57.7670   21.4560   49.0310 O   0  0  0  0  0  0  0  0  0  0  0  0
   61.0020   29.7980   50.0680 C   0  0  0  0  0  0  0  0  0  0  0  0
   61.0400   30.9440   50.8660 C   0  0  0  0  0  0  0  0  0  0  0  0
   63.1395   35.2099   50.1523 H   0  0  0  0  0  0  0  0  0  0  0  0
   63.3362   33.4193   50.2169 H   0  0  0  0  0  0  0  0  0  0  0  0
   61.7323   31.1321   46.0295 H   0  0  0  0  0  0  0  0  0  0  0  0
   60.8272   30.4640   47.4441 H   0  0  0  0  0  0  0  0  0  0  0  0
   61.4111   33.7389   45.6412 H   0  0  0  0  0  0  0  0  0  0  0  0
   59.5887   35.4151   45.3081 H   0  0  0  0  0  0  0  0  0  0  0  0
   57.3154   35.0073   46.2707 H   0  0  0  0  0  0  0  0  0  0  0  0
   56.8550   32.9053   47.5443 H   0  0  0  0  0  0  0  0  0  0  0  0
   58.6477   31.1810   47.7969 H   0  0  0  0  0  0  0  0  0  0  0  0
   60.1237   32.6036   53.0164 H   0  0  0  0  0  0  0  0  0  0  0  0
   58.9947   33.4521   51.8698 H   0  0  0  0  0  0  0  0  0  0  0  0
   57.7519   31.8638   50.6442 H   0  0  0  0  0  0  0  0  0  0  0  0
   57.6725   29.7711   49.2773 H   0  0  0  0  0  0  0  0  0  0  0  0
   57.6492   27.9377   47.1806 H   0  0  0  0  0  0  0  0  0  0  0  0
   59.4966   27.4452   44.8256 H   0  0  0  0  0  0  0  0  0  0  0  0
   57.7768   26.8232   44.8069 H   0  0  0  0  0  0  0  0  0  0  0  0
   59.9444   29.8165   44.6535 H   0  0  0  0  0  0  0  0  0  0  0  0
   59.1030   32.0205   43.8359 H   0  0  0  0  0  0  0  0  0  0  0  0
   56.6586   32.3728   43.4836 H   0  0  0  0  0  0  0  0  0  0  0  0
   55.0462   30.5224   43.9506 H   0  0  0  0  0  0  0  0  0  0  0  0
   55.8805   28.3172   44.7577 H   0  0  0  0  0  0  0  0  0  0  0  0
   54.9905   24.0672   46.4619 H   0  0  0  0  0  0  0  0  0  0  0  0
   53.9964   19.8765   46.9562 H   0  0  0  0  0  0  0  0  0  0  0  0
   56.0151   19.5729   48.3963 H   0  0  0  0  0  0  0  0  0  0  0  0
   61.9249   29.2255   49.8931 H   0  0  0  0  0  0  0  0  0  0  0  0
   61.9935   31.2762   51.3025 H   0  0  0  0  0  0  0  0  0  0  0  0
  1  2  2  0
  2  3  1  0
  3  4  1  0
  4  5  1  0
  5  6  2  0
  5  7  1  0
  7  8  1  0
  8  9  1  0
  9 10  2  0
 10 11  1  0
 11 12  2  0
 12 13  1  0
 13 14  2  0
  2 15  1  0
 15 16  1  0
 16 17  1  0
 17 18  2  0
 18 19  1  0
 19 20  2  0
 20 21  1  0
 21 22  1  0
 22 23  2  0
 22 24  1  0
 24 25  1  0
 25 26  1  0
 26 27  2  0
 27 28  1  0
 28 29  2  0
 29 30  1  0
 30 31  2  0
 24 32  1  0
 32 33  1  0
 33 34  2  0
 33 35  1  0
 35 36  1  0
 36 37  2  0
 37 38  1  0
 38 39  1  0
 39 40  1  0
 40 41  2  0
 41 42  1  0
 42 43  1  0
 38 44  2  0
 44 45  1  0
 45 46  2  0
 46 47  1  0
 20 48  1  0
 48 49  2  0
 14  9  1  0
 49 17  1  0
 31 26  1  0
 46 36  1  0
 43 39  2  0
  3 50  1  0
  3 51  1  0
  8 52  1  0
  8 53  1  0
 10 54  1  0
 11 55  1  0
 12 56  1  0
 13 57  1  0
 14 58  1  0
 16 59  1  0
 16 60  1  0
 18 61  1  0
 19 62  1  0
 24 63  1  1
 25 64  1  0
 25 65  1  0
 27 66  1  0
 28 67  1  0
 29 68  1  0
 30 69  1  0
 31 70  1  0
 37 71  1  0
 44 72  1  0
 45 73  1  0
 48 74  1  0
 49 75  1  0
M  CHG  7   4  -1  15  -1  21  -1  32  -1  35  -1  42  -1  47  -1
M  END
>  <UniqueID>  (55) 
50

>  <SMILES>  (55) 
O=C(C[N-]C(=O)OCc1ccccc1)[N-]Cc1ccc([N-]C(=O)[C@@H](Cc2ccccc2)[N-]C(=O)[N-]c2cc(-c3nn[n-]n3)ccc2[O-])cc1

>  <Energy>  (55) 
115.75330787575137

>  <Genealogy>  (55) 
O=C(C[N-]C(=O)OCc1ccccc1)[N-]Cc1ccc([N-]C(=O)C(Cc2ccccc2)[N-]C(=O)[N-]c2cc(-c3nn[n-]n3)ccc2[O-])cc1 (protonated)
O=C(C[N-]C(=O)OCc1ccccc1)[N-]Cc1ccc([N-]C(=O)[C@@H](Cc2ccccc2)[N-]C(=O)[N-]c2cc(-c3nn[n-]n3)ccc2[O-])cc1 (chirality)
O=C(C[N-]C(=O)OCc1ccccc1)[N-]Cc1ccc([N-]C(=O)[C@@H](Cc2ccccc2)[N-]C(=O)[N-]c2cc(-c3nn[n-]n3)ccc2[O-])cc1 (3D coordinates assigned)
O=C(C[N-]C(=O)OCc1ccccc1)[N-]Cc1ccc([N-]C(=O)[C@@H](Cc2ccccc2)[N-]C(=O)[N-]c2cc(-c3nn[n-]n3)ccc2[O-])cc1 (optimized conformer: 115.75330787575137 kcal/mol)

>  <smiles>  (55) 
O=C(CNC(=O)OCc1ccccc1)NCc1ccc(NC(=O)C(Cc2ccccc2)NC(=O)Nc2cc(-c3nn[nH]n3)ccc2O)cc1

>  <score_type>  (55) 
oracle

>  <origin>  (55) 
adg

>  <m_score__min__energy>  (55) 
-20.079999999999998

>  <m_primary>  (55) 
energy

$$$$
55:0
     RDKit          3D

 40 43  0  0  0  0  0  0  0  0999 V2000
   58.1511   27.5874   45.1607 H   0  0  0  0  0  0  0  0  0  0  0  0
   58.1870   27.3040   46.2230 C   0  0  0  0  0  0  0  0  0  0  0  0
   57.4390   26.1080   46.6460 C   0  0  0  0  0  0  0  0  0  0  0  0
   58.0320   24.9990   47.1220 N   0  0  0  0  0  0  0  0  0  0  0  0
   57.0030   24.1440   47.3050 C   0  0  0  0  0  0  0  0  0  0  0  0
   57.1590   22.9820   47.7610 O   0  0  0  0  0  0  0  0  0  0  0  0
   55.7940   24.6300   46.9520 N   0  0  0  0  0  0  0  0  0  0  0  0
   56.0870   25.8690   46.5260 C   0  0  0  0  0  0  0  0  0  0  0  0
   55.1450   26.7390   45.9900 O   0  0  0  0  0  0  0  0  0  0  0  0
   60.0400   31.1670   48.2640 C   0  0  0  0  0  0  0  0  0  0  0  0
   59.8250   27.6860   48.0370 C   0  0  0  0  0  0  0  0  0  0  0  0
   60.0739   26.6475   48.3007 H   0  0  0  0  0  0  0  0  0  0  0  0
   60.3610   28.7870   48.6160 N   0  0  0  0  0  0  0  0  0  0  0  0
   59.8180   29.8420   48.0290 N   0  0  0  0  0  0  0  0  0  0  0  0
   58.9090   28.0680   47.0550 C   0  0  0  0  0  0  0  0  0  0  0  0
   60.8680   31.6030   49.1710 N   0  0  0  0  0  0  0  0  0  0  0  0
   62.2630   31.9800   48.9630 C   0  0  0  0  0  0  0  0  0  0  0  0
   62.6238   31.7869   49.9841 H   0  0  0  0  0  0  0  0  0  0  0  0
   62.7460   31.6640   47.5600 C   0  0  0  0  0  0  0  0  0  0  0  0
   63.7834   31.3371   47.3960 H   0  0  0  0  0  0  0  0  0  0  0  0
   62.4084   30.9974   46.7527 H   0  0  0  0  0  0  0  0  0  0  0  0
   62.4560   33.1030   47.9590 C   0  0  0  0  0  0  0  0  0  0  0  0
   63.2835   33.8169   48.0841 H   0  0  0  0  0  0  0  0  0  0  0  0
   61.8218   33.9087   47.5606 H   0  0  0  0  0  0  0  0  0  0  0  0
   59.3520   32.0700   47.5120 N   0  0  0  0  0  0  0  0  0  0  0  0
   58.4660   31.6560   46.5570 C   0  0  0  0  0  0  0  0  0  0  0  0
   57.5680   32.8670   45.5900 S   0  0  0  0  0  0  0  0  0  0  0  0
   58.0990   32.1990   43.9750 C   0  0  0  0  0  0  0  0  0  0  0  0
   59.1283   31.8211   44.0630 H   0  0  0  0  0  0  0  0  0  0  0  0
   58.0466   33.0051   43.2284 H   0  0  0  0  0  0  0  0  0  0  0  0
   57.1840   31.0580   43.5250 C   0  0  0  0  0  0  0  0  0  0  0  0
   57.7866   30.1529   43.3589 H   0  0  0  0  0  0  0  0  0  0  0  0
   56.6791   31.3492   42.5921 H   0  0  0  0  0  0  0  0  0  0  0  0
   56.2090   30.7950   44.5150 O   0  0  0  0  0  0  0  0  0  0  0  0
   55.8630   29.4280   44.5150 C   0  0  0  0  0  0  0  0  0  0  0  0
   55.7730   29.0725   45.5521 H   0  0  0  0  0  0  0  0  0  0  0  0
   54.9023   29.2929   43.9965 H   0  0  0  0  0  0  0  0  0  0  0  0
   56.6437   28.8522   43.9965 H   0  0  0  0  0  0  0  0  0  0  0  0
   58.2640   30.3280   46.3340 N   0  0  0  0  0  0  0  0  0  0  0  0
   58.9550   29.4430   47.0890 C   0  0  0  0  0  0  0  0  0  0  0  0
  1  2  1  0
  2  3  1  0
  3  4  1  0
  4  5  1  0
  5  6  2  0
  5  7  1  0
  7  8  1  0
  8  9  1  0
  2 10  2  0
 10 11  1  0
 11 12  1  0
 11 13  2  0
 13 14  1  0
 14 15  1  0
 15 16  2  0
 16 17  1  0
 17 18  1  0
 17 19  1  0
 19 20  1  0
 19 21  1  0
 19 22  1  0
 22 23  1  0
 22 24  1  0
 15 25  1  0
 25 26  2  0
 26 27  1  0
 27 28  1  0
 28 29  1  0
 28 30  1  0
 28 31  1  0
 31 32  1  0
 31 33  1  0
 31 34  1  0
 34 35  1  0
 35 36  1  0
 35 37  1  0
 35 38  1  0
 26 39  1  0
 39 40  2  0
  8  3  2  0
 40 10  1  0
 40 14  1  0
 22 17  1  0
M  CHG  3   4  -1   7  -1   9  -1
M  END
>  <UniqueID>  (56) 
51

>  <SMILES>  (56) 
COCCSc1n/c(=N/C2CC2)n2nc/c(=C\c3[n-]c(=O)[n-]c3[O-])c2n1

>  <Energy>  (56) 
380.05439454268145

>  <Genealogy>  (56) 
COCCSc1nc(=NC2CC2)n2ncc(=Cc3[n-]c(=O)[n-]c3[O-])c2n1 (protonated)
COCCSc1n/c(=N/C2CC2)n2nc/c(=C\c3[n-]c(=O)[n-]c3[O-])c2n1 (cis-trans isomerization)
COCCSc1n/c(=N/C2CC2)n2nc/c(=C\c3[n-]c(=O)[n-]c3[O-])c2n1 (3D coordinates assigned)
COCCSc1n/c(=N/C2CC2)n2nc/c(=C\c3[n-]c(=O)[n-]c3[O-])c2n1 (nonaromatic ring conformer: 380.05439454268145 kcal/mol)

>  <smiles>  (56) 
COCCSc1nc(=NC2CC2)n2ncc(=Cc3[nH]c(=O)[nH]c3O)c2n1

>  <score_type>  (56) 
oracle

>  <origin>  (56) 
adg

>  <m_score__min__energy>  (56) 
-15.109999999999999

>  <m_primary>  (56) 
energy

$$$$
56:0
     RDKit          3D

 40 42  0  0  0  0  0  0  0  0999 V2000
   63.3550   34.2000   49.1210 C   0  0  0  0  0  0  0  0  0  0  0  0
   62.7550   34.1140   47.8330 O   0  0  0  0  0  0  0  0  0  0  0  0
   61.8260   33.1330   47.4560 C   0  0  0  0  0  0  0  0  0  0  0  0
   62.2200   31.7910   47.5010 C   0  0  0  0  0  0  0  0  0  0  0  0
   61.3340   30.7760   47.1340 C   0  0  0  0  0  0  0  0  0  0  0  0
   60.0330   31.0910   46.7010 C   0  0  0  0  0  0  0  0  0  0  0  0
   59.0920   30.0640   46.3420 N   0  0  0  0  0  0  0  0  0  0  0  0
   59.4440   28.8720   45.6230 C   0  0  0  0  0  0  0  0  0  0  0  0
   60.4700   28.8620   44.8880 O   0  0  0  0  0  0  0  0  0  0  0  0
   58.5730   27.6730   45.6720 C   0  0  0  0  0  0  0  0  0  0  0  0
   59.1660   26.4010   45.7700 C   0  0  0  0  0  0  0  0  0  0  0  0
   58.3770   25.2500   45.8130 C   0  0  0  0  0  0  0  0  0  0  0  0
   56.9890   25.3520   45.7590 C   0  0  0  0  0  0  0  0  0  0  0  0
   56.3820   26.6060   45.6790 C   0  0  0  0  0  0  0  0  0  0  0  0
   57.1620   27.7770   45.6600 C   0  0  0  0  0  0  0  0  0  0  0  0
   56.5350   29.0690   45.6180 N   0  0  0  0  0  0  0  0  0  0  0  0
   55.9670   29.6970   44.4610 C   0  0  0  0  0  0  0  0  0  0  0  0
   54.8210   29.3390   44.0800 O   0  0  0  0  0  0  0  0  0  0  0  0
   56.7100   30.7040   43.6730 C   0  0  0  0  0  0  0  0  0  0  0  0
   57.4770   31.7220   44.2640 C   0  0  0  0  0  0  0  0  0  0  0  0
   58.0740   32.5750   43.3470 C   0  0  0  0  0  0  0  0  0  0  0  0
   57.6370   32.0720   41.8060 S   0  0  0  0  0  0  0  0  0  0  0  0
   56.6890   30.7680   42.2810 C   0  0  0  0  0  0  0  0  0  0  0  0
   59.6310   32.4340   46.6750 C   0  0  0  0  0  0  0  0  0  0  0  0
   60.5190   33.4490   47.0410 C   0  0  0  0  0  0  0  0  0  0  0  0
   62.5807   34.0890   49.8944 H   0  0  0  0  0  0  0  0  0  0  0  0
   64.1014   33.3997   49.2320 H   0  0  0  0  0  0  0  0  0  0  0  0
   63.8466   35.1778   49.2320 H   0  0  0  0  0  0  0  0  0  0  0  0
   63.2379   31.5331   47.8288 H   0  0  0  0  0  0  0  0  0  0  0  0
   61.6548   29.7250   47.1837 H   0  0  0  0  0  0  0  0  0  0  0  0
   58.0790   30.2330   46.5380 H   0  0  0  0  0  0  0  0  0  0  0  0
   60.2616   26.3125   45.8132 H   0  0  0  0  0  0  0  0  0  0  0  0
   58.8523   24.2610   45.8897 H   0  0  0  0  0  0  0  0  0  0  0  0
   56.3703   24.4427   45.7794 H   0  0  0  0  0  0  0  0  0  0  0  0
   55.2855   26.6796   45.6304 H   0  0  0  0  0  0  0  0  0  0  0  0
   57.5933   31.8324   45.3522 H   0  0  0  0  0  0  0  0  0  0  0  0
   58.7209   33.4315   43.5877 H   0  0  0  0  0  0  0  0  0  0  0  0
   56.1469   30.0848   41.6106 H   0  0  0  0  0  0  0  0  0  0  0  0
   58.6077   32.6909   46.3638 H   0  0  0  0  0  0  0  0  0  0  0  0
   60.1950   34.4996   47.0046 H   0  0  0  0  0  0  0  0  0  0  0  0
  1  2  1  0
  2  3  1  0
  3  4  2  0
  4  5  1  0
  5  6  2  0
  6  7  1  0
  7  8  1  0
  8  9  2  0
  8 10  1  0
 10 11  2  0
 11 12  1  0
 12 13  2  0
 13 14  1  0
 14 15  2  0
 15 16  1  0
 16 17  1  0
 17 18  2  0
 17 19  1  0
 19 20  1  0
 20 21  2  0
 21 22  1  0
 22 23  1  0
  6 24  1  0
 24 25  2  0
 25  3  1  0
 15 10  1  0
 23 19  2  0
  1 26  1  0
  1 27  1  0
  1 28  1  0
  4 29  1  0
  5 30  1  0
  7 31  1  0
 11 32  1  0
 12 33  1  0
 13 34  1  0
 14 35  1  0
 20 36  1  0
 21 37  1  0
 23 38  1  0
 24 39  1  0
 25 40  1  0
M  CHG  1  16  -1
M  END
>  <UniqueID>  (57) 
52

>  <SMILES>  (57) 
COc1ccc(NC(=O)c2ccccc2[N-]C(=O)c2ccsc2)cc1

>  <Energy>  (57) 
80.96697035100739

>  <Genealogy>  (57) 
COc1ccc(NC(=O)c2ccccc2[N-]C(=O)c2ccsc2)cc1 (protonated)
COc1ccc(NC(=O)c2ccccc2[N-]C(=O)c2ccsc2)cc1 (3D coordinates assigned)
COc1ccc(NC(=O)c2ccccc2[N-]C(=O)c2ccsc2)cc1 (optimized conformer: 80.96697035100739 kcal/mol)

>  <smiles>  (57) 
COc1ccc(NC(=O)c2ccccc2NC(=O)c2ccsc2)cc1

>  <score_type>  (57) 
oracle

>  <origin>  (57) 
adg

>  <m_score__min__energy>  (57) 
-9.3800000000000008

>  <m_primary>  (57) 
energy

$$$$
57:0
     RDKit          3D

 41 43  0  0  0  0  0  0  0  0999 V2000
   58.2790   30.6010   47.3120 O   0  0  0  0  0  0  0  0  0  0  0  0
   59.3730   30.8150   46.7250 C   0  0  0  0  0  0  0  0  0  0  0  0
   59.8240   29.8710   45.7480 N   0  0  0  0  0  0  0  0  0  0  0  0
   59.1740   28.6310   45.4390 C   0  0  0  0  0  0  0  0  0  0  0  0
   58.8410   28.2830   44.1170 C   0  0  0  0  0  0  0  0  0  0  0  0
   58.1950   27.0710   43.8500 C   0  0  0  0  0  0  0  0  0  0  0  0
   57.8630   26.2080   44.8990 C   0  0  0  0  0  0  0  0  0  0  0  0
   56.9810   24.5550   44.5330 Br  0  0  0  0  0  0  0  0  0  0  0  0
   58.1760   26.5590   46.2160 C   0  0  0  0  0  0  0  0  0  0  0  0
   58.8220   27.7690   46.4850 C   0  0  0  0  0  0  0  0  0  0  0  0
   60.1600   32.0650   47.0730 C   0  0  2  0  0  0  0  0  0  0  0  0
   59.9660   32.6090   48.4890 C   0  0  0  0  0  0  0  0  0  0  0  0
   60.2800   34.0940   48.3740 C   0  0  0  0  0  0  0  0  0  0  0  0
   60.4800   34.3560   46.8830 C   0  0  0  0  0  0  0  0  0  0  0  0
   59.9300   33.2020   46.1540 N   0  0  2  0  0  0  0  0  0  0  0  0
   58.2370   33.4860   45.7630 S   0  0  0  0  0  0  0  0  0  0  0  0
   58.0130   34.9320   45.4140 O   0  0  0  0  0  0  0  0  0  0  0  0
   57.3600   33.1340   46.9320 O   0  0  0  0  0  0  0  0  0  0  0  0
   57.7470   32.4650   44.4110 C   0  0  0  0  0  0  0  0  0  0  0  0
   58.1560   32.7610   43.1020 C   0  0  0  0  0  0  0  0  0  0  0  0
   57.7710   31.9320   42.0430 C   0  0  0  0  0  0  0  0  0  0  0  0
   56.9790   30.8060   42.2860 C   0  0  0  0  0  0  0  0  0  0  0  0
   56.5720   30.5070   43.5890 C   0  0  0  0  0  0  0  0  0  0  0  0
   56.9560   31.3330   44.6500 C   0  0  0  0  0  0  0  0  0  0  0  0
   59.0893   28.9658   43.2910 H   0  0  0  0  0  0  0  0  0  0  0  0
   57.9480   26.7967   42.8138 H   0  0  0  0  0  0  0  0  0  0  0  0
   57.9133   25.8815   47.0419 H   0  0  0  0  0  0  0  0  0  0  0  0
   59.0551   28.0456   47.5238 H   0  0  0  0  0  0  0  0  0  0  0  0
   61.1860   31.6803   46.9761 H   0  0  0  0  0  0  0  0  0  0  0  0
   58.9301   32.4557   48.8257 H   0  0  0  0  0  0  0  0  0  0  0  0
   60.6088   32.1015   49.2234 H   0  0  0  0  0  0  0  0  0  0  0  0
   59.4435   34.6946   48.7608 H   0  0  0  0  0  0  0  0  0  0  0  0
   61.1701   34.3688   48.9590 H   0  0  0  0  0  0  0  0  0  0  0  0
   59.9500   35.2738   46.5884 H   0  0  0  0  0  0  0  0  0  0  0  0
   61.5475   34.4874   46.6522 H   0  0  0  0  0  0  0  0  0  0  0  0
   60.4600   33.0590   45.2620 H   0  0  0  0  0  0  0  0  0  0  0  0
   58.7801   33.6459   42.9082 H   0  0  0  0  0  0  0  0  0  0  0  0
   58.0920   32.1666   41.0174 H   0  0  0  0  0  0  0  0  0  0  0  0
   56.6763   30.1557   41.4520 H   0  0  0  0  0  0  0  0  0  0  0  0
   55.9489   29.6209   43.7803 H   0  0  0  0  0  0  0  0  0  0  0  0
   56.6364   31.0936   45.6750 H   0  0  0  0  0  0  0  0  0  0  0  0
  1  2  2  0
  2  3  1  0
  3  4  1  0
  4  5  2  0
  5  6  1  0
  6  7  2  0
  7  8  1  0
  7  9  1  0
  9 10  2  0
  2 11  1  0
 11 12  1  0
 12 13  1  0
 13 14  1  0
 14 15  1  0
 15 16  1  0
 16 17  2  0
 16 18  2  0
 16 19  1  0
 19 20  2  0
 20 21  1  0
 21 22  2  0
 22 23  1  0
 23 24  2  0
 10  4  1  0
 15 11  1  0
 24 19  1  0
  5 25  1  0
  6 26  1  0
  9 27  1  0
 10 28  1  0
 11 29  1  1
 12 30  1  0
 12 31  1  0
 13 32  1  0
 13 33  1  0
 14 34  1  0
 14 35  1  0
 15 36  1  6
 20 37  1  0
 21 38  1  0
 22 39  1  0
 23 40  1  0
 24 41  1  0
M  CHG  2   3  -1  15   1
M  END
>  <UniqueID>  (58) 
53

>  <SMILES>  (58) 
O=C([N-]c1ccc(Br)cc1)[C@@H]1CCC[N@@H+]1S(=O)(=O)c1ccccc1

>  <Energy>  (58) 
57.755160651506195

>  <Genealogy>  (58) 
O=C([N-]c1ccc(Br)cc1)C1CCC[NH+]1S(=O)(=O)c1ccccc1 (protonated)
O=C([N-]c1ccc(Br)cc1)[C@@H]1CCC[N@@H+]1S(=O)(=O)c1ccccc1 (chirality)
O=C([N-]c1ccc(Br)cc1)[C@@H]1CCC[N@@H+]1S(=O)(=O)c1ccccc1 (3D coordinates assigned)
O=C([N-]c1ccc(Br)cc1)[C@@H]1CCC[N@@H+]1S(=O)(=O)c1ccccc1 (nonaromatic ring conformer: 57.755160651506195 kcal/mol)

>  <smiles>  (58) 
O=C(Nc1ccc(Br)cc1)C1CCCN1S(=O)(=O)c1ccccc1

>  <score_type>  (58) 
oracle

>  <origin>  (58) 
adg

>  <m_score__min__energy>  (58) 
-8.1699999999999999

>  <m_primary>  (58) 
energy

$$$$
58:0
     RDKit          3D

 46 49  0  0  0  0  0  0  0  0999 V2000
   58.1340   23.5610   46.8630 O   0  0  0  0  0  0  0  0  0  0  0  0
   57.2700   24.4800   46.8670 C   0  0  0  0  0  0  0  0  0  0  0  0
   55.9750   24.2350   47.4290 N   0  0  0  0  0  0  0  0  0  0  0  0
   55.3140   22.9630   47.4070 C   0  0  0  0  0  0  0  0  0  0  0  0
   54.1060   22.8510   46.7070 C   0  0  0  0  0  0  0  0  0  0  0  0
   53.3930   21.6380   46.6870 C   0  0  0  0  0  0  0  0  0  0  0  0
   52.1430   21.5320   45.9830 N   0  0  0  0  0  0  0  0  0  0  0  0
   51.3780   20.5660   46.1820 O   0  0  0  0  0  0  0  0  0  0  0  0
   51.7670   22.4990   45.0770 O   0  0  0  0  0  0  0  0  0  0  0  0
   53.9200   20.5300   47.3710 C   0  0  0  0  0  0  0  0  0  0  0  0
   55.1410   20.6260   48.0410 C   0  0  0  0  0  0  0  0  0  0  0  0
   55.8560   21.8270   48.0470 C   0  0  0  0  0  0  0  0  0  0  0  0
   57.1100   21.8500   48.6600 O   0  0  0  0  0  0  0  0  0  0  0  0
   57.6020   25.8140   46.3150 C   0  0  0  0  0  0  0  0  0  0  0  0
   58.9450   26.2100   46.1670 C   0  0  0  0  0  0  0  0  0  0  0  0
   59.2640   27.4670   45.6450 C   0  0  0  0  0  0  0  0  0  0  0  0
   58.2420   28.3530   45.2600 C   0  0  0  0  0  0  0  0  0  0  0  0
   58.5110   29.6270   44.7290 C   0  0  0  0  0  0  0  0  0  0  0  0
   59.7100   30.0020   44.5880 O   0  0  0  0  0  0  0  0  0  0  0  0
   57.4790   30.4590   44.3660 N   0  0  0  0  0  0  0  0  0  0  0  0
   57.7680   31.7820   43.7750 C   0  0  0  0  0  0  0  0  0  0  0  0
   58.1900   32.7560   44.8430 C   0  0  0  0  0  0  0  0  0  0  0  0
   58.9090   33.9160   44.5060 C   0  0  0  0  0  0  0  0  0  0  0  0
   59.2710   34.8340   45.4970 C   0  0  0  0  0  0  0  0  0  0  0  0
   58.9160   34.6050   46.8280 C   0  0  0  0  0  0  0  0  0  0  0  0
   58.1980   33.4570   47.1720 C   0  0  0  0  0  0  0  0  0  0  0  0
   57.8340   32.5360   46.1850 C   0  0  0  0  0  0  0  0  0  0  0  0
   56.1800   30.0360   44.5220 C   0  0  0  0  0  0  0  0  0  0  0  0
   55.2160   30.7790   44.1940 O   0  0  0  0  0  0  0  0  0  0  0  0
   55.9110   28.8090   45.0340 N   0  0  0  0  0  0  0  0  0  0  0  0
   56.9010   27.9620   45.4050 C   0  0  0  0  0  0  0  0  0  0  0  0
   56.5840   26.7030   45.9270 C   0  0  0  0  0  0  0  0  0  0  0  0
   53.7094   23.7227   46.1658 H   0  0  0  0  0  0  0  0  0  0  0  0
   53.3664   19.5795   47.3788 H   0  0  0  0  0  0  0  0  0  0  0  0
   55.5438   19.7489   48.5687 H   0  0  0  0  0  0  0  0  0  0  0  0
   57.7830   22.5900   48.5070 H   0  0  0  0  0  0  0  0  0  0  0  0
   59.7512   25.5235   46.4651 H   0  0  0  0  0  0  0  0  0  0  0  0
   60.3174   27.7639   45.5351 H   0  0  0  0  0  0  0  0  0  0  0  0
   58.5779   31.6800   43.0377 H   0  0  0  0  0  0  0  0  0  0  0  0
   56.8573   32.1607   43.2880 H   0  0  0  0  0  0  0  0  0  0  0  0
   59.1881   34.1024   43.4584 H   0  0  0  0  0  0  0  0  0  0  0  0
   59.8365   35.7382   45.2275 H   0  0  0  0  0  0  0  0  0  0  0  0
   59.2017   35.3286   47.6057 H   0  0  0  0  0  0  0  0  0  0  0  0
   57.9187   33.2775   48.2207 H   0  0  0  0  0  0  0  0  0  0  0  0
   57.2663   31.6348   46.4600 H   0  0  0  0  0  0  0  0  0  0  0  0
   55.5302   26.4064   46.0347 H   0  0  0  0  0  0  0  0  0  0  0  0
  1  2  2  0
  2  3  1  0
  3  4  1  0
  4  5  2  0
  5  6  1  0
  6  7  1  0
  7  8  2  0
  7  9  1  0
  6 10  2  0
 10 11  1  0
 11 12  2  0
 12 13  1  0
  2 14  1  0
 14 15  2  0
 15 16  1  0
 16 17  2  0
 17 18  1  0
 18 19  2  0
 18 20  1  0
 20 21  1  0
 21 22  1  0
 22 23  2  0
 23 24  1  0
 24 25  2  0
 25 26  1  0
 26 27  2  0
 20 28  1  0
 28 29  2  0
 28 30  1  0
 30 31  1  0
 31 32  2  0
 12  4  1  0
 32 14  1  0
 31 17  1  0
 27 22  1  0
  5 33  1  0
 10 34  1  0
 11 35  1  0
 13 36  1  0
 15 37  1  0
 16 38  1  0
 21 39  1  0
 21 40  1  0
 23 41  1  0
 24 42  1  0
 25 43  1  0
 26 44  1  0
 27 45  1  0
 32 46  1  0
M  CHG  4   3  -1   7   1   9  -1  30  -1
M  END
>  <UniqueID>  (59) 
54

>  <SMILES>  (59) 
O=C([N-]c1cc([N+](=O)[O-])ccc1O)c1ccc2c(=O)n(Cc3ccccc3)c(=O)[n-]c2c1

>  <Energy>  (59) 
67.87982828251181

>  <Genealogy>  (59) 
O=C([N-]c1cc([N+](=O)[O-])ccc1O)c1ccc2c(=O)n(Cc3ccccc3)c(=O)[n-]c2c1 (protonated)
O=C([N-]c1cc([N+](=O)[O-])ccc1O)c1ccc2c(=O)n(Cc3ccccc3)c(=O)[n-]c2c1 (3D coordinates assigned)
O=C([N-]c1cc([N+](=O)[O-])ccc1O)c1ccc2c(=O)n(Cc3ccccc3)c(=O)[n-]c2c1 (optimized conformer: 67.87982828251181 kcal/mol)

>  <smiles>  (59) 
O=C(Nc1cc([N+](=O)[O-])ccc1O)c1ccc2c(=O)n(Cc3ccccc3)c(=O)[nH]c2c1

>  <score_type>  (59) 
oracle

>  <origin>  (59) 
adg

>  <m_score__min__energy>  (59) 
-13.050000000000001

>  <m_primary>  (59) 
energy

$$$$
59:0
     RDKit          3D

 33 34  0  0  0  0  0  0  0  0999 V2000
   59.2800   34.7654   43.7222 H   0  0  0  0  0  0  0  0  0  0  0  0
   58.8860   34.0890   44.4950 C   0  0  0  0  0  0  0  0  0  0  0  0
   59.3180   34.2150   45.8180 C   0  0  0  0  0  0  0  0  0  0  0  0
   60.0560   34.9859   46.0846 H   0  0  0  0  0  0  0  0  0  0  0  0
   58.8120   33.3610   46.8030 C   0  0  0  0  0  0  0  0  0  0  0  0
   59.3450   33.5280   48.4670 Cl  0  0  0  0  0  0  0  0  0  0  0  0
   57.8790   32.3750   46.4620 C   0  0  0  0  0  0  0  0  0  0  0  0
   57.4748   31.7120   47.2412 H   0  0  0  0  0  0  0  0  0  0  0  0
   57.4560   32.2270   45.1320 C   0  0  0  0  0  0  0  0  0  0  0  0
   56.4770   31.2250   44.8110 N   0  0  0  0  0  0  0  0  0  0  0  0
   55.5280   31.3080   45.2410 H   0  0  0  0  0  0  0  0  0  0  0  0
   56.6950   30.1400   43.8920 C   0  0  0  0  0  0  0  0  0  0  0  0
   55.5990   29.7160   43.0690 N   0  0  0  0  0  0  0  0  0  0  0  0
   55.7260   29.0750   42.2560 H   0  0  0  0  0  0  0  0  0  0  0  0
   54.6570   30.1440   43.2030 H   0  0  0  0  0  0  0  0  0  0  0  0
   57.8630   29.5520   43.8340 N   0  0  0  0  0  0  0  0  0  0  0  0
   58.4680   29.6970   42.9960 H   0  0  0  0  0  0  0  0  0  0  0  0
   58.4020   28.7020   44.8590 C   0  0  0  0  0  0  0  0  0  0  0  0
   58.4490   27.3170   44.6520 C   0  0  0  0  0  0  0  0  0  0  0  0
   58.0470   26.8885   43.7221 H   0  0  0  0  0  0  0  0  0  0  0  0
   59.0040   26.4780   45.6210 C   0  0  0  0  0  0  0  0  0  0  0  0
   59.0202   25.3898   45.4610 H   0  0  0  0  0  0  0  0  0  0  0  0
   59.5390   27.0190   46.7940 C   0  0  0  0  0  0  0  0  0  0  0  0
   59.9588   26.3539   47.5630 H   0  0  0  0  0  0  0  0  0  0  0  0
   59.5420   28.4080   46.9930 C   0  0  0  0  0  0  0  0  0  0  0  0
   60.0950   28.9880   48.2610 C   0  0  0  0  0  0  0  0  0  0  0  0
   59.6252   28.4953   49.1250 H   0  0  0  0  0  0  0  0  0  0  0  0
   61.1827   28.8273   48.2939 H   0  0  0  0  0  0  0  0  0  0  0  0
   59.8826   30.0668   48.2939 H   0  0  0  0  0  0  0  0  0  0  0  0
   58.9680   29.2460   46.0250 C   0  0  0  0  0  0  0  0  0  0  0  0
   58.9609   30.3351   46.1795 H   0  0  0  0  0  0  0  0  0  0  0  0
   57.9550   33.1060   44.1520 C   0  0  0  0  0  0  0  0  0  0  0  0
   57.6100   33.0182   43.1112 H   0  0  0  0  0  0  0  0  0  0  0  0
  1  2  1  0
  2  3  2  0
  3  4  1  0
  3  5  1  0
  5  6  1  0
  5  7  2  0
  7  8  1  0
  7  9  1  0
  9 10  1  0
 10 11  1  0
 10 12  1  0
 12 13  1  0
 13 14  1  0
 13 15  1  0
 12 16  2  0
 16 17  1  0
 16 18  1  0
 18 19  2  0
 19 20  1  0
 19 21  1  0
 21 22  1  0
 21 23  2  0
 23 24  1  0
 23 25  1  0
 25 26  1  0
 26 27  1  0
 26 28  1  0
 26 29  1  0
 25 30  2  0
 30 31  1  0
  9 32  2  0
 32 33  1  0
 32  2  1  0
 30 18  1  0
M  CHG  1  16   1
M  END
>  <UniqueID>  (60) 
55

>  <SMILES>  (60) 
Cc1cccc(/[NH+]=C(\N)Nc2cccc(Cl)c2)c1

>  <Energy>  (60) 
44.054087640147415

>  <Genealogy>  (60) 
Cc1cccc([NH+]=C(N)Nc2cccc(Cl)c2)c1 (protonated)
Cc1cccc(/[NH+]=C(\N)Nc2cccc(Cl)c2)c1 (cis-trans isomerization)
Cc1cccc(/[NH+]=C(\N)Nc2cccc(Cl)c2)c1 (3D coordinates assigned)
Cc1cccc(/[NH+]=C(\N)Nc2cccc(Cl)c2)c1 (optimized conformer: 44.054087640147415 kcal/mol)

>  <smiles>  (60) 
Cc1cccc(N=C(N)Nc2cccc(Cl)c2)c1

>  <score_type>  (60) 
oracle

>  <origin>  (60) 
adg

>  <m_score__min__energy>  (60) 
-5.8300000000000001

>  <m_primary>  (60) 
energy

$$$$
60:0
     RDKit          3D

 40 42  0  0  0  0  0  0  0  0999 V2000
   54.2900   24.3689   46.1136 H   0  0  0  0  0  0  0  0  0  0  0  0
   55.1960   24.9520   45.8920 C   0  0  0  0  0  0  0  0  0  0  0  0
   55.2310   26.3080   45.9890 N   0  0  0  0  0  0  0  0  0  0  0  0
   56.4480   26.8000   45.6770 C   0  0  0  0  0  0  0  0  0  0  0  0
   56.6900   28.0780   45.6660 N   0  0  0  0  0  0  0  0  0  0  0  0
   56.2510   29.0330   44.6880 C   0  0  0  0  0  0  0  0  0  0  0  0
   55.1530   29.6390   44.8100 O   0  0  0  0  0  0  0  0  0  0  0  0
   57.1280   29.3340   43.5150 C   0  0  0  0  0  0  0  0  0  0  0  0
   56.9373   28.5968   42.7212 H   0  0  0  0  0  0  0  0  0  0  0  0
   58.1797   29.2830   43.8333 H   0  0  0  0  0  0  0  0  0  0  0  0
   56.7830   31.0090   42.8760 S   0  0  0  0  0  0  0  0  0  0  0  0
   57.6290   31.8580   44.2130 C   0  0  0  0  0  0  0  0  0  0  0  0
   57.9470   33.1670   44.0770 N   0  0  0  0  0  0  0  0  0  0  0  0
   58.6000   33.8390   45.0580 C   0  0  0  0  0  0  0  0  0  0  0  0
   58.8770   35.0550   44.8820 O   0  0  0  0  0  0  0  0  0  0  0  0
   58.9620   33.1760   46.2480 C   0  0  0  0  0  0  0  0  0  0  0  0
   59.7120   33.9090   47.3370 C   0  0  0  0  0  0  0  0  0  0  0  0
   59.3597   33.5646   48.3205 H   0  0  0  0  0  0  0  0  0  0  0  0
   60.7888   33.7055   47.2414 H   0  0  0  0  0  0  0  0  0  0  0  0
   59.5333   34.9902   47.2414 H   0  0  0  0  0  0  0  0  0  0  0  0
   58.6200   31.8060   46.3700 C   0  0  0  0  0  0  0  0  0  0  0  0
   58.9720   30.9830   47.5920 C   0  0  0  0  0  0  0  0  0  0  0  0
   59.7682   31.4928   48.1543 H   0  0  0  0  0  0  0  0  0  0  0  0
   58.0740   30.8750   48.2180 H   0  0  0  0  0  0  0  0  0  0  0  0
   59.4500   29.6140   47.1880 C   0  0  0  0  0  0  0  0  0  0  0  0
   59.1310   28.4940   47.9730 C   0  0  0  0  0  0  0  0  0  0  0  0
   58.5460   28.6205   48.8959 H   0  0  0  0  0  0  0  0  0  0  0  0
   59.5540   27.2190   47.5860 C   0  0  0  0  0  0  0  0  0  0  0  0
   59.3046   26.3458   48.2068 H   0  0  0  0  0  0  0  0  0  0  0  0
   60.2930   27.0520   46.4120 C   0  0  0  0  0  0  0  0  0  0  0  0
   60.6253   26.0479   46.1096 H   0  0  0  0  0  0  0  0  0  0  0  0
   60.6100   28.1600   45.6220 C   0  0  0  0  0  0  0  0  0  0  0  0
   61.1908   28.0270   44.6974 H   0  0  0  0  0  0  0  0  0  0  0  0
   60.1900   29.4380   46.0050 C   0  0  0  0  0  0  0  0  0  0  0  0
   60.4391   30.3077   45.3793 H   0  0  0  0  0  0  0  0  0  0  0  0
   57.9560   31.1920   45.3490 N   0  0  0  0  0  0  0  0  0  0  0  0
   57.7030   30.1800   45.4280 H   0  0  0  0  0  0  0  0  0  0  0  0
   57.5240   25.5710   45.2550 S   0  0  0  0  0  0  0  0  0  0  0  0
   56.3860   24.3550   45.4930 C   0  0  0  0  0  0  0  0  0  0  0  0
   56.5543   23.2765   45.3567 H   0  0  0  0  0  0  0  0  0  0  0  0
  1  2  1  0
  2  3  1  0
  3  4  1  0
  4  5  2  0
  5  6  1  0
  6  7  2  0
  6  8  1  0
  8  9  1  0
  8 10  1  0
  8 11  1  0
 11 12  1  0
 12 13  2  0
 13 14  1  0
 14 15  2  0
 14 16  1  0
 16 17  1  0
 17 18  1  0
 17 19  1  0
 17 20  1  0
 16 21  2  0
 21 22  1  0
 22 23  1  0
 22 24  1  0
 22 25  1  0
 25 26  2  0
 26 27  1  0
 26 28  1  0
 28 29  1  0
 28 30  2  0
 30 31  1  0
 30 32  1  0
 32 33  1  0
 32 34  2  0
 34 35  1  0
 21 36  1  0
 36 37  1  0
  4 38  1  0
 38 39  1  0
 39 40  1  0
 39  2  2  0
 36 12  1  0
 34 25  1  0
M  CHG  1   3  -1
M  END
>  <UniqueID>  (61) 
56

>  <SMILES>  (61) 
Cc1c(Cc2ccccc2)[nH]c(SCC(=O)/N=c2/[n-]ccs2)nc1=O

>  <Energy>  (61) 
69.82522159046802

>  <Genealogy>  (61) 
Cc1c(Cc2ccccc2)[nH]c(SCC(=O)N=c2[n-]ccs2)nc1=O (protonated)
Cc1c(Cc2ccccc2)[nH]c(SCC(=O)/N=c2/[n-]ccs2)nc1=O (cis-trans isomerization)
Cc1c(Cc2ccccc2)[nH]c(SCC(=O)/N=c2/[n-]ccs2)nc1=O (3D coordinates assigned)
Cc1c(Cc2ccccc2)[nH]c(SCC(=O)/N=c2/[n-]ccs2)nc1=O (optimized conformer: 69.82522159046802 kcal/mol)

>  <smiles>  (61) 
Cc1c(Cc2ccccc2)[nH]c(SCC(=O)N=c2[nH]ccs2)nc1=O

>  <score_type>  (61) 
oracle

>  <origin>  (61) 
adg

>  <m_score__min__energy>  (61) 
-10.35

>  <m_primary>  (61) 
energy

$$$$
61:0
     RDKit          3D

 39 41  0  0  0  0  0  0  0  0999 V2000
   58.3240   31.7910   50.3890 C   0  0  0  0  0  0  0  0  0  0  0  0
   58.6700   31.9610   49.0190 O   0  0  0  0  0  0  0  0  0  0  0  0
   59.9460   31.7190   48.4850 C   0  0  0  0  0  0  0  0  0  0  0  0
   61.1140   32.2540   49.0650 C   0  0  0  0  0  0  0  0  0  0  0  0
   62.3650   31.9960   48.4980 C   0  0  0  0  0  0  0  0  0  0  0  0
   62.4670   31.2080   47.3510 C   0  0  0  0  0  0  0  0  0  0  0  0
   61.3170   30.6710   46.7690 C   0  0  0  0  0  0  0  0  0  0  0  0
   60.0560   30.9200   47.3310 C   0  0  0  0  0  0  0  0  0  0  0  0
   58.8790   30.3520   46.7230 N   0  0  0  0  0  0  0  0  0  0  0  0
   58.1100   31.1110   45.8840 C   0  0  0  0  0  0  0  0  0  0  0  0
   58.4070   32.3140   45.6490 O   0  0  0  0  0  0  0  0  0  0  0  0
   57.0100   30.5780   45.2980 N   0  0  0  0  0  0  0  0  0  0  0  0
   56.6350   29.2930   45.5110 C   0  0  0  0  0  0  0  0  0  0  0  0
   55.5130   28.8110   44.8350 O   0  0  0  0  0  0  0  0  0  0  0  0
   57.3960   28.4830   46.3750 C   0  0  0  0  0  0  0  0  0  0  0  0
   57.0170   27.0780   46.6560 C   0  0  0  0  0  0  0  0  0  0  0  0
   57.7590   26.3760   47.3930 O   0  0  0  0  0  0  0  0  0  0  0  0
   55.8740   26.4650   46.0440 N   0  0  0  0  0  0  0  0  0  0  0  0
   55.8580   25.2250   45.3220 C   0  0  0  0  0  0  0  0  0  0  0  0
   54.7310   24.3810   45.3220 C   0  0  0  0  0  0  0  0  0  0  0  0
   54.7520   23.1790   44.6090 C   0  0  0  0  0  0  0  0  0  0  0  0
   55.9020   22.7990   43.9100 C   0  0  0  0  0  0  0  0  0  0  0  0
   55.9200   21.6040   43.2010 O   0  0  0  0  0  0  0  0  0  0  0  0
   57.0330   23.6200   43.9280 C   0  0  0  0  0  0  0  0  0  0  0  0
   57.0130   24.8240   44.6390 C   0  0  0  0  0  0  0  0  0  0  0  0
   58.5340   29.0510   46.9810 C   0  0  0  0  0  0  0  0  0  0  0  0
   59.2330   28.3580   47.7730 O   0  0  0  0  0  0  0  0  0  0  0  0
   59.1309   32.1874   51.0229 H   0  0  0  0  0  0  0  0  0  0  0  0
   57.3908   32.3332   50.6015 H   0  0  0  0  0  0  0  0  0  0  0  0
   58.1829   30.7210   50.6015 H   0  0  0  0  0  0  0  0  0  0  0  0
   61.0405   32.8775   49.9682 H   0  0  0  0  0  0  0  0  0  0  0  0
   63.2722   32.4155   48.9574 H   0  0  0  0  0  0  0  0  0  0  0  0
   63.4530   31.0099   46.9054 H   0  0  0  0  0  0  0  0  0  0  0  0
   61.4002   30.0495   45.8652 H   0  0  0  0  0  0  0  0  0  0  0  0
   55.1450   27.8780   44.9670 H   0  0  0  0  0  0  0  0  0  0  0  0
   53.8309   24.6686   45.8851 H   0  0  0  0  0  0  0  0  0  0  0  0
   53.8630   22.5313   44.5977 H   0  0  0  0  0  0  0  0  0  0  0  0
   57.9395   23.3188   43.3825 H   0  0  0  0  0  0  0  0  0  0  0  0
   57.9101   25.4601   44.6620 H   0  0  0  0  0  0  0  0  0  0  0  0
  1  2  1  0
  2  3  1  0
  3  4  2  0
  4  5  1  0
  5  6  2  0
  6  7  1  0
  7  8  2  0
  8  9  1  0
  9 10  1  0
 10 11  2  0
 10 12  1  0
 12 13  1  0
 13 14  1  0
 13 15  2  0
 15 16  1  0
 16 17  2  0
 16 18  1  0
 18 19  1  0
 19 20  2  0
 20 21  1  0
 21 22  2  0
 22 23  1  0
 22 24  1  0
 24 25  2  0
 15 26  1  0
 26 27  2  0
  8  3  1  0
 26  9  1  0
 25 19  1  0
  1 28  1  0
  1 29  1  0
  1 30  1  0
  4 31  1  0
  5 32  1  0
  6 33  1  0
  7 34  1  0
 14 35  1  0
 20 36  1  0
 21 37  1  0
 24 38  1  0
 25 39  1  0
M  CHG  3  12  -1  18  -1  23  -1
M  END
>  <UniqueID>  (62) 
57

>  <SMILES>  (62) 
COc1ccccc1-n1c(=O)[n-]c(O)c(C(=O)[N-]c2ccc([O-])cc2)c1=O

>  <Energy>  (62) 
62.96186315778244

>  <Genealogy>  (62) 
COc1ccccc1-n1c(=O)[n-]c(O)c(C(=O)[N-]c2ccc([O-])cc2)c1=O (protonated)
COc1ccccc1-n1c(=O)[n-]c(O)c(C(=O)[N-]c2ccc([O-])cc2)c1=O (3D coordinates assigned)
COc1ccccc1-n1c(=O)[n-]c(O)c(C(=O)[N-]c2ccc([O-])cc2)c1=O (optimized conformer: 62.96186315778244 kcal/mol)

>  <smiles>  (62) 
COc1ccccc1-n1c(=O)[nH]c(O)c(C(=O)Nc2ccc(O)cc2)c1=O

>  <score_type>  (62) 
oracle

>  <origin>  (62) 
adg

>  <m_score__min__energy>  (62) 
-12.35

>  <m_primary>  (62) 
energy

$$$$
62:0
     RDKit          3D

 41 43  0  0  0  0  0  0  0  0999 V2000
   58.5653   24.5008   45.9065 H   0  0  0  0  0  0  0  0  0  0  0  0
   58.1360   25.4740   45.6260 C   0  0  0  0  0  0  0  0  0  0  0  0
   57.5890   26.6580   46.6920 S   0  0  0  0  0  0  0  0  0  0  0  0
   57.1420   27.7130   45.4550 C   0  0  0  0  0  0  0  0  0  0  0  0
   56.6110   28.8890   45.6050 N   0  0  0  0  0  0  0  0  0  0  0  0
   57.0680   30.2900   44.6880 S   0  0  0  0  0  0  0  0  0  0  0  0
   57.5100   29.8550   43.3170 O   0  0  0  0  0  0  0  0  0  0  0  0
   55.8820   31.2000   44.5530 O   0  0  0  0  0  0  0  0  0  0  0  0
   58.3620   31.1520   45.5140 C   0  0  0  0  0  0  0  0  0  0  0  0
   59.3120   30.4390   46.2530 C   0  0  0  0  0  0  0  0  0  0  0  0
   59.2381   29.3441   46.3288 H   0  0  0  0  0  0  0  0  0  0  0  0
   60.3540   31.1120   46.8950 C   0  0  0  0  0  0  0  0  0  0  0  0
   61.1009   30.5437   47.4688 H   0  0  0  0  0  0  0  0  0  0  0  0
   60.4530   32.5080   46.8120 C   0  0  0  0  0  0  0  0  0  0  0  0
   61.5380   33.1720   47.4770 N   0  0  0  0  0  0  0  0  0  0  0  0
   61.3970   33.5690   48.8820 C   0  0  0  0  0  0  0  0  0  0  0  0
   60.9746   32.7299   49.4542 H   0  0  0  0  0  0  0  0  0  0  0  0
   60.7301   34.4419   48.9389 H   0  0  0  0  0  0  0  0  0  0  0  0
   62.7560   33.9470   49.4730 C   0  0  0  0  0  0  0  0  0  0  0  0
   62.6986   33.9337   50.5714 H   0  0  0  0  0  0  0  0  0  0  0  0
   63.0409   34.9567   49.1423 H   0  0  0  0  0  0  0  0  0  0  0  0
   63.7580   32.9680   49.0170 N   0  0  0  0  0  0  0  0  0  0  0  0
   65.0050   33.1110   49.7830 C   0  0  0  0  0  0  0  0  0  0  0  0
   64.7792   33.0851   50.8593 H   0  0  0  0  0  0  0  0  0  0  0  0
   65.6866   32.2851   49.5314 H   0  0  0  0  0  0  0  0  0  0  0  0
   65.4820   34.0697   49.5314 H   0  0  0  0  0  0  0  0  0  0  0  0
   64.0240   33.0900   47.5640 C   0  0  0  0  0  0  0  0  0  0  0  0
   64.4053   32.1257   47.1970 H   0  0  0  0  0  0  0  0  0  0  0  0
   64.7546   33.9020   47.4343 H   0  0  0  0  0  0  0  0  0  0  0  0
   62.7710   33.4670   46.7410 C   0  0  0  0  0  0  0  0  0  0  0  0
   62.7734   32.8932   45.8025 H   0  0  0  0  0  0  0  0  0  0  0  0
   62.8026   34.5477   46.5383 H   0  0  0  0  0  0  0  0  0  0  0  0
   59.4990   33.2300   46.0670 C   0  0  0  0  0  0  0  0  0  0  0  0
   59.5940   34.6610   45.9270 C   0  0  0  0  0  0  0  0  0  0  0  0
   59.6720   35.8100   45.8150 N   0  0  0  0  0  0  0  0  0  0  0  0
   58.4550   32.5490   45.4260 C   0  0  0  0  0  0  0  0  0  0  0  0
   57.7052   33.1125   44.8513 H   0  0  0  0  0  0  0  0  0  0  0  0
   57.4000   27.1820   44.2430 N   0  0  0  0  0  0  0  0  0  0  0  0
   57.1980   27.6620   43.3360 H   0  0  0  0  0  0  0  0  0  0  0  0
   57.9500   25.9420   44.3280 C   0  0  0  0  0  0  0  0  0  0  0  0
   58.2266   25.3540   43.4404 H   0  0  0  0  0  0  0  0  0  0  0  0
  1  2  1  0
  2  3  1  0
  3  4  1  0
  4  5  2  0
  5  6  1  0
  6  7  2  0
  6  8  2  0
  6  9  1  0
  9 10  2  0
 10 11  1  0
 10 12  1  0
 12 13  1  0
 12 14  2  0
 14 15  1  0
 15 16  1  0
 16 17  1  0
 16 18  1  0
 16 19  1  0
 19 20  1  0
 19 21  1  0
 19 22  1  0
 22 23  1  0
 23 24  1  0
 23 25  1  0
 23 26  1  0
 22 27  1  0
 27 28  1  0
 27 29  1  0
 27 30  1  0
 30 31  1  0
 30 32  1  0
 14 33  1  0
 33 34  1  0
 34 35  3  0
 33 36  2  0
 36 37  1  0
  4 38  1  0
 38 39  1  0
 38 40  1  0
 40 41  1  0
 40  2  2  0
 36  9  1  0
 30 15  1  0
M  END
>  <UniqueID>  (63) 
58

>  <SMILES>  (63) 
CN1CCN(c2ccc(S(=O)(=O)/N=c3/[nH]ccs3)cc2C#N)CC1

>  <Energy>  (63) 
85.34133471347839

>  <Genealogy>  (63) 
CN1CCN(c2ccc(S(=O)(=O)/N=c3/[nH]ccs3)cc2C#N)CC1 (cis-trans isomerization)
CN1CCN(c2ccc(S(=O)(=O)/N=c3/[nH]ccs3)cc2C#N)CC1 (3D coordinates assigned)
CN1CCN(c2ccc(S(=O)(=O)/N=c3/[nH]ccs3)cc2C#N)CC1 (nonaromatic ring conformer: 85.34133471347839 kcal/mol)

>  <smiles>  (63) 
CN1CCN(c2ccc(S(=O)(=O)N=c3[nH]ccs3)cc2C#N)CC1

>  <score_type>  (63) 
oracle

>  <origin>  (63) 
adg

>  <m_score__min__energy>  (63) 
-8.3900000000000006

>  <m_primary>  (63) 
energy

$$$$
63:0
     RDKit          3D

 73 75  0  0  0  0  0  0  0  0999 V2000
   52.4920   31.7420   51.2400 C   0  0  0  0  0  0  0  0  0  0  0  0
   52.5740   30.2050   51.1570 C   0  0  0  0  0  0  0  0  0  0  0  0
   52.1860   29.7140   49.7480 C   0  0  0  0  0  0  0  0  0  0  0  0
   51.5970   29.6040   52.1770 C   0  0  0  0  0  0  0  0  0  0  0  0
   53.8870   29.7420   51.5040 O   0  0  0  0  0  0  0  0  0  0  0  0
   54.5430   29.9470   52.7290 C   0  0  0  0  0  0  0  0  0  0  0  0
   54.1560   30.8540   53.5110 O   0  0  0  0  0  0  0  0  0  0  0  0
   55.6550   29.1020   53.0990 N   0  0  0  0  0  0  0  0  0  0  0  0
   55.4540   28.0050   54.0620 C   0  0  0  0  0  0  0  0  0  0  0  0
   53.9670   27.7030   54.2810 C   0  0  0  0  0  0  0  0  0  0  0  0
   53.3790   27.1900   53.1160 O   0  0  0  0  0  0  0  0  0  0  0  0
   56.9350   29.2020   52.3700 C   0  0  0  0  0  0  0  0  0  0  0  0
   57.8140   30.3670   52.8660 C   0  0  0  0  0  0  0  0  0  0  0  0
   58.3340   31.2110   51.7330 C   0  0  0  0  0  0  0  0  0  0  0  0
   58.6940   32.5490   51.9520 C   0  0  0  0  0  0  0  0  0  0  0  0
   59.1220   33.3440   50.8870 C   0  0  0  0  0  0  0  0  0  0  0  0
   59.1900   32.8190   49.5850 C   0  0  0  0  0  0  0  0  0  0  0  0
   59.7100   33.6660   48.4910 C   0  0  0  0  0  0  0  0  0  0  0  0
   60.7670   34.3260   48.6950 O   0  0  0  0  0  0  0  0  0  0  0  0
   59.0570   33.7190   47.1550 C   0  0  0  0  0  0  0  0  0  0  0  0
   57.6790   33.4540   47.0280 C   0  0  0  0  0  0  0  0  0  0  0  0
   57.0460   33.5800   45.7890 C   0  0  0  0  0  0  0  0  0  0  0  0
   57.7790   33.9590   44.6620 C   0  0  0  0  0  0  0  0  0  0  0  0
   59.1480   34.2170   44.7730 C   0  0  0  0  0  0  0  0  0  0  0  0
   59.7860   34.0980   46.0080 C   0  0  0  0  0  0  0  0  0  0  0  0
   58.8280   31.4680   49.3630 C   0  0  0  0  0  0  0  0  0  0  0  0
   58.8810   30.8680   48.0580 N   0  0  0  0  0  0  0  0  0  0  0  0
   60.0300   30.1710   47.5590 C   0  0  0  0  0  0  0  0  0  0  0  0
   61.0620   30.0390   48.2740 O   0  0  0  0  0  0  0  0  0  0  0  0
   59.9870   29.5490   46.1900 C   0  0  0  0  0  0  0  0  0  0  0  0
   59.8220   28.0240   46.2320 C   0  0  0  0  0  0  0  0  0  0  0  0
   58.3720   27.5950   46.1780 C   0  0  0  0  0  0  0  0  0  0  0  0
   58.0030   26.3160   46.6300 C   0  0  0  0  0  0  0  0  0  0  0  0
   56.6750   25.8940   46.5450 C   0  0  0  0  0  0  0  0  0  0  0  0
   55.7190   26.7500   46.0020 C   0  0  0  0  0  0  0  0  0  0  0  0
   54.3960   26.3350   45.8870 O   0  0  0  0  0  0  0  0  0  0  0  0
   56.0830   27.9880   45.5720 N   0  0  0  0  0  0  0  0  0  0  0  0
   57.3680   28.4330   45.6520 C   0  0  0  0  0  0  0  0  0  0  0  0
   57.6420   29.5920   45.2470 O   0  0  0  0  0  0  0  0  0  0  0  0
   58.4180   30.6760   50.4400 C   0  0  0  0  0  0  0  0  0  0  0  0
   52.4755   32.0518   52.2953 H   0  0  0  0  0  0  0  0  0  0  0  0
   53.3679   32.1833   50.7420 H   0  0  0  0  0  0  0  0  0  0  0  0
   51.5741   32.0877   50.7420 H   0  0  0  0  0  0  0  0  0  0  0  0
   51.5061   28.8536   49.8339 H   0  0  0  0  0  0  0  0  0  0  0  0
   51.6829   30.5259   49.2024 H   0  0  0  0  0  0  0  0  0  0  0  0
   53.0922   29.4122   49.2024 H   0  0  0  0  0  0  0  0  0  0  0  0
   51.9506   29.8215   53.1956 H   0  0  0  0  0  0  0  0  0  0  0  0
   50.5995   30.0449   52.0332 H   0  0  0  0  0  0  0  0  0  0  0  0
   51.5407   28.5149   52.0332 H   0  0  0  0  0  0  0  0  0  0  0  0
   55.9481   27.1001   53.6787 H   0  0  0  0  0  0  0  0  0  0  0  0
   55.8851   28.3137   55.0258 H   0  0  0  0  0  0  0  0  0  0  0  0
   53.8658   26.9643   55.0897 H   0  0  0  0  0  0  0  0  0  0  0  0
   53.4557   28.6400   54.5469 H   0  0  0  0  0  0  0  0  0  0  0  0
   53.6500   27.7900   52.3760 H   0  0  0  0  0  0  0  0  0  0  0  0
   57.4898   28.2615   52.5029 H   0  0  0  0  0  0  0  0  0  0  0  0
   56.7003   29.3906   51.3120 H   0  0  0  0  0  0  0  0  0  0  0  0
   57.2151   31.0025   53.5349 H   0  0  0  0  0  0  0  0  0  0  0  0
   58.6797   29.9366   53.3907 H   0  0  0  0  0  0  0  0  0  0  0  0
   58.6390   32.9730   52.9655 H   0  0  0  0  0  0  0  0  0  0  0  0
   59.4085   34.3904   51.0685 H   0  0  0  0  0  0  0  0  0  0  0  0
   57.0980   33.1460   47.9098 H   0  0  0  0  0  0  0  0  0  0  0  0
   55.9679   33.3803   45.7008 H   0  0  0  0  0  0  0  0  0  0  0  0
   57.2787   34.0544   43.6870 H   0  0  0  0  0  0  0  0  0  0  0  0
   59.7240   34.5147   43.8844 H   0  0  0  0  0  0  0  0  0  0  0  0
   60.8642   34.3009   46.0880 H   0  0  0  0  0  0  0  0  0  0  0  0
   58.1320   31.1260   47.3760 H   0  0  0  0  0  0  0  0  0  0  0  0
   59.1395   29.9786   45.6357 H   0  0  0  0  0  0  0  0  0  0  0  0
   60.9479   29.7637   45.6995 H   0  0  0  0  0  0  0  0  0  0  0  0
   60.3508   27.5884   45.3714 H   0  0  0  0  0  0  0  0  0  0  0  0
   60.2395   27.6694   47.1859 H   0  0  0  0  0  0  0  0  0  0  0  0
   58.7646   25.6443   47.0528 H   0  0  0  0  0  0  0  0  0  0  0  0
   56.3860   24.8950   46.9034 H   0  0  0  0  0  0  0  0  0  0  0  0
   58.1583   29.6206   50.2706 H   0  0  0  0  0  0  0  0  0  0  0  0
  1  2  1  0
  2  3  1  0
  2  4  1  0
  2  5  1  0
  5  6  1  0
  6  7  2  0
  6  8  1  0
  8  9  1  0
  9 10  1  0
 10 11  1  0
  8 12  1  0
 12 13  1  0
 13 14  1  0
 14 15  2  0
 15 16  1  0
 16 17  2  0
 17 18  1  0
 18 19  2  0
 18 20  1  0
 20 21  2  0
 21 22  1  0
 22 23  2  0
 23 24  1  0
 24 25  2  0
 17 26  1  0
 26 27  1  0
 27 28  1  0
 28 29  2  0
 28 30  1  0
 30 31  1  0
 31 32  1  0
 32 33  2  0
 33 34  1  0
 34 35  2  0
 35 36  1  0
 35 37  1  0
 37 38  1  0
 38 39  2  0
 26 40  2  0
 40 14  1  0
 25 20  1  0
 38 32  1  0
  1 41  1  0
  1 42  1  0
  1 43  1  0
  3 44  1  0
  3 45  1  0
  3 46  1  0
  4 47  1  0
  4 48  1  0
  4 49  1  0
  9 50  1  0
  9 51  1  0
 10 52  1  0
 10 53  1  0
 11 54  1  0
 12 55  1  0
 12 56  1  0
 13 57  1  0
 13 58  1  0
 15 59  1  0
 16 60  1  0
 21 61  1  0
 22 62  1  0
 23 63  1  0
 24 64  1  0
 25 65  1  0
 27 66  1  0
 30 67  1  0
 30 68  1  0
 31 69  1  0
 31 70  1  0
 33 71  1  0
 34 72  1  0
 40 73  1  0
M  CHG  2  36  -1  37  -1
M  END
>  <UniqueID>  (64) 
59

>  <SMILES>  (64) 
CC(C)(C)OC(=O)N(CCO)CCc1ccc(C(=O)c2ccccc2)c(NC(=O)CCc2ccc([O-])[n-]c2=O)c1

>  <Energy>  (64) 
68.6189882926872

>  <Genealogy>  (64) 
CC(C)(C)OC(=O)N(CCO)CCc1ccc(C(=O)c2ccccc2)c(NC(=O)CCc2ccc([O-])[n-]c2=O)c1 (protonated)
CC(C)(C)OC(=O)N(CCO)CCc1ccc(C(=O)c2ccccc2)c(NC(=O)CCc2ccc([O-])[n-]c2=O)c1 (3D coordinates assigned)
CC(C)(C)OC(=O)N(CCO)CCc1ccc(C(=O)c2ccccc2)c(NC(=O)CCc2ccc([O-])[n-]c2=O)c1 (optimized conformer: 68.6189882926872 kcal/mol)

>  <smiles>  (64) 
CC(C)(C)OC(=O)N(CCO)CCc1ccc(C(=O)c2ccccc2)c(NC(=O)CCc2ccc(O)[nH]c2=O)c1

>  <score_type>  (64) 
oracle

>  <origin>  (64) 
adg

>  <m_score__min__energy>  (64) 
-15.4

>  <m_primary>  (64) 
energy

$$$$
64:0
     RDKit          3D

 50 54  0  0  0  0  0  0  0  0999 V2000
   56.5329   30.1665   41.8961 H   0  0  0  0  0  0  0  0  0  0  0  0
   56.8770   30.8480   42.6880 C   0  0  0  0  0  0  0  0  0  0  0  0
   56.4920   30.6400   44.0170 C   0  0  0  0  0  0  0  0  0  0  0  0
   55.6370   29.4690   44.3830 C   0  0  0  0  0  0  0  0  0  0  0  0
   55.5770   29.3869   45.4783 H   0  0  0  0  0  0  0  0  0  0  0  0
   54.6271   29.6090   43.9700 H   0  0  0  0  0  0  0  0  0  0  0  0
   56.0779   28.5497   43.9700 H   0  0  0  0  0  0  0  0  0  0  0  0
   56.9300   31.4890   44.9860 N   0  0  0  0  0  0  0  0  0  0  0  0
   57.7220   32.5630   44.7190 C   0  0  0  0  0  0  0  0  0  0  0  0
   58.0930   33.3150   45.7190 N   0  0  0  0  0  0  0  0  0  0  0  0
   59.4110   33.7710   46.0720 C   0  0  0  0  0  0  0  0  0  0  0  0
   59.7750   34.9450   45.7930 O   0  0  0  0  0  0  0  0  0  0  0  0
   60.3100   32.8830   46.8500 C   0  0  0  0  0  0  0  0  0  0  0  0
   61.2630   33.4190   47.7380 C   0  0  0  0  0  0  0  0  0  0  0  0
   61.3538   34.5083   47.8609 H   0  0  0  0  0  0  0  0  0  0  0  0
   62.1040   32.5460   48.4720 C   0  0  0  0  0  0  0  0  0  0  0  0
   63.1090   33.0920   49.4170 C   0  0  0  0  0  0  0  0  0  0  0  0
   62.7450   34.0560   50.3770 C   0  0  0  0  0  0  0  0  0  0  0  0
   61.7045   34.4090   50.4300 H   0  0  0  0  0  0  0  0  0  0  0  0
   63.6980   34.5670   51.2630 C   0  0  0  0  0  0  0  0  0  0  0  0
   63.4053   35.3204   52.0091 H   0  0  0  0  0  0  0  0  0  0  0  0
   65.0210   34.1230   51.2030 C   0  0  0  0  0  0  0  0  0  0  0  0
   65.7689   34.5259   51.9019 H   0  0  0  0  0  0  0  0  0  0  0  0
   65.3940   33.1670   50.2550 C   0  0  0  0  0  0  0  0  0  0  0  0
   66.6780   32.7340   50.2000 F   0  0  0  0  0  0  0  0  0  0  0  0
   64.4450   32.6540   49.3650 C   0  0  0  0  0  0  0  0  0  0  0  0
   64.7451   31.9030   48.6194 H   0  0  0  0  0  0  0  0  0  0  0  0
   61.9780   31.1920   48.3090 N   0  0  0  0  0  0  0  0  0  0  0  0
   62.5990   30.5250   48.8220 H   0  0  0  0  0  0  0  0  0  0  0  0
   61.0490   30.7140   47.4450 C   0  0  0  0  0  0  0  0  0  0  0  0
   60.7740   29.4010   47.1420 C   0  0  0  0  0  0  0  0  0  0  0  0
   61.2502   28.4928   47.5401 H   0  0  0  0  0  0  0  0  0  0  0  0
   59.7420   29.5020   46.2050 C   0  0  0  0  0  0  0  0  0  0  0  0
   59.0470   28.3810   45.5290 C   0  0  0  0  0  0  0  0  0  0  0  0
   58.3790   27.3820   46.2650 C   0  0  0  0  0  0  0  0  0  0  0  0
   58.3674   27.4288   47.3639 H   0  0  0  0  0  0  0  0  0  0  0  0
   57.7310   26.3320   45.6080 C   0  0  0  0  0  0  0  0  0  0  0  0
   57.2133   25.5563   46.1914 H   0  0  0  0  0  0  0  0  0  0  0  0
   57.7390   26.2650   44.2130 C   0  0  0  0  0  0  0  0  0  0  0  0
   57.2272   25.4383   43.6987 H   0  0  0  0  0  0  0  0  0  0  0  0
   58.3970   27.2480   43.4720 C   0  0  0  0  0  0  0  0  0  0  0  0
   58.4033   27.1948   42.3733 H   0  0  0  0  0  0  0  0  0  0  0  0
   59.0480   28.3000   44.1230 C   0  0  0  0  0  0  0  0  0  0  0  0
   59.5651   29.0706   43.5324 H   0  0  0  0  0  0  0  0  0  0  0  0
   59.4440   30.8070   45.9840 N   0  0  0  0  0  0  0  0  0  0  0  0
   60.2490   31.5260   46.7470 N   0  0  0  0  0  0  0  0  0  0  0  0
   58.1340   32.7910   43.3880 C   0  0  0  0  0  0  0  0  0  0  0  0
   58.7901   33.6407   43.1479 H   0  0  0  0  0  0  0  0  0  0  0  0
   57.7010   31.9280   42.3790 C   0  0  0  0  0  0  0  0  0  0  0  0
   58.0112   32.1014   41.3380 H   0  0  0  0  0  0  0  0  0  0  0  0
  1  2  1  0
  2  3  2  0
  3  4  1  0
  4  5  1  0
  4  6  1  0
  4  7  1  0
  3  8  1  0
  8  9  1  0
  9 10  2  0
 10 11  1  0
 11 12  2  0
 11 13  1  0
 13 14  2  0
 14 15  1  0
 14 16  1  0
 16 17  1  0
 17 18  2  0
 18 19  1  0
 18 20  1  0
 20 21  1  0
 20 22  2  0
 22 23  1  0
 22 24  1  0
 24 25  1  0
 24 26  2  0
 26 27  1  0
 16 28  2  0
 28 29  1  0
 28 30  1  0
 30 31  2  0
 31 32  1  0
 31 33  1  0
 33 34  1  0
 34 35  2  0
 35 36  1  0
 35 37  1  0
 37 38  1  0
 37 39  2  0
 39 40  1  0
 39 41  1  0
 41 42  1  0
 41 43  2  0
 43 44  1  0
 33 45  2  0
 45 46  1  0
  9 47  1  0
 47 48  1  0
 47 49  2  0
 49 50  1  0
 49  2  1  0
 46 13  1  0
 26 17  1  0
 46 30  1  0
 43 34  1  0
M  CHG  2   8  -1  28   1
M  END
>  <UniqueID>  (65) 
60

>  <SMILES>  (65) 
Cc1ccc/c(=N\C(=O)c2cc(-c3cccc(F)c3)[nH+]c3cc(-c4ccccc4)nn23)[n-]1

>  <Energy>  (65) 
107.40170097228587

>  <Genealogy>  (65) 
Cc1cccc(=NC(=O)c2cc(-c3cccc(F)c3)[nH+]c3cc(-c4ccccc4)nn23)[n-]1 (protonated)
Cc1ccc/c(=N\C(=O)c2cc(-c3cccc(F)c3)[nH+]c3cc(-c4ccccc4)nn23)[n-]1 (cis-trans isomerization)
Cc1ccc/c(=N\C(=O)c2cc(-c3cccc(F)c3)[nH+]c3cc(-c4ccccc4)nn23)[n-]1 (3D coordinates assigned)
Cc1ccc/c(=N\C(=O)c2cc(-c3cccc(F)c3)[nH+]c3cc(-c4ccccc4)nn23)[n-]1 (optimized conformer: 107.40170097228587 kcal/mol)

>  <smiles>  (65) 
Cc1cccc(=NC(=O)c2cc(-c3cccc(F)c3)nc3cc(-c4ccccc4)nn23)[nH]1

>  <score_type>  (65) 
oracle

>  <origin>  (65) 
adg

>  <m_score__min__energy>  (65) 
-9.5999999999999996

>  <m_primary>  (65) 
energy

$$$$
65:0
     RDKit          3D

 56 58  0  0  0  0  0  0  0  0999 V2000
   53.6970   24.1450   45.2540 C   0  0  0  0  0  0  0  0  0  0  0  0
   55.2970   24.6680   45.8270 S   0  0  0  0  0  0  0  0  0  0  0  0
   55.5410   24.0590   47.1830 O   0  0  0  0  0  0  0  0  0  0  0  0
   56.3760   24.2110   44.8860 O   0  0  0  0  0  0  0  0  0  0  0  0
   55.3330   26.3940   45.9750 N   0  0  0  0  0  0  0  0  0  0  0  0
   56.5060   27.2180   45.9080 C   0  0  0  0  0  0  0  0  0  0  0  0
   57.7590   26.7710   46.3670 C   0  0  0  0  0  0  0  0  0  0  0  0
   58.8750   27.6040   46.2810 C   0  0  0  0  0  0  0  0  0  0  0  0
   58.7600   28.8840   45.7340 C   0  0  0  0  0  0  0  0  0  0  0  0
   57.5200   29.3390   45.2570 C   0  0  0  0  0  0  0  0  0  0  0  0
   57.3600   30.6560   44.7060 N   0  0  0  0  0  0  0  0  0  0  0  0
   57.5030   31.8910   45.4160 C   0  0  0  0  0  0  0  0  0  0  0  0
   56.7330   32.8620   45.1810 O   0  0  0  0  0  0  0  0  0  0  0  0
   58.5750   32.0200   46.4600 C   0  0  1  0  0  0  0  0  0  0  0  0
   59.5980   33.0980   46.0670 C   0  0  0  0  0  0  0  0  0  0  0  0
   60.9650   32.7980   46.6330 C   0  0  0  0  0  0  0  0  0  0  0  0
   61.2730   31.5090   47.1090 C   0  0  0  0  0  0  0  0  0  0  0  0
   62.5210   31.2480   47.6810 C   0  0  0  0  0  0  0  0  0  0  0  0
   63.4670   32.2710   47.7930 C   0  0  0  0  0  0  0  0  0  0  0  0
   63.1690   33.5540   47.3270 C   0  0  0  0  0  0  0  0  0  0  0  0
   61.9210   33.8190   46.7500 C   0  0  0  0  0  0  0  0  0  0  0  0
   57.9780   32.3680   47.7440 N   0  0  0  0  0  0  0  0  0  0  0  0
   58.7470   32.6620   48.9160 C   0  0  0  0  0  0  0  0  0  0  0  0
   59.2520   33.8070   49.0710 O   0  0  0  0  0  0  0  0  0  0  0  0
   58.9970   31.5790   49.9320 C   0  0  0  0  0  0  0  0  0  0  0  0
   58.5760   30.1950   49.3650 C   0  0  0  0  0  0  0  0  0  0  0  0
   59.7640   29.2950   49.0060 C   0  0  0  0  0  0  0  0  0  0  0  0
   60.6870   29.1650   50.1850 C   0  0  0  0  0  0  0  0  0  0  0  0
   61.2970   28.1240   50.3730 O   0  0  0  0  0  0  0  0  0  0  0  0
   60.8730   30.3240   51.1270 C   0  0  0  0  0  0  0  0  0  0  0  0
   60.4560   31.6310   50.4470 C   0  0  0  0  0  0  0  0  0  0  0  0
   56.3940   28.5090   45.3670 C   0  0  0  0  0  0  0  0  0  0  0  0
   55.1560   28.9660   44.9220 O   0  0  0  0  0  0  0  0  0  0  0  0
   53.0494   23.9333   46.1176 H   0  0  0  0  0  0  0  0  0  0  0  0
   53.2468   24.9428   44.6450 H   0  0  0  0  0  0  0  0  0  0  0  0
   53.8049   23.2354   44.6450 H   0  0  0  0  0  0  0  0  0  0  0  0
   57.8588   25.7624   46.7946 H   0  0  0  0  0  0  0  0  0  0  0  0
   59.8507   27.2507   46.6460 H   0  0  0  0  0  0  0  0  0  0  0  0
   59.6430   29.5374   45.6767 H   0  0  0  0  0  0  0  0  0  0  0  0
   59.0932   31.0530   46.5395 H   0  0  0  0  0  0  0  0  0  0  0  0
   59.6673   33.1417   44.9701 H   0  0  0  0  0  0  0  0  0  0  0  0
   59.2589   34.0607   46.4773 H   0  0  0  0  0  0  0  0  0  0  0  0
   60.5277   30.7038   47.0302 H   0  0  0  0  0  0  0  0  0  0  0  0
   62.7591   30.2370   48.0433 H   0  0  0  0  0  0  0  0  0  0  0  0
   64.4470   32.0657   48.2485 H   0  0  0  0  0  0  0  0  0  0  0  0
   63.9158   34.3570   47.4135 H   0  0  0  0  0  0  0  0  0  0  0  0
   61.6889   34.8311   46.3871 H   0  0  0  0  0  0  0  0  0  0  0  0
   58.3651   31.7515   50.8157 H   0  0  0  0  0  0  0  0  0  0  0  0
   57.9649   29.6801   50.1210 H   0  0  0  0  0  0  0  0  0  0  0  0
   58.0186   30.3818   48.4352 H   0  0  0  0  0  0  0  0  0  0  0  0
   59.3934   28.2989   48.7223 H   0  0  0  0  0  0  0  0  0  0  0  0
   60.3141   29.7426   48.1652 H   0  0  0  0  0  0  0  0  0  0  0  0
   60.2541   30.1670   52.0227 H   0  0  0  0  0  0  0  0  0  0  0  0
   61.9340   30.3895   51.4100 H   0  0  0  0  0  0  0  0  0  0  0  0
   60.5472   32.4531   51.1722 H   0  0  0  0  0  0  0  0  0  0  0  0
   61.1158   31.7881   49.5810 H   0  0  0  0  0  0  0  0  0  0  0  0
  1  2  1  0
  2  3  2  0
  2  4  2  0
  2  5  1  0
  5  6  1  0
  6  7  2  0
  7  8  1  0
  8  9  2  0
  9 10  1  0
 10 11  1  0
 11 12  1  0
 12 13  2  0
 12 14  1  0
 14 15  1  0
 15 16  1  0
 16 17  2  0
 17 18  1  0
 18 19  2  0
 19 20  1  0
 20 21  2  0
 14 22  1  0
 22 23  1  0
 23 24  2  0
 23 25  1  0
 25 26  1  0
 26 27  1  0
 27 28  1  0
 28 29  2  0
 28 30  1  0
 30 31  1  0
 10 32  2  0
 32 33  1  0
 32  6  1  0
 21 16  1  0
 31 25  1  0
  1 34  1  0
  1 35  1  0
  1 36  1  0
  7 37  1  0
  8 38  1  0
  9 39  1  0
 14 40  1  1
 15 41  1  0
 15 42  1  0
 17 43  1  0
 18 44  1  0
 19 45  1  0
 20 46  1  0
 21 47  1  0
 25 48  1  0
 26 49  1  0
 26 50  1  0
 27 51  1  0
 27 52  1  0
 30 53  1  0
 30 54  1  0
 31 55  1  0
 31 56  1  0
M  CHG  4   5  -1  11  -1  22  -1  33  -1
M  END
>  <UniqueID>  (66) 
61

>  <SMILES>  (66) 
CS(=O)(=O)[N-]c1cccc([N-]C(=O)[C@@H](Cc2ccccc2)[N-]C(=O)C2CCC(=O)CC2)c1[O-]

>  <Energy>  (66) 
55.25954041805867

>  <Genealogy>  (66) 
CS(=O)(=O)[N-]c1cccc([N-]C(=O)C(Cc2ccccc2)[N-]C(=O)C2CCC(=O)CC2)c1[O-] (protonated)
CS(=O)(=O)[N-]c1cccc([N-]C(=O)[C@@H](Cc2ccccc2)[N-]C(=O)C2CCC(=O)CC2)c1[O-] (chirality)
CS(=O)(=O)[N-]c1cccc([N-]C(=O)[C@@H](Cc2ccccc2)[N-]C(=O)C2CCC(=O)CC2)c1[O-] (3D coordinates assigned)
CS(=O)(=O)[N-]c1cccc([N-]C(=O)[C@@H](Cc2ccccc2)[N-]C(=O)C2CCC(=O)CC2)c1[O-] (nonaromatic ring conformer: 55.25954041805867 kcal/mol)

>  <smiles>  (66) 
CS(=O)(=O)Nc1cccc(NC(=O)C(Cc2ccccc2)NC(=O)C2CCC(=O)CC2)c1O

>  <score_type>  (66) 
oracle

>  <origin>  (66) 
adg

>  <m_score__min__energy>  (66) 
-18.52

>  <m_primary>  (66) 
energy

$$$$
66:0
     RDKit          3D

 63 66  0  0  0  0  0  0  0  0999 V2000
   59.4430   22.2030   44.5790 C   0  0  0  0  0  0  0  0  0  0  0  0
   58.1310   21.5800   45.0330 C   0  0  0  0  0  0  0  0  0  0  0  0
   57.0360   22.5320   44.8580 N   0  0  0  0  0  0  0  0  0  0  0  0
   56.7880   23.5270   45.6960 N   0  0  0  0  0  0  0  0  0  0  0  0
   55.7910   24.2660   45.1630 C   0  0  0  0  0  0  0  0  0  0  0  0
   55.2560   25.4980   45.7750 C   0  0  0  0  0  0  0  0  0  0  0  0
   54.0420   25.7930   45.6090 O   0  0  0  0  0  0  0  0  0  0  0  0
   56.0660   26.3490   46.6010 N   0  0  0  0  0  0  0  0  0  0  0  0
   57.3600   26.8860   46.2800 C   0  0  0  0  0  0  0  0  0  0  0  0
   58.4920   26.0880   46.4830 C   0  0  0  0  0  0  0  0  0  0  0  0
   59.7680   26.5840   46.1970 C   0  0  0  0  0  0  0  0  0  0  0  0
   59.9230   27.8830   45.7070 C   0  0  0  0  0  0  0  0  0  0  0  0
   58.8010   28.7040   45.5180 C   0  0  0  0  0  0  0  0  0  0  0  0
   58.9620   30.0930   44.9560 C   0  0  0  0  0  0  0  0  0  0  0  0
   57.7760   30.9340   45.2330 N   0  0  0  0  0  0  0  0  0  0  0  0
   57.3730   31.7530   44.0590 C   0  0  0  0  0  0  0  0  0  0  0  0
   58.1570   33.0680   43.9680 C   0  0  0  0  0  0  0  0  0  0  0  0
   58.0450   33.9300   45.2570 C   0  0  0  0  0  0  0  0  0  0  0  0
   59.4040   34.4980   45.6250 C   0  0  0  0  0  0  0  0  0  0  0  0
   59.6470   35.7300   45.4900 O   0  0  0  0  0  0  0  0  0  0  0  0
   60.4230   33.6280   46.1420 N   0  0  0  0  0  0  0  0  0  0  0  0
   61.5540   34.1450   46.9230 C   0  0  0  0  0  0  0  0  0  0  0  0
   62.8810   33.6130   46.3860 C   0  0  0  0  0  0  0  0  0  0  0  0
   63.1330   32.2940   47.1140 C   0  0  0  0  0  0  0  0  0  0  0  0
   62.2300   32.2860   48.3470 C   0  0  0  0  0  0  0  0  0  0  0  0
   61.4950   33.6230   48.3570 C   0  0  0  0  0  0  0  0  0  0  0  0
   57.3950   33.1360   46.4140 C   0  0  0  0  0  0  0  0  0  0  0  0
   57.9740   31.7160   46.4820 C   0  0  0  0  0  0  0  0  0  0  0  0
   57.5230   28.2080   45.8290 C   0  0  0  0  0  0  0  0  0  0  0  0
   55.3850   23.7240   43.9520 C   0  0  0  0  0  0  0  0  0  0  0  0
   56.2140   22.6360   43.7990 C   0  0  0  0  0  0  0  0  0  0  0  0
   56.2220   21.8570   42.8080 O   0  0  0  0  0  0  0  0  0  0  0  0
   60.0386   22.4858   45.4595 H   0  0  0  0  0  0  0  0  0  0  0  0
   60.0046   21.4754   43.9747 H   0  0  0  0  0  0  0  0  0  0  0  0
   59.2341   23.0981   43.9747 H   0  0  0  0  0  0  0  0  0  0  0  0
   57.9294   20.6795   44.4343 H   0  0  0  0  0  0  0  0  0  0  0  0
   58.2087   21.3122   46.0971 H   0  0  0  0  0  0  0  0  0  0  0  0
   58.3773   25.0647   46.8698 H   0  0  0  0  0  0  0  0  0  0  0  0
   60.6520   25.9495   46.3583 H   0  0  0  0  0  0  0  0  0  0  0  0
   60.9273   28.2632   45.4687 H   0  0  0  0  0  0  0  0  0  0  0  0
   59.8465   30.5621   45.4117 H   0  0  0  0  0  0  0  0  0  0  0  0
   59.0785   30.0113   43.8652 H   0  0  0  0  0  0  0  0  0  0  0  0
   57.5524   31.1705   43.1433 H   0  0  0  0  0  0  0  0  0  0  0  0
   56.3083   32.0041   44.1742 H   0  0  0  0  0  0  0  0  0  0  0  0
   59.2174   32.8330   43.7940 H   0  0  0  0  0  0  0  0  0  0  0  0
   57.7262   33.6525   43.1417 H   0  0  0  0  0  0  0  0  0  0  0  0
   57.3751   34.7798   45.0592 H   0  0  0  0  0  0  0  0  0  0  0  0
   60.2910   32.5980   46.0370 H   0  0  0  0  0  0  0  0  0  0  0  0
   61.4908   35.2416   46.8646 H   0  0  0  0  0  0  0  0  0  0  0  0
   62.8137   33.4437   45.3012 H   0  0  0  0  0  0  0  0  0  0  0  0
   63.6992   34.3285   46.5550 H   0  0  0  0  0  0  0  0  0  0  0  0
   62.8845   31.4467   46.4580 H   0  0  0  0  0  0  0  0  0  0  0  0
   64.1907   32.1992   47.4008 H   0  0  0  0  0  0  0  0  0  0  0  0
   61.5095   31.4572   48.2845 H   0  0  0  0  0  0  0  0  0  0  0  0
   62.8163   32.1485   49.2675 H   0  0  0  0  0  0  0  0  0  0  0  0
   60.4499   33.4826   48.6702 H   0  0  0  0  0  0  0  0  0  0  0  0
   61.9541   34.3305   49.0631 H   0  0  0  0  0  0  0  0  0  0  0  0
   57.5926   33.6536   47.3643 H   0  0  0  0  0  0  0  0  0  0  0  0
   56.3114   33.0707   46.2365 H   0  0  0  0  0  0  0  0  0  0  0  0
   59.0537   31.7894   46.6793 H   0  0  0  0  0  0  0  0  0  0  0  0
   57.4383   31.1863   47.2835 H   0  0  0  0  0  0  0  0  0  0  0  0
   56.6433   28.8592   45.7187 H   0  0  0  0  0  0  0  0  0  0  0  0
   54.5920   24.0783   43.2771 H   0  0  0  0  0  0  0  0  0  0  0  0
  1  2  1  0
  2  3  1  0
  3  4  1  0
  4  5  1  0
  5  6  1  0
  6  7  2  0
  6  8  1  0
  8  9  1  0
  9 10  2  0
 10 11  1  0
 11 12  2  0
 12 13  1  0
 13 14  1  0
 14 15  1  0
 15 16  1  0
 16 17  1  0
 17 18  1  0
 18 19  1  0
 19 20  2  0
 19 21  1  0
 21 22  1  0
 22 23  1  0
 23 24  1  0
 24 25  1  0
 25 26  1  0
 18 27  1  0
 27 28  1  0
 13 29  2  0
  5 30  2  0
 30 31  1  0
 31 32  2  0
 31  3  1  0
 29  9  1  0
 28 15  1  0
 26 22  1  0
  1 33  1  0
  1 34  1  0
  1 35  1  0
  2 36  1  0
  2 37  1  0
 10 38  1  0
 11 39  1  0
 12 40  1  0
 14 41  1  0
 14 42  1  0
 16 43  1  0
 16 44  1  0
 17 45  1  0
 17 46  1  0
 18 47  1  0
 21 48  1  0
 22 49  1  0
 23 50  1  0
 23 51  1  0
 24 52  1  0
 24 53  1  0
 25 54  1  0
 25 55  1  0
 26 56  1  0
 26 57  1  0
 27 58  1  0
 27 59  1  0
 28 60  1  0
 28 61  1  0
 29 62  1  0
 30 63  1  0
M  CHG  2   4  -1   8  -1
M  END
>  <UniqueID>  (67) 
62

>  <SMILES>  (67) 
CCn1[n-]c(C(=O)[N-]c2cccc(CN3CCC(C(=O)NC4CCCC4)CC3)c2)cc1=O

>  <Energy>  (67) 
103.34857638739793

>  <Genealogy>  (67) 
CCn1[n-]c(C(=O)[N-]c2cccc(CN3CCC(C(=O)NC4CCCC4)CC3)c2)cc1=O (protonated)
CCn1[n-]c(C(=O)[N-]c2cccc(CN3CCC(C(=O)NC4CCCC4)CC3)c2)cc1=O (3D coordinates assigned)
CCn1[n-]c(C(=O)[N-]c2cccc(CN3CCC(C(=O)NC4CCCC4)CC3)c2)cc1=O (nonaromatic ring conformer: 103.34857638739793 kcal/mol)

>  <smiles>  (67) 
CCn1[nH]c(C(=O)Nc2cccc(CN3CCC(C(=O)NC4CCCC4)CC3)c2)cc1=O

>  <score_type>  (67) 
oracle

>  <origin>  (67) 
adg

>  <m_score__min__energy>  (67) 
-13.869999999999999

>  <m_primary>  (67) 
energy

$$$$
67:0
     RDKit          3D

 48 51  0  0  0  0  0  0  0  0999 V2000
   59.3190   35.6280   44.7690 O   0  0  0  0  0  0  0  0  0  0  0  0
   58.8630   34.6020   45.3440 C   0  0  0  0  0  0  0  0  0  0  0  0
   58.4290   33.4020   44.6460 C   0  0  0  0  0  0  0  0  0  0  0  0
   58.4230   33.0820   43.2890 C   0  0  0  0  0  0  0  0  0  0  0  0
   57.8980   31.8330   42.9080 C   0  0  0  0  0  0  0  0  0  0  0  0
   57.3920   30.9450   43.8820 C   0  0  0  0  0  0  0  0  0  0  0  0
   57.4070   31.3010   45.2440 C   0  0  0  0  0  0  0  0  0  0  0  0
   57.9380   32.5430   45.5890 C   0  0  0  0  0  0  0  0  0  0  0  0
   58.0660   33.2040   46.8800 C   0  0  0  0  0  0  0  0  0  0  0  0
   57.6440   32.7190   47.9660 O   0  0  0  0  0  0  0  0  0  0  0  0
   58.6720   34.5110   46.7730 N   0  0  0  0  0  0  0  0  0  0  0  0
   59.9670   34.5690   47.4740 C   0  0  0  0  0  0  0  0  0  0  0  0
   61.1820   33.4640   46.6710 S   0  0  0  0  0  0  0  0  0  0  0  0
   61.8540   32.8330   48.2150 C   0  0  0  0  0  0  0  0  0  0  0  0
   62.9290   33.7590   49.0280 S   0  0  0  0  0  0  0  0  0  0  0  0
   61.6710   31.4630   48.6040 N   0  0  0  0  0  0  0  0  0  0  0  0
   60.8580   30.5430   47.8650 C   0  0  0  0  0  0  0  0  0  0  0  0
   61.1670   30.2590   46.5250 C   0  0  0  0  0  0  0  0  0  0  0  0
   60.3480   29.4120   45.7750 C   0  0  0  0  0  0  0  0  0  0  0  0
   59.2040   28.8550   46.3510 C   0  0  0  0  0  0  0  0  0  0  0  0
   58.8800   29.1420   47.6780 C   0  0  0  0  0  0  0  0  0  0  0  0
   59.6980   29.9870   48.4450 C   0  0  0  0  0  0  0  0  0  0  0  0
   59.3610   30.2380   49.8210 N   0  0  0  0  0  0  0  0  0  0  0  0
   59.4960   29.1630   50.8110 C   0  0  0  0  0  0  0  0  0  0  0  0
   58.6430   29.4630   52.0440 C   0  0  0  0  0  0  0  0  0  0  0  0
   57.4410   30.0840   51.6430 O   0  0  0  0  0  0  0  0  0  0  0  0
   57.6960   31.4210   51.2520 C   0  0  0  0  0  0  0  0  0  0  0  0
   58.8430   31.5530   50.2210 C   0  0  0  0  0  0  0  0  0  0  0  0
   58.8165   33.7841   42.5392 H   0  0  0  0  0  0  0  0  0  0  0  0
   57.8818   31.5472   41.8459 H   0  0  0  0  0  0  0  0  0  0  0  0
   56.9842   29.9705   43.5753 H   0  0  0  0  0  0  0  0  0  0  0  0
   57.0119   30.6201   46.0123 H   0  0  0  0  0  0  0  0  0  0  0  0
   58.0120   35.2550   47.0960 H   0  0  0  0  0  0  0  0  0  0  0  0
   60.3456   35.6015   47.4495 H   0  0  0  0  0  0  0  0  0  0  0  0
   59.8226   34.2417   48.5142 H   0  0  0  0  0  0  0  0  0  0  0  0
   62.2880   31.0710   49.3540 H   0  0  0  0  0  0  0  0  0  0  0  0
   62.0595   30.7063   46.0632 H   0  0  0  0  0  0  0  0  0  0  0  0
   60.6041   29.1834   44.7299 H   0  0  0  0  0  0  0  0  0  0  0  0
   58.5582   28.1900   45.7587 H   0  0  0  0  0  0  0  0  0  0  0  0
   57.9767   28.7027   48.1264 H   0  0  0  0  0  0  0  0  0  0  0  0
   59.1648   28.2144   50.3633 H   0  0  0  0  0  0  0  0  0  0  0  0
   60.5503   29.0895   51.1160 H   0  0  0  0  0  0  0  0  0  0  0  0
   58.4135   28.5239   52.5688 H   0  0  0  0  0  0  0  0  0  0  0  0
   59.1956   30.1336   52.7186 H   0  0  0  0  0  0  0  0  0  0  0  0
   56.7788   31.8351   50.8078 H   0  0  0  0  0  0  0  0  0  0  0  0
   58.0060   31.9691   52.1539 H   0  0  0  0  0  0  0  0  0  0  0  0
   58.4641   32.0742   49.3295 H   0  0  0  0  0  0  0  0  0  0  0  0
   59.6626   32.1197   50.6870 H   0  0  0  0  0  0  0  0  0  0  0  0
  1  2  2  0
  2  3  1  0
  3  4  2  0
  4  5  1  0
  5  6  2  0
  6  7  1  0
  7  8  2  0
  8  9  1  0
  9 10  2  0
  9 11  1  0
 11 12  1  0
 12 13  1  0
 13 14  1  0
 14 15  2  0
 14 16  1  0
 16 17  1  0
 17 18  2  0
 18 19  1  0
 19 20  2  0
 20 21  1  0
 21 22  2  0
 22 23  1  0
 23 24  1  0
 24 25  1  0
 25 26  1  0
 26 27  1  0
 27 28  1  0
 11  2  1  0
 22 17  1  0
 28 23  1  0
  8  3  1  0
  4 29  1  0
  5 30  1  0
  6 31  1  0
  7 32  1  0
 11 33  1  0
 12 34  1  0
 12 35  1  0
 16 36  1  0
 18 37  1  0
 19 38  1  0
 20 39  1  0
 21 40  1  0
 24 41  1  0
 24 42  1  0
 25 43  1  0
 25 44  1  0
 27 45  1  0
 27 46  1  0
 28 47  1  0
 28 48  1  0
M  CHG  1  11   1
M  END
>  <UniqueID>  (68) 
63

>  <SMILES>  (68) 
O=C1c2ccccc2C(=O)[NH+]1CSC(=S)Nc1ccccc1N1CCOCC1

>  <Energy>  (68) 
90.45168489526823

>  <Genealogy>  (68) 
O=C1c2ccccc2C(=O)[NH+]1CSC(=S)Nc1ccccc1N1CCOCC1 (protonated)
O=C1c2ccccc2C(=O)[NH+]1CSC(=S)Nc1ccccc1N1CCOCC1 (3D coordinates assigned)
O=C1c2ccccc2C(=O)[NH+]1CSC(=S)Nc1ccccc1N1CCOCC1 (nonaromatic ring conformer: 90.45168489526823 kcal/mol)

>  <smiles>  (68) 
O=C1c2ccccc2C(=O)N1CSC(=S)Nc1ccccc1N1CCOCC1

>  <score_type>  (68) 
oracle

>  <origin>  (68) 
adg

>  <m_score__min__energy>  (68) 
-7.6399999999999997

>  <m_primary>  (68) 
energy

$$$$
68:0
     RDKit          3D

 63 66  0  0  0  0  0  0  0  0999 V2000
   55.2210   25.2100   45.7160 C   0  0  0  0  0  0  0  0  0  0  0  0
   55.4010   26.5960   45.9960 O   0  0  0  0  0  0  0  0  0  0  0  0
   56.6340   27.2640   45.9380 C   0  0  0  0  0  0  0  0  0  0  0  0
   56.7010   28.4710   45.2380 C   0  0  0  0  0  0  0  0  0  0  0  0
   57.8980   29.1830   45.1640 C   0  0  0  0  0  0  0  0  0  0  0  0
   59.0470   28.7100   45.8100 C   0  0  0  0  0  0  0  0  0  0  0  0
   60.2420   29.4980   45.7340 N   0  0  0  0  0  0  0  0  0  0  0  0
   60.7410   30.3490   46.7700 C   0  0  0  0  0  0  0  0  0  0  0  0
   61.9570   30.6760   46.7870 O   0  0  0  0  0  0  0  0  0  0  0  0
   59.8290   30.7900   47.8430 C   0  0  0  0  0  0  0  0  0  0  0  0
   59.6770   30.1160   49.0420 C   0  0  0  0  0  0  0  0  0  0  0  0
   58.8160   30.8770   49.7990 C   0  0  0  0  0  0  0  0  0  0  0  0
   58.3720   30.5700   51.4690 S   0  0  0  0  0  0  0  0  0  0  0  0
   56.8850   30.3560   51.5590 O   0  0  0  0  0  0  0  0  0  0  0  0
   59.0720   29.3240   51.9360 O   0  0  0  0  0  0  0  0  0  0  0  0
   58.8480   31.9270   52.4570 N   0  0  0  0  0  0  0  0  0  0  0  0
   60.2350   32.3080   52.1510 C   0  0  0  0  0  0  0  0  0  0  0  0
   60.6580   33.5010   53.0360 C   0  0  0  0  0  0  0  0  0  0  0  0
   59.5620   34.0870   53.7170 O   0  0  0  0  0  0  0  0  0  0  0  0
   58.5220   34.3670   52.8010 C   0  0  0  0  0  0  0  0  0  0  0  0
   57.9390   33.0640   52.2220 C   0  0  0  0  0  0  0  0  0  0  0  0
   58.4820   31.9880   49.0590 C   0  0  0  0  0  0  0  0  0  0  0  0
   59.0940   31.9350   47.8580 N   0  0  0  0  0  0  0  0  0  0  0  0
   59.0870   33.0420   46.8940 C   0  0  0  0  0  0  0  0  0  0  0  0
   59.8970   34.2390   47.4130 C   0  0  0  0  0  0  0  0  0  0  0  0
   61.3040   33.8500   47.7870 C   0  0  0  0  0  0  0  0  0  0  0  0
   62.2920   33.7110   46.7960 C   0  0  0  0  0  0  0  0  0  0  0  0
   63.6100   33.4080   47.1520 C   0  0  0  0  0  0  0  0  0  0  0  0
   63.9500   33.2380   48.4970 C   0  0  0  0  0  0  0  0  0  0  0  0
   62.9740   33.3750   49.4880 C   0  0  0  0  0  0  0  0  0  0  0  0
   61.6560   33.6810   49.1360 C   0  0  0  0  0  0  0  0  0  0  0  0
   59.0140   27.4680   46.4780 C   0  0  0  0  0  0  0  0  0  0  0  0
   60.2000   26.9560   47.0240 O   0  0  0  0  0  0  0  0  0  0  0  0
   60.5450   27.0090   48.4050 C   0  0  0  0  0  0  0  0  0  0  0  0
   57.7970   26.7590   46.5510 C   0  0  0  0  0  0  0  0  0  0  0  0
   55.1485   24.6515   46.6609 H   0  0  0  0  0  0  0  0  0  0  0  0
   54.2972   25.0702   45.1355 H   0  0  0  0  0  0  0  0  0  0  0  0
   56.0785   24.8388   45.1355 H   0  0  0  0  0  0  0  0  0  0  0  0
   55.8017   28.8634   44.7407 H   0  0  0  0  0  0  0  0  0  0  0  0
   57.9399   30.1229   44.5941 H   0  0  0  0  0  0  0  0  0  0  0  0
   60.1486   29.1652   49.3312 H   0  0  0  0  0  0  0  0  0  0  0  0
   60.8999   31.4540   52.3473 H   0  0  0  0  0  0  0  0  0  0  0  0
   60.3065   32.5982   51.0924 H   0  0  0  0  0  0  0  0  0  0  0  0
   61.3872   33.1474   53.7798 H   0  0  0  0  0  0  0  0  0  0  0  0
   61.0914   34.2683   52.3777 H   0  0  0  0  0  0  0  0  0  0  0  0
   57.7246   34.9204   53.3186 H   0  0  0  0  0  0  0  0  0  0  0  0
   58.9309   34.9682   51.9756 H   0  0  0  0  0  0  0  0  0  0  0  0
   56.9723   32.8571   52.7044 H   0  0  0  0  0  0  0  0  0  0  0  0
   57.8096   33.1902   51.1370 H   0  0  0  0  0  0  0  0  0  0  0  0
   57.8168   32.7968   49.3957 H   0  0  0  0  0  0  0  0  0  0  0  0
   59.5266   32.6954   45.9471 H   0  0  0  0  0  0  0  0  0  0  0  0
   58.0464   33.3656   46.7445 H   0  0  0  0  0  0  0  0  0  0  0  0
   59.9382   35.0074   46.6269 H   0  0  0  0  0  0  0  0  0  0  0  0
   59.3986   34.6199   48.3166 H   0  0  0  0  0  0  0  0  0  0  0  0
   62.0270   33.8411   45.7364 H   0  0  0  0  0  0  0  0  0  0  0  0
   64.3796   33.3034   46.3730 H   0  0  0  0  0  0  0  0  0  0  0  0
   64.9863   32.9963   48.7757 H   0  0  0  0  0  0  0  0  0  0  0  0
   63.2432   33.2419   50.5462 H   0  0  0  0  0  0  0  0  0  0  0  0
   60.8913   33.7899   49.9192 H   0  0  0  0  0  0  0  0  0  0  0  0
   59.6400   26.8700   49.0146 H   0  0  0  0  0  0  0  0  0  0  0  0
   61.2671   26.2113   48.6334 H   0  0  0  0  0  0  0  0  0  0  0  0
   60.9943   27.9867   48.6334 H   0  0  0  0  0  0  0  0  0  0  0  0
   57.7558   25.8022   47.0921 H   0  0  0  0  0  0  0  0  0  0  0  0
  1  2  1  0
  2  3  1  0
  3  4  2  0
  4  5  1  0
  5  6  2  0
  6  7  1  0
  7  8  1  0
  8  9  2  0
  8 10  1  0
 10 11  2  0
 11 12  1  0
 12 13  1  0
 13 14  2  0
 13 15  2  0
 13 16  1  0
 16 17  1  0
 17 18  1  0
 18 19  1  0
 19 20  1  0
 20 21  1  0
 12 22  2  0
 22 23  1  0
 23 24  1  0
 24 25  1  0
 25 26  1  0
 26 27  2  0
 27 28  1  0
 28 29  2  0
 29 30  1  0
 30 31  2  0
  6 32  1  0
 32 33  1  0
 33 34  1  0
 32 35  2  0
 35  3  1  0
 23 10  1  0
 31 26  1  0
 21 16  1  0
  1 36  1  0
  1 37  1  0
  1 38  1  0
  4 39  1  0
  5 40  1  0
 11 41  1  0
 17 42  1  0
 17 43  1  0
 18 44  1  0
 18 45  1  0
 20 46  1  0
 20 47  1  0
 21 48  1  0
 21 49  1  0
 22 50  1  0
 24 51  1  0
 24 52  1  0
 25 53  1  0
 25 54  1  0
 27 55  1  0
 28 56  1  0
 29 57  1  0
 30 58  1  0
 31 59  1  0
 34 60  1  0
 34 61  1  0
 34 62  1  0
 35 63  1  0
M  CHG  1   7  -1
M  END
>  <UniqueID>  (69) 
64

>  <SMILES>  (69) 
COc1ccc([N-]C(=O)c2cc(S(=O)(=O)N3CCOCC3)cn2CCc2ccccc2)c(OC)c1

>  <Energy>  (69) 
98.18648805494131

>  <Genealogy>  (69) 
COc1ccc([N-]C(=O)c2cc(S(=O)(=O)N3CCOCC3)cn2CCc2ccccc2)c(OC)c1 (protonated)
COc1ccc([N-]C(=O)c2cc(S(=O)(=O)N3CCOCC3)cn2CCc2ccccc2)c(OC)c1 (3D coordinates assigned)
COc1ccc([N-]C(=O)c2cc(S(=O)(=O)N3CCOCC3)cn2CCc2ccccc2)c(OC)c1 (nonaromatic ring conformer: 98.18648805494131 kcal/mol)

>  <smiles>  (69) 
COc1ccc(NC(=O)c2cc(S(=O)(=O)N3CCOCC3)cn2CCc2ccccc2)c(OC)c1

>  <score_type>  (69) 
oracle

>  <origin>  (69) 
adg

>  <m_score__min__energy>  (69) 
-10.99

>  <m_primary>  (69) 
energy

$$$$
69:0
     RDKit          3D

 35 38  0  0  0  0  0  0  0  0999 V2000
   57.0350   28.9330   43.0020 N   0  0  0  0  0  0  0  0  0  0  0  0
   56.8100   29.5660   44.5950 S   0  0  0  0  0  0  0  0  0  0  0  0
   55.3460   29.7010   44.8760 O   0  0  0  0  0  0  0  0  0  0  0  0
   57.4470   28.5760   45.5410 O   0  0  0  0  0  0  0  0  0  0  0  0
   57.6260   31.1180   44.7610 C   0  0  0  0  0  0  0  0  0  0  0  0
   57.4020   32.0590   43.7830 C   0  0  0  0  0  0  0  0  0  0  0  0
   58.0390   33.2870   43.9030 C   0  0  0  0  0  0  0  0  0  0  0  0
   58.8690   33.5480   44.9700 C   0  0  0  0  0  0  0  0  0  0  0  0
   59.1090   32.6040   45.9750 C   0  0  0  0  0  0  0  0  0  0  0  0
   59.9920   32.9080   47.0910 C   0  0  0  0  0  0  0  0  0  0  0  0
   59.4580   33.4260   48.2090 N   0  0  0  0  0  0  0  0  0  0  0  0
   60.1780   33.7410   49.2920 C   0  0  0  0  0  0  0  0  0  0  0  0
   59.7020   34.2240   50.3450 O   0  0  0  0  0  0  0  0  0  0  0  0
   61.5500   33.5280   49.2770 C   0  0  0  0  0  0  0  0  0  0  0  0
   62.3180   33.8420   50.3770 C   0  0  0  0  0  0  0  0  0  0  0  0
   63.6840   33.6050   50.2960 C   0  0  0  0  0  0  0  0  0  0  0  0
   64.2310   33.0710   49.1400 C   0  0  0  0  0  0  0  0  0  0  0  0
   63.4580   32.7570   48.0410 C   0  0  0  0  0  0  0  0  0  0  0  0
   62.0970   32.9970   48.1290 C   0  0  0  0  0  0  0  0  0  0  0  0
   61.3200   32.7000   47.0710 N   0  0  0  0  0  0  0  0  0  0  0  0
   65.5870   32.9670   49.3980 O   0  0  0  0  0  0  0  0  0  0  0  0
   65.9360   33.4470   50.6610 C   0  0  0  0  0  0  0  0  0  0  0  0
   64.6940   33.8140   51.2210 O   0  0  0  0  0  0  0  0  0  0  0  0
   58.4600   31.3980   45.8220 C   0  0  0  0  0  0  0  0  0  0  0  0
   56.9470   27.8950   43.0510 H   0  0  0  0  0  0  0  0  0  0  0  0
   58.0130   29.1610   42.6750 H   0  0  0  0  0  0  0  0  0  0  0  0
   56.7386   31.8453   42.9320 H   0  0  0  0  0  0  0  0  0  0  0  0
   57.8787   34.0600   43.1369 H   0  0  0  0  0  0  0  0  0  0  0  0
   59.3595   34.5305   45.0347 H   0  0  0  0  0  0  0  0  0  0  0  0
   61.8657   34.2650   51.2861 H   0  0  0  0  0  0  0  0  0  0  0  0
   63.9055   32.3325   47.1302 H   0  0  0  0  0  0  0  0  0  0  0  0
   61.7670   32.3010   46.2230 H   0  0  0  0  0  0  0  0  0  0  0  0
   66.4227   32.6633   51.2602 H   0  0  0  0  0  0  0  0  0  0  0  0
   66.6547   34.2789   50.6228 H   0  0  0  0  0  0  0  0  0  0  0  0
   58.6152   30.6204   46.5843 H   0  0  0  0  0  0  0  0  0  0  0  0
  1  2  1  0
  2  3  2  0
  2  4  2  0
  2  5  1  0
  5  6  2  0
  6  7  1  0
  7  8  2  0
  8  9  1  0
  9 10  1  0
 10 11  2  0
 11 12  1  0
 12 13  2  0
 12 14  1  0
 14 15  2  0
 15 16  1  0
 16 17  2  0
 17 18  1  0
 18 19  2  0
 19 20  1  0
 17 21  1  0
 21 22  1  0
 22 23  1  0
  9 24  2  0
 24  5  1  0
 20 10  1  0
 19 14  1  0
 23 16  1  0
  1 25  1  0
  1 26  1  0
  6 27  1  0
  7 28  1  0
  8 29  1  0
 15 30  1  0
 18 31  1  0
 20 32  1  0
 22 33  1  0
 22 34  1  0
 24 35  1  0
M  END
>  <smiles>  (70) 
NS(=O)(=O)c1cccc(-c2nc(=O)c3cc4c(cc3[nH]2)OCO4)c1

>  <score_type>  (70) 
oracle

>  <origin>  (70) 
adg

>  <m_score__min__energy>  (70) 
-8.3900000000000006

>  <m_primary>  (70) 
energy

$$$$
70:0
     RDKit          3D

 50 52  0  0  0  0  0  0  0  0999 V2000
   58.4050   22.5120   45.3310 O   0  0  0  0  0  0  0  0  0  0  0  0
   58.3670   23.7450   45.0700 C   0  0  0  0  0  0  0  0  0  0  0  0
   57.2670   24.2940   44.2160 C   0  0  0  0  0  0  0  0  0  0  0  0
   56.6540   23.2210   43.3140 C   0  0  0  0  0  0  0  0  0  0  0  0
   55.2120   23.1330   43.5310 N   0  0  0  0  0  0  0  0  0  0  0  0
   54.5700   23.0350   44.8110 C   0  0  0  0  0  0  0  0  0  0  0  0
   53.3510   23.3380   44.8990 O   0  0  0  0  0  0  0  0  0  0  0  0
   55.3010   22.6540   46.0420 C   0  0  0  0  0  0  0  0  0  0  0  0
   55.8240   21.3610   46.2070 C   0  0  0  0  0  0  0  0  0  0  0  0
   56.5210   21.0260   47.3740 C   0  0  0  0  0  0  0  0  0  0  0  0
   56.6830   21.9700   48.3930 C   0  0  0  0  0  0  0  0  0  0  0  0
   57.3660   21.6290   49.5570 O   0  0  0  0  0  0  0  0  0  0  0  0
   56.1450   23.2520   48.2450 C   0  0  0  0  0  0  0  0  0  0  0  0
   55.4480   23.5900   47.0790 C   0  0  0  0  0  0  0  0  0  0  0  0
   59.3700   24.6300   45.5770 N   0  0  0  0  0  0  0  0  0  0  0  0
   59.0710   25.8290   46.7910 S   0  0  0  0  0  0  0  0  0  0  0  0
   58.0720   25.3180   47.7880 O   0  0  0  0  0  0  0  0  0  0  0  0
   60.3650   26.1110   47.4950 O   0  0  0  0  0  0  0  0  0  0  0  0
   58.4730   27.3030   46.0370 C   0  0  0  0  0  0  0  0  0  0  0  0
   57.1010   27.4650   45.8050 C   0  0  0  0  0  0  0  0  0  0  0  0
   56.6250   28.6170   45.1750 C   0  0  0  0  0  0  0  0  0  0  0  0
   57.5130   29.6330   44.7790 C   0  0  0  0  0  0  0  0  0  0  0  0
   57.0020   30.8460   44.1000 C   0  0  0  0  0  0  0  0  0  0  0  0
   56.7790   30.8200   42.8570 O   0  0  0  0  0  0  0  0  0  0  0  0
   56.7090   32.0280   44.8560 N   0  0  0  0  0  0  0  0  0  0  0  0
   57.6860   32.9570   45.3480 C   0  0  0  0  0  0  0  0  0  0  0  0
   58.2350   33.9550   44.5210 C   0  0  0  0  0  0  0  0  0  0  0  0
   59.2060   34.8290   45.0210 C   0  0  0  0  0  0  0  0  0  0  0  0
   59.6350   34.7140   46.3470 C   0  0  0  0  0  0  0  0  0  0  0  0
   59.1110   33.7070   47.1680 C   0  0  0  0  0  0  0  0  0  0  0  0
   59.6580   33.5500   48.8330 Cl  0  0  0  0  0  0  0  0  0  0  0  0
   58.1440   32.8270   46.6670 C   0  0  0  0  0  0  0  0  0  0  0  0
   58.8880   29.4760   45.0290 C   0  0  0  0  0  0  0  0  0  0  0  0
   59.3640   28.3190   45.6530 C   0  0  0  0  0  0  0  0  0  0  0  0
   56.4806   24.7019   44.8681 H   0  0  0  0  0  0  0  0  0  0  0  0
   57.6943   25.0767   43.5720 H   0  0  0  0  0  0  0  0  0  0  0  0
   56.8467   23.4789   42.2622 H   0  0  0  0  0  0  0  0  0  0  0  0
   57.1101   22.2497   43.5559 H   0  0  0  0  0  0  0  0  0  0  0  0
   55.6855   20.6088   45.4164 H   0  0  0  0  0  0  0  0  0  0  0  0
   56.9427   20.0167   47.4898 H   0  0  0  0  0  0  0  0  0  0  0  0
   56.2696   23.9959   49.0457 H   0  0  0  0  0  0  0  0  0  0  0  0
   55.0127   24.5948   46.9742 H   0  0  0  0  0  0  0  0  0  0  0  0
   56.3958   26.6818   46.1203 H   0  0  0  0  0  0  0  0  0  0  0  0
   55.5471   28.7305   44.9871 H   0  0  0  0  0  0  0  0  0  0  0  0
   57.8992   34.0480   43.4776 H   0  0  0  0  0  0  0  0  0  0  0  0
   59.6323   35.6071   44.3708 H   0  0  0  0  0  0  0  0  0  0  0  0
   60.3839   35.4143   46.7454 H   0  0  0  0  0  0  0  0  0  0  0  0
   57.7420   32.0306   47.3106 H   0  0  0  0  0  0  0  0  0  0  0  0
   59.5922   30.2672   44.7322 H   0  0  0  0  0  0  0  0  0  0  0  0
   60.4411   28.2037   45.8442 H   0  0  0  0  0  0  0  0  0  0  0  0
  1  2  2  0
  2  3  1  0
  3  4  1  0
  4  5  1  0
  5  6  1  0
  6  7  2  0
  6  8  1  0
  8  9  2  0
  9 10  1  0
 10 11  2  0
 11 12  1  0
 11 13  1  0
 13 14  2  0
  2 15  1  0
 15 16  1  0
 16 17  2  0
 16 18  2  0
 16 19  1  0
 19 20  2  0
 20 21  1  0
 21 22  2  0
 22 23  1  0
 23 24  2  0
 23 25  1  0
 25 26  1  0
 26 27  2  0
 27 28  1  0
 28 29  2  0
 29 30  1  0
 30 31  1  0
 30 32  2  0
 22 33  1  0
 33 34  2  0
 14  8  1  0
 34 19  1  0
 32 26  1  0
  3 35  1  0
  3 36  1  0
  4 37  1  0
  4 38  1  0
  9 39  1  0
 10 40  1  0
 13 41  1  0
 14 42  1  0
 20 43  1  0
 21 44  1  0
 27 45  1  0
 28 46  1  0
 29 47  1  0
 32 48  1  0
 33 49  1  0
 34 50  1  0
M  CHG  4   5  -1  12  -1  15  -1  25  -1
M  END
>  <UniqueID>  (71) 
65

>  <SMILES>  (71) 
O=C(CC[N-]C(=O)c1ccc([O-])cc1)[N-]S(=O)(=O)c1ccc(C(=O)[N-]c2cccc(Cl)c2)cc1

>  <Energy>  (71) 
61.73679920868727

>  <Genealogy>  (71) 
O=C(CC[N-]C(=O)c1ccc([O-])cc1)[N-]S(=O)(=O)c1ccc(C(=O)[N-]c2cccc(Cl)c2)cc1 (protonated)
O=C(CC[N-]C(=O)c1ccc([O-])cc1)[N-]S(=O)(=O)c1ccc(C(=O)[N-]c2cccc(Cl)c2)cc1 (3D coordinates assigned)
O=C(CC[N-]C(=O)c1ccc([O-])cc1)[N-]S(=O)(=O)c1ccc(C(=O)[N-]c2cccc(Cl)c2)cc1 (optimized conformer: 61.73679920868727 kcal/mol)

>  <smiles>  (71) 
O=C(CCNC(=O)c1ccc(O)cc1)NS(=O)(=O)c1ccc(C(=O)Nc2cccc(Cl)c2)cc1

>  <score_type>  (71) 
oracle

>  <origin>  (71) 
adg

>  <m_score__min__energy>  (71) 
-15.369999999999999

>  <m_primary>  (71) 
energy

$$$$
71:0
     RDKit          3D

 51 54  0  0  0  0  0  0  0  0999 V2000
   58.5130   21.9860   44.4630 C   0  0  0  0  0  0  0  0  0  0  0  0
   57.9390   23.2460   45.0300 C   0  0  0  0  0  0  0  0  0  0  0  0
   58.7780   24.1870   45.6510 C   0  0  0  0  0  0  0  0  0  0  0  0
   58.1830   25.3410   46.1550 C   0  0  0  0  0  0  0  0  0  0  0  0
   58.7280   26.4370   46.8020 C   0  0  0  0  0  0  0  0  0  0  0  0
   60.1350   26.6450   47.2100 C   0  0  0  0  0  0  0  0  0  0  0  0
   61.0490   26.0390   46.5890 O   0  0  0  0  0  0  0  0  0  0  0  0
   60.4980   27.5210   48.3480 C   0  0  0  0  0  0  0  0  0  0  0  0
   61.0260   26.9830   49.5350 C   0  0  0  0  0  0  0  0  0  0  0  0
   61.3470   27.8190   50.6060 C   0  0  0  0  0  0  0  0  0  0  0  0
   61.1370   29.1960   50.5120 C   0  0  0  0  0  0  0  0  0  0  0  0
   60.5940   29.7500   49.3400 C   0  0  0  0  0  0  0  0  0  0  0  0
   60.3520   31.1560   49.2010 N   0  0  0  0  0  0  0  0  0  0  0  0
   60.7820   32.1140   47.8220 S   0  0  0  0  0  0  0  0  0  0  0  0
   61.4480   33.3790   48.2890 O   0  0  0  0  0  0  0  0  0  0  0  0
   61.7510   31.3440   46.9690 O   0  0  0  0  0  0  0  0  0  0  0  0
   59.3430   32.4700   46.8670 C   0  0  0  0  0  0  0  0  0  0  0  0
   58.6810   33.6970   47.0190 C   0  0  0  0  0  0  0  0  0  0  0  0
   57.5190   33.9620   46.2930 C   0  0  0  0  0  0  0  0  0  0  0  0
   57.0190   33.0150   45.3990 C   0  0  0  0  0  0  0  0  0  0  0  0
   57.6880   31.8000   45.2060 C   0  0  0  0  0  0  0  0  0  0  0  0
   57.1360   30.8520   44.2820 N   0  0  0  0  0  0  0  0  0  0  0  0
   56.8300   29.4850   44.5760 C   0  0  0  0  0  0  0  0  0  0  0  0
   55.4840   29.1090   44.8540 N   0  0  0  0  0  0  0  0  0  0  0  0
   57.7290   28.6030   44.5450 O   0  0  0  0  0  0  0  0  0  0  0  0
   58.8430   31.5180   45.9630 C   0  0  0  0  0  0  0  0  0  0  0  0
   59.4460   30.3040   45.8700 F   0  0  0  0  0  0  0  0  0  0  0  0
   60.2760   28.9070   48.2670 C   0  0  0  0  0  0  0  0  0  0  0  0
   57.6540   27.2810   47.0650 C   0  0  0  0  0  0  0  0  0  0  0  0
   56.5030   26.7480   46.6000 N   0  0  0  0  0  0  0  0  0  0  0  0
   56.8330   25.5640   46.0430 C   0  0  0  0  0  0  0  0  0  0  0  0
   56.0010   24.6150   45.4200 C   0  0  0  0  0  0  0  0  0  0  0  0
   54.5400   24.7660   45.2580 C   0  0  0  0  0  0  0  0  0  0  0  0
   53.8270   23.8370   44.7980 O   0  0  0  0  0  0  0  0  0  0  0  0
   53.9310   25.9590   45.6300 O   0  0  0  0  0  0  0  0  0  0  0  0
   56.5940   23.4830   44.9340 N   0  0  0  0  0  0  0  0  0  0  0  0
   58.8166   21.3196   45.2838 H   0  0  0  0  0  0  0  0  0  0  0  0
   57.7549   21.4837   43.8442 H   0  0  0  0  0  0  0  0  0  0  0  0
   59.3895   22.2284   43.8442 H   0  0  0  0  0  0  0  0  0  0  0  0
   59.8618   24.0188   45.7357 H   0  0  0  0  0  0  0  0  0  0  0  0
   61.1869   25.8982   49.6201 H   0  0  0  0  0  0  0  0  0  0  0  0
   61.7672   27.3909   51.5280 H   0  0  0  0  0  0  0  0  0  0  0  0
   61.3973   29.8494   51.3578 H   0  0  0  0  0  0  0  0  0  0  0  0
   59.0788   34.4526   47.7124 H   0  0  0  0  0  0  0  0  0  0  0  0
   56.9958   34.9204   46.4261 H   0  0  0  0  0  0  0  0  0  0  0  0
   56.0936   33.2239   44.8423 H   0  0  0  0  0  0  0  0  0  0  0  0
   55.2410   28.1120   45.0500 H   0  0  0  0  0  0  0  0  0  0  0  0
   54.7270   29.8290   44.8700 H   0  0  0  0  0  0  0  0  0  0  0  0
   59.8470   29.3352   47.3491 H   0  0  0  0  0  0  0  0  0  0  0  0
   57.7313   28.2495   47.5808 H   0  0  0  0  0  0  0  0  0  0  0  0
   55.5630   27.1900   46.6830 H   0  0  0  0  0  0  0  0  0  0  0  0
  1  2  1  0
  2  3  2  0
  3  4  1  0
  4  5  1  0
  5  6  1  0
  6  7  2  0
  6  8  1  0
  8  9  2  0
  9 10  1  0
 10 11  2  0
 11 12  1  0
 12 13  1  0
 13 14  1  0
 14 15  2  0
 14 16  2  0
 14 17  1  0
 17 18  2  0
 18 19  1  0
 19 20  2  0
 20 21  1  0
 21 22  1  0
 22 23  1  0
 23 24  1  0
 23 25  2  0
 21 26  2  0
 26 27  1  0
 12 28  2  0
  5 29  2  0
 29 30  1  0
 30 31  1  0
 31 32  1  0
 32 33  1  0
 33 34  2  0
 33 35  1  0
 32 36  2  0
 36  2  1  0
 31  4  2  0
 28  8  1  0
 26 17  1  0
  1 37  1  0
  1 38  1  0
  1 39  1  0
  3 40  1  0
  9 41  1  0
 10 42  1  0
 11 43  1  0
 18 44  1  0
 19 45  1  0
 20 46  1  0
 24 47  1  0
 24 48  1  0
 28 49  1  0
 29 50  1  0
 30 51  1  0
M  CHG  3  13  -1  22  -1  35  -1
M  END
>  <UniqueID>  (72) 
66

>  <SMILES>  (72) 
Cc1cc2c(C(=O)c3cccc([N-]S(=O)(=O)c4cccc([N-]C(N)=O)c4F)c3)c[nH]c2c(C(=O)[O-])n1

>  <Energy>  (72) 
102.55165127062918

>  <Genealogy>  (72) 
Cc1cc2c(C(=O)c3cccc([N-]S(=O)(=O)c4cccc([N-]C(N)=O)c4F)c3)c[nH]c2c(C(=O)[O-])n1 (protonated)
Cc1cc2c(C(=O)c3cccc([N-]S(=O)(=O)c4cccc([N-]C(N)=O)c4F)c3)c[nH]c2c(C(=O)[O-])n1 (3D coordinates assigned)
Cc1cc2c(C(=O)c3cccc([N-]S(=O)(=O)c4cccc([N-]C(N)=O)c4F)c3)c[nH]c2c(C(=O)[O-])n1 (optimized conformer: 102.55165127062918 kcal/mol)

>  <smiles>  (72) 
Cc1cc2c(C(=O)c3cccc(NS(=O)(=O)c4cccc(NC(N)=O)c4F)c3)c[nH]c2c(C(=O)O)n1

>  <score_type>  (72) 
oracle

>  <origin>  (72) 
adg

>  <m_score__min__energy>  (72) 
-15.19

>  <m_primary>  (72) 
energy

$$$$
72:0
     RDKit          3D

 47 50  0  0  1  0  0  0  0  0999 V2000
   59.2690   34.2270   44.1980 C   0  0  0  0  0  0  0  0  0  0  0  0
   59.1400   33.8620   45.6040 N   0  0  0  0  0  0  0  0  0  0  0  0
   59.7200   34.7410   46.5930 C   0  0  0  0  0  0  0  0  0  0  0  0
   60.7590   34.0150   47.3520 C   0  0  0  0  0  0  0  0  0  0  0  0
   61.9000   33.4910   46.7890 C   0  0  0  0  0  0  0  0  0  0  0  0
   62.8690   32.8150   47.5080 C   0  0  0  0  0  0  0  0  0  0  0  0
   62.7040   32.6430   48.8670 C   0  0  0  0  0  0  0  0  0  0  0  0
   61.5620   33.1640   49.4460 C   0  0  0  0  0  0  0  0  0  0  0  0
   60.6050   33.8360   48.7160 C   0  0  0  0  0  0  0  0  0  0  0  0
   58.4660   32.6840   46.0000 C   0  0  0  0  0  0  0  0  0  0  0  0
   57.3770   32.7540   46.6130 O   0  0  0  0  0  0  0  0  0  0  0  0
   59.0020   31.3300   45.7190 C   0  0  1  0  0  0  0  0  0  0  0  0
   59.2570   30.6840   47.0350 C   0  0  0  0  0  0  0  0  0  0  0  0
   60.0320   29.5730   47.1720 N   0  0  0  0  0  0  0  0  0  0  0  0
   60.1010   29.1940   48.4550 C   0  0  0  0  0  0  0  0  0  0  0  0
   60.7590   28.1420   49.0550 C   0  0  0  0  0  0  0  0  0  0  0  0
   60.6560   27.9900   50.4090 C   0  0  0  0  0  0  0  0  0  0  0  0
   59.9030   28.8790   51.1410 C   0  0  0  0  0  0  0  0  0  0  0  0
   59.2500   29.9280   50.5200 C   0  0  0  0  0  0  0  0  0  0  0  0
   59.3350   30.1090   49.1560 C   0  0  0  0  0  0  0  0  0  0  0  0
   58.8500   30.9830   48.2560 N   0  0  0  0  0  0  0  0  0  0  0  0
   57.9820   30.4430   45.0570 C   0  0  0  0  0  0  0  0  0  0  0  0
   56.6720   30.6900   44.8810 N   0  0  0  0  0  0  0  0  0  0  0  0
   56.1600   29.6160   44.2540 C   0  0  0  0  0  0  0  0  0  0  0  0
   54.9510   29.5000   43.9260 O   0  0  0  0  0  0  0  0  0  0  0  0
   57.1620   28.7130   44.0470 N   0  0  0  0  0  0  0  0  0  0  0  0
   58.3120   29.2100   44.5420 C   0  0  0  0  0  0  0  0  0  0  0  0
   59.5680   28.6190   44.5410 O   0  0  0  0  0  0  0  0  0  0  0  0
   59.6346   35.2615   44.1198 H   0  0  0  0  0  0  0  0  0  0  0  0
   59.9817   33.5481   43.7068 H   0  0  0  0  0  0  0  0  0  0  0  0
   58.2880   34.1467   43.7068 H   0  0  0  0  0  0  0  0  0  0  0  0
   60.1724   35.6090   46.0911 H   0  0  0  0  0  0  0  0  0  0  0  0
   58.9349   35.0831   47.2834 H   0  0  0  0  0  0  0  0  0  0  0  0
   62.0498   33.6168   45.7065 H   0  0  0  0  0  0  0  0  0  0  0  0
   63.7616   32.4187   47.0018 H   0  0  0  0  0  0  0  0  0  0  0  0
   63.4549   32.1100   49.4687 H   0  0  0  0  0  0  0  0  0  0  0  0
   61.4115   33.0378   50.5283 H   0  0  0  0  0  0  0  0  0  0  0  0
   59.7122   34.2330   49.2212 H   0  0  0  0  0  0  0  0  0  0  0  0
   59.8855   31.4425   45.0734 H   0  0  0  0  0  0  0  0  0  0  0  0
   61.3554   27.4385   48.4555 H   0  0  0  0  0  0  0  0  0  0  0  0
   61.1733   27.1598   50.9121 H   0  0  0  0  0  0  0  0  0  0  0  0
   59.8196   28.7541   52.2307 H   0  0  0  0  0  0  0  0  0  0  0  0
   58.6539   30.6284   51.1234 H   0  0  0  0  0  0  0  0  0  0  0  0
   58.2400   31.7810   48.4990 H   0  0  0  0  0  0  0  0  0  0  0  0
   56.2170   31.5700   45.2010 H   0  0  0  0  0  0  0  0  0  0  0  0
   57.0110   27.7970   43.5750 H   0  0  0  0  0  0  0  0  0  0  0  0
   60.1320   28.7470   45.3810 H   0  0  0  0  0  0  0  0  0  0  0  0
  1  2  1  0
  2  3  1  0
  3  4  1  0
  4  5  2  0
  5  6  1  0
  6  7  2  0
  7  8  1  0
  8  9  2  0
  2 10  1  0
 10 11  2  0
 10 12  1  0
 12 13  1  0
 13 14  2  0
 14 15  1  0
 15 16  2  0
 16 17  1  0
 17 18  2  0
 18 19  1  0
 19 20  2  0
 20 21  1  0
 12 22  1  0
 22 23  1  0
 23 24  1  0
 24 25  2  0
 24 26  1  0
 26 27  1  0
 27 28  1  0
  9  4  1  0
 21 13  1  0
 27 22  2  0
 20 15  1  0
  1 29  1  0
  1 30  1  0
  1 31  1  0
  3 32  1  0
  3 33  1  0
  5 34  1  0
  6 35  1  0
  7 36  1  0
  8 37  1  0
  9 38  1  0
 12 39  1  6
 16 40  1  0
 17 41  1  0
 18 42  1  0
 19 43  1  0
 21 44  1  0
 23 45  1  0
 26 46  1  0
 28 47  1  0
M  END
>  <smiles>  (73) 
CN(Cc1ccccc1)C(=O)C(c1nc2ccccc2[nH]1)c1[nH]c(=O)[nH]c1O

>  <score_type>  (73) 
oracle

>  <origin>  (73) 
adg

>  <m_score__min__energy>  (73) 
-8.9199999999999999

>  <m_primary>  (73) 
energy

$$$$
73:0
     RDKit          3D

 43 44  0  0  0  0  0  0  0  0999 V2000
   54.1490   25.9650   45.6880 N   0  0  0  0  0  0  0  0  0  0  0  0
   54.9880   24.4610   45.5450 S   0  0  0  0  0  0  0  0  0  0  0  0
   53.9980   23.3320   45.5920 O   0  0  0  0  0  0  0  0  0  0  0  0
   55.7220   24.4230   44.2340 O   0  0  0  0  0  0  0  0  0  0  0  0
   56.1490   24.2820   46.8890 C   0  0  0  0  0  0  0  0  0  0  0  0
   57.1350   25.4510   46.9180 C   0  0  0  0  0  0  0  0  0  0  0  0
   57.1550   26.1310   45.6250 N   0  0  0  0  0  0  0  0  0  0  0  0
   58.3640   26.6250   45.0320 C   0  0  0  0  0  0  0  0  0  0  0  0
   59.4800   26.3980   45.5740 O   0  0  0  0  0  0  0  0  0  0  0  0
   58.3030   27.4620   43.7920 C   0  0  0  0  0  0  0  0  0  0  0  0
   57.8740   28.8610   44.1400 C   0  0  0  0  0  0  0  0  0  0  0  0
   58.6550   29.6460   45.0000 C   0  0  0  0  0  0  0  0  0  0  0  0
   58.2340   30.9290   45.3600 C   0  0  0  0  0  0  0  0  0  0  0  0
   57.0320   31.4480   44.8650 C   0  0  0  0  0  0  0  0  0  0  0  0
   56.6250   32.7590   45.2830 N   0  0  0  0  0  0  0  0  0  0  0  0
   57.2960   33.9940   44.9980 C   0  0  0  0  0  0  0  0  0  0  0  0
   56.6520   34.9840   44.5630 O   0  0  0  0  0  0  0  0  0  0  0  0
   58.7210   34.0840   45.0960 N   0  0  0  0  0  0  0  0  0  0  0  0
   59.4880   34.0570   46.3090 C   0  0  0  0  0  0  0  0  0  0  0  0
   60.8720   33.8540   46.2260 C   0  0  0  0  0  0  0  0  0  0  0  0
   61.6550   33.8420   47.3840 C   0  0  0  0  0  0  0  0  0  0  0  0
   61.0630   34.0500   48.6320 C   0  0  0  0  0  0  0  0  0  0  0  0
   59.6880   34.2810   48.7220 C   0  0  0  0  0  0  0  0  0  0  0  0
   58.9000   34.2930   47.5660 C   0  0  0  0  0  0  0  0  0  0  0  0
   56.2300   30.6470   44.0310 C   0  0  0  0  0  0  0  0  0  0  0  0
   56.6510   29.3640   43.6710 C   0  0  0  0  0  0  0  0  0  0  0  0
   54.7680   26.7000   45.2790 H   0  0  0  0  0  0  0  0  0  0  0  0
   55.5971   24.2527   47.8401 H   0  0  0  0  0  0  0  0  0  0  0  0
   56.7139   23.3494   46.7436 H   0  0  0  0  0  0  0  0  0  0  0  0
   56.8295   26.1639   47.6980 H   0  0  0  0  0  0  0  0  0  0  0  0
   58.1418   25.0640   47.1339 H   0  0  0  0  0  0  0  0  0  0  0  0
   56.2530   26.2460   45.1090 H   0  0  0  0  0  0  0  0  0  0  0  0
   59.2973   27.4915   43.3224 H   0  0  0  0  0  0  0  0  0  0  0  0
   57.5752   27.0229   43.0938 H   0  0  0  0  0  0  0  0  0  0  0  0
   59.6031   29.2503   45.3930 H   0  0  0  0  0  0  0  0  0  0  0  0
   58.8522   31.5359   46.0378 H   0  0  0  0  0  0  0  0  0  0  0  0
   61.3449   33.7033   45.2443 H   0  0  0  0  0  0  0  0  0  0  0  0
   62.7389   33.6685   47.3123 H   0  0  0  0  0  0  0  0  0  0  0  0
   61.6789   34.0319   49.5432 H   0  0  0  0  0  0  0  0  0  0  0  0
   59.2239   34.4539   49.7042 H   0  0  0  0  0  0  0  0  0  0  0  0
   57.8198   34.4871   47.6395 H   0  0  0  0  0  0  0  0  0  0  0  0
   55.2683   31.0322   43.6611 H   0  0  0  0  0  0  0  0  0  0  0  0
   56.0200   28.7450   43.0163 H   0  0  0  0  0  0  0  0  0  0  0  0
  1  2  1  0
  2  3  2  0
  2  4  2  0
  2  5  1  0
  5  6  1  0
  6  7  1  0
  7  8  1  0
  8  9  2  0
  8 10  1  0
 10 11  1  0
 11 12  2  0
 12 13  1  0
 13 14  2  0
 14 15  1  0
 15 16  1  0
 16 17  2  0
 16 18  1  0
 18 19  1  0
 19 20  2  0
 20 21  1  0
 21 22  2  0
 22 23  1  0
 23 24  2  0
 14 25  1  0
 25 26  2  0
 26 11  1  0
 24 19  1  0
  1 27  1  0
  5 28  1  0
  5 29  1  0
  6 30  1  0
  6 31  1  0
  7 32  1  0
 10 33  1  0
 10 34  1  0
 12 35  1  0
 13 36  1  0
 20 37  1  0
 21 38  1  0
 22 39  1  0
 23 40  1  0
 24 41  1  0
 25 42  1  0
 26 43  1  0
M  CHG  3   1  -1  15  -1  18  -1
M  END
>  <UniqueID>  (74) 
67

>  <SMILES>  (74) 
[NH-]S(=O)(=O)CCNC(=O)Cc1ccc([N-]C(=O)[N-]c2ccccc2)cc1

>  <Energy>  (74) 
37.70630767382001

>  <Genealogy>  (74) 
[NH-]S(=O)(=O)CCNC(=O)Cc1ccc([N-]C(=O)[N-]c2ccccc2)cc1 (protonated)
[NH-]S(=O)(=O)CCNC(=O)Cc1ccc([N-]C(=O)[N-]c2ccccc2)cc1 (3D coordinates assigned)
[NH-]S(=O)(=O)CCNC(=O)Cc1ccc([N-]C(=O)[N-]c2ccccc2)cc1 (optimized conformer: 37.70630767382001 kcal/mol)

>  <smiles>  (74) 
NS(=O)(=O)CCNC(=O)Cc1ccc(NC(=O)Nc2ccccc2)cc1

>  <score_type>  (74) 
oracle

>  <origin>  (74) 
adg

>  <m_score__min__energy>  (74) 
-12.699999999999999

>  <m_primary>  (74) 
energy

$$$$
74:0
     RDKit          3D

 53 56  0  0  0  0  0  0  0  0999 V2000
   57.7500   27.7900   43.3640 C   0  0  0  0  0  0  0  0  0  0  0  0
   58.6920   27.3680   44.3430 O   0  0  0  0  0  0  0  0  0  0  0  0
   58.8770   28.0770   45.5330 C   0  0  0  0  0  0  0  0  0  0  0  0
   58.9690   27.3720   46.7520 C   0  0  0  0  0  0  0  0  0  0  0  0
   58.8440   25.8690   46.7810 C   0  0  0  0  0  0  0  0  0  0  0  0
   57.4760   25.4320   46.3060 C   0  0  0  0  0  0  0  0  0  0  0  0
   56.3990   26.1430   46.7360 N   0  0  0  0  0  0  0  0  0  0  0  0
   55.1570   25.8480   46.3590 N   0  0  0  0  0  0  0  0  0  0  0  0
   54.8950   24.8220   45.5160 C   0  0  0  0  0  0  0  0  0  0  0  0
   53.7030   24.5830   45.1870 O   0  0  0  0  0  0  0  0  0  0  0  0
   55.9490   24.0340   45.0270 C   0  0  0  0  0  0  0  0  0  0  0  0
   57.2680   24.3090   45.4680 C   0  0  0  0  0  0  0  0  0  0  0  0
   58.4400   23.4680   44.9860 C   0  0  0  0  0  0  0  0  0  0  0  0
   58.0220   22.1400   44.3500 C   0  0  0  0  0  0  0  0  0  0  0  0
   56.8740   22.3560   43.3700 C   0  0  0  0  0  0  0  0  0  0  0  0
   55.6410   22.8610   44.1180 C   0  0  0  0  0  0  0  0  0  0  0  0
   59.1560   28.0820   47.9480 C   0  0  0  0  0  0  0  0  0  0  0  0
   59.2590   29.4720   47.9340 C   0  0  0  0  0  0  0  0  0  0  0  0
   59.1600   30.1720   46.7310 C   0  0  0  0  0  0  0  0  0  0  0  0
   58.9580   29.4870   45.5180 C   0  0  0  0  0  0  0  0  0  0  0  0
   58.7840   30.2030   44.2800 N   0  0  0  0  0  0  0  0  0  0  0  0
   57.7540   31.5860   44.0970 S   0  0  0  0  0  0  0  0  0  0  0  0
   57.5910   31.8990   42.6360 O   0  0  0  0  0  0  0  0  0  0  0  0
   56.4030   31.2820   44.6810 O   0  0  0  0  0  0  0  0  0  0  0  0
   58.4470   32.9580   44.9410 C   0  0  0  0  0  0  0  0  0  0  0  0
   58.9200   34.1160   44.3560 C   0  0  0  0  0  0  0  0  0  0  0  0
   59.3240   34.9300   45.3960 C   0  0  0  0  0  0  0  0  0  0  0  0
   59.1240   34.3010   46.5730 N   0  0  0  0  0  0  0  0  0  0  0  0
   59.3400   34.8700   47.8970 C   0  0  0  0  0  0  0  0  0  0  0  0
   58.5740   33.1010   46.3070 C   0  0  0  0  0  0  0  0  0  0  0  0
   56.8559   28.1905   43.8641 H   0  0  0  0  0  0  0  0  0  0  0  0
   58.2001   28.5725   42.7354 H   0  0  0  0  0  0  0  0  0  0  0  0
   57.4657   26.9332   42.7354 H   0  0  0  0  0  0  0  0  0  0  0  0
   59.6101   25.4311   46.1243 H   0  0  0  0  0  0  0  0  0  0  0  0
   58.9832   25.5246   47.8164 H   0  0  0  0  0  0  0  0  0  0  0  0
   59.0013   24.0494   44.2397 H   0  0  0  0  0  0  0  0  0  0  0  0
   59.0471   23.2246   45.8704 H   0  0  0  0  0  0  0  0  0  0  0  0
   58.8802   21.7096   43.8132 H   0  0  0  0  0  0  0  0  0  0  0  0
   57.6888   21.4546   45.1432 H   0  0  0  0  0  0  0  0  0  0  0  0
   57.1729   23.0989   42.6158 H   0  0  0  0  0  0  0  0  0  0  0  0
   56.6337   21.4024   42.8772 H   0  0  0  0  0  0  0  0  0  0  0  0
   54.8865   23.1749   43.3816 H   0  0  0  0  0  0  0  0  0  0  0  0
   55.2748   22.0381   44.7494 H   0  0  0  0  0  0  0  0  0  0  0  0
   59.2217   27.5384   48.9020 H   0  0  0  0  0  0  0  0  0  0  0  0
   59.4189   30.0191   48.8748 H   0  0  0  0  0  0  0  0  0  0  0  0
   59.2405   31.2690   46.7305 H   0  0  0  0  0  0  0  0  0  0  0  0
   59.3130   29.9010   43.4310 H   0  0  0  0  0  0  0  0  0  0  0  0
   58.9657   34.3437   43.2808 H   0  0  0  0  0  0  0  0  0  0  0  0
   59.7456   35.9396   45.2820 H   0  0  0  0  0  0  0  0  0  0  0  0
   59.0599   34.1322   48.6633 H   0  0  0  0  0  0  0  0  0  0  0  0
   60.4012   35.1349   48.0136 H   0  0  0  0  0  0  0  0  0  0  0  0
   58.7219   35.7724   48.0136 H   0  0  0  0  0  0  0  0  0  0  0  0
   58.2743   32.3551   47.0579 H   0  0  0  0  0  0  0  0  0  0  0  0
  1  2  1  0
  2  3  1  0
  3  4  2  0
  4  5  1  0
  5  6  1  0
  6  7  2  0
  7  8  1  0
  8  9  1  0
  9 10  2  0
  9 11  1  0
 11 12  2  0
 12 13  1  0
 13 14  1  0
 14 15  1  0
 15 16  1  0
  4 17  1  0
 17 18  2  0
 18 19  1  0
 19 20  2  0
 20 21  1  0
 21 22  1  0
 22 23  2  0
 22 24  2  0
 22 25  1  0
 25 26  1  0
 26 27  2  0
 27 28  1  0
 28 29  1  0
 28 30  1  0
 20  3  1  0
 30 25  2  0
 12  6  1  0
 16 11  1  0
  1 31  1  0
  1 32  1  0
  1 33  1  0
  5 34  1  0
  5 35  1  0
 13 36  1  0
 13 37  1  0
 14 38  1  0
 14 39  1  0
 15 40  1  0
 15 41  1  0
 16 42  1  0
 16 43  1  0
 17 44  1  0
 18 45  1  0
 19 46  1  0
 21 47  1  0
 26 48  1  0
 27 49  1  0
 29 50  1  0
 29 51  1  0
 29 52  1  0
 30 53  1  0
M  CHG  1   8  -1
M  END
>  <UniqueID>  (75) 
68

>  <SMILES>  (75) 
COc1c(Cc2n[n-]c(=O)c3c2CCCC3)cccc1NS(=O)(=O)c1ccn(C)c1

>  <Energy>  (75) 
93.57442457535534

>  <Genealogy>  (75) 
COc1c(Cc2n[n-]c(=O)c3c2CCCC3)cccc1NS(=O)(=O)c1ccn(C)c1 (protonated)
COc1c(Cc2n[n-]c(=O)c3c2CCCC3)cccc1NS(=O)(=O)c1ccn(C)c1 (3D coordinates assigned)
COc1c(Cc2n[n-]c(=O)c3c2CCCC3)cccc1NS(=O)(=O)c1ccn(C)c1 (nonaromatic ring conformer: 93.57442457535534 kcal/mol)

>  <smiles>  (75) 
COc1c(Cc2n[nH]c(=O)c3c2CCCC3)cccc1NS(=O)(=O)c1ccn(C)c1

>  <score_type>  (75) 
oracle

>  <origin>  (75) 
adg

>  <m_score__min__energy>  (75) 
-12.4

>  <m_primary>  (75) 
energy

$$$$
75:0
     RDKit          3D

 50 52  0  0  0  0  0  0  0  0999 V2000
   56.2890   29.5780   42.6450 C   0  0  0  0  0  0  0  0  0  0  0  0
   56.5940   29.5910   44.1270 C   0  0  0  0  0  0  0  0  0  0  0  0
   56.2780   30.8530   44.7010 O   0  0  0  0  0  0  0  0  0  0  0  0
   57.0570   31.9990   44.4980 C   0  0  0  0  0  0  0  0  0  0  0  0
   57.7410   32.1640   43.4560 O   0  0  0  0  0  0  0  0  0  0  0  0
   57.0170   33.0050   45.6060 C   0  0  0  0  0  0  0  0  0  0  0  0
   58.3890   33.3020   46.0870 C   0  0  0  0  0  0  0  0  0  0  0  0
   58.8830   34.5830   45.9750 C   0  0  0  0  0  0  0  0  0  0  0  0
   60.1450   34.9320   46.4020 C   0  0  0  0  0  0  0  0  0  0  0  0
   60.9150   33.9370   46.9570 C   0  0  0  0  0  0  0  0  0  0  0  0
   60.4200   32.6560   47.0690 C   0  0  0  0  0  0  0  0  0  0  0  0
   59.1690   32.2720   46.6550 C   0  0  0  0  0  0  0  0  0  0  0  0
   58.6080   31.0550   46.7250 O   0  0  0  0  0  0  0  0  0  0  0  0
   58.8950   29.8640   47.3260 C   0  0  0  0  0  0  0  0  0  0  0  0
   58.9310   28.6790   46.4050 C   0  0  0  0  0  0  0  0  0  0  0  0
   58.9390   27.1060   47.3100 S   0  0  0  0  0  0  0  0  0  0  0  0
   58.1840   25.7890   46.3570 C   0  0  0  0  0  0  0  0  0  0  0  0
   56.8580   25.9580   45.9700 C   0  0  0  0  0  0  0  0  0  0  0  0
   56.2230   24.9660   45.2240 C   0  0  0  0  0  0  0  0  0  0  0  0
   56.9600   23.8310   44.8960 C   0  0  0  0  0  0  0  0  0  0  0  0
   56.3460   22.8760   44.1750 N   0  0  0  0  0  0  0  0  0  0  0  0
   57.0440   21.7800   43.8510 C   0  0  0  0  0  0  0  0  0  0  0  0
   56.4620   20.8480   43.1540 N   0  0  0  0  0  0  0  0  0  0  0  0
   58.3400   21.5940   44.2190 N   0  0  0  0  0  0  0  0  0  0  0  0
   58.9810   22.5470   44.9480 C   0  0  0  0  0  0  0  0  0  0  0  0
   60.1990   22.3090   45.2600 N   0  0  0  0  0  0  0  0  0  0  0  0
   58.2840   23.6810   45.2920 C   0  0  0  0  0  0  0  0  0  0  0  0
   58.9060   24.6530   46.0230 C   0  0  0  0  0  0  0  0  0  0  0  0
   55.2002   29.5316   42.4951 H   0  0  0  0  0  0  0  0  0  0  0  0
   56.6843   30.4938   42.1813 H   0  0  0  0  0  0  0  0  0  0  0  0
   56.7608   28.6991   42.1813 H   0  0  0  0  0  0  0  0  0  0  0  0
   55.9987   28.8107   44.6237 H   0  0  0  0  0  0  0  0  0  0  0  0
   57.6688   29.4022   44.2654 H   0  0  0  0  0  0  0  0  0  0  0  0
   56.5540   33.9321   45.2369 H   0  0  0  0  0  0  0  0  0  0  0  0
   56.4287   32.5936   46.4395 H   0  0  0  0  0  0  0  0  0  0  0  0
   58.2441   35.3581   45.5266 H   0  0  0  0  0  0  0  0  0  0  0  0
   60.5204   35.9612   46.3034 H   0  0  0  0  0  0  0  0  0  0  0  0
   61.9305   34.1647   47.3131 H   0  0  0  0  0  0  0  0  0  0  0  0
   61.0697   31.8913   47.5196 H   0  0  0  0  0  0  0  0  0  0  0  0
   59.8809   29.9530   47.8056 H   0  0  0  0  0  0  0  0  0  0  0  0
   58.0776   29.6747   48.0374 H   0  0  0  0  0  0  0  0  0  0  0  0
   58.0443   28.7089   45.7548 H   0  0  0  0  0  0  0  0  0  0  0  0
   59.8600   28.7356   45.8187 H   0  0  0  0  0  0  0  0  0  0  0  0
   56.3128   26.8709   46.2517 H   0  0  0  0  0  0  0  0  0  0  0  0
   55.1759   25.0761   44.9055 H   0  0  0  0  0  0  0  0  0  0  0  0
   55.3680   23.0030   43.8920 H   0  0  0  0  0  0  0  0  0  0  0  0
   56.8230   19.8660   43.1690 H   0  0  0  0  0  0  0  0  0  0  0  0
   58.8330   20.7130   43.9340 H   0  0  0  0  0  0  0  0  0  0  0  0
   60.9890   22.0890   44.6550 H   0  0  0  0  0  0  0  0  0  0  0  0
   59.9533   24.5376   46.3388 H   0  0  0  0  0  0  0  0  0  0  0  0
  1  2  1  0
  2  3  1  0
  3  4  1  0
  4  5  2  0
  4  6  1  0
  6  7  1  0
  7  8  2  0
  8  9  1  0
  9 10  2  0
 10 11  1  0
 11 12  2  0
 12 13  1  0
 13 14  1  0
 14 15  1  0
 15 16  1  0
 16 17  1  0
 17 18  2  0
 18 19  1  0
 19 20  2  0
 20 21  1  0
 21 22  1  0
 22 23  2  3
 22 24  1  0
 24 25  1  0
 25 26  2  3
 25 27  1  0
 27 28  2  0
 12  7  1  0
 28 17  1  0
 27 20  1  0
  1 29  1  0
  1 30  1  0
  1 31  1  0
  2 32  1  0
  2 33  1  0
  6 34  1  0
  6 35  1  0
  8 36  1  0
  9 37  1  0
 10 38  1  0
 11 39  1  0
 14 40  1  0
 14 41  1  0
 15 42  1  0
 15 43  1  0
 18 44  1  0
 19 45  1  0
 21 46  1  0
 23 47  1  0
 24 48  1  0
 26 49  1  0
 28 50  1  0
M  END
>  <smiles>  (76) 
CCOC(=O)Cc1ccccc1OCCSc1ccc2[nH]c(=N)[nH]c(=N)c2c1

>  <score_type>  (76) 
oracle

>  <origin>  (76) 
adg

>  <m_score__min__energy>  (76) 
-8.9800000000000004

>  <m_primary>  (76) 
energy

$$$$
76:0
     RDKit          3D

 36 37  0  0  0  0  0  0  0  0999 V2000
   55.5870   30.5750   44.4820 O   0  0  0  0  0  0  0  0  0  0  0  0
   56.3800   29.6770   44.8660 C   0  0  0  0  0  0  0  0  0  0  0  0
   57.7560   29.9250   44.9050 C   0  0  0  0  0  0  0  0  0  0  0  0
   58.6330   28.9140   45.3330 C   0  0  0  0  0  0  0  0  0  0  0  0
   60.0550   29.1560   45.3900 N   0  0  0  0  0  0  0  0  0  0  0  0
   60.3820   30.1990   46.3790 C   0  0  0  0  0  0  0  0  0  0  0  0
   59.4890   30.1060   47.6320 C   0  0  0  0  0  0  0  0  0  0  0  0
   59.7140   31.2900   48.5950 C   0  0  0  0  0  0  0  0  0  0  0  0
   58.5860   32.3340   48.5520 C   0  0  0  0  0  0  0  0  0  0  0  0
   58.5620   33.1060   47.2580 C   0  0  0  0  0  0  0  0  0  0  0  0
   57.4380   33.0410   46.4170 C   0  0  0  0  0  0  0  0  0  0  0  0
   57.4030   33.7800   45.2300 C   0  0  0  0  0  0  0  0  0  0  0  0
   58.4880   34.5850   44.8740 C   0  0  0  0  0  0  0  0  0  0  0  0
   59.6110   34.6530   45.7040 C   0  0  0  0  0  0  0  0  0  0  0  0
   59.6460   33.9240   46.8950 C   0  0  0  0  0  0  0  0  0  0  0  0
   58.1000   27.6740   45.7190 C   0  0  0  0  0  0  0  0  0  0  0  0
   56.7190   27.4700   45.6720 C   0  0  0  0  0  0  0  0  0  0  0  0
   55.8970   28.4660   45.2490 N   0  0  0  0  0  0  0  0  0  0  0  0
   58.1496   30.9065   44.6021 H   0  0  0  0  0  0  0  0  0  0  0  0
   60.3780   29.4780   44.4470 H   0  0  0  0  0  0  0  0  0  0  0  0
   60.5740   28.2730   45.6050 H   0  0  0  0  0  0  0  0  0  0  0  0
   61.4330   30.0838   46.6825 H   0  0  0  0  0  0  0  0  0  0  0  0
   60.2087   31.1788   45.9099 H   0  0  0  0  0  0  0  0  0  0  0  0
   58.4352   30.1007   47.3167 H   0  0  0  0  0  0  0  0  0  0  0  0
   59.7508   29.1808   48.1662 H   0  0  0  0  0  0  0  0  0  0  0  0
   59.7868   30.8971   49.6199 H   0  0  0  0  0  0  0  0  0  0  0  0
   60.6376   31.7961   48.2776 H   0  0  0  0  0  0  0  0  0  0  0  0
   57.6224   31.8172   48.6721 H   0  0  0  0  0  0  0  0  0  0  0  0
   58.7645   33.0521   49.3659 H   0  0  0  0  0  0  0  0  0  0  0  0
   56.5828   32.4067   46.6932 H   0  0  0  0  0  0  0  0  0  0  0  0
   56.5201   33.7273   44.5760 H   0  0  0  0  0  0  0  0  0  0  0  0
   58.4587   35.1656   43.9402 H   0  0  0  0  0  0  0  0  0  0  0  0
   60.4678   35.2812   45.4189 H   0  0  0  0  0  0  0  0  0  0  0  0
   60.5259   33.9903   47.5519 H   0  0  0  0  0  0  0  0  0  0  0  0
   58.7667   26.8669   46.0568 H   0  0  0  0  0  0  0  0  0  0  0  0
   56.2962   26.5017   45.9779 H   0  0  0  0  0  0  0  0  0  0  0  0
  1  2  2  0
  2  3  1  0
  3  4  2  0
  4  5  1  0
  5  6  1  0
  6  7  1  0
  7  8  1  0
  8  9  1  0
  9 10  1  0
 10 11  2  0
 11 12  1  0
 12 13  2  0
 13 14  1  0
 14 15  2  0
  4 16  1  0
 16 17  2  0
 17 18  1  0
 18  2  1  0
 15 10  1  0
  3 19  1  0
  5 20  1  0
  5 21  1  0
  6 22  1  0
  6 23  1  0
  7 24  1  0
  7 25  1  0
  8 26  1  0
  8 27  1  0
  9 28  1  0
  9 29  1  0
 11 30  1  0
 12 31  1  0
 13 32  1  0
 14 33  1  0
 15 34  1  0
 16 35  1  0
 17 36  1  0
M  CHG  2   5   1  18  -1
M  END
>  <UniqueID>  (77) 
69

>  <SMILES>  (77) 
O=c1cc([NH2+]CCCCc2ccccc2)cc[n-]1

>  <Energy>  (77) 
31.90045552414012

>  <Genealogy>  (77) 
O=c1cc([NH2+]CCCCc2ccccc2)cc[n-]1 (protonated)
O=c1cc([NH2+]CCCCc2ccccc2)cc[n-]1 (3D coordinates assigned)
O=c1cc([NH2+]CCCCc2ccccc2)cc[n-]1 (optimized conformer: 31.90045552414012 kcal/mol)

>  <smiles>  (77) 
O=c1cc(NCCCCc2ccccc2)cc[nH]1

>  <score_type>  (77) 
oracle

>  <origin>  (77) 
adg

>  <m_score__min__energy>  (77) 
-7.8200000000000003

>  <m_primary>  (77) 
energy

$$$$
77:0
     RDKit          3D

 69 73  0  0  0  0  0  0  0  0999 V2000
   54.4100   29.3610   45.2030 H   0  0  0  0  0  0  0  0  0  0  0  0
   55.1530   28.9930   44.5670 N   0  0  0  0  0  0  0  0  0  0  0  0
   56.0860   29.8760   43.9510 C   0  0  0  0  0  0  0  0  0  0  0  0
   56.1770   29.8960   42.6930 O   0  0  0  0  0  0  0  0  0  0  0  0
   56.9550   30.7470   44.7760 C   0  0  0  0  0  0  0  0  0  0  0  0
   57.6670   30.2140   45.8650 C   0  0  0  0  0  0  0  0  0  0  0  0
   57.6056   29.1375   46.0827 H   0  0  0  0  0  0  0  0  0  0  0  0
   58.4530   31.0420   46.6740 C   0  0  0  0  0  0  0  0  0  0  0  0
   59.0114   30.6107   47.5179 H   0  0  0  0  0  0  0  0  0  0  0  0
   58.5340   32.4240   46.4150 C   0  0  0  0  0  0  0  0  0  0  0  0
   59.2470   33.3120   47.2400 O   0  0  0  0  0  0  0  0  0  0  0  0
   59.7540   33.0110   48.5420 C   0  0  0  0  0  0  0  0  0  0  0  0
   59.4150   33.7849   49.2464 H   0  0  0  0  0  0  0  0  0  0  0  0
   59.3781   32.0214   48.8411 H   0  0  0  0  0  0  0  0  0  0  0  0
   61.2670   32.9690   48.5460 C   0  0  0  0  0  0  0  0  0  0  0  0
   61.9640   34.0760   49.0680 C   0  0  0  0  0  0  0  0  0  0  0  0
   61.4018   34.9104   49.5126 H   0  0  0  0  0  0  0  0  0  0  0  0
   63.3570   34.1290   49.0290 C   0  0  0  0  0  0  0  0  0  0  0  0
   63.8840   35.0103   49.4234 H   0  0  0  0  0  0  0  0  0  0  0  0
   64.0820   33.0690   48.4920 C   0  0  0  0  0  0  0  0  0  0  0  0
   65.1801   33.1187   48.4495 H   0  0  0  0  0  0  0  0  0  0  0  0
   63.4150   31.9440   48.0080 C   0  0  0  0  0  0  0  0  0  0  0  0
   63.9969   31.0998   47.6095 H   0  0  0  0  0  0  0  0  0  0  0  0
   62.0100   31.8710   48.0210 C   0  0  0  0  0  0  0  0  0  0  0  0
   61.3790   30.6250   47.5090 C   0  0  0  0  0  0  0  0  0  0  0  0
   61.5310   30.2770   46.3090 O   0  0  0  0  0  0  0  0  0  0  0  0
   60.5100   29.8530   48.3490 N   0  0  0  0  0  0  0  0  0  0  0  0
   60.8530   29.4010   49.5190 C   0  0  0  0  0  0  0  0  0  0  0  0
   60.2980   28.2920   50.0560 N   0  0  0  0  0  0  0  0  0  0  0  0
   60.8660   27.9820   51.2540 C   0  0  0  0  0  0  0  0  0  0  0  0
   60.5466   27.1181   51.8554 H   0  0  0  0  0  0  0  0  0  0  0  0
   61.8800   28.8410   51.6580 C   0  0  0  0  0  0  0  0  0  0  0  0
   62.9540   28.5910   53.0750 S   0  0  0  0  0  0  0  0  0  0  0  0
   63.7360   30.2410   53.0260 C   0  0  0  0  0  0  0  0  0  0  0  0
   64.4086   30.3386   53.8909 H   0  0  0  0  0  0  0  0  0  0  0  0
   64.2847   30.3231   52.0762 H   0  0  0  0  0  0  0  0  0  0  0  0
   62.7290   31.3560   53.0700 C   0  0  0  0  0  0  0  0  0  0  0  0
   63.0840   32.6500   52.6550 C   0  0  0  0  0  0  0  0  0  0  0  0
   64.1208   32.8658   52.3577 H   0  0  0  0  0  0  0  0  0  0  0  0
   62.1240   33.6630   52.6190 C   0  0  0  0  0  0  0  0  0  0  0  0
   62.4083   34.6749   52.2947 H   0  0  0  0  0  0  0  0  0  0  0  0
   60.8030   33.3980   52.9930 C   0  0  0  0  0  0  0  0  0  0  0  0
   60.0491   34.1976   52.9443 H   0  0  0  0  0  0  0  0  0  0  0  0
   60.4350   32.1170   53.4300 C   0  0  0  0  0  0  0  0  0  0  0  0
   59.0090   31.8100   53.8380 C   0  0  0  0  0  0  0  0  0  0  0  0
   58.9421   30.7362   54.0671 H   0  0  0  0  0  0  0  0  0  0  0  0
   58.7890   32.4525   54.7033 H   0  0  0  0  0  0  0  0  0  0  0  0
   57.9820   32.1290   52.8060 N   0  0  0  0  0  0  0  0  0  0  0  0
   57.8510   33.1670   52.8880 H   0  0  0  0  0  0  0  0  0  0  0  0
   56.6410   31.5390   53.0940 C   0  0  0  0  0  0  0  0  0  0  0  0
   56.6953   30.9907   54.0461 H   0  0  0  0  0  0  0  0  0  0  0  0
   55.9179   32.3666   53.1407 H   0  0  0  0  0  0  0  0  0  0  0  0
   56.1700   30.5760   52.0010 C   0  0  0  0  0  0  0  0  0  0  0  0
   55.3407   29.9633   52.3844 H   0  0  0  0  0  0  0  0  0  0  0  0
   55.8275   31.1510   51.1280 H   0  0  0  0  0  0  0  0  0  0  0  0
   57.2360   29.7390   51.6230 O   0  0  0  0  0  0  0  0  0  0  0  0
   58.2000   30.4730   50.8920 C   0  0  0  0  0  0  0  0  0  0  0  0
   59.1531   29.9255   50.9353 H   0  0  0  0  0  0  0  0  0  0  0  0
   57.8057   30.5735   49.8700 H   0  0  0  0  0  0  0  0  0  0  0  0
   58.4460   31.9150   51.4120 C   0  0  0  0  0  0  0  0  0  0  0  0
   59.5256   32.1213   51.3689 H   0  0  0  0  0  0  0  0  0  0  0  0
   57.8656   32.5939   50.7700 H   0  0  0  0  0  0  0  0  0  0  0  0
   61.4060   31.1000   53.4650 C   0  0  0  0  0  0  0  0  0  0  0  0
   61.1257   30.0924   53.8058 H   0  0  0  0  0  0  0  0  0  0  0  0
   62.0740   30.0320   50.4940 S   0  0  0  0  0  0  0  0  0  0  0  0
   57.8690   32.9440   45.3000 C   0  0  0  0  0  0  0  0  0  0  0  0
   57.9707   34.0113   45.0538 H   0  0  0  0  0  0  0  0  0  0  0  0
   57.0750   32.1190   44.4940 C   0  0  0  0  0  0  0  0  0  0  0  0
   56.5409   32.5479   43.6333 H   0  0  0  0  0  0  0  0  0  0  0  0
  1  2  1  0
  2  3  1  0
  3  4  2  0
  3  5  1  0
  5  6  2  0
  6  7  1  0
  6  8  1  0
  8  9  1  0
  8 10  2  0
 10 11  1  0
 11 12  1  0
 12 13  1  0
 12 14  1  0
 12 15  1  0
 15 16  2  0
 16 17  1  0
 16 18  1  0
 18 19  1  0
 18 20  2  0
 20 21  1  0
 20 22  1  0
 22 23  1  0
 22 24  2  0
 24 25  1  0
 25 26  2  0
 25 27  1  0
 27 28  2  0
 28 29  1  0
 29 30  1  0
 30 31  1  0
 30 32  2  0
 32 33  1  0
 33 34  1  0
 34 35  1  0
 34 36  1  0
 34 37  1  0
 37 38  2  0
 38 39  1  0
 38 40  1  0
 40 41  1  0
 40 42  2  0
 42 43  1  0
 42 44  1  0
 44 45  1  0
 45 46  1  0
 45 47  1  0
 45 48  1  0
 48 49  1  0
 48 50  1  0
 50 51  1  0
 50 52  1  0
 50 53  1  0
 53 54  1  0
 53 55  1  0
 53 56  1  0
 56 57  1  0
 57 58  1  0
 57 59  1  0
 57 60  1  0
 60 61  1  0
 60 62  1  0
 44 63  2  0
 63 64  1  0
 32 65  1  0
 10 66  1  0
 66 67  1  0
 66 68  2  0
 68 69  1  0
 68  5  1  0
 24 15  1  0
 65 28  1  0
 63 37  1  0
 60 48  1  0
M  CHG  3   2  -1  29  -1  48   1
M  END
>  <UniqueID>  (78) 
70

>  <SMILES>  (78) 
[NH-]C(=O)c1ccc(OCc2ccccc2C(=O)/N=c2/[n-]cc(SCc3cccc(C[NH+]4CCOCC4)c3)s2)cc1

>  <Energy>  (78) 
125.8935080881339

>  <Genealogy>  (78) 
[NH-]C(=O)c1ccc(OCc2ccccc2C(=O)N=c2[n-]cc(SCc3cccc(C[NH+]4CCOCC4)c3)s2)cc1 (protonated)
[NH-]C(=O)c1ccc(OCc2ccccc2C(=O)/N=c2/[n-]cc(SCc3cccc(C[NH+]4CCOCC4)c3)s2)cc1 (cis-trans isomerization)
[NH-]C(=O)c1ccc(OCc2ccccc2C(=O)/N=c2/[n-]cc(SCc3cccc(C[NH+]4CCOCC4)c3)s2)cc1 (3D coordinates assigned)
[NH-]C(=O)c1ccc(OCc2ccccc2C(=O)/N=c2/[n-]cc(SCc3cccc(C[NH+]4CCOCC4)c3)s2)cc1 (nonaromatic ring conformer: 125.8935080881339 kcal/mol)

>  <smiles>  (78) 
NC(=O)c1ccc(OCc2ccccc2C(=O)N=c2[nH]cc(SCc3cccc(CN4CCOCC4)c3)s2)cc1

>  <score_type>  (78) 
oracle

>  <origin>  (78) 
adg

>  <m_score__min__energy>  (78) 
-12.609999999999999

>  <m_primary>  (78) 
energy

$$$$
78:0
     RDKit          3D

 40 43  0  0  0  0  0  0  0  0999 V2000
   56.3580   28.1040   44.5750 H   0  0  0  0  0  0  0  0  0  0  0  0
   55.8750   27.8180   45.4170 O   0  0  0  0  0  0  0  0  0  0  0  0
   56.1140   26.5810   46.0100 C   0  0  0  0  0  0  0  0  0  0  0  0
   55.1570   25.6610   46.2080 N   0  0  0  0  0  0  0  0  0  0  0  0
   55.8400   24.6250   46.7380 C   0  0  0  0  0  0  0  0  0  0  0  0
   55.2860   23.5430   47.0650 O   0  0  0  0  0  0  0  0  0  0  0  0
   57.1670   24.8360   46.8820 N   0  0  0  0  0  0  0  0  0  0  0  0
   57.3330   26.0930   46.4380 C   0  0  0  0  0  0  0  0  0  0  0  0
   58.6440   26.7540   46.3510 C   0  0  0  0  0  0  0  0  0  0  0  0
   59.4828   26.1847   45.9240 H   0  0  0  0  0  0  0  0  0  0  0  0
   58.8780   28.0090   46.7610 C   0  0  0  0  0  0  0  0  0  0  0  0
   59.4090   28.3870   47.9910 C   0  0  0  0  0  0  0  0  0  0  0  0
   59.7206   27.6923   48.7849 H   0  0  0  0  0  0  0  0  0  0  0  0
   59.4850   29.7370   48.0650 N   0  0  0  0  0  0  0  0  0  0  0  0
   59.0120   30.2190   46.9260 N   0  0  0  0  0  0  0  0  0  0  0  0
   58.8650   31.5200   46.5400 C   0  0  0  0  0  0  0  0  0  0  0  0
   59.2270   32.5300   47.2800 N   0  0  0  0  0  0  0  0  0  0  0  0
   58.7830   33.9140   47.1370 C   0  0  0  0  0  0  0  0  0  0  0  0
   57.8337   33.8244   47.6854 H   0  0  0  0  0  0  0  0  0  0  0  0
   59.2000   34.5640   45.8310 C   0  0  0  0  0  0  0  0  0  0  0  0
   59.6924   33.9651   45.0507 H   0  0  0  0  0  0  0  0  0  0  0  0
   58.6874   35.1520   45.0554 H   0  0  0  0  0  0  0  0  0  0  0  0
   59.9400   34.8930   47.1180 C   0  0  0  0  0  0  0  0  0  0  0  0
   60.9682   34.5325   47.2689 H   0  0  0  0  0  0  0  0  0  0  0  0
   60.1851   35.8184   47.6598 H   0  0  0  0  0  0  0  0  0  0  0  0
   58.3110   31.7610   45.3200 N   0  0  0  0  0  0  0  0  0  0  0  0
   57.9020   30.7320   44.5190 C   0  0  0  0  0  0  0  0  0  0  0  0
   57.3240   31.0160   43.1680 C   0  0  0  0  0  0  0  0  0  0  0  0
   56.6720   31.8997   43.2314 H   0  0  0  0  0  0  0  0  0  0  0  0
   58.1457   31.2019   42.4607 H   0  0  0  0  0  0  0  0  0  0  0  0
   56.5050   29.8190   42.6740 C   0  0  0  0  0  0  0  0  0  0  0  0
   56.3142   29.9378   41.5972 H   0  0  0  0  0  0  0  0  0  0  0  0
   57.0813   28.9036   42.8739 H   0  0  0  0  0  0  0  0  0  0  0  0
   55.1630   29.7080   43.4070 C   0  0  0  0  0  0  0  0  0  0  0  0
   54.4393   30.3911   42.9384 H   0  0  0  0  0  0  0  0  0  0  0  0
   54.8105   28.6682   43.3386 H   0  0  0  0  0  0  0  0  0  0  0  0
   55.3020   30.0450   44.7600 O   0  0  0  0  0  0  0  0  0  0  0  0
   55.9830   29.4280   45.1370 H   0  0  0  0  0  0  0  0  0  0  0  0
   58.0670   29.4410   44.9240 N   0  0  0  0  0  0  0  0  0  0  0  0
   58.6350   29.2130   46.1300 C   0  0  0  0  0  0  0  0  0  0  0  0
  1  2  1  0
  2  3  1  0
  3  4  1  0
  4  5  1  0
  5  6  2  0
  5  7  1  0
  7  8  1  0
  8  9  1  0
  9 10  1  0
  9 11  2  0
 11 12  1  0
 12 13  1  0
 12 14  2  0
 14 15  1  0
 15 16  1  0
 16 17  2  3
 17 18  1  0
 18 19  1  0
 18 20  1  0
 20 21  1  0
 20 22  1  0
 20 23  1  0
 23 24  1  0
 23 25  1  0
 16 26  1  0
 26 27  2  0
 27 28  1  0
 28 29  1  0
 28 30  1  0
 28 31  1  0
 31 32  1  0
 31 33  1  0
 31 34  1  0
 34 35  1  0
 34 36  1  0
 34 37  1  0
 37 38  1  0
 27 39  1  0
 39 40  2  0
  8  3  2  0
 40 11  1  0
 40 15  1  0
 23 18  1  0
M  CHG  2   4  -1   7  -1
M  END
>  <UniqueID>  (79) 
71

>  <SMILES>  (79) 
O=c1[n-]c(O)c(/C=c2/cnn3c(=NC4CC4)nc(CCCO)nc23)[n-]1

>  <Energy>  (79) 
378.27286299721885

>  <Genealogy>  (79) 
O=c1[n-]c(O)c(C=c2cnn3c(=NC4CC4)nc(CCCO)nc23)[n-]1 (protonated)
O=c1[n-]c(O)c(/C=c2/cnn3c(=NC4CC4)nc(CCCO)nc23)[n-]1 (cis-trans isomerization)
O=c1[n-]c(O)c(/C=c2/cnn3c(=NC4CC4)nc(CCCO)nc23)[n-]1 (3D coordinates assigned)
O=c1[n-]c(O)c(/C=c2/cnn3c(=NC4CC4)nc(CCCO)nc23)[n-]1 (nonaromatic ring conformer: 378.27286299721885 kcal/mol)

>  <smiles>  (79) 
O=c1[nH]c(O)c(C=c2cnn3c(=NC4CC4)nc(CCCO)nc23)[nH]1

>  <score_type>  (79) 
oracle

>  <origin>  (79) 
adg

>  <m_score__min__energy>  (79) 
-11.73

>  <m_primary>  (79) 
energy

$$$$
79:0
     RDKit          3D

 50 52  0  0  0  0  0  0  0  0999 V2000
   56.9400   30.2360   44.1320 C   0  0  0  0  0  0  0  0  0  0  0  0
   57.0800   30.8860   45.3910 O   0  0  0  0  0  0  0  0  0  0  0  0
   57.7670   32.0940   45.5920 C   0  0  0  0  0  0  0  0  0  0  0  0
   57.7540   33.1270   44.6330 C   0  0  0  0  0  0  0  0  0  0  0  0
   58.4070   34.3360   44.8880 C   0  0  0  0  0  0  0  0  0  0  0  0
   59.0720   34.5310   46.0990 C   0  0  0  0  0  0  0  0  0  0  0  0
   59.0980   33.5120   47.0540 C   0  0  0  0  0  0  0  0  0  0  0  0
   58.4680   32.2850   46.7990 C   0  0  0  0  0  0  0  0  0  0  0  0
   58.5110   31.2580   47.7930 N   0  0  0  0  0  0  0  0  0  0  0  0
   59.6640   29.9680   47.6880 S   0  0  0  0  0  0  0  0  0  0  0  0
   60.0330   29.5260   49.0760 O   0  0  0  0  0  0  0  0  0  0  0  0
   60.9050   30.4140   46.9680 O   0  0  0  0  0  0  0  0  0  0  0  0
   58.9470   28.6270   46.8050 C   0  0  0  0  0  0  0  0  0  0  0  0
   57.7720   27.9830   47.2190 C   0  0  0  0  0  0  0  0  0  0  0  0
   57.3840   26.9540   46.3670 C   0  0  0  0  0  0  0  0  0  0  0  0
   56.2100   26.0900   46.5360 C   0  0  0  0  0  0  0  0  0  0  0  0
   55.1190   26.3920   45.9810 O   0  0  0  0  0  0  0  0  0  0  0  0
   56.3110   24.9090   47.3380 N   0  0  0  0  0  0  0  0  0  0  0  0
   57.1150   23.7470   46.9790 C   0  0  0  0  0  0  0  0  0  0  0  0
   57.4020   23.7040   45.4690 C   0  0  0  0  0  0  0  0  0  0  0  0
   56.3750   23.0020   44.6700 N   0  0  0  0  0  0  0  0  0  0  0  0
   56.5730   22.9840   43.2070 C   0  0  0  0  0  0  0  0  0  0  0  0
   57.0060   21.6040   42.6980 C   0  0  0  0  0  0  0  0  0  0  0  0
   56.1300   20.6040   43.1680 O   0  0  0  0  0  0  0  0  0  0  0  0
   56.2580   20.5020   44.5690 C   0  0  0  0  0  0  0  0  0  0  0  0
   55.7780   21.7870   45.2600 C   0  0  0  0  0  0  0  0  0  0  0  0
   58.4970   26.8460   45.1090 S   0  0  0  0  0  0  0  0  0  0  0  0
   59.4800   28.1040   45.6300 C   0  0  0  0  0  0  0  0  0  0  0  0
   61.0580   28.6810   44.7210 Br  0  0  0  0  0  0  0  0  0  0  0  0
   56.7108   29.1721   44.2921 H   0  0  0  0  0  0  0  0  0  0  0  0
   56.1225   30.7060   43.5656 H   0  0  0  0  0  0  0  0  0  0  0  0
   57.8785   30.3277   43.5656 H   0  0  0  0  0  0  0  0  0  0  0  0
   57.2270   32.9807   43.6786 H   0  0  0  0  0  0  0  0  0  0  0  0
   58.3967   35.1354   44.1325 H   0  0  0  0  0  0  0  0  0  0  0  0
   59.5760   35.4875   46.3017 H   0  0  0  0  0  0  0  0  0  0  0  0
   59.6154   33.6727   48.0113 H   0  0  0  0  0  0  0  0  0  0  0  0
   58.1480   31.4810   48.7460 H   0  0  0  0  0  0  0  0  0  0  0  0
   57.2142   28.2629   48.1248 H   0  0  0  0  0  0  0  0  0  0  0  0
   58.0700   23.7914   47.5231 H   0  0  0  0  0  0  0  0  0  0  0  0
   56.5519   22.8414   47.2488 H   0  0  0  0  0  0  0  0  0  0  0  0
   57.4739   24.7389   45.1032 H   0  0  0  0  0  0  0  0  0  0  0  0
   58.3369   23.1380   45.3440 H   0  0  0  0  0  0  0  0  0  0  0  0
   55.6274   23.2612   42.7181 H   0  0  0  0  0  0  0  0  0  0  0  0
   57.3732   23.6992   42.9657 H   0  0  0  0  0  0  0  0  0  0  0  0
   56.9964   21.6051   41.5980 H   0  0  0  0  0  0  0  0  0  0  0  0
   58.0192   21.3910   43.0696 H   0  0  0  0  0  0  0  0  0  0  0  0
   55.6534   19.6547   44.9248 H   0  0  0  0  0  0  0  0  0  0  0  0
   57.3192   20.3475   44.8139 H   0  0  0  0  0  0  0  0  0  0  0  0
   54.6838   21.8503   45.1667 H   0  0  0  0  0  0  0  0  0  0  0  0
   56.0914   21.7377   46.3133 H   0  0  0  0  0  0  0  0  0  0  0  0
  1  2  1  0
  2  3  1  0
  3  4  2  0
  4  5  1  0
  5  6  2  0
  6  7  1  0
  7  8  2  0
  8  9  1  0
  9 10  1  0
 10 11  2  0
 10 12  2  0
 10 13  1  0
 13 14  1  0
 14 15  2  0
 15 16  1  0
 16 17  2  0
 16 18  1  0
 18 19  1  0
 19 20  1  0
 20 21  1  0
 21 22  1  0
 22 23  1  0
 23 24  1  0
 24 25  1  0
 25 26  1  0
 15 27  1  0
 27 28  1  0
 28 29  1  0
  8  3  1  0
 28 13  2  0
 26 21  1  0
  1 30  1  0
  1 31  1  0
  1 32  1  0
  4 33  1  0
  5 34  1  0
  6 35  1  0
  7 36  1  0
  9 37  1  0
 14 38  1  0
 19 39  1  0
 19 40  1  0
 20 41  1  0
 20 42  1  0
 22 43  1  0
 22 44  1  0
 23 45  1  0
 23 46  1  0
 25 47  1  0
 25 48  1  0
 26 49  1  0
 26 50  1  0
M  CHG  1  18  -1
M  END
>  <UniqueID>  (80) 
72

>  <SMILES>  (80) 
COc1ccccc1NS(=O)(=O)c1cc(C(=O)[N-]CCN2CCOCC2)sc1Br

>  <Energy>  (80) 
91.88416141186599

>  <Genealogy>  (80) 
COc1ccccc1NS(=O)(=O)c1cc(C(=O)[N-]CCN2CCOCC2)sc1Br (protonated)
COc1ccccc1NS(=O)(=O)c1cc(C(=O)[N-]CCN2CCOCC2)sc1Br (3D coordinates assigned)
COc1ccccc1NS(=O)(=O)c1cc(C(=O)[N-]CCN2CCOCC2)sc1Br (nonaromatic ring conformer: 91.88416141186599 kcal/mol)

>  <smiles>  (80) 
COc1ccccc1NS(=O)(=O)c1cc(C(=O)NCCN2CCOCC2)sc1Br

>  <score_type>  (80) 
oracle

>  <origin>  (80) 
adg

>  <m_score__min__energy>  (80) 
-10.48

>  <m_primary>  (80) 
energy

$$$$
80:0
     RDKit          3D

 73 76  0  0  0  0  0  0  0  0999 V2000
   59.6150   33.4490   48.9470 C   0  0  0  0  0  0  0  0  0  0  0  0
   60.9670   34.1010   49.2690 C   0  0  0  0  0  0  0  0  0  0  0  0
   62.1430   33.2710   48.9080 N   0  0  0  0  0  0  0  0  0  0  0  0
   62.8660   33.7990   47.7300 C   0  0  0  0  0  0  0  0  0  0  0  0
   63.7490   32.7140   47.1220 C   0  0  0  0  0  0  0  0  0  0  0  0
   63.0580   33.0120   50.0440 C   0  0  0  0  0  0  0  0  0  0  0  0
   62.8250   31.6420   50.6260 C   0  0  0  0  0  0  0  0  0  0  0  0
   63.6040   31.1970   51.7060 C   0  0  0  0  0  0  0  0  0  0  0  0
   63.4130   29.9170   52.2300 C   0  0  0  0  0  0  0  0  0  0  0  0
   62.4550   29.0650   51.6730 C   0  0  0  0  0  0  0  0  0  0  0  0
   61.6830   29.4900   50.5760 C   0  0  0  0  0  0  0  0  0  0  0  0
   60.7020   28.6730   49.9960 O   0  0  0  0  0  0  0  0  0  0  0  0
   60.3730   28.6330   48.6330 C   0  0  0  0  0  0  0  0  0  0  0  0
   59.8260   29.7770   48.0420 C   0  0  0  0  0  0  0  0  0  0  0  0
   59.4910   29.7830   46.6850 C   0  0  0  0  0  0  0  0  0  0  0  0
   59.7010   28.6400   45.8990 C   0  0  0  0  0  0  0  0  0  0  0  0
   59.3780   28.6590   44.4300 C   0  0  0  0  0  0  0  0  0  0  0  0
   57.9820   28.2760   44.2200 N   0  0  0  0  0  0  0  0  0  0  0  0
   57.5720   26.9180   44.4150 C   0  0  0  0  0  0  0  0  0  0  0  0
   57.7810   25.9770   43.3990 C   0  0  0  0  0  0  0  0  0  0  0  0
   57.3830   24.6500   43.5790 C   0  0  0  0  0  0  0  0  0  0  0  0
   56.7720   24.2580   44.7740 C   0  0  0  0  0  0  0  0  0  0  0  0
   56.5510   25.1920   45.7910 C   0  0  0  0  0  0  0  0  0  0  0  0
   55.9350   24.7880   46.9700 O   0  0  0  0  0  0  0  0  0  0  0  0
   56.9510   26.5300   45.6160 C   0  0  0  0  0  0  0  0  0  0  0  0
   56.7310   27.4800   46.6140 O   0  0  0  0  0  0  0  0  0  0  0  0
   56.7690   29.4860   43.9430 S   0  0  0  0  0  0  0  0  0  0  0  0
   55.6130   29.2720   44.8820 O   0  0  0  0  0  0  0  0  0  0  0  0
   56.2540   29.3830   42.5330 O   0  0  0  0  0  0  0  0  0  0  0  0
   57.4760   31.0720   44.2120 C   0  0  0  0  0  0  0  0  0  0  0  0
   57.9760   31.8130   43.1340 C   0  0  0  0  0  0  0  0  0  0  0  0
   58.5050   33.0920   43.3420 C   0  0  0  0  0  0  0  0  0  0  0  0
   58.5310   33.6470   44.6360 C   0  0  0  0  0  0  0  0  0  0  0  0
   59.0470   34.9250   44.8980 O   0  0  0  0  0  0  0  0  0  0  0  0
   59.6710   35.3040   46.1210 C   0  0  0  0  0  0  0  0  0  0  0  0
   58.0220   32.9020   45.7080 C   0  0  0  0  0  0  0  0  0  0  0  0
   57.4960   31.6250   45.4990 C   0  0  0  0  0  0  0  0  0  0  0  0
   60.2830   27.5040   46.4810 C   0  0  0  0  0  0  0  0  0  0  0  0
   60.6230   27.5010   47.8380 C   0  0  0  0  0  0  0  0  0  0  0  0
   61.8600   30.7850   50.0720 C   0  0  0  0  0  0  0  0  0  0  0  0
   59.0961   33.1988   49.8841 H   0  0  0  0  0  0  0  0  0  0  0  0
   58.9999   34.1495   48.3631 H   0  0  0  0  0  0  0  0  0  0  0  0
   59.7802   32.5315   48.3631 H   0  0  0  0  0  0  0  0  0  0  0  0
   61.0323   35.0505   48.7175 H   0  0  0  0  0  0  0  0  0  0  0  0
   61.0000   34.2391   50.3598 H   0  0  0  0  0  0  0  0  0  0  0  0
   62.1375   34.1376   46.9786 H   0  0  0  0  0  0  0  0  0  0  0  0
   63.4994   34.6409   48.0462 H   0  0  0  0  0  0  0  0  0  0  0  0
   64.2222   32.1326   47.9270 H   0  0  0  0  0  0  0  0  0  0  0  0
   63.1342   32.0466   46.5003 H   0  0  0  0  0  0  0  0  0  0  0  0
   64.5274   33.1804   46.5003 H   0  0  0  0  0  0  0  0  0  0  0  0
   64.0975   33.0804   49.6909 H   0  0  0  0  0  0  0  0  0  0  0  0
   62.8654   33.7614   50.8259 H   0  0  0  0  0  0  0  0  0  0  0  0
   64.3674   31.8590   52.1408 H   0  0  0  0  0  0  0  0  0  0  0  0
   64.0182   29.5780   53.0837 H   0  0  0  0  0  0  0  0  0  0  0  0
   62.3042   28.0597   52.0933 H   0  0  0  0  0  0  0  0  0  0  0  0
   59.6583   30.6784   48.6497 H   0  0  0  0  0  0  0  0  0  0  0  0
   59.0608   30.6880   46.2313 H   0  0  0  0  0  0  0  0  0  0  0  0
   59.5413   29.6722   44.0341 H   0  0  0  0  0  0  0  0  0  0  0  0
   60.0311   27.9447   43.9073 H   0  0  0  0  0  0  0  0  0  0  0  0
   58.2596   26.2834   42.4572 H   0  0  0  0  0  0  0  0  0  0  0  0
   57.5505   23.9129   42.7799 H   0  0  0  0  0  0  0  0  0  0  0  0
   56.4641   23.2114   44.9146 H   0  0  0  0  0  0  0  0  0  0  0  0
   56.2510   27.2560   47.4770 H   0  0  0  0  0  0  0  0  0  0  0  0
   57.9529   31.3881   42.1196 H   0  0  0  0  0  0  0  0  0  0  0  0
   58.9019   33.6658   42.4916 H   0  0  0  0  0  0  0  0  0  0  0  0
   59.0705   34.9393   46.9674 H   0  0  0  0  0  0  0  0  0  0  0  0
   60.6784   34.8651   46.1700 H   0  0  0  0  0  0  0  0  0  0  0  0
   59.7459   36.4003   46.1700 H   0  0  0  0  0  0  0  0  0  0  0  0
   58.0368   33.3264   46.7227 H   0  0  0  0  0  0  0  0  0  0  0  0
   57.0960   31.0514   46.3481 H   0  0  0  0  0  0  0  0  0  0  0  0
   60.4730   26.6111   45.8673 H   0  0  0  0  0  0  0  0  0  0  0  0
   61.0877   26.6095   48.2845 H   0  0  0  0  0  0  0  0  0  0  0  0
   61.2376   31.1338   49.2348 H   0  0  0  0  0  0  0  0  0  0  0  0
  1  2  1  0
  2  3  1  0
  3  4  1  0
  4  5  1  0
  3  6  1  0
  6  7  1  0
  7  8  2  0
  8  9  1  0
  9 10  2  0
 10 11  1  0
 11 12  1  0
 12 13  1  0
 13 14  2  0
 14 15  1  0
 15 16  2  0
 16 17  1  0
 17 18  1  0
 18 19  1  0
 19 20  2  0
 20 21  1  0
 21 22  2  0
 22 23  1  0
 23 24  1  0
 23 25  2  0
 25 26  1  0
 18 27  1  0
 27 28  2  0
 27 29  2  0
 27 30  1  0
 30 31  2  0
 31 32  1  0
 32 33  2  0
 33 34  1  0
 34 35  1  0
 33 36  1  0
 36 37  2  0
 16 38  1  0
 38 39  2  0
 11 40  2  0
 40  7  1  0
 39 13  1  0
 25 19  1  0
 37 30  1  0
  1 41  1  0
  1 42  1  0
  1 43  1  0
  2 44  1  0
  2 45  1  0
  4 46  1  0
  4 47  1  0
  5 48  1  0
  5 49  1  0
  5 50  1  0
  6 51  1  0
  6 52  1  0
  8 53  1  0
  9 54  1  0
 10 55  1  0
 14 56  1  0
 15 57  1  0
 17 58  1  0
 17 59  1  0
 20 60  1  0
 21 61  1  0
 22 62  1  0
 26 63  1  0
 31 64  1  0
 32 65  1  0
 35 66  1  0
 35 67  1  0
 35 68  1  0
 36 69  1  0
 37 70  1  0
 38 71  1  0
 39 72  1  0
 40 73  1  0
M  CHG  1  24  -1
M  END
>  <UniqueID>  (81) 
73

>  <SMILES>  (81) 
CCN(CC)Cc1cccc(Oc2ccc(CN(c3cccc([O-])c3O)S(=O)(=O)c3ccc(OC)cc3)cc2)c1

>  <Energy>  (81) 
87.32403874212096

>  <Genealogy>  (81) 
CCN(CC)Cc1cccc(Oc2ccc(CN(c3cccc([O-])c3O)S(=O)(=O)c3ccc(OC)cc3)cc2)c1 (protonated)
CCN(CC)Cc1cccc(Oc2ccc(CN(c3cccc([O-])c3O)S(=O)(=O)c3ccc(OC)cc3)cc2)c1 (3D coordinates assigned)
CCN(CC)Cc1cccc(Oc2ccc(CN(c3cccc([O-])c3O)S(=O)(=O)c3ccc(OC)cc3)cc2)c1 (optimized conformer: 87.32403874212096 kcal/mol)

>  <smiles>  (81) 
CCN(CC)Cc1cccc(Oc2ccc(CN(c3cccc(O)c3O)S(=O)(=O)c3ccc(OC)cc3)cc2)c1

>  <score_type>  (81) 
oracle

>  <origin>  (81) 
adg

>  <m_score__min__energy>  (81) 
-12.48

>  <m_primary>  (81) 
energy

$$$$
81:0
     RDKit          3D

 22 23  0  0  0  0  0  0  0  0999 V2000
   57.3570   22.8630   47.7830 O   0  0  0  0  0  0  0  0  0  0  0  0
   57.1070   23.8890   47.0990 C   0  0  0  0  0  0  0  0  0  0  0  0
   55.9550   24.5810   47.2200 N   0  0  0  0  0  0  0  0  0  0  0  0
   56.1050   25.5690   46.3230 C   0  0  0  0  0  0  0  0  0  0  0  0
   55.1360   26.5420   46.0900 O   0  0  0  0  0  0  0  0  0  0  0  0
   57.3290   25.4580   45.6970 C   0  0  0  0  0  0  0  0  0  0  0  0
   57.8660   26.3120   44.5890 C   0  0  0  0  0  0  0  0  0  0  0  0
   57.9380   27.7500   45.0280 C   0  0  0  0  0  0  0  0  0  0  0  0
   57.3770   28.7670   44.2370 C   0  0  0  0  0  0  0  0  0  0  0  0
   57.4720   30.1040   44.6370 C   0  0  0  0  0  0  0  0  0  0  0  0
   58.1290   30.4350   45.8260 C   0  0  0  0  0  0  0  0  0  0  0  0
   58.6950   29.4300   46.6150 C   0  0  0  0  0  0  0  0  0  0  0  0
   58.6020   28.0920   46.2190 C   0  0  0  0  0  0  0  0  0  0  0  0
   57.9700   24.3790   46.1820 N   0  0  0  0  0  0  0  0  0  0  0  0
   54.3880   26.7150   46.7500 H   0  0  0  0  0  0  0  0  0  0  0  0
   58.8738   25.9641   44.3181 H   0  0  0  0  0  0  0  0  0  0  0  0
   57.1956   26.2355   43.7202 H   0  0  0  0  0  0  0  0  0  0  0  0
   56.8612   28.5107   43.2998 H   0  0  0  0  0  0  0  0  0  0  0  0
   57.0292   30.8961   44.0153 H   0  0  0  0  0  0  0  0  0  0  0  0
   58.2004   31.4867   46.1404 H   0  0  0  0  0  0  0  0  0  0  0  0
   59.2143   29.6917   47.5487 H   0  0  0  0  0  0  0  0  0  0  0  0
   59.0502   27.3040   46.8420 H   0  0  0  0  0  0  0  0  0  0  0  0
  1  2  2  0
  2  3  1  0
  3  4  1  0
  4  5  1  0
  4  6  2  0
  6  7  1  0
  7  8  1  0
  8  9  2  0
  9 10  1  0
 10 11  2  0
 11 12  1  0
 12 13  2  0
  6 14  1  0
 14  2  1  0
 13  8  1  0
  5 15  1  0
  7 16  1  0
  7 17  1  0
  9 18  1  0
 10 19  1  0
 11 20  1  0
 12 21  1  0
 13 22  1  0
M  CHG  2   3  -1  14  -1
M  END
>  <UniqueID>  (82) 
74

>  <SMILES>  (82) 
O=c1[n-]c(O)c(Cc2ccccc2)[n-]1

>  <Energy>  (82) 
49.718414013099675

>  <Genealogy>  (82) 
O=c1[n-]c(O)c(Cc2ccccc2)[n-]1 (protonated)
O=c1[n-]c(O)c(Cc2ccccc2)[n-]1 (3D coordinates assigned)
O=c1[n-]c(O)c(Cc2ccccc2)[n-]1 (optimized conformer: 49.718414013099675 kcal/mol)

>  <smiles>  (82) 
O=c1[nH]c(O)c(Cc2ccccc2)[nH]1

>  <score_type>  (82) 
oracle

>  <origin>  (82) 
adg

>  <m_score__min__energy>  (82) 
-10.44

>  <m_primary>  (82) 
energy

$$$$
82:0
     RDKit          3D

 46 48  0  0  0  0  0  0  0  0999 V2000
   56.7492   23.7864   42.0099 H   0  0  0  0  0  0  0  0  0  0  0  0
   56.6450   23.2960   42.9890 C   0  0  0  0  0  0  0  0  0  0  0  0
   56.6670   24.0610   44.1570 C   0  0  0  0  0  0  0  0  0  0  0  0
   56.7969   25.1515   44.0941 H   0  0  0  0  0  0  0  0  0  0  0  0
   56.5240   23.4450   45.4140 C   0  0  0  0  0  0  0  0  0  0  0  0
   56.5590   24.2510   46.6580 C   0  0  0  0  0  0  0  0  0  0  0  0
   55.5280   24.3180   47.3790 O   0  0  0  0  0  0  0  0  0  0  0  0
   57.7520   24.9150   47.1020 N   0  0  0  0  0  0  0  0  0  0  0  0
   58.1170   26.1120   46.7550 C   0  0  0  0  0  0  0  0  0  0  0  0
   58.6410   27.0250   47.6060 N   0  0  0  0  0  0  0  0  0  0  0  0
   58.9560   28.1700   47.0060 N   0  0  0  0  0  0  0  0  0  0  0  0
   58.6850   28.1660   45.6830 C   0  0  0  0  0  0  0  0  0  0  0  0
   58.9900   29.5610   44.6030 S   0  0  0  0  0  0  0  0  0  0  0  0
   57.3860   29.4210   43.7300 C   0  0  0  0  0  0  0  0  0  0  0  0
   57.1645   28.3556   43.5690 H   0  0  0  0  0  0  0  0  0  0  0  0
   57.4764   29.9654   42.7784 H   0  0  0  0  0  0  0  0  0  0  0  0
   56.2540   30.0360   44.4990 C   0  0  0  0  0  0  0  0  0  0  0  0
   55.2500   29.3490   44.8350 O   0  0  0  0  0  0  0  0  0  0  0  0
   56.3290   31.4190   44.8530 N   0  0  0  0  0  0  0  0  0  0  0  0
   57.3580   32.3270   44.3570 C   0  0  0  0  0  0  0  0  0  0  0  0
   56.8855   33.1100   43.7457 H   0  0  0  0  0  0  0  0  0  0  0  0
   58.0757   31.7539   43.7516 H   0  0  0  0  0  0  0  0  0  0  0  0
   58.0920   32.9690   45.5020 C   0  0  0  0  0  0  0  0  0  0  0  0
   58.1470   32.3460   46.7570 C   0  0  0  0  0  0  0  0  0  0  0  0
   57.6338   31.3859   46.9142 H   0  0  0  0  0  0  0  0  0  0  0  0
   58.8510   32.9390   47.8100 C   0  0  0  0  0  0  0  0  0  0  0  0
   58.8871   32.4418   48.7906 H   0  0  0  0  0  0  0  0  0  0  0  0
   59.5100   34.1600   47.6260 C   0  0  0  0  0  0  0  0  0  0  0  0
   60.2270   34.7000   48.7030 O   0  0  0  0  0  0  0  0  0  0  0  0
   61.4420   34.1600   49.2130 C   0  0  0  0  0  0  0  0  0  0  0  0
   61.4154   34.1718   50.3126 H   0  0  0  0  0  0  0  0  0  0  0  0
   61.5598   33.1248   48.8602 H   0  0  0  0  0  0  0  0  0  0  0  0
   62.2893   34.7663   48.8602 H   0  0  0  0  0  0  0  0  0  0  0  0
   59.4330   34.7990   46.3740 C   0  0  0  0  0  0  0  0  0  0  0  0
   59.9323   35.7674   46.2223 H   0  0  0  0  0  0  0  0  0  0  0  0
   58.7250   34.2090   45.3220 C   0  0  0  0  0  0  0  0  0  0  0  0
   58.6639   34.7189   44.3492 H   0  0  0  0  0  0  0  0  0  0  0  0
   58.0350   26.6950   45.1800 S   0  0  0  0  0  0  0  0  0  0  0  0
   56.3860   22.0480   45.4800 C   0  0  0  0  0  0  0  0  0  0  0  0
   56.2945   21.5541   46.4586 H   0  0  0  0  0  0  0  0  0  0  0  0
   56.3640   21.2780   44.3060 C   0  0  0  0  0  0  0  0  0  0  0  0
   56.2110   19.8590   44.3790 N   0  0  0  0  0  0  0  0  0  0  0  0
   55.3190   19.4340   44.7170 H   0  0  0  0  0  0  0  0  0  0  0  0
   56.9890   19.2220   44.0950 H   0  0  0  0  0  0  0  0  0  0  0  0
   56.4910   21.9100   43.0610 C   0  0  0  0  0  0  0  0  0  0  0  0
   56.4693   21.3121   42.1379 H   0  0  0  0  0  0  0  0  0  0  0  0
  1  2  1  0
  2  3  2  0
  3  4  1  0
  3  5  1  0
  5  6  1  0
  6  7  2  0
  6  8  1  0
  8  9  2  0
  9 10  1  0
 10 11  1  0
 11 12  2  0
 12 13  1  0
 13 14  1  0
 14 15  1  0
 14 16  1  0
 14 17  1  0
 17 18  2  0
 17 19  1  0
 19 20  1  0
 20 21  1  0
 20 22  1  0
 20 23  1  0
 23 24  2  0
 24 25  1  0
 24 26  1  0
 26 27  1  0
 26 28  2  0
 28 29  1  0
 29 30  1  0
 30 31  1  0
 30 32  1  0
 30 33  1  0
 28 34  1  0
 34 35  1  0
 34 36  2  0
 36 37  1  0
 12 38  1  0
  5 39  2  0
 39 40  1  0
 39 41  1  0
 41 42  1  0
 42 43  1  0
 42 44  1  0
 41 45  2  0
 45 46  1  0
 45  2  1  0
 38  9  1  0
 36 23  1  0
M  CHG  2  10  -1  19  -1
M  END
>  <UniqueID>  (83) 
75

>  <SMILES>  (83) 
COc1ccc(C[N-]C(=O)CSc2n[n-]/c(=N\C(=O)c3cccc(N)c3)s2)cc1

>  <Energy>  (83) 
80.41848274928323

>  <Genealogy>  (83) 
COc1ccc(C[N-]C(=O)CSc2n[n-]c(=NC(=O)c3cccc(N)c3)s2)cc1 (protonated)
COc1ccc(C[N-]C(=O)CSc2n[n-]/c(=N\C(=O)c3cccc(N)c3)s2)cc1 (cis-trans isomerization)
COc1ccc(C[N-]C(=O)CSc2n[n-]/c(=N\C(=O)c3cccc(N)c3)s2)cc1 (3D coordinates assigned)
COc1ccc(C[N-]C(=O)CSc2n[n-]/c(=N\C(=O)c3cccc(N)c3)s2)cc1 (optimized conformer: 80.41848274928323 kcal/mol)

>  <smiles>  (83) 
COc1ccc(CNC(=O)CSc2n[nH]c(=NC(=O)c3cccc(N)c3)s2)cc1

>  <score_type>  (83) 
oracle

>  <origin>  (83) 
adg

>  <m_score__min__energy>  (83) 
-11.550000000000001

>  <m_primary>  (83) 
energy

$$$$
83:0
     RDKit          3D

 51 54  0  0  0  0  0  0  0  0999 V2000
   60.1020   31.6450   49.8060 C   0  0  0  0  0  0  0  0  0  0  0  0
   61.4660   32.0180   49.2810 C   0  0  0  0  0  0  0  0  0  0  0  0
   62.6000   31.6650   50.0290 C   0  0  0  0  0  0  0  0  0  0  0  0
   63.8780   31.9920   49.5780 C   0  0  0  0  0  0  0  0  0  0  0  0
   64.9910   31.6220   50.3220 O   0  0  0  0  0  0  0  0  0  0  0  0
   64.0410   32.6910   48.3830 C   0  0  0  0  0  0  0  0  0  0  0  0
   62.9260   33.0850   47.6270 C   0  0  0  0  0  0  0  0  0  0  0  0
   63.1440   33.8540   46.3490 C   0  0  0  0  0  0  0  0  0  0  0  0
   61.6240   32.7420   48.0710 C   0  0  0  0  0  0  0  0  0  0  0  0
   60.4360   33.1360   47.2810 C   0  0  0  0  0  0  0  0  0  0  0  0
   59.9890   34.4640   47.2890 C   0  0  0  0  0  0  0  0  0  0  0  0
   58.8940   34.8400   46.5080 C   0  0  0  0  0  0  0  0  0  0  0  0
   58.2540   33.9020   45.6930 C   0  0  0  0  0  0  0  0  0  0  0  0
   57.1700   34.3040   44.9170 O   0  0  0  0  0  0  0  0  0  0  0  0
   58.7080   32.5690   45.6560 C   0  0  0  0  0  0  0  0  0  0  0  0
   58.0490   31.5530   44.7500 C   0  0  0  0  0  0  0  0  0  0  0  0
   58.8650   30.3900   44.5830 O   0  0  0  0  0  0  0  0  0  0  0  0
   58.5730   29.1160   45.0990 C   0  0  0  0  0  0  0  0  0  0  0  0
   58.1630   28.1180   44.2070 C   0  0  0  0  0  0  0  0  0  0  0  0
   57.8140   26.8480   44.6750 C   0  0  0  0  0  0  0  0  0  0  0  0
   57.8690   26.5580   46.0450 C   0  0  0  0  0  0  0  0  0  0  0  0
   57.5140   25.1850   46.5450 C   0  0  0  0  0  0  0  0  0  0  0  0
   56.1210   24.8300   46.1270 C   0  0  0  0  0  0  0  0  0  0  0  0
   55.6720   23.5700   45.9920 N   0  0  0  0  0  0  0  0  0  0  0  0
   54.3690   23.7370   45.6750 C   0  0  0  0  0  0  0  0  0  0  0  0
   53.5950   22.7680   45.4580 O   0  0  0  0  0  0  0  0  0  0  0  0
   53.9600   25.0230   45.6130 N   0  0  0  0  0  0  0  0  0  0  0  0
   55.0810   25.7010   45.9080 C   0  0  0  0  0  0  0  0  0  0  0  0
   55.1490   27.0870   45.9830 O   0  0  0  0  0  0  0  0  0  0  0  0
   58.3110   27.5460   46.9390 C   0  0  0  0  0  0  0  0  0  0  0  0
   58.6600   28.8160   46.4710 C   0  0  0  0  0  0  0  0  0  0  0  0
   59.7760   32.1880   46.4880 C   0  0  0  0  0  0  0  0  0  0  0  0
   60.1186   31.6495   50.9059 H   0  0  0  0  0  0  0  0  0  0  0  0
   59.3594   32.3731   49.4475 H   0  0  0  0  0  0  0  0  0  0  0  0
   59.8333   30.6404   49.4475 H   0  0  0  0  0  0  0  0  0  0  0  0
   62.4792   31.1253   50.9799 H   0  0  0  0  0  0  0  0  0  0  0  0
   65.0532   32.9362   48.0291 H   0  0  0  0  0  0  0  0  0  0  0  0
   63.4368   34.8870   46.5881 H   0  0  0  0  0  0  0  0  0  0  0  0
   63.9412   33.3731   45.7632 H   0  0  0  0  0  0  0  0  0  0  0  0
   62.2130   33.8630   45.7632 H   0  0  0  0  0  0  0  0  0  0  0  0
   60.5016   35.2119   47.9117 H   0  0  0  0  0  0  0  0  0  0  0  0
   58.5336   35.8789   46.5344 H   0  0  0  0  0  0  0  0  0  0  0  0
   57.0862   31.2536   45.1898 H   0  0  0  0  0  0  0  0  0  0  0  0
   57.9025   32.0156   43.7628 H   0  0  0  0  0  0  0  0  0  0  0  0
   58.1151   28.3349   43.1297 H   0  0  0  0  0  0  0  0  0  0  0  0
   57.4944   26.0719   43.9640 H   0  0  0  0  0  0  0  0  0  0  0  0
   58.2180   24.4515   46.1251 H   0  0  0  0  0  0  0  0  0  0  0  0
   57.5741   25.1749   47.6433 H   0  0  0  0  0  0  0  0  0  0  0  0
   58.3830   27.3196   48.0130 H   0  0  0  0  0  0  0  0  0  0  0  0
   59.0043   29.5846   47.1786 H   0  0  0  0  0  0  0  0  0  0  0  0
   60.0961   31.1360   46.5164 H   0  0  0  0  0  0  0  0  0  0  0  0
  1  2  1  0
  2  3  2  0
  3  4  1  0
  4  5  1  0
  4  6  2  0
  6  7  1  0
  7  8  1  0
  7  9  2  0
  9 10  1  0
 10 11  2  0
 11 12  1  0
 12 13  2  0
 13 14  1  0
 13 15  1  0
 15 16  1  0
 16 17  1  0
 17 18  1  0
 18 19  2  0
 19 20  1  0
 20 21  2  0
 21 22  1  0
 22 23  1  0
 23 24  1  0
 24 25  1  0
 25 26  2  0
 25 27  1  0
 27 28  1  0
 28 29  1  0
 21 30  1  0
 30 31  2  0
 15 32  2  0
  9  2  1  0
 32 10  1  0
 31 18  1  0
 28 23  2  0
  1 33  1  0
  1 34  1  0
  1 35  1  0
  3 36  1  0
  6 37  1  0
  8 38  1  0
  8 39  1  0
  8 40  1  0
 11 41  1  0
 12 42  1  0
 16 43  1  0
 16 44  1  0
 19 45  1  0
 20 46  1  0
 22 47  1  0
 22 48  1  0
 30 49  1  0
 31 50  1  0
 32 51  1  0
M  CHG  5   5  -1  14  -1  24  -1  27  -1  29  -1
M  END
>  <UniqueID>  (84) 
76

>  <SMILES>  (84) 
Cc1cc([O-])cc(C)c1-c1ccc([O-])c(COc2ccc(Cc3[n-]c(=O)[n-]c3[O-])cc2)c1

>  <Energy>  (84) 
90.57620717487706

>  <Genealogy>  (84) 
Cc1cc([O-])cc(C)c1-c1ccc([O-])c(COc2ccc(Cc3[n-]c(=O)[n-]c3[O-])cc2)c1 (protonated)
Cc1cc([O-])cc(C)c1-c1ccc([O-])c(COc2ccc(Cc3[n-]c(=O)[n-]c3[O-])cc2)c1 (3D coordinates assigned)
Cc1cc([O-])cc(C)c1-c1ccc([O-])c(COc2ccc(Cc3[n-]c(=O)[n-]c3[O-])cc2)c1 (optimized conformer: 90.57620717487706 kcal/mol)

>  <smiles>  (84) 
Cc1cc(O)cc(C)c1-c1ccc(O)c(COc2ccc(Cc3[nH]c(=O)[nH]c3O)cc2)c1

>  <score_type>  (84) 
oracle

>  <origin>  (84) 
adg

>  <m_score__min__energy>  (84) 
-19.710000000000001

>  <m_primary>  (84) 
energy

$$$$
84:0
     RDKit          3D

 32 34  0  0  0  0  0  0  0  0999 V2000
   55.0420   25.2620   46.7570 H   0  0  0  0  0  0  0  0  0  0  0  0
   55.9470   25.6430   47.0050 O   0  0  0  0  0  0  0  0  0  0  0  0
   56.5580   26.6000   46.2020 C   0  0  0  0  0  0  0  0  0  0  0  0
   55.8900   27.6100   45.6150 N   0  0  0  0  0  0  0  0  0  0  0  0
   56.8320   28.3020   44.9420 C   0  0  0  0  0  0  0  0  0  0  0  0
   56.5440   29.4950   44.1210 C   0  0  0  0  0  0  0  0  0  0  0  0
   56.4560   29.3760   42.8700 O   0  0  0  0  0  0  0  0  0  0  0  0
   56.2910   30.7760   44.7130 N   0  0  0  0  0  0  0  0  0  0  0  0
   57.2810   31.6980   45.1860 C   0  0  0  0  0  0  0  0  0  0  0  0
   57.4680   32.9030   44.4980 C   0  0  0  0  0  0  0  0  0  0  0  0
   56.8450   33.1345   43.6215 H   0  0  0  0  0  0  0  0  0  0  0  0
   58.4410   33.8130   44.9180 C   0  0  0  0  0  0  0  0  0  0  0  0
   58.5640   34.7662   44.3830 H   0  0  0  0  0  0  0  0  0  0  0  0
   59.2640   33.5200   46.0190 C   0  0  0  0  0  0  0  0  0  0  0  0
   60.2920   34.4860   46.4780 C   0  0  0  0  0  0  0  0  0  0  0  0
   59.9340   35.6230   46.8840 O   0  0  0  0  0  0  0  0  0  0  0  0
   61.6950   34.1910   46.4110 N   0  0  0  0  0  0  0  0  0  0  0  0
   62.4250   33.7540   47.3940 C   0  0  0  0  0  0  0  0  0  0  0  0
   62.2010   34.1210   48.6720 N   0  0  0  0  0  0  0  0  0  0  0  0
   63.0640   33.5120   49.5290 C   0  0  0  0  0  0  0  0  0  0  0  0
   63.0422   33.6915   50.6140 H   0  0  0  0  0  0  0  0  0  0  0  0
   63.9760   32.6460   48.9350 C   0  0  0  0  0  0  0  0  0  0  0  0
   64.7497   32.0648   49.4582 H   0  0  0  0  0  0  0  0  0  0  0  0
   63.6900   32.6420   47.2770 S   0  0  0  0  0  0  0  0  0  0  0  0
   59.0830   32.3040   46.7000 C   0  0  0  0  0  0  0  0  0  0  0  0
   59.7116   32.0666   47.5709 H   0  0  0  0  0  0  0  0  0  0  0  0
   58.1100   31.3950   46.2780 C   0  0  0  0  0  0  0  0  0  0  0  0
   57.9925   30.4362   46.8042 H   0  0  0  0  0  0  0  0  0  0  0  0
   58.0800   27.7240   45.0920 C   0  0  0  0  0  0  0  0  0  0  0  0
   59.0252   28.0695   44.6479 H   0  0  0  0  0  0  0  0  0  0  0  0
   57.9020   26.6290   45.9090 C   0  0  0  0  0  0  0  0  0  0  0  0
   58.6733   25.9250   46.2548 H   0  0  0  0  0  0  0  0  0  0  0  0
  1  2  1  0
  2  3  1  0
  3  4  1  0
  4  5  1  0
  5  6  1  0
  6  7  2  0
  6  8  1  0
  8  9  1  0
  9 10  2  0
 10 11  1  0
 10 12  1  0
 12 13  1  0
 12 14  2  0
 14 15  1  0
 15 16  2  0
 15 17  1  0
 17 18  2  0
 18 19  1  0
 19 20  1  0
 20 21  1  0
 20 22  2  0
 22 23  1  0
 22 24  1  0
 14 25  1  0
 25 26  1  0
 25 27  2  0
 27 28  1  0
  5 29  2  0
 29 30  1  0
 29 31  1  0
 31 32  1  0
 31  3  2  0
 27  9  1  0
 24 18  1  0
M  CHG  3   4  -1   8  -1  19  -1
M  END
>  <UniqueID>  (85) 
77

>  <SMILES>  (85) 
O=C(/N=c1/[n-]ccs1)c1ccc([N-]C(=O)c2ccc(O)[n-]2)cc1

>  <Energy>  (85) 
102.38355425271013

>  <Genealogy>  (85) 
O=C(N=c1[n-]ccs1)c1ccc([N-]C(=O)c2ccc(O)[n-]2)cc1 (protonated)
O=C(/N=c1/[n-]ccs1)c1ccc([N-]C(=O)c2ccc(O)[n-]2)cc1 (cis-trans isomerization)
O=C(/N=c1/[n-]ccs1)c1ccc([N-]C(=O)c2ccc(O)[n-]2)cc1 (3D coordinates assigned)
O=C(/N=c1/[n-]ccs1)c1ccc([N-]C(=O)c2ccc(O)[n-]2)cc1 (optimized conformer: 102.38355425271013 kcal/mol)

>  <smiles>  (85) 
O=C(N=c1[nH]ccs1)c1ccc(NC(=O)c2ccc(O)[nH]2)cc1

>  <score_type>  (85) 
oracle

>  <origin>  (85) 
adg

>  <m_score__min__energy>  (85) 
-12.470000000000001

>  <m_primary>  (85) 
energy

$$$$
85:0
     RDKit          3D

 30 31  0  0  0  0  0  0  0  0999 V2000
   57.8210   32.6850   40.9560 C   0  0  0  0  0  0  0  0  0  0  0  0
   57.4050   31.9670   42.0000 C   0  0  0  0  0  0  0  0  0  0  0  0
   57.8580   32.2210   43.3920 C   0  0  0  0  0  0  0  0  0  0  0  0
   58.4620   33.4510   43.7230 C   0  0  0  0  0  0  0  0  0  0  0  0
   58.9170   33.6970   45.0180 C   0  0  0  0  0  0  0  0  0  0  0  0
   58.7850   32.7210   46.0030 C   0  0  0  0  0  0  0  0  0  0  0  0
   58.1990   31.4940   45.6950 C   0  0  0  0  0  0  0  0  0  0  0  0
   57.7290   31.2280   44.3980 C   0  0  0  0  0  0  0  0  0  0  0  0
   56.9470   29.6670   44.0840 S   0  0  0  0  0  0  0  0  0  0  0  0
   57.8860   28.7350   43.3680 O   0  0  0  0  0  0  0  0  0  0  0  0
   55.7450   29.8980   43.2110 O   0  0  0  0  0  0  0  0  0  0  0  0
   56.4470   28.9230   45.5710 N   0  0  0  0  0  0  0  0  0  0  0  0
   56.9890   27.6770   46.0460 C   0  0  0  0  0  0  0  0  0  0  0  0
   56.1320   26.5830   46.2620 C   0  0  0  0  0  0  0  0  0  0  0  0
   54.7690   26.6950   46.0160 O   0  0  0  0  0  0  0  0  0  0  0  0
   56.6270   25.4070   46.7290 N   0  0  0  0  0  0  0  0  0  0  0  0
   57.9480   25.2390   46.9950 C   0  0  0  0  0  0  0  0  0  0  0  0
   58.8430   26.2860   46.7740 C   0  0  0  0  0  0  0  0  0  0  0  0
   58.3680   27.5070   46.2880 C   0  0  0  0  0  0  0  0  0  0  0  0
   59.1880   28.4310   46.0470 O   0  0  0  0  0  0  0  0  0  0  0  0
   57.4520   32.4522   39.9462 H   0  0  0  0  0  0  0  0  0  0  0  0
   58.5332   33.5101   41.1046 H   0  0  0  0  0  0  0  0  0  0  0  0
   56.6927   31.1479   41.8221 H   0  0  0  0  0  0  0  0  0  0  0  0
   58.5757   34.2259   42.9506 H   0  0  0  0  0  0  0  0  0  0  0  0
   59.3812   34.6639   45.2622 H   0  0  0  0  0  0  0  0  0  0  0  0
   59.1432   32.9184   47.0241 H   0  0  0  0  0  0  0  0  0  0  0  0
   58.1036   30.7255   46.4763 H   0  0  0  0  0  0  0  0  0  0  0  0
   55.9150   29.5280   46.2360 H   0  0  0  0  0  0  0  0  0  0  0  0
   58.3124   24.2771   47.3848 H   0  0  0  0  0  0  0  0  0  0  0  0
   59.9150   26.1514   46.9808 H   0  0  0  0  0  0  0  0  0  0  0  0
  1  2  2  0
  2  3  1  0
  3  4  2  0
  4  5  1  0
  5  6  2  0
  6  7  1  0
  7  8  2  0
  8  9  1  0
  9 10  2  0
  9 11  2  0
  9 12  1  0
 12 13  1  0
 13 14  2  0
 14 15  1  0
 14 16  1  0
 16 17  1  0
 17 18  2  0
 18 19  1  0
 19 20  2  0
  8  3  1  0
 19 13  1  0
  1 21  1  0
  1 22  1  0
  2 23  1  0
  4 24  1  0
  5 25  1  0
  6 26  1  0
  7 27  1  0
 12 28  1  0
 17 29  1  0
 18 30  1  0
M  CHG  2  15  -1  16  -1
M  END
>  <UniqueID>  (86) 
78

>  <SMILES>  (86) 
C=Cc1ccccc1S(=O)(=O)Nc1c([O-])[n-]ccc1=O

>  <Energy>  (86) 
41.03782345605203

>  <Genealogy>  (86) 
C=Cc1ccccc1S(=O)(=O)Nc1c([O-])[n-]ccc1=O (protonated)
C=Cc1ccccc1S(=O)(=O)Nc1c([O-])[n-]ccc1=O (3D coordinates assigned)
C=Cc1ccccc1S(=O)(=O)Nc1c([O-])[n-]ccc1=O (optimized conformer: 41.03782345605203 kcal/mol)

>  <smiles>  (86) 
C=Cc1ccccc1S(=O)(=O)Nc1c(O)[nH]ccc1=O

>  <score_type>  (86) 
oracle

>  <origin>  (86) 
adg

>  <m_score__min__energy>  (86) 
-13.19

>  <m_primary>  (86) 
energy

$$$$
86:0
     RDKit          3D

 34 36  0  0  0  0  0  0  0  0999 V2000
   57.2616   34.9513   45.8769 H   0  0  0  0  0  0  0  0  0  0  0  0
   57.5070   33.8790   45.8680 C   0  0  0  0  0  0  0  0  0  0  0  0
   56.9490   33.0070   44.9870 N   0  0  0  0  0  0  0  0  0  0  0  0
   57.3920   31.7450   45.1770 C   0  0  0  0  0  0  0  0  0  0  0  0
   56.9760   30.7550   44.4410 N   0  0  0  0  0  0  0  0  0  0  0  0
   56.4010   29.5100   44.8760 C   0  0  0  0  0  0  0  0  0  0  0  0
   55.1490   29.3520   44.8750 O   0  0  0  0  0  0  0  0  0  0  0  0
   57.2760   28.3930   45.3310 C   0  0  0  0  0  0  0  0  0  0  0  0
   58.6740   28.5330   45.2490 C   0  0  0  0  0  0  0  0  0  0  0  0
   59.1073   29.4620   44.8501 H   0  0  0  0  0  0  0  0  0  0  0  0
   59.5140   27.5020   45.6700 C   0  0  0  0  0  0  0  0  0  0  0  0
   60.6062   27.6154   45.6056 H   0  0  0  0  0  0  0  0  0  0  0  0
   58.9590   26.3290   46.1720 C   0  0  0  0  0  0  0  0  0  0  0  0
   59.6143   25.5106   46.5049 H   0  0  0  0  0  0  0  0  0  0  0  0
   57.6090   26.1920   46.2520 N   0  0  0  0  0  0  0  0  0  0  0  0
   57.2180   25.3000   46.6340 H   0  0  0  0  0  0  0  0  0  0  0  0
   56.7610   27.1800   45.8500 C   0  0  0  0  0  0  0  0  0  0  0  0
   55.5180   26.9950   45.9480 O   0  0  0  0  0  0  0  0  0  0  0  0
   58.4970   31.6580   46.4530 S   0  0  0  0  0  0  0  0  0  0  0  0
   58.4120   33.3100   46.7570 C   0  0  0  0  0  0  0  0  0  0  0  0
   59.1090   34.0200   47.8740 C   0  0  0  0  0  0  0  0  0  0  0  0
   58.8474   35.0881   47.8462 H   0  0  0  0  0  0  0  0  0  0  0  0
   58.7925   33.5833   48.8327 H   0  0  0  0  0  0  0  0  0  0  0  0
   60.5990   33.8680   47.7300 C   0  0  0  0  0  0  0  0  0  0  0  0
   61.2000   33.9520   46.4640 C   0  0  0  0  0  0  0  0  0  0  0  0
   60.5769   34.1001   45.5697 H   0  0  0  0  0  0  0  0  0  0  0  0
   62.5880   33.8480   46.3370 C   0  0  0  0  0  0  0  0  0  0  0  0
   63.0536   33.9048   45.3420 H   0  0  0  0  0  0  0  0  0  0  0  0
   63.3860   33.6720   47.4710 C   0  0  0  0  0  0  0  0  0  0  0  0
   64.4780   33.5893   47.3677 H   0  0  0  0  0  0  0  0  0  0  0  0
   62.7960   33.6010   48.7370 C   0  0  0  0  0  0  0  0  0  0  0  0
   63.7980   33.3920   50.1610 Cl  0  0  0  0  0  0  0  0  0  0  0  0
   61.4060   33.7040   48.8680 C   0  0  0  0  0  0  0  0  0  0  0  0
   60.9443   33.6563   49.8653 H   0  0  0  0  0  0  0  0  0  0  0  0
  1  2  1  0
  2  3  1  0
  3  4  1  0
  4  5  2  0
  5  6  1  0
  6  7  2  0
  6  8  1  0
  8  9  2  0
  9 10  1  0
  9 11  1  0
 11 12  1  0
 11 13  2  0
 13 14  1  0
 13 15  1  0
 15 16  1  0
 15 17  1  0
 17 18  2  0
  4 19  1  0
 19 20  1  0
 20 21  1  0
 21 22  1  0
 21 23  1  0
 21 24  1  0
 24 25  2  0
 25 26  1  0
 25 27  1  0
 27 28  1  0
 27 29  2  0
 29 30  1  0
 29 31  1  0
 31 32  1  0
 31 33  2  0
 33 34  1  0
 20  2  2  0
 33 24  1  0
 17  8  1  0
M  CHG  1   3  -1
M  END
>  <UniqueID>  (87) 
79

>  <SMILES>  (87) 
O=C(/N=c1/[n-]cc(Cc2cccc(Cl)c2)s1)c1ccc[nH]c1=O

>  <Energy>  (87) 
71.7250369540429

>  <Genealogy>  (87) 
O=C(N=c1[n-]cc(Cc2cccc(Cl)c2)s1)c1ccc[nH]c1=O (protonated)
O=C(/N=c1/[n-]cc(Cc2cccc(Cl)c2)s1)c1ccc[nH]c1=O (cis-trans isomerization)
O=C(/N=c1/[n-]cc(Cc2cccc(Cl)c2)s1)c1ccc[nH]c1=O (3D coordinates assigned)
O=C(/N=c1/[n-]cc(Cc2cccc(Cl)c2)s1)c1ccc[nH]c1=O (optimized conformer: 71.7250369540429 kcal/mol)

>  <smiles>  (87) 
O=C(N=c1[nH]cc(Cc2cccc(Cl)c2)s1)c1ccc[nH]c1=O

>  <score_type>  (87) 
oracle

>  <origin>  (87) 
adg

>  <m_score__min__energy>  (87) 
-10.83

>  <m_primary>  (87) 
energy

$$$$
87:0
     RDKit          3D

 53 55  0  0  0  0  0  0  0  0999 V2000
   50.5300   24.8450   43.3310 C   0  0  0  0  0  0  0  0  0  0  0  0
   50.1940   23.6000   44.1400 C   0  0  0  0  0  0  0  0  0  0  0  0
   51.3950   22.8870   44.4410 O   0  0  0  0  0  0  0  0  0  0  0  0
   52.2990   23.3190   45.4160 C   0  0  0  0  0  0  0  0  0  0  0  0
   52.0110   23.2180   46.6390 O   0  0  0  0  0  0  0  0  0  0  0  0
   53.5670   23.9420   44.9960 C   0  0  0  0  0  0  0  0  0  0  0  0
   53.9630   24.9730   45.6000 O   0  0  0  0  0  0  0  0  0  0  0  0
   54.4120   23.3760   43.9790 N   0  0  0  0  0  0  0  0  0  0  0  0
   55.6610   23.0270   44.1020 C   0  0  0  0  0  0  0  0  0  0  0  0
   56.5520   23.8940   44.7490 C   0  0  0  0  0  0  0  0  0  0  0  0
   57.8940   23.5230   44.9010 C   0  0  0  0  0  0  0  0  0  0  0  0
   58.7780   24.4020   45.5410 O   0  0  0  0  0  0  0  0  0  0  0  0
   58.6320   25.7950   45.5590 C   0  0  0  0  0  0  0  0  0  0  0  0
   58.3650   26.4660   44.3620 C   0  0  0  0  0  0  0  0  0  0  0  0
   58.1860   27.8520   44.3550 C   0  0  0  0  0  0  0  0  0  0  0  0
   58.2550   28.5900   45.5480 C   0  0  0  0  0  0  0  0  0  0  0  0
   58.0200   30.0110   45.5050 N   0  0  0  0  0  0  0  0  0  0  0  0
   56.9040   30.6510   44.8640 C   0  0  0  0  0  0  0  0  0  0  0  0
   55.8530   30.0040   44.5990 O   0  0  0  0  0  0  0  0  0  0  0  0
   56.9650   32.0590   44.6040 N   0  0  0  0  0  0  0  0  0  0  0  0
   57.7810   33.0000   45.3180 C   0  0  0  0  0  0  0  0  0  0  0  0
   58.4470   34.0460   44.6560 C   0  0  0  0  0  0  0  0  0  0  0  0
   59.2830   34.9080   45.3690 C   0  0  0  0  0  0  0  0  0  0  0  0
   59.4760   34.7260   46.7420 C   0  0  0  0  0  0  0  0  0  0  0  0
   58.8170   33.6810   47.4190 C   0  0  0  0  0  0  0  0  0  0  0  0
   58.9620   33.4570   48.7980 O   0  0  0  0  0  0  0  0  0  0  0  0
   59.2960   32.2060   49.3970 C   0  0  0  0  0  0  0  0  0  0  0  0
   60.2630   32.3730   50.3750 F   0  0  0  0  0  0  0  0  0  0  0  0
   59.7530   31.3280   48.4350 F   0  0  0  0  0  0  0  0  0  0  0  0
   58.1680   31.6810   49.9830 F   0  0  0  0  0  0  0  0  0  0  0  0
   57.9790   32.8210   46.6950 C   0  0  0  0  0  0  0  0  0  0  0  0
   58.4940   27.9060   46.7560 C   0  0  0  0  0  0  0  0  0  0  0  0
   58.6970   26.5230   46.7570 C   0  0  0  0  0  0  0  0  0  0  0  0
   58.3340   22.3000   44.3720 C   0  0  0  0  0  0  0  0  0  0  0  0
   57.4230   21.4830   43.6960 C   0  0  0  0  0  0  0  0  0  0  0  0
   56.1250   21.8580   43.5780 N   0  0  0  0  0  0  0  0  0  0  0  0
   50.7545   25.6770   44.0147 H   0  0  0  0  0  0  0  0  0  0  0  0
   51.4062   24.6448   42.6969 H   0  0  0  0  0  0  0  0  0  0  0  0
   49.6720   25.1128   42.6969 H   0  0  0  0  0  0  0  0  0  0  0  0
   49.6983   23.8946   45.0768 H   0  0  0  0  0  0  0  0  0  0  0  0
   49.5219   22.9544   43.5557 H   0  0  0  0  0  0  0  0  0  0  0  0
   56.1990   24.8614   45.1357 H   0  0  0  0  0  0  0  0  0  0  0  0
   58.2955   25.9003   43.4211 H   0  0  0  0  0  0  0  0  0  0  0  0
   57.9890   28.3704   43.4051 H   0  0  0  0  0  0  0  0  0  0  0  0
   58.7190   30.6360   45.9690 H   0  0  0  0  0  0  0  0  0  0  0  0
   58.3093   34.1859   43.5737 H   0  0  0  0  0  0  0  0  0  0  0  0
   59.7915   35.7331   44.8487 H   0  0  0  0  0  0  0  0  0  0  0  0
   60.1449   35.4014   47.2955 H   0  0  0  0  0  0  0  0  0  0  0  0
   57.4702   31.9951   47.2137 H   0  0  0  0  0  0  0  0  0  0  0  0
   58.5210   28.4634   47.7039 H   0  0  0  0  0  0  0  0  0  0  0  0
   58.9090   26.0022   47.7024 H   0  0  0  0  0  0  0  0  0  0  0  0
   59.3825   21.9881   44.4878 H   0  0  0  0  0  0  0  0  0  0  0  0
   57.7604   20.5320   43.2580 H   0  0  0  0  0  0  0  0  0  0  0  0
  1  2  1  0
  2  3  1  0
  3  4  1  0
  4  5  2  0
  4  6  1  0
  6  7  2  0
  6  8  1  0
  8  9  2  3
  9 10  1  0
 10 11  2  0
 11 12  1  0
 12 13  1  0
 13 14  2  0
 14 15  1  0
 15 16  2  0
 16 17  1  0
 17 18  1  0
 18 19  2  0
 18 20  1  0
 20 21  1  0
 21 22  2  0
 22 23  1  0
 23 24  2  0
 24 25  1  0
 25 26  1  0
 26 27  1  0
 27 28  1  0
 27 29  1  0
 27 30  1  0
 25 31  2  0
 16 32  1  0
 32 33  2  0
 11 34  1  0
 34 35  2  0
 35 36  1  0
 36  9  1  0
 33 13  1  0
 31 21  1  0
  1 37  1  0
  1 38  1  0
  1 39  1  0
  2 40  1  0
  2 41  1  0
 10 42  1  0
 14 43  1  0
 15 44  1  0
 17 45  1  0
 22 46  1  0
 23 47  1  0
 24 48  1  0
 31 49  1  0
 32 50  1  0
 33 51  1  0
 34 52  1  0
 35 53  1  0
M  CHG  2  20  -1  36  -1
M  END
>  <UniqueID>  (88) 
80

>  <SMILES>  (88) 
CCOC(=O)C(=O)N=c1cc(Oc2ccc(NC(=O)[N-]c3cccc(OC(F)(F)F)c3)cc2)cc[n-]1

>  <Energy>  (88) 
71.87851637705258

>  <Genealogy>  (88) 
CCOC(=O)C(=O)N=c1cc(Oc2ccc(NC(=O)[N-]c3cccc(OC(F)(F)F)c3)cc2)cc[n-]1 (protonated)
CCOC(=O)C(=O)N=c1cc(Oc2ccc(NC(=O)[N-]c3cccc(OC(F)(F)F)c3)cc2)cc[n-]1 (3D coordinates assigned)
CCOC(=O)C(=O)N=c1cc(Oc2ccc(NC(=O)[N-]c3cccc(OC(F)(F)F)c3)cc2)cc[n-]1 (optimized conformer: 71.87851637705258 kcal/mol)

>  <smiles>  (88) 
CCOC(=O)C(=O)N=c1cc(Oc2ccc(NC(=O)Nc3cccc(OC(F)(F)F)c3)cc2)cc[nH]1

>  <score_type>  (88) 
oracle

>  <origin>  (88) 
adg

>  <m_score__min__energy>  (88) 
-11.32

>  <m_primary>  (88) 
energy

$$$$
88:0
     RDKit          3D

 62 65  0  0  0  0  0  0  0  0999 V2000
   55.3030   29.3470   44.9100 N   0  0  0  0  0  0  0  0  0  0  0  0
   56.9560   29.2940   44.4000 S   0  0  0  0  0  0  0  0  0  0  0  0
   57.6450   28.1950   45.1580 O   0  0  0  0  0  0  0  0  0  0  0  0
   57.0070   28.9980   42.9270 O   0  0  0  0  0  0  0  0  0  0  0  0
   57.7580   30.8410   44.7250 C   0  0  0  0  0  0  0  0  0  0  0  0
   57.4250   31.9600   43.9430 C   0  0  0  0  0  0  0  0  0  0  0  0
   58.0040   33.2050   44.2000 C   0  0  0  0  0  0  0  0  0  0  0  0
   58.9210   33.3490   45.2400 C   0  0  0  0  0  0  0  0  0  0  0  0
   59.2700   32.2470   46.0220 C   0  0  0  0  0  0  0  0  0  0  0  0
   58.7050   30.9870   45.7700 C   0  0  0  0  0  0  0  0  0  0  0  0
   59.1200   29.8500   46.6150 C   0  0  0  0  0  0  0  0  0  0  0  0
   60.1390   28.9840   46.2000 C   0  0  0  0  0  0  0  0  0  0  0  0
   60.5230   27.9180   47.0150 C   0  0  0  0  0  0  0  0  0  0  0  0
   59.8930   27.7290   48.2520 C   0  0  0  0  0  0  0  0  0  0  0  0
   60.2500   26.7210   48.9960 N   0  0  0  0  0  0  0  0  0  0  0  0
   60.8760   26.7260   50.2930 C   0  0  0  0  0  0  0  0  0  0  0  0
   61.8860   25.9910   50.4630 O   0  0  0  0  0  0  0  0  0  0  0  0
   60.3680   27.5680   51.4400 C   0  0  0  0  0  0  0  0  0  0  0  0
   60.3700   29.0420   51.1180 C   0  0  0  0  0  0  0  0  0  0  0  0
   61.3410   29.5750   50.2560 C   0  0  0  0  0  0  0  0  0  0  0  0
   61.3590   30.9450   49.9760 C   0  0  0  0  0  0  0  0  0  0  0  0
   60.4100   31.7970   50.5580 C   0  0  0  0  0  0  0  0  0  0  0  0
   60.4430   33.5240   50.2210 S   0  0  0  0  0  0  0  0  0  0  0  0
   60.1730   33.7580   48.7600 O   0  0  0  0  0  0  0  0  0  0  0  0
   59.3760   34.2120   51.0260 O   0  0  0  0  0  0  0  0  0  0  0  0
   62.0550   34.1660   50.6550 C   0  0  0  0  0  0  0  0  0  0  0  0
   63.1670   33.1370   50.4200 C   0  0  0  0  0  0  0  0  0  0  0  0
   63.7280   33.2460   49.0570 N   0  0  0  0  0  0  0  0  0  0  0  0
   63.6770   31.9820   48.3170 C   0  0  0  0  0  0  0  0  0  0  0  0
   63.6590   32.3450   46.8430 C   0  0  0  0  0  0  0  0  0  0  0  0
   63.1190   33.7660   46.7890 C   0  0  0  0  0  0  0  0  0  0  0  0
   62.9740   34.2030   48.2410 C   0  0  0  0  0  0  0  0  0  0  0  0
   59.4540   31.2700   51.4370 C   0  0  0  0  0  0  0  0  0  0  0  0
   59.4350   29.9000   51.7170 C   0  0  0  0  0  0  0  0  0  0  0  0
   58.9100   28.5910   48.6370 N   0  0  0  0  0  0  0  0  0  0  0  0
   58.5200   29.6380   47.8620 C   0  0  0  0  0  0  0  0  0  0  0  0
   55.1810   28.6090   45.6370 H   0  0  0  0  0  0  0  0  0  0  0  0
   56.7017   31.8546   43.1209 H   0  0  0  0  0  0  0  0  0  0  0  0
   57.7358   34.0735   43.5805 H   0  0  0  0  0  0  0  0  0  0  0  0
   59.3700   34.3322   45.4445 H   0  0  0  0  0  0  0  0  0  0  0  0
   59.9933   32.3667   46.8420 H   0  0  0  0  0  0  0  0  0  0  0  0
   60.6367   29.1437   45.2321 H   0  0  0  0  0  0  0  0  0  0  0  0
   61.3162   27.2298   46.6877 H   0  0  0  0  0  0  0  0  0  0  0  0
   59.3388   27.2595   51.6756 H   0  0  0  0  0  0  0  0  0  0  0  0
   61.0422   27.4111   52.2949 H   0  0  0  0  0  0  0  0  0  0  0  0
   62.0908   28.9125   49.7989 H   0  0  0  0  0  0  0  0  0  0  0  0
   62.1205   31.3556   49.2967 H   0  0  0  0  0  0  0  0  0  0  0  0
   62.2595   35.0558   50.0415 H   0  0  0  0  0  0  0  0  0  0  0  0
   62.0438   34.4145   51.7265 H   0  0  0  0  0  0  0  0  0  0  0  0
   63.9707   33.3062   51.1517 H   0  0  0  0  0  0  0  0  0  0  0  0
   62.7363   32.1315   50.5361 H   0  0  0  0  0  0  0  0  0  0  0  0
   64.5624   31.3712   48.5470 H   0  0  0  0  0  0  0  0  0  0  0  0
   62.7882   31.3955   48.5928 H   0  0  0  0  0  0  0  0  0  0  0  0
   64.6746   32.3020   46.4227 H   0  0  0  0  0  0  0  0  0  0  0  0
   63.0430   31.6484   46.2554 H   0  0  0  0  0  0  0  0  0  0  0  0
   63.8223   34.4244   46.2580 H   0  0  0  0  0  0  0  0  0  0  0  0
   62.1614   33.8180   46.2501 H   0  0  0  0  0  0  0  0  0  0  0  0
   63.3829   35.2156   48.3728 H   0  0  0  0  0  0  0  0  0  0  0  0
   61.9155   34.2234   48.5397 H   0  0  0  0  0  0  0  0  0  0  0  0
   58.7163   31.9361   51.9082 H   0  0  0  0  0  0  0  0  0  0  0  0
   58.6838   29.4931   52.4099 H   0  0  0  0  0  0  0  0  0  0  0  0
   57.7320   30.3193   48.2153 H   0  0  0  0  0  0  0  0  0  0  0  0
  1  2  1  0
  2  3  2  0
  2  4  2  0
  2  5  1  0
  5  6  2  0
  6  7  1  0
  7  8  2  0
  8  9  1  0
  9 10  2  0
 10 11  1  0
 11 12  1  0
 12 13  2  0
 13 14  1  0
 14 15  2  3
 15 16  1  0
 16 17  2  0
 16 18  1  0
 18 19  1  0
 19 20  2  0
 20 21  1  0
 21 22  2  0
 22 23  1  0
 23 24  2  0
 23 25  2  0
 23 26  1  0
 26 27  1  0
 27 28  1  0
 28 29  1  0
 29 30  1  0
 30 31  1  0
 31 32  1  0
 22 33  1  0
 33 34  2  0
 14 35  1  0
 35 36  1  0
 10  5  1  0
 36 11  2  0
 34 19  1  0
 32 28  1  0
  1 37  1  0
  6 38  1  0
  7 39  1  0
  8 40  1  0
  9 41  1  0
 12 42  1  0
 13 43  1  0
 18 44  1  0
 18 45  1  0
 20 46  1  0
 21 47  1  0
 26 48  1  0
 26 49  1  0
 27 50  1  0
 27 51  1  0
 29 52  1  0
 29 53  1  0
 30 54  1  0
 30 55  1  0
 31 56  1  0
 31 57  1  0
 32 58  1  0
 32 59  1  0
 33 60  1  0
 34 61  1  0
 36 62  1  0
M  CHG  2   1  -1  35  -1
M  END
>  <UniqueID>  (89) 
81

>  <SMILES>  (89) 
[NH-]S(=O)(=O)c1ccccc1-c1ccc(=NC(=O)Cc2ccc(S(=O)(=O)CCN3CCCC3)cc2)[n-]c1

>  <Energy>  (89) 
77.05226377692455

>  <Genealogy>  (89) 
[NH-]S(=O)(=O)c1ccccc1-c1ccc(=NC(=O)Cc2ccc(S(=O)(=O)CCN3CCCC3)cc2)[n-]c1 (protonated)
[NH-]S(=O)(=O)c1ccccc1-c1ccc(=NC(=O)Cc2ccc(S(=O)(=O)CCN3CCCC3)cc2)[n-]c1 (3D coordinates assigned)
[NH-]S(=O)(=O)c1ccccc1-c1ccc(=NC(=O)Cc2ccc(S(=O)(=O)CCN3CCCC3)cc2)[n-]c1 (nonaromatic ring conformer: 77.05226377692455 kcal/mol)

>  <smiles>  (89) 
NS(=O)(=O)c1ccccc1-c1ccc(=NC(=O)Cc2ccc(S(=O)(=O)CCN3CCCC3)cc2)[nH]c1

>  <score_type>  (89) 
oracle

>  <origin>  (89) 
adg

>  <m_score__min__energy>  (89) 
-13.859999999999999

>  <m_primary>  (89) 
energy

$$$$
89:0
     RDKit          3D

 39 41  0  0  0  0  0  0  0  0999 V2000
   59.1530   27.3430   47.7800 C   0  0  0  0  0  0  0  0  0  0  0  0
   58.2430   27.8610   46.7610 N   0  0  0  0  0  0  0  0  0  0  0  0
   58.3870   29.0710   46.2430 N   0  0  0  0  0  0  0  0  0  0  0  0
   57.4190   29.2470   45.3210 C   0  0  0  0  0  0  0  0  0  0  0  0
   57.2600   30.4710   44.5270 C   0  0  0  0  0  0  0  0  0  0  0  0
   57.4320   30.4340   43.2790 O   0  0  0  0  0  0  0  0  0  0  0  0
   56.8600   31.6840   45.1770 N   0  0  0  0  0  0  0  0  0  0  0  0
   57.7130   32.7770   45.5490 C   0  0  0  0  0  0  0  0  0  0  0  0
   58.3510   33.5110   44.5440 C   0  0  0  0  0  0  0  0  0  0  0  0
   59.1700   34.5920   44.8770 C   0  0  0  0  0  0  0  0  0  0  0  0
   59.3300   34.9400   46.2180 C   0  0  0  0  0  0  0  0  0  0  0  0
   58.6830   34.2370   47.1850 N   0  0  0  0  0  0  0  0  0  0  0  0
   57.8840   33.1780   46.8870 C   0  0  0  0  0  0  0  0  0  0  0  0
   56.6280   28.1160   45.2390 C   0  0  0  0  0  0  0  0  0  0  0  0
   57.1760   27.2630   46.1720 C   0  0  0  0  0  0  0  0  0  0  0  0
   56.7190   26.0620   46.3970 N   0  0  0  0  0  0  0  0  0  0  0  0
   57.0840   24.8570   45.7180 C   0  0  0  0  0  0  0  0  0  0  0  0
   58.4400   24.5610   45.5230 C   0  0  0  0  0  0  0  0  0  0  0  0
   58.8180   23.3680   44.9040 C   0  0  0  0  0  0  0  0  0  0  0  0
   57.8460   22.4560   44.4930 C   0  0  0  0  0  0  0  0  0  0  0  0
   56.4920   22.7290   44.7080 C   0  0  0  0  0  0  0  0  0  0  0  0
   56.0990   23.9260   45.3270 C   0  0  0  0  0  0  0  0  0  0  0  0
   54.3860   24.2580   45.6090 S   0  0  0  0  0  0  0  0  0  0  0  0
   54.0890   25.9600   45.6650 N   0  0  0  0  0  0  0  0  0  0  0  0
   53.5760   23.6610   44.4930 O   0  0  0  0  0  0  0  0  0  0  0  0
   53.9630   23.6490   46.9160 O   0  0  0  0  0  0  0  0  0  0  0  0
   58.7528   27.5708   48.7790 H   0  0  0  0  0  0  0  0  0  0  0  0
   59.2514   26.2536   47.6641 H   0  0  0  0  0  0  0  0  0  0  0  0
   60.1400   27.8146   47.6641 H   0  0  0  0  0  0  0  0  0  0  0  0
   58.2074   33.2362   43.4886 H   0  0  0  0  0  0  0  0  0  0  0  0
   59.6837   35.1632   44.0896 H   0  0  0  0  0  0  0  0  0  0  0  0
   59.9800   35.7836   46.4933 H   0  0  0  0  0  0  0  0  0  0  0  0
   57.3704   32.6338   47.6932 H   0  0  0  0  0  0  0  0  0  0  0  0
   55.7634   27.9387   44.5825 H   0  0  0  0  0  0  0  0  0  0  0  0
   59.2096   25.2715   45.8590 H   0  0  0  0  0  0  0  0  0  0  0  0
   59.8831   23.1472   44.7403 H   0  0  0  0  0  0  0  0  0  0  0  0
   58.1455   21.5201   43.9987 H   0  0  0  0  0  0  0  0  0  0  0  0
   55.7303   22.0018   44.3904 H   0  0  0  0  0  0  0  0  0  0  0  0
   54.9180   26.4300   45.2390 H   0  0  0  0  0  0  0  0  0  0  0  0
  1  2  1  0
  2  3  1  0
  3  4  1  0
  4  5  1  0
  5  6  2  0
  5  7  1  0
  7  8  1  0
  8  9  2  0
  9 10  1  0
 10 11  2  0
 11 12  1  0
 12 13  2  0
  4 14  2  0
 14 15  1  0
 15 16  2  3
 16 17  1  0
 17 18  2  0
 18 19  1  0
 19 20  2  0
 20 21  1  0
 21 22  2  0
 22 23  1  0
 23 24  1  0
 23 25  2  0
 23 26  2  0
 15  2  1  0
 22 17  1  0
 13  8  1  0
  1 27  1  0
  1 28  1  0
  1 29  1  0
  9 30  1  0
 10 31  1  0
 11 32  1  0
 13 33  1  0
 14 34  1  0
 18 35  1  0
 19 36  1  0
 20 37  1  0
 21 38  1  0
 24 39  1  0
M  CHG  3   3  -1   7  -1  24  -1
M  END
>  <UniqueID>  (90) 
82

>  <SMILES>  (90) 
Cn1[n-]c(C(=O)[N-]c2cccnc2)cc1=Nc1ccccc1S([NH-])(=O)=O

>  <Energy>  (90) 
87.70202356785299

>  <Genealogy>  (90) 
Cn1[n-]c(C(=O)[N-]c2cccnc2)cc1=Nc1ccccc1S([NH-])(=O)=O (protonated)
Cn1[n-]c(C(=O)[N-]c2cccnc2)cc1=Nc1ccccc1S([NH-])(=O)=O (3D coordinates assigned)
Cn1[n-]c(C(=O)[N-]c2cccnc2)cc1=Nc1ccccc1S([NH-])(=O)=O (optimized conformer: 87.70202356785299 kcal/mol)

>  <smiles>  (90) 
Cn1[nH]c(C(=O)Nc2cccnc2)cc1=Nc1ccccc1S(N)(=O)=O

>  <score_type>  (90) 
oracle

>  <origin>  (90) 
adg

>  <m_score__min__energy>  (90) 
-13.82

>  <m_primary>  (90) 
energy

$$$$
90:0
     RDKit          3D

 44 46  0  0  0  0  0  0  0  0999 V2000
   63.7610   28.8550   52.4350 N   0  0  0  0  0  0  0  0  0  0  0  0
   62.9560   29.2570   51.7070 C   0  0  0  0  0  0  0  0  0  0  0  0
   61.9540   29.7580   50.7980 C   0  0  0  0  0  0  0  0  0  0  0  0
   61.8250   31.0930   50.6660 C   0  0  0  0  0  0  0  0  0  0  0  0
   62.0620   31.8400   49.4090 C   0  0  0  0  0  0  0  0  0  0  0  0
   63.3580   32.2310   49.0630 C   0  0  0  0  0  0  0  0  0  0  0  0
   64.4380   31.9060   49.8780 O   0  0  0  0  0  0  0  0  0  0  0  0
   63.5750   32.9230   47.9190 N   0  0  0  0  0  0  0  0  0  0  0  0
   62.5560   33.2610   47.0900 C   0  0  0  0  0  0  0  0  0  0  0  0
   62.8160   33.8830   46.0240 O   0  0  0  0  0  0  0  0  0  0  0  0
   61.2660   32.9220   47.4070 N   0  0  0  0  0  0  0  0  0  0  0  0
   60.1840   33.2810   46.5220 C   0  0  0  0  0  0  0  0  0  0  0  0
   59.2910   32.3010   46.0570 C   0  0  0  0  0  0  0  0  0  0  0  0
   58.2460   32.6520   45.1970 C   0  0  0  0  0  0  0  0  0  0  0  0
   58.0860   33.9810   44.7940 C   0  0  0  0  0  0  0  0  0  0  0  0
   58.9720   34.9610   45.2510 C   0  0  0  0  0  0  0  0  0  0  0  0
   60.0180   34.6150   46.1110 C   0  0  0  0  0  0  0  0  0  0  0  0
   61.0050   32.2360   48.5660 C   0  0  0  0  0  0  0  0  0  0  0  0
   59.8130   31.9770   48.8960 O   0  0  0  0  0  0  0  0  0  0  0  0
   61.1630   28.7760   50.0170 C   0  0  0  0  0  0  0  0  0  0  0  0
   61.1060   27.5720   50.3920 O   0  0  0  0  0  0  0  0  0  0  0  0
   60.4700   29.1920   48.8280 N   0  0  0  0  0  0  0  0  0  0  0  0
   59.5250   28.3700   48.1230 C   0  0  0  0  0  0  0  0  0  0  0  0
   58.5680   28.9310   47.2580 C   0  0  0  0  0  0  0  0  0  0  0  0
   57.6720   28.1080   46.5690 C   0  0  0  0  0  0  0  0  0  0  0  0
   57.7240   26.7170   46.7280 C   0  0  0  0  0  0  0  0  0  0  0  0
   56.6050   25.6810   45.8490 S   0  0  0  0  0  0  0  0  0  0  0  0
   55.0070   26.3270   45.9640 N   0  0  0  0  0  0  0  0  0  0  0  0
   57.0130   25.6020   44.4040 O   0  0  0  0  0  0  0  0  0  0  0  0
   56.6270   24.2960   46.4320 O   0  0  0  0  0  0  0  0  0  0  0  0
   58.6960   26.1540   47.5640 C   0  0  0  0  0  0  0  0  0  0  0  0
   59.5930   26.9750   48.2530 C   0  0  0  0  0  0  0  0  0  0  0  0
   61.5226   31.6680   51.5536 H   0  0  0  0  0  0  0  0  0  0  0  0
   59.4145   31.2539   46.3707 H   0  0  0  0  0  0  0  0  0  0  0  0
   57.5487   31.8812   44.8369 H   0  0  0  0  0  0  0  0  0  0  0  0
   57.2632   34.2555   44.1175 H   0  0  0  0  0  0  0  0  0  0  0  0
   58.8457   36.0065   44.9331 H   0  0  0  0  0  0  0  0  0  0  0  0
   60.7136   35.3891   46.4674 H   0  0  0  0  0  0  0  0  0  0  0  0
   60.7630   30.0910   48.3820 H   0  0  0  0  0  0  0  0  0  0  0  0
   58.5244   30.0218   47.1231 H   0  0  0  0  0  0  0  0  0  0  0  0
   56.9227   28.5547   45.8989 H   0  0  0  0  0  0  0  0  0  0  0  0
   55.0320   27.0740   46.6950 H   0  0  0  0  0  0  0  0  0  0  0  0
   58.7538   25.0615   47.6789 H   0  0  0  0  0  0  0  0  0  0  0  0
   60.3580   26.5238   48.9020 H   0  0  0  0  0  0  0  0  0  0  0  0
  1  2  3  0
  2  3  1  0
  3  4  2  3
  4  5  1  0
  5  6  2  0
  6  7  1  0
  6  8  1  0
  8  9  1  0
  9 10  2  0
  9 11  1  0
 11 12  1  0
 12 13  2  0
 13 14  1  0
 14 15  2  0
 15 16  1  0
 16 17  2  0
 11 18  1  0
 18 19  2  0
  3 20  1  0
 20 21  2  0
 20 22  1  0
 22 23  1  0
 23 24  2  0
 24 25  1  0
 25 26  2  0
 26 27  1  0
 27 28  1  0
 27 29  2  0
 27 30  2  0
 26 31  1  0
 31 32  2  0
 18  5  1  0
 32 23  1  0
 17 12  1  0
  4 33  1  0
 13 34  1  0
 14 35  1  0
 15 36  1  0
 16 37  1  0
 17 38  1  0
 22 39  1  0
 24 40  1  0
 25 41  1  0
 28 42  1  0
 31 43  1  0
 32 44  1  0
M  CHG  3   7  -1   8  -1  28  -1
M  END
>  <UniqueID>  (91) 
83

>  <SMILES>  (91) 
N#CC(=Cc1c([O-])[n-]c(=O)n(-c2ccccc2)c1=O)C(=O)Nc1ccc(S([NH-])(=O)=O)cc1

>  <Energy>  (91) 
70.48232794852407

>  <Genealogy>  (91) 
N#CC(=Cc1c([O-])[n-]c(=O)n(-c2ccccc2)c1=O)C(=O)Nc1ccc(S([NH-])(=O)=O)cc1 (protonated)
N#CC(=Cc1c([O-])[n-]c(=O)n(-c2ccccc2)c1=O)C(=O)Nc1ccc(S([NH-])(=O)=O)cc1 (3D coordinates assigned)
N#CC(=Cc1c([O-])[n-]c(=O)n(-c2ccccc2)c1=O)C(=O)Nc1ccc(S([NH-])(=O)=O)cc1 (optimized conformer: 70.48232794852407 kcal/mol)

>  <smiles>  (91) 
N#CC(=Cc1c(O)[nH]c(=O)n(-c2ccccc2)c1=O)C(=O)Nc1ccc(S(N)(=O)=O)cc1

>  <score_type>  (91) 
oracle

>  <origin>  (91) 
adg

>  <m_score__min__energy>  (91) 
-13.140000000000001

>  <m_primary>  (91) 
energy

$$$$
