0:0
     RDKit          3D

 40 42  0  0  0  0  0  0  0  0999 V2000
   59.2530   34.7680   44.2010 O   0  0  0  0  0  0  0  0  0  0  0  0
   58.2750   33.8450   44.8680 S   0  0  0  0  0  0  0  0  0  0  0  0
   56.9140   34.4840   44.8490 O   0  0  0  0  0  0  0  0  0  0  0  0
   58.2060   32.3530   43.9840 N   0  0  0  0  0  0  0  0  0  0  0  0
   57.5540   31.1540   44.4300 C   0  0  0  0  0  0  0  0  0  0  0  0
   56.2630   30.8820   43.9700 C   0  0  0  0  0  0  0  0  0  0  0  0
   55.5960   29.7250   44.3760 C   0  0  0  0  0  0  0  0  0  0  0  0
   56.2160   28.8210   45.2460 C   0  0  0  0  0  0  0  0  0  0  0  0
   55.5350   27.6660   45.6160 O   0  0  0  0  0  0  0  0  0  0  0  0
   57.5130   29.0810   45.7310 C   0  0  0  0  0  0  0  0  0  0  0  0
   58.2270   28.0710   46.6080 C   0  0  0  0  0  0  0  0  0  0  0  0
   59.1800   28.7240   47.5780 C   0  0  0  0  0  0  0  0  0  0  0  0
   58.8890   28.7380   48.9510 C   0  0  0  0  0  0  0  0  0  0  0  0
   59.7410   29.3930   49.8460 C   0  0  0  0  0  0  0  0  0  0  0  0
   60.8870   30.0450   49.3770 C   0  0  0  0  0  0  0  0  0  0  0  0
   61.7250   30.6980   50.2800 O   0  0  0  0  0  0  0  0  0  0  0  0
   61.1810   30.0360   48.0080 C   0  0  0  0  0  0  0  0  0  0  0  0
   60.3320   29.3810   47.1120 C   0  0  0  0  0  0  0  0  0  0  0  0
   58.1780   30.2470   45.3020 C   0  0  0  0  0  0  0  0  0  0  0  0
   58.8040   33.5550   46.5260 C   0  0  0  0  0  0  0  0  0  0  0  0
   58.0470   32.7350   47.3770 C   0  0  0  0  0  0  0  0  0  0  0  0
   58.4880   32.4710   48.6770 C   0  0  0  0  0  0  0  0  0  0  0  0
   59.6830   33.0300   49.1370 C   0  0  0  0  0  0  0  0  0  0  0  0
   60.1210   32.7670   50.4290 O   0  0  0  0  0  0  0  0  0  0  0  0
   60.4390   33.8550   48.2960 C   0  0  0  0  0  0  0  0  0  0  0  0
   60.0030   34.1170   46.9930 C   0  0  0  0  0  0  0  0  0  0  0  0
   60.7510   34.9140   46.1890 F   0  0  0  0  0  0  0  0  0  0  0  0
   55.7687   31.5847   43.2830 H   0  0  0  0  0  0  0  0  0  0  0  0
   54.5784   29.5229   44.0105 H   0  0  0  0  0  0  0  0  0  0  0  0
   57.4758   27.5045   47.1779 H   0  0  0  0  0  0  0  0  0  0  0  0
   58.8152   27.4130   45.9514 H   0  0  0  0  0  0  0  0  0  0  0  0
   57.9869   28.2316   49.3247 H   0  0  0  0  0  0  0  0  0  0  0  0
   59.5097   29.3957   50.9214 H   0  0  0  0  0  0  0  0  0  0  0  0
   61.4810   31.6010   50.6680 H   0  0  0  0  0  0  0  0  0  0  0  0
   62.0824   30.5457   47.6370 H   0  0  0  0  0  0  0  0  0  0  0  0
   60.5662   29.3795   46.0372 H   0  0  0  0  0  0  0  0  0  0  0  0
   59.1999   30.4496   45.6550 H   0  0  0  0  0  0  0  0  0  0  0  0
   57.1028   32.2982   47.0196 H   0  0  0  0  0  0  0  0  0  0  0  0
   57.8939   31.8229   49.3381 H   0  0  0  0  0  0  0  0  0  0  0  0
   61.3776   34.2980   48.6604 H   0  0  0  0  0  0  0  0  0  0  0  0
  1  2  2  0
  2  3  2  0
  2  4  1  0
  4  5  1  0
  5  6  2  0
  6  7  1  0
  7  8  2  0
  8  9  1  0
  8 10  1  0
 10 11  1  0
 11 12  1  0
 12 13  2  0
 13 14  1  0
 14 15  2  0
 15 16  1  0
 15 17  1  0
 17 18  2  0
 10 19  2  0
  2 20  1  0
 20 21  2  0
 21 22  1  0
 22 23  2  0
 23 24  1  0
 23 25  1  0
 25 26  2  0
 26 27  1  0
 19  5  1  0
 26 20  1  0
 18 12  1  0
  6 28  1  0
  7 29  1  0
 11 30  1  0
 11 31  1  0
 13 32  1  0
 14 33  1  0
 16 34  1  0
 17 35  1  0
 18 36  1  0
 19 37  1  0
 21 38  1  0
 22 39  1  0
 25 40  1  0
M  CHG  3   4  -1   9  -1  24  -1
M  END
>  <UniqueID>  (1) 
1

>  <SMILES>  (1) 
O=S(=O)([N-]c1ccc([O-])c(Cc2ccc(O)cc2)c1)c1ccc([O-])cc1F

>  <Energy>  (1) 
45.38632908393581

>  <Genealogy>  (1) 
O=S(=O)([N-]c1ccc([O-])c(Cc2ccc(O)cc2)c1)c1ccc([O-])cc1F (protonated)
O=S(=O)([N-]c1ccc([O-])c(Cc2ccc(O)cc2)c1)c1ccc([O-])cc1F (3D coordinates assigned)
O=S(=O)([N-]c1ccc([O-])c(Cc2ccc(O)cc2)c1)c1ccc([O-])cc1F (optimized conformer: 45.38632908393581 kcal/mol)

>  <smiles>  (1) 
O=S(=O)(Nc1ccc(O)c(Cc2ccc(O)cc2)c1)c1ccc(O)cc1F

>  <score_type>  (1) 
oracle

>  <origin>  (1) 
adg

>  <m_score__min__energy>  (1) 
-12.529999999999999

>  <m_primary>  (1) 
energy

$$$$
1:0
     RDKit          3D

 39 41  0  0  0  0  0  0  0  0999 V2000
   59.6870   33.2380   46.3290 C   0  0  0  0  0  0  0  0  0  0  0  0
   60.0160   31.8920   46.1740 O   0  0  0  0  0  0  0  0  0  0  0  0
   59.1270   30.8400   46.0570 C   0  0  0  0  0  0  0  0  0  0  0  0
   57.9390   30.9330   45.3340 C   0  0  0  0  0  0  0  0  0  0  0  0
   57.0670   29.8530   45.2380 C   0  0  0  0  0  0  0  0  0  0  0  0
   55.9060   30.0100   44.5070 O   0  0  0  0  0  0  0  0  0  0  0  0
   55.9200   29.7460   43.1140 C   0  0  0  0  0  0  0  0  0  0  0  0
   57.4110   28.6850   45.8790 C   0  0  0  0  0  0  0  0  0  0  0  0
   58.5930   28.5970   46.5970 C   0  0  0  0  0  0  0  0  0  0  0  0
   58.9850   27.0600   47.4060 S   0  0  0  0  0  0  0  0  0  0  0  0
   58.2550   25.7360   46.4210 C   0  0  0  0  0  0  0  0  0  0  0  0
   56.9440   25.8640   46.0160 C   0  0  0  0  0  0  0  0  0  0  0  0
   56.2990   24.8910   45.2530 C   0  0  0  0  0  0  0  0  0  0  0  0
   57.0320   23.7760   44.9110 C   0  0  0  0  0  0  0  0  0  0  0  0
   56.4040   22.8420   44.1740 N   0  0  0  0  0  0  0  0  0  0  0  0
   57.1050   21.7270   43.8220 C   0  0  0  0  0  0  0  0  0  0  0  0
   56.4700   20.8560   43.1170 N   0  0  0  0  0  0  0  0  0  0  0  0
   58.3860   21.5860   44.2070 N   0  0  0  0  0  0  0  0  0  0  0  0
   59.0300   22.5230   44.9500 C   0  0  0  0  0  0  0  0  0  0  0  0
   60.2480   22.2730   45.2540 N   0  0  0  0  0  0  0  0  0  0  0  0
   58.3430   23.6570   45.3200 C   0  0  0  0  0  0  0  0  0  0  0  0
   58.9700   24.6160   46.0690 C   0  0  0  0  0  0  0  0  0  0  0  0
   59.4720   29.6610   46.7020 C   0  0  0  0  0  0  0  0  0  0  0  0
   59.6279   33.4800   47.4004 H   0  0  0  0  0  0  0  0  0  0  0  0
   60.4593   33.8612   45.8544 H   0  0  0  0  0  0  0  0  0  0  0  0
   58.7143   33.4347   45.8544 H   0  0  0  0  0  0  0  0  0  0  0  0
   57.6862   31.8775   44.8301 H   0  0  0  0  0  0  0  0  0  0  0  0
   55.9776   28.6603   42.9471 H   0  0  0  0  0  0  0  0  0  0  0  0
   54.9998   30.1389   42.6571 H   0  0  0  0  0  0  0  0  0  0  0  0
   56.7935   30.2340   42.6571 H   0  0  0  0  0  0  0  0  0  0  0  0
   56.7420   27.8137   45.8210 H   0  0  0  0  0  0  0  0  0  0  0  0
   56.3858   26.7667   46.3051 H   0  0  0  0  0  0  0  0  0  0  0  0
   55.2516   25.0087   44.9383 H   0  0  0  0  0  0  0  0  0  0  0  0
   55.4090   22.9610   43.8800 H   0  0  0  0  0  0  0  0  0  0  0  0
   56.8550   19.8950   43.1050 H   0  0  0  0  0  0  0  0  0  0  0  0
   58.8980   20.7030   43.9110 H   0  0  0  0  0  0  0  0  0  0  0  0
   61.0740   22.2480   44.6570 H   0  0  0  0  0  0  0  0  0  0  0  0
   60.0178   24.4937   46.3808 H   0  0  0  0  0  0  0  0  0  0  0  0
   60.4074   29.5752   47.2744 H   0  0  0  0  0  0  0  0  0  0  0  0
  1  2  1  0
  2  3  1  0
  3  4  2  0
  4  5  1  0
  5  6  1  0
  6  7  1  0
  5  8  2  0
  8  9  1  0
  9 10  1  0
 10 11  1  0
 11 12  2  0
 12 13  1  0
 13 14  2  0
 14 15  1  0
 15 16  1  0
 16 17  2  3
 16 18  1  0
 18 19  1  0
 19 20  2  3
 19 21  1  0
 21 22  2  0
  9 23  2  0
 23  3  1  0
 22 11  1  0
 21 14  1  0
  1 24  1  0
  1 25  1  0
  1 26  1  0
  4 27  1  0
  7 28  1  0
  7 29  1  0
  7 30  1  0
  8 31  1  0
 12 32  1  0
 13 33  1  0
 15 34  1  0
 17 35  1  0
 18 36  1  0
 20 37  1  0
 22 38  1  0
 23 39  1  0
M  END
>  <smiles>  (2) 
COc1cc(OC)cc(Sc2ccc3[nH]c(=N)[nH]c(=N)c3c2)c1

>  <score_type>  (2) 
oracle

>  <origin>  (2) 
adg

>  <m_score__min__energy>  (2) 
-7.6100000000000003

>  <m_primary>  (2) 
energy

$$$$
2:0
     RDKit          3D

 46 48  0  0  0  0  0  0  0  0999 V2000
   55.1460   29.2930   44.7620 N   0  0  0  0  0  0  0  0  0  0  0  0
   56.8270   29.0600   45.0910 S   0  0  0  0  0  0  0  0  0  0  0  0
   57.5950   29.0160   43.7990 O   0  0  0  0  0  0  0  0  0  0  0  0
   57.3140   30.2230   45.9090 O   0  0  0  0  0  0  0  0  0  0  0  0
   57.0740   27.5480   45.9820 C   0  0  0  0  0  0  0  0  0  0  0  0
   56.0680   26.5680   45.9440 C   0  0  0  0  0  0  0  0  0  0  0  0
   56.2420   25.3460   46.5950 C   0  0  0  0  0  0  0  0  0  0  0  0
   57.4210   25.0850   47.2910 C   0  0  0  0  0  0  0  0  0  0  0  0
   58.4270   26.0510   47.3480 C   0  0  0  0  0  0  0  0  0  0  0  0
   58.2620   27.2900   46.7080 C   0  0  0  0  0  0  0  0  0  0  0  0
   59.3460   28.2860   46.8170 C   0  0  0  0  0  0  0  0  0  0  0  0
   60.1060   28.6240   45.6890 C   0  0  0  0  0  0  0  0  0  0  0  0
   61.1180   29.5840   45.7820 C   0  0  0  0  0  0  0  0  0  0  0  0
   61.3890   30.2080   47.0100 C   0  0  0  0  0  0  0  0  0  0  0  0
   62.4360   31.2840   47.1080 C   0  0  0  0  0  0  0  0  0  0  0  0
   61.8810   32.4660   47.7650 N   0  0  0  0  0  0  0  0  0  0  0  0
   62.0270   32.7020   49.1740 C   0  0  0  0  0  0  0  0  0  0  0  0
   62.5500   31.8220   49.9100 O   0  0  0  0  0  0  0  0  0  0  0  0
   61.5760   33.9660   49.7740 C   0  0  0  0  0  0  0  0  0  0  0  0
   62.3360   34.6010   50.5540 O   0  0  0  0  0  0  0  0  0  0  0  0
   60.2880   34.4910   49.4280 N   0  0  0  0  0  0  0  0  0  0  0  0
   59.5160   34.1610   48.2640 C   0  0  0  0  0  0  0  0  0  0  0  0
   58.6310   33.0660   48.2430 C   0  0  0  0  0  0  0  0  0  0  0  0
   57.9150   32.7650   47.0800 C   0  0  0  0  0  0  0  0  0  0  0  0
   58.0840   33.5410   45.9300 C   0  0  0  0  0  0  0  0  0  0  0  0
   57.3880   33.2430   44.8040 F   0  0  0  0  0  0  0  0  0  0  0  0
   58.9790   34.6150   45.9380 C   0  0  0  0  0  0  0  0  0  0  0  0
   59.1540   35.3640   44.8210 F   0  0  0  0  0  0  0  0  0  0  0  0
   59.6980   34.9180   47.0990 C   0  0  0  0  0  0  0  0  0  0  0  0
   60.6420   29.8530   48.1440 C   0  0  0  0  0  0  0  0  0  0  0  0
   59.6320   28.8920   48.0490 C   0  0  0  0  0  0  0  0  0  0  0  0
   54.6580   29.3500   45.6840 H   0  0  0  0  0  0  0  0  0  0  0  0
   55.1348   26.7657   45.3962 H   0  0  0  0  0  0  0  0  0  0  0  0
   55.4467   24.5869   46.5588 H   0  0  0  0  0  0  0  0  0  0  0  0
   57.5588   24.1173   47.7956 H   0  0  0  0  0  0  0  0  0  0  0  0
   59.3558   25.8402   47.8983 H   0  0  0  0  0  0  0  0  0  0  0  0
   59.9053   28.1316   44.7260 H   0  0  0  0  0  0  0  0  0  0  0  0
   61.7038   29.8513   44.8901 H   0  0  0  0  0  0  0  0  0  0  0  0
   63.2891   30.9095   47.6928 H   0  0  0  0  0  0  0  0  0  0  0  0
   62.7677   31.5571   46.0954 H   0  0  0  0  0  0  0  0  0  0  0  0
   61.3800   33.1670   47.1730 H   0  0  0  0  0  0  0  0  0  0  0  0
   58.5026   32.4464   49.1428 H   0  0  0  0  0  0  0  0  0  0  0  0
   57.2168   31.9150   47.0703 H   0  0  0  0  0  0  0  0  0  0  0  0
   60.4108   35.7558   47.0974 H   0  0  0  0  0  0  0  0  0  0  0  0
   60.8524   30.3330   49.1111 H   0  0  0  0  0  0  0  0  0  0  0  0
   59.0588   28.6096   48.9444 H   0  0  0  0  0  0  0  0  0  0  0  0
  1  2  1  0
  2  3  2  0
  2  4  2  0
  2  5  1  0
  5  6  2  0
  6  7  1  0
  7  8  2  0
  8  9  1  0
  9 10  2  0
 10 11  1  0
 11 12  2  0
 12 13  1  0
 13 14  2  0
 14 15  1  0
 15 16  1  0
 16 17  1  0
 17 18  2  0
 17 19  1  0
 19 20  2  0
 19 21  1  0
 21 22  1  0
 22 23  2  0
 23 24  1  0
 24 25  2  0
 25 26  1  0
 25 27  1  0
 27 28  1  0
 27 29  2  0
 14 30  1  0
 30 31  2  0
 10  5  1  0
 31 11  1  0
 29 22  1  0
  1 32  1  0
  6 33  1  0
  7 34  1  0
  8 35  1  0
  9 36  1  0
 12 37  1  0
 13 38  1  0
 15 39  1  0
 15 40  1  0
 16 41  1  0
 23 42  1  0
 24 43  1  0
 29 44  1  0
 30 45  1  0
 31 46  1  0
M  CHG  2   1  -1  21  -1
M  END
>  <UniqueID>  (3) 
2

>  <SMILES>  (3) 
[NH-]S(=O)(=O)c1ccccc1-c1ccc(CNC(=O)C(=O)[N-]c2ccc(F)c(F)c2)cc1

>  <Energy>  (3) 
56.6385316330059

>  <Genealogy>  (3) 
[NH-]S(=O)(=O)c1ccccc1-c1ccc(CNC(=O)C(=O)[N-]c2ccc(F)c(F)c2)cc1 (protonated)
[NH-]S(=O)(=O)c1ccccc1-c1ccc(CNC(=O)C(=O)[N-]c2ccc(F)c(F)c2)cc1 (3D coordinates assigned)
[NH-]S(=O)(=O)c1ccccc1-c1ccc(CNC(=O)C(=O)[N-]c2ccc(F)c(F)c2)cc1 (optimized conformer: 56.6385316330059 kcal/mol)

>  <smiles>  (3) 
NS(=O)(=O)c1ccccc1-c1ccc(CNC(=O)C(=O)Nc2ccc(F)c(F)c2)cc1

>  <score_type>  (3) 
oracle

>  <origin>  (3) 
adg

>  <m_score__min__energy>  (3) 
-12.640000000000001

>  <m_primary>  (3) 
energy

$$$$
3:0
     RDKit          3D

 37 39  0  0  0  0  0  0  0  0999 V2000
   61.0026   29.5535   45.6796 H   0  0  0  0  0  0  0  0  0  0  0  0
   60.1600   30.1220   46.1000 C   0  0  0  0  0  0  0  0  0  0  0  0
   60.3990   30.8550   47.1980 C   0  0  0  0  0  0  0  0  0  0  0  0
   59.7001   30.7554   48.0416 H   0  0  0  0  0  0  0  0  0  0  0  0
   61.5320   31.7840   47.3530 C   0  0  0  0  0  0  0  0  0  0  0  0
   61.4410   33.0780   47.7500 N   0  0  0  0  0  0  0  0  0  0  0  0
   60.2590   33.8070   48.2170 C   0  0  0  0  0  0  0  0  0  0  0  0
   59.7981   33.2556   49.0498 H   0  0  0  0  0  0  0  0  0  0  0  0
   60.5657   34.8087   48.5524 H   0  0  0  0  0  0  0  0  0  0  0  0
   59.2590   33.9490   47.1020 C   0  0  0  0  0  0  0  0  0  0  0  0
   59.6030   34.6190   45.9160 C   0  0  0  0  0  0  0  0  0  0  0  0
   60.6026   35.0655   45.8086 H   0  0  0  0  0  0  0  0  0  0  0  0
   58.6790   34.7200   44.8720 C   0  0  0  0  0  0  0  0  0  0  0  0
   58.9510   35.2495   43.9470 H   0  0  0  0  0  0  0  0  0  0  0  0
   57.4100   34.1490   45.0020 C   0  0  0  0  0  0  0  0  0  0  0  0
   56.6844   34.2295   44.1792 H   0  0  0  0  0  0  0  0  0  0  0  0
   57.0620   33.4760   46.1760 C   0  0  0  0  0  0  0  0  0  0  0  0
   56.0629   33.0271   46.2770 H   0  0  0  0  0  0  0  0  0  0  0  0
   57.9840   33.3730   47.2230 C   0  0  0  0  0  0  0  0  0  0  0  0
   57.7093   32.8388   48.1445 H   0  0  0  0  0  0  0  0  0  0  0  0
   62.7130   33.5150   47.8370 C   0  0  0  0  0  0  0  0  0  0  0  0
   63.0256   34.5260   48.1371 H   0  0  0  0  0  0  0  0  0  0  0  0
   63.5560   32.4830   47.4870 C   0  0  0  0  0  0  0  0  0  0  0  0
   64.6541   32.5361   47.4513 H   0  0  0  0  0  0  0  0  0  0  0  0
   62.8130   31.3990   47.1960 N   0  0  0  0  0  0  0  0  0  0  0  0
   63.1620   30.4540   46.9200 H   0  0  0  0  0  0  0  0  0  0  0  0
   58.8550   30.0150   45.4070 C   0  0  0  0  0  0  0  0  0  0  0  0
   58.5150   30.9860   44.4510 C   0  0  0  0  0  0  0  0  0  0  0  0
   59.2181   31.8015   44.2258 H   0  0  0  0  0  0  0  0  0  0  0  0
   57.2880   30.9220   43.7840 C   0  0  0  0  0  0  0  0  0  0  0  0
   57.0350   31.6772   43.0253 H   0  0  0  0  0  0  0  0  0  0  0  0
   56.3830   29.9000   44.0800 C   0  0  0  0  0  0  0  0  0  0  0  0
   55.4217   29.8458   43.5480 H   0  0  0  0  0  0  0  0  0  0  0  0
   56.6980   28.9470   45.0510 C   0  0  0  0  0  0  0  0  0  0  0  0
   55.9805   28.1481   45.2897 H   0  0  0  0  0  0  0  0  0  0  0  0
   57.9240   29.0070   45.7200 C   0  0  0  0  0  0  0  0  0  0  0  0
   58.1621   28.2631   46.4945 H   0  0  0  0  0  0  0  0  0  0  0  0
  1  2  1  0
  2  3  2  0
  3  4  1  0
  3  5  1  0
  5  6  1  0
  6  7  1  0
  7  8  1  0
  7  9  1  0
  7 10  1  0
 10 11  2  0
 11 12  1  0
 11 13  1  0
 13 14  1  0
 13 15  2  0
 15 16  1  0
 15 17  1  0
 17 18  1  0
 17 19  2  0
 19 20  1  0
  6 21  1  0
 21 22  1  0
 21 23  2  0
 23 24  1  0
 23 25  1  0
 25 26  1  0
  2 27  1  0
 27 28  2  0
 28 29  1  0
 28 30  1  0
 30 31  1  0
 30 32  2  0
 32 33  1  0
 32 34  1  0
 34 35  1  0
 34 36  2  0
 36 37  1  0
 25  5  2  0
 36 27  1  0
 19 10  1  0
M  CHG  1  25   1
M  END
>  <UniqueID>  (4) 
3

>  <SMILES>  (4) 
C(=C\c1[nH+]ccn1Cc1ccccc1)\c1ccccc1

>  <Energy>  (4) 
77.9771951084237

>  <Genealogy>  (4) 
C(=Cc1[nH+]ccn1Cc1ccccc1)c1ccccc1 (protonated)
C(=C\c1[nH+]ccn1Cc1ccccc1)\c1ccccc1 (cis-trans isomerization)
C(=C\c1[nH+]ccn1Cc1ccccc1)\c1ccccc1 (3D coordinates assigned)
C(=C\c1[nH+]ccn1Cc1ccccc1)\c1ccccc1 (optimized conformer: 77.9771951084237 kcal/mol)

>  <smiles>  (4) 
C(=Cc1nccn1Cc1ccccc1)c1ccccc1

>  <score_type>  (4) 
oracle

>  <origin>  (4) 
adg

>  <m_score__min__energy>  (4) 
-5.7199999999999998

>  <m_primary>  (4) 
energy

$$$$
4:0
     RDKit          3D

 36 38  0  0  0  0  0  0  0  0999 V2000
   57.7710   32.1200   42.2650 N   0  0  0  0  0  0  0  0  0  0  0  0
   57.8660   32.3510   43.6730 C   0  0  0  0  0  0  0  0  0  0  0  0
   58.3460   33.8160   44.3420 S   0  0  0  0  0  0  0  0  0  0  0  0
   58.2710   33.2260   45.9150 C   0  0  0  0  0  0  0  0  0  0  0  0
   58.5150   34.0420   47.1430 C   0  0  0  0  0  0  0  0  0  0  0  0
   59.9710   33.9920   47.5130 C   0  0  0  0  0  0  0  0  0  0  0  0
   60.3650   34.1040   48.8570 C   0  0  0  0  0  0  0  0  0  0  0  0
   61.7170   34.0200   49.2040 C   0  0  0  0  0  0  0  0  0  0  0  0
   62.6830   33.8130   48.2140 C   0  0  0  0  0  0  0  0  0  0  0  0
   62.2970   33.6850   46.8770 C   0  0  0  0  0  0  0  0  0  0  0  0
   60.9460   33.7690   46.5260 C   0  0  0  0  0  0  0  0  0  0  0  0
   57.8650   31.9380   45.9480 N   0  0  0  0  0  0  0  0  0  0  0  0
   57.6410   31.4300   44.7050 C   0  0  0  0  0  0  0  0  0  0  0  0
   57.1590   30.0410   44.5410 C   0  0  0  0  0  0  0  0  0  0  0  0
   56.0010   29.7190   44.9180 O   0  0  0  0  0  0  0  0  0  0  0  0
   58.0180   29.0550   43.9430 N   0  0  0  0  0  0  0  0  0  0  0  0
   57.7810   27.6380   44.0020 C   0  0  0  0  0  0  0  0  0  0  0  0
   57.4790   26.9880   45.2110 C   0  0  0  0  0  0  0  0  0  0  0  0
   57.2820   25.6060   45.2310 C   0  0  0  0  0  0  0  0  0  0  0  0
   57.4000   24.8810   44.0440 C   0  0  0  0  0  0  0  0  0  0  0  0
   57.1600   23.1450   44.0410 Cl  0  0  0  0  0  0  0  0  0  0  0  0
   57.7150   25.5190   42.8860 N   0  0  0  0  0  0  0  0  0  0  0  0
   57.9110   26.8630   42.8410 C   0  0  0  0  0  0  0  0  0  0  0  0
   57.2530   32.7590   41.6260 H   0  0  0  0  0  0  0  0  0  0  0  0
   58.1630   31.2410   41.8600 H   0  0  0  0  0  0  0  0  0  0  0  0
   58.2236   35.0852   46.9509 H   0  0  0  0  0  0  0  0  0  0  0  0
   57.9178   33.6342   47.9719 H   0  0  0  0  0  0  0  0  0  0  0  0
   59.6071   34.2583   49.6392 H   0  0  0  0  0  0  0  0  0  0  0  0
   62.0211   34.1168   50.2567 H   0  0  0  0  0  0  0  0  0  0  0  0
   63.7466   33.7509   48.4878 H   0  0  0  0  0  0  0  0  0  0  0  0
   63.0570   33.5179   46.0995 H   0  0  0  0  0  0  0  0  0  0  0  0
   60.6454   33.6601   45.4735 H   0  0  0  0  0  0  0  0  0  0  0  0
   58.8150   29.3910   43.3560 H   0  0  0  0  0  0  0  0  0  0  0  0
   57.3978   27.5684   46.1419 H   0  0  0  0  0  0  0  0  0  0  0  0
   57.0362   25.0935   46.1728 H   0  0  0  0  0  0  0  0  0  0  0  0
   58.1732   27.3457   41.8880 H   0  0  0  0  0  0  0  0  0  0  0  0
  1  2  1  0
  2  3  1  0
  3  4  1  0
  4  5  1  0
  5  6  1  0
  6  7  2  0
  7  8  1  0
  8  9  2  0
  9 10  1  0
 10 11  2  0
  4 12  2  0
 12 13  1  0
 13 14  1  0
 14 15  2  0
 14 16  1  0
 16 17  1  0
 17 18  2  0
 18 19  1  0
 19 20  2  0
 20 21  1  0
 20 22  1  0
 22 23  2  0
 13  2  2  0
 23 17  1  0
 11  6  1  0
  1 24  1  0
  1 25  1  0
  5 26  1  0
  5 27  1  0
  7 28  1  0
  8 29  1  0
  9 30  1  0
 10 31  1  0
 11 32  1  0
 16 33  1  0
 18 34  1  0
 19 35  1  0
 23 36  1  0
M  END
>  <UniqueID>  (5) 
4

>  <SMILES>  (5) 
Nc1sc(Cc2ccccc2)nc1C(=O)Nc1ccc(Cl)nc1

>  <Energy>  (5) 
71.994275579782

>  <Genealogy>  (5) 
Nc1sc(Cc2ccccc2)nc1C(=O)Nc1ccc(Cl)nc1 (3D coordinates assigned)
Nc1sc(Cc2ccccc2)nc1C(=O)Nc1ccc(Cl)nc1 (optimized conformer: 71.994275579782 kcal/mol)

>  <smiles>  (5) 
Nc1sc(Cc2ccccc2)nc1C(=O)Nc1ccc(Cl)nc1

>  <score_type>  (5) 
oracle

>  <origin>  (5) 
adg

>  <m_score__min__energy>  (5) 
-8.4499999999999993

>  <m_primary>  (5) 
energy

$$$$
5:0
     RDKit          3D

 41 43  0  0  0  0  0  0  0  0999 V2000
   57.3970   22.6160   47.1010 O   0  0  0  0  0  0  0  0  0  0  0  0
   57.1970   23.8040   46.7350 C   0  0  0  0  0  0  0  0  0  0  0  0
   55.9090   24.2310   46.4100 C   0  0  0  0  0  0  0  0  0  0  0  0
   55.7290   25.5580   46.0170 C   0  0  0  0  0  0  0  0  0  0  0  0
   54.4580   26.0210   45.6930 O   0  0  0  0  0  0  0  0  0  0  0  0
   56.7970   26.3960   45.9560 N   0  0  0  0  0  0  0  0  0  0  0  0
   58.0480   25.9610   46.2670 C   0  0  0  0  0  0  0  0  0  0  0  0
   59.2020   26.9140   46.2480 C   0  0  0  0  0  0  0  0  0  0  0  0
   58.7320   28.2740   45.7960 C   0  0  0  0  0  0  0  0  0  0  0  0
   58.7270   29.3320   46.7210 C   0  0  0  0  0  0  0  0  0  0  0  0
   58.1920   30.5740   46.3750 C   0  0  0  0  0  0  0  0  0  0  0  0
   57.6390   30.7780   45.1090 C   0  0  0  0  0  0  0  0  0  0  0  0
   56.9930   32.0280   44.8380 N   0  0  0  0  0  0  0  0  0  0  0  0
   57.3690   33.5380   45.6090 S   0  0  0  0  0  0  0  0  0  0  0  0
   57.0040   33.4640   47.0650 O   0  0  0  0  0  0  0  0  0  0  0  0
   56.5450   34.6150   44.9620 O   0  0  0  0  0  0  0  0  0  0  0  0
   59.1030   33.9740   45.4310 C   0  0  0  0  0  0  0  0  0  0  0  0
   59.8810   33.7350   46.7000 C   0  0  0  0  0  0  0  0  0  0  0  0
   60.9220   32.7900   46.7290 C   0  0  0  0  0  0  0  0  0  0  0  0
   61.6810   32.6130   47.8890 C   0  0  0  0  0  0  0  0  0  0  0  0
   61.3990   33.3650   49.0330 C   0  0  0  0  0  0  0  0  0  0  0  0
   60.3500   34.2890   49.0190 C   0  0  0  0  0  0  0  0  0  0  0  0
   59.5900   34.4710   47.8600 C   0  0  0  0  0  0  0  0  0  0  0  0
   57.6750   29.7390   44.1660 C   0  0  0  0  0  0  0  0  0  0  0  0
   58.2040   28.4890   44.5040 C   0  0  0  0  0  0  0  0  0  0  0  0
   58.1350   27.1030   43.1790 Br  0  0  0  0  0  0  0  0  0  0  0  0
   58.2370   24.6740   46.6620 N   0  0  0  0  0  0  0  0  0  0  0  0
   55.0560   23.5384   46.4623 H   0  0  0  0  0  0  0  0  0  0  0  0
   54.3270   26.7100   44.9620 H   0  0  0  0  0  0  0  0  0  0  0  0
   59.6282   26.9920   47.2591 H   0  0  0  0  0  0  0  0  0  0  0  0
   59.9683   26.5437   45.5511 H   0  0  0  0  0  0  0  0  0  0  0  0
   59.1481   29.1802   47.7258 H   0  0  0  0  0  0  0  0  0  0  0  0
   58.2061   31.3974   47.1043 H   0  0  0  0  0  0  0  0  0  0  0  0
   59.5410   33.3651   44.6264 H   0  0  0  0  0  0  0  0  0  0  0  0
   59.1600   35.0470   45.1957 H   0  0  0  0  0  0  0  0  0  0  0  0
   61.1398   32.1875   45.8348 H   0  0  0  0  0  0  0  0  0  0  0  0
   62.5017   31.8807   47.9018 H   0  0  0  0  0  0  0  0  0  0  0  0
   62.0017   33.2299   49.9432 H   0  0  0  0  0  0  0  0  0  0  0  0
   60.1221   34.8742   49.9221 H   0  0  0  0  0  0  0  0  0  0  0  0
   58.7607   35.1936   47.8566 H   0  0  0  0  0  0  0  0  0  0  0  0
   57.2837   29.9092   43.1521 H   0  0  0  0  0  0  0  0  0  0  0  0
  1  2  2  0
  2  3  1  0
  3  4  2  0
  4  5  1  0
  4  6  1  0
  6  7  2  0
  7  8  1  0
  8  9  1  0
  9 10  2  0
 10 11  1  0
 11 12  2  0
 12 13  1  0
 13 14  1  0
 14 15  2  0
 14 16  2  0
 14 17  1  0
 17 18  1  0
 18 19  2  0
 19 20  1  0
 20 21  2  0
 21 22  1  0
 22 23  2  0
 12 24  1  0
 24 25  2  0
 25 26  1  0
  7 27  1  0
 27  2  1  0
 25  9  1  0
 23 18  1  0
  3 28  1  0
  5 29  1  0
  8 30  1  0
  8 31  1  0
 10 32  1  0
 11 33  1  0
 17 34  1  0
 17 35  1  0
 19 36  1  0
 20 37  1  0
 21 38  1  0
 22 39  1  0
 23 40  1  0
 24 41  1  0
M  CHG  2  13  -1  27  -1
M  END
>  <UniqueID>  (6) 
5

>  <SMILES>  (6) 
O=c1cc(O)nc(Cc2ccc([N-]S(=O)(=O)Cc3ccccc3)cc2Br)[n-]1

>  <Energy>  (6) 
39.55324666109009

>  <Genealogy>  (6) 
O=c1cc(O)nc(Cc2ccc([N-]S(=O)(=O)Cc3ccccc3)cc2Br)[n-]1 (protonated)
O=c1cc(O)nc(Cc2ccc([N-]S(=O)(=O)Cc3ccccc3)cc2Br)[n-]1 (3D coordinates assigned)
O=c1cc(O)nc(Cc2ccc([N-]S(=O)(=O)Cc3ccccc3)cc2Br)[n-]1 (optimized conformer: 39.55324666109009 kcal/mol)

>  <smiles>  (6) 
O=c1cc(O)nc(Cc2ccc(NS(=O)(=O)Cc3ccccc3)cc2Br)[nH]1

>  <score_type>  (6) 
oracle

>  <origin>  (6) 
adg

>  <m_score__min__energy>  (6) 
-13.050000000000001

>  <m_primary>  (6) 
energy

$$$$
6:0
     RDKit          3D

 62 65  0  0  0  0  0  0  0  0999 V2000
   57.7220   19.9457   49.1791 H   0  0  0  0  0  0  0  0  0  0  0  0
   56.9470   20.6920   49.4080 C   0  0  0  0  0  0  0  0  0  0  0  0
   57.2880   21.8600   49.8490 N   0  0  0  0  0  0  0  0  0  0  0  0
   57.5290   22.0560   51.1920 O   0  0  0  0  0  0  0  0  0  0  0  0
   58.4830   23.0150   51.6150 C   0  0  0  0  0  0  0  0  0  0  0  0
   58.5115   23.0437   52.7143 H   0  0  0  0  0  0  0  0  0  0  0  0
   59.4757   22.7394   51.2295 H   0  0  0  0  0  0  0  0  0  0  0  0
   58.2022   24.0062   51.2295 H   0  0  0  0  0  0  0  0  0  0  0  0
   55.5040   20.3520   49.2080 C   0  0  0  0  0  0  0  0  0  0  0  0
   55.2080   20.6101   48.1805 H   0  0  0  0  0  0  0  0  0  0  0  0
   55.3600   19.2749   49.3785 H   0  0  0  0  0  0  0  0  0  0  0  0
   54.6510   21.1260   50.1830 C   0  0  0  0  0  0  0  0  0  0  0  0
   54.6990   20.8070   51.5510 C   0  0  0  0  0  0  0  0  0  0  0  0
   55.3355   19.9793   51.8972 H   0  0  0  0  0  0  0  0  0  0  0  0
   53.9450   21.5330   52.4720 C   0  0  0  0  0  0  0  0  0  0  0  0
   53.9846   21.2737   53.5403 H   0  0  0  0  0  0  0  0  0  0  0  0
   53.1410   22.5870   52.0410 C   0  0  0  0  0  0  0  0  0  0  0  0
   52.5433   23.1542   52.7697 H   0  0  0  0  0  0  0  0  0  0  0  0
   53.0920   22.9250   50.6870 C   0  0  0  0  0  0  0  0  0  0  0  0
   52.4595   23.7615   50.3550 H   0  0  0  0  0  0  0  0  0  0  0  0
   53.8480   22.2010   49.7430 C   0  0  0  0  0  0  0  0  0  0  0  0
   53.8290   22.5140   48.3710 O   0  0  0  0  0  0  0  0  0  0  0  0
   53.0340   21.8660   47.3760 C   0  0  0  0  0  0  0  0  0  0  0  0
   53.2125   20.7817   47.4264 H   0  0  0  0  0  0  0  0  0  0  0  0
   51.9772   22.0989   47.5735 H   0  0  0  0  0  0  0  0  0  0  0  0
   53.3730   22.3520   45.9980 C   0  0  0  0  0  0  0  0  0  0  0  0
   52.4510   22.7930   45.2590 O   0  0  0  0  0  0  0  0  0  0  0  0
   54.7250   22.2680   45.5210 N   0  0  0  0  0  0  0  0  0  0  0  0
   55.6900   23.0950   45.7950 C   0  0  0  0  0  0  0  0  0  0  0  0
   55.8230   24.3220   45.2470 N   0  0  0  0  0  0  0  0  0  0  0  0
   56.9170   24.9780   45.7260 C   0  0  0  0  0  0  0  0  0  0  0  0
   57.2650   26.3450   45.2610 C   0  0  0  0  0  0  0  0  0  0  0  0
   57.7730   26.5330   43.9630 C   0  0  0  0  0  0  0  0  0  0  0  0
   57.9045   25.6661   43.2988 H   0  0  0  0  0  0  0  0  0  0  0  0
   58.1130   27.8130   43.5080 C   0  0  0  0  0  0  0  0  0  0  0  0
   58.5153   27.9441   42.4926 H   0  0  0  0  0  0  0  0  0  0  0  0
   57.9430   28.9290   44.3410 C   0  0  0  0  0  0  0  0  0  0  0  0
   58.2520   30.2540   43.8830 N   0  0  0  0  0  0  0  0  0  0  0  0
   59.0910   30.3800   43.2730 H   0  0  0  0  0  0  0  0  0  0  0  0
   57.4080   31.3920   44.1160 C   0  0  0  0  0  0  0  0  0  0  0  0
   56.2100   31.2360   44.4790 O   0  0  0  0  0  0  0  0  0  0  0  0
   57.9400   32.7790   43.9220 C   0  0  0  0  0  0  0  0  0  0  0  0
   58.7607   32.7556   43.1899 H   0  0  0  0  0  0  0  0  0  0  0  0
   57.1318   33.4284   43.5545 H   0  0  0  0  0  0  0  0  0  0  0  0
   58.4530   33.3190   45.2290 C   0  0  0  0  0  0  0  0  0  0  0  0
   58.0770   32.7150   46.4400 C   0  0  0  0  0  0  0  0  0  0  0  0
   57.4262   31.8282   46.4312 H   0  0  0  0  0  0  0  0  0  0  0  0
   58.5270   33.2370   47.6570 C   0  0  0  0  0  0  0  0  0  0  0  0
   58.2373   32.7550   48.6024 H   0  0  0  0  0  0  0  0  0  0  0  0
   59.3440   34.3700   47.6730 C   0  0  0  0  0  0  0  0  0  0  0  0
   59.7002   34.7776   48.6306 H   0  0  0  0  0  0  0  0  0  0  0  0
   59.7090   34.9860   46.4720 C   0  0  0  0  0  0  0  0  0  0  0  0
   60.3468   35.8821   46.4858 H   0  0  0  0  0  0  0  0  0  0  0  0
   59.2640   34.4640   45.2530 C   0  0  0  0  0  0  0  0  0  0  0  0
   59.5507   34.9526   44.3101 H   0  0  0  0  0  0  0  0  0  0  0  0
   57.3990   28.7500   45.6200 C   0  0  0  0  0  0  0  0  0  0  0  0
   57.2256   29.6234   46.2658 H   0  0  0  0  0  0  0  0  0  0  0  0
   57.0750   27.4720   46.0820 C   0  0  0  0  0  0  0  0  0  0  0  0
   56.6679   27.3456   47.0961 H   0  0  0  0  0  0  0  0  0  0  0  0
   57.6590   24.2500   46.6660 C   0  0  0  0  0  0  0  0  0  0  0  0
   58.5739   24.5942   47.1705 H   0  0  0  0  0  0  0  0  0  0  0  0
   56.9110   22.7590   46.8910 S   0  0  0  0  0  0  0  0  0  0  0  0
  1  2  1  0
  2  3  2  0
  3  4  1  0
  4  5  1  0
  5  6  1  0
  5  7  1  0
  5  8  1  0
  2  9  1  0
  9 10  1  0
  9 11  1  0
  9 12  1  0
 12 13  2  0
 13 14  1  0
 13 15  1  0
 15 16  1  0
 15 17  2  0
 17 18  1  0
 17 19  1  0
 19 20  1  0
 19 21  2  0
 21 22  1  0
 22 23  1  0
 23 24  1  0
 23 25  1  0
 23 26  1  0
 26 27  2  0
 26 28  1  0
 28 29  2  3
 29 30  1  0
 30 31  1  0
 31 32  1  0
 32 33  2  0
 33 34  1  0
 33 35  1  0
 35 36  1  0
 35 37  2  0
 37 38  1  0
 38 39  1  0
 38 40  1  0
 40 41  2  0
 40 42  1  0
 42 43  1  0
 42 44  1  0
 42 45  1  0
 45 46  2  0
 46 47  1  0
 46 48  1  0
 48 49  1  0
 48 50  2  0
 50 51  1  0
 50 52  1  0
 52 53  1  0
 52 54  2  0
 54 55  1  0
 37 56  1  0
 56 57  1  0
 56 58  2  0
 58 59  1  0
 31 60  2  0
 60 61  1  0
 60 62  1  0
 21 12  1  0
 62 29  1  0
 58 32  1  0
 54 45  1  0
M  CHG  1  30  -1
M  END
>  <UniqueID>  (7) 
6

>  <SMILES>  (7) 
CO/N=C/Cc1ccccc1OCC(=O)N=c1[n-]c(-c2ccc(NC(=O)Cc3ccccc3)cc2)cs1

>  <Energy>  (7) 
95.82129480246422

>  <Genealogy>  (7) 
CON=CCc1ccccc1OCC(=O)N=c1[n-]c(-c2ccc(NC(=O)Cc3ccccc3)cc2)cs1 (protonated)
CO/N=C/Cc1ccccc1OCC(=O)N=c1[n-]c(-c2ccc(NC(=O)Cc3ccccc3)cc2)cs1 (cis-trans isomerization)
CO/N=C/Cc1ccccc1OCC(=O)N=c1[n-]c(-c2ccc(NC(=O)Cc3ccccc3)cc2)cs1 (3D coordinates assigned)
CO/N=C/Cc1ccccc1OCC(=O)N=c1[n-]c(-c2ccc(NC(=O)Cc3ccccc3)cc2)cs1 (optimized conformer: 95.82129480246422 kcal/mol)

>  <smiles>  (7) 
CON=CCc1ccccc1OCC(=O)N=c1[nH]c(-c2ccc(NC(=O)Cc3ccccc3)cc2)cs1

>  <score_type>  (7) 
oracle

>  <origin>  (7) 
adg

>  <m_score__min__energy>  (7) 
-10.970000000000001

>  <m_primary>  (7) 
energy

$$$$
7:0
     RDKit          3D

 38 40  0  0  0  0  0  0  0  0999 V2000
   59.7120   34.5290   48.0400 C   0  0  0  0  0  0  0  0  0  0  0  0
   59.1330   34.0570   46.4230 S   0  0  0  0  0  0  0  0  0  0  0  0
   57.6390   33.9050   46.4710 O   0  0  0  0  0  0  0  0  0  0  0  0
   59.4960   35.1290   45.4350 O   0  0  0  0  0  0  0  0  0  0  0  0
   59.8410   32.5530   45.9320 N   0  0  0  0  0  0  0  0  0  0  0  0
   59.2790   31.2930   46.3120 C   0  0  0  0  0  0  0  0  0  0  0  0
   59.9170   30.5480   47.3080 C   0  0  0  0  0  0  0  0  0  0  0  0
   59.4250   29.2990   47.6840 C   0  0  0  0  0  0  0  0  0  0  0  0
   58.2820   28.7630   47.0680 C   0  0  0  0  0  0  0  0  0  0  0  0
   57.7690   27.4770   47.4700 N   0  0  0  0  0  0  0  0  0  0  0  0
   57.7650   26.3200   46.6150 C   0  0  0  0  0  0  0  0  0  0  0  0
   58.9410   25.5660   46.4510 C   0  0  0  0  0  0  0  0  0  0  0  0
   58.9660   24.4720   45.5840 C   0  0  0  0  0  0  0  0  0  0  0  0
   57.8250   24.1240   44.8630 C   0  0  0  0  0  0  0  0  0  0  0  0
   56.6520   24.8690   45.0090 C   0  0  0  0  0  0  0  0  0  0  0  0
   56.6080   25.9660   45.8830 C   0  0  0  0  0  0  0  0  0  0  0  0
   55.3780   26.6870   46.0390 N   0  0  0  0  0  0  0  0  0  0  0  0
   57.6120   29.5200   46.0880 C   0  0  0  0  0  0  0  0  0  0  0  0
   56.4890   29.0290   45.4920 N   0  0  0  0  0  0  0  0  0  0  0  0
   55.8080   29.7240   44.5460 C   0  0  0  0  0  0  0  0  0  0  0  0
   54.7760   29.2260   44.0250 O   0  0  0  0  0  0  0  0  0  0  0  0
   56.2510   30.9890   44.1540 C   0  0  0  0  0  0  0  0  0  0  0  0
   57.3990   31.5240   44.7380 C   0  0  0  0  0  0  0  0  0  0  0  0
   58.1070   30.7930   45.7060 C   0  0  0  0  0  0  0  0  0  0  0  0
   59.1015   34.0313   48.8078 H   0  0  0  0  0  0  0  0  0  0  0  0
   60.7636   34.2275   48.1554 H   0  0  0  0  0  0  0  0  0  0  0  0
   59.6286   35.6197   48.1554 H   0  0  0  0  0  0  0  0  0  0  0  0
   60.8150   30.9508   47.7993 H   0  0  0  0  0  0  0  0  0  0  0  0
   59.9374   28.7270   48.4716 H   0  0  0  0  0  0  0  0  0  0  0  0
   57.3270   27.3870   48.4130 H   0  0  0  0  0  0  0  0  0  0  0  0
   59.8478   25.8403   47.0100 H   0  0  0  0  0  0  0  0  0  0  0  0
   59.8882   23.8834   45.4696 H   0  0  0  0  0  0  0  0  0  0  0  0
   57.8480   23.2628   44.1790 H   0  0  0  0  0  0  0  0  0  0  0  0
   55.7556   24.5933   44.4341 H   0  0  0  0  0  0  0  0  0  0  0  0
   54.6600   26.4090   46.7420 H   0  0  0  0  0  0  0  0  0  0  0  0
   55.1470   27.4820   45.4030 H   0  0  0  0  0  0  0  0  0  0  0  0
   55.6994   31.5584   43.3914 H   0  0  0  0  0  0  0  0  0  0  0  0
   57.7513   32.5223   44.4393 H   0  0  0  0  0  0  0  0  0  0  0  0
  1  2  1  0
  2  3  2  0
  2  4  2  0
  2  5  1  0
  5  6  1  0
  6  7  2  0
  7  8  1  0
  8  9  2  0
  9 10  1  0
 10 11  1  0
 11 12  2  0
 12 13  1  0
 13 14  2  0
 14 15  1  0
 15 16  2  0
 16 17  1  0
  9 18  1  0
 18 19  1  0
 19 20  1  0
 20 21  2  0
 20 22  1  0
 22 23  2  0
 23 24  1  0
 24  6  1  0
 16 11  1  0
 24 18  2  0
  1 25  1  0
  1 26  1  0
  1 27  1  0
  7 28  1  0
  8 29  1  0
 10 30  1  0
 12 31  1  0
 13 32  1  0
 14 33  1  0
 15 34  1  0
 17 35  1  0
 17 36  1  0
 22 37  1  0
 23 38  1  0
M  CHG  2   5  -1  19  -1
M  END
>  <UniqueID>  (8) 
7

>  <SMILES>  (8) 
CS(=O)(=O)[N-]c1ccc(Nc2ccccc2N)c2[n-]c(=O)ccc12

>  <Energy>  (8) 
56.83255611557483

>  <Genealogy>  (8) 
CS(=O)(=O)[N-]c1ccc(Nc2ccccc2N)c2[n-]c(=O)ccc12 (protonated)
CS(=O)(=O)[N-]c1ccc(Nc2ccccc2N)c2[n-]c(=O)ccc12 (3D coordinates assigned)
CS(=O)(=O)[N-]c1ccc(Nc2ccccc2N)c2[n-]c(=O)ccc12 (optimized conformer: 56.83255611557483 kcal/mol)

>  <smiles>  (8) 
CS(=O)(=O)Nc1ccc(Nc2ccccc2N)c2[nH]c(=O)ccc12

>  <score_type>  (8) 
oracle

>  <origin>  (8) 
adg

>  <m_score__min__energy>  (8) 
-10.470000000000001

>  <m_primary>  (8) 
energy

$$$$
8:0
     RDKit          3D

 45 47  0  0  0  0  0  0  0  0999 V2000
   65.8190   32.3700   50.0140 C   0  0  0  0  0  0  0  0  0  0  0  0
   64.4640   32.9860   49.8280 C   0  0  0  0  0  0  0  0  0  0  0  0
   63.6660   33.2850   50.9410 C   0  0  0  0  0  0  0  0  0  0  0  0
   62.3880   33.8200   50.7650 C   0  0  0  0  0  0  0  0  0  0  0  0
   61.8940   34.0510   49.4800 C   0  0  0  0  0  0  0  0  0  0  0  0
   62.6720   33.7430   48.3490 C   0  0  0  0  0  0  0  0  0  0  0  0
   62.1430   33.9780   46.9850 C   0  0  0  0  0  0  0  0  0  0  0  0
   62.9320   34.0040   46.0020 O   0  0  0  0  0  0  0  0  0  0  0  0
   60.7320   34.1230   46.7770 N   0  0  0  0  0  0  0  0  0  0  0  0
   59.8330   33.1220   46.2740 C   0  0  0  0  0  0  0  0  0  0  0  0
   60.0410   31.7500   46.5030 C   0  0  0  0  0  0  0  0  0  0  0  0
   59.1540   30.8070   45.9740 C   0  0  0  0  0  0  0  0  0  0  0  0
   58.0600   31.2200   45.2020 C   0  0  0  0  0  0  0  0  0  0  0  0
   56.9300   30.0490   44.5350 S   0  0  0  0  0  0  0  0  0  0  0  0
   57.3990   29.5680   43.1900 O   0  0  0  0  0  0  0  0  0  0  0  0
   55.5870   30.7070   44.3840 O   0  0  0  0  0  0  0  0  0  0  0  0
   56.8150   28.7020   45.6200 N   0  0  0  0  0  0  0  0  0  0  0  0
   57.8370   27.6990   45.7160 C   0  0  0  0  0  0  0  0  0  0  0  0
   59.1740   28.0410   45.4450 C   0  0  0  0  0  0  0  0  0  0  0  0
   60.1970   27.1110   45.6230 C   0  0  0  0  0  0  0  0  0  0  0  0
   59.9040   25.8300   46.0850 C   0  0  0  0  0  0  0  0  0  0  0  0
   58.5840   25.4690   46.3550 C   0  0  0  0  0  0  0  0  0  0  0  0
   57.5340   26.3880   46.1650 C   0  0  0  0  0  0  0  0  0  0  0  0
   56.1410   25.9350   46.3950 C   0  0  0  0  0  0  0  0  0  0  0  0
   55.9160   24.8100   46.9140 O   0  0  0  0  0  0  0  0  0  0  0  0
   55.0620   26.7180   46.0000 O   0  0  0  0  0  0  0  0  0  0  0  0
   57.8660   32.5850   44.9550 C   0  0  0  0  0  0  0  0  0  0  0  0
   58.7540   33.5280   45.4800 C   0  0  0  0  0  0  0  0  0  0  0  0
   63.9580   33.2000   48.5360 C   0  0  0  0  0  0  0  0  0  0  0  0
   66.0331   32.2726   51.0886 H   0  0  0  0  0  0  0  0  0  0  0  0
   65.8371   31.3752   49.5449 H   0  0  0  0  0  0  0  0  0  0  0  0
   66.5805   33.0104   49.5449 H   0  0  0  0  0  0  0  0  0  0  0  0
   64.0474   33.0978   51.9556 H   0  0  0  0  0  0  0  0  0  0  0  0
   61.7687   34.0601   51.6418 H   0  0  0  0  0  0  0  0  0  0  0  0
   60.8883   34.4773   49.3507 H   0  0  0  0  0  0  0  0  0  0  0  0
   60.9034   31.4179   47.0996 H   0  0  0  0  0  0  0  0  0  0  0  0
   59.3159   29.7359   46.1649 H   0  0  0  0  0  0  0  0  0  0  0  0
   55.9480   28.6180   46.1940 H   0  0  0  0  0  0  0  0  0  0  0  0
   59.4151   29.0534   45.0887 H   0  0  0  0  0  0  0  0  0  0  0  0
   61.2373   27.3892   45.3983 H   0  0  0  0  0  0  0  0  0  0  0  0
   60.7146   25.1022   46.2371 H   0  0  0  0  0  0  0  0  0  0  0  0
   58.3608   24.4557   46.7202 H   0  0  0  0  0  0  0  0  0  0  0  0
   57.0119   32.9159   44.3458 H   0  0  0  0  0  0  0  0  0  0  0  0
   58.6039   34.5968   45.2677 H   0  0  0  0  0  0  0  0  0  0  0  0
   64.5721   32.9410   47.6609 H   0  0  0  0  0  0  0  0  0  0  0  0
  1  2  1  0
  2  3  2  0
  3  4  1  0
  4  5  2  0
  5  6  1  0
  6  7  1  0
  7  8  2  0
  7  9  1  0
  9 10  1  0
 10 11  2  0
 11 12  1  0
 12 13  2  0
 13 14  1  0
 14 15  2  0
 14 16  2  0
 14 17  1  0
 17 18  1  0
 18 19  2  0
 19 20  1  0
 20 21  2  0
 21 22  1  0
 22 23  2  0
 23 24  1  0
 24 25  2  0
 24 26  1  0
 13 27  1  0
 27 28  2  0
  6 29  2  0
 29  2  1  0
 28 10  1  0
 23 18  1  0
  1 30  1  0
  1 31  1  0
  1 32  1  0
  3 33  1  0
  4 34  1  0
  5 35  1  0
 11 36  1  0
 12 37  1  0
 17 38  1  0
 19 39  1  0
 20 40  1  0
 21 41  1  0
 22 42  1  0
 27 43  1  0
 28 44  1  0
 29 45  1  0
M  CHG  2   9  -1  26  -1
M  END
>  <UniqueID>  (9) 
8

>  <SMILES>  (9) 
Cc1cccc(C(=O)[N-]c2ccc(S(=O)(=O)Nc3ccccc3C(=O)[O-])cc2)c1

>  <Energy>  (9) 
60.70463184347492

>  <Genealogy>  (9) 
Cc1cccc(C(=O)[N-]c2ccc(S(=O)(=O)Nc3ccccc3C(=O)[O-])cc2)c1 (protonated)
Cc1cccc(C(=O)[N-]c2ccc(S(=O)(=O)Nc3ccccc3C(=O)[O-])cc2)c1 (3D coordinates assigned)
Cc1cccc(C(=O)[N-]c2ccc(S(=O)(=O)Nc3ccccc3C(=O)[O-])cc2)c1 (optimized conformer: 60.70463184347492 kcal/mol)

>  <smiles>  (9) 
Cc1cccc(C(=O)Nc2ccc(S(=O)(=O)Nc3ccccc3C(=O)O)cc2)c1

>  <score_type>  (9) 
oracle

>  <origin>  (9) 
adg

>  <m_score__min__energy>  (9) 
-13.77

>  <m_primary>  (9) 
energy

$$$$
9:0
     RDKit          3D

 68 71  0  0  0  0  0  0  0  0999 V2000
   57.1470   24.2910   45.3720 C   0  0  0  0  0  0  0  0  0  0  0  0
   56.6420   25.2030   46.4860 C   0  0  0  0  0  0  0  0  0  0  0  0
   55.5680   26.1090   45.9740 C   0  0  0  0  0  0  0  0  0  0  0  0
   54.3790   25.6950   45.9090 O   0  0  0  0  0  0  0  0  0  0  0  0
   55.8900   27.4590   45.6290 N   0  0  0  0  0  0  0  0  0  0  0  0
   57.5100   28.0750   45.5860 S   0  0  0  0  0  0  0  0  0  0  0  0
   58.4260   27.0660   44.9510 O   0  0  0  0  0  0  0  0  0  0  0  0
   57.9480   28.3000   47.0040 O   0  0  0  0  0  0  0  0  0  0  0  0
   57.5690   29.5950   44.6780 C   0  0  0  0  0  0  0  0  0  0  0  0
   56.8730   29.6890   43.4610 C   0  0  0  0  0  0  0  0  0  0  0  0
   56.8850   30.8760   42.7240 C   0  0  0  0  0  0  0  0  0  0  0  0
   57.5930   31.9840   43.1910 C   0  0  0  0  0  0  0  0  0  0  0  0
   58.2950   31.9070   44.3960 C   0  0  0  0  0  0  0  0  0  0  0  0
   58.2980   30.7180   45.1430 C   0  0  0  0  0  0  0  0  0  0  0  0
   59.0680   30.6790   46.3980 C   0  0  0  0  0  0  0  0  0  0  0  0
   60.3440   30.1010   46.4290 C   0  0  0  0  0  0  0  0  0  0  0  0
   61.0640   30.0500   47.6250 C   0  0  0  0  0  0  0  0  0  0  0  0
   60.5130   30.5660   48.8080 C   0  0  0  0  0  0  0  0  0  0  0  0
   61.2740   30.4800   50.1070 C   0  0  0  0  0  0  0  0  0  0  0  0
   60.6760   31.3430   51.1370 N   0  0  0  0  0  0  0  0  0  0  0  0
   59.8060   30.7660   52.1710 C   0  0  0  0  0  0  0  0  0  0  0  0
   58.4170   30.4360   51.5990 C   0  0  1  0  0  0  0  0  0  0  0  0
   57.5740   29.6470   52.5980 C   0  0  0  0  0  0  0  0  0  0  0  0
   56.6090   30.6670   53.1160 C   0  0  0  0  0  0  0  0  0  0  0  0
   56.5310   31.6590   51.9790 C   0  0  0  0  0  0  0  0  0  0  0  0
   57.7430   31.6320   51.2640 O   0  0  0  0  0  0  0  0  0  0  0  0
   60.7760   32.7760   51.0310 C   0  0  0  0  0  0  0  0  0  0  0  0
   60.0000   33.5030   51.7110 O   0  0  0  0  0  0  0  0  0  0  0  0
   61.7720   33.4120   50.1010 C   0  0  0  0  0  0  0  0  0  0  0  0
   61.1330   33.8210   48.7990 C   0  0  0  0  0  0  0  0  0  0  0  0
   61.7910   33.5830   47.5800 C   0  0  0  0  0  0  0  0  0  0  0  0
   61.1820   33.9330   46.3710 C   0  0  0  0  0  0  0  0  0  0  0  0
   59.9080   34.5130   46.3690 C   0  0  0  0  0  0  0  0  0  0  0  0
   59.1430   34.9480   44.8510 Cl  0  0  0  0  0  0  0  0  0  0  0  0
   59.2420   34.7400   47.5780 C   0  0  0  0  0  0  0  0  0  0  0  0
   59.8490   34.3910   48.7890 C   0  0  0  0  0  0  0  0  0  0  0  0
   59.2460   31.1690   48.7660 C   0  0  0  0  0  0  0  0  0  0  0  0
   58.5300   31.2280   47.5690 C   0  0  0  0  0  0  0  0  0  0  0  0
   57.6352   23.4094   45.8129 H   0  0  0  0  0  0  0  0  0  0  0  0
   56.2992   23.9680   44.7500 H   0  0  0  0  0  0  0  0  0  0  0  0
   57.8707   24.8381   44.7500 H   0  0  0  0  0  0  0  0  0  0  0  0
   56.2373   24.5871   47.3027 H   0  0  0  0  0  0  0  0  0  0  0  0
   57.4795   25.8150   46.8521 H   0  0  0  0  0  0  0  0  0  0  0  0
   56.3134   28.8199   43.0849 H   0  0  0  0  0  0  0  0  0  0  0  0
   56.3350   30.9372   41.7733 H   0  0  0  0  0  0  0  0  0  0  0  0
   57.5983   32.9181   42.6101 H   0  0  0  0  0  0  0  0  0  0  0  0
   58.8493   32.7837   44.7623 H   0  0  0  0  0  0  0  0  0  0  0  0
   60.7803   29.6860   45.5084 H   0  0  0  0  0  0  0  0  0  0  0  0
   62.0688   29.6027   47.6396 H   0  0  0  0  0  0  0  0  0  0  0  0
   61.2613   29.4386   50.4610 H   0  0  0  0  0  0  0  0  0  0  0  0
   62.3051   30.8185   49.9274 H   0  0  0  0  0  0  0  0  0  0  0  0
   60.2659   29.8433   52.5546 H   0  0  0  0  0  0  0  0  0  0  0  0
   59.6868   31.5015   52.9802 H   0  0  0  0  0  0  0  0  0  0  0  0
   58.5603   29.8169   50.7011 H   0  0  0  0  0  0  0  0  0  0  0  0
   57.0448   28.8206   52.1009 H   0  0  0  0  0  0  0  0  0  0  0  0
   58.1739   29.1796   53.3927 H   0  0  0  0  0  0  0  0  0  0  0  0
   55.6259   30.2165   53.3173 H   0  0  0  0  0  0  0  0  0  0  0  0
   56.9218   31.1192   54.0687 H   0  0  0  0  0  0  0  0  0  0  0  0
   55.7015   31.3880   51.3093 H   0  0  0  0  0  0  0  0  0  0  0  0
   56.3572   32.6692   52.3781 H   0  0  0  0  0  0  0  0  0  0  0  0
   62.1949   34.3038   50.5867 H   0  0  0  0  0  0  0  0  0  0  0  0
   62.5577   32.6741   49.8817 H   0  0  0  0  0  0  0  0  0  0  0  0
   62.7887   33.1197   47.5771 H   0  0  0  0  0  0  0  0  0  0  0  0
   61.7047   33.7523   45.4202 H   0  0  0  0  0  0  0  0  0  0  0  0
   58.2398   35.1935   47.5764 H   0  0  0  0  0  0  0  0  0  0  0  0
   59.3188   34.5635   49.7372 H   0  0  0  0  0  0  0  0  0  0  0  0
   58.8145   31.5979   49.6824 H   0  0  0  0  0  0  0  0  0  0  0  0
   57.5401   31.7072   47.5453 H   0  0  0  0  0  0  0  0  0  0  0  0
  1  2  1  0
  2  3  1  0
  3  4  2  0
  3  5  1  0
  5  6  1  0
  6  7  2  0
  6  8  2  0
  6  9  1  0
  9 10  2  0
 10 11  1  0
 11 12  2  0
 12 13  1  0
 13 14  2  0
 14 15  1  0
 15 16  2  0
 16 17  1  0
 17 18  2  0
 18 19  1  0
 19 20  1  0
 20 21  1  0
 21 22  1  0
 22 23  1  0
 23 24  1  0
 24 25  1  0
 25 26  1  0
 20 27  1  0
 27 28  2  0
 27 29  1  0
 29 30  1  0
 30 31  2  0
 31 32  1  0
 32 33  2  0
 33 34  1  0
 33 35  1  0
 35 36  2  0
 18 37  1  0
 37 38  2  0
 14  9  1  0
 38 15  1  0
 26 22  1  0
 36 30  1  0
  1 39  1  0
  1 40  1  0
  1 41  1  0
  2 42  1  0
  2 43  1  0
 10 44  1  0
 11 45  1  0
 12 46  1  0
 13 47  1  0
 16 48  1  0
 17 49  1  0
 19 50  1  0
 19 51  1  0
 21 52  1  0
 21 53  1  0
 22 54  1  6
 23 55  1  0
 23 56  1  0
 24 57  1  0
 24 58  1  0
 25 59  1  0
 25 60  1  0
 29 61  1  0
 29 62  1  0
 31 63  1  0
 32 64  1  0
 35 65  1  0
 36 66  1  0
 37 67  1  0
 38 68  1  0
M  CHG  1   5  -1
M  END
>  <UniqueID>  (10) 
9

>  <SMILES>  (10) 
CCC(=O)[N-]S(=O)(=O)c1ccccc1-c1ccc(CN(C[C@H]2CCCO2)C(=O)Cc2ccc(Cl)cc2)cc1

>  <Energy>  (10) 
72.78550718501229

>  <Genealogy>  (10) 
CCC(=O)[N-]S(=O)(=O)c1ccccc1-c1ccc(CN(CC2CCCO2)C(=O)Cc2ccc(Cl)cc2)cc1 (protonated)
CCC(=O)[N-]S(=O)(=O)c1ccccc1-c1ccc(CN(C[C@H]2CCCO2)C(=O)Cc2ccc(Cl)cc2)cc1 (chirality)
CCC(=O)[N-]S(=O)(=O)c1ccccc1-c1ccc(CN(C[C@H]2CCCO2)C(=O)Cc2ccc(Cl)cc2)cc1 (3D coordinates assigned)
CCC(=O)[N-]S(=O)(=O)c1ccccc1-c1ccc(CN(C[C@H]2CCCO2)C(=O)Cc2ccc(Cl)cc2)cc1 (nonaromatic ring conformer: 72.78550718501229 kcal/mol)

>  <smiles>  (10) 
CCC(=O)NS(=O)(=O)c1ccccc1-c1ccc(CN(CC2CCCO2)C(=O)Cc2ccc(Cl)cc2)cc1

>  <score_type>  (10) 
oracle

>  <origin>  (10) 
adg

>  <m_score__min__energy>  (10) 
-12

>  <m_primary>  (10) 
energy

$$$$
10:0
     RDKit          3D

 40 42  0  0  0  0  0  0  0  0999 V2000
   57.9436   28.9755   43.5193 H   0  0  0  0  0  0  0  0  0  0  0  0
   58.1800   29.3740   44.5170 C   0  0  0  0  0  0  0  0  0  0  0  0
   58.2070   30.8360   44.7110 C   0  0  0  0  0  0  0  0  0  0  0  0
   57.8240   31.5770   43.7660 O   0  0  0  0  0  0  0  0  0  0  0  0
   58.6540   31.4320   45.9410 N   0  0  0  0  0  0  0  0  0  0  0  0
   59.9820   31.1050   46.4810 C   0  0  0  0  0  0  0  0  0  0  0  0
   60.3187   30.1459   46.0605 H   0  0  0  0  0  0  0  0  0  0  0  0
   60.6865   31.9043   46.2074 H   0  0  0  0  0  0  0  0  0  0  0  0
   59.9220   30.9940   48.0120 C   0  0  0  0  0  0  0  0  0  0  0  0
   59.5057   30.0124   48.2825 H   0  0  0  0  0  0  0  0  0  0  0  0
   60.9427   31.1103   48.4052 H   0  0  0  0  0  0  0  0  0  0  0  0
   59.0800   32.0480   48.6000 N   0  0  0  0  0  0  0  0  0  0  0  0
   58.7090   31.9670   49.9900 C   0  0  0  0  0  0  0  0  0  0  0  0
   58.9020   33.0680   50.8440 C   0  0  0  0  0  0  0  0  0  0  0  0
   59.3494   33.9930   50.4513 H   0  0  0  0  0  0  0  0  0  0  0  0
   58.5280   32.9930   52.1900 C   0  0  0  0  0  0  0  0  0  0  0  0
   58.6854   33.8568   52.8526 H   0  0  0  0  0  0  0  0  0  0  0  0
   57.9550   31.8230   52.6940 C   0  0  0  0  0  0  0  0  0  0  0  0
   57.5850   31.7500   54.0310 O   0  0  0  0  0  0  0  0  0  0  0  0
   57.7540   30.7250   51.8510 C   0  0  0  0  0  0  0  0  0  0  0  0
   57.3033   29.8034   52.2478 H   0  0  0  0  0  0  0  0  0  0  0  0
   58.1250   30.7970   50.5050 C   0  0  0  0  0  0  0  0  0  0  0  0
   57.9588   29.9328   49.8451 H   0  0  0  0  0  0  0  0  0  0  0  0
   58.5680   33.1280   47.7480 C   0  0  0  0  0  0  0  0  0  0  0  0
   57.8490   33.7342   48.3186 H   0  0  0  0  0  0  0  0  0  0  0  0
   59.4056   33.7606   47.4191 H   0  0  0  0  0  0  0  0  0  0  0  0
   57.8710   32.5320   46.5220 C   0  0  0  0  0  0  0  0  0  0  0  0
   56.8844   32.1492   46.8222 H   0  0  0  0  0  0  0  0  0  0  0  0
   57.7693   33.3223   45.7637 H   0  0  0  0  0  0  0  0  0  0  0  0
   58.4330   28.5150   45.5120 C   0  0  0  0  0  0  0  0  0  0  0  0
   59.3416   28.6608   46.1146 H   0  0  0  0  0  0  0  0  0  0  0  0
   57.5420   27.3760   45.8370 C   0  0  0  0  0  0  0  0  0  0  0  0
   56.1460   27.4280   45.6550 C   0  0  0  0  0  0  0  0  0  0  0  0
   55.5260   28.5790   45.1810 O   0  0  0  0  0  0  0  0  0  0  0  0
   55.3790   26.3540   45.9760 N   0  0  0  0  0  0  0  0  0  0  0  0
   55.9300   25.2250   46.4880 C   0  0  0  0  0  0  0  0  0  0  0  0
   55.1980   24.2430   46.7730 O   0  0  0  0  0  0  0  0  0  0  0  0
   57.2690   25.1580   46.6980 N   0  0  0  0  0  0  0  0  0  0  0  0
   58.0810   26.2020   46.3940 C   0  0  0  0  0  0  0  0  0  0  0  0
   59.3200   26.1000   46.6050 O   0  0  0  0  0  0  0  0  0  0  0  0
  1  2  1  0
  2  3  1  0
  3  4  2  0
  3  5  1  0
  5  6  1  0
  6  7  1  0
  6  8  1  0
  6  9  1  0
  9 10  1  0
  9 11  1  0
  9 12  1  0
 12 13  1  0
 13 14  2  0
 14 15  1  0
 14 16  1  0
 16 17  1  0
 16 18  2  0
 18 19  1  0
 18 20  1  0
 20 21  1  0
 20 22  2  0
 22 23  1  0
 12 24  1  0
 24 25  1  0
 24 26  1  0
 24 27  1  0
 27 28  1  0
 27 29  1  0
  2 30  2  0
 30 31  1  0
 30 32  1  0
 32 33  2  0
 33 34  1  0
 33 35  1  0
 35 36  1  0
 36 37  2  0
 36 38  1  0
 38 39  1  0
 39 40  2  0
 27  5  1  0
 39 32  1  0
 22 13  1  0
M  CHG  4  19  -1  34  -1  35  -1  38  -1
M  END
>  <UniqueID>  (11) 
10

>  <SMILES>  (11) 
O=C(/C=C/c1c([O-])[n-]c(=O)[n-]c1=O)N1CCN(c2ccc([O-])cc2)CC1

>  <Energy>  (11) 
56.39558523092596

>  <Genealogy>  (11) 
O=C(C=Cc1c([O-])[n-]c(=O)[n-]c1=O)N1CCN(c2ccc([O-])cc2)CC1 (protonated)
O=C(/C=C/c1c([O-])[n-]c(=O)[n-]c1=O)N1CCN(c2ccc([O-])cc2)CC1 (cis-trans isomerization)
O=C(/C=C/c1c([O-])[n-]c(=O)[n-]c1=O)N1CCN(c2ccc([O-])cc2)CC1 (3D coordinates assigned)
O=C(/C=C/c1c([O-])[n-]c(=O)[n-]c1=O)N1CCN(c2ccc([O-])cc2)CC1 (nonaromatic ring conformer: 56.39558523092596 kcal/mol)

>  <smiles>  (11) 
O=C(C=Cc1c(O)[nH]c(=O)[nH]c1=O)N1CCN(c2ccc(O)cc2)CC1

>  <score_type>  (11) 
oracle

>  <origin>  (11) 
adg

>  <m_score__min__energy>  (11) 
-15.279999999999999

>  <m_primary>  (11) 
energy

$$$$
11:0
     RDKit          3D

 27 28  0  0  0  0  0  0  0  0999 V2000
   57.0386   29.5351   42.5226 H   0  0  0  0  0  0  0  0  0  0  0  0
   56.9630   29.2380   43.5790 C   0  0  0  0  0  0  0  0  0  0  0  0
   56.1100   30.0580   44.4580 C   0  0  0  0  0  0  0  0  0  0  0  0
   55.1570   29.5040   45.0690 O   0  0  0  0  0  0  0  0  0  0  0  0
   56.2790   31.4480   44.5140 O   0  0  0  0  0  0  0  0  0  0  0  0
   57.3780   32.1110   45.0770 C   0  0  0  0  0  0  0  0  0  0  0  0
   58.2720   31.3720   45.8630 C   0  0  0  0  0  0  0  0  0  0  0  0
   58.1054   30.2951   46.0130 H   0  0  0  0  0  0  0  0  0  0  0  0
   59.3740   31.9930   46.4580 C   0  0  0  0  0  0  0  0  0  0  0  0
   60.0754   31.4029   47.0661 H   0  0  0  0  0  0  0  0  0  0  0  0
   59.5850   33.3620   46.2810 C   0  0  0  0  0  0  0  0  0  0  0  0
   60.4560   33.8487   46.7441 H   0  0  0  0  0  0  0  0  0  0  0  0
   58.6890   34.1140   45.5150 C   0  0  0  0  0  0  0  0  0  0  0  0
   58.8518   35.1937   45.3818 H   0  0  0  0  0  0  0  0  0  0  0  0
   57.5860   33.4950   44.9180 C   0  0  0  0  0  0  0  0  0  0  0  0
   56.8787   34.0909   44.3224 H   0  0  0  0  0  0  0  0  0  0  0  0
   57.6540   28.1570   43.9700 C   0  0  0  0  0  0  0  0  0  0  0  0
   58.5336   27.8745   43.3729 H   0  0  0  0  0  0  0  0  0  0  0  0
   57.3270   27.3170   45.1380 C   0  0  0  0  0  0  0  0  0  0  0  0
   58.2340   26.5260   45.8130 C   0  0  0  0  0  0  0  0  0  0  0  0
   59.3157   26.4554   45.6258 H   0  0  0  0  0  0  0  0  0  0  0  0
   57.5130   25.8410   46.7700 C   0  0  0  0  0  0  0  0  0  0  0  0
   57.9108   25.1273   47.5065 H   0  0  0  0  0  0  0  0  0  0  0  0
   56.1950   26.2260   46.6230 C   0  0  0  0  0  0  0  0  0  0  0  0
   55.3583   25.8591   47.2357 H   0  0  0  0  0  0  0  0  0  0  0  0
   56.0850   27.1160   45.6200 N   0  0  0  0  0  0  0  0  0  0  0  0
   55.1930   27.5310   45.2650 H   0  0  0  0  0  0  0  0  0  0  0  0
  1  2  1  0
  2  3  1  0
  3  4  2  0
  3  5  1  0
  5  6  1  0
  6  7  2  0
  7  8  1  0
  7  9  1  0
  9 10  1  0
  9 11  2  0
 11 12  1  0
 11 13  1  0
 13 14  1  0
 13 15  2  0
 15 16  1  0
  2 17  2  0
 17 18  1  0
 17 19  1  0
 19 20  2  0
 20 21  1  0
 20 22  1  0
 22 23  1  0
 22 24  2  0
 24 25  1  0
 24 26  1  0
 26 27  1  0
 15  6  1  0
 26 19  1  0
M  END
>  <UniqueID>  (12) 
11

>  <SMILES>  (12) 
O=C(/C=C\c1ccc[nH]1)Oc1ccccc1

>  <Energy>  (12) 
61.39150384563317

>  <Genealogy>  (12) 
O=C(/C=C\c1ccc[nH]1)Oc1ccccc1 (cis-trans isomerization)
O=C(/C=C\c1ccc[nH]1)Oc1ccccc1 (3D coordinates assigned)
O=C(/C=C\c1ccc[nH]1)Oc1ccccc1 (optimized conformer: 61.39150384563317 kcal/mol)

>  <smiles>  (12) 
O=C(C=Cc1ccc[nH]1)Oc1ccccc1

>  <score_type>  (12) 
oracle

>  <origin>  (12) 
adg

>  <m_score__min__energy>  (12) 
-6.5999999999999996

>  <m_primary>  (12) 
energy

$$$$
12:0
     RDKit          3D

 40 41  0  0  0  0  0  0  0  0999 V2000
   54.7860   26.7130   45.1170 H   0  0  0  0  0  0  0  0  0  0  0  0
   55.2220   26.6590   46.0650 N   0  0  0  0  0  0  0  0  0  0  0  0
   56.9170   26.9200   45.8570 S   0  0  0  0  0  0  0  0  0  0  0  0
   57.4450   25.9830   44.8060 O   0  0  0  0  0  0  0  0  0  0  0  0
   57.6290   26.6430   47.1510 O   0  0  0  0  0  0  0  0  0  0  0  0
   57.1990   28.5870   45.3650 C   0  0  0  0  0  0  0  0  0  0  0  0
   58.2490   29.3210   45.9320 C   0  0  0  0  0  0  0  0  0  0  0  0
   58.9057   28.8511   46.6790 H   0  0  0  0  0  0  0  0  0  0  0  0
   58.4650   30.6500   45.5510 C   0  0  0  0  0  0  0  0  0  0  0  0
   59.2831   31.2245   46.0100 H   0  0  0  0  0  0  0  0  0  0  0  0
   57.6450   31.2530   44.5880 C   0  0  0  0  0  0  0  0  0  0  0  0
   57.8660   32.6710   44.2360 C   0  0  0  0  0  0  0  0  0  0  0  0
   58.0977   32.9006   43.1855 H   0  0  0  0  0  0  0  0  0  0  0  0
   57.8070   33.7020   45.0940 C   0  0  0  0  0  0  0  0  0  0  0  0
   56.8610   34.2608   45.1469 H   0  0  0  0  0  0  0  0  0  0  0  0
   58.9050   34.1470   45.9710 C   0  0  0  0  0  0  0  0  0  0  0  0
   58.9330   35.3240   46.4230 O   0  0  0  0  0  0  0  0  0  0  0  0
   59.9980   33.2540   46.2140 N   0  0  0  0  0  0  0  0  0  0  0  0
   61.0580   33.4470   47.1630 C   0  0  0  0  0  0  0  0  0  0  0  0
   62.4000   33.5590   46.7520 C   0  0  0  0  0  0  0  0  0  0  0  0
   62.6535   33.4823   45.6844 H   0  0  0  0  0  0  0  0  0  0  0  0
   63.4110   33.7670   47.6930 C   0  0  0  0  0  0  0  0  0  0  0  0
   64.4589   33.8402   47.3666 H   0  0  0  0  0  0  0  0  0  0  0  0
   63.0930   33.8820   49.0460 C   0  0  0  0  0  0  0  0  0  0  0  0
   63.8914   34.0416   49.7857 H   0  0  0  0  0  0  0  0  0  0  0  0
   61.7630   33.7950   49.4640 C   0  0  0  0  0  0  0  0  0  0  0  0
   61.5177   33.8940   50.5317 H   0  0  0  0  0  0  0  0  0  0  0  0
   60.7330   33.5810   48.5250 C   0  0  0  0  0  0  0  0  0  0  0  0
   59.3790   33.4970   48.8970 O   0  0  0  0  0  0  0  0  0  0  0  0
   58.5320   32.3640   48.7110 C   0  0  0  0  0  0  0  0  0  0  0  0
   58.2470   32.2973   47.6507 H   0  0  0  0  0  0  0  0  0  0  0  0
   57.6387   32.4850   49.3414 H   0  0  0  0  0  0  0  0  0  0  0  0
   59.2460   31.0800   49.1180 C   0  0  0  0  0  0  0  0  0  0  0  0
   59.2832   31.0132   50.2153 H   0  0  0  0  0  0  0  0  0  0  0  0
   58.7001   30.2137   48.7162 H   0  0  0  0  0  0  0  0  0  0  0  0
   60.2700   31.0867   48.7162 H   0  0  0  0  0  0  0  0  0  0  0  0
   56.5690   30.5260   44.0500 C   0  0  0  0  0  0  0  0  0  0  0  0
   55.8936   31.0038   43.3251 H   0  0  0  0  0  0  0  0  0  0  0  0
   56.3530   29.1980   44.4320 C   0  0  0  0  0  0  0  0  0  0  0  0
   55.5157   28.6319   43.9979 H   0  0  0  0  0  0  0  0  0  0  0  0
  1  2  1  0
  2  3  1  0
  3  4  2  0
  3  5  2  0
  3  6  1  0
  6  7  2  0
  7  8  1  0
  7  9  1  0
  9 10  1  0
  9 11  2  0
 11 12  1  0
 12 13  1  0
 12 14  2  0
 14 15  1  0
 14 16  1  0
 16 17  2  0
 16 18  1  0
 18 19  1  0
 19 20  2  0
 20 21  1  0
 20 22  1  0
 22 23  1  0
 22 24  2  0
 24 25  1  0
 24 26  1  0
 26 27  1  0
 26 28  2  0
 28 29  1  0
 29 30  1  0
 30 31  1  0
 30 32  1  0
 30 33  1  0
 33 34  1  0
 33 35  1  0
 33 36  1  0
 11 37  1  0
 37 38  1  0
 37 39  2  0
 39 40  1  0
 39  6  1  0
 28 19  1  0
M  CHG  2   2  -1  18  -1
M  END
>  <UniqueID>  (13) 
12

>  <SMILES>  (13) 
CCOc1ccccc1[N-]C(=O)/C=C\c1ccc(S([NH-])(=O)=O)cc1

>  <Energy>  (13) 
48.87277114972203

>  <Genealogy>  (13) 
CCOc1ccccc1[N-]C(=O)C=Cc1ccc(S([NH-])(=O)=O)cc1 (protonated)
CCOc1ccccc1[N-]C(=O)/C=C\c1ccc(S([NH-])(=O)=O)cc1 (cis-trans isomerization)
CCOc1ccccc1[N-]C(=O)/C=C\c1ccc(S([NH-])(=O)=O)cc1 (3D coordinates assigned)
CCOc1ccccc1[N-]C(=O)/C=C\c1ccc(S([NH-])(=O)=O)cc1 (optimized conformer: 48.87277114972203 kcal/mol)

>  <smiles>  (13) 
CCOc1ccccc1NC(=O)C=Cc1ccc(S(N)(=O)=O)cc1

>  <score_type>  (13) 
oracle

>  <origin>  (13) 
adg

>  <m_score__min__energy>  (13) 
-11.6

>  <m_primary>  (13) 
energy

$$$$
13:0
     RDKit          3D

 45 48  0  0  0  0  0  0  0  0999 V2000
   57.0090   32.0350   51.1480 N   0  0  0  0  0  0  0  0  0  0  0  0
   58.4320   31.5450   50.3010 S   0  0  0  0  0  0  0  0  0  0  0  0
   58.2310   30.1680   49.7420 O   0  0  0  0  0  0  0  0  0  0  0  0
   59.5940   31.5200   51.2560 O   0  0  0  0  0  0  0  0  0  0  0  0
   58.7540   32.6730   48.9920 C   0  0  0  0  0  0  0  0  0  0  0  0
   59.7230   33.6740   49.1430 C   0  0  0  0  0  0  0  0  0  0  0  0
   59.9560   34.5840   48.1110 C   0  0  0  0  0  0  0  0  0  0  0  0
   59.2210   34.5050   46.9240 C   0  0  0  0  0  0  0  0  0  0  0  0
   58.2420   33.5100   46.7590 C   0  0  0  0  0  0  0  0  0  0  0  0
   57.4310   33.4580   45.5170 C   0  0  0  0  0  0  0  0  0  0  0  0
   57.3350   34.4940   44.8050 O   0  0  0  0  0  0  0  0  0  0  0  0
   56.6950   32.2880   45.1260 N   0  0  0  0  0  0  0  0  0  0  0  0
   57.2080   31.1130   44.9120 C   0  0  0  0  0  0  0  0  0  0  0  0
   58.1990   30.5740   45.6540 N   0  0  0  0  0  0  0  0  0  0  0  0
   58.5400   29.3330   45.2050 C   0  0  0  0  0  0  0  0  0  0  0  0
   59.6670   28.5420   45.8090 C   0  0  0  0  0  0  0  0  0  0  0  0
   60.4110   29.3310   46.8550 C   0  0  0  0  0  0  0  0  0  0  0  0
   60.3960   28.9250   48.2010 C   0  0  0  0  0  0  0  0  0  0  0  0
   61.0850   29.6570   49.1720 C   0  0  0  0  0  0  0  0  0  0  0  0
   61.7780   30.8210   48.8140 C   0  0  0  0  0  0  0  0  0  0  0  0
   62.4630   31.5710   49.7830 C   0  0  0  0  0  0  0  0  0  0  0  0
   63.1300   32.7450   49.4170 C   0  0  0  0  0  0  0  0  0  0  0  0
   63.1190   33.1780   48.0880 C   0  0  0  0  0  0  0  0  0  0  0  0
   62.4480   32.4330   47.1130 C   0  0  0  0  0  0  0  0  0  0  0  0
   61.7760   31.2520   47.4660 C   0  0  0  0  0  0  0  0  0  0  0  0
   61.0980   30.4980   46.4960 C   0  0  0  0  0  0  0  0  0  0  0  0
   57.8420   28.9040   44.0760 C   0  0  0  0  0  0  0  0  0  0  0  0
   56.7450   30.1090   43.6500 S   0  0  0  0  0  0  0  0  0  0  0  0
   58.0070   32.6040   47.8090 C   0  0  0  0  0  0  0  0  0  0  0  0
   56.1920   31.7460   50.5610 H   0  0  0  0  0  0  0  0  0  0  0  0
   57.0140   33.0800   51.1620 H   0  0  0  0  0  0  0  0  0  0  0  0
   60.3009   33.7425   50.0765 H   0  0  0  0  0  0  0  0  0  0  0  0
   60.7202   35.3659   48.2316 H   0  0  0  0  0  0  0  0  0  0  0  0
   59.4101   35.2257   46.1147 H   0  0  0  0  0  0  0  0  0  0  0  0
   59.2548   27.6346   46.2746 H   0  0  0  0  0  0  0  0  0  0  0  0
   60.3747   28.2896   45.0056 H   0  0  0  0  0  0  0  0  0  0  0  0
   59.8372   28.0234   48.4924 H   0  0  0  0  0  0  0  0  0  0  0  0
   61.0832   29.3188   50.2187 H   0  0  0  0  0  0  0  0  0  0  0  0
   62.4753   31.2354   50.8305 H   0  0  0  0  0  0  0  0  0  0  0  0
   63.6658   33.3303   50.1789 H   0  0  0  0  0  0  0  0  0  0  0  0
   63.6389   34.1062   47.8086 H   0  0  0  0  0  0  0  0  0  0  0  0
   62.4468   32.7732   46.0669 H   0  0  0  0  0  0  0  0  0  0  0  0
   61.1060   30.8257   45.4460 H   0  0  0  0  0  0  0  0  0  0  0  0
   57.9834   27.9457   43.5548 H   0  0  0  0  0  0  0  0  0  0  0  0
   57.2291   31.8339   47.7001 H   0  0  0  0  0  0  0  0  0  0  0  0
  1  2  1  0
  2  3  2  0
  2  4  2  0
  2  5  1  0
  5  6  2  0
  6  7  1  0
  7  8  2  0
  8  9  1  0
  9 10  1  0
 10 11  2  0
 10 12  1  0
 12 13  2  3
 13 14  1  0
 14 15  1  0
 15 16  1  0
 16 17  1  0
 17 18  2  0
 18 19  1  0
 19 20  2  0
 20 21  1  0
 21 22  2  0
 22 23  1  0
 23 24  2  0
 24 25  1  0
 25 26  2  0
 15 27  2  0
 27 28  1  0
  9 29  2  0
 29  5  1  0
 28 13  1  0
 26 17  1  0
 25 20  1  0
  1 30  1  0
  1 31  1  0
  6 32  1  0
  7 33  1  0
  8 34  1  0
 16 35  1  0
 16 36  1  0
 18 37  1  0
 19 38  1  0
 21 39  1  0
 22 40  1  0
 23 41  1  0
 24 42  1  0
 26 43  1  0
 27 44  1  0
 29 45  1  0
M  CHG  1  14  -1
M  END
>  <UniqueID>  (14) 
13

>  <SMILES>  (14) 
NS(=O)(=O)c1cccc(C(=O)N=c2[n-]c(Cc3ccc4ccccc4c3)cs2)c1

>  <Energy>  (14) 
79.98856623373077

>  <Genealogy>  (14) 
NS(=O)(=O)c1cccc(C(=O)N=c2[n-]c(Cc3ccc4ccccc4c3)cs2)c1 (protonated)
NS(=O)(=O)c1cccc(C(=O)N=c2[n-]c(Cc3ccc4ccccc4c3)cs2)c1 (3D coordinates assigned)
NS(=O)(=O)c1cccc(C(=O)N=c2[n-]c(Cc3ccc4ccccc4c3)cs2)c1 (optimized conformer: 79.98856623373077 kcal/mol)

>  <smiles>  (14) 
NS(=O)(=O)c1cccc(C(=O)N=c2[nH]c(Cc3ccc4ccccc4c3)cs2)c1

>  <score_type>  (14) 
oracle

>  <origin>  (14) 
adg

>  <m_score__min__energy>  (14) 
-12.359999999999999

>  <m_primary>  (14) 
energy

$$$$
14:0
     RDKit          3D

 39 41  0  0  0  0  0  0  0  0999 V2000
   58.2870   21.4610   43.8750 C   0  0  0  0  0  0  0  0  0  0  0  0
   56.7960   21.5390   43.7500 C   0  0  0  0  0  0  0  0  0  0  0  0
   56.1980   20.6790   43.0510 O   0  0  0  0  0  0  0  0  0  0  0  0
   56.0240   22.5350   44.4340 N   0  0  0  0  0  0  0  0  0  0  0  0
   56.3730   23.9150   44.6120 C   0  0  0  0  0  0  0  0  0  0  0  0
   56.1190   24.5900   45.8190 C   0  0  0  0  0  0  0  0  0  0  0  0
   56.4970   25.9270   45.9690 C   0  0  0  0  0  0  0  0  0  0  0  0
   57.1450   26.6040   44.9240 C   0  0  0  0  0  0  0  0  0  0  0  0
   57.5500   27.9740   45.0840 N   0  0  0  0  0  0  0  0  0  0  0  0
   58.8110   28.4600   45.1720 C   0  0  0  0  0  0  0  0  0  0  0  0
   59.9660   27.6800   45.2050 O   0  0  0  0  0  0  0  0  0  0  0  0
   58.8080   29.8390   45.2570 C   0  0  0  0  0  0  0  0  0  0  0  0
   57.4780   30.2070   45.2490 C   0  0  0  0  0  0  0  0  0  0  0  0
   56.9930   31.5580   45.2500 N   0  0  0  0  0  0  0  0  0  0  0  0
   57.7990   32.7020   45.5760 C   0  0  0  0  0  0  0  0  0  0  0  0
   58.1480   32.9930   46.9080 C   0  0  0  0  0  0  0  0  0  0  0  0
   58.9580   34.0940   47.1990 C   0  0  0  0  0  0  0  0  0  0  0  0
   59.4380   34.9040   46.1660 C   0  0  0  0  0  0  0  0  0  0  0  0
   59.1170   34.6070   44.8400 C   0  0  0  0  0  0  0  0  0  0  0  0
   58.3060   33.5060   44.5440 C   0  0  0  0  0  0  0  0  0  0  0  0
   56.7350   29.0470   45.1200 C   0  0  0  0  0  0  0  0  0  0  0  0
   55.3530   28.9800   44.9740 O   0  0  0  0  0  0  0  0  0  0  0  0
   57.4330   25.9160   43.7360 C   0  0  0  0  0  0  0  0  0  0  0  0
   57.0540   24.5780   43.5860 C   0  0  0  0  0  0  0  0  0  0  0  0
   58.5655   21.4464   44.9391 H   0  0  0  0  0  0  0  0  0  0  0  0
   58.6482   20.5427   43.3889 H   0  0  0  0  0  0  0  0  0  0  0  0
   58.7420   22.3366   43.3889 H   0  0  0  0  0  0  0  0  0  0  0  0
   55.6215   24.0643   46.6473 H   0  0  0  0  0  0  0  0  0  0  0  0
   56.2854   26.4522   46.9121 H   0  0  0  0  0  0  0  0  0  0  0  0
   60.7790   27.9030   44.6460 H   0  0  0  0  0  0  0  0  0  0  0  0
   59.6821   30.5039   45.3182 H   0  0  0  0  0  0  0  0  0  0  0  0
   55.9930   31.7150   44.9890 H   0  0  0  0  0  0  0  0  0  0  0  0
   57.7818   32.3514   47.7231 H   0  0  0  0  0  0  0  0  0  0  0  0
   59.2183   34.3236   48.2428 H   0  0  0  0  0  0  0  0  0  0  0  0
   60.0684   35.7752   46.3976 H   0  0  0  0  0  0  0  0  0  0  0  0
   59.5023   35.2396   44.0268 H   0  0  0  0  0  0  0  0  0  0  0  0
   58.0647   33.2696   43.4971 H   0  0  0  0  0  0  0  0  0  0  0  0
   57.9592   26.4310   42.9188 H   0  0  0  0  0  0  0  0  0  0  0  0
   57.2932   24.0436   42.6548 H   0  0  0  0  0  0  0  0  0  0  0  0
  1  2  1  0
  2  3  2  0
  2  4  1  0
  4  5  1  0
  5  6  2  0
  6  7  1  0
  7  8  2  0
  8  9  1  0
  9 10  1  0
 10 11  1  0
 10 12  2  0
 12 13  1  0
 13 14  1  0
 14 15  1  0
 15 16  2  0
 16 17  1  0
 17 18  2  0
 18 19  1  0
 19 20  2  0
 13 21  2  0
 21 22  1  0
  8 23  1  0
 23 24  2  0
 24  5  1  0
 21  9  1  0
 20 15  1  0
  1 25  1  0
  1 26  1  0
  1 27  1  0
  6 28  1  0
  7 29  1  0
 11 30  1  0
 12 31  1  0
 14 32  1  0
 16 33  1  0
 17 34  1  0
 18 35  1  0
 19 36  1  0
 20 37  1  0
 23 38  1  0
 24 39  1  0
M  CHG  2   4  -1  22  -1
M  END
>  <UniqueID>  (15) 
14

>  <SMILES>  (15) 
CC(=O)[N-]c1ccc(-n2c(O)cc(Nc3ccccc3)c2[O-])cc1

>  <Energy>  (15) 
84.5146993683362

>  <Genealogy>  (15) 
CC(=O)[N-]c1ccc(-n2c(O)cc(Nc3ccccc3)c2[O-])cc1 (protonated)
CC(=O)[N-]c1ccc(-n2c(O)cc(Nc3ccccc3)c2[O-])cc1 (3D coordinates assigned)
CC(=O)[N-]c1ccc(-n2c(O)cc(Nc3ccccc3)c2[O-])cc1 (optimized conformer: 84.5146993683362 kcal/mol)

>  <smiles>  (15) 
CC(=O)Nc1ccc(-n2c(O)cc(Nc3ccccc3)c2O)cc1

>  <score_type>  (15) 
oracle

>  <origin>  (15) 
adg

>  <m_score__min__energy>  (15) 
-11.73

>  <m_primary>  (15) 
energy

$$$$
15:0
     RDKit          3D

 53 56  0  0  0  0  0  0  0  0999 V2000
   58.6743   35.6457   46.9972 H   0  0  0  0  0  0  0  0  0  0  0  0
   58.7940   34.5530   47.0370 C   0  0  0  0  0  0  0  0  0  0  0  0
   57.0700   30.2990   45.5940 N   0  0  0  0  0  0  0  0  0  0  0  0
   56.4490   29.4350   44.7450 C   0  0  0  0  0  0  0  0  0  0  0  0
   55.8970   28.3650   45.2440 N   0  0  0  0  0  0  0  0  0  0  0  0
   61.8740   32.4850   49.3760 C   0  0  2  0  0  0  0  0  0  0  0  0
   61.8224   33.1909   50.2180 H   0  0  0  0  0  0  0  0  0  0  0  0
   62.5890   33.2300   48.2200 C   0  0  0  0  0  0  0  0  0  0  0  0
   62.2001   32.8491   47.2642 H   0  0  0  0  0  0  0  0  0  0  0  0
   62.3877   34.3040   48.3470 H   0  0  0  0  0  0  0  0  0  0  0  0
   64.1190   33.0430   48.2370 C   0  0  0  0  0  0  0  0  0  0  0  0
   64.3734   32.1283   47.6814 H   0  0  0  0  0  0  0  0  0  0  0  0
   64.5795   33.9261   47.7700 H   0  0  0  0  0  0  0  0  0  0  0  0
   64.6580   32.9210   49.6760 C   0  0  2  0  0  0  0  0  0  0  0  0
   64.3403   33.8160   50.2311 H   0  0  0  0  0  0  0  0  0  0  0  0
   66.1250   32.8700   49.6770 N   0  0  0  0  0  0  0  0  0  0  0  0
   66.5230   33.7480   50.0830 H   0  0  0  0  0  0  0  0  0  0  0  0
   66.4750   32.7520   48.6990 H   0  0  0  0  0  0  0  0  0  0  0  0
   66.4500   32.0530   50.2430 H   0  0  0  0  0  0  0  0  0  0  0  0
   64.0650   31.6810   50.3980 C   0  0  0  0  0  0  0  0  0  0  0  0
   64.7552   30.8356   50.2605 H   0  0  0  0  0  0  0  0  0  0  0  0
   63.9417   31.9529   51.4567 H   0  0  0  0  0  0  0  0  0  0  0  0
   62.6750   31.2660   49.8730 C   0  0  0  0  0  0  0  0  0  0  0  0
   62.8036   30.5587   49.0404 H   0  0  0  0  0  0  0  0  0  0  0  0
   62.1182   30.7998   50.6992 H   0  0  0  0  0  0  0  0  0  0  0  0
   56.4270   29.7280   43.3670 C   0  0  0  0  0  0  0  0  0  0  0  0
   55.9355   29.0418   42.6617 H   0  0  0  0  0  0  0  0  0  0  0  0
   58.3150   32.3470   46.1550 C   0  0  0  0  0  0  0  0  0  0  0  0
   57.6750   31.4440   45.1700 C   0  0  0  0  0  0  0  0  0  0  0  0
   59.5650   33.9930   48.0030 N   0  0  0  0  0  0  0  0  0  0  0  0
   59.7480   32.6480   48.0950 C   0  0  0  0  0  0  0  0  0  0  0  0
   60.4930   32.1280   49.0280 N   0  0  0  0  0  0  0  0  0  0  0  0
   56.5770   27.1710   45.7500 C   0  0  0  0  0  0  0  0  0  0  0  0
   56.5903   26.4024   44.9632 H   0  0  0  0  0  0  0  0  0  0  0  0
   56.0350   26.8033   46.6338 H   0  0  0  0  0  0  0  0  0  0  0  0
   57.9860   27.4920   46.1480 C   0  0  0  0  0  0  0  0  0  0  0  0
   58.2980   27.9310   47.3980 N   0  0  0  0  0  0  0  0  0  0  0  0
   59.6220   28.1580   47.5350 C   0  0  0  0  0  0  0  0  0  0  0  0
   60.2370   28.7160   48.7720 C   0  0  0  0  0  0  0  0  0  0  0  0
   59.7507   28.2747   49.6545 H   0  0  0  0  0  0  0  0  0  0  0  0
   61.3107   28.4775   48.7874 H   0  0  0  0  0  0  0  0  0  0  0  0
   60.1037   29.8078   48.7874 H   0  0  0  0  0  0  0  0  0  0  0  0
   60.4500   27.8510   46.1050 S   0  0  0  0  0  0  0  0  0  0  0  0
   59.0660   27.3760   45.2760 C   0  0  0  0  0  0  0  0  0  0  0  0
   59.0216   27.0345   44.2313 H   0  0  0  0  0  0  0  0  0  0  0  0
   59.1220   31.8050   47.1700 C   0  0  0  0  0  0  0  0  0  0  0  0
   59.2618   30.7160   47.2374 H   0  0  0  0  0  0  0  0  0  0  0  0
   57.0340   30.8960   42.9050 C   0  0  0  0  0  0  0  0  0  0  0  0
   57.0197   31.1350   41.8314 H   0  0  0  0  0  0  0  0  0  0  0  0
   57.6590   31.7610   43.8030 C   0  0  0  0  0  0  0  0  0  0  0  0
   58.1357   32.6845   43.4426 H   0  0  0  0  0  0  0  0  0  0  0  0
   58.1510   33.7480   46.0920 C   0  0  0  0  0  0  0  0  0  0  0  0
   57.1080   34.5260   44.9050 Cl  0  0  0  0  0  0  0  0  0  0  0  0
  1  2  1  0
  2  3  1  0
  3  4  1  0
  4  5  2  0
  5  6  1  0
  6  7  1  1
  6  8  1  0
  8  9  1  0
  8 10  1  0
  8 11  1  0
 11 12  1  0
 11 13  1  0
 11 14  1  0
 14 15  1  1
 14 16  1  0
 16 17  1  0
 16 18  1  0
 16 19  1  0
 14 20  1  0
 20 21  1  0
 20 22  1  0
 20 23  1  0
 23 24  1  0
 23 25  1  0
  4 26  1  0
 26 27  1  0
 26 28  2  0
 28 29  1  0
 29 30  1  0
 30 31  1  0
 31 32  2  0
 32 33  1  0
 33 34  1  0
 33 35  1  0
 33 36  1  0
 36 37  1  0
 37 38  2  0
 38 39  1  0
 39 40  1  0
 39 41  1  0
 39 42  1  0
 38 43  1  0
 43 44  1  0
 44 45  1  0
 31 46  1  0
 46 47  1  0
 46 48  2  0
 48 49  1  0
 48 50  1  0
 50 51  1  0
 28 52  1  0
 52 53  1  0
 52  2  2  0
 23  6  1  0
 50 29  2  0
 44 36  2  0
M  CHG  3   3  -1  16   1  30  -1
M  END
>  <UniqueID>  (16) 
15

>  <SMILES>  (16) 
Cc1nc(C/N=c2\cccc(-c3c/c(=N/C4CCC([NH3+])CC4)[n-]cc3Cl)[n-]2)cs1

>  <Energy>  (16) 
96.39256393300495

>  <Genealogy>  (16) 
Cc1nc(CN=c2cccc(-c3cc(=NC4CCC([NH3+])CC4)[n-]cc3Cl)[n-]2)cs1 (protonated)
Cc1nc(C/N=c2\cccc(-c3c/c(=N/C4CCC([NH3+])CC4)[n-]cc3Cl)[n-]2)cs1 (cis-trans isomerization)
Cc1nc(C/N=c2\cccc(-c3c/c(=N/C4CCC([NH3+])CC4)[n-]cc3Cl)[n-]2)cs1 (3D coordinates assigned)
Cc1nc(C/N=c2\cccc(-c3c/c(=N/C4CCC([NH3+])CC4)[n-]cc3Cl)[n-]2)cs1 (nonaromatic ring conformer: 96.39256393300495 kcal/mol)

>  <smiles>  (16) 
Cc1nc(CN=c2cccc(-c3cc(=NC4CCC(N)CC4)[nH]cc3Cl)[nH]2)cs1

>  <score_type>  (16) 
oracle

>  <origin>  (16) 
adg

>  <m_score__min__energy>  (16) 
-12.119999999999999

>  <m_primary>  (16) 
energy

$$$$
16:0
     RDKit          3D

 45 49  0  0  0  0  0  0  0  0999 V2000
   57.2050   28.9500   45.5770 H   0  0  0  0  0  0  0  0  0  0  0  0
   56.3300   28.4420   45.5310 O   0  0  0  0  0  0  0  0  0  0  0  0
   56.2740   27.0960   45.8770 C   0  0  0  0  0  0  0  0  0  0  0  0
   55.1300   26.4010   45.9880 N   0  0  0  0  0  0  0  0  0  0  0  0
   55.5650   25.1530   46.2610 C   0  0  0  0  0  0  0  0  0  0  0  0
   54.7810   24.1840   46.4350 O   0  0  0  0  0  0  0  0  0  0  0  0
   56.9080   25.0230   46.3250 N   0  0  0  0  0  0  0  0  0  0  0  0
   57.3540   26.2710   46.1020 C   0  0  0  0  0  0  0  0  0  0  0  0
   58.7840   26.6100   46.0050 C   0  0  0  0  0  0  0  0  0  0  0  0
   59.3202   26.3292   45.0865 H   0  0  0  0  0  0  0  0  0  0  0  0
   60.6550   30.1270   48.5820 C   0  0  0  0  0  0  0  0  0  0  0  0
   60.2790   26.7060   47.9740 C   0  0  0  0  0  0  0  0  0  0  0  0
   60.4492   25.6330   48.1464 H   0  0  0  0  0  0  0  0  0  0  0  0
   60.8210   27.7090   48.7060 N   0  0  0  0  0  0  0  0  0  0  0  0
   60.3850   28.8480   48.1920 N   0  0  0  0  0  0  0  0  0  0  0  0
   59.4720   27.2400   46.9680 C   0  0  0  0  0  0  0  0  0  0  0  0
   61.4250   30.4190   49.5920 N   0  0  0  0  0  0  0  0  0  0  0  0
   62.6510   31.2120   49.5480 C   0  0  0  0  0  0  0  0  0  0  0  0
   63.1797   30.7169   50.3758 H   0  0  0  0  0  0  0  0  0  0  0  0
   63.0040   31.6540   48.1400 C   0  0  0  0  0  0  0  0  0  0  0  0
   64.0579   31.7205   47.8322 H   0  0  0  0  0  0  0  0  0  0  0  0
   62.7298   31.3213   47.1280 H   0  0  0  0  0  0  0  0  0  0  0  0
   62.4370   32.6560   49.1340 C   0  0  0  0  0  0  0  0  0  0  0  0
   63.0807   33.4475   49.5453 H   0  0  0  0  0  0  0  0  0  0  0  0
   61.5825   33.3487   49.1393 H   0  0  0  0  0  0  0  0  0  0  0  0
   60.0820   31.1400   47.8760 N   0  0  0  0  0  0  0  0  0  0  0  0
   59.2630   30.8870   46.8090 C   0  0  0  0  0  0  0  0  0  0  0  0
   58.6680   31.9770   46.0760 N   0  0  0  0  0  0  0  0  0  0  0  0
   57.7940   31.7020   44.9250 C   0  0  0  0  0  0  0  0  0  0  0  0
   58.1378   30.7865   44.4214 H   0  0  0  0  0  0  0  0  0  0  0  0
   56.7630   31.5749   45.2868 H   0  0  0  0  0  0  0  0  0  0  0  0
   57.8260   32.8660   43.9290 C   0  0  0  0  0  0  0  0  0  0  0  0
   58.8418   32.9490   43.5151 H   0  0  0  0  0  0  0  0  0  0  0  0
   57.0863   32.6549   43.1427 H   0  0  0  0  0  0  0  0  0  0  0  0
   57.4470   34.2080   44.5820 C   0  0  0  0  0  0  0  0  0  0  0  0
   58.0002   35.0104   44.0719 H   0  0  0  0  0  0  0  0  0  0  0  0
   56.3572   34.3174   44.4801 H   0  0  0  0  0  0  0  0  0  0  0  0
   57.7660   34.2790   46.0860 C   0  0  0  0  0  0  0  0  0  0  0  0
   58.0246   35.3166   46.3437 H   0  0  0  0  0  0  0  0  0  0  0  0
   56.8756   33.9376   46.6343 H   0  0  0  0  0  0  0  0  0  0  0  0
   58.9350   33.3680   46.4790 C   0  0  0  0  0  0  0  0  0  0  0  0
   59.8503   33.7193   45.9802 H   0  0  0  0  0  0  0  0  0  0  0  0
   59.0590   33.4025   47.5714 H   0  0  0  0  0  0  0  0  0  0  0  0
   59.0100   29.5960   46.4400 N   0  0  0  0  0  0  0  0  0  0  0  0
   59.5850   28.5990   47.1510 C   0  0  0  0  0  0  0  0  0  0  0  0
  1  2  1  0
  2  3  1  0
  3  4  1  0
  4  5  1  0
  5  6  2  0
  5  7  1  0
  7  8  1  0
  8  9  1  0
  9 10  1  0
  9 11  2  0
 11 12  1  0
 12 13  1  0
 12 14  2  0
 14 15  1  0
 15 16  1  0
 16 17  2  0
 17 18  1  0
 18 19  1  0
 18 20  1  0
 20 21  1  0
 20 22  1  0
 20 23  1  0
 23 24  1  0
 23 25  1  0
 16 26  1  0
 26 27  2  0
 27 28  1  0
 28 29  1  0
 29 30  1  0
 29 31  1  0
 29 32  1  0
 32 33  1  0
 32 34  1  0
 32 35  1  0
 35 36  1  0
 35 37  1  0
 35 38  1  0
 38 39  1  0
 38 40  1  0
 38 41  1  0
 41 42  1  0
 41 43  1  0
 27 44  1  0
 44 45  2  0
  8  3  2  0
 45 11  1  0
 45 15  1  0
 23 18  1  0
 41 28  1  0
M  CHG  2   4  -1   7  -1
M  END
>  <UniqueID>  (17) 
16

>  <SMILES>  (17) 
O=c1[n-]c(O)c(/C=c2\cnn3/c(=N\C4CC4)nc(N4CCCCC4)nc23)[n-]1

>  <Energy>  (17) 
389.9131866382592

>  <Genealogy>  (17) 
O=c1[n-]c(O)c(C=c2cnn3c(=NC4CC4)nc(N4CCCCC4)nc23)[n-]1 (protonated)
O=c1[n-]c(O)c(/C=c2\cnn3/c(=N\C4CC4)nc(N4CCCCC4)nc23)[n-]1 (cis-trans isomerization)
O=c1[n-]c(O)c(/C=c2\cnn3/c(=N\C4CC4)nc(N4CCCCC4)nc23)[n-]1 (3D coordinates assigned)
O=c1[n-]c(O)c(/C=c2\cnn3/c(=N\C4CC4)nc(N4CCCCC4)nc23)[n-]1 (nonaromatic ring conformer: 389.9131866382592 kcal/mol)

>  <smiles>  (17) 
O=c1[nH]c(O)c(C=c2cnn3c(=NC4CC4)nc(N4CCCCC4)nc23)[nH]1

>  <score_type>  (17) 
oracle

>  <origin>  (17) 
adg

>  <m_score__min__energy>  (17) 
-12.710000000000001

>  <m_primary>  (17) 
energy

$$$$
17:0
     RDKit          3D

 35 35  0  0  0  0  0  0  0  0999 V2000
   60.6790   33.8940   48.5040 C   0  0  0  0  0  0  0  0  0  0  0  0
   59.8830   33.9920   47.2360 C   0  0  0  0  0  0  0  0  0  0  0  0
   59.8930   35.1770   46.4860 C   0  0  0  0  0  0  0  0  0  0  0  0
   59.1930   35.2520   45.2820 C   0  0  0  0  0  0  0  0  0  0  0  0
   58.4820   34.1450   44.8130 C   0  0  0  0  0  0  0  0  0  0  0  0
   58.4630   32.9450   45.5460 C   0  0  0  0  0  0  0  0  0  0  0  0
   57.7140   31.7750   45.0290 C   0  0  0  0  0  0  0  0  0  0  0  0
   56.4640   31.8580   44.8830 O   0  0  0  0  0  0  0  0  0  0  0  0
   58.3850   30.5430   44.7120 N   0  0  0  0  0  0  0  0  0  0  0  0
   57.6830   29.4020   44.1320 C   0  0  0  0  0  0  0  0  0  0  0  0
   56.6840   28.8630   45.1050 C   0  0  0  0  0  0  0  0  0  0  0  0
   55.4500   28.9990   44.8820 O   0  0  0  0  0  0  0  0  0  0  0  0
   57.1380   28.2000   46.2900 N   0  0  0  0  0  0  0  0  0  0  0  0
   58.0580   27.0690   46.2780 C   0  0  0  0  0  0  0  0  0  0  0  0
   57.5280   25.9640   45.3620 C   0  0  0  0  0  0  0  0  0  0  0  0
   56.0590   25.2110   46.0440 S   0  0  0  0  0  0  0  0  0  0  0  0
   54.7400   26.3270   45.9920 N   0  0  0  0  0  0  0  0  0  0  0  0
   55.7090   23.9980   45.2300 O   0  0  0  0  0  0  0  0  0  0  0  0
   56.3120   24.7950   47.4660 O   0  0  0  0  0  0  0  0  0  0  0  0
   59.1830   32.8750   46.7540 C   0  0  0  0  0  0  0  0  0  0  0  0
   60.0036   33.9772   49.3683 H   0  0  0  0  0  0  0  0  0  0  0  0
   61.1987   32.9251   48.5367 H   0  0  0  0  0  0  0  0  0  0  0  0
   61.4182   34.7079   48.5367 H   0  0  0  0  0  0  0  0  0  0  0  0
   60.4549   36.0504   46.8486 H   0  0  0  0  0  0  0  0  0  0  0  0
   59.2009   36.1855   44.7002 H   0  0  0  0  0  0  0  0  0  0  0  0
   57.9324   34.2124   43.8625 H   0  0  0  0  0  0  0  0  0  0  0  0
   59.3940   30.4200   44.9520 H   0  0  0  0  0  0  0  0  0  0  0  0
   57.1632   29.7218   43.2168 H   0  0  0  0  0  0  0  0  0  0  0  0
   58.4129   28.6146   43.8929 H   0  0  0  0  0  0  0  0  0  0  0  0
   59.0400   27.4037   45.9124 H   0  0  0  0  0  0  0  0  0  0  0  0
   58.1518   26.6728   47.2999 H   0  0  0  0  0  0  0  0  0  0  0  0
   57.2868   26.3967   44.3799 H   0  0  0  0  0  0  0  0  0  0  0  0
   58.3035   25.1900   45.2642 H   0  0  0  0  0  0  0  0  0  0  0  0
   55.1420   27.2860   46.0840 H   0  0  0  0  0  0  0  0  0  0  0  0
   59.1970   31.9354   47.3258 H   0  0  0  0  0  0  0  0  0  0  0  0
  1  2  1  0
  2  3  2  0
  3  4  1  0
  4  5  2  0
  5  6  1  0
  6  7  1  0
  7  8  2  0
  7  9  1  0
  9 10  1  0
 10 11  1  0
 11 12  2  0
 11 13  1  0
 13 14  1  0
 14 15  1  0
 15 16  1  0
 16 17  1  0
 16 18  2  0
 16 19  2  0
  6 20  2  0
 20  2  1  0
  1 21  1  0
  1 22  1  0
  1 23  1  0
  3 24  1  0
  4 25  1  0
  5 26  1  0
  9 27  1  0
 10 28  1  0
 10 29  1  0
 14 30  1  0
 14 31  1  0
 15 32  1  0
 15 33  1  0
 17 34  1  0
 20 35  1  0
M  CHG  2  13  -1  17  -1
M  END
>  <UniqueID>  (18) 
17

>  <SMILES>  (18) 
Cc1cccc(C(=O)NCC(=O)[N-]CCS([NH-])(=O)=O)c1

>  <Energy>  (18) 
22.31637288559474

>  <Genealogy>  (18) 
Cc1cccc(C(=O)NCC(=O)[N-]CCS([NH-])(=O)=O)c1 (protonated)
Cc1cccc(C(=O)NCC(=O)[N-]CCS([NH-])(=O)=O)c1 (3D coordinates assigned)
Cc1cccc(C(=O)NCC(=O)[N-]CCS([NH-])(=O)=O)c1 (optimized conformer: 22.31637288559474 kcal/mol)

>  <smiles>  (18) 
Cc1cccc(C(=O)NCC(=O)NCCS(N)(=O)=O)c1

>  <score_type>  (18) 
oracle

>  <origin>  (18) 
adg

>  <m_score__min__energy>  (18) 
-12.73

>  <m_primary>  (18) 
energy

$$$$
18:0
     RDKit          3D

 54 57  0  0  0  0  0  0  0  0999 V2000
   59.4610   33.8850   51.3550 N   0  0  0  0  0  0  0  0  0  0  0  0
   60.4340   33.7520   50.7430 C   0  0  0  0  0  0  0  0  0  0  0  0
   61.6470   33.5850   49.9820 C   0  0  0  0  0  0  0  0  0  0  0  0
   62.7800   33.0570   50.6170 C   0  0  0  0  0  0  0  0  0  0  0  0
   63.9940   32.9470   49.9250 C   0  0  0  0  0  0  0  0  0  0  0  0
   65.4210   32.2970   50.7260 S   0  0  0  0  0  0  0  0  0  0  0  0
   66.5530   32.1320   49.7490 O   0  0  0  0  0  0  0  0  0  0  0  0
   65.8460   33.2500   51.8060 O   0  0  0  0  0  0  0  0  0  0  0  0
   65.0580   30.7570   51.4400 N   0  0  0  0  0  0  0  0  0  0  0  0
   65.8110   29.6940   51.4080 C   0  0  0  0  0  0  0  0  0  0  0  0
   65.2920   28.4920   51.9070 C   0  0  0  0  0  0  0  0  0  0  0  0
   66.0740   27.3370   51.8780 C   0  0  0  0  0  0  0  0  0  0  0  0
   67.3630   27.3860   51.3520 C   0  0  0  0  0  0  0  0  0  0  0  0
   67.8560   28.5970   50.8640 C   0  0  0  0  0  0  0  0  0  0  0  0
   67.0830   29.7180   50.8990 N   0  0  0  0  0  0  0  0  0  0  0  0
   64.0730   33.3700   48.5940 C   0  0  0  0  0  0  0  0  0  0  0  0
   62.9480   33.8970   47.9550 C   0  0  0  0  0  0  0  0  0  0  0  0
   61.7260   33.9910   48.6320 C   0  0  0  0  0  0  0  0  0  0  0  0
   60.6230   34.5210   47.9490 O   0  0  0  0  0  0  0  0  0  0  0  0
   59.8880   33.8390   46.9680 C   0  0  0  0  0  0  0  0  0  0  0  0
   59.7470   32.4390   46.9800 C   0  0  0  0  0  0  0  0  0  0  0  0
   59.0040   31.7980   45.9860 C   0  0  0  0  0  0  0  0  0  0  0  0
   58.4030   32.5410   44.9590 C   0  0  0  0  0  0  0  0  0  0  0  0
   57.5820   31.8430   43.9100 C   0  0  0  0  0  0  0  0  0  0  0  0
   56.4360   31.2340   44.5020 O   0  0  0  0  0  0  0  0  0  0  0  0
   56.3020   29.8510   44.6760 C   0  0  0  0  0  0  0  0  0  0  0  0
   55.1620   29.3410   44.8420 O   0  0  0  0  0  0  0  0  0  0  0  0
   57.4570   29.0030   44.7640 N   0  0  0  0  0  0  0  0  0  0  0  0
   57.7290   28.0800   45.6460 C   0  0  0  0  0  0  0  0  0  0  0  0
   56.8870   26.9610   45.7120 C   0  0  0  0  0  0  0  0  0  0  0  0
   57.1420   25.9510   46.6420 C   0  0  0  0  0  0  0  0  0  0  0  0
   58.2140   26.0420   47.4710 N   0  0  0  0  0  0  0  0  0  0  0  0
   59.0630   27.1010   47.4210 C   0  0  0  0  0  0  0  0  0  0  0  0
   58.8450   28.1360   46.5070 C   0  0  0  0  0  0  0  0  0  0  0  0
   58.5560   33.9360   44.9380 C   0  0  0  0  0  0  0  0  0  0  0  0
   59.3010   34.5770   45.9340 C   0  0  0  0  0  0  0  0  0  0  0  0
   62.7158   32.7271   51.6644 H   0  0  0  0  0  0  0  0  0  0  0  0
   64.2729   28.4592   52.3196 H   0  0  0  0  0  0  0  0  0  0  0  0
   65.6738   26.3901   52.2695 H   0  0  0  0  0  0  0  0  0  0  0  0
   67.9857   26.4797   51.3216 H   0  0  0  0  0  0  0  0  0  0  0  0
   68.8736   28.6465   50.4492 H   0  0  0  0  0  0  0  0  0  0  0  0
   67.5060   30.5950   50.5240 H   0  0  0  0  0  0  0  0  0  0  0  0
   65.0246   33.2874   48.0484 H   0  0  0  0  0  0  0  0  0  0  0  0
   63.0227   34.2405   46.9127 H   0  0  0  0  0  0  0  0  0  0  0  0
   60.2237   31.8471   47.7752 H   0  0  0  0  0  0  0  0  0  0  0  0
   58.8895   30.7042   46.0086 H   0  0  0  0  0  0  0  0  0  0  0  0
   57.2554   32.5761   43.1577 H   0  0  0  0  0  0  0  0  0  0  0  0
   58.1961   31.0636   43.4352 H   0  0  0  0  0  0  0  0  0  0  0  0
   56.0264   26.8787   45.0319 H   0  0  0  0  0  0  0  0  0  0  0  0
   56.4732   25.0798   46.7033 H   0  0  0  0  0  0  0  0  0  0  0  0
   59.9255   27.1444   48.1024 H   0  0  0  0  0  0  0  0  0  0  0  0
   59.5389   28.9882   46.4595 H   0  0  0  0  0  0  0  0  0  0  0  0
   58.0890   34.5270   44.1364 H   0  0  0  0  0  0  0  0  0  0  0  0
   59.4262   35.6694   45.9040 H   0  0  0  0  0  0  0  0  0  0  0  0
  1  2  3  0
  2  3  1  0
  3  4  2  0
  4  5  1  0
  5  6  1  0
  6  7  2  0
  6  8  2  0
  6  9  1  0
  9 10  2  3
 10 11  1  0
 11 12  2  0
 12 13  1  0
 13 14  2  0
 14 15  1  0
  5 16  2  0
 16 17  1  0
 17 18  2  0
 18 19  1  0
 19 20  1  0
 20 21  2  0
 21 22  1  0
 22 23  2  0
 23 24  1  0
 24 25  1  0
 25 26  1  0
 26 27  2  0
 26 28  1  0
 28 29  2  3
 29 30  1  0
 30 31  2  0
 31 32  1  0
 32 33  1  0
 33 34  2  0
 23 35  1  0
 35 36  2  0
 18  3  1  0
 36 20  1  0
 15 10  1  0
 34 29  1  0
  4 37  1  0
 11 38  1  0
 12 39  1  0
 13 40  1  0
 14 41  1  0
 15 42  1  0
 16 43  1  0
 17 44  1  0
 21 45  1  0
 22 46  1  0
 24 47  1  0
 24 48  1  0
 30 49  1  0
 31 50  1  0
 33 51  1  0
 34 52  1  0
 35 53  1  0
 36 54  1  0
M  CHG  1  32  -1
M  END
>  <UniqueID>  (19) 
18

>  <SMILES>  (19) 
N#Cc1cc(S(=O)(=O)N=c2cccc[nH]2)ccc1Oc1ccc(COC(=O)N=c2cc[n-]cc2)cc1

>  <Energy>  (19) 
77.69590659210198

>  <Genealogy>  (19) 
N#Cc1cc(S(=O)(=O)N=c2cccc[nH]2)ccc1Oc1ccc(COC(=O)N=c2cc[n-]cc2)cc1 (protonated)
N#Cc1cc(S(=O)(=O)N=c2cccc[nH]2)ccc1Oc1ccc(COC(=O)N=c2cc[n-]cc2)cc1 (3D coordinates assigned)
N#Cc1cc(S(=O)(=O)N=c2cccc[nH]2)ccc1Oc1ccc(COC(=O)N=c2cc[n-]cc2)cc1 (optimized conformer: 77.69590659210198 kcal/mol)

>  <smiles>  (19) 
N#Cc1cc(S(=O)(=O)N=c2cccc[nH]2)ccc1Oc1ccc(COC(=O)N=c2cc[nH]cc2)cc1

>  <score_type>  (19) 
oracle

>  <origin>  (19) 
adg

>  <m_score__min__energy>  (19) 
-12.119999999999999

>  <m_primary>  (19) 
energy

$$$$
19:0
     RDKit          3D

 57 60  0  0  0  0  0  0  0  0999 V2000
   58.7450   28.4810   49.0440 H   0  0  0  0  0  0  0  0  0  0  0  0
   59.0590   28.1720   48.0960 N   0  0  0  0  0  0  0  0  0  0  0  0
   58.2130   27.8120   47.1870 C   0  0  0  0  0  0  0  0  0  0  0  0
   58.0980   28.5410   46.0490 N   0  0  0  0  0  0  0  0  0  0  0  0
   57.2140   28.1690   45.0880 C   0  0  0  0  0  0  0  0  0  0  0  0
   57.0960   28.9630   43.8270 C   0  0  0  0  0  0  0  0  0  0  0  0
   58.1030   29.2305   43.4743 H   0  0  0  0  0  0  0  0  0  0  0  0
   56.5749   28.3524   43.0749 H   0  0  0  0  0  0  0  0  0  0  0  0
   56.1340   30.4920   44.1060 S   0  0  0  0  0  0  0  0  0  0  0  0
   57.4080   31.6310   43.5340 C   0  0  0  0  0  0  0  0  0  0  0  0
   57.3850   32.0700   41.9520 S   0  0  0  0  0  0  0  0  0  0  0  0
   58.3080   32.2600   44.4750 N   0  0  0  0  0  0  0  0  0  0  0  0
   58.7930   31.4830   45.6250 C   0  0  0  0  0  0  0  0  0  0  0  0
   57.9290   31.1146   46.1976 H   0  0  0  0  0  0  0  0  0  0  0  0
   59.3971   30.6455   45.2460 H   0  0  0  0  0  0  0  0  0  0  0  0
   59.6710   32.3310   46.5420 C   0  0  0  0  0  0  0  0  0  0  0  0
   59.7771   31.8339   47.5175 H   0  0  0  0  0  0  0  0  0  0  0  0
   60.6689   32.4570   46.0966 H   0  0  0  0  0  0  0  0  0  0  0  0
   59.0310   33.6420   46.7210 N   0  0  0  0  0  0  0  0  0  0  0  0
   59.6500   34.3750   47.8440 C   0  0  0  0  0  0  0  0  0  0  0  0
   59.5665   35.4561   47.6591 H   0  0  0  0  0  0  0  0  0  0  0  0
   59.1271   34.1049   48.7733 H   0  0  0  0  0  0  0  0  0  0  0  0
   61.1050   34.0080   47.9830 C   0  0  0  0  0  0  0  0  0  0  0  0
   61.6050   33.5160   49.2010 C   0  0  0  0  0  0  0  0  0  0  0  0
   60.9371   33.4210   50.0699 H   0  0  0  0  0  0  0  0  0  0  0  0
   62.9490   33.1470   49.3110 C   0  0  0  0  0  0  0  0  0  0  0  0
   63.3375   32.7670   50.2674 H   0  0  0  0  0  0  0  0  0  0  0  0
   63.8000   33.2600   48.2080 C   0  0  0  0  0  0  0  0  0  0  0  0
   64.8572   32.9696   48.2973 H   0  0  0  0  0  0  0  0  0  0  0  0
   63.3080   33.7420   46.9910 C   0  0  0  0  0  0  0  0  0  0  0  0
   63.9783   33.8316   46.1235 H   0  0  0  0  0  0  0  0  0  0  0  0
   61.9640   34.1100   46.8770 C   0  0  0  0  0  0  0  0  0  0  0  0
   61.5777   34.4812   45.9163 H   0  0  0  0  0  0  0  0  0  0  0  0
   59.0890   34.4310   45.4670 C   0  0  0  0  0  0  0  0  0  0  0  0
   58.2958   35.1924   45.4983 H   0  0  0  0  0  0  0  0  0  0  0  0
   60.0938   34.8753   45.4118 H   0  0  0  0  0  0  0  0  0  0  0  0
   58.8990   33.5790   44.1890 C   0  0  0  0  0  0  0  0  0  0  0  0
   58.2358   34.1209   43.4987 H   0  0  0  0  0  0  0  0  0  0  0  0
   59.8923   33.4123   43.7468 H   0  0  0  0  0  0  0  0  0  0  0  0
   56.4470   27.0640   45.2700 N   0  0  0  0  0  0  0  0  0  0  0  0
   56.5540   26.3320   46.4110 C   0  0  0  0  0  0  0  0  0  0  0  0
   55.8360   25.2630   46.5900 N   0  0  0  0  0  0  0  0  0  0  0  0
   56.0440   24.0230   45.9000 C   0  0  0  0  0  0  0  0  0  0  0  0
   56.0820   24.0330   44.5000 C   0  0  0  0  0  0  0  0  0  0  0  0
   55.9699   24.9834   43.9576 H   0  0  0  0  0  0  0  0  0  0  0  0
   56.2610   22.8460   43.7880 C   0  0  0  0  0  0  0  0  0  0  0  0
   56.2800   22.8625   42.6883 H   0  0  0  0  0  0  0  0  0  0  0  0
   56.4160   21.6380   44.4700 C   0  0  0  0  0  0  0  0  0  0  0  0
   56.5439   20.7019   43.9067 H   0  0  0  0  0  0  0  0  0  0  0  0
   56.4090   21.6160   45.8670 C   0  0  0  0  0  0  0  0  0  0  0  0
   56.5304   20.6608   46.3988 H   0  0  0  0  0  0  0  0  0  0  0  0
   56.2480   22.8050   46.5970 C   0  0  0  0  0  0  0  0  0  0  0  0
   56.2740   22.7490   48.1010 C   0  0  0  0  0  0  0  0  0  0  0  0
   55.8440   23.6752   48.5099 H   0  0  0  0  0  0  0  0  0  0  0  0
   55.6839   21.8872   48.4461 H   0  0  0  0  0  0  0  0  0  0  0  0
   57.3131   22.6436   48.4461 H   0  0  0  0  0  0  0  0  0  0  0  0
   57.4430   26.7070   47.3650 N   0  0  0  0  0  0  0  0  0  0  0  0
  1  2  1  0
  2  3  2  0
  3  4  1  0
  4  5  2  0
  5  6  1  0
  6  7  1  0
  6  8  1  0
  6  9  1  0
  9 10  1  0
 10 11  2  0
 10 12  1  0
 12 13  1  0
 13 14  1  0
 13 15  1  0
 13 16  1  0
 16 17  1  0
 16 18  1  0
 16 19  1  0
 19 20  1  0
 20 21  1  0
 20 22  1  0
 20 23  1  0
 23 24  2  0
 24 25  1  0
 24 26  1  0
 26 27  1  0
 26 28  2  0
 28 29  1  0
 28 30  1  0
 30 31  1  0
 30 32  2  0
 32 33  1  0
 19 34  1  0
 34 35  1  0
 34 36  1  0
 34 37  1  0
 37 38  1  0
 37 39  1  0
  5 40  1  0
 40 41  1  0
 41 42  2  0
 42 43  1  0
 43 44  2  0
 44 45  1  0
 44 46  1  0
 46 47  1  0
 46 48  2  0
 48 49  1  0
 48 50  1  0
 50 51  1  0
 50 52  2  0
 52 53  1  0
 53 54  1  0
 53 55  1  0
 53 56  1  0
 41 57  1  0
 57  3  1  0
 37 12  1  0
 52 43  1  0
 32 23  1  0
M  CHG  2  40  -1  57  -1
M  END
>  <UniqueID>  (20) 
19

>  <SMILES>  (20) 
[H]/N=c1/nc(CSC(=S)N2CCN(Cc3ccccc3)CC2)[n-]/c(=N\c2ccccc2C)[n-]1

>  <Energy>  (20) 
71.91517660693138

>  <Genealogy>  (20) 
Cc1ccccc1N=c1[n-]c(CSC(=S)N2CCN(Cc3ccccc3)CC2)nc(=N)[n-]1 (protonated)
[H]/N=c1/nc(CSC(=S)N2CCN(Cc3ccccc3)CC2)[n-]/c(=N\c2ccccc2C)[n-]1 (cis-trans isomerization)
[H]/N=c1/nc(CSC(=S)N2CCN(Cc3ccccc3)CC2)[n-]/c(=N\c2ccccc2C)[n-]1 (3D coordinates assigned)
[H]/N=c1/nc(CSC(=S)N2CCN(Cc3ccccc3)CC2)[n-]/c(=N\c2ccccc2C)[n-]1 (nonaromatic ring conformer: 71.91517660693138 kcal/mol)

>  <smiles>  (20) 
Cc1ccccc1N=c1[nH]c(CSC(=S)N2CCN(Cc3ccccc3)CC2)nc(=N)[nH]1

>  <score_type>  (20) 
oracle

>  <origin>  (20) 
adg

>  <m_score__min__energy>  (20) 
-12.57

>  <m_primary>  (20) 
energy

$$$$
20:0
     RDKit          3D

 41 43  0  0  0  0  0  0  0  0999 V2000
   62.7850   32.3600   48.6160 C   0  0  0  0  0  0  0  0  0  0  0  0
   61.5160   32.6450   47.8010 C   0  0  2  0  0  0  0  0  0  0  0  0
   60.6750   33.7140   48.4670 C   0  0  0  0  0  0  0  0  0  0  0  0
   61.2000   34.4560   49.3410 O   0  0  0  0  0  0  0  0  0  0  0  0
   59.2740   33.8730   48.1930 N   0  0  0  0  0  0  0  0  0  0  0  0
   58.6860   33.7370   47.0420 C   0  0  0  0  0  0  0  0  0  0  0  0
   57.3690   33.4760   46.8820 N   0  0  0  0  0  0  0  0  0  0  0  0
   57.0410   33.3410   45.5710 C   0  0  0  0  0  0  0  0  0  0  0  0
   58.1070   33.4870   44.6950 C   0  0  0  0  0  0  0  0  0  0  0  0
   58.0350   33.3890   43.3450 F   0  0  0  0  0  0  0  0  0  0  0  0
   59.5070   33.7910   45.5750 S   0  0  0  0  0  0  0  0  0  0  0  0
   60.6980   31.3860   47.5680 C   0  0  0  0  0  0  0  0  0  0  0  0
   59.7340   30.9500   48.4990 C   0  0  0  0  0  0  0  0  0  0  0  0
   58.9810   29.7980   48.2560 C   0  0  0  0  0  0  0  0  0  0  0  0
   59.1780   29.0590   47.0820 C   0  0  0  0  0  0  0  0  0  0  0  0
   58.3790   27.8450   46.8210 C   0  0  0  0  0  0  0  0  0  0  0  0
   58.6720   26.6830   47.5520 C   0  0  0  0  0  0  0  0  0  0  0  0
   57.9640   25.5030   47.3250 C   0  0  0  0  0  0  0  0  0  0  0  0
   56.9530   25.4700   46.3640 C   0  0  0  0  0  0  0  0  0  0  0  0
   56.6400   26.6200   45.6380 C   0  0  0  0  0  0  0  0  0  0  0  0
   57.3360   27.8190   45.8600 C   0  0  0  0  0  0  0  0  0  0  0  0
   56.8590   29.2680   44.9550 S   0  0  0  0  0  0  0  0  0  0  0  0
   55.1430   29.3210   44.7540 N   0  0  0  0  0  0  0  0  0  0  0  0
   57.2790   30.5000   45.7070 O   0  0  0  0  0  0  0  0  0  0  0  0
   57.5130   29.2580   43.6030 O   0  0  0  0  0  0  0  0  0  0  0  0
   60.1130   29.5010   46.1370 C   0  0  0  0  0  0  0  0  0  0  0  0
   60.8670   30.6530   46.3770 C   0  0  0  0  0  0  0  0  0  0  0  0
   62.5508   32.4126   49.6895 H   0  0  0  0  0  0  0  0  0  0  0  0
   63.1600   31.3553   48.3713 H   0  0  0  0  0  0  0  0  0  0  0  0
   63.5536   33.1079   48.3713 H   0  0  0  0  0  0  0  0  0  0  0  0
   61.8374   33.0164   46.8167 H   0  0  0  0  0  0  0  0  0  0  0  0
   56.0154   33.1332   45.2319 H   0  0  0  0  0  0  0  0  0  0  0  0
   59.5728   31.5214   49.4250 H   0  0  0  0  0  0  0  0  0  0  0  0
   58.2301   29.4699   48.9899 H   0  0  0  0  0  0  0  0  0  0  0  0
   59.4677   26.7033   48.3112 H   0  0  0  0  0  0  0  0  0  0  0  0
   58.2026   24.5984   47.9036 H   0  0  0  0  0  0  0  0  0  0  0  0
   56.4019   24.5363   46.1784 H   0  0  0  0  0  0  0  0  0  0  0  0
   55.8397   26.5867   44.8840 H   0  0  0  0  0  0  0  0  0  0  0  0
   54.7200   29.3710   45.7080 H   0  0  0  0  0  0  0  0  0  0  0  0
   60.2543   28.9389   45.2021 H   0  0  0  0  0  0  0  0  0  0  0  0
   61.5993   30.9905   45.6288 H   0  0  0  0  0  0  0  0  0  0  0  0
  1  2  1  0
  2  3  1  0
  3  4  2  0
  3  5  1  0
  5  6  2  3
  6  7  1  0
  7  8  1  0
  8  9  2  0
  9 10  1  0
  9 11  1  0
  2 12  1  0
 12 13  2  0
 13 14  1  0
 14 15  2  0
 15 16  1  0
 16 17  2  0
 17 18  1  0
 18 19  2  0
 19 20  1  0
 20 21  2  0
 21 22  1  0
 22 23  1  0
 22 24  2  0
 22 25  2  0
 15 26  1  0
 26 27  2  0
 11  6  1  0
 27 12  1  0
 21 16  1  0
  1 28  1  0
  1 29  1  0
  1 30  1  0
  2 31  1  6
  8 32  1  0
 13 33  1  0
 14 34  1  0
 17 35  1  0
 18 36  1  0
 19 37  1  0
 20 38  1  0
 23 39  1  0
 26 40  1  0
 27 41  1  0
M  CHG  2   7  -1  23  -1
M  END
>  <UniqueID>  (21) 
20

>  <SMILES>  (21) 
C[C@H](C(=O)N=c1[n-]cc(F)s1)c1ccc(-c2ccccc2S([NH-])(=O)=O)cc1

>  <Energy>  (21) 
87.47526008456059

>  <Genealogy>  (21) 
CC(C(=O)N=c1[n-]cc(F)s1)c1ccc(-c2ccccc2S([NH-])(=O)=O)cc1 (protonated)
C[C@H](C(=O)N=c1[n-]cc(F)s1)c1ccc(-c2ccccc2S([NH-])(=O)=O)cc1 (chirality)
C[C@H](C(=O)N=c1[n-]cc(F)s1)c1ccc(-c2ccccc2S([NH-])(=O)=O)cc1 (3D coordinates assigned)
C[C@H](C(=O)N=c1[n-]cc(F)s1)c1ccc(-c2ccccc2S([NH-])(=O)=O)cc1 (optimized conformer: 87.47526008456059 kcal/mol)

>  <smiles>  (21) 
CC(C(=O)N=c1[nH]cc(F)s1)c1ccc(-c2ccccc2S(N)(=O)=O)cc1

>  <score_type>  (21) 
oracle

>  <origin>  (21) 
adg

>  <m_score__min__energy>  (21) 
-12.74

>  <m_primary>  (21) 
energy

$$$$
21:0
     RDKit          3D

 41 43  0  0  0  0  0  0  0  0999 V2000
   56.4133   28.4809   42.5790 H   0  0  0  0  0  0  0  0  0  0  0  0
   57.0140   28.9870   43.3490 C   0  0  0  0  0  0  0  0  0  0  0  0
   56.6380   30.2520   43.8070 C   0  0  0  0  0  0  0  0  0  0  0  0
   55.7462   30.7437   43.3911 H   0  0  0  0  0  0  0  0  0  0  0  0
   57.3960   30.8970   44.7970 C   0  0  0  0  0  0  0  0  0  0  0  0
   57.0270   32.1930   45.2970 N   0  0  0  0  0  0  0  0  0  0  0  0
   57.9010   33.3240   45.4140 C   0  0  0  0  0  0  0  0  0  0  0  0
   57.8300   34.2330   44.5440 O   0  0  0  0  0  0  0  0  0  0  0  0
   58.9120   33.4270   46.4940 C   0  0  0  0  0  0  0  0  0  0  0  0
   58.5130   33.4300   47.8410 C   0  0  0  0  0  0  0  0  0  0  0  0
   57.4447   33.3650   48.0949 H   0  0  0  0  0  0  0  0  0  0  0  0
   59.4650   33.5150   48.8600 C   0  0  0  0  0  0  0  0  0  0  0  0
   59.1453   33.5031   49.9124 H   0  0  0  0  0  0  0  0  0  0  0  0
   60.8210   33.6150   48.5450 C   0  0  0  0  0  0  0  0  0  0  0  0
   61.5687   33.6828   49.3490 H   0  0  0  0  0  0  0  0  0  0  0  0
   61.2290   33.6290   47.2090 C   0  0  0  0  0  0  0  0  0  0  0  0
   63.0810   33.7690   46.7730 Br  0  0  0  0  0  0  0  0  0  0  0  0
   60.2790   33.5480   46.1880 C   0  0  0  0  0  0  0  0  0  0  0  0
   60.6027   33.5791   45.1372 H   0  0  0  0  0  0  0  0  0  0  0  0
   58.5530   30.2820   45.2910 C   0  0  0  0  0  0  0  0  0  0  0  0
   59.1699   30.8004   46.0398 H   0  0  0  0  0  0  0  0  0  0  0  0
   58.9320   29.0050   44.8360 C   0  0  0  0  0  0  0  0  0  0  0  0
   60.0650   28.3340   45.3190 O   0  0  0  0  0  0  0  0  0  0  0  0
   60.1190   27.5450   46.5110 C   0  0  0  0  0  0  0  0  0  0  0  0
   59.9593   28.2000   47.3802 H   0  0  0  0  0  0  0  0  0  0  0  0
   61.1060   27.0618   46.5593 H   0  0  0  0  0  0  0  0  0  0  0  0
   59.0660   26.4670   46.5110 C   0  0  0  0  0  0  0  0  0  0  0  0
   59.4030   25.2810   46.2660 O   0  0  0  0  0  0  0  0  0  0  0  0
   57.6820   26.7330   46.7930 N   0  0  0  0  0  0  0  0  0  0  0  0
   56.6310   26.1880   46.2510 C   0  0  0  0  0  0  0  0  0  0  0  0
   55.3940   26.7140   46.2470 N   0  0  0  0  0  0  0  0  0  0  0  0
   54.6280   25.8500   45.6420 O   0  0  0  0  0  0  0  0  0  0  0  0
   55.3160   24.7990   45.2620 C   0  0  0  0  0  0  0  0  0  0  0  0
   54.7350   23.6220   44.5550 C   0  0  0  0  0  0  0  0  0  0  0  0
   54.3744   22.8915   45.2942 H   0  0  0  0  0  0  0  0  0  0  0  0
   53.8956   23.9506   43.9246 H   0  0  0  0  0  0  0  0  0  0  0  0
   55.5063   23.1555   43.9246 H   0  0  0  0  0  0  0  0  0  0  0  0
   56.6330   24.9600   45.6340 C   0  0  0  0  0  0  0  0  0  0  0  0
   57.4783   24.2741   45.4759 H   0  0  0  0  0  0  0  0  0  0  0  0
   58.1510   28.3640   43.8670 C   0  0  0  0  0  0  0  0  0  0  0  0
   58.4351   27.3626   43.5113 H   0  0  0  0  0  0  0  0  0  0  0  0
  1  2  1  0
  2  3  2  0
  3  4  1  0
  3  5  1  0
  5  6  1  0
  6  7  1  0
  7  8  2  0
  7  9  1  0
  9 10  2  0
 10 11  1  0
 10 12  1  0
 12 13  1  0
 12 14  2  0
 14 15  1  0
 14 16  1  0
 16 17  1  0
 16 18  2  0
 18 19  1  0
  5 20  2  0
 20 21  1  0
 20 22  1  0
 22 23  1  0
 23 24  1  0
 24 25  1  0
 24 26  1  0
 24 27  1  0
 27 28  2  0
 27 29  1  0
 29 30  2  0
 30 31  1  0
 31 32  1  0
 32 33  1  0
 33 34  1  0
 34 35  1  0
 34 36  1  0
 34 37  1  0
 33 38  2  0
 38 39  1  0
 22 40  2  0
 40 41  1  0
 40  2  1  0
 18  9  1  0
 38 30  1  0
M  CHG  2   6  -1  31  -1
M  END
>  <UniqueID>  (22) 
21

>  <SMILES>  (22) 
Cc1c/c(=N/C(=O)COc2cccc([N-]C(=O)c3cccc(Br)c3)c2)[n-]o1

>  <Energy>  (22) 
83.60749231326501

>  <Genealogy>  (22) 
Cc1cc(=NC(=O)COc2cccc([N-]C(=O)c3cccc(Br)c3)c2)[n-]o1 (protonated)
Cc1c/c(=N/C(=O)COc2cccc([N-]C(=O)c3cccc(Br)c3)c2)[n-]o1 (cis-trans isomerization)
Cc1c/c(=N/C(=O)COc2cccc([N-]C(=O)c3cccc(Br)c3)c2)[n-]o1 (3D coordinates assigned)
Cc1c/c(=N/C(=O)COc2cccc([N-]C(=O)c3cccc(Br)c3)c2)[n-]o1 (optimized conformer: 83.60749231326501 kcal/mol)

>  <smiles>  (22) 
Cc1cc(=NC(=O)COc2cccc(NC(=O)c3cccc(Br)c3)c2)[nH]o1

>  <score_type>  (22) 
oracle

>  <origin>  (22) 
adg

>  <m_score__min__energy>  (22) 
-12.970000000000001

>  <m_primary>  (22) 
energy

$$$$
22:0
     RDKit          3D

 35 37  0  0  0  0  0  0  0  0999 V2000
   60.2150   34.5830   48.6000 C   0  0  0  0  0  0  0  0  0  0  0  0
   59.6940   33.7360   47.4780 C   0  0  0  0  0  0  0  0  0  0  0  0
   59.9770   32.3630   47.4390 C   0  0  0  0  0  0  0  0  0  0  0  0
   59.4630   31.5650   46.4120 C   0  0  0  0  0  0  0  0  0  0  0  0
   58.6580   32.1300   45.4080 C   0  0  0  0  0  0  0  0  0  0  0  0
   58.1110   31.2750   44.3310 C   0  0  0  0  0  0  0  0  0  0  0  0
   58.2950   31.6090   43.1300 O   0  0  0  0  0  0  0  0  0  0  0  0
   57.3500   30.0410   44.6190 C   0  0  0  0  0  0  0  0  0  0  0  0
   55.9760   29.8380   44.5280 C   0  0  0  0  0  0  0  0  0  0  0  0
   55.1390   30.6890   44.1260 O   0  0  0  0  0  0  0  0  0  0  0  0
   55.6320   28.5930   44.9300 N   0  0  0  0  0  0  0  0  0  0  0  0
   56.7600   27.9990   45.2840 N   0  0  0  0  0  0  0  0  0  0  0  0
   56.9070   26.7440   45.7840 C   0  0  0  0  0  0  0  0  0  0  0  0
   55.7230   25.8480   45.9960 C   0  0  0  0  0  0  0  0  0  0  0  0
   58.2010   26.3380   46.1590 C   0  0  0  0  0  0  0  0  0  0  0  0
   59.2780   27.2350   45.9820 C   0  0  0  0  0  0  0  0  0  0  0  0
   60.6610   26.8400   46.3890 C   0  0  0  0  0  0  0  0  0  0  0  0
   59.0550   28.4810   45.4740 N   0  0  0  0  0  0  0  0  0  0  0  0
   57.7960   28.8340   45.1180 C   0  0  0  0  0  0  0  0  0  0  0  0
   58.3430   33.4980   45.4740 C   0  0  0  0  0  0  0  0  0  0  0  0
   58.8590   34.2940   46.5000 C   0  0  0  0  0  0  0  0  0  0  0  0
   59.9358   34.1291   49.5623 H   0  0  0  0  0  0  0  0  0  0  0  0
   61.3107   34.6501   48.5305 H   0  0  0  0  0  0  0  0  0  0  0  0
   59.7807   35.5913   48.5305 H   0  0  0  0  0  0  0  0  0  0  0  0
   60.6064   31.9115   48.2201 H   0  0  0  0  0  0  0  0  0  0  0  0
   59.6901   30.4889   46.3899 H   0  0  0  0  0  0  0  0  0  0  0  0
   55.5504   25.7174   47.0745 H   0  0  0  0  0  0  0  0  0  0  0  0
   54.8331   26.3009   45.5345 H   0  0  0  0  0  0  0  0  0  0  0  0
   55.9171   24.8685   45.5345 H   0  0  0  0  0  0  0  0  0  0  0  0
   58.3714   25.3376   46.5834 H   0  0  0  0  0  0  0  0  0  0  0  0
   60.7287   26.8207   47.4867 H   0  0  0  0  0  0  0  0  0  0  0  0
   60.8894   25.8407   45.9899 H   0  0  0  0  0  0  0  0  0  0  0  0
   61.3827   27.5679   45.9899 H   0  0  0  0  0  0  0  0  0  0  0  0
   57.6861   33.9449   44.7132 H   0  0  0  0  0  0  0  0  0  0  0  0
   58.6086   35.3644   46.5405 H   0  0  0  0  0  0  0  0  0  0  0  0
  1  2  1  0
  2  3  2  0
  3  4  1  0
  4  5  2  0
  5  6  1  0
  6  7  2  0
  6  8  1  0
  8  9  1  0
  9 10  2  0
  9 11  1  0
 11 12  1  0
 12 13  1  0
 13 14  1  0
 13 15  2  0
 15 16  1  0
 16 17  1  0
 16 18  2  0
 18 19  1  0
  5 20  1  0
 20 21  2  0
 21  2  1  0
 19  8  2  0
 19 12  1  0
  1 22  1  0
  1 23  1  0
  1 24  1  0
  3 25  1  0
  4 26  1  0
 14 27  1  0
 14 28  1  0
 14 29  1  0
 15 30  1  0
 17 31  1  0
 17 32  1  0
 17 33  1  0
 20 34  1  0
 21 35  1  0
M  CHG  1  11  -1
M  END
>  <UniqueID>  (23) 
22

>  <SMILES>  (23) 
Cc1ccc(C(=O)c2c(=O)[n-]n3c(C)cc(C)nc23)cc1

>  <Energy>  (23) 
78.22139220748153

>  <Genealogy>  (23) 
Cc1ccc(C(=O)c2c(=O)[n-]n3c(C)cc(C)nc23)cc1 (protonated)
Cc1ccc(C(=O)c2c(=O)[n-]n3c(C)cc(C)nc23)cc1 (3D coordinates assigned)
Cc1ccc(C(=O)c2c(=O)[n-]n3c(C)cc(C)nc23)cc1 (optimized conformer: 78.22139220748153 kcal/mol)

>  <smiles>  (23) 
Cc1ccc(C(=O)c2c(=O)[nH]n3c(C)cc(C)nc23)cc1

>  <score_type>  (23) 
oracle

>  <origin>  (23) 
adg

>  <m_score__min__energy>  (23) 
-9.3699999999999992

>  <m_primary>  (23) 
energy

$$$$
23:0
     RDKit          3D

 34 35  0  0  0  0  0  0  0  0999 V2000
   58.1146   28.7536   44.0715 H   0  0  0  0  0  0  0  0  0  0  0  0
   57.5950   29.1130   44.9720 C   0  0  0  0  0  0  0  0  0  0  0  0
   56.2220   28.6170   45.2030 C   0  0  0  0  0  0  0  0  0  0  0  0
   56.0000   27.4560   45.6380 O   0  0  0  0  0  0  0  0  0  0  0  0
   55.1460   29.4370   44.8880 O   0  0  0  0  0  0  0  0  0  0  0  0
   58.2660   29.9690   45.7710 C   0  0  0  0  0  0  0  0  0  0  0  0
   58.1360   31.4390   45.6570 C   0  0  0  0  0  0  0  0  0  0  0  0
   58.1560   32.2440   46.8070 C   0  0  0  0  0  0  0  0  0  0  0  0
   58.2916   31.7833   47.7966 H   0  0  0  0  0  0  0  0  0  0  0  0
   58.0040   33.6300   46.6980 C   0  0  0  0  0  0  0  0  0  0  0  0
   58.0293   34.2585   47.6005 H   0  0  0  0  0  0  0  0  0  0  0  0
   57.8200   34.2170   45.4430 C   0  0  0  0  0  0  0  0  0  0  0  0
   57.7019   35.3073   45.3582 H   0  0  0  0  0  0  0  0  0  0  0  0
   57.7860   33.4190   44.2950 C   0  0  0  0  0  0  0  0  0  0  0  0
   57.6388   33.8818   43.3080 H   0  0  0  0  0  0  0  0  0  0  0  0
   57.9390   32.0330   44.4010 C   0  0  0  0  0  0  0  0  0  0  0  0
   57.9048   31.4067   43.4974 H   0  0  0  0  0  0  0  0  0  0  0  0
   59.2910   29.4270   46.7360 C   0  0  0  0  0  0  0  0  0  0  0  0
   59.0459   29.7678   47.7528 H   0  0  0  0  0  0  0  0  0  0  0  0
   59.2760   28.3281   46.6888 H   0  0  0  0  0  0  0  0  0  0  0  0
   60.6940   29.9180   46.3650 C   0  0  0  0  0  0  0  0  0  0  0  0
   61.3592   29.0509   46.2403 H   0  0  0  0  0  0  0  0  0  0  0  0
   60.6333   30.4891   45.4268 H   0  0  0  0  0  0  0  0  0  0  0  0
   61.2440   30.8120   47.4420 C   0  0  0  0  0  0  0  0  0  0  0  0
   60.8100   30.6760   48.7680 C   0  0  0  0  0  0  0  0  0  0  0  0
   60.0817   29.8961   49.0351 H   0  0  0  0  0  0  0  0  0  0  0  0
   61.3090   31.5380   49.7480 C   0  0  0  0  0  0  0  0  0  0  0  0
   60.9789   31.4312   50.7918 H   0  0  0  0  0  0  0  0  0  0  0  0
   62.2020   32.5090   49.4150 N   0  0  0  0  0  0  0  0  0  0  0  0
   62.5650   33.1460   50.1580 H   0  0  0  0  0  0  0  0  0  0  0  0
   62.6290   32.6710   48.1320 C   0  0  0  0  0  0  0  0  0  0  0  0
   63.3492   33.4664   47.8899 H   0  0  0  0  0  0  0  0  0  0  0  0
   62.1550   31.8300   47.1230 C   0  0  0  0  0  0  0  0  0  0  0  0
   62.4936   31.9648   46.0851 H   0  0  0  0  0  0  0  0  0  0  0  0
  1  2  1  0
  2  3  1  0
  3  4  2  0
  3  5  1  0
  2  6  2  0
  6  7  1  0
  7  8  2  0
  8  9  1  0
  8 10  1  0
 10 11  1  0
 10 12  2  0
 12 13  1  0
 12 14  1  0
 14 15  1  0
 14 16  2  0
 16 17  1  0
  6 18  1  0
 18 19  1  0
 18 20  1  0
 18 21  1  0
 21 22  1  0
 21 23  1  0
 21 24  1  0
 24 25  2  0
 25 26  1  0
 25 27  1  0
 27 28  1  0
 27 29  2  0
 29 30  1  0
 29 31  1  0
 31 32  1  0
 31 33  2  0
 33 34  1  0
 16  7  1  0
 33 24  1  0
M  CHG  2   5  -1  29   1
M  END
>  <UniqueID>  (24) 
23

>  <SMILES>  (24) 
O=C([O-])/C=C(/CCc1cc[nH+]cc1)c1ccccc1

>  <Energy>  (24) 
39.212954849862804

>  <Genealogy>  (24) 
O=C([O-])C=C(CCc1cc[nH+]cc1)c1ccccc1 (protonated)
O=C([O-])/C=C(/CCc1cc[nH+]cc1)c1ccccc1 (cis-trans isomerization)
O=C([O-])/C=C(/CCc1cc[nH+]cc1)c1ccccc1 (3D coordinates assigned)
O=C([O-])/C=C(/CCc1cc[nH+]cc1)c1ccccc1 (optimized conformer: 39.212954849862804 kcal/mol)

>  <smiles>  (24) 
O=C(O)C=C(CCc1ccncc1)c1ccccc1

>  <score_type>  (24) 
oracle

>  <origin>  (24) 
adg

>  <m_score__min__energy>  (24) 
-8.75

>  <m_primary>  (24) 
energy

$$$$
24:0
     RDKit          3D

 48 50  0  0  0  0  0  0  0  0999 V2000
   63.6400   33.8390   46.2120 C   0  0  0  0  0  0  0  0  0  0  0  0
   62.4300   33.6230   47.0800 C   0  0  0  0  0  0  0  0  0  0  0  0
   61.1490   33.6200   46.5070 C   0  0  0  0  0  0  0  0  0  0  0  0
   60.0070   33.4190   47.2970 C   0  0  0  0  0  0  0  0  0  0  0  0
   58.4130   33.3570   46.5310 S   0  0  0  0  0  0  0  0  0  0  0  0
   57.3300   33.4980   47.5620 O   0  0  0  0  0  0  0  0  0  0  0  0
   58.3020   34.4990   45.5600 O   0  0  0  0  0  0  0  0  0  0  0  0
   58.2120   31.8340   45.7240 N   0  0  0  0  0  0  0  0  0  0  0  0
   57.7360   31.7270   44.3740 C   0  0  0  0  0  0  0  0  0  0  0  0
   58.1860   32.6420   43.4070 C   0  0  0  0  0  0  0  0  0  0  0  0
   57.8270   32.4970   42.0670 C   0  0  0  0  0  0  0  0  0  0  0  0
   57.0220   31.4310   41.6730 C   0  0  0  0  0  0  0  0  0  0  0  0
   56.5660   30.5120   42.6180 C   0  0  0  0  0  0  0  0  0  0  0  0
   56.9070   30.6470   43.9770 C   0  0  0  0  0  0  0  0  0  0  0  0
   56.3520   29.6800   44.9540 C   0  0  0  0  0  0  0  0  0  0  0  0
   55.1470   29.3170   44.8760 O   0  0  0  0  0  0  0  0  0  0  0  0
   57.1300   29.1890   45.9960 O   0  0  0  0  0  0  0  0  0  0  0  0
   60.1530   33.2140   48.6840 C   0  0  0  0  0  0  0  0  0  0  0  0
   59.0030   33.0500   49.5250 N   0  0  0  0  0  0  0  0  0  0  0  0
   58.7680   31.8890   50.3480 C   0  0  0  0  0  0  0  0  0  0  0  0
   58.5990   32.0110   51.7410 C   0  0  0  0  0  0  0  0  0  0  0  0
   58.3910   30.8820   52.5340 C   0  0  0  0  0  0  0  0  0  0  0  0
   58.3600   29.6160   51.9510 C   0  0  0  0  0  0  0  0  0  0  0  0
   58.5420   29.4730   50.5740 C   0  0  0  0  0  0  0  0  0  0  0  0
   58.7540   30.6050   49.7610 C   0  0  0  0  0  0  0  0  0  0  0  0
   58.9540   30.4970   48.3720 O   0  0  0  0  0  0  0  0  0  0  0  0
   60.0340   29.8140   47.7400 C   0  0  0  0  0  0  0  0  0  0  0  0
   59.7320   28.4710   47.5990 F   0  0  0  0  0  0  0  0  0  0  0  0
   61.1620   29.9350   48.5280 F   0  0  0  0  0  0  0  0  0  0  0  0
   60.2930   30.3730   46.5020 F   0  0  0  0  0  0  0  0  0  0  0  0
   61.4310   33.2210   49.2560 C   0  0  0  0  0  0  0  0  0  0  0  0
   62.5660   33.4200   48.4670 C   0  0  0  0  0  0  0  0  0  0  0  0
   64.1460   33.4150   49.2460 Cl  0  0  0  0  0  0  0  0  0  0  0  0
   64.5238   33.9968   46.8476 H   0  0  0  0  0  0  0  0  0  0  0  0
   63.7982   32.9549   45.5769 H   0  0  0  0  0  0  0  0  0  0  0  0
   63.4825   34.7232   45.5769 H   0  0  0  0  0  0  0  0  0  0  0  0
   61.0387   33.7773   45.4239 H   0  0  0  0  0  0  0  0  0  0  0  0
   58.3080   30.9690   46.3010 H   0  0  0  0  0  0  0  0  0  0  0  0
   58.8285   33.4818   43.7102 H   0  0  0  0  0  0  0  0  0  0  0  0
   58.1797   33.2247   41.3213 H   0  0  0  0  0  0  0  0  0  0  0  0
   56.7454   31.3136   40.6148 H   0  0  0  0  0  0  0  0  0  0  0  0
   55.9324   29.6718   42.2975 H   0  0  0  0  0  0  0  0  0  0  0  0
   58.3120   33.8310   49.5370 H   0  0  0  0  0  0  0  0  0  0  0  0
   58.6313   33.0063   52.2083 H   0  0  0  0  0  0  0  0  0  0  0  0
   58.2514   30.9909   53.6197 H   0  0  0  0  0  0  0  0  0  0  0  0
   58.1917   28.7275   52.5773 H   0  0  0  0  0  0  0  0  0  0  0  0
   58.5198   28.4709   50.1208 H   0  0  0  0  0  0  0  0  0  0  0  0
   61.5423   33.0680   50.3396 H   0  0  0  0  0  0  0  0  0  0  0  0
  1  2  1  0
  2  3  2  0
  3  4  1  0
  4  5  1  0
  5  6  2  0
  5  7  2  0
  5  8  1  0
  8  9  1  0
  9 10  2  0
 10 11  1  0
 11 12  2  0
 12 13  1  0
 13 14  2  0
 14 15  1  0
 15 16  2  0
 15 17  1  0
  4 18  2  0
 18 19  1  0
 19 20  1  0
 20 21  2  0
 21 22  1  0
 22 23  2  0
 23 24  1  0
 24 25  2  0
 25 26  1  0
 26 27  1  0
 27 28  1  0
 27 29  1  0
 27 30  1  0
 18 31  1  0
 31 32  2  0
 32 33  1  0
 32  2  1  0
 14  9  1  0
 25 20  1  0
  1 34  1  0
  1 35  1  0
  1 36  1  0
  3 37  1  0
  8 38  1  0
 10 39  1  0
 11 40  1  0
 12 41  1  0
 13 42  1  0
 19 43  1  0
 21 44  1  0
 22 45  1  0
 23 46  1  0
 24 47  1  0
 31 48  1  0
M  CHG  1  17  -1
M  END
>  <UniqueID>  (25) 
24

>  <SMILES>  (25) 
Cc1cc(S(=O)(=O)Nc2ccccc2C(=O)[O-])c(Nc2ccccc2OC(F)(F)F)cc1Cl

>  <Energy>  (25) 
67.6593716361209

>  <Genealogy>  (25) 
Cc1cc(S(=O)(=O)Nc2ccccc2C(=O)[O-])c(Nc2ccccc2OC(F)(F)F)cc1Cl (protonated)
Cc1cc(S(=O)(=O)Nc2ccccc2C(=O)[O-])c(Nc2ccccc2OC(F)(F)F)cc1Cl (3D coordinates assigned)
Cc1cc(S(=O)(=O)Nc2ccccc2C(=O)[O-])c(Nc2ccccc2OC(F)(F)F)cc1Cl (optimized conformer: 67.6593716361209 kcal/mol)

>  <smiles>  (25) 
Cc1cc(S(=O)(=O)Nc2ccccc2C(=O)O)c(Nc2ccccc2OC(F)(F)F)cc1Cl

>  <score_type>  (25) 
oracle

>  <origin>  (25) 
adg

>  <m_score__min__energy>  (25) 
-11.59

>  <m_primary>  (25) 
energy

$$$$
25:0
     RDKit          3D

 37 40  0  0  0  0  0  0  0  0999 V2000
   57.9907   32.6536   49.1009 H   0  0  0  0  0  0  0  0  0  0  0  0
   58.3620   32.5570   48.0700 C   0  0  0  0  0  0  0  0  0  0  0  0
   57.5080   32.7030   47.0980 N   0  0  0  0  0  0  0  0  0  0  0  0
   57.8480   33.1300   45.8040 N   0  0  0  0  0  0  0  0  0  0  0  0
   57.5900   32.5020   44.6440 C   0  0  0  0  0  0  0  0  0  0  0  0
   56.6280   31.3640   44.4850 C   0  0  0  0  0  0  0  0  0  0  0  0
   55.7623   31.5224   45.1449 H   0  0  0  0  0  0  0  0  0  0  0  0
   56.2918   31.3155   43.4388 H   0  0  0  0  0  0  0  0  0  0  0  0
   57.3060   30.0690   44.8510 C   0  0  0  0  0  0  0  0  0  0  0  0
   58.7040   30.0250   44.9680 C   0  0  0  0  0  0  0  0  0  0  0  0
   59.2998   30.9140   44.7134 H   0  0  0  0  0  0  0  0  0  0  0  0
   59.3460   28.8650   45.4040 C   0  0  0  0  0  0  0  0  0  0  0  0
   60.4424   28.8456   45.4903 H   0  0  0  0  0  0  0  0  0  0  0  0
   58.6010   27.7260   45.7320 C   0  0  0  0  0  0  0  0  0  0  0  0
   59.2440   26.5630   46.1840 C   0  0  0  0  0  0  0  0  0  0  0  0
   60.3399   26.5430   46.2770 H   0  0  0  0  0  0  0  0  0  0  0  0
   58.4960   25.4310   46.5160 C   0  0  0  0  0  0  0  0  0  0  0  0
   59.0043   24.5222   46.8706 H   0  0  0  0  0  0  0  0  0  0  0  0
   57.1050   25.4500   46.3990 C   0  0  0  0  0  0  0  0  0  0  0  0
   56.5211   24.5554   46.6612 H   0  0  0  0  0  0  0  0  0  0  0  0
   56.4510   26.6010   45.9500 C   0  0  0  0  0  0  0  0  0  0  0  0
   55.3547   26.6080   45.8606 H   0  0  0  0  0  0  0  0  0  0  0  0
   57.1880   27.7500   45.6120 C   0  0  0  0  0  0  0  0  0  0  0  0
   56.5470   28.9250   45.1700 C   0  0  0  0  0  0  0  0  0  0  0  0
   55.1590   28.9660   45.0620 O   0  0  0  0  0  0  0  0  0  0  0  0
   58.2190   33.1120   43.6160 N   0  0  0  0  0  0  0  0  0  0  0  0
   58.9260   34.1150   44.1260 N   0  0  0  0  0  0  0  0  0  0  0  0
   58.7010   34.1050   45.4520 C   0  0  0  0  0  0  0  0  0  0  0  0
   59.2450   34.8990   46.2630 O   0  0  0  0  0  0  0  0  0  0  0  0
   59.7970   32.2700   47.8760 C   0  0  0  0  0  0  0  0  0  0  0  0
   60.4450   30.7200   47.8640 S   0  0  0  0  0  0  0  0  0  0  0  0
   62.0570   31.1840   47.7530 C   0  0  0  0  0  0  0  0  0  0  0  0
   62.9212   30.5061   47.6918 H   0  0  0  0  0  0  0  0  0  0  0  0
   62.1080   32.5700   47.7520 C   0  0  0  0  0  0  0  0  0  0  0  0
   63.0491   33.1367   47.6952 H   0  0  0  0  0  0  0  0  0  0  0  0
   60.8510   33.1810   47.8300 C   0  0  0  0  0  0  0  0  0  0  0  0
   60.7091   34.2716   47.8527 H   0  0  0  0  0  0  0  0  0  0  0  0
  1  2  1  0
  2  3  2  0
  3  4  1  0
  4  5  1  0
  5  6  1  0
  6  7  1  0
  6  8  1  0
  6  9  1  0
  9 10  2  0
 10 11  1  0
 10 12  1  0
 12 13  1  0
 12 14  2  0
 14 15  1  0
 15 16  1  0
 15 17  2  0
 17 18  1  0
 17 19  1  0
 19 20  1  0
 19 21  2  0
 21 22  1  0
 21 23  1  0
 23 24  2  0
 24 25  1  0
  5 26  2  0
 26 27  1  0
 27 28  1  0
 28 29  2  0
  2 30  1  0
 30 31  1  0
 31 32  1  0
 32 33  1  0
 32 34  2  0
 34 35  1  0
 34 36  1  0
 36 37  1  0
 28  4  1  0
 36 30  2  0
 24  9  1  0
 23 14  1  0
M  CHG  2  25  -1  27  -1
M  END
>  <UniqueID>  (26) 
25

>  <SMILES>  (26) 
O=c1[n-]nc(Cc2ccc3ccccc3c2[O-])n1/N=C\c1cccs1

>  <Energy>  (26) 
115.07432231560168

>  <Genealogy>  (26) 
O=c1[n-]nc(Cc2ccc3ccccc3c2[O-])n1N=Cc1cccs1 (protonated)
O=c1[n-]nc(Cc2ccc3ccccc3c2[O-])n1/N=C\c1cccs1 (cis-trans isomerization)
O=c1[n-]nc(Cc2ccc3ccccc3c2[O-])n1/N=C\c1cccs1 (3D coordinates assigned)
O=c1[n-]nc(Cc2ccc3ccccc3c2[O-])n1/N=C\c1cccs1 (optimized conformer: 115.07432231560168 kcal/mol)

>  <smiles>  (26) 
O=c1[nH]nc(Cc2ccc3ccccc3c2O)n1N=Cc1cccs1

>  <score_type>  (26) 
oracle

>  <origin>  (26) 
adg

>  <m_score__min__energy>  (26) 
-13.050000000000001

>  <m_primary>  (26) 
energy

$$$$
26:0
     RDKit          3D

 44 46  0  0  0  0  0  0  0  0999 V2000
   65.0020   32.2570   50.1830 C   0  0  0  0  0  0  0  0  0  0  0  0
   64.8920   33.0440   49.0010 O   0  0  0  0  0  0  0  0  0  0  0  0
   63.6770   33.3950   48.3930 C   0  0  0  0  0  0  0  0  0  0  0  0
   63.5380   33.5090   46.9980 C   0  0  0  0  0  0  0  0  0  0  0  0
   62.3090   33.8600   46.4400 C   0  0  0  0  0  0  0  0  0  0  0  0
   61.1980   34.1150   47.2590 C   0  0  0  0  0  0  0  0  0  0  0  0
   59.8720   34.4470   46.6220 C   0  0  0  0  0  0  0  0  0  0  0  0
   59.0360   33.2090   46.5060 C   0  0  0  0  0  0  0  0  0  0  0  0
   57.7840   33.3150   46.4020 O   0  0  0  0  0  0  0  0  0  0  0  0
   59.6610   31.9190   46.4480 N   0  0  0  0  0  0  0  0  0  0  0  0
   58.9160   30.7290   46.1520 C   0  0  0  0  0  0  0  0  0  0  0  0
   58.8950   29.6480   47.0590 C   0  0  0  0  0  0  0  0  0  0  0  0
   59.6690   29.6770   48.2740 N   0  0  0  0  0  0  0  0  0  0  0  0
   59.2680   29.0870   49.2970 O   0  0  0  0  0  0  0  0  0  0  0  0
   60.8400   30.3970   48.3370 O   0  0  0  0  0  0  0  0  0  0  0  0
   58.1170   28.5190   46.7340 C   0  0  0  0  0  0  0  0  0  0  0  0
   58.0770   27.5250   47.5060 O   0  0  0  0  0  0  0  0  0  0  0  0
   57.4290   28.4750   45.5980 O   0  0  0  0  0  0  0  0  0  0  0  0
   57.4260   29.4670   44.7160 C   0  0  0  0  0  0  0  0  0  0  0  0
   56.6700   29.3460   43.5450 C   0  0  0  0  0  0  0  0  0  0  0  0
   56.6440   30.3880   42.6160 C   0  0  0  0  0  0  0  0  0  0  0  0
   57.3730   31.5560   42.8510 C   0  0  0  0  0  0  0  0  0  0  0  0
   58.1350   31.6870   44.0160 C   0  0  0  0  0  0  0  0  0  0  0  0
   58.1750   30.6400   44.9570 C   0  0  0  0  0  0  0  0  0  0  0  0
   61.3220   33.9910   48.6590 C   0  0  0  0  0  0  0  0  0  0  0  0
   60.1970   34.2230   49.4670 O   0  0  0  0  0  0  0  0  0  0  0  0
   59.5060   33.2190   50.2040 C   0  0  0  0  0  0  0  0  0  0  0  0
   62.5690   33.6350   49.2120 C   0  0  0  0  0  0  0  0  0  0  0  0
   64.9112   32.9068   51.0659 H   0  0  0  0  0  0  0  0  0  0  0  0
   64.2004   31.5039   50.1980 H   0  0  0  0  0  0  0  0  0  0  0  0
   65.9794   31.7525   50.1980 H   0  0  0  0  0  0  0  0  0  0  0  0
   64.4024   33.3205   46.3443 H   0  0  0  0  0  0  0  0  0  0  0  0
   62.2093   33.9378   45.3473 H   0  0  0  0  0  0  0  0  0  0  0  0
   59.3444   35.1862   47.2427 H   0  0  0  0  0  0  0  0  0  0  0  0
   60.0468   34.8605   45.6178 H   0  0  0  0  0  0  0  0  0  0  0  0
   60.7030   31.8570   46.4690 H   0  0  0  0  0  0  0  0  0  0  0  0
   56.0947   28.4277   43.3558 H   0  0  0  0  0  0  0  0  0  0  0  0
   56.0480   30.2888   41.6968 H   0  0  0  0  0  0  0  0  0  0  0  0
   57.3476   32.3752   42.1174 H   0  0  0  0  0  0  0  0  0  0  0  0
   58.7047   32.6102   44.1980 H   0  0  0  0  0  0  0  0  0  0  0  0
   59.6324   33.4026   51.2812 H   0  0  0  0  0  0  0  0  0  0  0  0
   58.4361   33.2487   49.9500 H   0  0  0  0  0  0  0  0  0  0  0  0
   59.9158   32.2303   49.9500 H   0  0  0  0  0  0  0  0  0  0  0  0
   62.6720   33.5447   50.3034 H   0  0  0  0  0  0  0  0  0  0  0  0
  1  2  1  0
  2  3  1  0
  3  4  2  0
  4  5  1  0
  5  6  2  0
  6  7  1  0
  7  8  1  0
  8  9  2  0
  8 10  1  0
 10 11  1  0
 11 12  2  0
 12 13  1  0
 13 14  2  0
 13 15  1  0
 12 16  1  0
 16 17  2  0
 16 18  1  0
 18 19  1  0
 19 20  2  0
 20 21  1  0
 21 22  2  0
 22 23  1  0
 23 24  2  0
  6 25  1  0
 25 26  1  0
 26 27  1  0
 25 28  2  0
 28  3  1  0
 24 11  1  0
 24 19  1  0
  1 29  1  0
  1 30  1  0
  1 31  1  0
  4 32  1  0
  5 33  1  0
  7 34  1  0
  7 35  1  0
 10 36  1  0
 20 37  1  0
 21 38  1  0
 22 39  1  0
 23 40  1  0
 27 41  1  0
 27 42  1  0
 27 43  1  0
 28 44  1  0
M  CHG  2  13   1  15  -1
M  END
>  <UniqueID>  (27) 
26

>  <SMILES>  (27) 
COc1ccc(CC(=O)Nc2c([N+](=O)[O-])c(=O)oc3ccccc23)c(OC)c1

>  <Energy>  (27) 
58.27861492648317

>  <Genealogy>  (27) 
COc1ccc(CC(=O)Nc2c([N+](=O)[O-])c(=O)oc3ccccc23)c(OC)c1 (3D coordinates assigned)
COc1ccc(CC(=O)Nc2c([N+](=O)[O-])c(=O)oc3ccccc23)c(OC)c1 (optimized conformer: 58.27861492648317 kcal/mol)

>  <smiles>  (27) 
COc1ccc(CC(=O)Nc2c([N+](=O)[O-])c(=O)oc3ccccc23)c(OC)c1

>  <score_type>  (27) 
oracle

>  <origin>  (27) 
adg

>  <m_score__min__energy>  (27) 
-7.4400000000000004

>  <m_primary>  (27) 
energy

$$$$
27:0
     RDKit          3D

 52 54  0  0  1  0  0  0  0  0999 V2000
   55.4330   30.3720   44.4880 O   0  0  0  0  0  0  0  0  0  0  0  0
   56.6770   30.3090   44.4180 C   0  0  0  0  0  0  0  0  0  0  0  0
   57.2780   28.9730   44.0680 C   0  0  0  0  0  0  0  0  0  0  0  0
   58.2870   28.5990   45.0930 C   0  0  0  0  0  0  0  0  0  0  0  0
   57.9480   28.1470   46.3530 C   0  0  0  0  0  0  0  0  0  0  0  0
   58.9770   27.8290   47.2230 C   0  0  0  0  0  0  0  0  0  0  0  0
   60.3100   27.9580   46.8450 C   0  0  0  0  0  0  0  0  0  0  0  0
   60.6540   28.4080   45.5860 C   0  0  0  0  0  0  0  0  0  0  0  0
   59.6290   28.7230   44.7260 C   0  0  0  0  0  0  0  0  0  0  0  0
   57.5150   31.4330   44.6520 N   0  0  0  0  0  0  0  0  0  0  0  0
   57.0100   32.7490   44.9920 C   0  0  0  0  0  0  0  0  0  0  0  0
   57.4090   33.0880   46.4080 C   0  0  0  0  0  0  0  0  0  0  0  0
   58.8680   33.2400   46.5160 N   0  0  0  0  0  0  0  0  0  0  0  0
   59.4550   34.4510   46.4960 C   0  0  0  0  0  0  0  0  0  0  0  0
   60.8320   34.5860   46.6000 C   0  0  0  0  0  0  0  0  0  0  0  0
   61.5710   33.4210   46.7230 C   0  0  0  0  0  0  0  0  0  0  0  0
   62.8540   33.5680   46.8180 N   0  0  0  0  0  0  0  0  0  0  0  0
   63.4950   32.8850   47.8920 C   0  0  0  0  0  0  0  0  0  0  0  0
   64.4740   33.4160   48.5080 O   0  0  0  0  0  0  0  0  0  0  0  0
   63.0970   31.6240   48.3220 O   0  0  0  0  0  0  0  0  0  0  0  0
   62.7540   31.4610   49.6860 C   0  0  0  0  0  0  0  0  0  0  0  0
   61.2770   31.6300   49.7770 C   0  0  0  0  0  0  0  0  0  0  0  0
   60.6870   32.8540   50.0100 C   0  0  0  0  0  0  0  0  0  0  0  0
   59.3230   33.0350   50.0980 C   0  0  0  0  0  0  0  0  0  0  0  0
   58.5090   31.9270   49.9450 C   0  0  0  0  0  0  0  0  0  0  0  0
   59.1020   30.7260   49.7150 C   0  0  0  0  0  0  0  0  0  0  0  0
   60.4570   30.5120   49.6220 C   0  0  0  0  0  0  0  0  0  0  0  0
   60.9710   32.2220   46.7410 N   0  0  0  0  0  0  0  0  0  0  0  0
   59.6190   32.1200   46.6390 C   0  0  0  0  0  0  0  0  0  0  0  0
   59.1060   30.9710   46.6610 O   0  0  0  0  0  0  0  0  0  0  0  0
   56.4853   28.2109   44.0388 H   0  0  0  0  0  0  0  0  0  0  0  0
   57.7629   29.0363   43.0827 H   0  0  0  0  0  0  0  0  0  0  0  0
   56.8955   28.0431   46.6554 H   0  0  0  0  0  0  0  0  0  0  0  0
   58.7360   27.4671   48.2334 H   0  0  0  0  0  0  0  0  0  0  0  0
   61.1029   27.6970   47.5614 H   0  0  0  0  0  0  0  0  0  0  0  0
   61.7065   28.5104   45.2831 H   0  0  0  0  0  0  0  0  0  0  0  0
   59.8735   29.0844   43.7162 H   0  0  0  0  0  0  0  0  0  0  0  0
   58.5580   31.2400   44.5600 H   0  0  0  0  0  0  0  0  0  0  0  0
   57.4338   33.4942   44.3028 H   0  0  0  0  0  0  0  0  0  0  0  0
   55.9133   32.7551   44.9075 H   0  0  0  0  0  0  0  0  0  0  0  0
   56.9251   34.0306   46.7034 H   0  0  0  0  0  0  0  0  0  0  0  0
   57.0891   32.2702   47.0704 H   0  0  0  0  0  0  0  0  0  0  0  0
   58.8309   35.3512   46.3952 H   0  0  0  0  0  0  0  0  0  0  0  0
   61.3152   35.5741   46.5854 H   0  0  0  0  0  0  0  0  0  0  0  0
   63.0432   30.4580   50.0328 H   0  0  0  0  0  0  0  0  0  0  0  0
   63.2767   32.1951   50.3167 H   0  0  0  0  0  0  0  0  0  0  0  0
   61.3384   33.7320   50.1321 H   0  0  0  0  0  0  0  0  0  0  0  0
   58.8947   34.0309   50.2843 H   0  0  0  0  0  0  0  0  0  0  0  0
   57.4143   32.0154   50.0076 H   0  0  0  0  0  0  0  0  0  0  0  0
   58.4437   29.8532   49.5932 H   0  0  0  0  0  0  0  0  0  0  0  0
   60.8730   29.5110   49.4350 H   0  0  0  0  0  0  0  0  0  0  0  0
   61.5550   31.3830   46.8350 H   0  0  0  0  0  0  0  0  0  0  0  0
  1  2  2  0
  2  3  1  0
  3  4  1  0
  4  5  2  0
  5  6  1  0
  6  7  2  0
  7  8  1  0
  8  9  2  0
  2 10  1  0
 10 11  1  0
 11 12  1  0
 12 13  1  0
 13 14  1  0
 14 15  2  0
 15 16  1  0
 16 17  2  0
 17 18  1  0
 18 19  2  0
 18 20  1  0
 20 21  1  0
 21 22  1  0
 22 23  2  0
 23 24  1  0
 24 25  2  0
 25 26  1  0
 26 27  2  0
 16 28  1  0
 28 29  1  0
 29 30  2  0
  9  4  1  0
 29 13  1  0
 27 22  1  0
  3 31  1  0
  3 32  1  0
  5 33  1  0
  6 34  1  0
  7 35  1  0
  8 36  1  0
  9 37  1  0
 10 38  1  0
 11 39  1  0
 11 40  1  0
 12 41  1  0
 12 42  1  0
 14 43  1  0
 15 44  1  0
 21 45  1  0
 21 46  1  0
 23 47  1  0
 24 48  1  0
 25 49  1  0
 26 50  1  0
 27 51  1  0
 28 52  1  0
M  END
>  <smiles>  (28) 
O=C(Cc1ccccc1)NCCn1ccc(=NC(=O)OCc2ccccc2)[nH]c1=O

>  <score_type>  (28) 
oracle

>  <origin>  (28) 
adg

>  <m_score__min__energy>  (28) 
-8.7699999999999996

>  <m_primary>  (28) 
energy

$$$$
28:0
     RDKit          3D

 37 40  0  0  0  0  0  0  0  0999 V2000
   56.8360   28.7350   43.2670 O   0  0  0  0  0  0  0  0  0  0  0  0
   56.9440   28.9080   44.5110 C   0  0  0  0  0  0  0  0  0  0  0  0
   56.5470   30.1690   45.0700 N   0  0  0  0  0  0  0  0  0  0  0  0
   57.3930   31.3090   45.2800 C   0  0  0  0  0  0  0  0  0  0  0  0
   57.0710   32.5150   44.6490 C   0  0  0  0  0  0  0  0  0  0  0  0
   57.8710   33.6450   44.8370 C   0  0  0  0  0  0  0  0  0  0  0  0
   59.0030   33.5770   45.6540 C   0  0  0  0  0  0  0  0  0  0  0  0
   59.3570   32.3690   46.2790 C   0  0  0  0  0  0  0  0  0  0  0  0
   60.5480   32.2810   47.1560 C   0  0  0  0  0  0  0  0  0  0  0  0
   61.6160   33.1130   47.0400 N   0  0  0  0  0  0  0  0  0  0  0  0
   62.5780   32.8150   47.9490 C   0  0  0  0  0  0  0  0  0  0  0  0
   63.7910   33.4960   48.0670 C   0  0  0  0  0  0  0  0  0  0  0  0
   64.7040   33.0850   49.0530 C   0  0  0  0  0  0  0  0  0  0  0  0
   64.3960   32.0030   49.9040 C   0  0  0  0  0  0  0  0  0  0  0  0
   63.1730   31.3250   49.7760 C   0  0  0  0  0  0  0  0  0  0  0  0
   62.2880   31.7530   48.7910 C   0  0  0  0  0  0  0  0  0  0  0  0
   60.7740   31.1460   48.4000 S   0  0  0  0  0  0  0  0  0  0  0  0
   58.5550   31.2330   46.0710 C   0  0  0  0  0  0  0  0  0  0  0  0
   57.4510   27.7990   45.3510 C   0  0  0  0  0  0  0  0  0  0  0  0
   58.8360   27.5890   45.4540 C   0  0  0  0  0  0  0  0  0  0  0  0
   59.3400   26.5790   46.2800 C   0  0  0  0  0  0  0  0  0  0  0  0
   61.0730   26.3470   46.4250 Cl  0  0  0  0  0  0  0  0  0  0  0  0
   58.4640   25.7590   46.9950 C   0  0  0  0  0  0  0  0  0  0  0  0
   57.0840   25.9420   46.8810 C   0  0  0  0  0  0  0  0  0  0  0  0
   56.5730   26.9510   46.0580 C   0  0  0  0  0  0  0  0  0  0  0  0
   55.1940   27.0910   45.9360 O   0  0  0  0  0  0  0  0  0  0  0  0
   56.1837   32.5741   44.0016 H   0  0  0  0  0  0  0  0  0  0  0  0
   57.6091   34.5910   44.3405 H   0  0  0  0  0  0  0  0  0  0  0  0
   59.6204   34.4742   45.8087 H   0  0  0  0  0  0  0  0  0  0  0  0
   64.0276   34.3386   47.4006 H   0  0  0  0  0  0  0  0  0  0  0  0
   65.6644   33.6101   49.1618 H   0  0  0  0  0  0  0  0  0  0  0  0
   65.1179   31.6886   50.6721 H   0  0  0  0  0  0  0  0  0  0  0  0
   62.9219   30.4806   50.4348 H   0  0  0  0  0  0  0  0  0  0  0  0
   58.8385   30.2749   46.5311 H   0  0  0  0  0  0  0  0  0  0  0  0
   59.5288   28.2230   44.8813 H   0  0  0  0  0  0  0  0  0  0  0  0
   58.8613   24.9684   47.6485 H   0  0  0  0  0  0  0  0  0  0  0  0
   56.3966   25.2904   47.4404 H   0  0  0  0  0  0  0  0  0  0  0  0
  1  2  2  0
  2  3  1  0
  3  4  1  0
  4  5  2  0
  5  6  1  0
  6  7  2  0
  7  8  1  0
  8  9  1  0
  9 10  2  0
 10 11  1  0
 11 12  2  0
 12 13  1  0
 13 14  2  0
 14 15  1  0
 15 16  2  0
 16 17  1  0
  8 18  2  0
  2 19  1  0
 19 20  2  0
 20 21  1  0
 21 22  1  0
 21 23  2  0
 23 24  1  0
 24 25  2  0
 25 26  1  0
 18  4  1  0
 25 19  1  0
 17  9  1  0
 16 11  1  0
  5 27  1  0
  6 28  1  0
  7 29  1  0
 12 30  1  0
 13 31  1  0
 14 32  1  0
 15 33  1  0
 18 34  1  0
 20 35  1  0
 23 36  1  0
 24 37  1  0
M  CHG  2   3  -1  26  -1
M  END
>  <UniqueID>  (29) 
27

>  <SMILES>  (29) 
O=C([N-]c1cccc(-c2nc3ccccc3s2)c1)c1cc(Cl)ccc1[O-]

>  <Energy>  (29) 
85.19094399681808

>  <Genealogy>  (29) 
O=C([N-]c1cccc(-c2nc3ccccc3s2)c1)c1cc(Cl)ccc1[O-] (protonated)
O=C([N-]c1cccc(-c2nc3ccccc3s2)c1)c1cc(Cl)ccc1[O-] (3D coordinates assigned)
O=C([N-]c1cccc(-c2nc3ccccc3s2)c1)c1cc(Cl)ccc1[O-] (optimized conformer: 85.19094399681808 kcal/mol)

>  <smiles>  (29) 
O=C(Nc1cccc(-c2nc3ccccc3s2)c1)c1cc(Cl)ccc1O

>  <score_type>  (29) 
oracle

>  <origin>  (29) 
adg

>  <m_score__min__energy>  (29) 
-14.550000000000001

>  <m_primary>  (29) 
energy

$$$$
29:0
     RDKit          3D

 22 23  0  0  0  0  0  0  0  0999 V2000
   59.4085   31.9871   46.4810 H   0  0  0  0  0  0  0  0  0  0  0  0
   58.8660   31.7880   45.5450 C   0  0  0  0  0  0  0  0  0  0  0  0
   58.8073   32.5640   44.7676 H   0  0  0  0  0  0  0  0  0  0  0  0
   58.2740   30.5950   45.3510 C   0  0  0  0  0  0  0  0  0  0  0  0
   57.5740   30.3220   44.1570 C   0  0  0  0  0  0  0  0  0  0  0  0
   57.3950   31.5870   42.7180 Br  0  0  0  0  0  0  0  0  0  0  0  0
   56.9820   29.0730   43.9810 C   0  0  0  0  0  0  0  0  0  0  0  0
   56.4424   28.8552   43.0475 H   0  0  0  0  0  0  0  0  0  0  0  0
   57.0620   28.1210   44.9460 N   0  0  0  0  0  0  0  0  0  0  0  0
   56.6440   27.1960   44.7110 H   0  0  0  0  0  0  0  0  0  0  0  0
   57.7050   28.3400   46.1360 C   0  0  0  0  0  0  0  0  0  0  0  0
   57.7690   27.3790   47.0910 C   0  0  0  0  0  0  0  0  0  0  0  0
   58.3427   27.6136   47.9998 H   0  0  0  0  0  0  0  0  0  0  0  0
   57.1370   26.0450   47.0200 C   0  0  0  0  0  0  0  0  0  0  0  0
   57.7340   24.8790   47.3320 N   0  0  0  0  0  0  0  0  0  0  0  0
   56.8120   23.9530   46.9950 C   0  0  0  0  0  0  0  0  0  0  0  0
   57.0020   22.7190   47.1550 O   0  0  0  0  0  0  0  0  0  0  0  0
   55.6740   24.4510   46.4680 N   0  0  0  0  0  0  0  0  0  0  0  0
   55.9020   25.7740   46.4790 C   0  0  0  0  0  0  0  0  0  0  0  0
   55.0000   26.7160   46.0000 O   0  0  0  0  0  0  0  0  0  0  0  0
   58.3420   29.5900   46.3450 C   0  0  0  0  0  0  0  0  0  0  0  0
   58.9630   29.8120   47.4250 O   0  0  0  0  0  0  0  0  0  0  0  0
  1  2  1  0
  2  3  1  0
  2  4  2  0
  4  5  1  0
  5  6  1  0
  5  7  2  0
  7  8  1  0
  7  9  1  0
  9 10  1  0
  9 11  1  0
 11 12  2  0
 12 13  1  0
 12 14  1  0
 14 15  1  0
 15 16  1  0
 16 17  2  0
 16 18  1  0
 18 19  1  0
 19 20  1  0
 11 21  1  0
 21 22  2  0
 21  4  1  0
 19 14  2  0
M  CHG  3  15  -1  18  -1  20  -1
M  END
>  <UniqueID>  (30) 
28

>  <SMILES>  (30) 
C=c1c(Br)c[nH]/c(=C\c2[n-]c(=O)[n-]c2[O-])c1=O

>  <Energy>  (30) 
66.32680867529896

>  <Genealogy>  (30) 
C=c1c(Br)c[nH]c(=Cc2[n-]c(=O)[n-]c2[O-])c1=O (protonated)
C=c1c(Br)c[nH]/c(=C\c2[n-]c(=O)[n-]c2[O-])c1=O (cis-trans isomerization)
C=c1c(Br)c[nH]/c(=C\c2[n-]c(=O)[n-]c2[O-])c1=O (3D coordinates assigned)
C=c1c(Br)c[nH]/c(=C\c2[n-]c(=O)[n-]c2[O-])c1=O (optimized conformer: 66.32680867529896 kcal/mol)

>  <smiles>  (30) 
C=c1c(Br)c[nH]c(=Cc2[nH]c(=O)[nH]c2O)c1=O

>  <score_type>  (30) 
oracle

>  <origin>  (30) 
adg

>  <m_score__min__energy>  (30) 
-15.710000000000001

>  <m_primary>  (30) 
energy

$$$$
30:0
     RDKit          3D

 36 38  0  0  0  0  0  0  0  0999 V2000
   59.7600   34.2240   49.9370 O   0  0  0  0  0  0  0  0  0  0  0  0
   60.0420   33.4970   48.9480 C   0  0  0  0  0  0  0  0  0  0  0  0
   58.9740   32.8640   48.2290 N   0  0  0  0  0  0  0  0  0  0  0  0
   58.6950   33.0330   46.8330 C   0  0  0  0  0  0  0  0  0  0  0  0
   59.0870   34.2160   46.1960 C   0  0  0  0  0  0  0  0  0  0  0  0
   58.8590   34.3890   44.8290 C   0  0  0  0  0  0  0  0  0  0  0  0
   58.2270   33.3850   44.0890 C   0  0  0  0  0  0  0  0  0  0  0  0
   57.7920   32.2090   44.7210 C   0  0  0  0  0  0  0  0  0  0  0  0
   57.1460   31.1050   43.9280 C   0  0  0  0  0  0  0  0  0  0  0  0
   57.4370   29.7670   44.5640 C   0  0  0  0  0  0  0  0  0  0  0  0
   58.7710   29.3870   44.7860 C   0  0  0  0  0  0  0  0  0  0  0  0
   59.0660   28.1720   45.4070 C   0  0  0  0  0  0  0  0  0  0  0  0
   58.0360   27.3250   45.8160 C   0  0  0  0  0  0  0  0  0  0  0  0
   56.7010   27.6890   45.6100 C   0  0  0  0  0  0  0  0  0  0  0  0
   55.6920   26.8250   46.0330 O   0  0  0  0  0  0  0  0  0  0  0  0
   56.3970   28.9150   44.9910 C   0  0  0  0  0  0  0  0  0  0  0  0
   55.0670   29.2780   44.8030 O   0  0  0  0  0  0  0  0  0  0  0  0
   58.0150   32.0460   46.0980 C   0  0  0  0  0  0  0  0  0  0  0  0
   61.4530   33.3610   48.5360 C   0  0  0  0  0  0  0  0  0  0  0  0
   61.9240   32.8030   47.3510 C   0  0  0  0  0  0  0  0  0  0  0  0
   63.3190   32.8440   47.2360 C   0  0  0  0  0  0  0  0  0  0  0  0
   63.9510   33.4410   48.3200 C   0  0  0  0  0  0  0  0  0  0  0  0
   62.7720   33.9170   49.4190 S   0  0  0  0  0  0  0  0  0  0  0  0
   59.5768   35.0130   46.7746 H   0  0  0  0  0  0  0  0  0  0  0  0
   59.1775   35.3178   44.3331 H   0  0  0  0  0  0  0  0  0  0  0  0
   58.0701   33.5168   43.0083 H   0  0  0  0  0  0  0  0  0  0  0  0
   56.0581   31.2656   43.9011 H   0  0  0  0  0  0  0  0  0  0  0  0
   57.5521   31.1124   42.9058 H   0  0  0  0  0  0  0  0  0  0  0  0
   59.5884   30.0511   44.4685 H   0  0  0  0  0  0  0  0  0  0  0  0
   60.1138   27.8818   45.5743 H   0  0  0  0  0  0  0  0  0  0  0  0
   58.2742   26.3675   46.3022 H   0  0  0  0  0  0  0  0  0  0  0  0
   54.7140   27.0850   46.0090 H   0  0  0  0  0  0  0  0  0  0  0  0
   57.6548   31.1390   46.6055 H   0  0  0  0  0  0  0  0  0  0  0  0
   61.2660   32.3727   46.5816 H   0  0  0  0  0  0  0  0  0  0  0  0
   63.8634   32.4414   46.3690 H   0  0  0  0  0  0  0  0  0  0  0  0
   65.0360   33.5784   48.4384 H   0  0  0  0  0  0  0  0  0  0  0  0
  1  2  2  0
  2  3  1  0
  3  4  1  0
  4  5  2  0
  5  6  1  0
  6  7  2  0
  7  8  1  0
  8  9  1  0
  9 10  1  0
 10 11  2  0
 11 12  1  0
 12 13  2  0
 13 14  1  0
 14 15  1  0
 14 16  2  0
 16 17  1  0
  8 18  2  0
  2 19  1  0
 19 20  2  0
 20 21  1  0
 21 22  2  0
 22 23  1  0
 18  4  1  0
 23 19  1  0
 16 10  1  0
  5 24  1  0
  6 25  1  0
  7 26  1  0
  9 27  1  0
  9 28  1  0
 11 29  1  0
 12 30  1  0
 13 31  1  0
 15 32  1  0
 18 33  1  0
 20 34  1  0
 21 35  1  0
 22 36  1  0
M  CHG  2   3  -1  17  -1
M  END
>  <UniqueID>  (31) 
29

>  <SMILES>  (31) 
O=C([N-]c1cccc(Cc2cccc(O)c2[O-])c1)c1cccs1

>  <Energy>  (31) 
66.1813173889505

>  <Genealogy>  (31) 
O=C([N-]c1cccc(Cc2cccc(O)c2[O-])c1)c1cccs1 (protonated)
O=C([N-]c1cccc(Cc2cccc(O)c2[O-])c1)c1cccs1 (3D coordinates assigned)
O=C([N-]c1cccc(Cc2cccc(O)c2[O-])c1)c1cccs1 (optimized conformer: 66.1813173889505 kcal/mol)

>  <smiles>  (31) 
O=C(Nc1cccc(Cc2cccc(O)c2O)c1)c1cccs1

>  <score_type>  (31) 
oracle

>  <origin>  (31) 
adg

>  <m_score__min__energy>  (31) 
-13.539999999999999

>  <m_primary>  (31) 
energy

$$$$
31:0
     RDKit          3D

 39 41  0  0  0  0  0  0  0  0999 V2000
   54.6910   23.6870   46.1330 C   0  0  0  0  0  0  0  0  0  0  0  0
   55.6620   24.2920   46.9810 O   0  0  0  0  0  0  0  0  0  0  0  0
   56.6310   25.2130   46.5520 C   0  0  0  0  0  0  0  0  0  0  0  0
   58.0080   24.9330   46.6180 C   0  0  0  0  0  0  0  0  0  0  0  0
   58.9370   25.8750   46.1820 C   0  0  0  0  0  0  0  0  0  0  0  0
   58.5100   27.1030   45.6750 C   0  0  0  0  0  0  0  0  0  0  0  0
   57.1390   27.4100   45.5970 C   0  0  0  0  0  0  0  0  0  0  0  0
   56.7130   28.7280   45.0510 C   0  0  0  0  0  0  0  0  0  0  0  0
   55.4920   28.9750   44.8570 O   0  0  0  0  0  0  0  0  0  0  0  0
   57.6990   29.7200   44.7390 N   0  0  0  0  0  0  0  0  0  0  0  0
   57.6300   31.1020   45.1080 C   0  0  0  0  0  0  0  0  0  0  0  0
   56.8330   32.0130   44.5120 N   0  0  0  0  0  0  0  0  0  0  0  0
   57.0730   33.1490   45.2030 C   0  0  0  0  0  0  0  0  0  0  0  0
   57.9800   32.9830   46.1880 N   0  0  0  0  0  0  0  0  0  0  0  0
   58.4550   34.0230   47.0970 C   0  0  0  0  0  0  0  0  0  0  0  0
   58.3290   31.6810   46.1450 C   0  0  0  0  0  0  0  0  0  0  0  0
   59.2900   31.0030   47.0450 C   0  0  0  0  0  0  0  0  0  0  0  0
   58.8880   29.8830   47.7930 C   0  0  0  0  0  0  0  0  0  0  0  0
   59.7880   29.2490   48.6550 C   0  0  0  0  0  0  0  0  0  0  0  0
   61.0940   29.7300   48.7800 C   0  0  0  0  0  0  0  0  0  0  0  0
   61.5000   30.8470   48.0470 C   0  0  0  0  0  0  0  0  0  0  0  0
   60.6030   31.4840   47.1840 C   0  0  0  0  0  0  0  0  0  0  0  0
   56.2010   26.4480   46.0430 C   0  0  0  0  0  0  0  0  0  0  0  0
   54.8340   26.7060   45.9880 O   0  0  0  0  0  0  0  0  0  0  0  0
   53.9168   23.2046   46.7478 H   0  0  0  0  0  0  0  0  0  0  0  0
   54.2281   24.4568   45.4981 H   0  0  0  0  0  0  0  0  0  0  0  0
   55.1780   22.9322   45.4981 H   0  0  0  0  0  0  0  0  0  0  0  0
   58.3524   23.9668   47.0153 H   0  0  0  0  0  0  0  0  0  0  0  0
   60.0123   25.6498   46.2376 H   0  0  0  0  0  0  0  0  0  0  0  0
   59.2528   27.8386   45.3328 H   0  0  0  0  0  0  0  0  0  0  0  0
   56.5807   34.1083   44.9854 H   0  0  0  0  0  0  0  0  0  0  0  0
   58.3061   33.6970   48.1370 H   0  0  0  0  0  0  0  0  0  0  0  0
   59.5253   34.2045   46.9193 H   0  0  0  0  0  0  0  0  0  0  0  0
   57.8913   34.9507   46.9193 H   0  0  0  0  0  0  0  0  0  0  0  0
   57.8599   29.5032   47.6998 H   0  0  0  0  0  0  0  0  0  0  0  0
   59.4678   28.3710   49.2351 H   0  0  0  0  0  0  0  0  0  0  0  0
   61.8024   29.2286   49.4559 H   0  0  0  0  0  0  0  0  0  0  0  0
   62.5274   31.2265   48.1487 H   0  0  0  0  0  0  0  0  0  0  0  0
   60.9266   32.3656   46.6113 H   0  0  0  0  0  0  0  0  0  0  0  0
  1  2  1  0
  2  3  1  0
  3  4  2  0
  4  5  1  0
  5  6  2  0
  6  7  1  0
  7  8  1  0
  8  9  2  0
  8 10  1  0
 10 11  1  0
 11 12  1  0
 12 13  2  0
 13 14  1  0
 14 15  1  0
 14 16  1  0
 16 17  1  0
 17 18  2  0
 18 19  1  0
 19 20  2  0
 20 21  1  0
 21 22  2  0
  7 23  2  0
 23 24  1  0
 23  3  1  0
 16 11  2  0
 22 17  1  0
  1 25  1  0
  1 26  1  0
  1 27  1  0
  4 28  1  0
  5 29  1  0
  6 30  1  0
 13 31  1  0
 15 32  1  0
 15 33  1  0
 15 34  1  0
 18 35  1  0
 19 36  1  0
 20 37  1  0
 21 38  1  0
 22 39  1  0
M  CHG  2  10  -1  24  -1
M  END
>  <UniqueID>  (32) 
30

>  <SMILES>  (32) 
COc1cccc(C(=O)[N-]c2ncn(C)c2-c2ccccc2)c1[O-]

>  <Energy>  (32) 
78.60428181446233

>  <Genealogy>  (32) 
COc1cccc(C(=O)[N-]c2ncn(C)c2-c2ccccc2)c1[O-] (protonated)
COc1cccc(C(=O)[N-]c2ncn(C)c2-c2ccccc2)c1[O-] (3D coordinates assigned)
COc1cccc(C(=O)[N-]c2ncn(C)c2-c2ccccc2)c1[O-] (optimized conformer: 78.60428181446233 kcal/mol)

>  <smiles>  (32) 
COc1cccc(C(=O)Nc2ncn(C)c2-c2ccccc2)c1O

>  <score_type>  (32) 
oracle

>  <origin>  (32) 
adg

>  <m_score__min__energy>  (32) 
-13.199999999999999

>  <m_primary>  (32) 
energy

$$$$
32:0
     RDKit          3D

 35 37  0  0  0  0  0  0  0  0999 V2000
   62.3220   33.8270   46.7850 C   0  0  0  0  0  0  0  0  0  0  0  0
   60.9380   34.1620   46.8040 O   0  0  0  0  0  0  0  0  0  0  0  0
   59.9080   33.2980   46.4040 C   0  0  0  0  0  0  0  0  0  0  0  0
   58.7240   33.8610   45.9120 C   0  0  0  0  0  0  0  0  0  0  0  0
   57.6650   33.0470   45.4990 C   0  0  0  0  0  0  0  0  0  0  0  0
   57.7780   31.6570   45.5750 C   0  0  0  0  0  0  0  0  0  0  0  0
   56.7720   30.8870   45.1770 O   0  0  0  0  0  0  0  0  0  0  0  0
   56.8170   29.5570   45.2230 C   0  0  0  0  0  0  0  0  0  0  0  0
   55.8140   28.9010   44.8370 O   0  0  0  0  0  0  0  0  0  0  0  0
   57.9640   28.8960   45.7130 C   0  0  0  0  0  0  0  0  0  0  0  0
   58.0400   27.4150   45.7600 C   0  0  0  0  0  0  0  0  0  0  0  0
   58.6690   26.8630   46.7030 O   0  0  0  0  0  0  0  0  0  0  0  0
   57.3840   26.6090   44.7630 N   0  0  0  0  0  0  0  0  0  0  0  0
   57.4920   25.1780   44.6910 C   0  0  0  0  0  0  0  0  0  0  0  0
   56.6560   24.4690   43.8120 C   0  0  0  0  0  0  0  0  0  0  0  0
   56.7580   23.0790   43.7060 C   0  0  0  0  0  0  0  0  0  0  0  0
   57.7060   22.3860   44.4620 C   0  0  0  0  0  0  0  0  0  0  0  0
   58.5600   23.0840   45.3190 C   0  0  0  0  0  0  0  0  0  0  0  0
   58.4600   24.4740   45.4300 C   0  0  0  0  0  0  0  0  0  0  0  0
   59.0470   29.6830   46.1330 C   0  0  0  0  0  0  0  0  0  0  0  0
   58.9620   31.0770   46.0700 C   0  0  0  0  0  0  0  0  0  0  0  0
   60.0250   31.8960   46.4820 C   0  0  0  0  0  0  0  0  0  0  0  0
   62.6918   33.7375   47.8171 H   0  0  0  0  0  0  0  0  0  0  0  0
   62.4603   32.8694   46.2616 H   0  0  0  0  0  0  0  0  0  0  0  0
   62.8829   34.6153   46.2616 H   0  0  0  0  0  0  0  0  0  0  0  0
   58.6261   34.9549   45.8498 H   0  0  0  0  0  0  0  0  0  0  0  0
   56.7409   33.5023   45.1134 H   0  0  0  0  0  0  0  0  0  0  0  0
   56.7500   27.0730   44.0750 H   0  0  0  0  0  0  0  0  0  0  0  0
   55.9169   25.0110   43.2037 H   0  0  0  0  0  0  0  0  0  0  0  0
   56.0903   22.5299   43.0258 H   0  0  0  0  0  0  0  0  0  0  0  0
   57.7801   21.2914   44.3826 H   0  0  0  0  0  0  0  0  0  0  0  0
   59.3126   22.5390   45.9077 H   0  0  0  0  0  0  0  0  0  0  0  0
   59.1418   25.0200   46.0987 H   0  0  0  0  0  0  0  0  0  0  0  0
   59.9619   29.2037   46.5114 H   0  0  0  0  0  0  0  0  0  0  0  0
   60.9506   31.4426   46.8663 H   0  0  0  0  0  0  0  0  0  0  0  0
  1  2  1  0
  2  3  1  0
  3  4  2  0
  4  5  1  0
  5  6  2  0
  6  7  1  0
  7  8  1  0
  8  9  2  0
  8 10  1  0
 10 11  1  0
 11 12  2  0
 11 13  1  0
 13 14  1  0
 14 15  2  0
 15 16  1  0
 16 17  2  0
 17 18  1  0
 18 19  2  0
 10 20  2  0
 20 21  1  0
 21 22  2  0
 22  3  1  0
 21  6  1  0
 19 14  1  0
  1 23  1  0
  1 24  1  0
  1 25  1  0
  4 26  1  0
  5 27  1  0
 13 28  1  0
 15 29  1  0
 16 30  1  0
 17 31  1  0
 18 32  1  0
 19 33  1  0
 20 34  1  0
 22 35  1  0
M  END
>  <UniqueID>  (33) 
31

>  <SMILES>  (33) 
COc1ccc2oc(=O)c(C(=O)Nc3ccccc3)cc2c1

>  <Energy>  (33) 
49.4346044281497

>  <Genealogy>  (33) 
COc1ccc2oc(=O)c(C(=O)Nc3ccccc3)cc2c1 (3D coordinates assigned)
COc1ccc2oc(=O)c(C(=O)Nc3ccccc3)cc2c1 (optimized conformer: 49.4346044281497 kcal/mol)

>  <smiles>  (33) 
COc1ccc2oc(=O)c(C(=O)Nc3ccccc3)cc2c1

>  <score_type>  (33) 
oracle

>  <origin>  (33) 
adg

>  <m_score__min__energy>  (33) 
-7.2800000000000002

>  <m_primary>  (33) 
energy

$$$$
33:0
     RDKit          3D

 44 46  0  0  0  0  0  0  0  0999 V2000
   56.0770   33.8850   46.9570 H   0  0  0  0  0  0  0  0  0  0  0  0
   56.6340   33.7950   46.0770 N   0  0  0  0  0  0  0  0  0  0  0  0
   57.5560   32.8950   45.9490 C   0  0  0  0  0  0  0  0  0  0  0  0
   57.3130   31.7710   45.2280 N   0  0  0  0  0  0  0  0  0  0  0  0
   58.2600   30.8090   45.0690 C   0  0  0  0  0  0  0  0  0  0  0  0
   57.9600   29.6320   44.2930 N   0  0  0  0  0  0  0  0  0  0  0  0
   58.8590   28.4690   44.3310 C   0  0  0  0  0  0  0  0  0  0  0  0
   58.8394   27.9605   43.3558 H   0  0  0  0  0  0  0  0  0  0  0  0
   59.8817   28.8082   44.5523 H   0  0  0  0  0  0  0  0  0  0  0  0
   58.4110   27.5120   45.4020 C   0  0  0  0  0  0  0  0  0  0  0  0
   59.2350   27.2540   46.5110 C   0  0  0  0  0  0  0  0  0  0  0  0
   60.1920   27.7860   46.6170 H   0  0  0  0  0  0  0  0  0  0  0  0
   58.8450   26.3250   47.4800 C   0  0  0  0  0  0  0  0  0  0  0  0
   59.4920   26.1309   48.3482 H   0  0  0  0  0  0  0  0  0  0  0  0
   57.6310   25.6420   47.3450 C   0  0  0  0  0  0  0  0  0  0  0  0
   57.2550   24.7390   48.2830 F   0  0  0  0  0  0  0  0  0  0  0  0
   56.8070   25.8900   46.2410 C   0  0  0  0  0  0  0  0  0  0  0  0
   55.8514   25.3551   46.1377 H   0  0  0  0  0  0  0  0  0  0  0  0
   57.1970   26.8170   45.2690 C   0  0  0  0  0  0  0  0  0  0  0  0
   56.5515   27.0025   44.3979 H   0  0  0  0  0  0  0  0  0  0  0  0
   56.9030   29.6890   43.2730 C   0  0  0  0  0  0  0  0  0  0  0  0
   57.1359   30.4876   42.5533 H   0  0  0  0  0  0  0  0  0  0  0  0
   56.8517   28.7193   42.7563 H   0  0  0  0  0  0  0  0  0  0  0  0
   55.5500   29.9770   43.9260 C   0  0  0  0  0  0  0  0  0  0  0  0
   55.3822   31.0639   43.9486 H   0  0  0  0  0  0  0  0  0  0  0  0
   54.7588   29.4852   43.3410 H   0  0  0  0  0  0  0  0  0  0  0  0
   55.5250   29.4780   45.2360 O   0  0  0  0  0  0  0  0  0  0  0  0
   56.0880   30.0860   45.7820 H   0  0  0  0  0  0  0  0  0  0  0  0
   59.5060   30.9720   45.6840 C   0  0  0  0  0  0  0  0  0  0  0  0
   60.2796   30.1956   45.5899 H   0  0  0  0  0  0  0  0  0  0  0  0
   59.7560   32.1380   46.4220 C   0  0  0  0  0  0  0  0  0  0  0  0
   61.0720   32.3440   47.0830 C   0  0  0  0  0  0  0  0  0  0  0  0
   61.8570   33.4700   46.7730 C   0  0  0  0  0  0  0  0  0  0  0  0
   61.4931   34.2042   46.0392 H   0  0  0  0  0  0  0  0  0  0  0  0
   63.0960   33.6620   47.3910 C   0  0  0  0  0  0  0  0  0  0  0  0
   63.7028   34.5446   47.1406 H   0  0  0  0  0  0  0  0  0  0  0  0
   63.5660   32.7360   48.3260 C   0  0  0  0  0  0  0  0  0  0  0  0
   64.5422   32.8883   48.8096 H   0  0  0  0  0  0  0  0  0  0  0  0
   62.7950   31.6180   48.6450 C   0  0  0  0  0  0  0  0  0  0  0  0
   63.1620   30.8917   49.3851 H   0  0  0  0  0  0  0  0  0  0  0  0
   61.5560   31.4180   48.0260 C   0  0  0  0  0  0  0  0  0  0  0  0
   60.9562   30.5310   48.2781 H   0  0  0  0  0  0  0  0  0  0  0  0
   58.7720   33.0790   46.5340 N   0  0  0  0  0  0  0  0  0  0  0  0
   58.9510   33.9650   47.0600 H   0  0  0  0  0  0  0  0  0  0  0  0
  1  2  1  0
  2  3  2  0
  3  4  1  0
  4  5  2  0
  5  6  1  0
  6  7  1  0
  7  8  1  0
  7  9  1  0
  7 10  1  0
 10 11  2  0
 11 12  1  0
 11 13  1  0
 13 14  1  0
 13 15  2  0
 15 16  1  0
 15 17  1  0
 17 18  1  0
 17 19  2  0
 19 20  1  0
  6 21  1  0
 21 22  1  0
 21 23  1  0
 21 24  1  0
 24 25  1  0
 24 26  1  0
 24 27  1  0
 27 28  1  0
  5 29  1  0
 29 30  1  0
 29 31  2  0
 31 32  1  0
 32 33  2  0
 33 34  1  0
 33 35  1  0
 35 36  1  0
 35 37  2  0
 37 38  1  0
 37 39  1  0
 39 40  1  0
 39 41  2  0
 41 42  1  0
 31 43  1  0
 43 44  1  0
 43  3  1  0
 19 10  1  0
 41 32  1  0
M  END
>  <UniqueID>  (34) 
32

>  <SMILES>  (34) 
[H]/N=c1\nc(N(CCO)Cc2ccc(F)cc2)cc(-c2ccccc2)[nH]1

>  <Energy>  (34) 
49.78867393938068

>  <Genealogy>  (34) 
[H]/N=c1\nc(N(CCO)Cc2ccc(F)cc2)cc(-c2ccccc2)[nH]1 (cis-trans isomerization)
[H]/N=c1\nc(N(CCO)Cc2ccc(F)cc2)cc(-c2ccccc2)[nH]1 (3D coordinates assigned)
[H]/N=c1\nc(N(CCO)Cc2ccc(F)cc2)cc(-c2ccccc2)[nH]1 (optimized conformer: 49.78867393938068 kcal/mol)

>  <smiles>  (34) 
N=c1nc(N(CCO)Cc2ccc(F)cc2)cc(-c2ccccc2)[nH]1

>  <score_type>  (34) 
oracle

>  <origin>  (34) 
adg

>  <m_score__min__energy>  (34) 
-7.8700000000000001

>  <m_primary>  (34) 
energy

$$$$
34:0
     RDKit          3D

 44 45  0  0  0  0  0  0  0  0999 V2000
   61.0940   30.0360   46.8020 N   0  0  0  0  0  0  0  0  0  0  0  0
   60.8310   31.6740   47.2880 S   0  0  0  0  0  0  0  0  0  0  0  0
   62.0830   32.4740   47.0610 O   0  0  0  0  0  0  0  0  0  0  0  0
   60.4950   31.7070   48.7520 O   0  0  0  0  0  0  0  0  0  0  0  0
   59.5140   32.3690   46.3450 C   0  0  0  0  0  0  0  0  0  0  0  0
   59.5400   33.7200   45.9690 C   0  0  0  0  0  0  0  0  0  0  0  0
   58.4950   34.2540   45.2100 C   0  0  0  0  0  0  0  0  0  0  0  0
   57.4130   33.4510   44.8420 C   0  0  0  0  0  0  0  0  0  0  0  0
   57.3560   32.1100   45.2530 C   0  0  0  0  0  0  0  0  0  0  0  0
   56.2740   31.2550   44.8650 N   0  0  0  0  0  0  0  0  0  0  0  0
   56.3750   29.8830   44.4620 C   0  0  0  0  0  0  0  0  0  0  0  0
   55.5280   29.0610   44.9040 O   0  0  0  0  0  0  0  0  0  0  0  0
   57.3390   29.4410   43.3920 C   0  0  0  0  0  0  0  0  0  0  0  0
   58.0980   28.3130   43.8220 O   0  0  0  0  0  0  0  0  0  0  0  0
   59.2090   28.4090   44.6670 C   0  0  0  0  0  0  0  0  0  0  0  0
   60.0640   29.3220   44.5070 O   0  0  0  0  0  0  0  0  0  0  0  0
   59.3700   27.4270   45.7860 C   0  0  0  0  0  0  0  0  0  0  0  0
   58.2850   27.6030   46.8610 C   0  0  0  0  0  0  0  0  0  0  0  0
   57.4510   26.3370   47.0970 C   0  0  0  0  0  0  0  0  0  0  0  0
   56.1630   26.4400   46.4150 N   0  0  0  0  0  0  0  0  0  0  0  0
   55.6000   25.4600   45.7730 C   0  0  0  0  0  0  0  0  0  0  0  0
   54.2530   25.2570   45.8450 N   0  0  0  0  0  0  0  0  0  0  0  0
   53.6630   24.2320   45.1770 C   0  0  0  0  0  0  0  0  0  0  0  0
   54.4370   23.3730   44.3980 C   0  0  0  0  0  0  0  0  0  0  0  0
   55.8130   23.5970   44.3300 C   0  0  0  0  0  0  0  0  0  0  0  0
   56.3660   24.6310   45.0170 N   0  0  0  0  0  0  0  0  0  0  0  0
   58.4230   31.5670   45.9800 C   0  0  0  0  0  0  0  0  0  0  0  0
   61.5690   30.0660   45.8720 H   0  0  0  0  0  0  0  0  0  0  0  0
   60.1520   29.6100   46.6450 H   0  0  0  0  0  0  0  0  0  0  0  0
   60.3827   34.3591   46.2714 H   0  0  0  0  0  0  0  0  0  0  0  0
   58.5247   35.3095   44.9016 H   0  0  0  0  0  0  0  0  0  0  0  0
   56.6027   33.8709   44.2279 H   0  0  0  0  0  0  0  0  0  0  0  0
   56.7737   29.1707   42.4879 H   0  0  0  0  0  0  0  0  0  0  0  0
   58.0314   30.2691   43.1804 H   0  0  0  0  0  0  0  0  0  0  0  0
   59.3043   26.4078   45.3774 H   0  0  0  0  0  0  0  0  0  0  0  0
   60.3488   27.6023   46.2564 H   0  0  0  0  0  0  0  0  0  0  0  0
   58.7730   27.8806   47.8069 H   0  0  0  0  0  0  0  0  0  0  0  0
   57.5971   28.3835   46.5038 H   0  0  0  0  0  0  0  0  0  0  0  0
   57.9979   25.4652   46.7085 H   0  0  0  0  0  0  0  0  0  0  0  0
   57.2744   26.2226   48.1767 H   0  0  0  0  0  0  0  0  0  0  0  0
   52.5761   24.0799   45.2505 H   0  0  0  0  0  0  0  0  0  0  0  0
   53.9744   22.5388   43.8502 H   0  0  0  0  0  0  0  0  0  0  0  0
   56.4489   22.9375   43.7212 H   0  0  0  0  0  0  0  0  0  0  0  0
   58.4051   30.5051   46.2664 H   0  0  0  0  0  0  0  0  0  0  0  0
  1  2  1  0
  2  3  2  0
  2  4  2  0
  2  5  1  0
  5  6  2  0
  6  7  1  0
  7  8  2  0
  8  9  1  0
  9 10  1  0
 10 11  1  0
 11 12  2  0
 11 13  1  0
 13 14  1  0
 14 15  1  0
 15 16  2  0
 15 17  1  0
 17 18  1  0
 18 19  1  0
 19 20  1  0
 20 21  2  3
 21 22  1  0
 22 23  2  0
 23 24  1  0
 24 25  2  0
 25 26  1  0
  9 27  2  0
 27  5  1  0
 26 21  1  0
  1 28  1  0
  1 29  1  0
  6 30  1  0
  7 31  1  0
  8 32  1  0
 13 33  1  0
 13 34  1  0
 17 35  1  0
 17 36  1  0
 18 37  1  0
 18 38  1  0
 19 39  1  0
 19 40  1  0
 23 41  1  0
 24 42  1  0
 25 43  1  0
 27 44  1  0
M  CHG  2  10  -1  26  -1
M  END
>  <UniqueID>  (35) 
33

>  <SMILES>  (35) 
NS(=O)(=O)c1cccc([N-]C(=O)COC(=O)CCCN=c2nccc[n-]2)c1

>  <Energy>  (35) 
41.98264896243622

>  <Genealogy>  (35) 
NS(=O)(=O)c1cccc([N-]C(=O)COC(=O)CCCN=c2nccc[n-]2)c1 (protonated)
NS(=O)(=O)c1cccc([N-]C(=O)COC(=O)CCCN=c2nccc[n-]2)c1 (3D coordinates assigned)
NS(=O)(=O)c1cccc([N-]C(=O)COC(=O)CCCN=c2nccc[n-]2)c1 (optimized conformer: 41.98264896243622 kcal/mol)

>  <smiles>  (35) 
NS(=O)(=O)c1cccc(NC(=O)COC(=O)CCCN=c2nccc[nH]2)c1

>  <score_type>  (35) 
oracle

>  <origin>  (35) 
adg

>  <m_score__min__energy>  (35) 
-9.9900000000000002

>  <m_primary>  (35) 
energy

$$$$
35:0
     RDKit          3D

 58 61  0  0  0  0  0  0  0  0999 V2000
   54.9980   29.7500   43.7260 O   0  0  0  0  0  0  0  0  0  0  0  0
   56.2170   30.0380   43.8660 C   0  0  0  0  0  0  0  0  0  0  0  0
   56.6730   31.3240   43.4200 N   0  0  0  0  0  0  0  0  0  0  0  0
   57.3710   32.2910   44.2190 C   0  0  0  0  0  0  0  0  0  0  0  0
   56.8860   32.5930   45.4960 C   0  0  0  0  0  0  0  0  0  0  0  0
   57.5400   33.5330   46.2970 C   0  0  0  0  0  0  0  0  0  0  0  0
   58.6780   34.2050   45.8190 C   0  0  0  0  0  0  0  0  0  0  0  0
   59.3900   35.2220   46.6870 C   0  0  0  0  0  0  0  0  0  0  0  0
   60.5410   34.6730   47.4400 N   0  0  0  0  0  0  0  0  0  0  0  0
   60.1760   34.1250   48.7590 C   0  0  0  0  0  0  0  0  0  0  0  0
   61.4250   33.5620   49.4690 C   0  0  0  0  0  0  0  0  0  0  0  0
   62.6100   33.8960   48.7690 O   0  0  0  0  0  0  0  0  0  0  0  0
   62.5920   33.3020   47.4810 C   0  0  0  0  0  0  0  0  0  0  0  0
   61.3400   33.7030   46.6730 C   0  0  0  0  0  0  0  0  0  0  0  0
   59.1540   33.9120   44.5320 C   0  0  0  0  0  0  0  0  0  0  0  0
   58.5010   32.9700   43.7330 C   0  0  0  0  0  0  0  0  0  0  0  0
   57.1220   29.0720   44.5320 C   0  0  0  0  0  0  0  0  0  0  0  0
   57.0500   28.8790   45.9220 C   0  0  0  0  0  0  0  0  0  0  0  0
   57.9010   27.9680   46.5540 C   0  0  0  0  0  0  0  0  0  0  0  0
   58.8400   27.2440   45.8070 C   0  0  0  0  0  0  0  0  0  0  0  0
   59.9330   26.1070   46.5910 S   0  0  0  0  0  0  0  0  0  0  0  0
   59.5840   24.6950   46.2050 O   0  0  0  0  0  0  0  0  0  0  0  0
   61.3350   26.3900   46.1290 O   0  0  0  0  0  0  0  0  0  0  0  0
   59.8610   26.2820   48.3210 N   0  0  0  0  0  0  0  0  0  0  0  0
   60.7780   27.3210   48.7910 C   0  0  0  0  0  0  0  0  0  0  0  0
   60.2550   28.6920   48.4540 C   0  0  0  0  0  0  0  0  0  0  0  0
   59.3380   29.3360   49.3040 C   0  0  0  0  0  0  0  0  0  0  0  0
   58.8690   30.6150   48.9920 C   0  0  0  0  0  0  0  0  0  0  0  0
   59.3060   31.2590   47.8300 C   0  0  0  0  0  0  0  0  0  0  0  0
   60.2140   30.6240   46.9790 C   0  0  0  0  0  0  0  0  0  0  0  0
   60.6870   29.3450   47.2880 C   0  0  0  0  0  0  0  0  0  0  0  0
   58.9300   27.4480   44.4250 C   0  0  0  0  0  0  0  0  0  0  0  0
   58.0790   28.3570   43.7910 C   0  0  0  0  0  0  0  0  0  0  0  0
   55.9843   32.0874   45.8719 H   0  0  0  0  0  0  0  0  0  0  0  0
   57.1619   33.7481   47.3073 H   0  0  0  0  0  0  0  0  0  0  0  0
   59.7555   36.0331   46.0400 H   0  0  0  0  0  0  0  0  0  0  0  0
   58.6598   35.5700   47.4324 H   0  0  0  0  0  0  0  0  0  0  0  0
   59.7374   34.9238   49.3751 H   0  0  0  0  0  0  0  0  0  0  0  0
   59.4469   33.3132   48.6200 H   0  0  0  0  0  0  0  0  0  0  0  0
   61.4789   33.9808   50.4847 H   0  0  0  0  0  0  0  0  0  0  0  0
   61.3398   32.4659   49.5036 H   0  0  0  0  0  0  0  0  0  0  0  0
   63.4878   33.6238   46.9297 H   0  0  0  0  0  0  0  0  0  0  0  0
   62.5744   32.2100   47.6124 H   0  0  0  0  0  0  0  0  0  0  0  0
   61.6502   34.1574   45.7205 H   0  0  0  0  0  0  0  0  0  0  0  0
   60.7327   32.8073   46.4759 H   0  0  0  0  0  0  0  0  0  0  0  0
   60.0473   34.4274   44.1495 H   0  0  0  0  0  0  0  0  0  0  0  0
   58.8730   32.7591   42.7195 H   0  0  0  0  0  0  0  0  0  0  0  0
   56.3198   29.4481   46.5161 H   0  0  0  0  0  0  0  0  0  0  0  0
   57.8334   27.8188   47.6417 H   0  0  0  0  0  0  0  0  0  0  0  0
   60.8895   27.2363   49.8821 H   0  0  0  0  0  0  0  0  0  0  0  0
   61.7494   27.1835   48.2936 H   0  0  0  0  0  0  0  0  0  0  0  0
   58.9889   28.8315   50.2170 H   0  0  0  0  0  0  0  0  0  0  0  0
   58.1547   31.1162   49.6617 H   0  0  0  0  0  0  0  0  0  0  0  0
   58.9348   32.2654   47.5861 H   0  0  0  0  0  0  0  0  0  0  0  0
   60.5571   31.1307   46.0650 H   0  0  0  0  0  0  0  0  0  0  0  0
   61.4008   28.8479   46.6147 H   0  0  0  0  0  0  0  0  0  0  0  0
   59.6733   26.8907   43.8360 H   0  0  0  0  0  0  0  0  0  0  0  0
   58.1584   28.5141   42.7052 H   0  0  0  0  0  0  0  0  0  0  0  0
  1  2  2  0
  2  3  1  0
  3  4  1  0
  4  5  2  0
  5  6  1  0
  6  7  2  0
  7  8  1  0
  8  9  1  0
  9 10  1  0
 10 11  1  0
 11 12  1  0
 12 13  1  0
 13 14  1  0
  7 15  1  0
 15 16  2  0
  2 17  1  0
 17 18  2  0
 18 19  1  0
 19 20  2  0
 20 21  1  0
 21 22  2  0
 21 23  2  0
 21 24  1  0
 24 25  1  0
 25 26  1  0
 26 27  2  0
 27 28  1  0
 28 29  2  0
 29 30  1  0
 30 31  2  0
 20 32  1  0
 32 33  2  0
 16  4  1  0
 33 17  1  0
 14  9  1  0
 31 26  1  0
  5 34  1  0
  6 35  1  0
  8 36  1  0
  8 37  1  0
 10 38  1  0
 10 39  1  0
 11 40  1  0
 11 41  1  0
 13 42  1  0
 13 43  1  0
 14 44  1  0
 14 45  1  0
 15 46  1  0
 16 47  1  0
 18 48  1  0
 19 49  1  0
 25 50  1  0
 25 51  1  0
 27 52  1  0
 28 53  1  0
 29 54  1  0
 30 55  1  0
 31 56  1  0
 32 57  1  0
 33 58  1  0
M  CHG  2   3  -1  24  -1
M  END
>  <UniqueID>  (36) 
34

>  <SMILES>  (36) 
O=C([N-]c1ccc(CN2CCOCC2)cc1)c1ccc(S(=O)(=O)[N-]Cc2ccccc2)cc1

>  <Energy>  (36) 
78.48015427212444

>  <Genealogy>  (36) 
O=C([N-]c1ccc(CN2CCOCC2)cc1)c1ccc(S(=O)(=O)[N-]Cc2ccccc2)cc1 (protonated)
O=C([N-]c1ccc(CN2CCOCC2)cc1)c1ccc(S(=O)(=O)[N-]Cc2ccccc2)cc1 (3D coordinates assigned)
O=C([N-]c1ccc(CN2CCOCC2)cc1)c1ccc(S(=O)(=O)[N-]Cc2ccccc2)cc1 (nonaromatic ring conformer: 78.48015427212444 kcal/mol)

>  <smiles>  (36) 
O=C(Nc1ccc(CN2CCOCC2)cc1)c1ccc(S(=O)(=O)NCc2ccccc2)cc1

>  <score_type>  (36) 
oracle

>  <origin>  (36) 
adg

>  <m_score__min__energy>  (36) 
-12.449999999999999

>  <m_primary>  (36) 
energy

$$$$
36:0
     RDKit          3D

 43 44  0  0  0  0  0  0  0  0999 V2000
   57.1440   30.9490   43.5320 C   0  0  0  0  0  0  0  0  0  0  0  0
   56.7980   30.5480   44.8540 O   0  0  0  0  0  0  0  0  0  0  0  0
   57.4140   29.4980   45.5540 C   0  0  0  0  0  0  0  0  0  0  0  0
   56.9630   28.1670   45.4520 C   0  0  0  0  0  0  0  0  0  0  0  0
   57.6100   27.1390   46.1460 C   0  0  0  0  0  0  0  0  0  0  0  0
   57.1140   25.8000   46.0200 N   0  0  0  0  0  0  0  0  0  0  0  0
   55.7480   25.4240   45.8180 C   0  0  0  0  0  0  0  0  0  0  0  0
   54.8500   26.2930   45.9850 O   0  0  0  0  0  0  0  0  0  0  0  0
   55.4190   24.0980   45.3700 N   0  0  0  0  0  0  0  0  0  0  0  0
   56.2040   23.2570   44.7640 C   0  0  0  0  0  0  0  0  0  0  0  0
   57.4340   23.0060   45.2890 N   0  0  0  0  0  0  0  0  0  0  0  0
   58.2880   22.1330   44.6940 C   0  0  0  0  0  0  0  0  0  0  0  0
   57.9080   21.4760   43.5250 C   0  0  0  0  0  0  0  0  0  0  0  0
   56.6460   21.7410   42.9970 C   0  0  0  0  0  0  0  0  0  0  0  0
   55.8210   22.6200   43.6220 N   0  0  0  0  0  0  0  0  0  0  0  0
   58.6820   27.4530   46.9950 C   0  0  0  0  0  0  0  0  0  0  0  0
   59.1320   28.7690   47.1060 C   0  0  0  0  0  0  0  0  0  0  0  0
   58.5150   29.7990   46.3710 C   0  0  0  0  0  0  0  0  0  0  0  0
   58.9470   31.1350   46.4350 O   0  0  0  0  0  0  0  0  0  0  0  0
   58.7880   32.0180   47.5470 C   0  0  0  0  0  0  0  0  0  0  0  0
   58.0650   33.3030   47.1250 C   0  0  0  0  0  0  0  0  0  0  0  0
   58.5360   33.7650   45.8020 N   0  0  0  0  0  0  0  0  0  0  0  0
   59.5040   34.8680   45.9410 C   0  0  0  0  0  0  0  0  0  0  0  0
   57.4040   34.2040   44.9700 C   0  0  0  0  0  0  0  0  0  0  0  0
   57.8620   31.7811   43.5773 H   0  0  0  0  0  0  0  0  0  0  0  0
   57.5986   30.1011   42.9988 H   0  0  0  0  0  0  0  0  0  0  0  0
   56.2386   31.2745   42.9988 H   0  0  0  0  0  0  0  0  0  0  0  0
   56.0933   27.9339   44.8202 H   0  0  0  0  0  0  0  0  0  0  0  0
   59.2783   21.9448   45.1343 H   0  0  0  0  0  0  0  0  0  0  0  0
   58.5876   20.7658   43.0314 H   0  0  0  0  0  0  0  0  0  0  0  0
   56.3184   21.2387   42.0749 H   0  0  0  0  0  0  0  0  0  0  0  0
   59.1704   26.6571   47.5764 H   0  0  0  0  0  0  0  0  0  0  0  0
   59.9750   29.0034   47.7726 H   0  0  0  0  0  0  0  0  0  0  0  0
   58.1993   31.5129   48.3270 H   0  0  0  0  0  0  0  0  0  0  0  0
   59.7841   32.2843   47.9302 H   0  0  0  0  0  0  0  0  0  0  0  0
   56.9838   33.1073   47.0738 H   0  0  0  0  0  0  0  0  0  0  0  0
   58.2799   34.0862   47.8669 H   0  0  0  0  0  0  0  0  0  0  0  0
   59.6803   35.0689   47.0080 H   0  0  0  0  0  0  0  0  0  0  0  0
   60.4521   34.5867   45.4593 H   0  0  0  0  0  0  0  0  0  0  0  0
   59.1020   35.7715   45.4593 H   0  0  0  0  0  0  0  0  0  0  0  0
   56.5754   34.5253   45.6182 H   0  0  0  0  0  0  0  0  0  0  0  0
   57.7200   35.0448   44.3350 H   0  0  0  0  0  0  0  0  0  0  0  0
   57.0705   33.3700   44.3350 H   0  0  0  0  0  0  0  0  0  0  0  0
  1  2  1  0
  2  3  1  0
  3  4  2  0
  4  5  1  0
  5  6  1  0
  6  7  1  0
  7  8  2  0
  7  9  1  0
  9 10  2  3
 10 11  1  0
 11 12  2  0
 12 13  1  0
 13 14  2  0
 14 15  1  0
  5 16  2  0
 16 17  1  0
 17 18  2  0
 18 19  1  0
 19 20  1  0
 20 21  1  0
 21 22  1  0
 22 23  1  0
 22 24  1  0
 18  3  1  0
 15 10  1  0
  1 25  1  0
  1 26  1  0
  1 27  1  0
  4 28  1  0
 12 29  1  0
 13 30  1  0
 14 31  1  0
 16 32  1  0
 17 33  1  0
 20 34  1  0
 20 35  1  0
 21 36  1  0
 21 37  1  0
 23 38  1  0
 23 39  1  0
 23 40  1  0
 24 41  1  0
 24 42  1  0
 24 43  1  0
M  CHG  2   6  -1  15  -1
M  END
>  <UniqueID>  (37) 
35

>  <SMILES>  (37) 
COc1cc([N-]C(=O)N=c2nccc[n-]2)ccc1OCCN(C)C

>  <Energy>  (37) 
49.3032773218022

>  <Genealogy>  (37) 
COc1cc([N-]C(=O)N=c2nccc[n-]2)ccc1OCCN(C)C (protonated)
COc1cc([N-]C(=O)N=c2nccc[n-]2)ccc1OCCN(C)C (3D coordinates assigned)
COc1cc([N-]C(=O)N=c2nccc[n-]2)ccc1OCCN(C)C (optimized conformer: 49.3032773218022 kcal/mol)

>  <smiles>  (37) 
COc1cc(NC(=O)N=c2nccc[nH]2)ccc1OCCN(C)C

>  <score_type>  (37) 
oracle

>  <origin>  (37) 
adg

>  <m_score__min__energy>  (37) 
-8.9700000000000006

>  <m_primary>  (37) 
energy

$$$$
37:0
     RDKit          3D

 42 43  0  0  0  0  0  0  0  0999 V2000
   59.0210   22.1960   44.8040 C   0  0  0  0  0  0  0  0  0  0  0  0
   57.5780   22.4710   44.7200 N   0  0  0  0  0  0  0  0  0  0  0  0
   57.0110   21.9630   43.4620 C   0  0  0  0  0  0  0  0  0  0  0  0
   57.2430   23.8920   44.9690 C   0  0  0  0  0  0  0  0  0  0  0  0
   56.9090   24.2210   46.4390 C   0  0  0  0  0  0  0  0  0  0  0  0
   57.5570   25.4290   46.8410 O   0  0  0  0  0  0  0  0  0  0  0  0
   57.5850   26.6550   46.1500 C   0  0  0  0  0  0  0  0  0  0  0  0
   56.4260   27.3540   45.7300 C   0  0  0  0  0  0  0  0  0  0  0  0
   55.1490   26.8560   45.9480 O   0  0  0  0  0  0  0  0  0  0  0  0
   56.5490   28.5800   45.0660 C   0  0  0  0  0  0  0  0  0  0  0  0
   57.8110   29.1200   44.7890 C   0  0  0  0  0  0  0  0  0  0  0  0
   57.9300   30.4720   44.1280 C   0  0  0  0  0  0  0  0  0  0  0  0
   57.0270   31.4620   44.7400 N   0  0  0  0  0  0  0  0  0  0  0  0
   57.7360   32.3370   45.6490 C   0  0  0  0  0  0  0  0  0  0  0  0
   58.5040   31.7980   46.6960 C   0  0  0  0  0  0  0  0  0  0  0  0
   59.2190   32.6390   47.5480 C   0  0  0  0  0  0  0  0  0  0  0  0
   59.1660   34.0190   47.3480 C   0  0  0  0  0  0  0  0  0  0  0  0
   58.4240   34.5330   46.3310 N   0  0  0  0  0  0  0  0  0  0  0  0
   57.7180   33.7370   45.4840 C   0  0  0  0  0  0  0  0  0  0  0  0
   57.0530   34.2640   44.5540 O   0  0  0  0  0  0  0  0  0  0  0  0
   58.9570   28.4230   45.1900 C   0  0  0  0  0  0  0  0  0  0  0  0
   58.8460   27.2020   45.8590 C   0  0  0  0  0  0  0  0  0  0  0  0
   60.4460   26.3040   46.4070 Br  0  0  0  0  0  0  0  0  0  0  0  0
   59.3224   22.1386   45.8603 H   0  0  0  0  0  0  0  0  0  0  0  0
   59.2415   21.2397   44.3072 H   0  0  0  0  0  0  0  0  0  0  0  0
   59.5778   23.0042   44.3072 H   0  0  0  0  0  0  0  0  0  0  0  0
   56.2088   21.2442   43.6852 H   0  0  0  0  0  0  0  0  0  0  0  0
   56.6007   22.8013   42.8798 H   0  0  0  0  0  0  0  0  0  0  0  0
   57.7994   21.4634   42.8798 H   0  0  0  0  0  0  0  0  0  0  0  0
   58.1037   24.5064   44.6662 H   0  0  0  0  0  0  0  0  0  0  0  0
   56.3356   24.1070   44.3856 H   0  0  0  0  0  0  0  0  0  0  0  0
   55.8207   24.3415   46.5447 H   0  0  0  0  0  0  0  0  0  0  0  0
   57.2632   23.3980   47.0771 H   0  0  0  0  0  0  0  0  0  0  0  0
   55.6445   29.1253   44.7584 H   0  0  0  0  0  0  0  0  0  0  0  0
   58.9666   30.8266   44.2269 H   0  0  0  0  0  0  0  0  0  0  0  0
   57.6491   30.3612   43.0703 H   0  0  0  0  0  0  0  0  0  0  0  0
   56.2490   30.9700   45.2390 H   0  0  0  0  0  0  0  0  0  0  0  0
   56.5870   32.0330   43.9820 H   0  0  0  0  0  0  0  0  0  0  0  0
   58.5410   30.7086   46.8437 H   0  0  0  0  0  0  0  0  0  0  0  0
   59.8185   32.2190   48.3691 H   0  0  0  0  0  0  0  0  0  0  0  0
   59.7254   34.6922   48.0142 H   0  0  0  0  0  0  0  0  0  0  0  0
   59.9522   28.8401   44.9766 H   0  0  0  0  0  0  0  0  0  0  0  0
  1  2  1  0
  2  3  1  0
  2  4  1  0
  4  5  1  0
  5  6  1  0
  6  7  1  0
  7  8  2  0
  8  9  1  0
  8 10  1  0
 10 11  2  0
 11 12  1  0
 12 13  1  0
 13 14  1  0
 14 15  2  0
 15 16  1  0
 16 17  2  0
 17 18  1  0
 18 19  1  0
 19 20  2  0
 11 21  1  0
 21 22  2  0
 22 23  1  0
 22  7  1  0
 19 14  1  0
  1 24  1  0
  1 25  1  0
  1 26  1  0
  3 27  1  0
  3 28  1  0
  3 29  1  0
  4 30  1  0
  4 31  1  0
  5 32  1  0
  5 33  1  0
 10 34  1  0
 12 35  1  0
 12 36  1  0
 13 37  1  0
 13 38  1  0
 15 39  1  0
 16 40  1  0
 17 41  1  0
 21 42  1  0
M  CHG  3   9  -1  13   1  18  -1
M  END
>  <UniqueID>  (38) 
36

>  <SMILES>  (38) 
CN(C)CCOc1c([O-])cc(C[NH2+]c2ccc[n-]c2=O)cc1Br

>  <Energy>  (38) 
49.010692286145535

>  <Genealogy>  (38) 
CN(C)CCOc1c([O-])cc(C[NH2+]c2ccc[n-]c2=O)cc1Br (protonated)
CN(C)CCOc1c([O-])cc(C[NH2+]c2ccc[n-]c2=O)cc1Br (3D coordinates assigned)
CN(C)CCOc1c([O-])cc(C[NH2+]c2ccc[n-]c2=O)cc1Br (optimized conformer: 49.010692286145535 kcal/mol)

>  <smiles>  (38) 
CN(C)CCOc1c(O)cc(CNc2ccc[nH]c2=O)cc1Br

>  <score_type>  (38) 
oracle

>  <origin>  (38) 
adg

>  <m_score__min__energy>  (38) 
-10.140000000000001

>  <m_primary>  (38) 
energy

$$$$
38:0
     RDKit          3D

 47 50  0  0  0  0  0  0  0  0999 V2000
   62.6853   34.7015   46.0105 H   0  0  0  0  0  0  0  0  0  0  0  0
   62.6740   33.8160   46.6630 C   0  0  0  0  0  0  0  0  0  0  0  0
   61.5870   32.9990   46.6810 N   0  0  0  0  0  0  0  0  0  0  0  0
   61.5240   31.8900   47.4670 C   0  0  0  0  0  0  0  0  0  0  0  0
   60.4430   31.1620   47.4240 N   0  0  0  0  0  0  0  0  0  0  0  0
   59.5380   30.8380   48.5300 C   0  0  0  0  0  0  0  0  0  0  0  0
   58.5099   30.7686   48.1450 H   0  0  0  0  0  0  0  0  0  0  0  0
   59.6128   31.6316   49.2881 H   0  0  0  0  0  0  0  0  0  0  0  0
   59.9210   29.5040   49.1800 C   0  0  0  0  0  0  0  0  0  0  0  0
   59.0721   29.1372   49.7757 H   0  0  0  0  0  0  0  0  0  0  0  0
   60.8001   29.6660   49.8211 H   0  0  0  0  0  0  0  0  0  0  0  0
   60.2530   28.5290   48.1900 O   0  0  0  0  0  0  0  0  0  0  0  0
   59.3520   27.9360   47.2900 C   0  0  0  0  0  0  0  0  0  0  0  0
   58.7920   26.6610   47.5000 C   0  0  0  0  0  0  0  0  0  0  0  0
   59.0550   26.0876   48.4011 H   0  0  0  0  0  0  0  0  0  0  0  0
   57.9030   26.1230   46.5660 C   0  0  0  0  0  0  0  0  0  0  0  0
   57.4665   25.1275   46.7349 H   0  0  0  0  0  0  0  0  0  0  0  0
   57.5670   26.8440   45.4200 C   0  0  0  0  0  0  0  0  0  0  0  0
   56.8648   26.4141   44.6906 H   0  0  0  0  0  0  0  0  0  0  0  0
   58.1170   28.1100   45.1920 C   0  0  0  0  0  0  0  0  0  0  0  0
   57.7460   28.8150   44.0000 N   0  0  0  0  0  0  0  0  0  0  0  0
   56.6420   30.1500   43.9310 S   0  0  0  0  0  0  0  0  0  0  0  0
   55.4060   29.8440   44.7280 O   0  0  0  0  0  0  0  0  0  0  0  0
   56.2720   30.4200   42.4990 O   0  0  0  0  0  0  0  0  0  0  0  0
   57.4230   31.5670   44.6040 C   0  0  0  0  0  0  0  0  0  0  0  0
   58.0980   32.5270   43.8590 C   0  0  0  0  0  0  0  0  0  0  0  0
   58.2433   32.5518   42.7689 H   0  0  0  0  0  0  0  0  0  0  0  0
   58.5450   33.4410   44.7890 C   0  0  0  0  0  0  0  0  0  0  0  0
   59.2810   34.6120   44.6270 C   0  0  0  0  0  0  0  0  0  0  0  0
   59.6044   34.9473   43.6305 H   0  0  0  0  0  0  0  0  0  0  0  0
   59.5970   35.3520   45.7820 C   0  0  0  0  0  0  0  0  0  0  0  0
   60.1785   36.2815   45.6927 H   0  0  0  0  0  0  0  0  0  0  0  0
   59.1730   34.9100   47.0550 C   0  0  0  0  0  0  0  0  0  0  0  0
   59.4240   35.4986   47.9498 H   0  0  0  0  0  0  0  0  0  0  0  0
   58.4320   33.7220   47.1850 C   0  0  0  0  0  0  0  0  0  0  0  0
   58.0980   33.3664   48.1709 H   0  0  0  0  0  0  0  0  0  0  0  0
   58.1340   33.0090   46.0240 C   0  0  0  0  0  0  0  0  0  0  0  0
   57.4440   31.8610   45.9250 N   0  0  0  0  0  0  0  0  0  0  0  0
   57.0180   31.3130   46.7030 H   0  0  0  0  0  0  0  0  0  0  0  0
   59.0120   28.6500   46.1340 C   0  0  0  0  0  0  0  0  0  0  0  0
   59.4496   29.6442   45.9605 H   0  0  0  0  0  0  0  0  0  0  0  0
   62.6190   31.5780   48.2990 C   0  0  0  0  0  0  0  0  0  0  0  0
   62.5878   30.6902   48.9477 H   0  0  0  0  0  0  0  0  0  0  0  0
   63.7430   32.4060   48.2920 C   0  0  0  0  0  0  0  0  0  0  0  0
   64.6041   32.1698   48.9344 H   0  0  0  0  0  0  0  0  0  0  0  0
   63.7740   33.5320   47.4710 C   0  0  0  0  0  0  0  0  0  0  0  0
   64.6562   34.1889   47.4608 H   0  0  0  0  0  0  0  0  0  0  0  0
  1  2  1  0
  2  3  1  0
  3  4  1  0
  4  5  2  0
  5  6  1  0
  6  7  1  0
  6  8  1  0
  6  9  1  0
  9 10  1  0
  9 11  1  0
  9 12  1  0
 12 13  1  0
 13 14  2  0
 14 15  1  0
 14 16  1  0
 16 17  1  0
 16 18  2  0
 18 19  1  0
 18 20  1  0
 20 21  1  0
 21 22  1  0
 22 23  2  0
 22 24  2  0
 22 25  1  0
 25 26  2  0
 26 27  1  0
 26 28  1  0
 28 29  2  0
 29 30  1  0
 29 31  1  0
 31 32  1  0
 31 33  2  0
 33 34  1  0
 33 35  1  0
 35 36  1  0
 35 37  2  0
 37 38  1  0
 38 39  1  0
 20 40  2  0
 40 41  1  0
  4 42  1  0
 42 43  1  0
 42 44  2  0
 44 45  1  0
 44 46  1  0
 46 47  1  0
 46  2  2  0
 40 13  1  0
 38 25  1  0
 37 28  1  0
M  CHG  2   3  -1  21  -1
M  END
>  <UniqueID>  (39) 
37

>  <SMILES>  (39) 
O=S(=O)([N-]c1cccc(OCC/N=c2\cccc[n-]2)c1)c1cc2ccccc2[nH]1

>  <Energy>  (39) 
89.93339039525627

>  <Genealogy>  (39) 
O=S(=O)([N-]c1cccc(OCCN=c2cccc[n-]2)c1)c1cc2ccccc2[nH]1 (protonated)
O=S(=O)([N-]c1cccc(OCC/N=c2\cccc[n-]2)c1)c1cc2ccccc2[nH]1 (cis-trans isomerization)
O=S(=O)([N-]c1cccc(OCC/N=c2\cccc[n-]2)c1)c1cc2ccccc2[nH]1 (3D coordinates assigned)
O=S(=O)([N-]c1cccc(OCC/N=c2\cccc[n-]2)c1)c1cc2ccccc2[nH]1 (optimized conformer: 89.93339039525627 kcal/mol)

>  <smiles>  (39) 
O=S(=O)(Nc1cccc(OCCN=c2cccc[nH]2)c1)c1cc2ccccc2[nH]1

>  <score_type>  (39) 
oracle

>  <origin>  (39) 
adg

>  <m_score__min__energy>  (39) 
-11.59

>  <m_primary>  (39) 
energy

$$$$
39:0
     RDKit          3D

 34 36  0  0  0  0  0  0  0  0999 V2000
   54.7560   26.7020   47.1100 H   0  0  0  0  0  0  0  0  0  0  0  0
   54.8760   26.3910   46.1520 O   0  0  0  0  0  0  0  0  0  0  0  0
   55.9520   25.5900   45.7750 C   0  0  0  0  0  0  0  0  0  0  0  0
   55.7570   24.5120   44.8990 C   0  0  0  0  0  0  0  0  0  0  0  0
   54.7512   24.2981   44.5083 H   0  0  0  0  0  0  0  0  0  0  0  0
   56.8360   23.7090   44.5210 C   0  0  0  0  0  0  0  0  0  0  0  0
   56.5660   22.2450   43.3250 Br  0  0  0  0  0  0  0  0  0  0  0  0
   58.1130   23.9730   45.0240 C   0  0  0  0  0  0  0  0  0  0  0  0
   58.9614   23.3371   44.7308 H   0  0  0  0  0  0  0  0  0  0  0  0
   58.3130   25.0440   45.8990 C   0  0  0  0  0  0  0  0  0  0  0  0
   59.3167   25.2397   46.3043 H   0  0  0  0  0  0  0  0  0  0  0  0
   57.2370   25.8730   46.2640 C   0  0  0  0  0  0  0  0  0  0  0  0
   57.4140   26.9820   47.1590 N   0  0  0  0  0  0  0  0  0  0  0  0
   58.6350   27.7050   47.3730 C   0  0  0  0  0  0  0  0  0  0  0  0
   59.5250   27.1980   48.1020 O   0  0  0  0  0  0  0  0  0  0  0  0
   58.8810   28.9760   46.7510 N   0  0  0  0  0  0  0  0  0  0  0  0
   58.0590   29.6760   46.0150 C   0  0  0  0  0  0  0  0  0  0  0  0
   57.0310   29.0680   45.2630 C   0  0  0  0  0  0  0  0  0  0  0  0
   56.9034   27.9757   45.2890 H   0  0  0  0  0  0  0  0  0  0  0  0
   56.1770   29.8510   44.4870 C   0  0  0  0  0  0  0  0  0  0  0  0
   55.3843   29.3726   43.8931 H   0  0  0  0  0  0  0  0  0  0  0  0
   56.3190   31.1990   44.4610 N   0  0  0  0  0  0  0  0  0  0  0  0
   57.2810   31.8320   45.1810 C   0  0  0  0  0  0  0  0  0  0  0  0
   57.3830   33.2260   45.1240 C   0  0  0  0  0  0  0  0  0  0  0  0
   56.6844   33.8011   44.4986 H   0  0  0  0  0  0  0  0  0  0  0  0
   58.3670   33.8900   45.8570 C   0  0  0  0  0  0  0  0  0  0  0  0
   58.4401   34.9864   45.8070 H   0  0  0  0  0  0  0  0  0  0  0  0
   59.2620   33.1680   46.6560 C   0  0  0  0  0  0  0  0  0  0  0  0
   60.2700   33.8540   47.4040 N   0  0  0  0  0  0  0  0  0  0  0  0
   60.9600   33.3240   47.9830 H   0  0  0  0  0  0  0  0  0  0  0  0
   60.3360   34.8960   47.3840 H   0  0  0  0  0  0  0  0  0  0  0  0
   59.1660   31.7700   46.7200 C   0  0  0  0  0  0  0  0  0  0  0  0
   59.8693   31.2032   47.3477 H   0  0  0  0  0  0  0  0  0  0  0  0
   58.1750   31.0850   45.9860 C   0  0  0  0  0  0  0  0  0  0  0  0
  1  2  1  0
  2  3  1  0
  3  4  2  0
  4  5  1  0
  4  6  1  0
  6  7  1  0
  6  8  2  0
  8  9  1  0
  8 10  1  0
 10 11  1  0
 10 12  2  0
 12 13  1  0
 13 14  1  0
 14 15  2  0
 14 16  1  0
 16 17  2  0
 17 18  1  0
 18 19  1  0
 18 20  2  0
 20 21  1  0
 20 22  1  0
 22 23  1  0
 23 24  2  0
 24 25  1  0
 24 26  1  0
 26 27  1  0
 26 28  2  0
 28 29  1  0
 29 30  1  0
 29 31  1  0
 28 32  1  0
 32 33  1  0
 32 34  2  0
 12  3  1  0
 34 17  1  0
 34 23  1  0
M  CHG  2  13  -1  22  -1
M  END
>  <UniqueID>  (40) 
38

>  <SMILES>  (40) 
Nc1ccc2[n-]cc/c(=N\C(=O)[N-]c3ccc(Br)cc3O)c2c1

>  <Energy>  (40) 
51.63517829574396

>  <Genealogy>  (40) 
Nc1ccc2[n-]ccc(=NC(=O)[N-]c3ccc(Br)cc3O)c2c1 (protonated)
Nc1ccc2[n-]cc/c(=N\C(=O)[N-]c3ccc(Br)cc3O)c2c1 (cis-trans isomerization)
Nc1ccc2[n-]cc/c(=N\C(=O)[N-]c3ccc(Br)cc3O)c2c1 (3D coordinates assigned)
Nc1ccc2[n-]cc/c(=N\C(=O)[N-]c3ccc(Br)cc3O)c2c1 (optimized conformer: 51.63517829574396 kcal/mol)

>  <smiles>  (40) 
Nc1ccc2[nH]ccc(=NC(=O)Nc3ccc(Br)cc3O)c2c1

>  <score_type>  (40) 
oracle

>  <origin>  (40) 
adg

>  <m_score__min__energy>  (40) 
-11.02

>  <m_primary>  (40) 
energy

$$$$
40:0
     RDKit          3D

 56 59  0  0  0  0  0  0  0  0999 V2000
   63.2220   31.7330   47.4910 C   0  0  0  0  0  0  0  0  0  0  0  0
   61.8080   31.5700   47.4660 O   0  0  0  0  0  0  0  0  0  0  0  0
   61.1480   30.3420   47.2940 C   0  0  0  0  0  0  0  0  0  0  0  0
   60.8720   29.8240   46.0150 C   0  0  0  0  0  0  0  0  0  0  0  0
   60.2010   28.6080   45.8710 C   0  0  0  0  0  0  0  0  0  0  0  0
   59.7760   27.8960   47.0010 C   0  0  0  0  0  0  0  0  0  0  0  0
   59.1050   26.5890   46.8670 C   0  0  0  0  0  0  0  0  0  0  0  0
   57.8090   26.4220   46.5640 C   0  0  0  0  0  0  0  0  0  0  0  0
   57.0500   24.7940   46.6130 S   0  0  0  0  0  0  0  0  0  0  0  0
   55.5430   25.5570   46.0050 C   0  0  0  0  0  0  0  0  0  0  0  0
   54.5250   24.8800   45.7120 O   0  0  0  0  0  0  0  0  0  0  0  0
   55.5580   26.9700   45.8640 N   0  0  0  0  0  0  0  0  0  0  0  0
   56.8400   27.4660   46.2030 C   0  0  0  0  0  0  0  0  0  0  0  0
   57.0780   28.7010   46.2370 O   0  0  0  0  0  0  0  0  0  0  0  0
   60.0770   28.3880   48.2770 C   0  0  0  0  0  0  0  0  0  0  0  0
   60.7520   29.6090   48.4350 C   0  0  0  0  0  0  0  0  0  0  0  0
   61.0080   30.1270   49.8280 C   0  0  0  0  0  0  0  0  0  0  0  0
   60.0130   29.2090   51.0560 S   0  0  0  0  0  0  0  0  0  0  0  0
   58.6050   30.3690   51.0720 C   0  0  0  0  0  0  0  0  0  0  0  0
   58.9500   31.5810   50.2550 C   0  0  0  0  0  0  0  0  0  0  0  0
   59.7520   32.5940   50.8000 C   0  0  0  0  0  0  0  0  0  0  0  0
   60.0980   33.7070   50.0300 C   0  0  0  0  0  0  0  0  0  0  0  0
   59.6560   33.8130   48.7090 C   0  0  0  0  0  0  0  0  0  0  0  0
   58.8630   32.7990   48.1390 C   0  0  0  0  0  0  0  0  0  0  0  0
   58.4030   32.9050   46.7320 C   0  0  0  0  0  0  0  0  0  0  0  0
   58.4150   34.1450   46.0680 C   0  0  0  0  0  0  0  0  0  0  0  0
   57.9850   34.2420   44.7420 C   0  0  0  0  0  0  0  0  0  0  0  0
   57.5370   33.1070   44.0640 C   0  0  0  0  0  0  0  0  0  0  0  0
   57.5110   31.8650   44.7120 C   0  0  0  0  0  0  0  0  0  0  0  0
   56.9670   30.4280   43.8530 S   0  0  0  0  0  0  0  0  0  0  0  0
   55.5560   29.7910   44.6210 N   0  0  0  0  0  0  0  0  0  0  0  0
   56.6460   30.7800   42.4280 O   0  0  0  0  0  0  0  0  0  0  0  0
   58.0530   29.3880   43.8580 O   0  0  0  0  0  0  0  0  0  0  0  0
   57.9480   31.7660   46.0400 C   0  0  0  0  0  0  0  0  0  0  0  0
   58.5190   31.6820   48.9220 C   0  0  0  0  0  0  0  0  0  0  0  0
   63.5681   31.7729   48.5344 H   0  0  0  0  0  0  0  0  0  0  0  0
   63.6981   30.8838   46.9790 H   0  0  0  0  0  0  0  0  0  0  0  0
   63.4924   32.6683   46.9790 H   0  0  0  0  0  0  0  0  0  0  0  0
   61.1876   30.3818   45.1210 H   0  0  0  0  0  0  0  0  0  0  0  0
   60.0050   28.2068   44.8657 H   0  0  0  0  0  0  0  0  0  0  0  0
   59.7117   25.6855   47.0272 H   0  0  0  0  0  0  0  0  0  0  0  0
   59.7812   27.8113   49.1658 H   0  0  0  0  0  0  0  0  0  0  0  0
   62.0751   30.0073   50.0666 H   0  0  0  0  0  0  0  0  0  0  0  0
   60.7233   31.1888   49.8668 H   0  0  0  0  0  0  0  0  0  0  0  0
   57.7191   29.8773   50.6437 H   0  0  0  0  0  0  0  0  0  0  0  0
   58.3895   30.6720   52.1072 H   0  0  0  0  0  0  0  0  0  0  0  0
   60.1097   32.5120   51.8370 H   0  0  0  0  0  0  0  0  0  0  0  0
   60.7206   34.5026   50.4653 H   0  0  0  0  0  0  0  0  0  0  0  0
   59.9293   34.6944   48.1104 H   0  0  0  0  0  0  0  0  0  0  0  0
   58.7652   35.0442   46.5960 H   0  0  0  0  0  0  0  0  0  0  0  0
   57.9996   35.2159   44.2308 H   0  0  0  0  0  0  0  0  0  0  0  0
   57.2037   33.1879   43.0188 H   0  0  0  0  0  0  0  0  0  0  0  0
   55.5960   30.0840   45.6230 H   0  0  0  0  0  0  0  0  0  0  0  0
   55.6470   28.7500   44.6090 H   0  0  0  0  0  0  0  0  0  0  0  0
   57.9355   30.7896   46.5464 H   0  0  0  0  0  0  0  0  0  0  0  0
   57.9062   30.8794   48.4858 H   0  0  0  0  0  0  0  0  0  0  0  0
  1  2  1  0
  2  3  1  0
  3  4  2  0
  4  5  1  0
  5  6  2  0
  6  7  1  0
  7  8  2  3
  8  9  1  0
  9 10  1  0
 10 11  2  0
 10 12  1  0
 12 13  1  0
 13 14  2  0
  6 15  1  0
 15 16  2  0
 16 17  1  0
 17 18  1  0
 18 19  1  0
 19 20  1  0
 20 21  2  0
 21 22  1  0
 22 23  2  0
 23 24  1  0
 24 25  1  0
 25 26  2  0
 26 27  1  0
 27 28  2  0
 28 29  1  0
 29 30  1  0
 30 31  1  0
 30 32  2  0
 30 33  2  0
 29 34  2  0
 24 35  2  0
 16  3  1  0
 35 20  1  0
 13  8  1  0
 34 25  1  0
  1 36  1  0
  1 37  1  0
  1 38  1  0
  4 39  1  0
  5 40  1  0
  7 41  1  0
 15 42  1  0
 17 43  1  0
 17 44  1  0
 19 45  1  0
 19 46  1  0
 21 47  1  0
 22 48  1  0
 23 49  1  0
 26 50  1  0
 27 51  1  0
 28 52  1  0
 31 53  1  0
 31 54  1  0
 34 55  1  0
 35 56  1  0
M  CHG  1  12  -1
M  END
>  <UniqueID>  (41) 
39

>  <SMILES>  (41) 
COc1ccc(C=C2SC(=O)[N-]C2=O)cc1CSCc1cccc(-c2cccc(S(N)(=O)=O)c2)c1

>  <Energy>  (41) 
85.44334196947379

>  <Genealogy>  (41) 
COc1ccc(C=C2SC(=O)[N-]C2=O)cc1CSCc1cccc(-c2cccc(S(N)(=O)=O)c2)c1 (protonated)
COc1ccc(C=C2SC(=O)[N-]C2=O)cc1CSCc1cccc(-c2cccc(S(N)(=O)=O)c2)c1 (3D coordinates assigned)
COc1ccc(C=C2SC(=O)[N-]C2=O)cc1CSCc1cccc(-c2cccc(S(N)(=O)=O)c2)c1 (nonaromatic ring conformer: 85.44334196947379 kcal/mol)

>  <smiles>  (41) 
COc1ccc(C=C2SC(=O)NC2=O)cc1CSCc1cccc(-c2cccc(S(N)(=O)=O)c2)c1

>  <score_type>  (41) 
oracle

>  <origin>  (41) 
adg

>  <m_score__min__energy>  (41) 
-14.44

>  <m_primary>  (41) 
energy

$$$$
41:0
     RDKit          3D

 48 50  0  0  0  0  0  0  0  0999 V2000
   57.3980   23.1150   47.4270 N   0  0  0  0  0  0  0  0  0  0  0  0
   57.1430   24.4560   46.3660 S   0  0  0  0  0  0  0  0  0  0  0  0
   57.4620   24.0320   44.9600 O   0  0  0  0  0  0  0  0  0  0  0  0
   55.7060   24.8890   46.4390 O   0  0  0  0  0  0  0  0  0  0  0  0
   58.1820   25.7950   46.8430 C   0  0  0  0  0  0  0  0  0  0  0  0
   59.5620   25.7240   46.6090 C   0  0  0  0  0  0  0  0  0  0  0  0
   60.3940   26.7840   46.9790 C   0  0  0  0  0  0  0  0  0  0  0  0
   59.8530   27.9320   47.5780 C   0  0  0  0  0  0  0  0  0  0  0  0
   60.7450   29.0810   47.9730 C   0  0  0  0  0  0  0  0  0  0  0  0
   60.7020   29.3680   49.4800 C   0  0  0  0  0  0  0  0  0  0  0  0
   61.0520   30.7610   49.7770 N   0  0  0  0  0  0  0  0  0  0  0  0
   59.6750   31.8290   49.8780 S   0  0  0  0  0  0  0  0  0  0  0  0
   58.4380   30.9930   50.0550 O   0  0  0  0  0  0  0  0  0  0  0  0
   59.8200   32.7040   51.0900 O   0  0  0  0  0  0  0  0  0  0  0  0
   59.4530   32.8260   48.4390 C   0  0  0  0  0  0  0  0  0  0  0  0
   60.2130   33.9910   48.2780 C   0  0  0  0  0  0  0  0  0  0  0  0
   60.0230   34.8040   47.1590 C   0  0  0  0  0  0  0  0  0  0  0  0
   59.0810   34.4540   46.1880 C   0  0  0  0  0  0  0  0  0  0  0  0
   58.3320   33.2720   46.3200 C   0  0  0  0  0  0  0  0  0  0  0  0
   57.3380   32.9060   45.2850 C   0  0  0  0  0  0  0  0  0  0  0  0
   56.9780   33.7790   44.4510 O   0  0  0  0  0  0  0  0  0  0  0  0
   56.7270   31.6060   45.2210 N   0  0  0  0  0  0  0  0  0  0  0  0
   57.3180   30.4740   44.9630 C   0  0  0  0  0  0  0  0  0  0  0  0
   58.6660   30.4120   44.7640 N   0  0  0  0  0  0  0  0  0  0  0  0
   59.3020   29.2420   44.4870 C   0  0  0  0  0  0  0  0  0  0  0  0
   58.5720   28.0570   44.3890 C   0  0  0  0  0  0  0  0  0  0  0  0
   57.1880   28.0910   44.5690 C   0  0  0  0  0  0  0  0  0  0  0  0
   56.5520   29.3040   44.8490 C   0  0  0  0  0  0  0  0  0  0  0  0
   55.1710   29.3380   45.0090 O   0  0  0  0  0  0  0  0  0  0  0  0
   58.5140   32.4680   47.4590 C   0  0  0  0  0  0  0  0  0  0  0  0
   58.4730   27.9890   47.8330 C   0  0  0  0  0  0  0  0  0  0  0  0
   57.6430   26.9280   47.4660 C   0  0  0  0  0  0  0  0  0  0  0  0
   57.9890   23.4580   48.2170 H   0  0  0  0  0  0  0  0  0  0  0  0
   59.9918   24.8306   46.1324 H   0  0  0  0  0  0  0  0  0  0  0  0
   61.4774   26.7183   46.8000 H   0  0  0  0  0  0  0  0  0  0  0  0
   61.7797   28.8378   47.6897 H   0  0  0  0  0  0  0  0  0  0  0  0
   60.3831   29.9794   47.4515 H   0  0  0  0  0  0  0  0  0  0  0  0
   59.6862   29.1685   49.8521 H   0  0  0  0  0  0  0  0  0  0  0  0
   61.4378   28.7166   49.9743 H   0  0  0  0  0  0  0  0  0  0  0  0
   60.9618   34.2664   49.0353 H   0  0  0  0  0  0  0  0  0  0  0  0
   60.6165   35.7227   47.0414 H   0  0  0  0  0  0  0  0  0  0  0  0
   58.9249   35.1065   45.3163 H   0  0  0  0  0  0  0  0  0  0  0  0
   60.3921   29.2300   44.3402 H   0  0  0  0  0  0  0  0  0  0  0  0
   59.0814   27.1064   44.1723 H   0  0  0  0  0  0  0  0  0  0  0  0
   56.5991   27.1652   44.4907 H   0  0  0  0  0  0  0  0  0  0  0  0
   57.9167   31.5526   47.5829 H   0  0  0  0  0  0  0  0  0  0  0  0
   58.0437   28.8745   48.3246 H   0  0  0  0  0  0  0  0  0  0  0  0
   56.5628   26.9819   47.6666 H   0  0  0  0  0  0  0  0  0  0  0  0
  1  2  1  0
  2  3  2  0
  2  4  2  0
  2  5  1  0
  5  6  2  0
  6  7  1  0
  7  8  2  0
  8  9  1  0
  9 10  1  0
 10 11  1  0
 11 12  1  0
 12 13  2  0
 12 14  2  0
 12 15  1  0
 15 16  2  0
 16 17  1  0
 17 18  2  0
 18 19  1  0
 19 20  1  0
 20 21  2  0
 20 22  1  0
 22 23  2  3
 23 24  1  0
 24 25  1  0
 25 26  2  0
 26 27  1  0
 27 28  2  0
 28 29  1  0
 19 30  2  0
  8 31  1  0
 31 32  2  0
 32  5  1  0
 30 15  1  0
 28 23  1  0
  1 33  1  0
  6 34  1  0
  7 35  1  0
  9 36  1  0
  9 37  1  0
 10 38  1  0
 10 39  1  0
 16 40  1  0
 17 41  1  0
 18 42  1  0
 25 43  1  0
 26 44  1  0
 27 45  1  0
 30 46  1  0
 31 47  1  0
 32 48  1  0
M  CHG  4   1  -1  11  -1  24  -1  29  -1
M  END
>  <UniqueID>  (42) 
40

>  <SMILES>  (42) 
[NH-]S(=O)(=O)c1ccc(CC[N-]S(=O)(=O)c2cccc(C(=O)N=c3[n-]cccc3[O-])c2)cc1

>  <Energy>  (42) 
54.493672838922805

>  <Genealogy>  (42) 
[NH-]S(=O)(=O)c1ccc(CC[N-]S(=O)(=O)c2cccc(C(=O)N=c3[n-]cccc3[O-])c2)cc1 (protonated)
[NH-]S(=O)(=O)c1ccc(CC[N-]S(=O)(=O)c2cccc(C(=O)N=c3[n-]cccc3[O-])c2)cc1 (3D coordinates assigned)
[NH-]S(=O)(=O)c1ccc(CC[N-]S(=O)(=O)c2cccc(C(=O)N=c3[n-]cccc3[O-])c2)cc1 (optimized conformer: 54.493672838922805 kcal/mol)

>  <smiles>  (42) 
NS(=O)(=O)c1ccc(CCNS(=O)(=O)c2cccc(C(=O)N=c3[nH]cccc3O)c2)cc1

>  <score_type>  (42) 
oracle

>  <origin>  (42) 
adg

>  <m_score__min__energy>  (42) 
-16.949999999999999

>  <m_primary>  (42) 
energy

$$$$
42:0
     RDKit          3D

 35 36  0  0  0  0  0  0  0  0999 V2000
   59.9990   36.0610   45.9860 C   0  0  0  0  0  0  0  0  0  0  0  0
   59.6570   34.6970   45.5910 N   0  0  0  0  0  0  0  0  0  0  0  0
   59.5670   33.5950   46.5230 C   0  0  0  0  0  0  0  0  0  0  0  0
   60.4560   33.5140   47.6160 C   0  0  0  0  0  0  0  0  0  0  0  0
   60.3800   32.4570   48.5240 C   0  0  0  0  0  0  0  0  0  0  0  0
   59.4190   31.4640   48.3610 C   0  0  0  0  0  0  0  0  0  0  0  0
   58.5290   31.5210   47.2880 C   0  0  0  0  0  0  0  0  0  0  0  0
   58.5890   32.5760   46.3610 C   0  0  0  0  0  0  0  0  0  0  0  0
   57.4330   32.5880   45.0190 S   0  0  0  0  0  0  0  0  0  0  0  0
   56.3810   33.6290   45.2840 O   0  0  0  0  0  0  0  0  0  0  0  0
   58.1640   32.8950   43.7420 O   0  0  0  0  0  0  0  0  0  0  0  0
   56.6670   31.0370   44.8700 N   0  0  0  0  0  0  0  0  0  0  0  0
   57.3410   29.7740   44.9100 C   0  0  0  0  0  0  0  0  0  0  0  0
   58.6860   29.7200   44.5220 C   0  0  0  0  0  0  0  0  0  0  0  0
   59.3810   28.5090   44.5410 C   0  0  0  0  0  0  0  0  0  0  0  0
   58.7380   27.3380   44.9510 C   0  0  0  0  0  0  0  0  0  0  0  0
   57.3950   27.3760   45.3490 C   0  0  0  0  0  0  0  0  0  0  0  0
   56.5780   25.9010   45.8530 S   0  0  0  0  0  0  0  0  0  0  0  0
   54.8810   26.1990   45.9720 N   0  0  0  0  0  0  0  0  0  0  0  0
   56.8280   24.8090   44.8510 O   0  0  0  0  0  0  0  0  0  0  0  0
   57.1070   25.4590   47.1900 O   0  0  0  0  0  0  0  0  0  0  0  0
   56.6970   28.5920   45.3220 C   0  0  0  0  0  0  0  0  0  0  0  0
   60.0166   36.1314   47.0836 H   0  0  0  0  0  0  0  0  0  0  0  0
   60.9901   36.3210   45.5859 H   0  0  0  0  0  0  0  0  0  0  0  0
   59.2478   36.7579   45.5859 H   0  0  0  0  0  0  0  0  0  0  0  0
   59.4760   34.5500   44.5760 H   0  0  0  0  0  0  0  0  0  0  0  0
   61.2189   34.2943   47.7541 H   0  0  0  0  0  0  0  0  0  0  0  0
   61.0812   32.4088   49.3702 H   0  0  0  0  0  0  0  0  0  0  0  0
   59.3609   30.6328   49.0792 H   0  0  0  0  0  0  0  0  0  0  0  0
   57.7723   30.7320   47.1662 H   0  0  0  0  0  0  0  0  0  0  0  0
   59.1985   30.6385   44.1999 H   0  0  0  0  0  0  0  0  0  0  0  0
   60.4364   28.4768   44.2327 H   0  0  0  0  0  0  0  0  0  0  0  0
   59.2870   26.3849   44.9613 H   0  0  0  0  0  0  0  0  0  0  0  0
   54.7640   27.0920   46.5020 H   0  0  0  0  0  0  0  0  0  0  0  0
   55.6399   28.6224   45.6246 H   0  0  0  0  0  0  0  0  0  0  0  0
  1  2  1  0
  2  3  1  0
  3  4  2  0
  4  5  1  0
  5  6  2  0
  6  7  1  0
  7  8  2  0
  8  9  1  0
  9 10  2  0
  9 11  2  0
  9 12  1  0
 12 13  1  0
 13 14  2  0
 14 15  1  0
 15 16  2  0
 16 17  1  0
 17 18  1  0
 18 19  1  0
 18 20  2  0
 18 21  2  0
 17 22  2  0
  8  3  1  0
 22 13  1  0
  1 23  1  0
  1 24  1  0
  1 25  1  0
  2 26  1  0
  4 27  1  0
  5 28  1  0
  6 29  1  0
  7 30  1  0
 14 31  1  0
 15 32  1  0
 16 33  1  0
 19 34  1  0
 22 35  1  0
M  CHG  2  12  -1  19  -1
M  END
>  <UniqueID>  (43) 
41

>  <SMILES>  (43) 
CNc1ccccc1S(=O)(=O)[N-]c1cccc(S([NH-])(=O)=O)c1

>  <Energy>  (43) 
40.93179584723577

>  <Genealogy>  (43) 
CNc1ccccc1S(=O)(=O)[N-]c1cccc(S([NH-])(=O)=O)c1 (protonated)
CNc1ccccc1S(=O)(=O)[N-]c1cccc(S([NH-])(=O)=O)c1 (3D coordinates assigned)
CNc1ccccc1S(=O)(=O)[N-]c1cccc(S([NH-])(=O)=O)c1 (optimized conformer: 40.93179584723577 kcal/mol)

>  <smiles>  (43) 
CNc1ccccc1S(=O)(=O)Nc1cccc(S(N)(=O)=O)c1

>  <score_type>  (43) 
oracle

>  <origin>  (43) 
adg

>  <m_score__min__energy>  (43) 
-12.23

>  <m_primary>  (43) 
energy

$$$$
43:0
     RDKit          3D

 33 34  0  0  0  0  0  0  0  0999 V2000
   61.4225   30.3259   45.4547 H   0  0  0  0  0  0  0  0  0  0  0  0
   60.7430   29.5960   45.9190 C   0  0  0  0  0  0  0  0  0  0  0  0
   60.0600   28.7740   45.1110 C   0  0  0  0  0  0  0  0  0  0  0  0
   60.5346   28.4858   44.1614 H   0  0  0  0  0  0  0  0  0  0  0  0
   58.7190   28.2250   45.3970 C   0  0  0  0  0  0  0  0  0  0  0  0
   58.6110   26.9470   45.9650 C   0  0  0  0  0  0  0  0  0  0  0  0
   59.5203   26.3888   46.2324 H   0  0  0  0  0  0  0  0  0  0  0  0
   57.3550   26.3790   46.1930 C   0  0  0  0  0  0  0  0  0  0  0  0
   57.2782   25.3867   46.6615 H   0  0  0  0  0  0  0  0  0  0  0  0
   56.1960   27.0690   45.8270 C   0  0  0  0  0  0  0  0  0  0  0  0
   54.9500   26.4960   46.0500 O   0  0  0  0  0  0  0  0  0  0  0  0
   56.2950   28.3330   45.2310 C   0  0  0  0  0  0  0  0  0  0  0  0
   55.1450   29.0070   44.8380 O   0  0  0  0  0  0  0  0  0  0  0  0
   57.5500   28.9100   45.0160 C   0  0  0  0  0  0  0  0  0  0  0  0
   57.6241   29.9025   44.5476 H   0  0  0  0  0  0  0  0  0  0  0  0
   60.6430   29.5860   47.3920 C   0  0  0  0  0  0  0  0  0  0  0  0
   60.7754   28.6423   47.9414 H   0  0  0  0  0  0  0  0  0  0  0  0
   60.3930   30.7140   48.0630 C   0  0  0  0  0  0  0  0  0  0  0  0
   61.2174   31.4250   48.2209 H   0  0  0  0  0  0  0  0  0  0  0  0
   59.0600   31.0490   48.6020 C   0  0  0  0  0  0  0  0  0  0  0  0
   58.7060   30.5340   49.6950 O   0  0  0  0  0  0  0  0  0  0  0  0
   58.1410   31.9070   47.9140 N   0  0  0  0  0  0  0  0  0  0  0  0
   58.4770   32.9470   46.9820 C   0  0  0  0  0  0  0  0  0  0  0  0
   59.4670   33.8710   47.3430 C   0  0  0  0  0  0  0  0  0  0  0  0
   59.9496   33.7975   48.3287 H   0  0  0  0  0  0  0  0  0  0  0  0
   59.8450   34.8850   46.4590 C   0  0  0  0  0  0  0  0  0  0  0  0
   60.6180   35.6102   46.7532 H   0  0  0  0  0  0  0  0  0  0  0  0
   59.2430   34.9790   45.2030 C   0  0  0  0  0  0  0  0  0  0  0  0
   59.5343   35.7839   44.5121 H   0  0  0  0  0  0  0  0  0  0  0  0
   58.2710   34.0510   44.8240 C   0  0  0  0  0  0  0  0  0  0  0  0
   57.7980   34.1270   43.8338 H   0  0  0  0  0  0  0  0  0  0  0  0
   57.8960   33.0250   45.6980 C   0  0  0  0  0  0  0  0  0  0  0  0
   56.9740   32.0780   45.2680 O   0  0  0  0  0  0  0  0  0  0  0  0
  1  2  1  0
  2  3  2  0
  3  4  1  0
  3  5  1  0
  5  6  2  0
  6  7  1  0
  6  8  1  0
  8  9  1  0
  8 10  2  0
 10 11  1  0
 10 12  1  0
 12 13  1  0
 12 14  2  0
 14 15  1  0
  2 16  1  0
 16 17  1  0
 16 18  2  0
 18 19  1  0
 18 20  1  0
 20 21  2  0
 20 22  1  0
 22 23  1  0
 23 24  2  0
 24 25  1  0
 24 26  1  0
 26 27  1  0
 26 28  2  0
 28 29  1  0
 28 30  1  0
 30 31  1  0
 30 32  2  0
 32 33  1  0
 14  5  1  0
 32 23  1  0
M  CHG  4  11  -1  13  -1  22  -1  33  -1
M  END
>  <UniqueID>  (44) 
42

>  <SMILES>  (44) 
O=C(/C=C/C=Cc1ccc([O-])c([O-])c1)[N-]c1ccccc1[O-]

>  <Energy>  (44) 
43.948682988335314

>  <Genealogy>  (44) 
O=C(C=CC=Cc1ccc([O-])c([O-])c1)[N-]c1ccccc1[O-] (protonated)
O=C(/C=C/C=Cc1ccc([O-])c([O-])c1)[N-]c1ccccc1[O-] (cis-trans isomerization)
O=C(/C=C/C=Cc1ccc([O-])c([O-])c1)[N-]c1ccccc1[O-] (3D coordinates assigned)
O=C(/C=C/C=Cc1ccc([O-])c([O-])c1)[N-]c1ccccc1[O-] (optimized conformer: 43.948682988335314 kcal/mol)

>  <smiles>  (44) 
O=C(C=CC=Cc1ccc(O)c(O)c1)Nc1ccccc1O

>  <score_type>  (44) 
oracle

>  <origin>  (44) 
adg

>  <m_score__min__energy>  (44) 
-17.030000000000001

>  <m_primary>  (44) 
energy

$$$$
44:0
     RDKit          3D

 26 27  0  0  0  0  0  0  0  0999 V2000
   58.8730   34.6600   47.3590 N   0  0  0  0  0  0  0  0  0  0  0  0
   59.2360   34.0320   45.7900 S   0  0  0  0  0  0  0  0  0  0  0  0
   60.7270   33.9430   45.6170 O   0  0  0  0  0  0  0  0  0  0  0  0
   58.6820   34.9560   44.7430 O   0  0  0  0  0  0  0  0  0  0  0  0
   58.5190   32.4330   45.6170 C   0  0  0  0  0  0  0  0  0  0  0  0
   57.5310   32.2070   44.6490 C   0  0  0  0  0  0  0  0  0  0  0  0
   56.9680   30.9350   44.5040 C   0  0  0  0  0  0  0  0  0  0  0  0
   57.3980   29.8690   45.3090 C   0  0  0  0  0  0  0  0  0  0  0  0
   56.7850   28.5780   45.1540 N   0  0  0  0  0  0  0  0  0  0  0  0
   56.9390   27.4970   46.0890 C   0  0  0  0  0  0  0  0  0  0  0  0
   57.8320   27.5470   46.9790 O   0  0  0  0  0  0  0  0  0  0  0  0
   56.0840   26.3050   45.9910 C   0  0  0  0  0  0  0  0  0  0  0  0
   56.4690   25.0050   46.2410 C   0  0  0  0  0  0  0  0  0  0  0  0
   55.4160   24.1900   46.0530 N   0  0  0  0  0  0  0  0  0  0  0  0
   54.4270   25.0330   45.6940 C   0  0  0  0  0  0  0  0  0  0  0  0
   53.2610   24.6390   45.4280 O   0  0  0  0  0  0  0  0  0  0  0  0
   54.7840   26.3320   45.6420 N   0  0  0  0  0  0  0  0  0  0  0  0
   58.3790   30.1040   46.2880 C   0  0  0  0  0  0  0  0  0  0  0  0
   58.9410   31.3760   46.4340 C   0  0  0  0  0  0  0  0  0  0  0  0
   59.1110   35.6770   47.3420 H   0  0  0  0  0  0  0  0  0  0  0  0
   57.1977   33.0318   44.0020 H   0  0  0  0  0  0  0  0  0  0  0  0
   56.1818   30.7688   43.7529 H   0  0  0  0  0  0  0  0  0  0  0  0
   56.2700   28.3870   44.2650 H   0  0  0  0  0  0  0  0  0  0  0  0
   57.4765   24.6855   46.5456 H   0  0  0  0  0  0  0  0  0  0  0  0
   58.7063   29.2829   46.9427 H   0  0  0  0  0  0  0  0  0  0  0  0
   59.7179   31.5475   47.1937 H   0  0  0  0  0  0  0  0  0  0  0  0
  1  2  1  0
  2  3  2  0
  2  4  2  0
  2  5  1  0
  5  6  2  0
  6  7  1  0
  7  8  2  0
  8  9  1  0
  9 10  1  0
 10 11  2  0
 10 12  1  0
 12 13  2  0
 13 14  1  0
 14 15  1  0
 15 16  2  0
 15 17  1  0
  8 18  1  0
 18 19  2  0
 19  5  1  0
 17 12  1  0
  1 20  1  0
  6 21  1  0
  7 22  1  0
  9 23  1  0
 13 24  1  0
 18 25  1  0
 19 26  1  0
M  CHG  3   1  -1  14  -1  17  -1
M  END
>  <UniqueID>  (45) 
43

>  <SMILES>  (45) 
[NH-]S(=O)(=O)c1ccc(NC(=O)c2c[n-]c(=O)[n-]2)cc1

>  <Energy>  (45) 
57.21547384648566

>  <Genealogy>  (45) 
[NH-]S(=O)(=O)c1ccc(NC(=O)c2c[n-]c(=O)[n-]2)cc1 (protonated)
[NH-]S(=O)(=O)c1ccc(NC(=O)c2c[n-]c(=O)[n-]2)cc1 (3D coordinates assigned)
[NH-]S(=O)(=O)c1ccc(NC(=O)c2c[n-]c(=O)[n-]2)cc1 (optimized conformer: 57.21547384648566 kcal/mol)

>  <smiles>  (45) 
NS(=O)(=O)c1ccc(NC(=O)c2c[nH]c(=O)[nH]2)cc1

>  <score_type>  (45) 
oracle

>  <origin>  (45) 
adg

>  <m_score__min__energy>  (45) 
-10.9

>  <m_primary>  (45) 
energy

$$$$
45:0
     RDKit          3D

 44 46  0  0  0  0  0  0  0  0999 V2000
   64.0450   32.2200   49.1350 C   0  0  0  0  0  0  0  0  0  0  0  0
   62.9260   32.9280   48.4290 C   0  0  0  0  0  0  0  0  0  0  0  0
   62.9670   33.1270   47.0420 C   0  0  0  0  0  0  0  0  0  0  0  0
   61.9320   33.8090   46.3940 C   0  0  0  0  0  0  0  0  0  0  0  0
   60.8420   34.3140   47.1260 C   0  0  0  0  0  0  0  0  0  0  0  0
   59.7420   35.0340   46.4420 C   0  0  0  0  0  0  0  0  0  0  0  0
   59.9670   36.1530   45.9040 O   0  0  0  0  0  0  0  0  0  0  0  0
   58.4270   34.4550   46.3950 N   0  0  0  0  0  0  0  0  0  0  0  0
   58.0370   33.4950   45.6110 C   0  0  0  0  0  0  0  0  0  0  0  0
   57.7830   33.6390   44.2910 N   0  0  0  0  0  0  0  0  0  0  0  0
   57.3900   32.5070   43.7110 N   0  0  0  0  0  0  0  0  0  0  0  0
   57.3320   31.4660   44.5710 C   0  0  0  0  0  0  0  0  0  0  0  0
   56.8340   29.8510   44.1080 S   0  0  0  0  0  0  0  0  0  0  0  0
   56.6870   29.8120   42.6130 O   0  0  0  0  0  0  0  0  0  0  0  0
   55.5140   29.5230   44.7470 O   0  0  0  0  0  0  0  0  0  0  0  0
   58.0250   28.6910   44.6270 N   0  0  0  0  0  0  0  0  0  0  0  0
   58.2480   27.4870   43.8260 C   0  0  0  0  0  0  0  0  0  0  0  0
   58.8120   28.9310   45.8080 C   0  0  0  0  0  0  0  0  0  0  0  0
   60.0110   29.6610   45.7310 C   0  0  0  0  0  0  0  0  0  0  0  0
   60.7720   29.8950   46.8790 C   0  0  0  0  0  0  0  0  0  0  0  0
   60.3360   29.4250   48.1270 C   0  0  0  0  0  0  0  0  0  0  0  0
   61.1710   29.6450   49.3530 C   0  0  0  0  0  0  0  0  0  0  0  0
   59.1470   28.6860   48.2050 C   0  0  0  0  0  0  0  0  0  0  0  0
   58.3870   28.4470   47.0570 C   0  0  0  0  0  0  0  0  0  0  0  0
   57.7780   31.9160   46.1320 S   0  0  0  0  0  0  0  0  0  0  0  0
   60.8140   34.1240   48.5200 C   0  0  0  0  0  0  0  0  0  0  0  0
   61.8490   33.4420   49.1650 C   0  0  0  0  0  0  0  0  0  0  0  0
   63.9061   32.3079   50.2226 H   0  0  0  0  0  0  0  0  0  0  0  0
   64.0444   31.1576   48.8499 H   0  0  0  0  0  0  0  0  0  0  0  0
   65.0048   32.6755   48.8499 H   0  0  0  0  0  0  0  0  0  0  0  0
   63.8183   32.7445   46.4598 H   0  0  0  0  0  0  0  0  0  0  0  0
   61.9706   33.9515   45.3040 H   0  0  0  0  0  0  0  0  0  0  0  0
   58.4073   26.6270   44.4932 H   0  0  0  0  0  0  0  0  0  0  0  0
   57.3691   27.3008   43.1913 H   0  0  0  0  0  0  0  0  0  0  0  0
   59.1353   27.6280   43.1913 H   0  0  0  0  0  0  0  0  0  0  0  0
   60.3522   30.0505   44.7605 H   0  0  0  0  0  0  0  0  0  0  0  0
   61.7183   30.4508   46.8040 H   0  0  0  0  0  0  0  0  0  0  0  0
   60.5553   29.4828   50.2500 H   0  0  0  0  0  0  0  0  0  0  0  0
   62.0140   28.9383   49.3542 H   0  0  0  0  0  0  0  0  0  0  0  0
   61.5563   30.6753   49.3542 H   0  0  0  0  0  0  0  0  0  0  0  0
   58.8106   28.2921   49.1754 H   0  0  0  0  0  0  0  0  0  0  0  0
   57.4497   27.8761   47.1315 H   0  0  0  0  0  0  0  0  0  0  0  0
   59.9701   34.5157   49.1069 H   0  0  0  0  0  0  0  0  0  0  0  0
   61.8187   33.3076   50.2563 H   0  0  0  0  0  0  0  0  0  0  0  0
  1  2  1  0
  2  3  2  0
  3  4  1  0
  4  5  2  0
  5  6  1  0
  6  7  2  0
  6  8  1  0
  8  9  2  3
  9 10  1  0
 10 11  1  0
 11 12  2  0
 12 13  1  0
 13 14  2  0
 13 15  2  0
 13 16  1  0
 16 17  1  0
 16 18  1  0
 18 19  2  0
 19 20  1  0
 20 21  2  0
 21 22  1  0
 21 23  1  0
 23 24  2  0
 12 25  1  0
  5 26  1  0
 26 27  2  0
 27  2  1  0
 25  9  1  0
 24 18  1  0
  1 28  1  0
  1 29  1  0
  1 30  1  0
  3 31  1  0
  4 32  1  0
 17 33  1  0
 17 34  1  0
 17 35  1  0
 19 36  1  0
 20 37  1  0
 22 38  1  0
 22 39  1  0
 22 40  1  0
 23 41  1  0
 24 42  1  0
 26 43  1  0
 27 44  1  0
M  CHG  1  10  -1
M  END
>  <UniqueID>  (46) 
44

>  <SMILES>  (46) 
Cc1ccc(C(=O)N=c2[n-]nc(S(=O)(=O)N(C)c3ccc(C)cc3)s2)cc1

>  <Energy>  (46) 
86.53979146153924

>  <Genealogy>  (46) 
Cc1ccc(C(=O)N=c2[n-]nc(S(=O)(=O)N(C)c3ccc(C)cc3)s2)cc1 (protonated)
Cc1ccc(C(=O)N=c2[n-]nc(S(=O)(=O)N(C)c3ccc(C)cc3)s2)cc1 (3D coordinates assigned)
Cc1ccc(C(=O)N=c2[n-]nc(S(=O)(=O)N(C)c3ccc(C)cc3)s2)cc1 (optimized conformer: 86.53979146153924 kcal/mol)

>  <smiles>  (46) 
Cc1ccc(C(=O)N=c2[nH]nc(S(=O)(=O)N(C)c3ccc(C)cc3)s2)cc1

>  <score_type>  (46) 
oracle

>  <origin>  (46) 
adg

>  <m_score__min__energy>  (46) 
-10.859999999999999

>  <m_primary>  (46) 
energy

$$$$
46:0
     RDKit          3D

 48 50  0  0  0  0  0  0  0  0999 V2000
   54.7700   27.0820   45.0560 H   0  0  0  0  0  0  0  0  0  0  0  0
   55.5770   27.2960   45.6270 O   0  0  0  0  0  0  0  0  0  0  0  0
   56.3230   26.2870   46.2300 C   0  0  0  0  0  0  0  0  0  0  0  0
   55.7950   25.1300   46.6610 N   0  0  0  0  0  0  0  0  0  0  0  0
   56.8620   24.4920   47.1840 C   0  0  0  0  0  0  0  0  0  0  0  0
   56.7820   23.3490   47.7060 O   0  0  0  0  0  0  0  0  0  0  0  0
   58.0230   25.1790   47.1140 N   0  0  0  0  0  0  0  0  0  0  0  0
   57.6770   26.3100   46.4770 C   0  0  0  0  0  0  0  0  0  0  0  0
   58.5760   27.4520   46.2740 C   0  0  0  0  0  0  0  0  0  0  0  0
   59.5934   27.3604   46.6820 H   0  0  0  0  0  0  0  0  0  0  0  0
   58.2780   28.6040   45.6360 C   0  0  0  0  0  0  0  0  0  0  0  0
   58.0980   28.6620   44.2740 C   0  0  0  0  0  0  0  0  0  0  0  0
   58.1786   27.8080   43.5853 H   0  0  0  0  0  0  0  0  0  0  0  0
   57.8090   29.9210   43.9160 N   0  0  0  0  0  0  0  0  0  0  0  0
   57.8360   30.6360   45.0600 C   0  0  0  0  0  0  0  0  0  0  0  0
   57.5640   31.9610   45.0090 C   0  0  0  0  0  0  0  0  0  0  0  0
   56.8372   32.3202   45.7524 H   0  0  0  0  0  0  0  0  0  0  0  0
   58.1100   33.0130   44.0850 C   0  0  0  0  0  0  0  0  0  0  0  0
   57.2925   33.4046   43.4618 H   0  0  0  0  0  0  0  0  0  0  0  0
   58.8888   32.5581   43.4553 H   0  0  0  0  0  0  0  0  0  0  0  0
   58.7340   34.1680   44.8790 C   0  0  0  0  0  0  0  0  0  0  0  0
   58.5842   35.1067   44.3255 H   0  0  0  0  0  0  0  0  0  0  0  0
   59.8069   33.9631   45.0092 H   0  0  0  0  0  0  0  0  0  0  0  0
   58.0940   34.2950   46.2580 C   0  0  0  0  0  0  0  0  0  0  0  0
   58.8597   34.1431   47.0330 H   0  0  0  0  0  0  0  0  0  0  0  0
   57.6552   35.2977   46.3677 H   0  0  0  0  0  0  0  0  0  0  0  0
   57.3056   33.5358   46.3677 H   0  0  0  0  0  0  0  0  0  0  0  0
   58.1410   29.8610   46.1530 N   0  0  0  0  0  0  0  0  0  0  0  0
   58.4930   30.2930   47.5180 C   0  0  0  0  0  0  0  0  0  0  0  0
   57.6689   30.9048   47.9137 H   0  0  0  0  0  0  0  0  0  0  0  0
   58.6585   29.3836   48.1143 H   0  0  0  0  0  0  0  0  0  0  0  0
   59.7680   31.1070   47.5800 C   0  0  0  0  0  0  0  0  0  0  0  0
   59.8070   32.4190   48.0900 C   0  0  0  0  0  0  0  0  0  0  0  0
   58.8839   32.8890   48.4601 H   0  0  0  0  0  0  0  0  0  0  0  0
   61.0110   33.1280   48.1290 C   0  0  0  0  0  0  0  0  0  0  0  0
   61.0294   34.1503   48.5347 H   0  0  0  0  0  0  0  0  0  0  0  0
   62.1980   32.5450   47.6540 C   0  0  0  0  0  0  0  0  0  0  0  0
   63.4710   33.2990   47.7030 C   0  0  0  0  0  0  0  0  0  0  0  0
   63.7050   34.2010   46.8520 O   0  0  0  0  0  0  0  0  0  0  0  0
   64.4150   33.0080   48.6940 O   0  0  0  0  0  0  0  0  0  0  0  0
   64.1650   33.2180   50.0780 C   0  0  0  0  0  0  0  0  0  0  0  0
   64.8734   32.6229   50.6730 H   0  0  0  0  0  0  0  0  0  0  0  0
   64.2918   34.2845   50.3158 H   0  0  0  0  0  0  0  0  0  0  0  0
   63.1364   32.9090   50.3158 H   0  0  0  0  0  0  0  0  0  0  0  0
   62.1550   31.2410   47.1340 C   0  0  0  0  0  0  0  0  0  0  0  0
   63.0758   30.7737   46.7547 H   0  0  0  0  0  0  0  0  0  0  0  0
   60.9510   30.5330   47.0950 C   0  0  0  0  0  0  0  0  0  0  0  0
   60.9315   29.5147   46.6794 H   0  0  0  0  0  0  0  0  0  0  0  0
  1  2  1  0
  2  3  1  0
  3  4  1  0
  4  5  1  0
  5  6  2  0
  5  7  1  0
  7  8  1  0
  8  9  1  0
  9 10  1  0
  9 11  2  0
 11 12  1  0
 12 13  1  0
 12 14  2  0
 14 15  1  0
 15 16  2  3
 16 17  1  0
 16 18  1  0
 18 19  1  0
 18 20  1  0
 18 21  1  0
 21 22  1  0
 21 23  1  0
 21 24  1  0
 24 25  1  0
 24 26  1  0
 24 27  1  0
 15 28  1  0
 28 29  1  0
 29 30  1  0
 29 31  1  0
 29 32  1  0
 32 33  2  0
 33 34  1  0
 33 35  1  0
 35 36  1  0
 35 37  2  0
 37 38  1  0
 38 39  2  0
 38 40  1  0
 40 41  1  0
 41 42  1  0
 41 43  1  0
 41 44  1  0
 37 45  1  0
 45 46  1  0
 45 47  2  0
 47 48  1  0
  8  3  2  0
 28 11  1  0
 47 32  1  0
M  CHG  2   4  -1   7  -1
M  END
>  <UniqueID>  (47) 
45

>  <SMILES>  (47) 
CCCC=c1nc/c(=C/c2[n-]c(=O)[n-]c2O)n1Cc1ccc(C(=O)OC)cc1

>  <Energy>  (47) 
122.96773807999021

>  <Genealogy>  (47) 
CCCC=c1ncc(=Cc2[n-]c(=O)[n-]c2O)n1Cc1ccc(C(=O)OC)cc1 (protonated)
CCCC=c1nc/c(=C/c2[n-]c(=O)[n-]c2O)n1Cc1ccc(C(=O)OC)cc1 (cis-trans isomerization)
CCCC=c1nc/c(=C/c2[n-]c(=O)[n-]c2O)n1Cc1ccc(C(=O)OC)cc1 (3D coordinates assigned)
CCCC=c1nc/c(=C/c2[n-]c(=O)[n-]c2O)n1Cc1ccc(C(=O)OC)cc1 (optimized conformer: 122.96773807999021 kcal/mol)

>  <smiles>  (47) 
CCCC=c1ncc(=Cc2[nH]c(=O)[nH]c2O)n1Cc1ccc(C(=O)OC)cc1

>  <score_type>  (47) 
oracle

>  <origin>  (47) 
adg

>  <m_score__min__energy>  (47) 
-11.77

>  <m_primary>  (47) 
energy

$$$$
47:0
     RDKit          3D

 55 57  0  0  0  0  0  0  0  0999 V2000
   60.7490   27.7210   49.7970 C   0  0  0  0  0  0  0  0  0  0  0  0
   61.1510   28.9740   49.2540 O   0  0  0  0  0  0  0  0  0  0  0  0
   60.4220   29.6950   48.2940 C   0  0  0  0  0  0  0  0  0  0  0  0
   59.0560   29.4550   48.0580 C   0  0  0  0  0  0  0  0  0  0  0  0
   58.3680   30.1850   47.0870 C   0  0  0  0  0  0  0  0  0  0  0  0
   59.0330   31.1590   46.3340 C   0  0  0  0  0  0  0  0  0  0  0  0
   58.3200   31.9200   45.2910 C   0  0  0  0  0  0  0  0  0  0  0  0
   58.9000   32.8910   44.7390 O   0  0  0  0  0  0  0  0  0  0  0  0
   57.0010   31.5630   44.8570 N   0  0  0  0  0  0  0  0  0  0  0  0
   56.6760   30.6280   43.7810 C   0  0  0  0  0  0  0  0  0  0  0  0
   56.5690   29.2060   44.2760 C   0  0  0  0  0  0  0  0  0  0  0  0
   55.5280   28.8590   44.8910 O   0  0  0  0  0  0  0  0  0  0  0  0
   57.6470   28.2610   44.1570 N   0  0  0  0  0  0  0  0  0  0  0  0
   58.2150   27.5600   45.0990 C   0  0  0  0  0  0  0  0  0  0  0  0
   59.6120   27.5190   45.2890 C   0  0  0  0  0  0  0  0  0  0  0  0
   60.1450   26.7430   46.3200 C   0  0  0  0  0  0  0  0  0  0  0  0
   59.3240   26.0200   47.1280 N   0  0  0  0  0  0  0  0  0  0  0  0
   57.9760   26.0240   46.9570 C   0  0  0  0  0  0  0  0  0  0  0  0
   57.4020   26.7840   45.9360 C   0  0  0  0  0  0  0  0  0  0  0  0
   60.3850   31.4250   46.5880 C   0  0  0  0  0  0  0  0  0  0  0  0
   61.0900   30.6850   47.5570 C   0  0  0  0  0  0  0  0  0  0  0  0
   62.4550   30.8960   47.8190 O   0  0  0  0  0  0  0  0  0  0  0  0
   63.0060   31.9800   48.5740 C   0  0  0  0  0  0  0  0  0  0  0  0
   63.6340   32.9830   47.5950 C   0  0  0  0  0  0  0  0  0  0  0  0
   62.5540   33.6580   46.7360 C   0  0  0  0  0  0  0  0  0  0  0  0
   61.4120   34.1110   47.5480 N   0  0  0  0  0  0  0  0  0  0  0  0
   60.2560   34.6580   46.8730 C   0  0  0  0  0  0  0  0  0  0  0  0
   58.9750   34.9460   47.5960 C   0  0  0  0  0  0  0  0  0  0  0  0
   60.3110   34.9000   45.6360 O   0  0  0  0  0  0  0  0  0  0  0  0
   61.5140   34.0500   49.0140 C   0  0  0  0  0  0  0  0  0  0  0  0
   61.9150   32.6390   49.4640 C   0  0  0  0  0  0  0  0  0  0  0  0
   60.7663   27.7749   50.8955 H   0  0  0  0  0  0  0  0  0  0  0  0
   59.7298   27.4843   49.4575 H   0  0  0  0  0  0  0  0  0  0  0  0
   61.4402   26.9355   49.4575 H   0  0  0  0  0  0  0  0  0  0  0  0
   58.5269   28.6876   48.6420 H   0  0  0  0  0  0  0  0  0  0  0  0
   57.2988   29.9937   46.9132 H   0  0  0  0  0  0  0  0  0  0  0  0
   55.7143   30.9214   43.3349 H   0  0  0  0  0  0  0  0  0  0  0  0
   57.4888   30.6683   43.0409 H   0  0  0  0  0  0  0  0  0  0  0  0
   60.2774   28.0948   44.6290 H   0  0  0  0  0  0  0  0  0  0  0  0
   61.2331   26.7163   46.4794 H   0  0  0  0  0  0  0  0  0  0  0  0
   57.3360   25.4276   47.6239 H   0  0  0  0  0  0  0  0  0  0  0  0
   56.3120   26.7736   45.7887 H   0  0  0  0  0  0  0  0  0  0  0  0
   60.8999   32.2182   46.0261 H   0  0  0  0  0  0  0  0  0  0  0  0
   63.7865   31.6120   49.2561 H   0  0  0  0  0  0  0  0  0  0  0  0
   64.1744   33.7530   48.1651 H   0  0  0  0  0  0  0  0  0  0  0  0
   64.3245   32.4419   46.9313 H   0  0  0  0  0  0  0  0  0  0  0  0
   62.9959   34.5273   46.2271 H   0  0  0  0  0  0  0  0  0  0  0  0
   62.1847   32.9194   46.0093 H   0  0  0  0  0  0  0  0  0  0  0  0
   59.1497   34.9067   48.6813 H   0  0  0  0  0  0  0  0  0  0  0  0
   58.6146   35.9476   47.3186 H   0  0  0  0  0  0  0  0  0  0  0  0
   58.2206   34.1950   47.3186 H   0  0  0  0  0  0  0  0  0  0  0  0
   62.2738   34.7687   49.3547 H   0  0  0  0  0  0  0  0  0  0  0  0
   60.5355   34.2991   49.4504 H   0  0  0  0  0  0  0  0  0  0  0  0
   62.2979   32.6996   50.4934 H   0  0  0  0  0  0  0  0  0  0  0  0
   61.0156   32.0108   49.3841 H   0  0  0  0  0  0  0  0  0  0  0  0
  1  2  1  0
  2  3  1  0
  3  4  2  0
  4  5  1  0
  5  6  2  0
  6  7  1  0
  7  8  2  0
  7  9  1  0
  9 10  1  0
 10 11  1  0
 11 12  2  0
 11 13  1  0
 13 14  2  3
 14 15  1  0
 15 16  2  0
 16 17  1  0
 17 18  1  0
 18 19  2  0
  6 20  1  0
 20 21  2  0
 21 22  1  0
 22 23  1  0
 23 24  1  0
 24 25  1  0
 25 26  1  0
 26 27  1  0
 27 28  1  0
 27 29  2  0
 26 30  1  0
 30 31  1  0
 21  3  1  0
 31 23  1  0
 19 14  1  0
  1 32  1  0
  1 33  1  0
  1 34  1  0
  4 35  1  0
  5 36  1  0
 10 37  1  0
 10 38  1  0
 15 39  1  0
 16 40  1  0
 18 41  1  0
 19 42  1  0
 20 43  1  0
 23 44  1  0
 24 45  1  0
 24 46  1  0
 25 47  1  0
 25 48  1  0
 28 49  1  0
 28 50  1  0
 28 51  1  0
 30 52  1  0
 30 53  1  0
 31 54  1  0
 31 55  1  0
M  CHG  2   9  -1  17  -1
M  END
>  <UniqueID>  (48) 
46

>  <SMILES>  (48) 
COc1ccc(C(=O)[N-]CC(=O)N=c2cc[n-]cc2)cc1OC1CCN(C(C)=O)CC1

>  <Energy>  (48) 
69.83480273805793

>  <Genealogy>  (48) 
COc1ccc(C(=O)[N-]CC(=O)N=c2cc[n-]cc2)cc1OC1CCN(C(C)=O)CC1 (protonated)
COc1ccc(C(=O)[N-]CC(=O)N=c2cc[n-]cc2)cc1OC1CCN(C(C)=O)CC1 (3D coordinates assigned)
COc1ccc(C(=O)[N-]CC(=O)N=c2cc[n-]cc2)cc1OC1CCN(C(C)=O)CC1 (nonaromatic ring conformer: 69.83480273805793 kcal/mol)

>  <smiles>  (48) 
COc1ccc(C(=O)NCC(=O)N=c2cc[nH]cc2)cc1OC1CCN(C(C)=O)CC1

>  <score_type>  (48) 
oracle

>  <origin>  (48) 
adg

>  <m_score__min__energy>  (48) 
-11.779999999999999

>  <m_primary>  (48) 
energy

$$$$
48:0
     RDKit          3D

 54 58  0  0  0  0  0  0  0  0999 V2000
   58.0330   32.1710   41.8600 O   0  0  0  0  0  0  0  0  0  0  0  0
   57.7190   32.2000   43.0800 C   0  0  0  0  0  0  0  0  0  0  0  0
   57.7620   33.4570   43.7700 N   0  0  0  0  0  0  0  0  0  0  0  0
   58.4450   33.7180   45.0040 C   0  0  0  0  0  0  0  0  0  0  0  0
   59.3440   34.7920   45.1350 C   0  0  0  0  0  0  0  0  0  0  0  0
   59.9930   35.0220   46.3510 C   0  0  0  0  0  0  0  0  0  0  0  0
   59.7730   34.1700   47.4440 C   0  0  0  0  0  0  0  0  0  0  0  0
   60.4280   34.4500   48.7690 C   0  0  0  0  0  0  0  0  0  0  0  0
   61.8660   34.0110   48.7380 C   0  0  0  0  0  0  0  0  0  0  0  0
   62.6400   34.0300   49.9080 C   0  0  0  0  0  0  0  0  0  0  0  0
   63.9610   33.5810   49.8670 C   0  0  0  0  0  0  0  0  0  0  0  0
   64.4910   33.1170   48.7020 N   0  0  0  0  0  0  0  0  0  0  0  0
   63.7580   33.0750   47.5570 C   0  0  0  0  0  0  0  0  0  0  0  0
   62.4320   33.5170   47.5540 C   0  0  0  0  0  0  0  0  0  0  0  0
   58.8890   33.0880   47.3050 C   0  0  0  0  0  0  0  0  0  0  0  0
   58.2400   32.8580   46.0880 C   0  0  0  0  0  0  0  0  0  0  0  0
   57.3660   30.9370   43.7690 C   0  0  0  0  0  0  0  0  0  0  0  0
   56.0090   30.5350   43.8950 C   0  0  0  0  0  0  0  0  0  0  0  0
   55.6700   29.3360   44.5450 C   0  0  0  0  0  0  0  0  0  0  0  0
   56.7010   28.5610   45.0670 C   0  0  0  0  0  0  0  0  0  0  0  0
   58.0180   28.9490   44.9660 C   0  0  0  0  0  0  0  0  0  0  0  0
   58.3840   30.1330   44.3300 C   0  0  0  0  0  0  0  0  0  0  0  0
   58.8300   27.9360   45.6300 C   0  0  0  0  0  0  0  0  0  0  0  0
   60.0810   27.9730   45.7680 O   0  0  0  0  0  0  0  0  0  0  0  0
   57.9960   26.8880   46.1320 N   0  0  0  0  0  0  0  0  0  0  0  0
   58.3670   25.8920   47.1340 C   0  0  0  0  0  0  0  0  0  0  0  0
   57.9810   24.5160   46.6650 C   0  0  0  0  0  0  0  0  0  0  0  0
   58.3460   24.0690   45.3870 C   0  0  0  0  0  0  0  0  0  0  0  0
   58.0160   22.7760   44.9800 C   0  0  0  0  0  0  0  0  0  0  0  0
   57.3300   21.9350   45.8590 C   0  0  0  0  0  0  0  0  0  0  0  0
   56.9930   22.3780   47.0990 N   0  0  0  0  0  0  0  0  0  0  0  0
   57.3030   23.6340   47.5190 C   0  0  0  0  0  0  0  0  0  0  0  0
   56.6670   27.3000   45.7990 C   0  0  0  0  0  0  0  0  0  0  0  0
   55.6280   26.6630   46.1160 O   0  0  0  0  0  0  0  0  0  0  0  0
   59.5368   35.4531   44.2772 H   0  0  0  0  0  0  0  0  0  0  0  0
   60.6798   35.8753   46.4519 H   0  0  0  0  0  0  0  0  0  0  0  0
   60.3815   35.5292   48.9769 H   0  0  0  0  0  0  0  0  0  0  0  0
   59.8988   33.8938   49.5568 H   0  0  0  0  0  0  0  0  0  0  0  0
   62.2087   34.3963   50.8513 H   0  0  0  0  0  0  0  0  0  0  0  0
   64.5758   33.6021   50.7789 H   0  0  0  0  0  0  0  0  0  0  0  0
   65.4810   32.7820   48.6880 H   0  0  0  0  0  0  0  0  0  0  0  0
   64.2102   32.6919   46.6303 H   0  0  0  0  0  0  0  0  0  0  0  0
   61.8369   33.4776   46.6297 H   0  0  0  0  0  0  0  0  0  0  0  0
   58.7061   32.4178   48.1579 H   0  0  0  0  0  0  0  0  0  0  0  0
   57.5646   31.9962   45.9825 H   0  0  0  0  0  0  0  0  0  0  0  0
   55.2136   31.1704   43.4784 H   0  0  0  0  0  0  0  0  0  0  0  0
   54.6206   29.0196   44.6383 H   0  0  0  0  0  0  0  0  0  0  0  0
   59.4398   30.4349   44.2659 H   0  0  0  0  0  0  0  0  0  0  0  0
   59.4541   25.9286   47.2978 H   0  0  0  0  0  0  0  0  0  0  0  0
   57.8386   26.1129   48.0731 H   0  0  0  0  0  0  0  0  0  0  0  0
   58.8924   24.7377   44.7055 H   0  0  0  0  0  0  0  0  0  0  0  0
   58.2935   22.4222   43.9761 H   0  0  0  0  0  0  0  0  0  0  0  0
   57.0625   20.9144   45.5479 H   0  0  0  0  0  0  0  0  0  0  0  0
   57.0211   23.9589   48.5314 H   0  0  0  0  0  0  0  0  0  0  0  0
  1  2  2  0
  2  3  1  0
  3  4  1  0
  4  5  2  0
  5  6  1  0
  6  7  2  0
  7  8  1  0
  8  9  1  0
  9 10  2  0
 10 11  1  0
 11 12  2  0
 12 13  1  0
 13 14  2  0
  7 15  1  0
 15 16  2  0
  2 17  1  0
 17 18  2  0
 18 19  1  0
 19 20  2  0
 20 21  1  0
 21 22  2  0
 21 23  1  0
 23 24  2  0
 23 25  1  0
 25 26  1  0
 26 27  1  0
 27 28  2  0
 28 29  1  0
 29 30  2  0
 30 31  1  0
 31 32  2  0
 25 33  1  0
 33 34  2  0
 16  4  1  0
 22 17  1  0
 32 27  1  0
 14  9  1  0
 33 20  1  0
  5 35  1  0
  6 36  1  0
  8 37  1  0
  8 38  1  0
 10 39  1  0
 11 40  1  0
 12 41  1  0
 13 42  1  0
 14 43  1  0
 15 44  1  0
 16 45  1  0
 18 46  1  0
 19 47  1  0
 22 48  1  0
 26 49  1  0
 26 50  1  0
 28 51  1  0
 29 52  1  0
 30 53  1  0
 32 54  1  0
M  CHG  2   3  -1  12   1
M  END
>  <UniqueID>  (49) 
47

>  <SMILES>  (49) 
O=C([N-]c1ccc(Cc2cc[nH+]cc2)cc1)c1ccc2c(c1)C(=O)N(Cc1cccnc1)C2=O

>  <Energy>  (49) 
96.77814784952852

>  <Genealogy>  (49) 
O=C([N-]c1ccc(Cc2cc[nH+]cc2)cc1)c1ccc2c(c1)C(=O)N(Cc1cccnc1)C2=O (protonated)
O=C([N-]c1ccc(Cc2cc[nH+]cc2)cc1)c1ccc2c(c1)C(=O)N(Cc1cccnc1)C2=O (3D coordinates assigned)
O=C([N-]c1ccc(Cc2cc[nH+]cc2)cc1)c1ccc2c(c1)C(=O)N(Cc1cccnc1)C2=O (nonaromatic ring conformer: 96.77814784952852 kcal/mol)

>  <smiles>  (49) 
O=C(Nc1ccc(Cc2ccncc2)cc1)c1ccc2c(c1)C(=O)N(Cc1cccnc1)C2=O

>  <score_type>  (49) 
oracle

>  <origin>  (49) 
adg

>  <m_score__min__energy>  (49) 
-11.869999999999999

>  <m_primary>  (49) 
energy

$$$$
49:0
     RDKit          3D

 56 57  0  0  0  0  0  0  0  0999 V2000
   57.0640   24.5890   43.3520 C   0  0  0  0  0  0  0  0  0  0  0  0
   56.6390   23.1220   43.4040 C   0  0  0  0  0  0  0  0  0  0  0  0
   56.9970   22.4630   44.7440 C   0  0  0  0  0  0  0  0  0  0  0  0
   55.9650   22.7280   45.7490 N   0  0  0  0  0  0  0  0  0  0  0  0
   56.6600   23.2980   47.2410 S   0  0  0  0  0  0  0  0  0  0  0  0
   55.5740   23.8630   48.1120 O   0  0  0  0  0  0  0  0  0  0  0  0
   57.3510   22.1820   47.9750 O   0  0  0  0  0  0  0  0  0  0  0  0
   57.8450   24.5770   46.8750 C   0  0  0  0  0  0  0  0  0  0  0  0
   57.1360   25.8330   46.4750 C   0  0  0  0  0  0  0  0  0  0  0  0
   55.8020   25.9120   46.3060 N   0  0  0  0  0  0  0  0  0  0  0  0
   55.5450   27.0890   45.8120 O   0  0  0  0  0  0  0  0  0  0  0  0
   56.6460   27.7830   45.6340 C   0  0  0  0  0  0  0  0  0  0  0  0
   56.6810   29.1330   45.0430 C   0  0  0  0  0  0  0  0  0  0  0  0
   55.6060   29.7500   44.8160 O   0  0  0  0  0  0  0  0  0  0  0  0
   57.9380   29.7430   44.7240 N   0  0  0  0  0  0  0  0  0  0  0  0
   58.0060   31.0720   44.1160 C   0  0  0  0  0  0  0  0  0  0  0  0
   57.1360   32.0690   44.8860 C   0  0  0  0  0  0  0  0  0  0  0  0
   57.9930   33.0580   45.6310 C   0  0  0  0  0  0  0  0  0  0  0  0
   58.1910   32.9210   47.0160 C   0  0  0  0  0  0  0  0  0  0  0  0
   59.0140   33.8200   47.7020 C   0  0  0  0  0  0  0  0  0  0  0  0
   59.6510   34.8540   47.0100 C   0  0  0  0  0  0  0  0  0  0  0  0
   59.4700   34.9880   45.6310 C   0  0  0  0  0  0  0  0  0  0  0  0
   58.6480   34.0910   44.9400 C   0  0  0  0  0  0  0  0  0  0  0  0
   57.7150   27.0250   46.0770 C   0  0  0  0  0  0  0  0  0  0  0  0
   59.1480   27.3200   45.9470 C   0  0  0  0  0  0  0  0  0  0  0  0
   59.6760   27.2440   44.8070 O   0  0  0  0  0  0  0  0  0  0  0  0
   59.9690   27.6890   47.0640 N   0  0  0  0  0  0  0  0  0  0  0  0
   60.1700   29.0120   47.6640 C   0  0  0  0  0  0  0  0  0  0  0  0
   60.6630   30.0290   46.6320 C   0  0  0  0  0  0  0  0  0  0  0  0
   58.9230   29.5060   48.3990 C   0  0  0  0  0  0  0  0  0  0  0  0
   57.1758   24.9749   44.3760 H   0  0  0  0  0  0  0  0  0  0  0  0
   58.0237   24.6741   42.8213 H   0  0  0  0  0  0  0  0  0  0  0  0
   56.2984   25.1740   42.8213 H   0  0  0  0  0  0  0  0  0  0  0  0
   55.5501   23.0630   43.2597 H   0  0  0  0  0  0  0  0  0  0  0  0
   57.1772   22.5855   42.6087 H   0  0  0  0  0  0  0  0  0  0  0  0
   57.0872   21.3764   44.5983 H   0  0  0  0  0  0  0  0  0  0  0  0
   57.9495   22.8834   45.0990 H   0  0  0  0  0  0  0  0  0  0  0  0
   58.4570   24.7728   47.7678 H   0  0  0  0  0  0  0  0  0  0  0  0
   58.4886   24.2463   46.0465 H   0  0  0  0  0  0  0  0  0  0  0  0
   58.8200   29.2200   44.9270 H   0  0  0  0  0  0  0  0  0  0  0  0
   59.0493   31.4204   44.1272 H   0  0  0  0  0  0  0  0  0  0  0  0
   57.6347   31.0057   43.0827 H   0  0  0  0  0  0  0  0  0  0  0  0
   56.4931   32.6106   44.1765 H   0  0  0  0  0  0  0  0  0  0  0  0
   56.5217   31.5159   45.6117 H   0  0  0  0  0  0  0  0  0  0  0  0
   57.6969   32.1039   47.5621 H   0  0  0  0  0  0  0  0  0  0  0  0
   59.1601   33.7132   48.7870 H   0  0  0  0  0  0  0  0  0  0  0  0
   60.2951   35.5626   47.5513 H   0  0  0  0  0  0  0  0  0  0  0  0
   59.9748   35.8003   45.0875 H   0  0  0  0  0  0  0  0  0  0  0  0
   58.5143   34.1949   43.8531 H   0  0  0  0  0  0  0  0  0  0  0  0
   60.9611   28.9048   48.4207 H   0  0  0  0  0  0  0  0  0  0  0  0
   61.0862   30.9019   47.1506 H   0  0  0  0  0  0  0  0  0  0  0  0
   61.4368   29.5662   46.0018 H   0  0  0  0  0  0  0  0  0  0  0  0
   59.8204   30.3498   46.0018 H   0  0  0  0  0  0  0  0  0  0  0  0
   59.0874   29.4409   49.4847 H   0  0  0  0  0  0  0  0  0  0  0  0
   58.7232   30.5512   48.1205 H   0  0  0  0  0  0  0  0  0  0  0  0
   58.0616   28.8812   48.1205 H   0  0  0  0  0  0  0  0  0  0  0  0
  1  2  1  0
  2  3  1  0
  3  4  1  0
  4  5  1  0
  5  6  2  0
  5  7  2  0
  5  8  1  0
  8  9  1  0
  9 10  2  0
 10 11  1  0
 11 12  1  0
 12 13  1  0
 13 14  2  0
 13 15  1  0
 15 16  1  0
 16 17  1  0
 17 18  1  0
 18 19  2  0
 19 20  1  0
 20 21  2  0
 21 22  1  0
 22 23  2  0
 12 24  2  0
 24 25  1  0
 25 26  2  0
 25 27  1  0
 27 28  1  0
 28 29  1  0
 28 30  1  0
 24  9  1  0
 23 18  1  0
  1 31  1  0
  1 32  1  0
  1 33  1  0
  2 34  1  0
  2 35  1  0
  3 36  1  0
  3 37  1  0
  8 38  1  0
  8 39  1  0
 15 40  1  0
 16 41  1  0
 16 42  1  0
 17 43  1  0
 17 44  1  0
 19 45  1  0
 20 46  1  0
 21 47  1  0
 22 48  1  0
 23 49  1  0
 28 50  1  0
 29 51  1  0
 29 52  1  0
 29 53  1  0
 30 54  1  0
 30 55  1  0
 30 56  1  0
M  CHG  2   4  -1  27  -1
M  END
>  <UniqueID>  (50) 
48

>  <SMILES>  (50) 
CCC[N-]S(=O)(=O)Cc1noc(C(=O)NCCc2ccccc2)c1C(=O)[N-]C(C)C

>  <Energy>  (50) 
73.1569852261558

>  <Genealogy>  (50) 
CCC[N-]S(=O)(=O)Cc1noc(C(=O)NCCc2ccccc2)c1C(=O)[N-]C(C)C (protonated)
CCC[N-]S(=O)(=O)Cc1noc(C(=O)NCCc2ccccc2)c1C(=O)[N-]C(C)C (3D coordinates assigned)
CCC[N-]S(=O)(=O)Cc1noc(C(=O)NCCc2ccccc2)c1C(=O)[N-]C(C)C (optimized conformer: 73.1569852261558 kcal/mol)

>  <smiles>  (50) 
CCCNS(=O)(=O)Cc1noc(C(=O)NCCc2ccccc2)c1C(=O)NC(C)C

>  <score_type>  (50) 
oracle

>  <origin>  (50) 
adg

>  <m_score__min__energy>  (50) 
-11.81

>  <m_primary>  (50) 
energy

$$$$
50:0
     RDKit          3D

 49 51  0  0  0  0  0  0  0  0999 V2000
   64.9770   32.8560   50.7230 C   0  0  0  0  0  0  0  0  0  0  0  0
   63.7840   32.9850   49.8710 N   0  0  0  0  0  0  0  0  0  0  0  0
   63.0230   34.1910   50.2270 C   0  0  0  0  0  0  0  0  0  0  0  0
   61.6540   34.1140   49.5580 C   0  0  0  0  0  0  0  0  0  0  0  0
   61.7720   33.6800   48.1570 N   0  0  0  0  0  0  0  0  0  0  0  0
   60.5800   33.5890   47.3500 C   0  0  0  0  0  0  0  0  0  0  0  0
   60.2780   34.5890   46.4100 C   0  0  0  0  0  0  0  0  0  0  0  0
   59.1260   34.4990   45.6240 C   0  0  0  0  0  0  0  0  0  0  0  0
   58.2500   33.4130   45.7710 C   0  0  0  0  0  0  0  0  0  0  0  0
   57.0320   33.2980   44.9010 C   0  0  0  0  0  0  0  0  0  0  0  0
   56.5640   31.9170   44.9110 N   0  0  0  0  0  0  0  0  0  0  0  0
   57.0430   30.8850   44.0380 C   0  0  0  0  0  0  0  0  0  0  0  0
   56.8590   31.0080   42.7980 O   0  0  0  0  0  0  0  0  0  0  0  0
   57.7750   29.7060   44.5400 C   0  0  0  0  0  0  0  0  0  0  0  0
   59.1790   29.7020   44.5370 C   0  0  0  0  0  0  0  0  0  0  0  0
   59.8800   28.5840   44.9960 C   0  0  0  0  0  0  0  0  0  0  0  0
   59.1880   27.4600   45.4510 C   0  0  0  0  0  0  0  0  0  0  0  0
   57.7880   27.4450   45.4430 C   0  0  0  0  0  0  0  0  0  0  0  0
   56.9100   26.0160   45.9810 S   0  0  0  0  0  0  0  0  0  0  0  0
   55.2230   26.3780   46.0790 N   0  0  0  0  0  0  0  0  0  0  0  0
   57.4140   25.5890   47.3320 O   0  0  0  0  0  0  0  0  0  0  0  0
   57.1240   24.8890   45.0090 O   0  0  0  0  0  0  0  0  0  0  0  0
   57.0840   28.5630   44.9730 C   0  0  0  0  0  0  0  0  0  0  0  0
   58.5550   32.4050   46.6980 C   0  0  0  0  0  0  0  0  0  0  0  0
   59.7070   32.4940   47.4840 C   0  0  0  0  0  0  0  0  0  0  0  0
   63.0960   33.6170   47.5170 C   0  0  0  0  0  0  0  0  0  0  0  0
   64.1650   32.9880   48.4410 C   0  0  0  0  0  0  0  0  0  0  0  0
   64.6773   32.8884   51.7809 H   0  0  0  0  0  0  0  0  0  0  0  0
   65.4761   31.8986   50.5125 H   0  0  0  0  0  0  0  0  0  0  0  0
   65.6693   33.6845   50.5125 H   0  0  0  0  0  0  0  0  0  0  0  0
   62.9001   34.2435   51.3189 H   0  0  0  0  0  0  0  0  0  0  0  0
   63.5590   35.0893   49.8867 H   0  0  0  0  0  0  0  0  0  0  0  0
   61.0268   33.3948   50.1052 H   0  0  0  0  0  0  0  0  0  0  0  0
   61.1998   35.1157   49.5761 H   0  0  0  0  0  0  0  0  0  0  0  0
   60.9535   35.4491   46.2920 H   0  0  0  0  0  0  0  0  0  0  0  0
   58.9048   35.2840   44.8859 H   0  0  0  0  0  0  0  0  0  0  0  0
   56.2407   33.9574   45.2870 H   0  0  0  0  0  0  0  0  0  0  0  0
   57.2834   33.5955   43.8723 H   0  0  0  0  0  0  0  0  0  0  0  0
   59.7289   30.5820   44.1721 H   0  0  0  0  0  0  0  0  0  0  0  0
   60.9800   28.5894   44.9989 H   0  0  0  0  0  0  0  0  0  0  0  0
   59.7440   26.5841   45.8166 H   0  0  0  0  0  0  0  0  0  0  0  0
   55.1350   27.4180   46.0730 H   0  0  0  0  0  0  0  0  0  0  0  0
   55.9846   28.5444   44.9434 H   0  0  0  0  0  0  0  0  0  0  0  0
   57.8839   31.5402   46.8066 H   0  0  0  0  0  0  0  0  0  0  0  0
   59.9329   31.7019   48.2130 H   0  0  0  0  0  0  0  0  0  0  0  0
   63.0183   33.0111   46.6022 H   0  0  0  0  0  0  0  0  0  0  0  0
   63.4101   34.6467   47.2912 H   0  0  0  0  0  0  0  0  0  0  0  0
   64.3311   31.9481   48.1231 H   0  0  0  0  0  0  0  0  0  0  0  0
   65.0724   33.6031   48.3501 H   0  0  0  0  0  0  0  0  0  0  0  0
  1  2  1  0
  2  3  1  0
  3  4  1  0
  4  5  1  0
  5  6  1  0
  6  7  2  0
  7  8  1  0
  8  9  2  0
  9 10  1  0
 10 11  1  0
 11 12  1  0
 12 13  2  0
 12 14  1  0
 14 15  2  0
 15 16  1  0
 16 17  2  0
 17 18  1  0
 18 19  1  0
 19 20  1  0
 19 21  2  0
 19 22  2  0
 18 23  2  0
  9 24  1  0
 24 25  2  0
  5 26  1  0
 26 27  1  0
 27  2  1  0
 25  6  1  0
 23 14  1  0
  1 28  1  0
  1 29  1  0
  1 30  1  0
  3 31  1  0
  3 32  1  0
  4 33  1  0
  4 34  1  0
  7 35  1  0
  8 36  1  0
 10 37  1  0
 10 38  1  0
 15 39  1  0
 16 40  1  0
 17 41  1  0
 20 42  1  0
 23 43  1  0
 24 44  1  0
 25 45  1  0
 26 46  1  0
 26 47  1  0
 27 48  1  0
 27 49  1  0
M  CHG  2  11  -1  20  -1
M  END
>  <UniqueID>  (51) 
49

>  <SMILES>  (51) 
CN1CCN(c2ccc(C[N-]C(=O)c3cccc(S([NH-])(=O)=O)c3)cc2)CC1

>  <Energy>  (51) 
61.76287536209781

>  <Genealogy>  (51) 
CN1CCN(c2ccc(C[N-]C(=O)c3cccc(S([NH-])(=O)=O)c3)cc2)CC1 (protonated)
CN1CCN(c2ccc(C[N-]C(=O)c3cccc(S([NH-])(=O)=O)c3)cc2)CC1 (3D coordinates assigned)
CN1CCN(c2ccc(C[N-]C(=O)c3cccc(S([NH-])(=O)=O)c3)cc2)CC1 (nonaromatic ring conformer: 61.76287536209781 kcal/mol)

>  <smiles>  (51) 
CN1CCN(c2ccc(CNC(=O)c3cccc(S(N)(=O)=O)c3)cc2)CC1

>  <score_type>  (51) 
oracle

>  <origin>  (51) 
adg

>  <m_score__min__energy>  (51) 
-13.609999999999999

>  <m_primary>  (51) 
energy

$$$$
51:0
     RDKit          3D

 42 45  0  0  0  0  0  0  0  0999 V2000
   55.1250   26.3280   46.0070 O   0  0  0  0  0  0  0  0  0  0  0  0
   56.3550   26.0940   45.8610 C   0  0  0  0  0  0  0  0  0  0  0  0
   57.2960   27.2330   45.7370 C   0  0  0  0  0  0  0  0  0  0  0  0
   58.6520   27.0580   46.0570 C   0  0  0  0  0  0  0  0  0  0  0  0
   59.5500   28.1160   45.9260 C   0  0  0  0  0  0  0  0  0  0  0  0
   59.1120   29.3580   45.4640 C   0  0  0  0  0  0  0  0  0  0  0  0
   57.7630   29.5550   45.1180 C   0  0  0  0  0  0  0  0  0  0  0  0
   57.2960   30.8290   44.6340 N   0  0  0  0  0  0  0  0  0  0  0  0
   57.8130   32.3560   45.2790 S   0  0  0  0  0  0  0  0  0  0  0  0
   56.6100   33.1190   45.7610 O   0  0  0  0  0  0  0  0  0  0  0  0
   58.4930   33.1460   44.1980 O   0  0  0  0  0  0  0  0  0  0  0  0
   58.9560   32.0970   46.5930 C   0  0  0  0  0  0  0  0  0  0  0  0
   60.3050   32.4410   46.4240 C   0  0  0  0  0  0  0  0  0  0  0  0
   61.2200   32.2270   47.4580 C   0  0  0  0  0  0  0  0  0  0  0  0
   60.7920   31.6720   48.6680 C   0  0  0  0  0  0  0  0  0  0  0  0
   59.4470   31.3330   48.8440 C   0  0  0  0  0  0  0  0  0  0  0  0
   58.5300   31.5440   47.8090 C   0  0  0  0  0  0  0  0  0  0  0  0
   56.8560   28.4860   45.2620 C   0  0  0  0  0  0  0  0  0  0  0  0
   55.5140   28.6720   44.9380 O   0  0  0  0  0  0  0  0  0  0  0  0
   56.8240   24.6910   45.8280 C   0  0  0  0  0  0  0  0  0  0  0  0
   57.4710   24.0030   46.8550 C   0  0  0  0  0  0  0  0  0  0  0  0
   57.7130   22.7220   46.4910 N   0  0  0  0  0  0  0  0  0  0  0  0
   57.2210   22.5910   45.2480 C   0  0  0  0  0  0  0  0  0  0  0  0
   57.2330   21.4480   44.4520 C   0  0  0  0  0  0  0  0  0  0  0  0
   56.6560   21.5500   43.1750 C   0  0  0  0  0  0  0  0  0  0  0  0
   56.1130   22.7340   42.7510 N   0  0  0  0  0  0  0  0  0  0  0  0
   56.1050   23.8500   43.5380 C   0  0  0  0  0  0  0  0  0  0  0  0
   56.6680   23.7650   44.8100 C   0  0  0  0  0  0  0  0  0  0  0  0
   59.0078   26.0800   46.4132 H   0  0  0  0  0  0  0  0  0  0  0  0
   60.6085   27.9714   46.1879 H   0  0  0  0  0  0  0  0  0  0  0  0
   59.8269   30.1887   45.3698 H   0  0  0  0  0  0  0  0  0  0  0  0
   56.6820   30.8670   43.7890 H   0  0  0  0  0  0  0  0  0  0  0  0
   60.6438   32.8807   45.4743 H   0  0  0  0  0  0  0  0  0  0  0  0
   62.2778   32.4953   47.3201 H   0  0  0  0  0  0  0  0  0  0  0  0
   61.5132   31.5022   49.4811 H   0  0  0  0  0  0  0  0  0  0  0  0
   59.1097   30.9000   49.7973 H   0  0  0  0  0  0  0  0  0  0  0  0
   57.4725   31.2755   47.9494 H   0  0  0  0  0  0  0  0  0  0  0  0
   57.7462   24.4409   47.8258 H   0  0  0  0  0  0  0  0  0  0  0  0
   58.1790   21.9870   47.0670 H   0  0  0  0  0  0  0  0  0  0  0  0
   57.6753   20.5058   44.8079 H   0  0  0  0  0  0  0  0  0  0  0  0
   56.6402   20.6731   42.5111 H   0  0  0  0  0  0  0  0  0  0  0  0
   55.6655   24.7917   43.1773 H   0  0  0  0  0  0  0  0  0  0  0  0
  1  2  2  0
  2  3  1  0
  3  4  2  0
  4  5  1  0
  5  6  2  0
  6  7  1  0
  7  8  1  0
  8  9  1  0
  9 10  2  0
  9 11  2  0
  9 12  1  0
 12 13  2  0
 13 14  1  0
 14 15  2  0
 15 16  1  0
 16 17  2  0
  7 18  2  0
 18 19  1  0
  2 20  1  0
 20 21  2  0
 21 22  1  0
 22 23  1  0
 23 24  2  0
 24 25  1  0
 25 26  2  0
 26 27  1  0
 27 28  2  0
 18  3  1  0
 28 20  1  0
 17 12  1  0
 28 23  1  0
  4 29  1  0
  5 30  1  0
  6 31  1  0
  8 32  1  0
 13 33  1  0
 14 34  1  0
 15 35  1  0
 16 36  1  0
 17 37  1  0
 21 38  1  0
 22 39  1  0
 24 40  1  0
 25 41  1  0
 27 42  1  0
M  CHG  1  19  -1
M  END
>  <UniqueID>  (52) 
50

>  <SMILES>  (52) 
O=C(c1cccc(NS(=O)(=O)c2ccccc2)c1[O-])c1c[nH]c2ccncc12

>  <Energy>  (52) 
91.54171032353246

>  <Genealogy>  (52) 
O=C(c1cccc(NS(=O)(=O)c2ccccc2)c1[O-])c1c[nH]c2ccncc12 (protonated)
O=C(c1cccc(NS(=O)(=O)c2ccccc2)c1[O-])c1c[nH]c2ccncc12 (3D coordinates assigned)
O=C(c1cccc(NS(=O)(=O)c2ccccc2)c1[O-])c1c[nH]c2ccncc12 (optimized conformer: 91.54171032353246 kcal/mol)

>  <smiles>  (52) 
O=C(c1cccc(NS(=O)(=O)c2ccccc2)c1O)c1c[nH]c2ccncc12

>  <score_type>  (52) 
oracle

>  <origin>  (52) 
adg

>  <m_score__min__energy>  (52) 
-13.41

>  <m_primary>  (52) 
energy

$$$$
52:0
     RDKit          3D

 55 59  0  0  0  0  0  0  0  0999 V2000
   57.9703   34.0741   44.0808 H   0  0  0  0  0  0  0  0  0  0  0  0
   57.7790   32.9910   44.0660 C   0  0  0  0  0  0  0  0  0  0  0  0
   57.7400   32.2630   45.2620 C   0  0  0  0  0  0  0  0  0  0  0  0
   57.9550   32.9200   46.5630 C   0  0  0  0  0  0  0  0  0  0  0  0
   56.9740   33.4710   47.1310 O   0  0  0  0  0  0  0  0  0  0  0  0
   59.2520   32.9680   47.1830 N   0  0  0  0  0  0  0  0  0  0  0  0
   59.4460   33.3290   48.5890 C   0  0  0  0  0  0  0  0  0  0  0  0
   58.9082   34.2562   48.8362 H   0  0  0  0  0  0  0  0  0  0  0  0
   59.0619   32.5701   49.2865 H   0  0  0  0  0  0  0  0  0  0  0  0
   60.9120   33.5220   48.6890 C   0  0  0  0  0  0  0  0  0  0  0  0
   61.6560   33.8610   49.8200 C   0  0  0  0  0  0  0  0  0  0  0  0
   61.1632   34.0190   50.7907 H   0  0  0  0  0  0  0  0  0  0  0  0
   63.0490   33.9960   49.6910 C   0  0  0  0  0  0  0  0  0  0  0  0
   63.6578   34.2610   50.5680 H   0  0  0  0  0  0  0  0  0  0  0  0
   63.6680   33.7930   48.4420 C   0  0  0  0  0  0  0  0  0  0  0  0
   64.7587   33.9002   48.3475 H   0  0  0  0  0  0  0  0  0  0  0  0
   62.8980   33.4540   47.3160 C   0  0  0  0  0  0  0  0  0  0  0  0
   63.3731   33.2947   46.3368 H   0  0  0  0  0  0  0  0  0  0  0  0
   61.5160   33.3240   47.4690 C   0  0  0  0  0  0  0  0  0  0  0  0
   60.5160   32.9650   46.4370 C   0  0  0  0  0  0  0  0  0  0  0  0
   60.4987   33.7100   45.6278 H   0  0  0  0  0  0  0  0  0  0  0  0
   60.7266   32.0029   45.9470 H   0  0  0  0  0  0  0  0  0  0  0  0
   57.5540   30.9150   45.2200 N   0  0  0  0  0  0  0  0  0  0  0  0
   57.3750   30.2340   44.0550 C   0  0  0  0  0  0  0  0  0  0  0  0
   57.2030   28.9440   44.1110 N   0  0  0  0  0  0  0  0  0  0  0  0
   58.1400   27.9220   43.7340 C   0  0  0  0  0  0  0  0  0  0  0  0
   57.7540   26.9920   42.9780 O   0  0  0  0  0  0  0  0  0  0  0  0
   59.5420   27.8740   44.2950 C   0  0  0  0  0  0  0  0  0  0  0  0
   59.9180   26.8430   44.2194 H   0  0  0  0  0  0  0  0  0  0  0  0
   60.1613   28.5717   43.7122 H   0  0  0  0  0  0  0  0  0  0  0  0
   59.5970   28.3070   45.7450 C   0  0  0  0  0  0  0  0  0  0  0  0
   60.3590   29.4390   46.0910 C   0  0  0  0  0  0  0  0  0  0  0  0
   60.9498   29.9545   45.3195 H   0  0  0  0  0  0  0  0  0  0  0  0
   60.3720   29.9140   47.4050 C   0  0  0  0  0  0  0  0  0  0  0  0
   60.9701   30.8007   47.6619 H   0  0  0  0  0  0  0  0  0  0  0  0
   59.6290   29.2670   48.3910 C   0  0  0  0  0  0  0  0  0  0  0  0
   59.6372   29.6477   49.4230 H   0  0  0  0  0  0  0  0  0  0  0  0
   58.8740   28.1360   48.0710 C   0  0  0  0  0  0  0  0  0  0  0  0
   58.2896   27.6300   48.8536 H   0  0  0  0  0  0  0  0  0  0  0  0
   58.8560   27.6410   46.7580 C   0  0  0  0  0  0  0  0  0  0  0  0
   58.0350   26.4470   46.4670 C   0  0  0  0  0  0  0  0  0  0  0  0
   58.6470   25.1920   46.3230 C   0  0  0  0  0  0  0  0  0  0  0  0
   59.7381   25.0986   46.4267 H   0  0  0  0  0  0  0  0  0  0  0  0
   57.8730   24.0600   46.0480 C   0  0  0  0  0  0  0  0  0  0  0  0
   58.3543   23.0762   45.9451 H   0  0  0  0  0  0  0  0  0  0  0  0
   56.4880   24.1790   45.9040 C   0  0  0  0  0  0  0  0  0  0  0  0
   55.8796   23.2880   45.6896 H   0  0  0  0  0  0  0  0  0  0  0  0
   55.8750   25.4280   46.0320 C   0  0  0  0  0  0  0  0  0  0  0  0
   54.7852   25.5198   45.9139 H   0  0  0  0  0  0  0  0  0  0  0  0
   56.6450   26.5610   46.3100 C   0  0  0  0  0  0  0  0  0  0  0  0
   56.1605   27.5439   46.4059 H   0  0  0  0  0  0  0  0  0  0  0  0
   57.3570   30.9520   42.8430 C   0  0  0  0  0  0  0  0  0  0  0  0
   57.1738   30.4297   41.8924 H   0  0  0  0  0  0  0  0  0  0  0  0
   57.5730   32.3290   42.8570 C   0  0  0  0  0  0  0  0  0  0  0  0
   57.5809   32.8936   41.9130 H   0  0  0  0  0  0  0  0  0  0  0  0
  1  2  1  0
  2  3  2  0
  3  4  1  0
  4  5  2  0
  4  6  1  0
  6  7  1  0
  7  8  1  0
  7  9  1  0
  7 10  1  0
 10 11  2  0
 11 12  1  0
 11 13  1  0
 13 14  1  0
 13 15  2  0
 15 16  1  0
 15 17  1  0
 17 18  1  0
 17 19  2  0
 19 20  1  0
 20 21  1  0
 20 22  1  0
  3 23  1  0
 23 24  1  0
 24 25  2  0
 25 26  1  0
 26 27  2  0
 26 28  1  0
 28 29  1  0
 28 30  1  0
 28 31  1  0
 31 32  2  0
 32 33  1  0
 32 34  1  0
 34 35  1  0
 34 36  2  0
 36 37  1  0
 36 38  1  0
 38 39  1  0
 38 40  2  0
 40 41  1  0
 41 42  2  0
 42 43  1  0
 42 44  1  0
 44 45  1  0
 44 46  2  0
 46 47  1  0
 46 48  1  0
 48 49  1  0
 48 50  2  0
 50 51  1  0
 24 52  1  0
 52 53  1  0
 52 54  2  0
 54 55  1  0
 54  2  1  0
 20  6  1  0
 40 31  1  0
 50 41  1  0
 19 10  1  0
M  CHG  1  23  -1
M  END
>  <UniqueID>  (53) 
51

>  <SMILES>  (53) 
O=C(Cc1ccccc1-c1ccccc1)/N=c1\cccc(C(=O)N2Cc3ccccc3C2)[n-]1

>  <Energy>  (53) 
92.03099419685503

>  <Genealogy>  (53) 
O=C(Cc1ccccc1-c1ccccc1)N=c1cccc(C(=O)N2Cc3ccccc3C2)[n-]1 (protonated)
O=C(Cc1ccccc1-c1ccccc1)/N=c1\cccc(C(=O)N2Cc3ccccc3C2)[n-]1 (cis-trans isomerization)
O=C(Cc1ccccc1-c1ccccc1)/N=c1\cccc(C(=O)N2Cc3ccccc3C2)[n-]1 (3D coordinates assigned)
O=C(Cc1ccccc1-c1ccccc1)/N=c1\cccc(C(=O)N2Cc3ccccc3C2)[n-]1 (nonaromatic ring conformer: 92.03099419685503 kcal/mol)

>  <smiles>  (53) 
O=C(Cc1ccccc1-c1ccccc1)N=c1cccc(C(=O)N2Cc3ccccc3C2)[nH]1

>  <score_type>  (53) 
oracle

>  <origin>  (53) 
adg

>  <m_score__min__energy>  (53) 
-12.359999999999999

>  <m_primary>  (53) 
energy

$$$$
53:0
     RDKit          3D

 31 33  0  0  0  0  0  0  0  0999 V2000
   58.1340   32.6090   41.3770 C   0  0  0  0  0  0  0  0  0  0  0  0
   57.7850   32.0350   42.6730 N   0  0  0  0  0  0  0  0  0  0  0  0
   57.1600   30.8540   42.8820 C   0  0  0  0  0  0  0  0  0  0  0  0
   57.0220   30.6160   44.2470 C   0  0  0  0  0  0  0  0  0  0  0  0
   56.4000   29.4190   44.8490 C   0  0  0  0  0  0  0  0  0  0  0  0
   55.1440   29.3310   44.8640 O   0  0  0  0  0  0  0  0  0  0  0  0
   57.2010   28.3250   45.4390 C   0  0  0  0  0  0  0  0  0  0  0  0
   58.6030   28.4050   45.4150 C   0  0  0  0  0  0  0  0  0  0  0  0
   59.3830   27.3850   45.9690 C   0  0  0  0  0  0  0  0  0  0  0  0
   60.7350   27.4790   45.9510 F   0  0  0  0  0  0  0  0  0  0  0  0
   58.7680   26.2690   46.5420 C   0  0  0  0  0  0  0  0  0  0  0  0
   57.3760   26.1660   46.5540 C   0  0  0  0  0  0  0  0  0  0  0  0
   56.5890   27.1810   45.9980 C   0  0  0  0  0  0  0  0  0  0  0  0
   55.2050   27.0360   45.9900 O   0  0  0  0  0  0  0  0  0  0  0  0
   57.6210   31.6970   44.8800 C   0  0  0  0  0  0  0  0  0  0  0  0
   57.8520   31.9710   46.2310 C   0  0  0  0  0  0  0  0  0  0  0  0
   58.5280   33.1600   46.5570 C   0  0  0  0  0  0  0  0  0  0  0  0
   58.9710   34.0330   45.5410 C   0  0  0  0  0  0  0  0  0  0  0  0
   58.7480   33.7240   44.1880 C   0  0  0  0  0  0  0  0  0  0  0  0
   58.0680   32.5400   43.8900 C   0  0  0  0  0  0  0  0  0  0  0  0
   58.7000   33.5399   41.5287 H   0  0  0  0  0  0  0  0  0  0  0  0
   58.7499   31.8932   40.8128 H   0  0  0  0  0  0  0  0  0  0  0  0
   57.2151   32.8264   40.8128 H   0  0  0  0  0  0  0  0  0  0  0  0
   56.8107   30.1782   42.0875 H   0  0  0  0  0  0  0  0  0  0  0  0
   59.0917   29.2774   44.9566 H   0  0  0  0  0  0  0  0  0  0  0  0
   59.3816   25.4704   46.9843 H   0  0  0  0  0  0  0  0  0  0  0  0
   56.8957   25.2837   47.0022 H   0  0  0  0  0  0  0  0  0  0  0  0
   57.5151   31.2774   47.0155 H   0  0  0  0  0  0  0  0  0  0  0  0
   58.7128   33.4114   47.6118 H   0  0  0  0  0  0  0  0  0  0  0  0
   59.4947   34.9623   45.8097 H   0  0  0  0  0  0  0  0  0  0  0  0
   59.0979   34.3935   43.3884 H   0  0  0  0  0  0  0  0  0  0  0  0
  1  2  1  0
  2  3  1  0
  3  4  2  0
  4  5  1  0
  5  6  2  0
  5  7  1  0
  7  8  2  0
  8  9  1  0
  9 10  1  0
  9 11  2  0
 11 12  1  0
 12 13  2  0
 13 14  1  0
  4 15  1  0
 15 16  2  0
 16 17  1  0
 17 18  2  0
 18 19  1  0
 19 20  2  0
 20  2  1  0
 13  7  1  0
 20 15  1  0
  1 21  1  0
  1 22  1  0
  1 23  1  0
  3 24  1  0
  8 25  1  0
 11 26  1  0
 12 27  1  0
 16 28  1  0
 17 29  1  0
 18 30  1  0
 19 31  1  0
M  CHG  1  14  -1
M  END
>  <UniqueID>  (54) 
52

>  <SMILES>  (54) 
Cn1cc(C(=O)c2cc(F)ccc2[O-])c2ccccc21

>  <Energy>  (54) 
73.9836532528903

>  <Genealogy>  (54) 
Cn1cc(C(=O)c2cc(F)ccc2[O-])c2ccccc21 (protonated)
Cn1cc(C(=O)c2cc(F)ccc2[O-])c2ccccc21 (3D coordinates assigned)
Cn1cc(C(=O)c2cc(F)ccc2[O-])c2ccccc21 (optimized conformer: 73.9836532528903 kcal/mol)

>  <smiles>  (54) 
Cn1cc(C(=O)c2cc(F)ccc2O)c2ccccc21

>  <score_type>  (54) 
oracle

>  <origin>  (54) 
adg

>  <m_score__min__energy>  (54) 
-11.970000000000001

>  <m_primary>  (54) 
energy

$$$$
54:0
     RDKit          3D

 57 61  0  0  0  0  0  0  0  0999 V2000
   56.3070   30.0590   42.7310 C   0  0  0  0  0  0  0  0  0  0  0  0
   56.7620   29.3340   43.9980 C   0  0  0  0  0  0  0  0  0  0  0  0
   57.4320   30.2880   44.9430 C   0  0  0  0  0  0  0  0  0  0  0  0
   58.4060   29.8950   45.8570 C   0  0  0  0  0  0  0  0  0  0  0  0
   58.8630   31.2540   46.7380 S   0  0  0  0  0  0  0  0  0  0  0  0
   57.7800   32.2680   45.9430 C   0  0  0  0  0  0  0  0  0  0  0  0
   57.7070   33.7470   46.1350 C   0  0  0  0  0  0  0  0  0  0  0  0
   59.0370   34.3310   45.9430 N   0  0  0  0  0  0  0  0  0  0  0  0
   59.2680   35.2860   44.8590 C   0  0  0  0  0  0  0  0  0  0  0  0
   60.0760   34.0970   46.9110 C   0  0  0  0  0  0  0  0  0  0  0  0
   59.8820   34.1720   48.2480 N   0  0  0  0  0  0  0  0  0  0  0  0
   61.1130   33.9050   48.7200 C   0  0  0  0  0  0  0  0  0  0  0  0
   61.4950   33.8150   50.4720 S   0  0  0  0  0  0  0  0  0  0  0  0
   59.8970   33.1100   50.8800 C   0  0  0  0  0  0  0  0  0  0  0  0
   59.4390   31.9750   50.2010 C   0  0  0  0  0  0  0  0  0  0  0  0
   58.1900   31.4280   50.5080 C   0  0  0  0  0  0  0  0  0  0  0  0
   57.3830   32.0160   51.5000 C   0  0  0  0  0  0  0  0  0  0  0  0
   56.1000   31.4630   51.8400 N   0  0  0  0  0  0  0  0  0  0  0  0
   55.9230   30.1080   52.3040 C   0  0  0  0  0  0  0  0  0  0  0  0
   56.8520   29.2710   52.1500 O   0  0  0  0  0  0  0  0  0  0  0  0
   54.6380   29.6220   52.9390 C   0  0  0  0  0  0  0  0  0  0  0  0
   53.5160   30.6290   53.1340 C   0  0  0  0  0  0  0  0  0  0  0  0
   53.4200   29.5840   52.0290 C   0  0  0  0  0  0  0  0  0  0  0  0
   57.8640   33.1320   52.2010 C   0  0  0  0  0  0  0  0  0  0  0  0
   59.1150   33.6760   51.8920 C   0  0  0  0  0  0  0  0  0  0  0  0
   61.9970   33.7040   47.7250 N   0  0  0  0  0  0  0  0  0  0  0  0
   63.4030   33.3250   47.8370 C   0  0  0  0  0  0  0  0  0  0  0  0
   63.7490   32.0070   47.1680 C   0  0  0  0  0  0  0  0  0  0  0  0
   63.6280   32.0800   48.6800 C   0  0  0  0  0  0  0  0  0  0  0  0
   61.3500   33.8010   46.5800 N   0  0  0  0  0  0  0  0  0  0  0  0
   57.0870   31.6040   44.9940 N   0  0  0  0  0  0  0  0  0  0  0  0
   55.7411   30.9607   43.0077 H   0  0  0  0  0  0  0  0  0  0  0  0
   57.1870   30.3463   42.1369 H   0  0  0  0  0  0  0  0  0  0  0  0
   55.6656   29.3915   42.1369 H   0  0  0  0  0  0  0  0  0  0  0  0
   55.8865   28.8895   44.4939 H   0  0  0  0  0  0  0  0  0  0  0  0
   57.4809   28.5498   43.7181 H   0  0  0  0  0  0  0  0  0  0  0  0
   58.8055   28.8777   45.9811 H   0  0  0  0  0  0  0  0  0  0  0  0
   57.0083   34.1777   45.4027 H   0  0  0  0  0  0  0  0  0  0  0  0
   57.3534   33.9674   47.1530 H   0  0  0  0  0  0  0  0  0  0  0  0
   59.5066   36.2722   45.2838 H   0  0  0  0  0  0  0  0  0  0  0  0
   60.1085   34.9407   44.2391 H   0  0  0  0  0  0  0  0  0  0  0  0
   58.3626   35.3631   44.2391 H   0  0  0  0  0  0  0  0  0  0  0  0
   60.0641   31.5120   49.4232 H   0  0  0  0  0  0  0  0  0  0  0  0
   57.8364   30.5347   49.9724 H   0  0  0  0  0  0  0  0  0  0  0  0
   55.2610   32.0420   51.6150 H   0  0  0  0  0  0  0  0  0  0  0  0
   55.1513   28.9089   53.6008 H   0  0  0  0  0  0  0  0  0  0  0  0
   52.8614   30.5595   54.0153 H   0  0  0  0  0  0  0  0  0  0  0  0
   53.4538   31.7265   53.1746 H   0  0  0  0  0  0  0  0  0  0  0  0
   52.6963   28.7598   52.1124 H   0  0  0  0  0  0  0  0  0  0  0  0
   53.2599   29.6140   50.9411 H   0  0  0  0  0  0  0  0  0  0  0  0
   57.2539   33.5818   52.9982 H   0  0  0  0  0  0  0  0  0  0  0  0
   59.4847   34.5512   52.4464 H   0  0  0  0  0  0  0  0  0  0  0  0
   63.8210   34.3421   47.8106 H   0  0  0  0  0  0  0  0  0  0  0  0
   62.9880   31.4721   46.5808 H   0  0  0  0  0  0  0  0  0  0  0  0
   64.5267   31.6724   46.4657 H   0  0  0  0  0  0  0  0  0  0  0  0
   62.7792   31.5987   49.1879 H   0  0  0  0  0  0  0  0  0  0  0  0
   64.2811   31.8208   49.5263 H   0  0  0  0  0  0  0  0  0  0  0  0
  1  2  1  0
  2  3  1  0
  3  4  2  0
  4  5  1  0
  5  6  1  0
  6  7  1  0
  7  8  1  0
  8  9  1  0
  8 10  1  0
 10 11  1  0
 11 12  2  0
 12 13  1  0
 13 14  1  0
 14 15  2  0
 15 16  1  0
 16 17  2  0
 17 18  1  0
 18 19  1  0
 19 20  2  0
 19 21  1  0
 21 22  1  0
 22 23  1  0
 17 24  1  0
 24 25  2  0
 12 26  1  0
 26 27  1  0
 27 28  1  0
 28 29  1  0
 26 30  1  0
  6 31  2  0
 31  3  1  0
 30 10  2  0
 25 14  1  0
 29 27  1  0
 23 21  1  0
  1 32  1  0
  1 33  1  0
  1 34  1  0
  2 35  1  0
  2 36  1  0
  4 37  1  0
  7 38  1  0
  7 39  1  0
  9 40  1  0
  9 41  1  0
  9 42  1  0
 15 43  1  0
 16 44  1  0
 18 45  1  0
 21 46  1  0
 22 47  1  0
 22 48  1  0
 23 49  1  0
 23 50  1  0
 24 51  1  0
 25 52  1  0
 27 53  1  0
 28 54  1  0
 28 55  1  0
 29 56  1  0
 29 57  1  0
M  END
>  <UniqueID>  (55) 
53

>  <SMILES>  (55) 
CCc1csc(CN(C)c2nc(Sc3ccc(NC(=O)C4CC4)cc3)n(C3CC3)n2)n1

>  <Energy>  (55) 
643.7139155015263

>  <Genealogy>  (55) 
CCc1csc(CN(C)c2nc(Sc3ccc(NC(=O)C4CC4)cc3)n(C3CC3)n2)n1 (3D coordinates assigned)
CCc1csc(CN(C)c2nc(Sc3ccc(NC(=O)C4CC4)cc3)n(C3CC3)n2)n1 (nonaromatic ring conformer: 643.7139155015263 kcal/mol)

>  <smiles>  (55) 
CCc1csc(CN(C)c2nc(Sc3ccc(NC(=O)C4CC4)cc3)n(C3CC3)n2)n1

>  <score_type>  (55) 
oracle

>  <origin>  (55) 
adg

>  <m_score__min__energy>  (55) 
-9.6999999999999993

>  <m_primary>  (55) 
energy

$$$$
55:0
     RDKit          3D

 42 44  0  0  0  0  0  0  0  0999 V2000
   63.5410   34.2130   48.2800 O   0  0  0  0  0  0  0  0  0  0  0  0
   62.7500   33.5990   47.1600 S   0  0  0  0  0  0  0  0  0  0  0  0
   63.4070   33.9220   45.8470 O   0  0  0  0  0  0  0  0  0  0  0  0
   61.1310   34.2170   47.1950 N   0  0  0  0  0  0  0  0  0  0  0  0
   59.9920   33.5870   46.5920 C   0  0  0  0  0  0  0  0  0  0  0  0
   59.6000   33.8570   45.2690 C   0  0  0  0  0  0  0  0  0  0  0  0
   58.4860   33.2130   44.7210 C   0  0  0  0  0  0  0  0  0  0  0  0
   57.7470   32.2980   45.4810 C   0  0  0  0  0  0  0  0  0  0  0  0
   56.6080   31.6690   44.8790 N   0  0  0  0  0  0  0  0  0  0  0  0
   56.5400   30.0170   44.3550 S   0  0  0  0  0  0  0  0  0  0  0  0
   56.5260   29.9780   42.8530 O   0  0  0  0  0  0  0  0  0  0  0  0
   55.2760   29.3910   44.8730 O   0  0  0  0  0  0  0  0  0  0  0  0
   57.9180   29.1220   44.9860 C   0  0  0  0  0  0  0  0  0  0  0  0
   59.2150   29.4310   44.5510 C   0  0  0  0  0  0  0  0  0  0  0  0
   60.3100   28.7140   45.0450 C   0  0  0  0  0  0  0  0  0  0  0  0
   60.1150   27.6920   45.9780 C   0  0  0  0  0  0  0  0  0  0  0  0
   58.8250   27.3860   46.4190 C   0  0  0  0  0  0  0  0  0  0  0  0
   57.7270   28.0990   45.9260 C   0  0  0  0  0  0  0  0  0  0  0  0
   58.1410   32.0290   46.8030 C   0  0  0  0  0  0  0  0  0  0  0  0
   59.2550   32.6710   47.3510 C   0  0  0  0  0  0  0  0  0  0  0  0
   62.7110   31.8790   47.3750 N   0  0  0  0  0  0  0  0  0  0  0  0
   61.8670   31.2060   48.3270 C   0  0  0  0  0  0  0  0  0  0  0  0
   61.8500   31.6510   49.6600 C   0  0  0  0  0  0  0  0  0  0  0  0
   61.0410   31.0190   50.6090 C   0  0  0  0  0  0  0  0  0  0  0  0
   60.2420   29.9350   50.2390 C   0  0  0  0  0  0  0  0  0  0  0  0
   60.2510   29.4820   48.9180 C   0  0  0  0  0  0  0  0  0  0  0  0
   61.0590   30.1090   47.9640 C   0  0  0  0  0  0  0  0  0  0  0  0
   60.1708   34.5764   44.6635 H   0  0  0  0  0  0  0  0  0  0  0  0
   58.1878   33.4271   43.6841 H   0  0  0  0  0  0  0  0  0  0  0  0
   59.3715   30.2383   43.8204 H   0  0  0  0  0  0  0  0  0  0  0  0
   61.3258   28.9550   44.6986 H   0  0  0  0  0  0  0  0  0  0  0  0
   60.9769   27.1286   46.3651 H   0  0  0  0  0  0  0  0  0  0  0  0
   58.6725   26.5830   47.1552 H   0  0  0  0  0  0  0  0  0  0  0  0
   56.7127   27.8569   46.2761 H   0  0  0  0  0  0  0  0  0  0  0  0
   57.5701   31.3101   47.4090 H   0  0  0  0  0  0  0  0  0  0  0  0
   59.5548   32.4546   48.3870 H   0  0  0  0  0  0  0  0  0  0  0  0
   63.3590   31.3130   46.7820 H   0  0  0  0  0  0  0  0  0  0  0  0
   62.4781   32.5031   49.9589 H   0  0  0  0  0  0  0  0  0  0  0  0
   61.0338   31.3763   51.6493 H   0  0  0  0  0  0  0  0  0  0  0  0
   59.6064   29.4386   50.9871 H   0  0  0  0  0  0  0  0  0  0  0  0
   59.6204   28.6291   48.6268 H   0  0  0  0  0  0  0  0  0  0  0  0
   61.0641   29.7448   46.9261 H   0  0  0  0  0  0  0  0  0  0  0  0
  1  2  2  0
  2  3  2  0
  2  4  1  0
  4  5  1  0
  5  6  2  0
  6  7  1  0
  7  8  2  0
  8  9  1  0
  9 10  1  0
 10 11  2  0
 10 12  2  0
 10 13  1  0
 13 14  2  0
 14 15  1  0
 15 16  2  0
 16 17  1  0
 17 18  2  0
  8 19  1  0
 19 20  2  0
  2 21  1  0
 21 22  1  0
 22 23  2  0
 23 24  1  0
 24 25  2  0
 25 26  1  0
 26 27  2  0
 20  5  1  0
 27 22  1  0
 18 13  1  0
  6 28  1  0
  7 29  1  0
 14 30  1  0
 15 31  1  0
 16 32  1  0
 17 33  1  0
 18 34  1  0
 19 35  1  0
 20 36  1  0
 21 37  1  0
 23 38  1  0
 24 39  1  0
 25 40  1  0
 26 41  1  0
 27 42  1  0
M  CHG  2   4  -1   9  -1
M  END
>  <UniqueID>  (56) 
54

>  <SMILES>  (56) 
O=S(=O)([N-]c1ccc([N-]S(=O)(=O)c2ccccc2)cc1)Nc1ccccc1

>  <Energy>  (56) 
52.73119813002811

>  <Genealogy>  (56) 
O=S(=O)([N-]c1ccc([N-]S(=O)(=O)c2ccccc2)cc1)Nc1ccccc1 (protonated)
O=S(=O)([N-]c1ccc([N-]S(=O)(=O)c2ccccc2)cc1)Nc1ccccc1 (3D coordinates assigned)
O=S(=O)([N-]c1ccc([N-]S(=O)(=O)c2ccccc2)cc1)Nc1ccccc1 (optimized conformer: 52.73119813002811 kcal/mol)

>  <smiles>  (56) 
O=S(=O)(Nc1ccccc1)Nc1ccc(NS(=O)(=O)c2ccccc2)cc1

>  <score_type>  (56) 
oracle

>  <origin>  (56) 
adg

>  <m_score__min__energy>  (56) 
-12.15

>  <m_primary>  (56) 
energy

$$$$
56:0
     RDKit          3D

 43 44  0  0  0  0  0  0  0  0999 V2000
   56.8640   30.4060   52.4630 C   0  0  0  0  0  0  0  0  0  0  0  0
   57.5900   30.0360   51.2960 O   0  0  0  0  0  0  0  0  0  0  0  0
   58.3140   30.9330   50.4950 C   0  0  0  0  0  0  0  0  0  0  0  0
   58.4960   32.2830   50.8500 C   0  0  0  0  0  0  0  0  0  0  0  0
   59.2250   33.1370   50.0170 C   0  0  0  0  0  0  0  0  0  0  0  0
   59.7820   32.6590   48.8210 C   0  0  0  0  0  0  0  0  0  0  0  0
   60.5490   33.5900   47.9140 C   0  0  0  0  0  0  0  0  0  0  0  0
   60.1260   33.4740   46.5060 N   0  0  0  0  0  0  0  0  0  0  0  0
   58.9720   34.3210   46.1490 C   0  0  0  0  0  0  0  0  0  0  0  0
   57.9830   33.6110   45.2090 C   0  0  0  0  0  0  0  0  0  0  0  0
   58.6770   32.5540   44.4500 N   0  0  0  0  0  0  0  0  0  0  0  0
   57.7510   31.5660   43.8740 C   0  0  0  0  0  0  0  0  0  0  0  0
   57.7250   30.3030   44.7030 C   0  0  0  0  0  0  0  0  0  0  0  0
   58.8520   29.9960   45.4850 C   0  0  0  0  0  0  0  0  0  0  0  0
   58.8660   28.8600   46.2960 C   0  0  0  0  0  0  0  0  0  0  0  0
   57.7540   28.0190   46.3410 C   0  0  0  0  0  0  0  0  0  0  0  0
   56.6240   28.3090   45.5720 C   0  0  0  0  0  0  0  0  0  0  0  0
   55.5240   27.4590   45.6320 O   0  0  0  0  0  0  0  0  0  0  0  0
   56.5980   29.4480   44.7520 C   0  0  0  0  0  0  0  0  0  0  0  0
   55.1440   29.7680   43.8040 Cl  0  0  0  0  0  0  0  0  0  0  0  0
   59.5970   31.3130   48.4680 C   0  0  0  0  0  0  0  0  0  0  0  0
   58.8680   30.4590   49.3010 C   0  0  0  0  0  0  0  0  0  0  0  0
   57.4346   30.1152   53.3574 H   0  0  0  0  0  0  0  0  0  0  0  0
   56.7060   31.4946   52.4668 H   0  0  0  0  0  0  0  0  0  0  0  0
   55.8903   29.8942   52.4668 H   0  0  0  0  0  0  0  0  0  0  0  0
   58.0634   32.6671   51.7856 H   0  0  0  0  0  0  0  0  0  0  0  0
   59.3629   34.1907   50.3010 H   0  0  0  0  0  0  0  0  0  0  0  0
   60.3846   34.6249   48.2486 H   0  0  0  0  0  0  0  0  0  0  0  0
   61.6123   33.3139   47.9698 H   0  0  0  0  0  0  0  0  0  0  0  0
   59.8940   32.4730   46.3060 H   0  0  0  0  0  0  0  0  0  0  0  0
   60.9310   33.7310   45.8870 H   0  0  0  0  0  0  0  0  0  0  0  0
   58.4419   34.6006   47.0714 H   0  0  0  0  0  0  0  0  0  0  0  0
   59.3590   35.2037   45.6188 H   0  0  0  0  0  0  0  0  0  0  0  0
   57.1745   33.1610   45.8038 H   0  0  0  0  0  0  0  0  0  0  0  0
   57.5646   34.3451   44.5047 H   0  0  0  0  0  0  0  0  0  0  0  0
   59.1810   33.0060   43.6510 H   0  0  0  0  0  0  0  0  0  0  0  0
   56.7393   31.9966   43.8421 H   0  0  0  0  0  0  0  0  0  0  0  0
   58.0935   31.3133   42.8597 H   0  0  0  0  0  0  0  0  0  0  0  0
   59.7309   30.6570   45.4576 H   0  0  0  0  0  0  0  0  0  0  0  0
   59.7552   28.6276   46.9005 H   0  0  0  0  0  0  0  0  0  0  0  0
   57.7667   27.1259   46.9830 H   0  0  0  0  0  0  0  0  0  0  0  0
   60.0276   30.9284   47.5317 H   0  0  0  0  0  0  0  0  0  0  0  0
   58.7289   29.4059   49.0153 H   0  0  0  0  0  0  0  0  0  0  0  0
  1  2  1  0
  2  3  1  0
  3  4  2  0
  4  5  1  0
  5  6  2  0
  6  7  1  0
  7  8  1  0
  8  9  1  0
  9 10  1  0
 10 11  1  0
 11 12  1  0
 12 13  1  0
 13 14  2  0
 14 15  1  0
 15 16  2  0
 16 17  1  0
 17 18  1  0
 17 19  2  0
 19 20  1  0
  6 21  1  0
 21 22  2  0
 22  3  1  0
 19 13  1  0
  1 23  1  0
  1 24  1  0
  1 25  1  0
  4 26  1  0
  5 27  1  0
  7 28  1  0
  7 29  1  0
  8 30  1  0
  8 31  1  0
  9 32  1  0
  9 33  1  0
 10 34  1  0
 10 35  1  0
 11 36  1  0
 12 37  1  0
 12 38  1  0
 14 39  1  0
 15 40  1  0
 16 41  1  0
 21 42  1  0
 22 43  1  0
M  CHG  2   8   1  18  -1
M  END
>  <UniqueID>  (57) 
55

>  <SMILES>  (57) 
COc1ccc(C[NH2+]CCNCc2cccc([O-])c2Cl)cc1

>  <Energy>  (57) 
44.07283225392559

>  <Genealogy>  (57) 
COc1ccc(C[NH2+]CCNCc2cccc([O-])c2Cl)cc1 (protonated)
COc1ccc(C[NH2+]CCNCc2cccc([O-])c2Cl)cc1 (3D coordinates assigned)
COc1ccc(C[NH2+]CCNCc2cccc([O-])c2Cl)cc1 (optimized conformer: 44.07283225392559 kcal/mol)

>  <smiles>  (57) 
COc1ccc(CNCCNCc2cccc(O)c2Cl)cc1

>  <score_type>  (57) 
oracle

>  <origin>  (57) 
adg

>  <m_score__min__energy>  (57) 
-8.5399999999999991

>  <m_primary>  (57) 
energy

$$$$
57:0
     RDKit          3D

 35 36  0  0  0  0  0  0  0  0999 V2000
   57.4450   31.2040   42.7660 O   0  0  0  0  0  0  0  0  0  0  0  0
   56.7060   30.8250   43.7150 C   0  0  0  0  0  0  0  0  0  0  0  0
   55.7470   29.6990   43.5100 C   0  0  0  0  0  0  0  0  0  0  0  0
   55.5810   29.0050   44.7340 O   0  0  0  0  0  0  0  0  0  0  0  0
   56.6340   28.8620   45.6120 N   0  0  0  0  0  0  0  0  0  0  0  0
   57.6380   28.0750   45.3710 C   0  0  0  0  0  0  0  0  0  0  0  0
   57.6320   26.6290   45.7000 C   0  0  0  0  0  0  0  0  0  0  0  0
   58.8220   25.8740   45.6790 C   0  0  0  0  0  0  0  0  0  0  0  0
   58.7980   24.5080   45.9730 C   0  0  0  0  0  0  0  0  0  0  0  0
   57.5900   23.8780   46.2740 C   0  0  0  0  0  0  0  0  0  0  0  0
   56.4000   24.6100   46.2720 C   0  0  0  0  0  0  0  0  0  0  0  0
   56.4140   25.9820   45.9810 C   0  0  0  0  0  0  0  0  0  0  0  0
   55.2200   26.7040   45.9820 O   0  0  0  0  0  0  0  0  0  0  0  0
   56.7490   31.4870   44.9840 N   0  0  0  0  0  0  0  0  0  0  0  0
   57.7580   32.4260   45.3750 C   0  0  0  0  0  0  0  0  0  0  0  0
   57.5600   33.7770   45.0600 C   0  0  0  0  0  0  0  0  0  0  0  0
   58.5440   34.7240   45.3490 C   0  0  0  0  0  0  0  0  0  0  0  0
   59.7320   34.3310   45.9650 C   0  0  0  0  0  0  0  0  0  0  0  0
   59.9300   32.9940   46.3160 C   0  0  0  0  0  0  0  0  0  0  0  0
   58.9410   32.0290   46.0480 C   0  0  0  0  0  0  0  0  0  0  0  0
   59.1200   30.6820   46.5210 N   0  0  0  0  0  0  0  0  0  0  0  0
   60.0010   29.9520   46.0220 O   0  0  0  0  0  0  0  0  0  0  0  0
   58.4510   30.2440   47.6400 O   0  0  0  0  0  0  0  0  0  0  0  0
   54.7769   30.0969   43.1773 H   0  0  0  0  0  0  0  0  0  0  0  0
   56.1380   29.0130   42.7442 H   0  0  0  0  0  0  0  0  0  0  0  0
   58.5362   28.5012   44.9002 H   0  0  0  0  0  0  0  0  0  0  0  0
   59.7753   26.3629   45.4297 H   0  0  0  0  0  0  0  0  0  0  0  0
   59.7330   23.9285   45.9671 H   0  0  0  0  0  0  0  0  0  0  0  0
   57.5746   22.8044   46.5130 H   0  0  0  0  0  0  0  0  0  0  0  0
   55.4480   24.1082   46.4996 H   0  0  0  0  0  0  0  0  0  0  0  0
   55.1530   27.6200   45.5550 H   0  0  0  0  0  0  0  0  0  0  0  0
   56.6217   34.0938   44.5812 H   0  0  0  0  0  0  0  0  0  0  0  0
   58.3823   35.7810   45.0907 H   0  0  0  0  0  0  0  0  0  0  0  0
   60.5142   35.0754   46.1747 H   0  0  0  0  0  0  0  0  0  0  0  0
   60.8673   32.6922   46.8063 H   0  0  0  0  0  0  0  0  0  0  0  0
  1  2  2  0
  2  3  1  0
  3  4  1  0
  4  5  1  0
  5  6  2  3
  6  7  1  0
  7  8  2  0
  8  9  1  0
  9 10  2  0
 10 11  1  0
 11 12  2  0
 12 13  1  0
  2 14  1  0
 14 15  1  0
 15 16  2  0
 16 17  1  0
 17 18  2  0
 18 19  1  0
 19 20  2  0
 20 21  1  0
 21 22  2  0
 21 23  1  0
 12  7  1  0
 20 15  1  0
  3 24  1  0
  3 25  1  0
  6 26  1  0
  8 27  1  0
  9 28  1  0
 10 29  1  0
 11 30  1  0
 13 31  1  0
 16 32  1  0
 17 33  1  0
 18 34  1  0
 19 35  1  0
M  CHG  3  14  -1  21   1  23  -1
M  END
>  <UniqueID>  (58) 
56

>  <SMILES>  (58) 
O=C(CON=Cc1ccccc1O)[N-]c1ccccc1[N+](=O)[O-]

>  <Energy>  (58) 
45.291021386526765

>  <Genealogy>  (58) 
O=C(CON=Cc1ccccc1O)[N-]c1ccccc1[N+](=O)[O-] (protonated)
O=C(CON=Cc1ccccc1O)[N-]c1ccccc1[N+](=O)[O-] (3D coordinates assigned)
O=C(CON=Cc1ccccc1O)[N-]c1ccccc1[N+](=O)[O-] (optimized conformer: 45.291021386526765 kcal/mol)

>  <smiles>  (58) 
O=C(CON=Cc1ccccc1O)Nc1ccccc1[N+](=O)[O-]

>  <score_type>  (58) 
oracle

>  <origin>  (58) 
adg

>  <m_score__min__energy>  (58) 
-10.51

>  <m_primary>  (58) 
energy

$$$$
58:0
     RDKit          3D

 46 48  0  0  0  0  0  0  0  0999 V2000
   53.3430   24.0070   44.9400 C   0  0  0  0  0  0  0  0  0  0  0  0
   54.0200   24.7310   45.9610 O   0  0  0  0  0  0  0  0  0  0  0  0
   55.3430   24.4690   46.3240 C   0  0  0  0  0  0  0  0  0  0  0  0
   56.2660   25.4580   46.2380 N   0  0  0  0  0  0  0  0  0  0  0  0
   57.5590   25.2290   46.5910 C   0  0  0  0  0  0  0  0  0  0  0  0
   58.4640   26.1590   46.4930 N   0  0  0  0  0  0  0  0  0  0  0  0
   58.2920   27.4730   45.9330 C   0  0  0  0  0  0  0  0  0  0  0  0
   59.3840   28.2630   45.5370 C   0  0  0  0  0  0  0  0  0  0  0  0
   59.1750   29.5220   44.9710 C   0  0  0  0  0  0  0  0  0  0  0  0
   57.8680   30.0090   44.7720 C   0  0  0  0  0  0  0  0  0  0  0  0
   57.6180   31.2750   44.2170 O   0  0  0  0  0  0  0  0  0  0  0  0
   56.9830   32.3630   44.8900 C   0  0  0  0  0  0  0  0  0  0  0  0
   57.9630   33.0960   45.7680 C   0  0  0  0  0  0  0  0  0  0  0  0
   58.7660   34.1180   45.2420 C   0  0  0  0  0  0  0  0  0  0  0  0
   59.6680   34.7970   46.0630 C   0  0  0  0  0  0  0  0  0  0  0  0
   59.7710   34.4690   47.4170 C   0  0  0  0  0  0  0  0  0  0  0  0
   58.9650   33.4580   47.9680 C   0  0  0  0  0  0  0  0  0  0  0  0
   59.0690   33.1100   49.4050 C   0  0  0  0  0  0  0  0  0  0  0  0
   58.0510   32.3380   50.0410 N   0  0  0  0  0  0  0  0  0  0  0  0
   60.0610   33.4930   50.0830 O   0  0  0  0  0  0  0  0  0  0  0  0
   58.0570   32.7780   47.1340 C   0  0  0  0  0  0  0  0  0  0  0  0
   56.7760   29.1990   45.1350 C   0  0  0  0  0  0  0  0  0  0  0  0
   55.4650   29.6340   44.9420 O   0  0  0  0  0  0  0  0  0  0  0  0
   56.9940   27.9380   45.7000 C   0  0  0  0  0  0  0  0  0  0  0  0
   57.9250   23.9930   47.0170 N   0  0  0  0  0  0  0  0  0  0  0  0
   57.0060   22.9950   47.1060 C   0  0  0  0  0  0  0  0  0  0  0  0
   57.3710   21.7210   47.5480 O   0  0  0  0  0  0  0  0  0  0  0  0
   57.3330   20.5750   46.7070 C   0  0  0  0  0  0  0  0  0  0  0  0
   55.7170   23.2360   46.7600 N   0  0  0  0  0  0  0  0  0  0  0  0
   52.6603   23.2769   45.3993 H   0  0  0  0  0  0  0  0  0  0  0  0
   52.7666   24.7056   44.3157 H   0  0  0  0  0  0  0  0  0  0  0  0
   54.0787   23.4788   44.3157 H   0  0  0  0  0  0  0  0  0  0  0  0
   60.4090   27.8877   45.6736 H   0  0  0  0  0  0  0  0  0  0  0  0
   60.0376   30.1386   44.6781 H   0  0  0  0  0  0  0  0  0  0  0  0
   56.5764   33.0608   44.1431 H   0  0  0  0  0  0  0  0  0  0  0  0
   56.1756   31.9633   45.5212 H   0  0  0  0  0  0  0  0  0  0  0  0
   58.6849   34.3858   44.1782 H   0  0  0  0  0  0  0  0  0  0  0  0
   60.2999   35.5931   45.6423 H   0  0  0  0  0  0  0  0  0  0  0  0
   60.4877   35.0055   48.0562 H   0  0  0  0  0  0  0  0  0  0  0  0
   57.0460   32.6110   49.9680 H   0  0  0  0  0  0  0  0  0  0  0  0
   57.4151   31.9904   47.5554 H   0  0  0  0  0  0  0  0  0  0  0  0
   55.1480   30.5480   45.2430 H   0  0  0  0  0  0  0  0  0  0  0  0
   56.1342   27.3048   45.9641 H   0  0  0  0  0  0  0  0  0  0  0  0
   57.3029   19.6665   47.3264 H   0  0  0  0  0  0  0  0  0  0  0  0
   56.4357   20.6158   46.0720 H   0  0  0  0  0  0  0  0  0  0  0  0
   58.2310   20.5562   46.0720 H   0  0  0  0  0  0  0  0  0  0  0  0
  1  2  1  0
  2  3  1  0
  3  4  2  0
  4  5  1  0
  5  6  2  3
  6  7  1  0
  7  8  2  0
  8  9  1  0
  9 10  2  0
 10 11  1  0
 11 12  1  0
 12 13  1  0
 13 14  2  0
 14 15  1  0
 15 16  2  0
 16 17  1  0
 17 18  1  0
 18 19  1  0
 18 20  2  0
 17 21  2  0
 10 22  1  0
 22 23  1  0
 22 24  2  0
  5 25  1  0
 25 26  2  0
 26 27  1  0
 27 28  1  0
 26 29  1  0
 29  3  1  0
 24  7  1  0
 21 13  1  0
  1 30  1  0
  1 31  1  0
  1 32  1  0
  8 33  1  0
  9 34  1  0
 12 35  1  0
 12 36  1  0
 14 37  1  0
 15 38  1  0
 16 39  1  0
 19 40  1  0
 21 41  1  0
 23 42  1  0
 24 43  1  0
 28 44  1  0
 28 45  1  0
 28 46  1  0
M  CHG  2  19  -1  29  -1
M  END
>  <UniqueID>  (59) 
57

>  <SMILES>  (59) 
COc1nc(=Nc2ccc(OCc3cccc(C([NH-])=O)c3)c(O)c2)nc(OC)[n-]1

>  <Energy>  (59) 
51.36545216738806

>  <Genealogy>  (59) 
COc1nc(=Nc2ccc(OCc3cccc(C([NH-])=O)c3)c(O)c2)nc(OC)[n-]1 (protonated)
COc1nc(=Nc2ccc(OCc3cccc(C([NH-])=O)c3)c(O)c2)nc(OC)[n-]1 (3D coordinates assigned)
COc1nc(=Nc2ccc(OCc3cccc(C([NH-])=O)c3)c(O)c2)nc(OC)[n-]1 (optimized conformer: 51.36545216738806 kcal/mol)

>  <smiles>  (59) 
COc1nc(=Nc2ccc(OCc3cccc(C(N)=O)c3)c(O)c2)nc(OC)[nH]1

>  <score_type>  (59) 
oracle

>  <origin>  (59) 
adg

>  <m_score__min__energy>  (59) 
-11.91

>  <m_primary>  (59) 
energy

$$$$
59:0
     RDKit          3D

 31 33  0  0  0  0  0  0  0  0999 V2000
   59.4314   34.5509   43.9127 H   0  0  0  0  0  0  0  0  0  0  0  0
   58.8930   33.7940   44.5020 C   0  0  0  0  0  0  0  0  0  0  0  0
   57.9480   32.9800   43.9610 N   0  0  0  0  0  0  0  0  0  0  0  0
   57.4310   32.1340   44.8790 C   0  0  0  0  0  0  0  0  0  0  0  0
   56.5370   31.2420   44.5710 N   0  0  0  0  0  0  0  0  0  0  0  0
   56.6430   29.8410   44.8440 C   0  0  0  0  0  0  0  0  0  0  0  0
   55.5940   29.1430   44.8690 O   0  0  0  0  0  0  0  0  0  0  0  0
   57.9390   29.2160   45.1680 C   0  0  0  0  0  0  0  0  0  0  0  0
   58.2070   28.0660   46.3680 S   0  0  0  0  0  0  0  0  0  0  0  0
   59.8440   27.8440   46.0540 C   0  0  0  0  0  0  0  0  0  0  0  0
   60.5188   27.1663   46.5975 H   0  0  0  0  0  0  0  0  0  0  0  0
   60.1970   28.6640   44.9900 C   0  0  0  0  0  0  0  0  0  0  0  0
   61.2161   28.7097   44.5785 H   0  0  0  0  0  0  0  0  0  0  0  0
   59.1350   29.4270   44.4900 C   0  0  0  0  0  0  0  0  0  0  0  0
   59.2363   30.1240   43.6451 H   0  0  0  0  0  0  0  0  0  0  0  0
   58.1430   32.3400   46.3990 S   0  0  0  0  0  0  0  0  0  0  0  0
   59.1260   33.5950   45.8590 C   0  0  0  0  0  0  0  0  0  0  0  0
   60.1620   34.2930   46.6810 C   0  0  0  0  0  0  0  0  0  0  0  0
   60.6116   35.1033   46.0883 H   0  0  0  0  0  0  0  0  0  0  0  0
   59.6871   34.7079   47.5823 H   0  0  0  0  0  0  0  0  0  0  0  0
   61.2350   33.3230   47.0920 C   0  0  0  0  0  0  0  0  0  0  0  0
   60.9390   32.2530   47.9480 C   0  0  0  0  0  0  0  0  0  0  0  0
   59.9085   32.0998   48.3009 H   0  0  0  0  0  0  0  0  0  0  0  0
   61.9510   31.3830   48.3520 C   0  0  0  0  0  0  0  0  0  0  0  0
   61.7235   30.5384   49.0190 H   0  0  0  0  0  0  0  0  0  0  0  0
   63.2560   31.5940   47.9020 C   0  0  0  0  0  0  0  0  0  0  0  0
   64.0602   30.9098   48.2104 H   0  0  0  0  0  0  0  0  0  0  0  0
   63.5350   32.6440   47.0830 N   0  0  0  0  0  0  0  0  0  0  0  0
   64.5170   32.7930   46.7600 H   0  0  0  0  0  0  0  0  0  0  0  0
   62.5630   33.5070   46.6760 C   0  0  0  0  0  0  0  0  0  0  0  0
   62.8196   34.3511   46.0190 H   0  0  0  0  0  0  0  0  0  0  0  0
  1  2  1  0
  2  3  1  0
  3  4  1  0
  4  5  2  0
  5  6  1  0
  6  7  2  0
  6  8  1  0
  8  9  1  0
  9 10  1  0
 10 11  1  0
 10 12  2  0
 12 13  1  0
 12 14  1  0
 14 15  1  0
  4 16  1  0
 16 17  1  0
 17 18  1  0
 18 19  1  0
 18 20  1  0
 18 21  1  0
 21 22  2  0
 22 23  1  0
 22 24  1  0
 24 25  1  0
 24 26  2  0
 26 27  1  0
 26 28  1  0
 28 29  1  0
 28 30  2  0
 30 31  1  0
 17  2  2  0
 30 21  1  0
 14  8  2  0
M  CHG  2   3  -1  28   1
M  END
>  <UniqueID>  (60) 
58

>  <SMILES>  (60) 
O=C(/N=c1/[n-]cc(Cc2ccc[nH+]c2)s1)c1cccs1

>  <Energy>  (60) 
94.8108939746045

>  <Genealogy>  (60) 
O=C(N=c1[n-]cc(Cc2ccc[nH+]c2)s1)c1cccs1 (protonated)
O=C(/N=c1/[n-]cc(Cc2ccc[nH+]c2)s1)c1cccs1 (cis-trans isomerization)
O=C(/N=c1/[n-]cc(Cc2ccc[nH+]c2)s1)c1cccs1 (3D coordinates assigned)
O=C(/N=c1/[n-]cc(Cc2ccc[nH+]c2)s1)c1cccs1 (optimized conformer: 94.8108939746045 kcal/mol)

>  <smiles>  (60) 
O=C(N=c1[nH]cc(Cc2cccnc2)s1)c1cccs1

>  <score_type>  (60) 
oracle

>  <origin>  (60) 
adg

>  <m_score__min__energy>  (60) 
-8.8100000000000005

>  <m_primary>  (60) 
energy

$$$$
60:0
     RDKit          3D

 60 64  0  0  0  0  0  0  0  0999 V2000
   58.9400   26.1520   45.1000 O   0  0  0  0  0  0  0  0  0  0  0  0
   58.3450   27.0620   45.7210 C   0  0  0  0  0  0  0  0  0  0  0  0
   57.0670   27.5760   45.3030 N   0  0  0  0  0  0  0  0  0  0  0  0
   56.9690   28.7410   44.7540 C   0  0  0  0  0  0  0  0  0  0  0  0
   56.1910   29.7460   45.2440 N   0  0  0  0  0  0  0  0  0  0  0  0
   56.3630   30.7620   44.4180 N   0  0  0  0  0  0  0  0  0  0  0  0
   57.1980   30.4580   43.4430 N   0  0  0  0  0  0  0  0  0  0  0  0
   57.5790   29.1990   43.6470 N   0  0  0  0  0  0  0  0  0  0  0  0
   58.8920   27.6950   46.9320 C   0  0  0  0  0  0  0  0  0  0  0  0
   58.5150   28.9930   47.2260 C   0  0  0  0  0  0  0  0  0  0  0  0
   59.0080   29.6470   48.3630 C   0  0  0  0  0  0  0  0  0  0  0  0
   59.9000   28.9700   49.2160 C   0  0  0  0  0  0  0  0  0  0  0  0
   60.3390   29.7320   50.4060 C   0  0  0  0  0  0  0  0  0  0  0  0
   60.9810   30.9690   49.9280 N   0  0  0  0  0  0  0  0  0  0  0  0
   62.3090   30.9750   49.7550 C   0  0  0  0  0  0  0  0  0  0  0  0
   62.8660   32.1590   49.2250 C   0  0  0  0  0  0  0  0  0  0  0  0
   64.3230   32.1700   49.0150 C   0  0  0  0  0  0  0  0  0  0  0  0
   65.1210   32.8550   50.0270 C   0  0  0  0  0  0  0  0  0  0  0  0
   64.4660   33.6190   50.9670 C   0  0  0  0  0  0  0  0  0  0  0  0
   65.0820   34.3020   51.9870 C   0  0  0  0  0  0  0  0  0  0  0  0
   66.4740   34.2060   52.0690 C   0  0  0  0  0  0  0  0  0  0  0  0
   67.1220   33.4500   51.1360 C   0  0  0  0  0  0  0  0  0  0  0  0
   68.4710   33.3660   51.2160 F   0  0  0  0  0  0  0  0  0  0  0  0
   66.4920   32.7740   50.1230 C   0  0  0  0  0  0  0  0  0  0  0  0
   62.0180   33.1960   48.9340 C   0  0  0  0  0  0  0  0  0  0  0  0
   62.4890   34.2560   48.4620 O   0  0  0  0  0  0  0  0  0  0  0  0
   60.6780   33.1630   49.1180 N   0  0  0  0  0  0  0  0  0  0  0  0
   59.8730   34.3220   48.7830 C   0  0  0  0  0  0  0  0  0  0  0  0
   59.1930   34.2410   47.4760 C   0  0  0  0  0  0  0  0  0  0  0  0
   59.7610   34.9680   46.4300 C   0  0  0  0  0  0  0  0  0  0  0  0
   59.2160   34.9660   45.1540 C   0  0  0  0  0  0  0  0  0  0  0  0
   58.0710   34.2320   44.8640 C   0  0  0  0  0  0  0  0  0  0  0  0
   57.5150   33.5190   45.8990 C   0  0  0  0  0  0  0  0  0  0  0  0
   58.0730   33.5280   47.1840 C   0  0  0  0  0  0  0  0  0  0  0  0
   57.4230   32.8060   48.1080 F   0  0  0  0  0  0  0  0  0  0  0  0
   60.1860   32.0260   49.6230 C   0  0  0  0  0  0  0  0  0  0  0  0
   58.9690   31.8880   49.8460 O   0  0  0  0  0  0  0  0  0  0  0  0
   60.2680   27.6850   48.9180 C   0  0  0  0  0  0  0  0  0  0  0  0
   59.7660   27.0530   47.7820 C   0  0  0  0  0  0  0  0  0  0  0  0
   57.5160   31.0460   42.6670 H   0  0  0  0  0  0  0  0  0  0  0  0
   58.2510   28.6970   43.0210 H   0  0  0  0  0  0  0  0  0  0  0  0
   57.8180   29.5195   46.5575 H   0  0  0  0  0  0  0  0  0  0  0  0
   58.7010   30.6793   48.5868 H   0  0  0  0  0  0  0  0  0  0  0  0
   59.4711   29.9783   51.0354 H   0  0  0  0  0  0  0  0  0  0  0  0
   61.0424   29.1383   51.0083 H   0  0  0  0  0  0  0  0  0  0  0  0
   62.9315   30.1052   50.0118 H   0  0  0  0  0  0  0  0  0  0  0  0
   64.6626   31.1246   48.9727 H   0  0  0  0  0  0  0  0  0  0  0  0
   64.4793   32.7387   48.0865 H   0  0  0  0  0  0  0  0  0  0  0  0
   63.3704   33.6872   50.8958 H   0  0  0  0  0  0  0  0  0  0  0  0
   64.5047   34.8989   52.7084 H   0  0  0  0  0  0  0  0  0  0  0  0
   67.0311   34.7250   52.8629 H   0  0  0  0  0  0  0  0  0  0  0  0
   67.0706   32.1787   49.4013 H   0  0  0  0  0  0  0  0  0  0  0  0
   59.1058   34.4435   49.5619 H   0  0  0  0  0  0  0  0  0  0  0  0
   60.5650   35.1749   48.7219 H   0  0  0  0  0  0  0  0  0  0  0  0
   60.6677   35.5604   46.6223 H   0  0  0  0  0  0  0  0  0  0  0  0
   59.6974   35.5545   44.3590 H   0  0  0  0  0  0  0  0  0  0  0  0
   57.6318   34.2225   43.8555 H   0  0  0  0  0  0  0  0  0  0  0  0
   56.6077   32.9254   45.7135 H   0  0  0  0  0  0  0  0  0  0  0  0
   60.9641   27.1484   49.5794 H   0  0  0  0  0  0  0  0  0  0  0  0
   60.0737   26.0207   47.5594 H   0  0  0  0  0  0  0  0  0  0  0  0
  1  2  2  0
  2  3  1  0
  3  4  2  3
  4  5  1  0
  5  6  2  0
  6  7  1  0
  7  8  1  0
  2  9  1  0
  9 10  2  0
 10 11  1  0
 11 12  2  0
 12 13  1  0
 13 14  1  0
 14 15  1  0
 15 16  2  0
 16 17  1  0
 17 18  1  0
 18 19  2  0
 19 20  1  0
 20 21  2  0
 21 22  1  0
 22 23  1  0
 22 24  2  0
 16 25  1  0
 25 26  2  0
 25 27  1  0
 27 28  1  0
 28 29  1  0
 29 30  2  0
 30 31  1  0
 31 32  2  0
 32 33  1  0
 33 34  2  0
 34 35  1  0
 27 36  1  0
 36 37  2  0
 12 38  1  0
 38 39  2  0
  8  4  1  0
 39  9  1  0
 36 14  1  0
 24 18  1  0
 34 29  1  0
  7 40  1  0
  8 41  1  0
 10 42  1  0
 11 43  1  0
 13 44  1  0
 13 45  1  0
 15 46  1  0
 17 47  1  0
 17 48  1  0
 19 49  1  0
 20 50  1  0
 21 51  1  0
 24 52  1  0
 28 53  1  0
 28 54  1  0
 30 55  1  0
 31 56  1  0
 32 57  1  0
 33 58  1  0
 38 59  1  0
 39 60  1  0
M  END
>  <smiles>  (61) 
O=C(N=c1nn[nH][nH]1)c1ccc(Cn2cc(Cc3cccc(F)c3)c(=O)n(Cc3ccccc3F)c2=O)cc1

>  <score_type>  (61) 
oracle

>  <origin>  (61) 
adg

>  <m_score__min__energy>  (61) 
-10.67

>  <m_primary>  (61) 
energy

$$$$
61:0
     RDKit          3D

 39 42  0  0  0  0  0  0  0  0999 V2000
   63.2050   34.1520   46.3720 C   0  0  0  0  0  0  0  0  0  0  0  0
   62.0180   33.7610   47.1540 N   0  0  0  0  0  0  0  0  0  0  0  0
   62.1080   33.4820   48.5030 C   0  0  0  0  0  0  0  0  0  0  0  0
   60.9280   33.3220   49.2750 C   0  0  0  0  0  0  0  0  0  0  0  0
   59.6940   33.2960   48.6270 C   0  0  0  0  0  0  0  0  0  0  0  0
   59.6190   33.4580   47.2450 C   0  0  0  0  0  0  0  0  0  0  0  0
   58.0530   33.4040   46.4230 S   0  0  0  0  0  0  0  0  0  0  0  0
   56.9610   33.4570   47.4540 O   0  0  0  0  0  0  0  0  0  0  0  0
   57.9190   34.5950   45.5180 O   0  0  0  0  0  0  0  0  0  0  0  0
   57.8740   31.9380   45.4550 C   0  0  0  0  0  0  0  0  0  0  0  0
   57.3980   32.0180   44.1370 C   0  0  0  0  0  0  0  0  0  0  0  0
   57.2320   30.8570   43.3740 C   0  0  0  0  0  0  0  0  0  0  0  0
   57.5360   29.6080   43.9260 C   0  0  0  0  0  0  0  0  0  0  0  0
   57.3680   28.4810   43.1870 F   0  0  0  0  0  0  0  0  0  0  0  0
   58.0010   29.5200   45.2420 C   0  0  0  0  0  0  0  0  0  0  0  0
   58.1690   30.6780   46.0080 C   0  0  0  0  0  0  0  0  0  0  0  0
   58.6090   30.5710   47.2890 F   0  0  0  0  0  0  0  0  0  0  0  0
   60.7990   33.6990   46.5190 C   0  0  0  0  0  0  0  0  0  0  0  0
   60.7230   33.8670   45.2690 O   0  0  0  0  0  0  0  0  0  0  0  0
   60.9890   33.0660   50.7770 C   0  0  0  0  0  0  0  0  0  0  0  0
   62.2030   33.7360   51.4550 C   0  0  0  0  0  0  0  0  0  0  0  0
   63.4190   33.5110   50.6210 C   0  0  0  0  0  0  0  0  0  0  0  0
   64.7190   33.2410   50.9880 C   0  0  0  0  0  0  0  0  0  0  0  0
   65.4240   32.9490   49.8750 N   0  0  0  0  0  0  0  0  0  0  0  0
   64.6120   33.0420   48.8300 N   0  0  0  0  0  0  0  0  0  0  0  0
   63.3880   33.4120   49.2580 C   0  0  0  0  0  0  0  0  0  0  0  0
   64.0227   34.4214   47.0567 H   0  0  0  0  0  0  0  0  0  0  0  0
   63.5200   33.3101   45.7379 H   0  0  0  0  0  0  0  0  0  0  0  0
   62.9580   35.0162   45.7379 H   0  0  0  0  0  0  0  0  0  0  0  0
   58.7735   33.1466   49.2104 H   0  0  0  0  0  0  0  0  0  0  0  0
   57.1542   32.9984   43.7018 H   0  0  0  0  0  0  0  0  0  0  0  0
   56.8625   30.9263   42.3402 H   0  0  0  0  0  0  0  0  0  0  0  0
   58.2354   28.5368   45.6760 H   0  0  0  0  0  0  0  0  0  0  0  0
   60.0701   33.4585   51.2369 H   0  0  0  0  0  0  0  0  0  0  0  0
   61.0896   31.9802   50.9215 H   0  0  0  0  0  0  0  0  0  0  0  0
   62.0194   34.8161   51.5532 H   0  0  0  0  0  0  0  0  0  0  0  0
   62.3548   33.3000   52.4534 H   0  0  0  0  0  0  0  0  0  0  0  0
   65.1151   33.2602   52.0140 H   0  0  0  0  0  0  0  0  0  0  0  0
   64.8990   32.7820   47.8630 H   0  0  0  0  0  0  0  0  0  0  0  0
  1  2  1  0
  2  3  1  0
  3  4  2  0
  4  5  1  0
  5  6  2  0
  6  7  1  0
  7  8  2  0
  7  9  2  0
  7 10  1  0
 10 11  2  0
 11 12  1  0
 12 13  2  0
 13 14  1  0
 13 15  1  0
 15 16  2  0
 16 17  1  0
  6 18  1  0
 18 19  2  0
  4 20  1  0
 20 21  1  0
 21 22  1  0
 22 23  1  0
 23 24  2  0
 24 25  1  0
 25 26  1  0
 18  2  1  0
 26 22  2  0
 26  3  1  0
 16 10  1  0
  1 27  1  0
  1 28  1  0
  1 29  1  0
  5 30  1  0
 11 31  1  0
 12 32  1  0
 15 33  1  0
 20 34  1  0
 20 35  1  0
 21 36  1  0
 21 37  1  0
 23 38  1  0
 25 39  1  0
M  END
>  <UniqueID>  (62) 
59

>  <SMILES>  (62) 
Cn1c2c(cc(S(=O)(=O)c3ccc(F)cc3F)c1=O)CCc1cn[nH]c1-2

>  <Energy>  (62) 
93.45352198134442

>  <Genealogy>  (62) 
Cn1c2c(cc(S(=O)(=O)c3ccc(F)cc3F)c1=O)CCc1cn[nH]c1-2 (3D coordinates assigned)
Cn1c2c(cc(S(=O)(=O)c3ccc(F)cc3F)c1=O)CCc1cn[nH]c1-2 (nonaromatic ring conformer: 93.45352198134442 kcal/mol)

>  <smiles>  (62) 
Cn1c2c(cc(S(=O)(=O)c3ccc(F)cc3F)c1=O)CCc1cn[nH]c1-2

>  <score_type>  (62) 
oracle

>  <origin>  (62) 
adg

>  <m_score__min__energy>  (62) 
-9.2899999999999991

>  <m_primary>  (62) 
energy

$$$$
62:0
     RDKit          3D

 57 59  0  0  0  0  0  0  0  0999 V2000
   63.3520   32.6820   47.7290 C   0  0  0  0  0  0  0  0  0  0  0  0
   62.4210   33.8100   48.1300 C   0  0  0  0  0  0  0  0  0  0  0  0
   61.5310   33.3500   49.1410 O   0  0  0  0  0  0  0  0  0  0  0  0
   60.1440   33.2350   48.9300 C   0  0  0  0  0  0  0  0  0  0  0  0
   59.3280   33.5510   49.8460 O   0  0  0  0  0  0  0  0  0  0  0  0
   59.6300   32.6960   47.6470 C   0  0  0  0  0  0  0  0  0  0  0  0
   58.8090   33.5220   46.8570 C   0  0  0  0  0  0  0  0  0  0  0  0
   58.2450   33.0500   45.6650 C   0  0  0  0  0  0  0  0  0  0  0  0
   57.3690   33.9570   44.8410 C   0  0  0  0  0  0  0  0  0  0  0  0
   58.5180   31.7400   45.2330 C   0  0  0  0  0  0  0  0  0  0  0  0
   57.9290   31.2580   44.0170 N   0  0  0  0  0  0  0  0  0  0  0  0
   56.6780   30.0610   43.9580 S   0  0  0  0  0  0  0  0  0  0  0  0
   55.4730   30.5150   44.7360 O   0  0  0  0  0  0  0  0  0  0  0  0
   56.2650   29.8470   42.5280 O   0  0  0  0  0  0  0  0  0  0  0  0
   57.3180   28.5550   44.6030 C   0  0  0  0  0  0  0  0  0  0  0  0
   57.8070   27.5790   43.7260 C   0  0  0  0  0  0  0  0  0  0  0  0
   58.3770   26.4050   44.2280 C   0  0  0  0  0  0  0  0  0  0  0  0
   58.4450   26.1870   45.6160 C   0  0  0  0  0  0  0  0  0  0  0  0
   59.0420   25.0050   46.1640 N   0  0  0  0  0  0  0  0  0  0  0  0
   59.0780   23.7070   45.5520 C   0  0  0  0  0  0  0  0  0  0  0  0
   60.1420   23.0360   45.6200 O   0  0  0  0  0  0  0  0  0  0  0  0
   57.9120   23.1340   44.9270 N   0  0  0  0  0  0  0  0  0  0  0  0
   56.5530   23.4710   45.3620 C   0  0  0  0  0  0  0  0  0  0  0  0
   55.7110   22.1940   45.4000 C   0  0  0  0  0  0  0  0  0  0  0  0
   55.7580   21.5290   44.1510 O   0  0  0  0  0  0  0  0  0  0  0  0
   57.0760   21.0760   43.8940 C   0  0  0  0  0  0  0  0  0  0  0  0
   58.0450   22.2570   43.7610 C   0  0  0  0  0  0  0  0  0  0  0  0
   57.9840   27.1790   46.4890 C   0  0  0  0  0  0  0  0  0  0  0  0
   57.4200   28.3580   45.9880 C   0  0  0  0  0  0  0  0  0  0  0  0
   59.3560   30.9200   46.0010 C   0  0  0  0  0  0  0  0  0  0  0  0
   59.9230   31.3860   47.1980 C   0  0  0  0  0  0  0  0  0  0  0  0
   60.8270   30.4530   47.9730 C   0  0  0  0  0  0  0  0  0  0  0  0
   63.7516   32.1978   48.6322 H   0  0  0  0  0  0  0  0  0  0  0  0
   62.7971   31.9433   47.1320 H   0  0  0  0  0  0  0  0  0  0  0  0
   64.1825   33.0867   47.1320 H   0  0  0  0  0  0  0  0  0  0  0  0
   63.0115   34.6536   48.5167 H   0  0  0  0  0  0  0  0  0  0  0  0
   61.8436   34.1397   47.2537 H   0  0  0  0  0  0  0  0  0  0  0  0
   58.6072   34.5538   47.1805 H   0  0  0  0  0  0  0  0  0  0  0  0
   56.7616   34.5858   45.5086 H   0  0  0  0  0  0  0  0  0  0  0  0
   57.9989   34.5977   44.2063 H   0  0  0  0  0  0  0  0  0  0  0  0
   56.7068   33.3498   44.2063 H   0  0  0  0  0  0  0  0  0  0  0  0
   57.7425   27.7363   42.6392 H   0  0  0  0  0  0  0  0  0  0  0  0
   58.7739   25.6488   43.5347 H   0  0  0  0  0  0  0  0  0  0  0  0
   56.5877   23.9199   46.3657 H   0  0  0  0  0  0  0  0  0  0  0  0
   56.1058   24.1903   44.6601 H   0  0  0  0  0  0  0  0  0  0  0  0
   56.1032   21.5254   46.1805 H   0  0  0  0  0  0  0  0  0  0  0  0
   54.6673   22.4637   45.6192 H   0  0  0  0  0  0  0  0  0  0  0  0
   57.4039   20.4329   44.7240 H   0  0  0  0  0  0  0  0  0  0  0  0
   57.0760   20.5136   42.9487 H   0  0  0  0  0  0  0  0  0  0  0  0
   59.0766   21.8796   43.7023 H   0  0  0  0  0  0  0  0  0  0  0  0
   57.8082   22.8235   42.8483 H   0  0  0  0  0  0  0  0  0  0  0  0
   58.0654   27.0312   47.5760 H   0  0  0  0  0  0  0  0  0  0  0  0
   57.0564   29.1309   46.6811 H   0  0  0  0  0  0  0  0  0  0  0  0
   59.5726   29.8965   45.6610 H   0  0  0  0  0  0  0  0  0  0  0  0
   60.6764   30.6084   49.0515 H   0  0  0  0  0  0  0  0  0  0  0  0
   60.5860   29.4111   47.7155 H   0  0  0  0  0  0  0  0  0  0  0  0
   61.8760   30.6610   47.7155 H   0  0  0  0  0  0  0  0  0  0  0  0
  1  2  1  0
  2  3  1  0
  3  4  1  0
  4  5  2  0
  4  6  1  0
  6  7  2  0
  7  8  1  0
  8  9  1  0
  8 10  2  0
 10 11  1  0
 11 12  1  0
 12 13  2  0
 12 14  2  0
 12 15  1  0
 15 16  2  0
 16 17  1  0
 17 18  2  0
 18 19  1  0
 19 20  1  0
 20 21  2  0
 20 22  1  0
 22 23  1  0
 23 24  1  0
 24 25  1  0
 25 26  1  0
 26 27  1  0
 18 28  1  0
 28 29  2  0
 10 30  1  0
 30 31  2  0
 31 32  1  0
 31  6  1  0
 29 15  1  0
 27 22  1  0
  1 33  1  0
  1 34  1  0
  1 35  1  0
  2 36  1  0
  2 37  1  0
  7 38  1  0
  9 39  1  0
  9 40  1  0
  9 41  1  0
 16 42  1  0
 17 43  1  0
 23 44  1  0
 23 45  1  0
 24 46  1  0
 24 47  1  0
 26 48  1  0
 26 49  1  0
 27 50  1  0
 27 51  1  0
 28 52  1  0
 29 53  1  0
 30 54  1  0
 32 55  1  0
 32 56  1  0
 32 57  1  0
M  CHG  2  11  -1  19  -1
M  END
>  <UniqueID>  (63) 
60

>  <SMILES>  (63) 
CCOC(=O)c1cc(C)c([N-]S(=O)(=O)c2ccc([N-]C(=O)N3CCOCC3)cc2)cc1C

>  <Energy>  (63) 
69.6431854471878

>  <Genealogy>  (63) 
CCOC(=O)c1cc(C)c([N-]S(=O)(=O)c2ccc([N-]C(=O)N3CCOCC3)cc2)cc1C (protonated)
CCOC(=O)c1cc(C)c([N-]S(=O)(=O)c2ccc([N-]C(=O)N3CCOCC3)cc2)cc1C (3D coordinates assigned)
CCOC(=O)c1cc(C)c([N-]S(=O)(=O)c2ccc([N-]C(=O)N3CCOCC3)cc2)cc1C (nonaromatic ring conformer: 69.6431854471878 kcal/mol)

>  <smiles>  (63) 
CCOC(=O)c1cc(C)c(NS(=O)(=O)c2ccc(NC(=O)N3CCOCC3)cc2)cc1C

>  <score_type>  (63) 
oracle

>  <origin>  (63) 
adg

>  <m_score__min__energy>  (63) 
-11.609999999999999

>  <m_primary>  (63) 
energy

$$$$
63:0
     RDKit          3D

 46 48  0  0  0  0  0  0  0  0999 V2000
   60.7630   27.7360   49.0580 C   0  0  0  0  0  0  0  0  0  0  0  0
   60.6670   27.4850   47.6610 O   0  0  0  0  0  0  0  0  0  0  0  0
   59.6810   28.0300   46.8250 C   0  0  0  0  0  0  0  0  0  0  0  0
   60.0440   29.0640   45.9540 C   0  0  0  0  0  0  0  0  0  0  0  0
   59.0910   29.6630   45.1260 C   0  0  0  0  0  0  0  0  0  0  0  0
   57.7620   29.2220   45.1470 C   0  0  0  0  0  0  0  0  0  0  0  0
   56.5370   30.0760   44.2130 S   0  0  0  0  0  0  0  0  0  0  0  0
   55.2210   29.3530   44.2730 O   0  0  0  0  0  0  0  0  0  0  0  0
   56.9770   30.1700   42.7790 O   0  0  0  0  0  0  0  0  0  0  0  0
   56.3720   31.6670   44.8720 N   0  0  0  0  0  0  0  0  0  0  0  0
   57.5310   32.4270   45.2140 C   0  0  0  0  0  0  0  0  0  0  0  0
   58.0720   33.3500   44.3080 C   0  0  0  0  0  0  0  0  0  0  0  0
   59.1270   34.1780   44.6990 C   0  0  0  0  0  0  0  0  0  0  0  0
   59.6280   34.1060   46.0020 C   0  0  0  0  0  0  0  0  0  0  0  0
   59.0880   33.1850   46.9130 C   0  0  0  0  0  0  0  0  0  0  0  0
   59.6010   33.1800   48.5980 S   0  0  0  0  0  0  0  0  0  0  0  0
   59.8810   34.5970   49.0100 O   0  0  0  0  0  0  0  0  0  0  0  0
   58.4960   32.6410   49.4650 O   0  0  0  0  0  0  0  0  0  0  0  0
   61.0580   32.2250   48.7990 N   0  0  0  0  0  0  0  0  0  0  0  0
   62.0390   32.8770   49.6870 C   0  0  0  0  0  0  0  0  0  0  0  0
   62.7220   34.0880   49.0120 C   0  0  0  0  0  0  0  0  0  0  0  0
   62.6040   34.0900   47.5990 O   0  0  0  0  0  0  0  0  0  0  0  0
   62.8130   32.7920   47.0900 C   0  0  0  0  0  0  0  0  0  0  0  0
   61.6550   31.8600   47.4950 C   0  0  0  0  0  0  0  0  0  0  0  0
   58.0580   32.3290   46.5050 C   0  0  0  0  0  0  0  0  0  0  0  0
   57.3940   28.1780   46.0060 C   0  0  0  0  0  0  0  0  0  0  0  0
   58.3460   27.5840   46.8410 C   0  0  0  0  0  0  0  0  0  0  0  0
   60.4239   26.8495   49.6140 H   0  0  0  0  0  0  0  0  0  0  0  0
   61.8085   27.9555   49.3201 H   0  0  0  0  0  0  0  0  0  0  0  0
   60.1308   28.5972   49.3201 H   0  0  0  0  0  0  0  0  0  0  0  0
   61.0883   29.4079   45.9211 H   0  0  0  0  0  0  0  0  0  0  0  0
   59.3857   30.4837   44.4555 H   0  0  0  0  0  0  0  0  0  0  0  0
   57.6654   33.4223   43.2884 H   0  0  0  0  0  0  0  0  0  0  0  0
   59.5639   34.8874   43.9808 H   0  0  0  0  0  0  0  0  0  0  0  0
   60.4463   34.7718   46.3136 H   0  0  0  0  0  0  0  0  0  0  0  0
   61.5213   33.2223   50.5941 H   0  0  0  0  0  0  0  0  0  0  0  0
   62.8192   32.1399   49.9278 H   0  0  0  0  0  0  0  0  0  0  0  0
   62.2619   35.0084   49.4009 H   0  0  0  0  0  0  0  0  0  0  0  0
   63.7949   34.0260   49.2465 H   0  0  0  0  0  0  0  0  0  0  0  0
   62.8729   32.8389   45.9926 H   0  0  0  0  0  0  0  0  0  0  0  0
   63.7510   32.3943   47.5046 H   0  0  0  0  0  0  0  0  0  0  0  0
   60.8735   31.9136   46.7227 H   0  0  0  0  0  0  0  0  0  0  0  0
   62.0641   30.8433   47.5896 H   0  0  0  0  0  0  0  0  0  0  0  0
   57.6620   31.5766   47.2029 H   0  0  0  0  0  0  0  0  0  0  0  0
   56.3526   27.8242   46.0238 H   0  0  0  0  0  0  0  0  0  0  0  0
   58.0502   26.7649   47.5130 H   0  0  0  0  0  0  0  0  0  0  0  0
  1  2  1  0
  2  3  1  0
  3  4  2  0
  4  5  1  0
  5  6  2  0
  6  7  1  0
  7  8  2  0
  7  9  2  0
  7 10  1  0
 10 11  1  0
 11 12  2  0
 12 13  1  0
 13 14  2  0
 14 15  1  0
 15 16  1  0
 16 17  2  0
 16 18  2  0
 16 19  1  0
 19 20  1  0
 20 21  1  0
 21 22  1  0
 22 23  1  0
 23 24  1  0
 15 25  2  0
  6 26  1  0
 26 27  2  0
 27  3  1  0
 25 11  1  0
 24 19  1  0
  1 28  1  0
  1 29  1  0
  1 30  1  0
  4 31  1  0
  5 32  1  0
 12 33  1  0
 13 34  1  0
 14 35  1  0
 20 36  1  0
 20 37  1  0
 21 38  1  0
 21 39  1  0
 23 40  1  0
 23 41  1  0
 24 42  1  0
 24 43  1  0
 25 44  1  0
 26 45  1  0
 27 46  1  0
M  CHG  1  10  -1
M  END
>  <UniqueID>  (64) 
61

>  <SMILES>  (64) 
COc1ccc(S(=O)(=O)[N-]c2cccc(S(=O)(=O)N3CCOCC3)c2)cc1

>  <Energy>  (64) 
62.313660463432576

>  <Genealogy>  (64) 
COc1ccc(S(=O)(=O)[N-]c2cccc(S(=O)(=O)N3CCOCC3)c2)cc1 (protonated)
COc1ccc(S(=O)(=O)[N-]c2cccc(S(=O)(=O)N3CCOCC3)c2)cc1 (3D coordinates assigned)
COc1ccc(S(=O)(=O)[N-]c2cccc(S(=O)(=O)N3CCOCC3)c2)cc1 (nonaromatic ring conformer: 62.313660463432576 kcal/mol)

>  <smiles>  (64) 
COc1ccc(S(=O)(=O)Nc2cccc(S(=O)(=O)N3CCOCC3)c2)cc1

>  <score_type>  (64) 
oracle

>  <origin>  (64) 
adg

>  <m_score__min__energy>  (64) 
-10.050000000000001

>  <m_primary>  (64) 
energy

$$$$
64:0
     RDKit          3D

 49 51  0  0  0  0  0  0  0  0999 V2000
   60.7320   27.1810   47.8390 N   0  0  0  0  0  0  0  0  0  0  0  0
   59.7110   27.8320   47.0700 C   0  0  0  0  0  0  0  0  0  0  0  0
   59.3560   27.2890   45.8260 C   0  0  0  0  0  0  0  0  0  0  0  0
   58.3800   27.8980   45.0280 C   0  0  0  0  0  0  0  0  0  0  0  0
   58.0680   27.3630   43.7780 O   0  0  0  0  0  0  0  0  0  0  0  0
   57.7240   29.0500   45.4840 C   0  0  0  0  0  0  0  0  0  0  0  0
   56.5100   29.8400   44.4770 S   0  0  0  0  0  0  0  0  0  0  0  0
   56.7890   29.5190   43.0350 O   0  0  0  0  0  0  0  0  0  0  0  0
   55.1360   29.3360   44.8250 O   0  0  0  0  0  0  0  0  0  0  0  0
   56.5780   31.5550   44.7810 N   0  0  0  0  0  0  0  0  0  0  0  0
   57.8200   32.1450   44.2830 C   0  0  0  0  0  0  0  0  0  0  0  0
   58.3630   33.1380   45.2760 C   0  0  0  0  0  0  0  0  0  0  0  0
   59.0720   34.2730   44.8430 C   0  0  0  0  0  0  0  0  0  0  0  0
   59.5820   35.1850   45.7730 C   0  0  0  0  0  0  0  0  0  0  0  0
   59.3830   34.9740   47.1410 C   0  0  0  0  0  0  0  0  0  0  0  0
   58.6710   33.8520   47.5810 C   0  0  0  0  0  0  0  0  0  0  0  0
   58.1580   32.9400   46.6540 C   0  0  0  0  0  0  0  0  0  0  0  0
   58.0750   29.5990   46.7250 C   0  0  0  0  0  0  0  0  0  0  0  0
   59.0730   29.0120   47.5190 C   0  0  0  0  0  0  0  0  0  0  0  0
   59.5370   29.8030   49.0360 S   0  0  0  0  0  0  0  0  0  0  0  0
   59.1950   31.2670   48.9930 O   0  0  0  0  0  0  0  0  0  0  0  0
   58.7710   29.1730   50.1660 O   0  0  0  0  0  0  0  0  0  0  0  0
   61.2450   29.6080   49.3240 N   0  0  0  0  0  0  0  0  0  0  0  0
   61.8250   30.7990   49.9500 C   0  0  0  0  0  0  0  0  0  0  0  0
   62.3300   31.7720   48.9150 C   0  0  0  0  0  0  0  0  0  0  0  0
   61.6320   31.9440   47.7080 C   0  0  0  0  0  0  0  0  0  0  0  0
   62.0770   32.8740   46.7640 C   0  0  0  0  0  0  0  0  0  0  0  0
   63.2290   33.6260   47.0100 C   0  0  0  0  0  0  0  0  0  0  0  0
   63.6530   34.5330   46.0970 F   0  0  0  0  0  0  0  0  0  0  0  0
   63.9430   33.4420   48.1960 C   0  0  0  0  0  0  0  0  0  0  0  0
   63.4980   32.5180   49.1480 C   0  0  0  0  0  0  0  0  0  0  0  0
   61.0500   27.5360   48.7660 H   0  0  0  0  0  0  0  0  0  0  0  0
   61.1870   26.3110   47.4810 H   0  0  0  0  0  0  0  0  0  0  0  0
   59.8512   26.3724   45.4729 H   0  0  0  0  0  0  0  0  0  0  0  0
   57.1330   27.4230   43.3920 H   0  0  0  0  0  0  0  0  0  0  0  0
   58.5617   31.3484   44.1241 H   0  0  0  0  0  0  0  0  0  0  0  0
   57.6143   32.6637   43.3350 H   0  0  0  0  0  0  0  0  0  0  0  0
   59.2262   34.4444   43.7674 H   0  0  0  0  0  0  0  0  0  0  0  0
   60.1397   36.0683   45.4282 H   0  0  0  0  0  0  0  0  0  0  0  0
   59.7863   35.6903   47.8719 H   0  0  0  0  0  0  0  0  0  0  0  0
   58.5150   33.6877   48.6574 H   0  0  0  0  0  0  0  0  0  0  0  0
   57.5918   32.0640   47.0032 H   0  0  0  0  0  0  0  0  0  0  0  0
   57.5608   30.5034   47.0822 H   0  0  0  0  0  0  0  0  0  0  0  0
   61.0553   31.2933   50.5609 H   0  0  0  0  0  0  0  0  0  0  0  0
   62.6746   30.4841   50.5737 H   0  0  0  0  0  0  0  0  0  0  0  0
   60.7322   31.3448   47.5051 H   0  0  0  0  0  0  0  0  0  0  0  0
   61.5196   33.0141   45.8261 H   0  0  0  0  0  0  0  0  0  0  0  0
   64.8572   34.0247   48.3822 H   0  0  0  0  0  0  0  0  0  0  0  0
   64.0635   32.3753   50.0806 H   0  0  0  0  0  0  0  0  0  0  0  0
  1  2  1  0
  2  3  2  0
  3  4  1  0
  4  5  1  0
  4  6  2  0
  6  7  1  0
  7  8  2  0
  7  9  2  0
  7 10  1  0
 10 11  1  0
 11 12  1  0
 12 13  2  0
 13 14  1  0
 14 15  2  0
 15 16  1  0
 16 17  2  0
  6 18  1  0
 18 19  2  0
 19 20  1  0
 20 21  2  0
 20 22  2  0
 20 23  1  0
 23 24  1  0
 24 25  1  0
 25 26  2  0
 26 27  1  0
 27 28  2  0
 28 29  1  0
 28 30  1  0
 30 31  2  0
 19  2  1  0
 31 25  1  0
 17 12  1  0
  1 32  1  0
  1 33  1  0
  3 34  1  0
  5 35  1  0
 11 36  1  0
 11 37  1  0
 13 38  1  0
 14 39  1  0
 15 40  1  0
 16 41  1  0
 17 42  1  0
 18 43  1  0
 24 44  1  0
 24 45  1  0
 26 46  1  0
 27 47  1  0
 30 48  1  0
 31 49  1  0
M  CHG  2  10  -1  23  -1
M  END
>  <UniqueID>  (65) 
62

>  <SMILES>  (65) 
Nc1cc(O)c(S(=O)(=O)[N-]Cc2ccccc2)cc1S(=O)(=O)[N-]Cc1ccc(F)cc1

>  <Energy>  (65) 
46.261804698641484

>  <Genealogy>  (65) 
Nc1cc(O)c(S(=O)(=O)[N-]Cc2ccccc2)cc1S(=O)(=O)[N-]Cc1ccc(F)cc1 (protonated)
Nc1cc(O)c(S(=O)(=O)[N-]Cc2ccccc2)cc1S(=O)(=O)[N-]Cc1ccc(F)cc1 (3D coordinates assigned)
Nc1cc(O)c(S(=O)(=O)[N-]Cc2ccccc2)cc1S(=O)(=O)[N-]Cc1ccc(F)cc1 (optimized conformer: 46.261804698641484 kcal/mol)

>  <smiles>  (65) 
Nc1cc(O)c(S(=O)(=O)NCc2ccccc2)cc1S(=O)(=O)NCc1ccc(F)cc1

>  <score_type>  (65) 
oracle

>  <origin>  (65) 
adg

>  <m_score__min__energy>  (65) 
-11.02

>  <m_primary>  (65) 
energy

$$$$
65:0
     RDKit          3D

 37 38  0  0  0  0  0  0  0  0999 V2000
   56.3210   31.2200   44.2460 C   0  0  0  0  0  0  0  0  0  0  0  0
   56.5210   29.8330   44.7640 C   0  0  0  0  0  0  0  0  0  0  0  0
   55.5180   28.9460   44.9250 N   0  0  0  0  0  0  0  0  0  0  0  0
   56.0250   27.8120   45.3850 N   0  0  0  0  0  0  0  0  0  0  0  0
   57.3570   27.9580   45.5170 C   0  0  0  0  0  0  0  0  0  0  0  0
   58.4410   26.6480   46.0960 S   0  0  0  0  0  0  0  0  0  0  0  0
   58.4670   27.2080   47.8400 C   0  0  0  0  0  0  0  0  0  0  0  0
   59.6520   28.1350   48.1180 C   0  0  0  0  0  0  0  0  0  0  0  0
   59.2050   29.4750   48.6250 C   0  0  0  0  0  0  0  0  0  0  0  0
   58.6480   29.5540   49.7540 O   0  0  0  0  0  0  0  0  0  0  0  0
   59.3910   30.6510   47.8240 N   0  0  0  0  0  0  0  0  0  0  0  0
   58.9620   31.9790   48.2600 C   0  0  0  0  0  0  0  0  0  0  0  0
   58.7670   32.8940   47.0760 C   0  0  0  0  0  0  0  0  0  0  0  0
   57.4680   33.1390   46.5970 C   0  0  0  0  0  0  0  0  0  0  0  0
   57.2620   33.9990   45.5140 C   0  0  0  0  0  0  0  0  0  0  0  0
   58.3490   34.6220   44.8980 C   0  0  0  0  0  0  0  0  0  0  0  0
   59.6450   34.3880   45.3640 C   0  0  0  0  0  0  0  0  0  0  0  0
   59.8640   33.5300   46.4490 C   0  0  0  0  0  0  0  0  0  0  0  0
   61.5190   33.2750   46.9960 Cl  0  0  0  0  0  0  0  0  0  0  0  0
   57.7140   29.2370   45.1350 C   0  0  0  0  0  0  0  0  0  0  0  0
   59.0310   29.8130   45.1070 N   0  0  0  0  0  0  0  0  0  0  0  0
   59.1880   31.0240   44.8550 O   0  0  0  0  0  0  0  0  0  0  0  0
   60.1440   29.0310   45.3280 O   0  0  0  0  0  0  0  0  0  0  0  0
   56.2206   31.9163   45.0916 H   0  0  0  0  0  0  0  0  0  0  0  0
   57.1865   31.5106   43.6325 H   0  0  0  0  0  0  0  0  0  0  0  0
   55.4086   31.2543   43.6325 H   0  0  0  0  0  0  0  0  0  0  0  0
   57.5333   27.7484   48.0550 H   0  0  0  0  0  0  0  0  0  0  0  0
   58.5661   26.3216   48.4838 H   0  0  0  0  0  0  0  0  0  0  0  0
   60.3006   27.6669   48.8732 H   0  0  0  0  0  0  0  0  0  0  0  0
   60.1933   28.2904   47.1731 H   0  0  0  0  0  0  0  0  0  0  0  0
   59.8240   30.5570   46.8780 H   0  0  0  0  0  0  0  0  0  0  0  0
   58.0119   31.8896   48.8072 H   0  0  0  0  0  0  0  0  0  0  0  0
   59.7397   32.4050   48.9109 H   0  0  0  0  0  0  0  0  0  0  0  0
   56.6076   32.6506   47.0777 H   0  0  0  0  0  0  0  0  0  0  0  0
   56.2419   34.1850   45.1468 H   0  0  0  0  0  0  0  0  0  0  0  0
   58.1849   35.2974   44.0454 H   0  0  0  0  0  0  0  0  0  0  0  0
   60.4987   34.8807   44.8757 H   0  0  0  0  0  0  0  0  0  0  0  0
  1  2  1  0
  2  3  1  0
  3  4  1  0
  4  5  2  0
  5  6  1  0
  6  7  1  0
  7  8  1  0
  8  9  1  0
  9 10  2  0
  9 11  1  0
 11 12  1  0
 12 13  1  0
 13 14  2  0
 14 15  1  0
 15 16  2  0
 16 17  1  0
 17 18  2  0
 18 19  1  0
  5 20  1  0
 20 21  1  0
 21 22  2  0
 21 23  1  0
 20  2  2  0
 18 13  1  0
  1 24  1  0
  1 25  1  0
  1 26  1  0
  7 27  1  0
  7 28  1  0
  8 29  1  0
  8 30  1  0
 11 31  1  0
 12 32  1  0
 12 33  1  0
 14 34  1  0
 15 35  1  0
 16 36  1  0
 17 37  1  0
M  CHG  3   3  -1  21   1  23  -1
M  END
>  <UniqueID>  (66) 
63

>  <SMILES>  (66) 
Cc1[n-]nc(SCCC(=O)NCc2ccccc2Cl)c1[N+](=O)[O-]

>  <Energy>  (66) 
60.949636066901874

>  <Genealogy>  (66) 
Cc1[n-]nc(SCCC(=O)NCc2ccccc2Cl)c1[N+](=O)[O-] (protonated)
Cc1[n-]nc(SCCC(=O)NCc2ccccc2Cl)c1[N+](=O)[O-] (3D coordinates assigned)
Cc1[n-]nc(SCCC(=O)NCc2ccccc2Cl)c1[N+](=O)[O-] (optimized conformer: 60.949636066901874 kcal/mol)

>  <smiles>  (66) 
Cc1[nH]nc(SCCC(=O)NCc2ccccc2Cl)c1[N+](=O)[O-]

>  <score_type>  (66) 
oracle

>  <origin>  (66) 
adg

>  <m_score__min__energy>  (66) 
-10.529999999999999

>  <m_primary>  (66) 
energy

$$$$
66:0
     RDKit          3D

 52 54  0  0  0  0  0  0  0  0999 V2000
   62.7460   30.4570   50.8620 C   0  0  0  0  0  0  0  0  0  0  0  0
   61.6310   30.1730   50.0230 O   0  0  0  0  0  0  0  0  0  0  0  0
   60.3130   30.5780   50.2850 C   0  0  0  0  0  0  0  0  0  0  0  0
   59.4490   29.8240   51.1030 C   0  0  0  0  0  0  0  0  0  0  0  0
   58.1500   30.2720   51.3570 C   0  0  0  0  0  0  0  0  0  0  0  0
   57.6990   31.4680   50.7980 C   0  0  0  0  0  0  0  0  0  0  0  0
   58.5450   32.2210   49.9830 C   0  0  0  0  0  0  0  0  0  0  0  0
   59.8520   31.7840   49.7220 C   0  0  0  0  0  0  0  0  0  0  0  0
   60.7070   32.5620   48.8700 N   0  0  0  0  0  0  0  0  0  0  0  0
   61.0780   33.9310   49.2440 C   0  0  0  0  0  0  0  0  0  0  0  0
   62.5730   34.0830   49.3290 C   0  0  0  0  0  0  0  0  0  0  0  0
   63.2340   34.3470   48.2900 O   0  0  0  0  0  0  0  0  0  0  0  0
   63.2800   33.9470   50.5710 N   0  0  0  0  0  0  0  0  0  0  0  0
   64.6770   33.6610   50.7460 C   0  0  0  0  0  0  0  0  0  0  0  0
   65.4320   34.2940   51.7510 C   0  0  0  0  0  0  0  0  0  0  0  0
   66.7860   33.9880   51.9160 C   0  0  0  0  0  0  0  0  0  0  0  0
   67.3950   33.0370   51.0950 C   0  0  0  0  0  0  0  0  0  0  0  0
   66.6440   32.3750   50.1210 C   0  0  0  0  0  0  0  0  0  0  0  0
   65.2860   32.6690   49.9530 C   0  0  0  0  0  0  0  0  0  0  0  0
   64.5610   31.9640   48.9910 O   0  0  0  0  0  0  0  0  0  0  0  0
   61.1450   31.9410   47.3060 S   0  0  0  0  0  0  0  0  0  0  0  0
   62.5680   31.4560   47.3300 O   0  0  0  0  0  0  0  0  0  0  0  0
   61.0450   33.0400   46.2830 O   0  0  0  0  0  0  0  0  0  0  0  0
   60.0730   30.6180   46.8590 C   0  0  0  0  0  0  0  0  0  0  0  0
   60.2930   29.3270   47.3620 C   0  0  0  0  0  0  0  0  0  0  0  0
   59.4460   28.2780   47.0000 C   0  0  0  0  0  0  0  0  0  0  0  0
   58.3640   28.5130   46.1460 C   0  0  0  0  0  0  0  0  0  0  0  0
   58.1270   29.8010   45.6500 C   0  0  0  0  0  0  0  0  0  0  0  0
   56.7480   30.0810   44.5930 S   0  0  0  0  0  0  0  0  0  0  0  0
   55.5190   28.9140   44.9260 N   0  0  0  0  0  0  0  0  0  0  0  0
   56.1860   31.4580   44.8140 O   0  0  0  0  0  0  0  0  0  0  0  0
   57.1830   29.9470   43.1600 O   0  0  0  0  0  0  0  0  0  0  0  0
   58.9910   30.8520   45.9990 C   0  0  0  0  0  0  0  0  0  0  0  0
   62.4410   30.3793   51.9160 H   0  0  0  0  0  0  0  0  0  0  0  0
   63.5509   29.7352   50.6590 H   0  0  0  0  0  0  0  0  0  0  0  0
   63.1075   31.4759   50.6590 H   0  0  0  0  0  0  0  0  0  0  0  0
   59.7983   28.8786   51.5437 H   0  0  0  0  0  0  0  0  0  0  0  0
   57.4813   29.6801   51.9993 H   0  0  0  0  0  0  0  0  0  0  0  0
   56.6758   31.8176   50.9999 H   0  0  0  0  0  0  0  0  0  0  0  0
   58.1849   33.1626   49.5428 H   0  0  0  0  0  0  0  0  0  0  0  0
   60.6884   34.6282   48.4876 H   0  0  0  0  0  0  0  0  0  0  0  0
   60.6475   34.1523   50.2318 H   0  0  0  0  0  0  0  0  0  0  0  0
   64.9541   35.0336   52.4103 H   0  0  0  0  0  0  0  0  0  0  0  0
   67.3729   34.4976   52.6944 H   0  0  0  0  0  0  0  0  0  0  0  0
   68.4645   32.8095   51.2150 H   0  0  0  0  0  0  0  0  0  0  0  0
   67.1227   31.6181   49.4822 H   0  0  0  0  0  0  0  0  0  0  0  0
   63.6410   32.2570   48.6870 H   0  0  0  0  0  0  0  0  0  0  0  0
   61.1357   29.1407   48.0439 H   0  0  0  0  0  0  0  0  0  0  0  0
   59.6301   27.2650   47.3872 H   0  0  0  0  0  0  0  0  0  0  0  0
   57.6978   27.6846   45.8633 H   0  0  0  0  0  0  0  0  0  0  0  0
   54.6730   29.4370   45.2440 H   0  0  0  0  0  0  0  0  0  0  0  0
   58.8182   31.8610   45.5965 H   0  0  0  0  0  0  0  0  0  0  0  0
  1  2  1  0
  2  3  1  0
  3  4  2  0
  4  5  1  0
  5  6  2  0
  6  7  1  0
  7  8  2  0
  8  9  1  0
  9 10  1  0
 10 11  1  0
 11 12  2  0
 11 13  1  0
 13 14  1  0
 14 15  2  0
 15 16  1  0
 16 17  2  0
 17 18  1  0
 18 19  2  0
 19 20  1  0
  9 21  1  0
 21 22  2  0
 21 23  2  0
 21 24  1  0
 24 25  2  0
 25 26  1  0
 26 27  2  0
 27 28  1  0
 28 29  1  0
 29 30  1  0
 29 31  2  0
 29 32  2  0
 28 33  2  0
  8  3  1  0
 19 14  1  0
 33 24  1  0
  1 34  1  0
  1 35  1  0
  1 36  1  0
  4 37  1  0
  5 38  1  0
  6 39  1  0
  7 40  1  0
 10 41  1  0
 10 42  1  0
 15 43  1  0
 16 44  1  0
 17 45  1  0
 18 46  1  0
 20 47  1  0
 25 48  1  0
 26 49  1  0
 27 50  1  0
 30 51  1  0
 33 52  1  0
M  CHG  2  13  -1  30  -1
M  END
>  <UniqueID>  (67) 
64

>  <SMILES>  (67) 
COc1ccccc1N(CC(=O)[N-]c1ccccc1O)S(=O)(=O)c1cccc(S([NH-])(=O)=O)c1

>  <Energy>  (67) 
61.55752413323747

>  <Genealogy>  (67) 
COc1ccccc1N(CC(=O)[N-]c1ccccc1O)S(=O)(=O)c1cccc(S([NH-])(=O)=O)c1 (protonated)
COc1ccccc1N(CC(=O)[N-]c1ccccc1O)S(=O)(=O)c1cccc(S([NH-])(=O)=O)c1 (3D coordinates assigned)
COc1ccccc1N(CC(=O)[N-]c1ccccc1O)S(=O)(=O)c1cccc(S([NH-])(=O)=O)c1 (optimized conformer: 61.55752413323747 kcal/mol)

>  <smiles>  (67) 
COc1ccccc1N(CC(=O)Nc1ccccc1O)S(=O)(=O)c1cccc(S(N)(=O)=O)c1

>  <score_type>  (67) 
oracle

>  <origin>  (67) 
adg

>  <m_score__min__energy>  (67) 
-13.82

>  <m_primary>  (67) 
energy

$$$$
67:0
     RDKit          3D

 62 65  0  0  0  0  0  0  0  0999 V2000
   56.2410   23.6380   47.1610 C   0  0  0  0  0  0  0  0  0  0  0  0
   55.7720   23.8700   45.7180 C   0  0  2  0  0  0  0  0  0  0  0  0
   56.7860   24.5240   44.9450 O   0  0  0  0  0  0  0  0  0  0  0  0
   57.3530   25.7940   45.1690 C   0  0  0  0  0  0  0  0  0  0  0  0
   57.1180   26.4010   46.4080 C   0  0  0  0  0  0  0  0  0  0  0  0
   57.6520   27.6570   46.7040 C   0  0  0  0  0  0  0  0  0  0  0  0
   58.4440   28.3360   45.7610 C   0  0  0  0  0  0  0  0  0  0  0  0
   59.0190   29.6680   46.0770 C   0  0  0  0  0  0  0  0  0  0  0  0
   58.3070   30.8700   46.1220 C   0  0  0  0  0  0  0  0  0  0  0  0
   59.2470   31.8290   46.4470 C   0  0  0  0  0  0  0  0  0  0  0  0
   60.4420   31.2030   46.5870 C   0  0  0  0  0  0  0  0  0  0  0  0
   60.3290   29.8820   46.3650 N   0  0  0  0  0  0  0  0  0  0  0  0
   61.5720   31.9250   46.9310 C   0  0  0  0  0  0  0  0  0  0  0  0
   62.6810   31.3370   47.0660 O   0  0  0  0  0  0  0  0  0  0  0  0
   61.4530   33.2830   47.1240 N   0  0  0  0  0  0  0  0  0  0  0  0
   62.6420   34.0640   47.5170 C   0  0  0  0  0  0  0  0  0  0  0  0
   63.2140   33.5370   48.7990 C   0  0  0  0  0  0  0  0  0  0  0  0
   62.8230   34.0160   49.8980 O   0  0  0  0  0  0  0  0  0  0  0  0
   64.2150   32.5090   48.7730 N   0  0  0  0  0  0  0  0  0  0  0  0
   64.7930   31.9560   50.0020 C   0  0  2  0  0  0  0  0  0  0  0  0
   63.6920   31.6350   51.0160 C   0  0  0  0  0  0  0  0  0  0  0  0
   65.7880   32.9250   50.6030 C   0  0  0  0  0  0  0  0  0  0  0  0
   67.1320   32.9300   50.1860 C   0  0  0  0  0  0  0  0  0  0  0  0
   68.0380   33.8430   50.7330 C   0  0  0  0  0  0  0  0  0  0  0  0
   67.6120   34.7650   51.6910 C   0  0  0  0  0  0  0  0  0  0  0  0
   66.2770   34.7780   52.1020 C   0  0  0  0  0  0  0  0  0  0  0  0
   65.3670   33.8660   51.5600 C   0  0  0  0  0  0  0  0  0  0  0  0
   60.2180   33.8990   46.9840 C   0  0  0  0  0  0  0  0  0  0  0  0
   60.1110   35.1410   47.1890 O   0  0  0  0  0  0  0  0  0  0  0  0
   59.1020   33.1710   46.6250 N   0  0  0  0  0  0  0  0  0  0  0  0
   57.7780   33.7920   46.4810 C   0  0  0  0  0  0  0  0  0  0  0  0
   58.6850   27.7260   44.5180 C   0  0  0  0  0  0  0  0  0  0  0  0
   58.1480   26.4690   44.2230 C   0  0  0  0  0  0  0  0  0  0  0  0
   54.4450   24.5790   45.6170 C   0  0  0  0  0  0  0  0  0  0  0  0
   54.3650   25.9710   45.9140 N   0  0  0  0  0  0  0  0  0  0  0  0
   53.4190   23.9690   45.2160 O   0  0  0  0  0  0  0  0  0  0  0  0
   55.4791   24.0149   47.8592 H   0  0  0  0  0  0  0  0  0  0  0  0
   56.3918   22.5614   47.3289 H   0  0  0  0  0  0  0  0  0  0  0  0
   57.1882   24.1715   47.3289 H   0  0  0  0  0  0  0  0  0  0  0  0
   55.6006   22.8719   45.2885 H   0  0  0  0  0  0  0  0  0  0  0  0
   56.5044   25.8817   47.1589 H   0  0  0  0  0  0  0  0  0  0  0  0
   57.4516   28.1186   47.6821 H   0  0  0  0  0  0  0  0  0  0  0  0
   57.2328   31.0197   45.9387 H   0  0  0  0  0  0  0  0  0  0  0  0
   61.0940   29.1760   46.4310 H   0  0  0  0  0  0  0  0  0  0  0  0
   63.4014   33.9914   46.7245 H   0  0  0  0  0  0  0  0  0  0  0  0
   62.3469   35.1136   47.6631 H   0  0  0  0  0  0  0  0  0  0  0  0
   64.5260   32.1390   47.8460 H   0  0  0  0  0  0  0  0  0  0  0  0
   65.3189   31.0242   49.7466 H   0  0  0  0  0  0  0  0  0  0  0  0
   64.0878   31.7504   52.0358 H   0  0  0  0  0  0  0  0  0  0  0  0
   62.8471   32.3242   50.8704 H   0  0  0  0  0  0  0  0  0  0  0  0
   63.3499   30.5997   50.8704 H   0  0  0  0  0  0  0  0  0  0  0  0
   67.4714   32.2115   49.4254 H   0  0  0  0  0  0  0  0  0  0  0  0
   69.0889   33.8351   50.4080 H   0  0  0  0  0  0  0  0  0  0  0  0
   68.3274   35.4809   52.1220 H   0  0  0  0  0  0  0  0  0  0  0  0
   65.9412   35.5075   52.8537 H   0  0  0  0  0  0  0  0  0  0  0  0
   64.3158   33.8842   51.8836 H   0  0  0  0  0  0  0  0  0  0  0  0
   57.3556   33.9901   47.4772 H   0  0  0  0  0  0  0  0  0  0  0  0
   57.8750   34.7385   45.9290 H   0  0  0  0  0  0  0  0  0  0  0  0
   57.1122   33.1122   45.9290 H   0  0  0  0  0  0  0  0  0  0  0  0
   59.3028   28.2430   43.7690 H   0  0  0  0  0  0  0  0  0  0  0  0
   58.3479   26.0047   43.2460 H   0  0  0  0  0  0  0  0  0  0  0  0
   54.8030   26.6800   45.2840 H   0  0  0  0  0  0  0  0  0  0  0  0
  1  2  1  0
  2  3  1  0
  3  4  1  0
  4  5  2  0
  5  6  1  0
  6  7  2  0
  7  8  1  0
  8  9  2  0
  9 10  1  0
 10 11  2  0
 11 12  1  0
 11 13  1  0
 13 14  2  0
 13 15  1  0
 15 16  1  0
 16 17  1  0
 17 18  2  0
 17 19  1  0
 19 20  1  0
 20 21  1  0
 20 22  1  0
 22 23  2  0
 23 24  1  0
 24 25  2  0
 25 26  1  0
 26 27  2  0
 15 28  1  0
 28 29  2  0
 28 30  1  0
 30 31  1  0
  7 32  1  0
 32 33  2  0
  2 34  1  0
 34 35  1  0
 34 36  2  0
 33  4  1  0
 12  8  1  0
 27 22  1  0
 30 10  1  0
  1 37  1  0
  1 38  1  0
  1 39  1  0
  2 40  1  6
  5 41  1  0
  6 42  1  0
  9 43  1  0
 12 44  1  0
 16 45  1  0
 16 46  1  0
 19 47  1  0
 20 48  1  6
 21 49  1  0
 21 50  1  0
 21 51  1  0
 23 52  1  0
 24 53  1  0
 25 54  1  0
 26 55  1  0
 27 56  1  0
 31 57  1  0
 31 58  1  0
 31 59  1  0
 32 60  1  0
 33 61  1  0
 35 62  1  0
M  CHG  1  35  -1
M  END
>  <UniqueID>  (68) 
65

>  <SMILES>  (68) 
C[C@H](Oc1ccc(-c2cc3c([nH]2)c(=O)n(CC(=O)N[C@H](C)c2ccccc2)c(=O)n3C)cc1)C([NH-])=O

>  <Energy>  (68) 
105.42086731341165

>  <Genealogy>  (68) 
CC(Oc1ccc(-c2cc3c([nH]2)c(=O)n(CC(=O)NC(C)c2ccccc2)c(=O)n3C)cc1)C([NH-])=O (protonated)
C[C@H](Oc1ccc(-c2cc3c([nH]2)c(=O)n(CC(=O)N[C@H](C)c2ccccc2)c(=O)n3C)cc1)C([NH-])=O (chirality)
C[C@H](Oc1ccc(-c2cc3c([nH]2)c(=O)n(CC(=O)N[C@H](C)c2ccccc2)c(=O)n3C)cc1)C([NH-])=O (3D coordinates assigned)
C[C@H](Oc1ccc(-c2cc3c([nH]2)c(=O)n(CC(=O)N[C@H](C)c2ccccc2)c(=O)n3C)cc1)C([NH-])=O (optimized conformer: 105.42086731341165 kcal/mol)

>  <smiles>  (68) 
CC(Oc1ccc(-c2cc3c([nH]2)c(=O)n(CC(=O)NC(C)c2ccccc2)c(=O)n3C)cc1)C(N)=O

>  <score_type>  (68) 
oracle

>  <origin>  (68) 
adg

>  <m_score__min__energy>  (68) 
-11.800000000000001

>  <m_primary>  (68) 
energy

$$$$
68:0
     RDKit          3D

 52 54  0  0  0  0  0  0  0  0999 V2000
   56.8220   25.7320   47.1660 O   0  0  0  0  0  0  0  0  0  0  0  0
   56.4580   26.3380   46.1250 C   0  0  0  0  0  0  0  0  0  0  0  0
   55.1250   26.6980   45.9700 O   0  0  0  0  0  0  0  0  0  0  0  0
   57.4460   26.6340   45.0430 C   0  0  0  0  0  0  0  0  0  0  0  0
   57.8070   28.1010   45.0430 C   0  0  0  0  0  0  0  0  0  0  0  0
   56.7690   29.0300   44.8470 C   0  0  0  0  0  0  0  0  0  0  0  0
   57.0200   30.4000   44.8850 C   0  0  0  0  0  0  0  0  0  0  0  0
   58.3050   30.8650   45.1440 C   0  0  0  0  0  0  0  0  0  0  0  0
   59.3480   29.9640   45.3520 C   0  0  0  0  0  0  0  0  0  0  0  0
   59.1280   28.5720   45.2850 C   0  0  0  0  0  0  0  0  0  0  0  0
   60.2280   27.6470   45.4620 N   0  0  0  0  0  0  0  0  0  0  0  0
   60.2590   26.5550   46.4380 C   0  0  0  0  0  0  0  0  0  0  0  0
   59.4720   26.8780   47.7200 C   0  0  0  0  0  0  0  0  0  0  0  0
   60.3410   27.4220   48.8700 C   0  0  0  0  0  0  0  0  0  0  0  0
   59.9080   28.7850   49.3540 C   0  0  0  0  0  0  0  0  0  0  0  0
   58.9040   29.4940   48.6750 C   0  0  0  0  0  0  0  0  0  0  0  0
   58.5380   30.7800   49.0880 C   0  0  0  0  0  0  0  0  0  0  0  0
   59.1760   31.3800   50.1900 C   0  0  0  0  0  0  0  0  0  0  0  0
   58.8650   32.6750   50.6390 O   0  0  0  0  0  0  0  0  0  0  0  0
   59.6380   33.8490   50.3850 C   0  0  0  0  0  0  0  0  0  0  0  0
   60.1640   33.8490   48.9760 C   0  0  0  0  0  0  0  0  0  0  0  0
   59.3170   34.1960   47.9120 C   0  0  0  0  0  0  0  0  0  0  0  0
   59.8060   34.2220   46.6020 C   0  0  0  0  0  0  0  0  0  0  0  0
   61.1410   33.9030   46.3460 C   0  0  0  0  0  0  0  0  0  0  0  0
   61.9940   33.5610   47.4000 C   0  0  0  0  0  0  0  0  0  0  0  0
   63.6680   33.1490   47.0750 Cl  0  0  0  0  0  0  0  0  0  0  0  0
   61.5100   33.5390   48.7130 C   0  0  0  0  0  0  0  0  0  0  0  0
   60.1770   30.6730   50.8640 C   0  0  0  0  0  0  0  0  0  0  0  0
   60.5540   29.3950   50.4430 C   0  0  0  0  0  0  0  0  0  0  0  0
   58.3551   26.0375   45.2098 H   0  0  0  0  0  0  0  0  0  0  0  0
   56.9974   26.3780   44.0718 H   0  0  0  0  0  0  0  0  0  0  0  0
   55.7462   28.6703   44.6614 H   0  0  0  0  0  0  0  0  0  0  0  0
   56.2017   31.1140   44.7101 H   0  0  0  0  0  0  0  0  0  0  0  0
   58.4988   31.9470   45.1848 H   0  0  0  0  0  0  0  0  0  0  0  0
   60.3568   30.3436   45.5715 H   0  0  0  0  0  0  0  0  0  0  0  0
   61.0540   27.6990   44.8290 H   0  0  0  0  0  0  0  0  0  0  0  0
   59.8232   25.6574   45.9749 H   0  0  0  0  0  0  0  0  0  0  0  0
   61.3091   26.3974   46.7251 H   0  0  0  0  0  0  0  0  0  0  0  0
   58.7092   27.6323   47.4765 H   0  0  0  0  0  0  0  0  0  0  0  0
   59.0357   25.9315   48.0719 H   0  0  0  0  0  0  0  0  0  0  0  0
   60.2843   26.7180   49.7133 H   0  0  0  0  0  0  0  0  0  0  0  0
   61.3656   27.5246   48.4831 H   0  0  0  0  0  0  0  0  0  0  0  0
   58.4010   29.0347   47.8113 H   0  0  0  0  0  0  0  0  0  0  0  0
   57.7484   31.3243   48.5492 H   0  0  0  0  0  0  0  0  0  0  0  0
   59.0051   34.7364   50.5334 H   0  0  0  0  0  0  0  0  0  0  0  0
   60.4910   33.8659   51.0793 H   0  0  0  0  0  0  0  0  0  0  0  0
   58.2647   34.4484   48.1092 H   0  0  0  0  0  0  0  0  0  0  0  0
   59.1377   34.4943   45.7718 H   0  0  0  0  0  0  0  0  0  0  0  0
   61.5221   33.9207   45.3143 H   0  0  0  0  0  0  0  0  0  0  0  0
   62.1847   33.2784   49.5418 H   0  0  0  0  0  0  0  0  0  0  0  0
   60.6726   31.1277   51.7344 H   0  0  0  0  0  0  0  0  0  0  0  0
   61.3615   28.8630   50.9673 H   0  0  0  0  0  0  0  0  0  0  0  0
  1  2  2  0
  2  3  1  0
  2  4  1  0
  4  5  1  0
  5  6  2  0
  6  7  1  0
  7  8  2  0
  8  9  1  0
  9 10  2  0
 10 11  1  0
 11 12  1  0
 12 13  1  0
 13 14  1  0
 14 15  1  0
 15 16  2  0
 16 17  1  0
 17 18  2  0
 18 19  1  0
 19 20  1  0
 20 21  1  0
 21 22  2  0
 22 23  1  0
 23 24  2  0
 24 25  1  0
 25 26  1  0
 25 27  2  0
 18 28  1  0
 28 29  2  0
 10  5  1  0
 29 15  1  0
 27 21  1  0
  4 30  1  0
  4 31  1  0
  6 32  1  0
  7 33  1  0
  8 34  1  0
  9 35  1  0
 11 36  1  0
 12 37  1  0
 12 38  1  0
 13 39  1  0
 13 40  1  0
 14 41  1  0
 14 42  1  0
 16 43  1  0
 17 44  1  0
 20 45  1  0
 20 46  1  0
 22 47  1  0
 23 48  1  0
 24 49  1  0
 27 50  1  0
 28 51  1  0
 29 52  1  0
M  CHG  1   3  -1
M  END
>  <UniqueID>  (69) 
66

>  <SMILES>  (69) 
O=C([O-])Cc1ccccc1NCCCc1ccc(OCc2cccc(Cl)c2)cc1

>  <Energy>  (69) 
45.27968297536186

>  <Genealogy>  (69) 
O=C([O-])Cc1ccccc1NCCCc1ccc(OCc2cccc(Cl)c2)cc1 (protonated)
O=C([O-])Cc1ccccc1NCCCc1ccc(OCc2cccc(Cl)c2)cc1 (3D coordinates assigned)
O=C([O-])Cc1ccccc1NCCCc1ccc(OCc2cccc(Cl)c2)cc1 (optimized conformer: 45.27968297536186 kcal/mol)

>  <smiles>  (69) 
O=C(O)Cc1ccccc1NCCCc1ccc(OCc2cccc(Cl)c2)cc1

>  <score_type>  (69) 
oracle

>  <origin>  (69) 
adg

>  <m_score__min__energy>  (69) 
-13.02

>  <m_primary>  (69) 
energy

$$$$
69:0
     RDKit          3D

 37 39  0  0  0  0  0  0  0  0999 V2000
   55.1500   24.8360   47.2090 H   0  0  0  0  0  0  0  0  0  0  0  0
   55.0870   25.0200   46.2160 O   0  0  0  0  0  0  0  0  0  0  0  0
   55.7660   24.2250   45.2990 C   0  0  0  0  0  0  0  0  0  0  0  0
   55.1150   23.6390   44.2580 N   0  0  0  0  0  0  0  0  0  0  0  0
   55.9520   22.8800   43.5240 C   0  0  0  0  0  0  0  0  0  0  0  0
   55.5820   22.2330   42.5090 O   0  0  0  0  0  0  0  0  0  0  0  0
   57.5210   22.8920   44.1200 S   0  0  0  0  0  0  0  0  0  0  0  0
   57.1360   23.9400   45.3820 C   0  0  0  0  0  0  0  0  0  0  0  0
   58.1220   24.3850   46.3880 C   0  0  0  0  0  0  0  0  0  0  0  0
   58.9078   23.6787   46.6942 H   0  0  0  0  0  0  0  0  0  0  0  0
   58.1110   25.6030   46.9480 C   0  0  0  0  0  0  0  0  0  0  0  0
   58.2765   25.6772   48.0329 H   0  0  0  0  0  0  0  0  0  0  0  0
   57.8880   26.8570   46.1860 C   0  0  0  0  0  0  0  0  0  0  0  0
   59.0060   27.6070   45.7900 C   0  0  0  0  0  0  0  0  0  0  0  0
   60.0166   27.2537   46.0426 H   0  0  0  0  0  0  0  0  0  0  0  0
   58.8470   28.7980   45.0780 C   0  0  0  0  0  0  0  0  0  0  0  0
   59.7358   29.3674   44.7685 H   0  0  0  0  0  0  0  0  0  0  0  0
   57.5740   29.2770   44.7530 C   0  0  0  0  0  0  0  0  0  0  0  0
   57.5090   30.4820   44.0310 O   0  0  0  0  0  0  0  0  0  0  0  0
   56.6680   31.5930   44.3220 C   0  0  0  0  0  0  0  0  0  0  0  0
   56.2258   31.9746   43.3899 H   0  0  0  0  0  0  0  0  0  0  0  0
   55.8626   31.2805   45.0029 H   0  0  0  0  0  0  0  0  0  0  0  0
   57.4870   32.6710   44.9680 C   0  0  0  0  0  0  0  0  0  0  0  0
   57.4140   32.8810   46.3560 C   0  0  0  0  0  0  0  0  0  0  0  0
   56.7306   32.2730   46.9670 H   0  0  0  0  0  0  0  0  0  0  0  0
   58.2070   33.8600   46.9630 C   0  0  0  0  0  0  0  0  0  0  0  0
   58.1384   34.0270   48.0481 H   0  0  0  0  0  0  0  0  0  0  0  0
   59.0870   34.6270   46.1930 C   0  0  0  0  0  0  0  0  0  0  0  0
   59.8730   35.5990   46.7980 O   0  0  0  0  0  0  0  0  0  0  0  0
   59.1770   34.4120   44.8140 C   0  0  0  0  0  0  0  0  0  0  0  0
   59.8712   35.0133   44.2085 H   0  0  0  0  0  0  0  0  0  0  0  0
   58.3860   33.4340   44.2040 C   0  0  0  0  0  0  0  0  0  0  0  0
   58.4678   33.2610   43.1208 H   0  0  0  0  0  0  0  0  0  0  0  0
   56.4400   28.5380   45.1660 C   0  0  0  0  0  0  0  0  0  0  0  0
   55.1480   28.9660   44.8890 O   0  0  0  0  0  0  0  0  0  0  0  0
   56.6040   27.3430   45.8770 C   0  0  0  0  0  0  0  0  0  0  0  0
   55.7175   26.7766   46.1983 H   0  0  0  0  0  0  0  0  0  0  0  0
  1  2  1  0
  2  3  1  0
  3  4  1  0
  4  5  1  0
  5  6  2  0
  5  7  1  0
  7  8  1  0
  8  9  1  0
  9 10  1  0
  9 11  2  0
 11 12  1  0
 11 13  1  0
 13 14  2  0
 14 15  1  0
 14 16  1  0
 16 17  1  0
 16 18  2  0
 18 19  1  0
 19 20  1  0
 20 21  1  0
 20 22  1  0
 20 23  1  0
 23 24  2  0
 24 25  1  0
 24 26  1  0
 26 27  1  0
 26 28  2  0
 28 29  1  0
 28 30  1  0
 30 31  1  0
 30 32  2  0
 32 33  1  0
 18 34  1  0
 34 35  1  0
 34 36  2  0
 36 37  1  0
  8  3  2  0
 36 13  1  0
 32 23  1  0
M  CHG  3   4  -1  29  -1  35  -1
M  END
>  <UniqueID>  (70) 
67

>  <SMILES>  (70) 
O=c1[n-]c(O)c(/C=C/c2ccc(OCc3ccc([O-])cc3)c([O-])c2)s1

>  <Energy>  (70) 
76.73641120229648

>  <Genealogy>  (70) 
O=c1[n-]c(O)c(C=Cc2ccc(OCc3ccc([O-])cc3)c([O-])c2)s1 (protonated)
O=c1[n-]c(O)c(/C=C/c2ccc(OCc3ccc([O-])cc3)c([O-])c2)s1 (cis-trans isomerization)
O=c1[n-]c(O)c(/C=C/c2ccc(OCc3ccc([O-])cc3)c([O-])c2)s1 (3D coordinates assigned)
O=c1[n-]c(O)c(/C=C/c2ccc(OCc3ccc([O-])cc3)c([O-])c2)s1 (optimized conformer: 76.73641120229648 kcal/mol)

>  <smiles>  (70) 
O=c1[nH]c(O)c(C=Cc2ccc(OCc3ccc(O)cc3)c(O)c2)s1

>  <score_type>  (70) 
oracle

>  <origin>  (70) 
adg

>  <m_score__min__energy>  (70) 
-15.01

>  <m_primary>  (70) 
energy

$$$$
70:0
     RDKit          3D

 36 38  0  0  0  0  0  0  0  0999 V2000
   57.0060   33.4670   45.1590 N   0  0  0  0  0  0  0  0  0  0  0  0
   57.3920   32.0930   45.2420 C   0  0  0  0  0  0  0  0  0  0  0  0
   56.9470   31.1750   44.2790 C   0  0  0  0  0  0  0  0  0  0  0  0
   57.3240   29.8320   44.3600 C   0  0  0  0  0  0  0  0  0  0  0  0
   58.1590   29.3910   45.4000 C   0  0  0  0  0  0  0  0  0  0  0  0
   58.5370   27.9390   45.5060 C   0  0  0  0  0  0  0  0  0  0  0  0
   57.5920   27.2050   46.4630 C   0  0  0  0  0  0  0  0  0  0  0  0
   57.1010   25.9210   45.8440 C   0  0  0  0  0  0  0  0  0  0  0  0
   58.0240   24.9170   45.5010 C   0  0  0  0  0  0  0  0  0  0  0  0
   57.5800   23.7130   44.9490 C   0  0  0  0  0  0  0  0  0  0  0  0
   56.2100   23.4860   44.7710 C   0  0  0  0  0  0  0  0  0  0  0  0
   55.2840   24.4760   45.1060 C   0  0  0  0  0  0  0  0  0  0  0  0
   55.7240   25.6890   45.6490 C   0  0  0  0  0  0  0  0  0  0  0  0
   54.7870   26.6560   45.9970 O   0  0  0  0  0  0  0  0  0  0  0  0
   55.7860   22.2550   44.2570 O   0  0  0  0  0  0  0  0  0  0  0  0
   56.6810   21.1430   44.1740 C   0  0  0  0  0  0  0  0  0  0  0  0
   58.0800   21.6160   43.7580 C   0  0  0  0  0  0  0  0  0  0  0  0
   58.4900   22.7220   44.5680 O   0  0  0  0  0  0  0  0  0  0  0  0
   58.5910   30.3090   46.3700 C   0  0  0  0  0  0  0  0  0  0  0  0
   58.2140   31.6520   46.2890 C   0  0  0  0  0  0  0  0  0  0  0  0
   56.6020   33.9600   45.9860 H   0  0  0  0  0  0  0  0  0  0  0  0
   57.1220   34.0030   44.2690 H   0  0  0  0  0  0  0  0  0  0  0  0
   56.2990   31.5137   43.4572 H   0  0  0  0  0  0  0  0  0  0  0  0
   56.9651   29.1164   43.6056 H   0  0  0  0  0  0  0  0  0  0  0  0
   58.4750   27.4755   44.5103 H   0  0  0  0  0  0  0  0  0  0  0  0
   59.5631   27.8669   45.8957 H   0  0  0  0  0  0  0  0  0  0  0  0
   58.1289   26.9747   47.3951 H   0  0  0  0  0  0  0  0  0  0  0  0
   56.7267   27.8514   46.6716 H   0  0  0  0  0  0  0  0  0  0  0  0
   59.0989   25.0802   45.6679 H   0  0  0  0  0  0  0  0  0  0  0  0
   54.2099   24.3030   44.9434 H   0  0  0  0  0  0  0  0  0  0  0  0
   56.7412   20.6514   45.1562 H   0  0  0  0  0  0  0  0  0  0  0  0
   56.3038   20.4352   43.4212 H   0  0  0  0  0  0  0  0  0  0  0  0
   58.7949   20.7895   43.8832 H   0  0  0  0  0  0  0  0  0  0  0  0
   58.0527   21.9334   42.7052 H   0  0  0  0  0  0  0  0  0  0  0  0
   59.2299   29.9692   47.1985 H   0  0  0  0  0  0  0  0  0  0  0  0
   58.5633   32.3660   47.0494 H   0  0  0  0  0  0  0  0  0  0  0  0
  1  2  1  0
  2  3  2  0
  3  4  1  0
  4  5  2  0
  5  6  1  0
  6  7  1  0
  7  8  1  0
  8  9  2  0
  9 10  1  0
 10 11  2  0
 11 12  1  0
 12 13  2  0
 13 14  1  0
 11 15  1  0
 15 16  1  0
 16 17  1  0
 17 18  1  0
  5 19  1  0
 19 20  2  0
 20  2  1  0
 13  8  1  0
 18 10  1  0
  1 21  1  0
  1 22  1  0
  3 23  1  0
  4 24  1  0
  6 25  1  0
  6 26  1  0
  7 27  1  0
  7 28  1  0
  9 29  1  0
 12 30  1  0
 16 31  1  0
 16 32  1  0
 17 33  1  0
 17 34  1  0
 19 35  1  0
 20 36  1  0
M  CHG  1  14  -1
M  END
>  <UniqueID>  (71) 
68

>  <SMILES>  (71) 
Nc1ccc(CCc2cc3c(cc2[O-])OCCO3)cc1

>  <Energy>  (71) 
35.090930228060095

>  <Genealogy>  (71) 
Nc1ccc(CCc2cc3c(cc2[O-])OCCO3)cc1 (protonated)
Nc1ccc(CCc2cc3c(cc2[O-])OCCO3)cc1 (3D coordinates assigned)
Nc1ccc(CCc2cc3c(cc2[O-])OCCO3)cc1 (nonaromatic ring conformer: 35.090930228060095 kcal/mol)

>  <smiles>  (71) 
Nc1ccc(CCc2cc3c(cc2O)OCCO3)cc1

>  <score_type>  (71) 
oracle

>  <origin>  (71) 
adg

>  <m_score__min__energy>  (71) 
-10.050000000000001

>  <m_primary>  (71) 
energy

$$$$
71:0
     RDKit          3D

 37 38  0  0  0  0  0  0  0  0999 V2000
   58.2270   32.8640   48.1650 C   0  0  0  0  0  0  0  0  0  0  0  0
   58.1210   32.7040   46.6760 C   0  0  0  0  0  0  0  0  0  0  0  0
   57.8740   33.8160   45.8660 C   0  0  0  0  0  0  0  0  0  0  0  0
   57.7820   33.6710   44.4830 C   0  0  0  0  0  0  0  0  0  0  0  0
   57.9590   32.4150   43.8770 C   0  0  0  0  0  0  0  0  0  0  0  0
   57.7880   32.3090   42.3840 C   0  0  0  0  0  0  0  0  0  0  0  0
   58.3010   31.2920   44.6800 C   0  0  0  0  0  0  0  0  0  0  0  0
   58.4990   29.9760   44.0960 N   0  0  0  0  0  0  0  0  0  0  0  0
   57.2820   29.1970   44.0910 C   0  0  0  0  0  0  0  0  0  0  0  0
   55.8860   29.8700   43.5490 S   0  0  0  0  0  0  0  0  0  0  0  0
   57.2470   27.8520   44.6020 N   0  0  0  0  0  0  0  0  0  0  0  0
   58.4330   27.0130   44.7690 C   0  0  0  0  0  0  0  0  0  0  0  0
   59.1300   27.3430   46.0550 C   0  0  0  0  0  0  0  0  0  0  0  0
   59.9320   26.3890   46.6980 C   0  0  0  0  0  0  0  0  0  0  0  0
   60.5720   26.7260   47.8930 C   0  0  0  0  0  0  0  0  0  0  0  0
   60.4060   28.0020   48.4350 C   0  0  0  0  0  0  0  0  0  0  0  0
   59.5960   28.9250   47.7700 C   0  0  0  0  0  0  0  0  0  0  0  0
   58.9820   28.5800   46.6070 N   0  0  0  0  0  0  0  0  0  0  0  0
   58.3330   31.4530   46.0840 C   0  0  0  0  0  0  0  0  0  0  0  0
   57.6848   32.0456   48.6612 H   0  0  0  0  0  0  0  0  0  0  0  0
   59.2857   32.8358   48.4624 H   0  0  0  0  0  0  0  0  0  0  0  0
   57.7882   33.8279   48.4624 H   0  0  0  0  0  0  0  0  0  0  0  0
   57.7517   34.8096   46.3220 H   0  0  0  0  0  0  0  0  0  0  0  0
   57.5682   34.5504   43.8577 H   0  0  0  0  0  0  0  0  0  0  0  0
   56.8728   31.7417   42.1591 H   0  0  0  0  0  0  0  0  0  0  0  0
   57.7100   33.3173   41.9514 H   0  0  0  0  0  0  0  0  0  0  0  0
   58.6564   31.7906   41.9514 H   0  0  0  0  0  0  0  0  0  0  0  0
   59.2150   29.4200   44.6110 H   0  0  0  0  0  0  0  0  0  0  0  0
   58.8520   30.1050   43.1210 H   0  0  0  0  0  0  0  0  0  0  0  0
   56.3160   27.4070   44.7680 H   0  0  0  0  0  0  0  0  0  0  0  0
   58.1300   25.9556   44.7819 H   0  0  0  0  0  0  0  0  0  0  0  0
   59.1221   27.1986   43.9319 H   0  0  0  0  0  0  0  0  0  0  0  0
   60.0558   25.3852   46.2655 H   0  0  0  0  0  0  0  0  0  0  0  0
   61.2056   25.9875   48.4061 H   0  0  0  0  0  0  0  0  0  0  0  0
   60.9073   28.2770   49.3747 H   0  0  0  0  0  0  0  0  0  0  0  0
   59.4545   29.9327   48.1878 H   0  0  0  0  0  0  0  0  0  0  0  0
   58.5281   30.5793   46.7233 H   0  0  0  0  0  0  0  0  0  0  0  0
  1  2  1  0
  2  3  2  0
  3  4  1  0
  4  5  2  0
  5  6  1  0
  5  7  1  0
  7  8  1  0
  8  9  1  0
  9 10  2  0
  9 11  1  0
 11 12  1  0
 12 13  1  0
 13 14  2  0
 14 15  1  0
 15 16  2  0
 16 17  1  0
 17 18  2  0
  7 19  2  0
 19  2  1  0
 18 13  1  0
  1 20  1  0
  1 21  1  0
  1 22  1  0
  3 23  1  0
  4 24  1  0
  6 25  1  0
  6 26  1  0
  6 27  1  0
  8 28  1  0
  8 29  1  0
 11 30  1  0
 12 31  1  0
 12 32  1  0
 14 33  1  0
 15 34  1  0
 16 35  1  0
 17 36  1  0
 19 37  1  0
M  CHG  1   8   1
M  END
>  <UniqueID>  (72) 
69

>  <SMILES>  (72) 
Cc1ccc(C)c([NH2+]C(=S)NCc2ccccn2)c1

>  <Energy>  (72) 
39.22157621927397

>  <Genealogy>  (72) 
Cc1ccc(C)c([NH2+]C(=S)NCc2ccccn2)c1 (protonated)
Cc1ccc(C)c([NH2+]C(=S)NCc2ccccn2)c1 (3D coordinates assigned)
Cc1ccc(C)c([NH2+]C(=S)NCc2ccccn2)c1 (optimized conformer: 39.22157621927397 kcal/mol)

>  <smiles>  (72) 
Cc1ccc(C)c(NC(=S)NCc2ccccn2)c1

>  <score_type>  (72) 
oracle

>  <origin>  (72) 
adg

>  <m_score__min__energy>  (72) 
-6.2300000000000004

>  <m_primary>  (72) 
energy

$$$$
72:0
     RDKit          3D

 59 62  0  0  0  0  0  0  0  0999 V2000
   64.1130   32.9620   50.6140 C   0  0  0  0  0  0  0  0  0  0  0  0
   62.7150   32.8770   50.3590 O   0  0  0  0  0  0  0  0  0  0  0  0
   62.1010   31.8680   49.6000 C   0  0  0  0  0  0  0  0  0  0  0  0
   61.9020   30.5740   50.1200 C   0  0  0  0  0  0  0  0  0  0  0  0
   61.3070   29.5780   49.3420 C   0  0  0  0  0  0  0  0  0  0  0  0
   60.8890   29.8580   48.0350 C   0  0  0  0  0  0  0  0  0  0  0  0
   60.2900   28.7790   47.1740 C   0  0  0  0  0  0  0  0  0  0  0  0
   58.7940   28.9340   47.0990 C   0  0  0  0  0  0  0  0  0  0  0  0
   58.2240   29.7510   47.8740 O   0  0  0  0  0  0  0  0  0  0  0  0
   57.9990   28.1680   46.1740 N   0  0  0  0  0  0  0  0  0  0  0  0
   57.5410   26.8110   46.5110 C   0  0  0  0  0  0  0  0  0  0  0  0
   58.2890   25.7360   45.7120 C   0  0  0  0  0  0  0  0  0  0  0  0
   57.7880   25.6750   44.2640 C   0  0  0  0  0  0  0  0  0  0  0  0
   58.2150   26.8930   43.4250 C   0  0  0  0  0  0  0  0  0  0  0  0
   57.5400   28.2250   43.7190 C   0  0  0  0  0  0  0  0  0  0  0  0
   57.0240   28.9340   42.6190 C   0  0  0  0  0  0  0  0  0  0  0  0
   56.4470   30.1950   42.7820 C   0  0  0  0  0  0  0  0  0  0  0  0
   56.3870   30.7750   44.0470 C   0  0  0  0  0  0  0  0  0  0  0  0
   56.9030   30.0980   45.1490 C   0  0  0  0  0  0  0  0  0  0  0  0
   57.4840   28.8260   45.0040 C   0  0  0  0  0  0  0  0  0  0  0  0
   61.0860   31.1430   47.5120 C   0  0  0  0  0  0  0  0  0  0  0  0
   61.6800   32.1500   48.2830 C   0  0  0  0  0  0  0  0  0  0  0  0
   61.9180   33.7390   47.5410 S   0  0  0  0  0  0  0  0  0  0  0  0
   62.3300   33.5210   46.1120 O   0  0  0  0  0  0  0  0  0  0  0  0
   63.0030   34.5080   48.2430 O   0  0  0  0  0  0  0  0  0  0  0  0
   60.4220   34.6500   47.5820 N   0  0  0  0  0  0  0  0  0  0  0  0
   59.9860   35.0500   46.2320 C   0  0  0  0  0  0  0  0  0  0  0  0
   59.3770   33.8730   45.4330 C   0  0  0  0  0  0  0  0  0  0  0  0
   58.9990   32.7720   46.2420 O   0  0  0  0  0  0  0  0  0  0  0  0
   58.3540   33.2280   47.4090 C   0  0  0  0  0  0  0  0  0  0  0  0
   59.3620   33.9380   48.3310 C   0  0  0  0  0  0  0  0  0  0  0  0
   64.2876   32.9726   51.7000 H   0  0  0  0  0  0  0  0  0  0  0  0
   64.6203   32.0930   50.1695 H   0  0  0  0  0  0  0  0  0  0  0  0
   64.5113   33.8860   50.1695 H   0  0  0  0  0  0  0  0  0  0  0  0
   62.2182   30.3457   51.1485 H   0  0  0  0  0  0  0  0  0  0  0  0
   61.1662   28.5694   49.7577 H   0  0  0  0  0  0  0  0  0  0  0  0
   60.7124   28.8482   46.1607 H   0  0  0  0  0  0  0  0  0  0  0  0
   60.5245   27.7996   47.6164 H   0  0  0  0  0  0  0  0  0  0  0  0
   57.7081   26.6362   47.5841 H   0  0  0  0  0  0  0  0  0  0  0  0
   56.4729   26.7406   46.2575 H   0  0  0  0  0  0  0  0  0  0  0  0
   59.3634   25.9720   45.7107 H   0  0  0  0  0  0  0  0  0  0  0  0
   58.1079   24.7598   46.1855 H   0  0  0  0  0  0  0  0  0  0  0  0
   58.1907   24.7665   43.7923 H   0  0  0  0  0  0  0  0  0  0  0  0
   56.6885   25.6692   44.2975 H   0  0  0  0  0  0  0  0  0  0  0  0
   59.2959   27.0322   43.5741 H   0  0  0  0  0  0  0  0  0  0  0  0
   57.9074   26.6456   42.3983 H   0  0  0  0  0  0  0  0  0  0  0  0
   57.0759   28.4880   41.6148 H   0  0  0  0  0  0  0  0  0  0  0  0
   56.0399   30.7303   41.9116 H   0  0  0  0  0  0  0  0  0  0  0  0
   55.9319   31.7681   44.1755 H   0  0  0  0  0  0  0  0  0  0  0  0
   56.8555   30.5638   46.1444 H   0  0  0  0  0  0  0  0  0  0  0  0
   60.7698   31.3638   46.4818 H   0  0  0  0  0  0  0  0  0  0  0  0
   59.2284   35.8419   46.3262 H   0  0  0  0  0  0  0  0  0  0  0  0
   60.8730   35.4019   45.6849 H   0  0  0  0  0  0  0  0  0  0  0  0
   58.4846   34.2375   44.9031 H   0  0  0  0  0  0  0  0  0  0  0  0
   60.1559   33.5141   44.7441 H   0  0  0  0  0  0  0  0  0  0  0  0
   57.5565   33.9329   47.1315 H   0  0  0  0  0  0  0  0  0  0  0  0
   57.9253   32.3665   47.9420 H   0  0  0  0  0  0  0  0  0  0  0  0
   58.8189   34.6672   48.9501 H   0  0  0  0  0  0  0  0  0  0  0  0
   59.8509   33.1663   48.9437 H   0  0  0  0  0  0  0  0  0  0  0  0
  1  2  1  0
  2  3  1  0
  3  4  2  0
  4  5  1  0
  5  6  2  0
  6  7  1  0
  7  8  1  0
  8  9  2  0
  8 10  1  0
 10 11  1  0
 11 12  1  0
 12 13  1  0
 13 14  1  0
 14 15  1  0
 15 16  2  0
 16 17  1  0
 17 18  2  0
 18 19  1  0
 19 20  2  0
  6 21  1  0
 21 22  2  0
 22 23  1  0
 23 24  2  0
 23 25  2  0
 23 26  1  0
 26 27  1  0
 27 28  1  0
 28 29  1  0
 29 30  1  0
 30 31  1  0
 22  3  1  0
 31 26  1  0
 20 10  1  0
 20 15  1  0
  1 32  1  0
  1 33  1  0
  1 34  1  0
  4 35  1  0
  5 36  1  0
  7 37  1  0
  7 38  1  0
 11 39  1  0
 11 40  1  0
 12 41  1  0
 12 42  1  0
 13 43  1  0
 13 44  1  0
 14 45  1  0
 14 46  1  0
 16 47  1  0
 17 48  1  0
 18 49  1  0
 19 50  1  0
 21 51  1  0
 27 52  1  0
 27 53  1  0
 28 54  1  0
 28 55  1  0
 30 56  1  0
 30 57  1  0
 31 58  1  0
 31 59  1  0
M  END
>  <UniqueID>  (73) 
70

>  <SMILES>  (73) 
COc1ccc(CC(=O)N2CCCCc3ccccc32)cc1S(=O)(=O)N1CCOCC1

>  <Energy>  (73) 
86.49471878779784

>  <Genealogy>  (73) 
COc1ccc(CC(=O)N2CCCCc3ccccc32)cc1S(=O)(=O)N1CCOCC1 (3D coordinates assigned)
COc1ccc(CC(=O)N2CCCCc3ccccc32)cc1S(=O)(=O)N1CCOCC1 (nonaromatic ring conformer: 86.49471878779784 kcal/mol)

>  <smiles>  (73) 
COc1ccc(CC(=O)N2CCCCc3ccccc32)cc1S(=O)(=O)N1CCOCC1

>  <score_type>  (73) 
oracle

>  <origin>  (73) 
adg

>  <m_score__min__energy>  (73) 
-7.8899999999999997

>  <m_primary>  (73) 
energy

$$$$
73:0
     RDKit          3D

 30 31  0  0  0  0  0  0  0  0999 V2000
   60.4990   30.3270   49.8200 N   0  0  0  0  0  0  0  0  0  0  0  0
   58.7790   30.5000   49.7940 S   0  0  0  0  0  0  0  0  0  0  0  0
   58.1570   29.1960   50.2090 O   0  0  0  0  0  0  0  0  0  0  0  0
   58.3450   30.8410   48.3960 O   0  0  0  0  0  0  0  0  0  0  0  0
   58.2570   31.7800   50.8950 C   0  0  0  0  0  0  0  0  0  0  0  0
   59.1020   32.8740   51.1410 C   0  0  0  0  0  0  0  0  0  0  0  0
   58.7060   33.8900   52.0140 C   0  0  0  0  0  0  0  0  0  0  0  0
   57.4630   33.8260   52.6430 C   0  0  0  0  0  0  0  0  0  0  0  0
   56.6110   32.7470   52.4010 C   0  0  0  0  0  0  0  0  0  0  0  0
   56.9970   31.7140   51.5250 C   0  0  0  0  0  0  0  0  0  0  0  0
   56.1350   30.5970   51.2580 N   0  0  0  0  0  0  0  0  0  0  0  0
   54.9890   29.9220   52.3700 S   0  0  0  0  0  0  0  0  0  0  0  0
   54.7330   28.4870   52.0020 O   0  0  0  0  0  0  0  0  0  0  0  0
   55.5590   29.9790   53.7580 O   0  0  0  0  0  0  0  0  0  0  0  0
   53.4930   30.8500   52.3310 C   0  0  0  0  0  0  0  0  0  0  0  0
   52.7380   31.0270   53.4980 C   0  0  0  0  0  0  0  0  0  0  0  0
   51.5470   31.7570   53.4600 C   0  0  0  0  0  0  0  0  0  0  0  0
   51.1040   32.3160   52.2570 C   0  0  0  0  0  0  0  0  0  0  0  0
   49.9170   33.0390   52.2250 O   0  0  0  0  0  0  0  0  0  0  0  0
   51.8570   32.1450   51.0890 C   0  0  0  0  0  0  0  0  0  0  0  0
   51.4240   32.6990   49.8900 O   0  0  0  0  0  0  0  0  0  0  0  0
   53.0510   31.4160   51.1270 C   0  0  0  0  0  0  0  0  0  0  0  0
   60.7240   29.4250   49.3420 H   0  0  0  0  0  0  0  0  0  0  0  0
   60.0814   32.9313   50.6434 H   0  0  0  0  0  0  0  0  0  0  0  0
   59.3754   34.7416   52.2056 H   0  0  0  0  0  0  0  0  0  0  0  0
   57.1535   34.6268   53.3307 H   0  0  0  0  0  0  0  0  0  0  0  0
   55.6308   32.7033   52.8982 H   0  0  0  0  0  0  0  0  0  0  0  0
   53.0837   30.5902   54.4465 H   0  0  0  0  0  0  0  0  0  0  0  0
   50.9567   31.8922   54.3783 H   0  0  0  0  0  0  0  0  0  0  0  0
   53.6442   31.2868   50.2097 H   0  0  0  0  0  0  0  0  0  0  0  0
  1  2  1  0
  2  3  2  0
  2  4  2  0
  2  5  1  0
  5  6  2  0
  6  7  1  0
  7  8  2  0
  8  9  1  0
  9 10  2  0
 10 11  1  0
 11 12  1  0
 12 13  2  0
 12 14  2  0
 12 15  1  0
 15 16  2  0
 16 17  1  0
 17 18  2  0
 18 19  1  0
 18 20  1  0
 20 21  1  0
 20 22  2  0
 10  5  1  0
 22 15  1  0
  1 23  1  0
  6 24  1  0
  7 25  1  0
  8 26  1  0
  9 27  1  0
 16 28  1  0
 17 29  1  0
 22 30  1  0
M  CHG  4   1  -1  11  -1  19  -1  21  -1
M  END
>  <UniqueID>  (74) 
71

>  <SMILES>  (74) 
[NH-]S(=O)(=O)c1ccccc1[N-]S(=O)(=O)c1ccc([O-])c([O-])c1

>  <Energy>  (74) 
34.89720583445583

>  <Genealogy>  (74) 
[NH-]S(=O)(=O)c1ccccc1[N-]S(=O)(=O)c1ccc([O-])c([O-])c1 (protonated)
[NH-]S(=O)(=O)c1ccccc1[N-]S(=O)(=O)c1ccc([O-])c([O-])c1 (3D coordinates assigned)
[NH-]S(=O)(=O)c1ccccc1[N-]S(=O)(=O)c1ccc([O-])c([O-])c1 (optimized conformer: 34.89720583445583 kcal/mol)

>  <smiles>  (74) 
NS(=O)(=O)c1ccccc1NS(=O)(=O)c1ccc(O)c(O)c1

>  <score_type>  (74) 
oracle

>  <origin>  (74) 
adg

>  <m_score__min__energy>  (74) 
-16.640000000000001

>  <m_primary>  (74) 
energy

$$$$
74:0
     RDKit          3D

 52 55  0  0  0  0  0  0  0  0999 V2000
   61.8810   26.6310   51.6350 C   0  0  0  0  0  0  0  0  0  0  0  0
   61.3030   27.8540   52.0800 O   0  0  0  0  0  0  0  0  0  0  0  0
   60.4570   28.6610   51.3040 C   0  0  0  0  0  0  0  0  0  0  0  0
   60.8330   29.1500   50.0390 C   0  0  0  0  0  0  0  0  0  0  0  0
   59.9580   29.9530   49.2940 C   0  0  0  0  0  0  0  0  0  0  0  0
   60.3780   30.4490   48.0100 N   0  0  0  0  0  0  0  0  0  0  0  0
   60.7110   32.1230   47.6870 S   0  0  0  0  0  0  0  0  0  0  0  0
   62.1690   32.2810   47.3520 O   0  0  0  0  0  0  0  0  0  0  0  0
   60.4050   32.9380   48.9110 O   0  0  0  0  0  0  0  0  0  0  0  0
   59.6960   32.6820   46.3610 C   0  0  0  0  0  0  0  0  0  0  0  0
   59.8010   33.9950   45.8830 C   0  0  0  0  0  0  0  0  0  0  0  0
   59.0340   34.4070   44.7920 C   0  0  0  0  0  0  0  0  0  0  0  0
   58.1470   33.5170   44.1810 C   0  0  0  0  0  0  0  0  0  0  0  0
   58.0120   32.2060   44.6650 C   0  0  0  0  0  0  0  0  0  0  0  0
   57.0420   31.2780   44.0370 C   0  0  0  0  0  0  0  0  0  0  0  0
   56.9560   31.2330   42.7810 O   0  0  0  0  0  0  0  0  0  0  0  0
   56.2340   30.3800   44.8150 N   0  0  0  0  0  0  0  0  0  0  0  0
   56.1040   29.1240   44.6060 N   0  0  0  0  0  0  0  0  0  0  0  0
   56.7460   28.0860   45.3600 C   0  0  0  0  0  0  0  0  0  0  0  0
   56.1620   26.9980   45.9940 C   0  0  0  0  0  0  0  0  0  0  0  0
   54.8010   26.7140   46.0090 O   0  0  0  0  0  0  0  0  0  0  0  0
   57.0870   26.2040   46.5830 N   0  0  0  0  0  0  0  0  0  0  0  0
   58.2630   26.7950   46.2890 C   0  0  0  0  0  0  0  0  0  0  0  0
   59.5310   26.3600   46.6680 C   0  0  0  0  0  0  0  0  0  0  0  0
   60.6430   27.1110   46.2450 C   0  0  0  0  0  0  0  0  0  0  0  0
   60.4660   28.2710   45.4610 C   0  0  0  0  0  0  0  0  0  0  0  0
   59.1750   28.6970   45.0990 C   0  0  0  0  0  0  0  0  0  0  0  0
   58.0960   27.9290   45.5310 C   0  0  0  0  0  0  0  0  0  0  0  0
   58.8070   31.7900   45.7480 C   0  0  0  0  0  0  0  0  0  0  0  0
   58.6860   30.2470   49.8180 C   0  0  0  0  0  0  0  0  0  0  0  0
   58.3070   29.7780   51.0880 C   0  0  0  0  0  0  0  0  0  0  0  0
   57.0620   30.0790   51.6590 O   0  0  0  0  0  0  0  0  0  0  0  0
   56.6310   31.3920   52.0000 C   0  0  0  0  0  0  0  0  0  0  0  0
   59.1970   28.9840   51.8160 C   0  0  0  0  0  0  0  0  0  0  0  0
   62.1683   26.0231   52.5056 H   0  0  0  0  0  0  0  0  0  0  0  0
   61.1486   26.0788   51.0278 H   0  0  0  0  0  0  0  0  0  0  0  0
   62.7726   26.8464   51.0278 H   0  0  0  0  0  0  0  0  0  0  0  0
   61.8233   28.8997   49.6308 H   0  0  0  0  0  0  0  0  0  0  0  0
   60.6150   29.7670   47.2550 H   0  0  0  0  0  0  0  0  0  0  0  0
   60.4893   34.7025   46.3685 H   0  0  0  0  0  0  0  0  0  0  0  0
   59.1281   35.4351   44.4123 H   0  0  0  0  0  0  0  0  0  0  0  0
   57.5514   33.8451   43.3164 H   0  0  0  0  0  0  0  0  0  0  0  0
   59.6591   25.4553   47.2804 H   0  0  0  0  0  0  0  0  0  0  0  0
   61.6571   26.7919   46.5273 H   0  0  0  0  0  0  0  0  0  0  0  0
   61.3436   28.8461   45.1306 H   0  0  0  0  0  0  0  0  0  0  0  0
   59.0229   29.6044   44.4961 H   0  0  0  0  0  0  0  0  0  0  0  0
   58.7300   30.7564   46.1164 H   0  0  0  0  0  0  0  0  0  0  0  0
   57.9805   30.8502   49.2278 H   0  0  0  0  0  0  0  0  0  0  0  0
   56.5975   31.4942   53.0947 H   0  0  0  0  0  0  0  0  0  0  0  0
   57.3346   32.1284   51.5844 H   0  0  0  0  0  0  0  0  0  0  0  0
   55.6279   31.5682   51.5844 H   0  0  0  0  0  0  0  0  0  0  0  0
   58.9018   28.6076   52.8065 H   0  0  0  0  0  0  0  0  0  0  0  0
  1  2  1  0
  2  3  1  0
  3  4  2  0
  4  5  1  0
  5  6  1  0
  6  7  1  0
  7  8  2  0
  7  9  2  0
  7 10  1  0
 10 11  2  0
 11 12  1  0
 12 13  2  0
 13 14  1  0
 14 15  1  0
 15 16  2  0
 15 17  1  0
 17 18  2  3
 18 19  1  0
 19 20  2  0
 20 21  1  0
 20 22  1  0
 22 23  1  0
 23 24  2  0
 24 25  1  0
 25 26  2  0
 26 27  1  0
 27 28  2  0
 14 29  2  0
  5 30  2  0
 30 31  1  0
 31 32  1  0
 32 33  1  0
 31 34  2  0
 34  3  1  0
 29 10  1  0
 28 19  1  0
 28 23  1  0
  1 35  1  0
  1 36  1  0
  1 37  1  0
  4 38  1  0
  6 39  1  0
 11 40  1  0
 12 41  1  0
 13 42  1  0
 24 43  1  0
 25 44  1  0
 26 45  1  0
 27 46  1  0
 29 47  1  0
 30 48  1  0
 33 49  1  0
 33 50  1  0
 33 51  1  0
 34 52  1  0
M  CHG  2  21  -1  22  -1
M  END
>  <UniqueID>  (75) 
72

>  <SMILES>  (75) 
COc1cc(NS(=O)(=O)c2cccc(C(=O)N=Nc3c([O-])[n-]c4ccccc34)c2)cc(OC)c1

>  <Energy>  (75) 
103.41695241245287

>  <Genealogy>  (75) 
COc1cc(NS(=O)(=O)c2cccc(C(=O)N=Nc3c([O-])[n-]c4ccccc34)c2)cc(OC)c1 (protonated)
COc1cc(NS(=O)(=O)c2cccc(C(=O)N=Nc3c([O-])[n-]c4ccccc34)c2)cc(OC)c1 (3D coordinates assigned)
COc1cc(NS(=O)(=O)c2cccc(C(=O)N=Nc3c([O-])[n-]c4ccccc34)c2)cc(OC)c1 (optimized conformer: 103.41695241245287 kcal/mol)

>  <smiles>  (75) 
COc1cc(NS(=O)(=O)c2cccc(C(=O)N=Nc3c(O)[nH]c4ccccc34)c2)cc(OC)c1

>  <score_type>  (75) 
oracle

>  <origin>  (75) 
adg

>  <m_score__min__energy>  (75) 
-15.6

>  <m_primary>  (75) 
energy

$$$$
75:0
     RDKit          3D

 43 45  0  0  0  0  0  0  0  0999 V2000
   55.7590   29.7300   45.9970 H   0  0  0  0  0  0  0  0  0  0  0  0
   55.3450   29.4970   45.1260 O   0  0  0  0  0  0  0  0  0  0  0  0
   55.8510   30.4140   44.1960 C   0  0  0  0  0  0  0  0  0  0  0  0
   55.5738   31.4334   44.5024 H   0  0  0  0  0  0  0  0  0  0  0  0
   55.4275   30.1927   43.2052 H   0  0  0  0  0  0  0  0  0  0  0  0
   57.3740   30.3040   44.1250 C   0  0  0  0  0  0  0  0  0  0  0  0
   57.7527   31.0217   43.3824 H   0  0  0  0  0  0  0  0  0  0  0  0
   57.6390   29.2762   43.8360 H   0  0  0  0  0  0  0  0  0  0  0  0
   57.9860   30.5980   45.4380 N   0  0  0  0  0  0  0  0  0  0  0  0
   58.0080   29.6400   46.4140 C   0  0  0  0  0  0  0  0  0  0  0  0
   57.5410   28.4890   46.1940 O   0  0  0  0  0  0  0  0  0  0  0  0
   58.5360   29.9170   47.6300 N   0  0  0  0  0  0  0  0  0  0  0  0
   58.5770   29.1410   48.3280 H   0  0  0  0  0  0  0  0  0  0  0  0
   59.0310   31.1550   47.9140 C   0  0  0  0  0  0  0  0  0  0  0  0
   59.5320   31.4240   49.0920 N   0  0  0  0  0  0  0  0  0  0  0  0
   58.8210   31.6750   50.3130 C   0  0  0  0  0  0  0  0  0  0  0  0
   58.9000   32.9450   50.9000 C   0  0  0  0  0  0  0  0  0  0  0  0
   59.5410   33.7178   50.4507 H   0  0  0  0  0  0  0  0  0  0  0  0
   58.1660   33.2330   52.0560 C   0  0  0  0  0  0  0  0  0  0  0  0
   58.2469   34.2245   52.5254 H   0  0  0  0  0  0  0  0  0  0  0  0
   57.3300   32.2620   52.6150 C   0  0  0  0  0  0  0  0  0  0  0  0
   56.7598   32.4867   53.5284 H   0  0  0  0  0  0  0  0  0  0  0  0
   57.2190   31.0060   52.0130 C   0  0  0  0  0  0  0  0  0  0  0  0
   56.5537   30.2456   52.4479 H   0  0  0  0  0  0  0  0  0  0  0  0
   57.9520   30.7140   50.8590 C   0  0  0  0  0  0  0  0  0  0  0  0
   57.8487   29.7305   50.3772 H   0  0  0  0  0  0  0  0  0  0  0  0
   59.0340   32.1220   46.9400 N   0  0  0  0  0  0  0  0  0  0  0  0
   59.5490   33.4770   47.2380 C   0  0  0  0  0  0  0  0  0  0  0  0
   59.5591   34.0721   46.3129 H   0  0  0  0  0  0  0  0  0  0  0  0
   58.8952   33.9499   47.9856 H   0  0  0  0  0  0  0  0  0  0  0  0
   60.9480   33.3990   47.7930 C   0  0  0  0  0  0  0  0  0  0  0  0
   61.2890   34.1120   48.9550 C   0  0  0  0  0  0  0  0  0  0  0  0
   60.5389   34.7493   49.4462 H   0  0  0  0  0  0  0  0  0  0  0  0
   62.5780   34.0150   49.4900 C   0  0  0  0  0  0  0  0  0  0  0  0
   62.8386   34.5772   50.3989 H   0  0  0  0  0  0  0  0  0  0  0  0
   63.5360   33.2050   48.8720 C   0  0  0  0  0  0  0  0  0  0  0  0
   65.1500   33.0820   49.5460 Cl  0  0  0  0  0  0  0  0  0  0  0  0
   63.2030   32.4910   47.7160 C   0  0  0  0  0  0  0  0  0  0  0  0
   63.9555   31.8533   47.2291 H   0  0  0  0  0  0  0  0  0  0  0  0
   61.9160   32.5860   47.1780 C   0  0  0  0  0  0  0  0  0  0  0  0
   61.6597   32.0219   46.2691 H   0  0  0  0  0  0  0  0  0  0  0  0
   58.4970   31.8400   45.7080 C   0  0  0  0  0  0  0  0  0  0  0  0
   58.4700   32.7330   44.8150 O   0  0  0  0  0  0  0  0  0  0  0  0
  1  2  1  0
  2  3  1  0
  3  4  1  0
  3  5  1  0
  3  6  1  0
  6  7  1  0
  6  8  1  0
  6  9  1  0
  9 10  1  0
 10 11  2  0
 10 12  1  0
 12 13  1  0
 12 14  1  0
 14 15  2  0
 15 16  1  0
 16 17  2  0
 17 18  1  0
 17 19  1  0
 19 20  1  0
 19 21  2  0
 21 22  1  0
 21 23  1  0
 23 24  1  0
 23 25  2  0
 25 26  1  0
 14 27  1  0
 27 28  1  0
 28 29  1  0
 28 30  1  0
 28 31  1  0
 31 32  2  0
 32 33  1  0
 32 34  1  0
 34 35  1  0
 34 36  2  0
 36 37  1  0
 36 38  1  0
 38 39  1  0
 38 40  2  0
 40 41  1  0
 27 42  1  0
 42 43  2  0
 42  9  1  0
 25 16  1  0
 40 31  1  0
M  END
>  <UniqueID>  (76) 
73

>  <SMILES>  (76) 
O=c1[nH]/c(=N\c2ccccc2)n(Cc2ccc(Cl)cc2)c(=O)n1CCO

>  <Energy>  (76) 
58.297856159092674

>  <Genealogy>  (76) 
O=c1[nH]/c(=N\c2ccccc2)n(Cc2ccc(Cl)cc2)c(=O)n1CCO (cis-trans isomerization)
O=c1[nH]/c(=N\c2ccccc2)n(Cc2ccc(Cl)cc2)c(=O)n1CCO (3D coordinates assigned)
O=c1[nH]/c(=N\c2ccccc2)n(Cc2ccc(Cl)cc2)c(=O)n1CCO (optimized conformer: 58.297856159092674 kcal/mol)

>  <smiles>  (76) 
O=c1[nH]c(=Nc2ccccc2)n(Cc2ccc(Cl)cc2)c(=O)n1CCO

>  <score_type>  (76) 
oracle

>  <origin>  (76) 
adg

>  <m_score__min__energy>  (76) 
-7.8600000000000003

>  <m_primary>  (76) 
energy

$$$$
76:0
     RDKit          3D

 54 57  0  0  0  0  0  0  0  0999 V2000
   60.3360   34.1510   49.6190 C   0  0  0  0  0  0  0  0  0  0  0  0
   59.8310   33.4480   50.8470 C   0  0  0  0  0  0  0  0  0  0  0  0
   58.8580   34.0600   51.6560 C   0  0  0  0  0  0  0  0  0  0  0  0
   58.4080   33.4300   52.8170 C   0  0  0  0  0  0  0  0  0  0  0  0
   58.9350   32.1930   53.1920 C   0  0  0  0  0  0  0  0  0  0  0  0
   59.9100   31.5780   52.4010 C   0  0  0  0  0  0  0  0  0  0  0  0
   60.3570   32.1940   51.2170 C   0  0  0  0  0  0  0  0  0  0  0  0
   61.3530   31.6060   50.4220 O   0  0  0  0  0  0  0  0  0  0  0  0
   61.1400   30.9680   49.1900 C   0  0  0  0  0  0  0  0  0  0  0  0
   61.7240   31.5130   48.0420 C   0  0  0  0  0  0  0  0  0  0  0  0
   61.5170   30.9230   46.7930 C   0  0  0  0  0  0  0  0  0  0  0  0
   60.7120   29.7770   46.6680 C   0  0  0  0  0  0  0  0  0  0  0  0
   60.4860   29.1560   45.3420 C   0  0  0  0  0  0  0  0  0  0  0  0
   61.4600   28.9610   44.5650 O   0  0  0  0  0  0  0  0  0  0  0  0
   59.1700   28.7290   44.9660 N   0  0  0  0  0  0  0  0  0  0  0  0
   58.4650   27.5770   45.4590 C   0  0  0  0  0  0  0  0  0  0  0  0
   59.1390   26.3850   45.7750 C   0  0  0  0  0  0  0  0  0  0  0  0
   58.4310   25.2740   46.2380 C   0  0  0  0  0  0  0  0  0  0  0  0
   57.0380   25.3300   46.3930 C   0  0  0  0  0  0  0  0  0  0  0  0
   56.2970   24.1570   46.9060 C   0  0  0  0  0  0  0  0  0  0  0  0
   55.0480   24.0730   46.7600 O   0  0  0  0  0  0  0  0  0  0  0  0
   56.9680   23.1290   47.5580 O   0  0  0  0  0  0  0  0  0  0  0  0
   56.3620   26.5150   46.0520 C   0  0  0  0  0  0  0  0  0  0  0  0
   57.0650   27.6290   45.5560 C   0  0  0  0  0  0  0  0  0  0  0  0
   56.3920   28.8510   45.2150 N   0  0  0  0  0  0  0  0  0  0  0  0
   56.7870   29.8000   44.2150 C   0  0  0  0  0  0  0  0  0  0  0  0
   56.6280   29.5340   42.9930 O   0  0  0  0  0  0  0  0  0  0  0  0
   57.4560   31.0570   44.6250 C   0  0  0  0  0  0  0  0  0  0  0  0
   57.7630   31.2540   45.9840 C   0  0  0  0  0  0  0  0  0  0  0  0
   58.3990   32.4200   46.4090 C   0  0  0  0  0  0  0  0  0  0  0  0
   58.7310   33.4140   45.4870 C   0  0  0  0  0  0  0  0  0  0  0  0
   59.5340   34.8780   46.0240 Cl  0  0  0  0  0  0  0  0  0  0  0  0
   58.4270   33.2390   44.1360 C   0  0  0  0  0  0  0  0  0  0  0  0
   57.7910   32.0720   43.6950 C   0  0  0  0  0  0  0  0  0  0  0  0
   57.3820   31.9640   41.9850 Cl  0  0  0  0  0  0  0  0  0  0  0  0
   60.1140   29.2400   47.8230 C   0  0  0  0  0  0  0  0  0  0  0  0
   60.3190   29.8330   49.0700 C   0  0  0  0  0  0  0  0  0  0  0  0
   60.9538   35.0110   49.9168 H   0  0  0  0  0  0  0  0  0  0  0  0
   60.9414   33.4543   49.0205 H   0  0  0  0  0  0  0  0  0  0  0  0
   59.4825   34.5023   49.0205 H   0  0  0  0  0  0  0  0  0  0  0  0
   58.4490   35.0410   51.3724 H   0  0  0  0  0  0  0  0  0  0  0  0
   57.6366   33.9091   53.4378 H   0  0  0  0  0  0  0  0  0  0  0  0
   58.5828   31.7016   54.1109 H   0  0  0  0  0  0  0  0  0  0  0  0
   60.3299   30.6079   52.7054 H   0  0  0  0  0  0  0  0  0  0  0  0
   62.3511   32.4131   48.1233 H   0  0  0  0  0  0  0  0  0  0  0  0
   61.9878   31.3587   45.8994 H   0  0  0  0  0  0  0  0  0  0  0  0
   60.2311   26.3268   45.6569 H   0  0  0  0  0  0  0  0  0  0  0  0
   58.9702   24.3471   46.4832 H   0  0  0  0  0  0  0  0  0  0  0  0
   55.2703   26.5721   46.1744 H   0  0  0  0  0  0  0  0  0  0  0  0
   57.4984   30.4798   46.7192 H   0  0  0  0  0  0  0  0  0  0  0  0
   58.6397   32.5568   47.4736 H   0  0  0  0  0  0  0  0  0  0  0  0
   58.6892   34.0243   43.4117 H   0  0  0  0  0  0  0  0  0  0  0  0
   59.4794   28.3451   47.7426 H   0  0  0  0  0  0  0  0  0  0  0  0
   59.8358   29.4102   49.9632 H   0  0  0  0  0  0  0  0  0  0  0  0
  1  2  1  0
  2  3  2  0
  3  4  1  0
  4  5  2  0
  5  6  1  0
  6  7  2  0
  7  8  1  0
  8  9  1  0
  9 10  2  0
 10 11  1  0
 11 12  2  0
 12 13  1  0
 13 14  2  0
 13 15  1  0
 15 16  1  0
 16 17  2  0
 17 18  1  0
 18 19  2  0
 19 20  1  0
 20 21  2  0
 20 22  1  0
 19 23  1  0
 23 24  2  0
 24 25  1  0
 25 26  1  0
 26 27  2  0
 26 28  1  0
 28 29  2  0
 29 30  1  0
 30 31  2  0
 31 32  1  0
 31 33  1  0
 33 34  2  0
 34 35  1  0
 12 36  1  0
 36 37  2  0
  7  2  1  0
 37  9  1  0
 24 16  1  0
 34 28  1  0
  1 38  1  0
  1 39  1  0
  1 40  1  0
  3 41  1  0
  4 42  1  0
  5 43  1  0
  6 44  1  0
 10 45  1  0
 11 46  1  0
 17 47  1  0
 18 48  1  0
 23 49  1  0
 29 50  1  0
 30 51  1  0
 33 52  1  0
 36 53  1  0
 37 54  1  0
M  CHG  3  15  -1  22  -1  25  -1
M  END
>  <UniqueID>  (77) 
74

>  <SMILES>  (77) 
Cc1ccccc1Oc1ccc(C(=O)[N-]c2ccc(C(=O)[O-])cc2[N-]C(=O)c2ccc(Cl)cc2Cl)cc1

>  <Energy>  (77) 
78.40685349785042

>  <Genealogy>  (77) 
Cc1ccccc1Oc1ccc(C(=O)[N-]c2ccc(C(=O)[O-])cc2[N-]C(=O)c2ccc(Cl)cc2Cl)cc1 (protonated)
Cc1ccccc1Oc1ccc(C(=O)[N-]c2ccc(C(=O)[O-])cc2[N-]C(=O)c2ccc(Cl)cc2Cl)cc1 (3D coordinates assigned)
Cc1ccccc1Oc1ccc(C(=O)[N-]c2ccc(C(=O)[O-])cc2[N-]C(=O)c2ccc(Cl)cc2Cl)cc1 (optimized conformer: 78.40685349785042 kcal/mol)

>  <smiles>  (77) 
Cc1ccccc1Oc1ccc(C(=O)Nc2ccc(C(=O)O)cc2NC(=O)c2ccc(Cl)cc2Cl)cc1

>  <score_type>  (77) 
oracle

>  <origin>  (77) 
adg

>  <m_score__min__energy>  (77) 
-14.34

>  <m_primary>  (77) 
energy

$$$$
77:0
     RDKit          3D

 59 62  0  0  0  0  0  0  0  0999 V2000
   51.7670   29.8900   48.7280 C   0  0  0  0  0  0  0  0  0  0  0  0
   52.1390   30.4390   50.0760 C   0  0  0  0  0  0  0  0  0  0  0  0
   53.0240   29.7220   50.8970 C   0  0  0  0  0  0  0  0  0  0  0  0
   53.3350   30.1800   52.1860 C   0  0  0  0  0  0  0  0  0  0  0  0
   54.2500   29.4010   53.0440 C   0  0  0  0  0  0  0  0  0  0  0  0
   53.9170   28.2300   53.3760 O   0  0  0  0  0  0  0  0  0  0  0  0
   55.4960   29.9510   53.5200 N   0  0  0  0  0  0  0  0  0  0  0  0
   56.2210   29.2360   54.5750 C   0  0  0  0  0  0  0  0  0  0  0  0
   55.9610   31.2760   53.0750 C   0  0  0  0  0  0  0  0  0  0  0  0
   57.1180   31.1320   52.1230 C   0  0  0  0  0  0  0  0  0  0  0  0
   57.8150   32.2670   51.6880 C   0  0  0  0  0  0  0  0  0  0  0  0
   58.8750   32.1450   50.7850 C   0  0  0  0  0  0  0  0  0  0  0  0
   59.2410   30.8840   50.2790 C   0  0  0  0  0  0  0  0  0  0  0  0
   60.3630   30.7260   49.3210 C   0  0  0  0  0  0  0  0  0  0  0  0
   60.3540   29.7510   48.5210 O   0  0  0  0  0  0  0  0  0  0  0  0
   61.4420   31.6770   49.2650 N   0  0  0  0  0  0  0  0  0  0  0  0
   62.4790   31.6250   48.2340 C   0  0  0  0  0  0  0  0  0  0  0  0
   62.3390   32.8010   47.2620 C   0  0  0  0  0  0  0  0  0  0  0  0
   60.9850   33.4410   47.3620 C   0  0  0  0  0  0  0  0  0  0  0  0
   60.6750   34.6200   48.0330 C   0  0  0  0  0  0  0  0  0  0  0  0
   59.3740   34.9400   47.8470 N   0  0  0  0  0  0  0  0  0  0  0  0
   58.8640   33.9820   47.0540 C   0  0  0  0  0  0  0  0  0  0  0  0
   57.5570   33.8860   46.5770 C   0  0  0  0  0  0  0  0  0  0  0  0
   57.2400   32.7970   45.7460 C   0  0  0  0  0  0  0  0  0  0  0  0
   58.2270   31.8510   45.3950 C   0  0  0  0  0  0  0  0  0  0  0  0
   59.5380   31.9730   45.8900 C   0  0  0  0  0  0  0  0  0  0  0  0
   59.8190   33.0520   46.7300 C   0  0  0  0  0  0  0  0  0  0  0  0
   58.5320   29.7490   50.7140 C   0  0  0  0  0  0  0  0  0  0  0  0
   57.4830   29.8720   51.6290 C   0  0  0  0  0  0  0  0  0  0  0  0
   52.7770   31.3830   52.6420 C   0  0  0  0  0  0  0  0  0  0  0  0
   51.8840   32.0950   51.8370 C   0  0  0  0  0  0  0  0  0  0  0  0
   51.5520   31.6220   50.5630 C   0  0  0  0  0  0  0  0  0  0  0  0
   50.6410   32.3340   49.7910 O   0  0  0  0  0  0  0  0  0  0  0  0
   51.1542   28.9856   48.8568 H   0  0  0  0  0  0  0  0  0  0  0  0
   51.1937   30.6450   48.1701 H   0  0  0  0  0  0  0  0  0  0  0  0
   52.6807   29.6374   48.1701 H   0  0  0  0  0  0  0  0  0  0  0  0
   53.4782   28.7915   50.5256 H   0  0  0  0  0  0  0  0  0  0  0  0
   55.8710   29.5812   55.5590 H   0  0  0  0  0  0  0  0  0  0  0  0
   56.0373   28.1557   54.4787 H   0  0  0  0  0  0  0  0  0  0  0  0
   57.2986   29.4347   54.4787 H   0  0  0  0  0  0  0  0  0  0  0  0
   55.1365   31.7981   52.5675 H   0  0  0  0  0  0  0  0  0  0  0  0
   56.2896   31.8527   53.9522 H   0  0  0  0  0  0  0  0  0  0  0  0
   57.5260   33.2611   52.0597 H   0  0  0  0  0  0  0  0  0  0  0  0
   59.4273   33.0417   50.4675 H   0  0  0  0  0  0  0  0  0  0  0  0
   61.3980   32.5470   49.8390 H   0  0  0  0  0  0  0  0  0  0  0  0
   63.4676   31.6697   48.7142 H   0  0  0  0  0  0  0  0  0  0  0  0
   62.3693   30.6867   47.6705 H   0  0  0  0  0  0  0  0  0  0  0  0
   63.1074   33.5522   47.4972 H   0  0  0  0  0  0  0  0  0  0  0  0
   62.4645   32.4186   46.2383 H   0  0  0  0  0  0  0  0  0  0  0  0
   61.3871   35.2084   48.6301 H   0  0  0  0  0  0  0  0  0  0  0  0
   58.8740   35.7730   48.2330 H   0  0  0  0  0  0  0  0  0  0  0  0
   56.7989   34.6377   46.8422 H   0  0  0  0  0  0  0  0  0  0  0  0
   56.2141   32.6813   45.3662 H   0  0  0  0  0  0  0  0  0  0  0  0
   57.9694   31.0132   44.7303 H   0  0  0  0  0  0  0  0  0  0  0  0
   60.3161   31.2423   45.6240 H   0  0  0  0  0  0  0  0  0  0  0  0
   58.8062   28.7553   50.3301 H   0  0  0  0  0  0  0  0  0  0  0  0
   56.9408   28.9752   51.9634 H   0  0  0  0  0  0  0  0  0  0  0  0
   53.0434   31.7677   53.6375 H   0  0  0  0  0  0  0  0  0  0  0  0
   51.4403   33.0312   52.2065 H   0  0  0  0  0  0  0  0  0  0  0  0
  1  2  1  0
  2  3  2  0
  3  4  1  0
  4  5  1  0
  5  6  2  0
  5  7  1  0
  7  8  1  0
  7  9  1  0
  9 10  1  0
 10 11  2  0
 11 12  1  0
 12 13  2  0
 13 14  1  0
 14 15  2  0
 14 16  1  0
 16 17  1  0
 17 18  1  0
 18 19  1  0
 19 20  2  0
 20 21  1  0
 21 22  1  0
 22 23  2  0
 23 24  1  0
 24 25  2  0
 25 26  1  0
 26 27  2  0
 13 28  1  0
 28 29  2  0
  4 30  2  0
 30 31  1  0
 31 32  2  0
 32 33  1  0
 32  2  1  0
 29 10  1  0
 27 19  1  0
 27 22  1  0
  1 34  1  0
  1 35  1  0
  1 36  1  0
  3 37  1  0
  8 38  1  0
  8 39  1  0
  8 40  1  0
  9 41  1  0
  9 42  1  0
 11 43  1  0
 12 44  1  0
 16 45  1  0
 17 46  1  0
 17 47  1  0
 18 48  1  0
 18 49  1  0
 20 50  1  0
 21 51  1  0
 23 52  1  0
 24 53  1  0
 25 54  1  0
 26 55  1  0
 28 56  1  0
 29 57  1  0
 30 58  1  0
 31 59  1  0
M  CHG  1  33  -1
M  END
>  <UniqueID>  (78) 
75

>  <SMILES>  (78) 
Cc1cc(C(=O)N(C)Cc2ccc(C(=O)NCCc3c[nH]c4ccccc34)cc2)ccc1[O-]

>  <Energy>  (78) 
91.22964608669766

>  <Genealogy>  (78) 
Cc1cc(C(=O)N(C)Cc2ccc(C(=O)NCCc3c[nH]c4ccccc34)cc2)ccc1[O-] (protonated)
Cc1cc(C(=O)N(C)Cc2ccc(C(=O)NCCc3c[nH]c4ccccc34)cc2)ccc1[O-] (3D coordinates assigned)
Cc1cc(C(=O)N(C)Cc2ccc(C(=O)NCCc3c[nH]c4ccccc34)cc2)ccc1[O-] (optimized conformer: 91.22964608669766 kcal/mol)

>  <smiles>  (78) 
Cc1cc(C(=O)N(C)Cc2ccc(C(=O)NCCc3c[nH]c4ccccc34)cc2)ccc1O

>  <score_type>  (78) 
oracle

>  <origin>  (78) 
adg

>  <m_score__min__energy>  (78) 
-12.699999999999999

>  <m_primary>  (78) 
energy

$$$$
78:0
     RDKit          3D

 38 40  0  0  0  0  0  0  0  0999 V2000
   59.5520   32.3900   46.8460 C   0  0  0  0  0  0  0  0  0  0  0  0
   58.4290   31.5330   47.0280 O   0  0  0  0  0  0  0  0  0  0  0  0
   58.3010   30.2580   46.4520 C   0  0  0  0  0  0  0  0  0  0  0  0
   58.9880   29.1380   46.9590 C   0  0  0  0  0  0  0  0  0  0  0  0
   58.8310   27.8800   46.3650 C   0  0  0  0  0  0  0  0  0  0  0  0
   59.6710   26.4790   47.0240 S   0  0  0  0  0  0  0  0  0  0  0  0
   60.4390   26.9030   48.2430 O   0  0  0  0  0  0  0  0  0  0  0  0
   60.6260   25.9120   46.0110 O   0  0  0  0  0  0  0  0  0  0  0  0
   58.5300   25.2520   47.4730 N   0  0  0  0  0  0  0  0  0  0  0  0
   57.5930   24.6300   46.5830 C   0  0  0  0  0  0  0  0  0  0  0  0
   58.0150   23.8300   45.4830 C   0  0  0  0  0  0  0  0  0  0  0  0
   57.0700   23.2460   44.6200 C   0  0  0  0  0  0  0  0  0  0  0  0
   55.7220   23.4740   44.8830 C   0  0  0  0  0  0  0  0  0  0  0  0
   54.6640   23.0190   44.1970 N   0  0  0  0  0  0  0  0  0  0  0  0
   53.6270   23.5470   44.8950 C   0  0  0  0  0  0  0  0  0  0  0  0
   52.4270   23.3520   44.5680 O   0  0  0  0  0  0  0  0  0  0  0  0
   53.9740   24.2980   45.9710 N   0  0  0  0  0  0  0  0  0  0  0  0
   55.3140   24.2330   45.9360 C   0  0  0  0  0  0  0  0  0  0  0  0
   56.2170   24.8280   46.8120 C   0  0  0  0  0  0  0  0  0  0  0  0
   58.0100   27.7420   45.2420 C   0  0  0  0  0  0  0  0  0  0  0  0
   57.3310   28.8480   44.7280 C   0  0  0  0  0  0  0  0  0  0  0  0
   57.4520   30.1050   45.3440 C   0  0  0  0  0  0  0  0  0  0  0  0
   56.7790   31.2590   44.8170 N   0  0  0  0  0  0  0  0  0  0  0  0
   57.3910   32.3890   44.1820 C   0  0  0  0  0  0  0  0  0  0  0  0
   58.0200   32.2960   42.8250 C   0  0  0  0  0  0  0  0  0  0  0  0
   57.3690   33.5030   44.7690 O   0  0  0  0  0  0  0  0  0  0  0  0
   59.9464   32.6910   47.8277 H   0  0  0  0  0  0  0  0  0  0  0  0
   60.3333   31.8564   46.2849 H   0  0  0  0  0  0  0  0  0  0  0  0
   59.2436   33.2844   46.2849 H   0  0  0  0  0  0  0  0  0  0  0  0
   59.6527   29.2524   47.8279 H   0  0  0  0  0  0  0  0  0  0  0  0
   59.0885   23.6674   45.3068 H   0  0  0  0  0  0  0  0  0  0  0  0
   57.3857   22.6295   43.7655 H   0  0  0  0  0  0  0  0  0  0  0  0
   55.8663   25.4357   47.6592 H   0  0  0  0  0  0  0  0  0  0  0  0
   57.8987   26.7586   44.7618 H   0  0  0  0  0  0  0  0  0  0  0  0
   56.6977   28.7348   43.8357 H   0  0  0  0  0  0  0  0  0  0  0  0
   59.1029   32.1359   42.9330 H   0  0  0  0  0  0  0  0  0  0  0  0
   57.5780   31.4534   42.2730 H   0  0  0  0  0  0  0  0  0  0  0  0
   57.8408   33.2304   42.2730 H   0  0  0  0  0  0  0  0  0  0  0  0
  1  2  1  0
  2  3  1  0
  3  4  2  0
  4  5  1  0
  5  6  1  0
  6  7  2  0
  6  8  2  0
  6  9  1  0
  9 10  1  0
 10 11  2  0
 11 12  1  0
 12 13  2  0
 13 14  1  0
 14 15  1  0
 15 16  2  0
 15 17  1  0
 17 18  1  0
 18 19  2  0
  5 20  2  0
 20 21  1  0
 21 22  2  0
 22 23  1  0
 23 24  1  0
 24 25  1  0
 24 26  2  0
 22  3  1  0
 19 10  1  0
 18 13  1  0
  1 27  1  0
  1 28  1  0
  1 29  1  0
  4 30  1  0
 11 31  1  0
 12 32  1  0
 19 33  1  0
 20 34  1  0
 21 35  1  0
 25 36  1  0
 25 37  1  0
 25 38  1  0
M  CHG  4   9  -1  14  -1  17  -1  23  -1
M  END
>  <UniqueID>  (79) 
76

>  <SMILES>  (79) 
COc1cc(S(=O)(=O)[N-]c2ccc3[n-]c(=O)[n-]c3c2)ccc1[N-]C(C)=O

>  <Energy>  (79) 
81.27009610849301

>  <Genealogy>  (79) 
COc1cc(S(=O)(=O)[N-]c2ccc3[n-]c(=O)[n-]c3c2)ccc1[N-]C(C)=O (protonated)
COc1cc(S(=O)(=O)[N-]c2ccc3[n-]c(=O)[n-]c3c2)ccc1[N-]C(C)=O (3D coordinates assigned)
COc1cc(S(=O)(=O)[N-]c2ccc3[n-]c(=O)[n-]c3c2)ccc1[N-]C(C)=O (optimized conformer: 81.27009610849301 kcal/mol)

>  <smiles>  (79) 
COc1cc(S(=O)(=O)Nc2ccc3[nH]c(=O)[nH]c3c2)ccc1NC(C)=O

>  <score_type>  (79) 
oracle

>  <origin>  (79) 
adg

>  <m_score__min__energy>  (79) 
-13.19

>  <m_primary>  (79) 
energy

$$$$
79:0
     RDKit          3D

 39 41  0  0  0  0  0  0  0  0999 V2000
   57.2930   20.7480   46.6710 C   0  0  0  0  0  0  0  0  0  0  0  0
   57.0680   21.5230   47.8290 O   0  0  0  0  0  0  0  0  0  0  0  0
   55.8730   22.2670   47.6940 C   0  0  0  0  0  0  0  0  0  0  0  0
   56.1700   23.6380   47.1740 C   0  0  0  0  0  0  0  0  0  0  0  0
   57.4030   24.1790   47.1340 N   0  0  0  0  0  0  0  0  0  0  0  0
   57.1420   25.3980   46.6150 C   0  0  0  0  0  0  0  0  0  0  0  0
   58.1770   26.4210   46.3550 C   0  0  0  0  0  0  0  0  0  0  0  0
   59.5320   26.0550   46.2630 C   0  0  0  0  0  0  0  0  0  0  0  0
   60.5070   27.0180   45.9980 C   0  0  0  0  0  0  0  0  0  0  0  0
   60.1450   28.3560   45.8320 C   0  0  0  0  0  0  0  0  0  0  0  0
   58.8040   28.7480   45.9450 C   0  0  0  0  0  0  0  0  0  0  0  0
   58.4580   30.1280   45.7460 N   0  0  0  0  0  0  0  0  0  0  0  0
   57.1980   30.5740   45.2140 C   0  0  0  0  0  0  0  0  0  0  0  0
   56.3260   29.7400   44.8530 O   0  0  0  0  0  0  0  0  0  0  0  0
   56.9200   31.9700   45.0530 N   0  0  0  0  0  0  0  0  0  0  0  0
   57.7750   33.0490   45.4590 C   0  0  0  0  0  0  0  0  0  0  0  0
   58.4120   33.8760   44.5170 C   0  0  0  0  0  0  0  0  0  0  0  0
   59.2650   34.8990   44.9440 C   0  0  0  0  0  0  0  0  0  0  0  0
   59.5030   35.0890   46.3080 C   0  0  0  0  0  0  0  0  0  0  0  0
   58.8940   34.2510   47.2470 C   0  0  0  0  0  0  0  0  0  0  0  0
   58.0410   33.2280   46.8220 C   0  0  0  0  0  0  0  0  0  0  0  0
   57.8210   27.7720   46.1870 C   0  0  0  0  0  0  0  0  0  0  0  0
   55.8290   25.5770   46.3610 N   0  0  0  0  0  0  0  0  0  0  0  0
   55.2630   24.4660   46.7230 O   0  0  0  0  0  0  0  0  0  0  0  0
   57.5887   19.7296   46.9631 H   0  0  0  0  0  0  0  0  0  0  0  0
   56.3703   20.7048   46.0737 H   0  0  0  0  0  0  0  0  0  0  0  0
   58.0954   21.2056   46.0737 H   0  0  0  0  0  0  0  0  0  0  0  0
   55.2015   21.7505   46.9924 H   0  0  0  0  0  0  0  0  0  0  0  0
   55.3932   22.3548   48.6800 H   0  0  0  0  0  0  0  0  0  0  0  0
   59.8250   25.0037   46.4007 H   0  0  0  0  0  0  0  0  0  0  0  0
   61.5635   26.7218   45.9197 H   0  0  0  0  0  0  0  0  0  0  0  0
   60.9172   29.1076   45.6111 H   0  0  0  0  0  0  0  0  0  0  0  0
   59.1460   30.8440   46.0700 H   0  0  0  0  0  0  0  0  0  0  0  0
   58.2392   33.7182   43.4422 H   0  0  0  0  0  0  0  0  0  0  0  0
   59.7491   35.5548   44.2053 H   0  0  0  0  0  0  0  0  0  0  0  0
   60.1693   35.8977   46.6427 H   0  0  0  0  0  0  0  0  0  0  0  0
   59.0860   34.3966   48.3203 H   0  0  0  0  0  0  0  0  0  0  0  0
   57.5764   32.5602   47.5624 H   0  0  0  0  0  0  0  0  0  0  0  0
   56.7631   28.0676   46.2456 H   0  0  0  0  0  0  0  0  0  0  0  0
  1  2  1  0
  2  3  1  0
  3  4  1  0
  4  5  2  0
  5  6  1  0
  6  7  1  0
  7  8  2  0
  8  9  1  0
  9 10  2  0
 10 11  1  0
 11 12  1  0
 12 13  1  0
 13 14  2  0
 13 15  1  0
 15 16  1  0
 16 17  2  0
 17 18  1  0
 18 19  2  0
 19 20  1  0
 20 21  2  0
 11 22  2  0
  6 23  2  0
 23 24  1  0
 24  4  1  0
 22  7  1  0
 21 16  1  0
  1 25  1  0
  1 26  1  0
  1 27  1  0
  3 28  1  0
  3 29  1  0
  8 30  1  0
  9 31  1  0
 10 32  1  0
 12 33  1  0
 17 34  1  0
 18 35  1  0
 19 36  1  0
 20 37  1  0
 21 38  1  0
 22 39  1  0
M  CHG  1  15  -1
M  END
>  <UniqueID>  (80) 
77

>  <SMILES>  (80) 
COCc1nc(-c2cccc(NC(=O)[N-]c3ccccc3)c2)no1

>  <Energy>  (80) 
83.96179991414861

>  <Genealogy>  (80) 
COCc1nc(-c2cccc(NC(=O)[N-]c3ccccc3)c2)no1 (protonated)
COCc1nc(-c2cccc(NC(=O)[N-]c3ccccc3)c2)no1 (3D coordinates assigned)
COCc1nc(-c2cccc(NC(=O)[N-]c3ccccc3)c2)no1 (optimized conformer: 83.96179991414861 kcal/mol)

>  <smiles>  (80) 
COCc1nc(-c2cccc(NC(=O)Nc3ccccc3)c2)no1

>  <score_type>  (80) 
oracle

>  <origin>  (80) 
adg

>  <m_score__min__energy>  (80) 
-9.9199999999999999

>  <m_primary>  (80) 
energy

$$$$
80:0
     RDKit          3D

 43 44  0  0  0  0  0  0  0  0999 V2000
   56.3590   23.5090   46.7180 C   0  0  0  0  0  0  0  0  0  0  0  0
   56.2490   24.8720   47.1140 O   0  0  0  0  0  0  0  0  0  0  0  0
   56.2400   25.9220   46.1930 C   0  0  0  0  0  0  0  0  0  0  0  0
   55.1770   26.5560   45.9480 O   0  0  0  0  0  0  0  0  0  0  0  0
   57.5160   26.3310   45.5310 C   0  0  0  0  0  0  0  0  0  0  0  0
   57.6690   27.8250   45.5880 C   0  0  0  0  0  0  0  0  0  0  0  0
   58.4480   28.4190   46.5940 C   0  0  0  0  0  0  0  0  0  0  0  0
   58.5640   29.8090   46.6710 C   0  0  0  0  0  0  0  0  0  0  0  0
   57.9030   30.6310   45.7390 C   0  0  0  0  0  0  0  0  0  0  0  0
   57.9860   32.0640   45.8070 N   0  0  0  0  0  0  0  0  0  0  0  0
   58.1620   32.9160   44.6640 C   0  0  0  0  0  0  0  0  0  0  0  0
   58.0110   32.4660   43.4960 O   0  0  0  0  0  0  0  0  0  0  0  0
   58.4240   34.3760   44.8550 C   0  0  0  0  0  0  0  0  0  0  0  0
   58.5240   34.6530   46.2480 O   0  0  0  0  0  0  0  0  0  0  0  0
   59.6460   34.3610   47.0370 C   0  0  0  0  0  0  0  0  0  0  0  0
   59.6160   34.4150   48.4430 C   0  0  0  0  0  0  0  0  0  0  0  0
   60.7640   34.1160   49.1860 C   0  0  0  0  0  0  0  0  0  0  0  0
   61.9570   33.7520   48.5340 C   0  0  0  0  0  0  0  0  0  0  0  0
   63.1310   33.4370   49.2340 O   0  0  0  0  0  0  0  0  0  0  0  0
   64.1060   32.5000   48.7880 C   0  0  0  0  0  0  0  0  0  0  0  0
   61.9820   33.7010   47.1370 C   0  0  0  0  0  0  0  0  0  0  0  0
   60.8370   34.0070   46.3940 C   0  0  0  0  0  0  0  0  0  0  0  0
   57.0960   30.0350   44.7570 C   0  0  0  0  0  0  0  0  0  0  0  0
   56.9830   28.6440   44.6790 C   0  0  0  0  0  0  0  0  0  0  0  0
   56.4105   22.8704   47.6122 H   0  0  0  0  0  0  0  0  0  0  0  0
   55.4805   23.2295   46.1179 H   0  0  0  0  0  0  0  0  0  0  0  0
   57.2710   23.3740   46.1179 H   0  0  0  0  0  0  0  0  0  0  0  0
   58.3631   25.8581   46.0493 H   0  0  0  0  0  0  0  0  0  0  0  0
   57.4959   26.0101   44.4791 H   0  0  0  0  0  0  0  0  0  0  0  0
   58.9703   27.7857   47.3262 H   0  0  0  0  0  0  0  0  0  0  0  0
   59.1753   30.2637   47.4644 H   0  0  0  0  0  0  0  0  0  0  0  0
   57.8300   32.5220   46.7340 H   0  0  0  0  0  0  0  0  0  0  0  0
   59.3656   34.6496   44.3565 H   0  0  0  0  0  0  0  0  0  0  0  0
   57.6004   34.9605   44.4191 H   0  0  0  0  0  0  0  0  0  0  0  0
   58.6861   34.6935   48.9605 H   0  0  0  0  0  0  0  0  0  0  0  0
   60.7336   34.1658   50.2845 H   0  0  0  0  0  0  0  0  0  0  0  0
   64.5913   32.0336   49.6581 H   0  0  0  0  0  0  0  0  0  0  0  0
   63.6176   31.7237   48.1807 H   0  0  0  0  0  0  0  0  0  0  0  0
   64.8623   33.0188   48.1807 H   0  0  0  0  0  0  0  0  0  0  0  0
   62.9096   33.4179   46.6180 H   0  0  0  0  0  0  0  0  0  0  0  0
   60.8733   33.9690   45.2953 H   0  0  0  0  0  0  0  0  0  0  0  0
   56.5482   30.6678   44.0432 H   0  0  0  0  0  0  0  0  0  0  0  0
   56.3527   28.1891   43.9006 H   0  0  0  0  0  0  0  0  0  0  0  0
  1  2  1  0
  2  3  1  0
  3  4  2  0
  3  5  1  0
  5  6  1  0
  6  7  2  0
  7  8  1  0
  8  9  2  0
  9 10  1  0
 10 11  1  0
 11 12  2  0
 11 13  1  0
 13 14  1  0
 14 15  1  0
 15 16  2  0
 16 17  1  0
 17 18  2  0
 18 19  1  0
 19 20  1  0
 18 21  1  0
 21 22  2  0
  9 23  1  0
 23 24  2  0
 24  6  1  0
 22 15  1  0
  1 25  1  0
  1 26  1  0
  1 27  1  0
  5 28  1  0
  5 29  1  0
  7 30  1  0
  8 31  1  0
 10 32  1  0
 13 33  1  0
 13 34  1  0
 16 35  1  0
 17 36  1  0
 20 37  1  0
 20 38  1  0
 20 39  1  0
 21 40  1  0
 22 41  1  0
 23 42  1  0
 24 43  1  0
M  END
>  <UniqueID>  (81) 
78

>  <SMILES>  (81) 
COC(=O)Cc1ccc(NC(=O)COc2ccc(OC)cc2)cc1

>  <Energy>  (81) 
39.78549381862403

>  <Genealogy>  (81) 
COC(=O)Cc1ccc(NC(=O)COc2ccc(OC)cc2)cc1 (3D coordinates assigned)
COC(=O)Cc1ccc(NC(=O)COc2ccc(OC)cc2)cc1 (optimized conformer: 39.78549381862403 kcal/mol)

>  <smiles>  (81) 
COC(=O)Cc1ccc(NC(=O)COc2ccc(OC)cc2)cc1

>  <score_type>  (81) 
oracle

>  <origin>  (81) 
adg

>  <m_score__min__energy>  (81) 
-7.6500000000000004

>  <m_primary>  (81) 
energy

$$$$
81:0
     RDKit          3D

 34 35  0  0  0  0  0  0  0  0999 V2000
   53.4530   22.4850   46.6490 C   0  0  0  0  0  0  0  0  0  0  0  0
   54.2320   23.6760   46.3370 N   0  0  0  0  0  0  0  0  0  0  0  0
   55.5780   23.8410   46.8050 C   0  0  0  0  0  0  0  0  0  0  0  0
   56.0700   22.9970   47.6040 O   0  0  0  0  0  0  0  0  0  0  0  0
   56.3930   25.0010   46.3750 C   0  0  0  0  0  0  0  0  0  0  0  0
   57.7990   24.9200   46.3640 C   0  0  0  0  0  0  0  0  0  0  0  0
   58.4370   23.7970   46.7840 F   0  0  0  0  0  0  0  0  0  0  0  0
   58.5640   26.0140   45.9560 C   0  0  0  0  0  0  0  0  0  0  0  0
   57.9450   27.2020   45.5730 C   0  0  0  0  0  0  0  0  0  0  0  0
   56.5460   27.3160   45.6110 C   0  0  0  0  0  0  0  0  0  0  0  0
   55.8870   28.5350   45.2340 N   0  0  0  0  0  0  0  0  0  0  0  0
   56.5300   29.7930   44.9920 C   0  0  0  0  0  0  0  0  0  0  0  0
   56.3890   30.3450   43.8700 O   0  0  0  0  0  0  0  0  0  0  0  0
   57.3280   30.4440   45.9900 N   0  0  0  0  0  0  0  0  0  0  0  0
   57.8710   31.7690   45.8980 C   0  0  0  0  0  0  0  0  0  0  0  0
   57.1370   32.8290   45.3360 C   0  0  0  0  0  0  0  0  0  0  0  0
   57.6880   34.1120   45.2740 C   0  0  0  0  0  0  0  0  0  0  0  0
   58.9840   34.3430   45.7540 C   0  0  0  0  0  0  0  0  0  0  0  0
   59.5500   35.6660   45.6920 C   0  0  0  0  0  0  0  0  0  0  0  0
   60.0060   36.7280   45.6430 N   0  0  0  0  0  0  0  0  0  0  0  0
   59.7290   33.2840   46.2850 C   0  0  0  0  0  0  0  0  0  0  0  0
   59.1750   32.0010   46.3490 C   0  0  0  0  0  0  0  0  0  0  0  0
   55.7720   26.2100   45.9930 C   0  0  0  0  0  0  0  0  0  0  0  0
   54.3840   26.3180   45.9890 O   0  0  0  0  0  0  0  0  0  0  0  0
   53.3785   22.3711   47.7406 H   0  0  0  0  0  0  0  0  0  0  0  0
   52.4445   22.5840   46.2210 H   0  0  0  0  0  0  0  0  0  0  0  0
   53.9478   21.6007   46.2210 H   0  0  0  0  0  0  0  0  0  0  0  0
   53.7750   24.4400   45.7900 H   0  0  0  0  0  0  0  0  0  0  0  0
   59.6612   25.9378   45.9368 H   0  0  0  0  0  0  0  0  0  0  0  0
   58.5550   28.0544   45.2394 H   0  0  0  0  0  0  0  0  0  0  0  0
   56.1254   32.6476   44.9438 H   0  0  0  0  0  0  0  0  0  0  0  0
   57.1038   34.9410   44.8481 H   0  0  0  0  0  0  0  0  0  0  0  0
   60.7507   33.4605   46.6523 H   0  0  0  0  0  0  0  0  0  0  0  0
   59.7684   31.1692   46.7565 H   0  0  0  0  0  0  0  0  0  0  0  0
  1  2  1  0
  2  3  1  0
  3  4  2  0
  3  5  1  0
  5  6  2  0
  6  7  1  0
  6  8  1  0
  8  9  2  0
  9 10  1  0
 10 11  1  0
 11 12  1  0
 12 13  2  0
 12 14  1  0
 14 15  1  0
 15 16  2  0
 16 17  1  0
 17 18  2  0
 18 19  1  0
 19 20  3  0
 18 21  1  0
 21 22  2  0
 10 23  2  0
 23 24  1  0
 23  5  1  0
 22 15  1  0
  1 25  1  0
  1 26  1  0
  1 27  1  0
  2 28  1  0
  8 29  1  0
  9 30  1  0
 16 31  1  0
 17 32  1  0
 21 33  1  0
 22 34  1  0
M  CHG  3  11  -1  14  -1  24  -1
M  END
>  <UniqueID>  (82) 
79

>  <SMILES>  (82) 
CNC(=O)c1c(F)ccc([N-]C(=O)[N-]c2ccc(C#N)cc2)c1[O-]

>  <Energy>  (82) 
43.43027203762561

>  <Genealogy>  (82) 
CNC(=O)c1c(F)ccc([N-]C(=O)[N-]c2ccc(C#N)cc2)c1[O-] (protonated)
CNC(=O)c1c(F)ccc([N-]C(=O)[N-]c2ccc(C#N)cc2)c1[O-] (3D coordinates assigned)
CNC(=O)c1c(F)ccc([N-]C(=O)[N-]c2ccc(C#N)cc2)c1[O-] (optimized conformer: 43.43027203762561 kcal/mol)

>  <smiles>  (82) 
CNC(=O)c1c(F)ccc(NC(=O)Nc2ccc(C#N)cc2)c1O

>  <score_type>  (82) 
oracle

>  <origin>  (82) 
adg

>  <m_score__min__energy>  (82) 
-14.710000000000001

>  <m_primary>  (82) 
energy

$$$$
82:0
     RDKit          3D

 60 64  0  0  0  0  0  0  0  0999 V2000
   53.1384   21.4098   47.2072 H   0  0  0  0  0  0  0  0  0  0  0  0
   53.1250   22.2480   46.4950 C   0  0  0  0  0  0  0  0  0  0  0  0
   52.2310   22.4230   45.5020 N   0  0  0  0  0  0  0  0  0  0  0  0
   52.5360   23.5540   44.8810 N   0  0  0  0  0  0  0  0  0  0  0  0
   51.8170   24.0640   43.7210 C   0  0  0  0  0  0  0  0  0  0  0  0
   50.9626   24.6701   44.0566 H   0  0  0  0  0  0  0  0  0  0  0  0
   52.4924   24.6861   43.1153 H   0  0  0  0  0  0  0  0  0  0  0  0
   51.4532   23.2209   43.1153 H   0  0  0  0  0  0  0  0  0  0  0  0
   53.6210   24.1200   45.4420 C   0  0  0  0  0  0  0  0  0  0  0  0
   54.0965   25.0634   45.1355 H   0  0  0  0  0  0  0  0  0  0  0  0
   54.0240   23.3010   46.4680 C   0  0  0  0  0  0  0  0  0  0  0  0
   55.1060   23.5580   47.3700 N   0  0  0  0  0  0  0  0  0  0  0  0
   56.4590   23.8320   46.9860 C   0  0  0  0  0  0  0  0  0  0  0  0
   57.3600   23.0180   47.3230 O   0  0  0  0  0  0  0  0  0  0  0  0
   56.8300   25.0580   46.2460 C   0  0  0  0  0  0  0  0  0  0  0  0
   57.9640   25.0690   45.4180 C   0  0  0  0  0  0  0  0  0  0  0  0
   58.5913   24.1689   45.3383 H   0  0  0  0  0  0  0  0  0  0  0  0
   58.3010   26.2170   44.6940 C   0  0  0  0  0  0  0  0  0  0  0  0
   59.1842   26.2111   44.0383 H   0  0  0  0  0  0  0  0  0  0  0  0
   57.5180   27.3760   44.8000 C   0  0  0  0  0  0  0  0  0  0  0  0
   57.8460   28.5890   43.9680 C   0  0  0  0  0  0  0  0  0  0  0  0
   58.8963   28.8692   44.1364 H   0  0  0  0  0  0  0  0  0  0  0  0
   57.6813   28.3460   42.9079 H   0  0  0  0  0  0  0  0  0  0  0  0
   56.9850   29.7130   44.3320 N   0  0  0  0  0  0  0  0  0  0  0  0
   57.3860   30.9420   44.4850 C   0  0  0  0  0  0  0  0  0  0  0  0
   57.8400   31.3470   45.6990 N   0  0  0  0  0  0  0  0  0  0  0  0
   58.2880   32.6160   45.9100 C   0  0  0  0  0  0  0  0  0  0  0  0
   58.7690   33.0040   47.2600 C   0  0  0  0  0  0  0  0  0  0  0  0
   59.5930   34.1300   47.4480 C   0  0  0  0  0  0  0  0  0  0  0  0
   59.8834   34.7451   46.5835 H   0  0  0  0  0  0  0  0  0  0  0  0
   60.0440   34.4710   48.7250 C   0  0  0  0  0  0  0  0  0  0  0  0
   60.6843   35.3548   48.8623 H   0  0  0  0  0  0  0  0  0  0  0  0
   59.6850   33.6940   49.8280 C   0  0  0  0  0  0  0  0  0  0  0  0
   60.0368   33.9742   50.8318 H   0  0  0  0  0  0  0  0  0  0  0  0
   58.8790   32.5590   49.6640 C   0  0  0  0  0  0  0  0  0  0  0  0
   58.5070   31.7630   50.8060 N   0  0  0  0  0  0  0  0  0  0  0  0
   59.0620   30.4150   50.9750 C   0  0  0  0  0  0  0  0  0  0  0  0
   58.9810   29.8671   50.0246 H   0  0  0  0  0  0  0  0  0  0  0  0
   60.1177   30.4966   51.2731 H   0  0  0  0  0  0  0  0  0  0  0  0
   58.2940   29.6590   52.0610 C   0  0  0  0  0  0  0  0  0  0  0  0
   58.4376   28.5767   51.9265 H   0  0  0  0  0  0  0  0  0  0  0  0
   58.6685   29.9566   53.0516 H   0  0  0  0  0  0  0  0  0  0  0  0
   56.9200   29.9680   51.9630 O   0  0  0  0  0  0  0  0  0  0  0  0
   56.6780   31.2890   52.4210 C   0  0  0  0  0  0  0  0  0  0  0  0
   55.6651   31.5837   52.1094 H   0  0  0  0  0  0  0  0  0  0  0  0
   56.7956   31.2747   53.5146 H   0  0  0  0  0  0  0  0  0  0  0  0
   57.6790   32.3340   51.8750 C   0  0  0  0  0  0  0  0  0  0  0  0
   57.1198   33.1933   51.4764 H   0  0  0  0  0  0  0  0  0  0  0  0
   58.3381   32.6499   52.6971 H   0  0  0  0  0  0  0  0  0  0  0  0
   58.4230   32.2220   48.3780 C   0  0  0  0  0  0  0  0  0  0  0  0
   57.7869   31.3348   48.2433 H   0  0  0  0  0  0  0  0  0  0  0  0
   58.2640   33.5280   44.8430 C   0  0  0  0  0  0  0  0  0  0  0  0
   58.6119   34.5622   44.9824 H   0  0  0  0  0  0  0  0  0  0  0  0
   57.7910   33.0990   43.6030 C   0  0  0  0  0  0  0  0  0  0  0  0
   57.7667   33.7958   42.7522 H   0  0  0  0  0  0  0  0  0  0  0  0
   57.3610   31.8220   43.4470 N   0  0  0  0  0  0  0  0  0  0  0  0
   56.4030   27.3790   45.6530 C   0  0  0  0  0  0  0  0  0  0  0  0
   55.7931   28.2888   45.7544 H   0  0  0  0  0  0  0  0  0  0  0  0
   56.0650   26.2300   46.3740 C   0  0  0  0  0  0  0  0  0  0  0  0
   55.1943   26.2433   47.0461 H   0  0  0  0  0  0  0  0  0  0  0  0
  1  2  1  0
  2  3  2  0
  3  4  1  0
  4  5  1  0
  5  6  1  0
  5  7  1  0
  5  8  1  0
  4  9  1  0
  9 10  1  0
  9 11  2  0
 11 12  1  0
 12 13  1  0
 13 14  2  0
 13 15  1  0
 15 16  2  0
 16 17  1  0
 16 18  1  0
 18 19  1  0
 18 20  2  0
 20 21  1  0
 21 22  1  0
 21 23  1  0
 21 24  1  0
 24 25  2  0
 25 26  1  0
 26 27  2  0
 27 28  1  0
 28 29  2  0
 29 30  1  0
 29 31  1  0
 31 32  1  0
 31 33  2  0
 33 34  1  0
 33 35  1  0
 35 36  1  0
 36 37  1  0
 37 38  1  0
 37 39  1  0
 37 40  1  0
 40 41  1  0
 40 42  1  0
 40 43  1  0
 43 44  1  0
 44 45  1  0
 44 46  1  0
 44 47  1  0
 47 48  1  0
 47 49  1  0
 35 50  2  0
 50 51  1  0
 27 52  1  0
 52 53  1  0
 52 54  2  0
 54 55  1  0
 54 56  1  0
 20 57  1  0
 57 58  1  0
 57 59  2  0
 59 60  1  0
 11  2  1  0
 59 15  1  0
 56 25  1  0
 50 28  1  0
 47 36  1  0
M  CHG  2  12  -1  56  -1
M  END
>  <UniqueID>  (83) 
80

>  <SMILES>  (83) 
Cn1cc([N-]C(=O)c2ccc(C/N=c3/nc(-c4cccc(N5CCOCC5)c4)cc[n-]3)cc2)cn1

>  <Energy>  (83) 
115.63397966111363

>  <Genealogy>  (83) 
Cn1cc([N-]C(=O)c2ccc(CN=c3nc(-c4cccc(N5CCOCC5)c4)cc[n-]3)cc2)cn1 (protonated)
Cn1cc([N-]C(=O)c2ccc(C/N=c3/nc(-c4cccc(N5CCOCC5)c4)cc[n-]3)cc2)cn1 (cis-trans isomerization)
Cn1cc([N-]C(=O)c2ccc(C/N=c3/nc(-c4cccc(N5CCOCC5)c4)cc[n-]3)cc2)cn1 (3D coordinates assigned)
Cn1cc([N-]C(=O)c2ccc(C/N=c3/nc(-c4cccc(N5CCOCC5)c4)cc[n-]3)cc2)cn1 (nonaromatic ring conformer: 115.63397966111363 kcal/mol)

>  <smiles>  (83) 
Cn1cc(NC(=O)c2ccc(CN=c3nc(-c4cccc(N5CCOCC5)c4)cc[nH]3)cc2)cn1

>  <score_type>  (83) 
oracle

>  <origin>  (83) 
adg

>  <m_score__min__energy>  (83) 
-12.23

>  <m_primary>  (83) 
energy

$$$$
83:0
     RDKit          3D

 37 39  0  0  0  0  0  0  0  0999 V2000
   54.9500   29.3230   42.9220 H   0  0  0  0  0  0  0  0  0  0  0  0
   55.0650   29.3480   43.9610 N   0  0  0  0  0  0  0  0  0  0  0  0
   56.1560   29.7740   44.5130 C   0  0  0  0  0  0  0  0  0  0  0  0
   56.2950   31.1010   44.7810 N   0  0  0  0  0  0  0  0  0  0  0  0
   57.4150   31.6120   45.3500 C   0  0  0  0  0  0  0  0  0  0  0  0
   57.4859   32.6925   45.5435 H   0  0  0  0  0  0  0  0  0  0  0  0
   58.4830   30.7710   45.6930 C   0  0  0  0  0  0  0  0  0  0  0  0
   59.7160   31.3180   46.3120 C   0  0  0  0  0  0  0  0  0  0  0  0
   60.7150   30.4560   46.8030 C   0  0  0  0  0  0  0  0  0  0  0  0
   60.5796   29.3667   46.7322 H   0  0  0  0  0  0  0  0  0  0  0  0
   61.8780   30.9750   47.3800 C   0  0  0  0  0  0  0  0  0  0  0  0
   62.6530   30.2935   47.7608 H   0  0  0  0  0  0  0  0  0  0  0  0
   62.0580   32.3570   47.4740 C   0  0  0  0  0  0  0  0  0  0  0  0
   62.9736   32.7632   47.9286 H   0  0  0  0  0  0  0  0  0  0  0  0
   61.0740   33.2230   46.9900 C   0  0  0  0  0  0  0  0  0  0  0  0
   61.2520   34.5650   47.0770 F   0  0  0  0  0  0  0  0  0  0  0  0
   59.9090   32.7090   46.4130 C   0  0  0  0  0  0  0  0  0  0  0  0
   59.1376   33.3962   46.0352 H   0  0  0  0  0  0  0  0  0  0  0  0
   58.3590   29.3970   45.4300 C   0  0  0  0  0  0  0  0  0  0  0  0
   59.1813   28.7172   45.6978 H   0  0  0  0  0  0  0  0  0  0  0  0
   57.1980   28.8780   44.8290 C   0  0  0  0  0  0  0  0  0  0  0  0
   57.0660   27.4710   44.5330 N   0  0  0  0  0  0  0  0  0  0  0  0
   57.0470   27.1500   43.5400 H   0  0  0  0  0  0  0  0  0  0  0  0
   57.0160   26.2260   45.7430 S   0  0  0  0  0  0  0  0  0  0  0  0
   55.6670   26.2360   46.4050 O   0  0  0  0  0  0  0  0  0  0  0  0
   58.0710   26.5100   46.7750 O   0  0  0  0  0  0  0  0  0  0  0  0
   57.2700   24.6440   45.0030 C   0  0  0  0  0  0  0  0  0  0  0  0
   56.3760   24.1850   44.0230 C   0  0  0  0  0  0  0  0  0  0  0  0
   55.5152   24.8055   43.7332 H   0  0  0  0  0  0  0  0  0  0  0  0
   56.5750   22.9430   43.4140 C   0  0  0  0  0  0  0  0  0  0  0  0
   55.8746   22.5915   42.6420 H   0  0  0  0  0  0  0  0  0  0  0  0
   57.6620   22.1470   43.7840 C   0  0  0  0  0  0  0  0  0  0  0  0
   57.8194   21.1712   43.3013 H   0  0  0  0  0  0  0  0  0  0  0  0
   58.5490   22.5920   44.7680 C   0  0  0  0  0  0  0  0  0  0  0  0
   59.4016   21.9626   45.0628 H   0  0  0  0  0  0  0  0  0  0  0  0
   58.3560   23.8350   45.3790 C   0  0  0  0  0  0  0  0  0  0  0  0
   59.2260   24.2430   46.3380 F   0  0  0  0  0  0  0  0  0  0  0  0
  1  2  1  0
  2  3  2  0
  3  4  1  0
  4  5  1  0
  5  6  1  0
  5  7  2  0
  7  8  1  0
  8  9  2  0
  9 10  1  0
  9 11  1  0
 11 12  1  0
 11 13  2  0
 13 14  1  0
 13 15  1  0
 15 16  1  0
 15 17  2  0
 17 18  1  0
  7 19  1  0
 19 20  1  0
 19 21  2  0
 21 22  1  0
 22 23  1  0
 22 24  1  0
 24 25  2  0
 24 26  2  0
 24 27  1  0
 27 28  2  0
 28 29  1  0
 28 30  1  0
 30 31  1  0
 30 32  2  0
 32 33  1  0
 32 34  1  0
 34 35  1  0
 34 36  2  0
 36 37  1  0
 21  3  1  0
 36 27  1  0
 17  8  1  0
M  CHG  1   4  -1
M  END
>  <UniqueID>  (84) 
81

>  <SMILES>  (84) 
[H]/N=c1\[n-]cc(-c2cccc(F)c2)cc1NS(=O)(=O)c1ccccc1F

>  <Energy>  (84) 
49.899229621915055

>  <Genealogy>  (84) 
N=c1[n-]cc(-c2cccc(F)c2)cc1NS(=O)(=O)c1ccccc1F (protonated)
[H]/N=c1\[n-]cc(-c2cccc(F)c2)cc1NS(=O)(=O)c1ccccc1F (cis-trans isomerization)
[H]/N=c1\[n-]cc(-c2cccc(F)c2)cc1NS(=O)(=O)c1ccccc1F (3D coordinates assigned)
[H]/N=c1\[n-]cc(-c2cccc(F)c2)cc1NS(=O)(=O)c1ccccc1F (optimized conformer: 49.899229621915055 kcal/mol)

>  <smiles>  (84) 
N=c1[nH]cc(-c2cccc(F)c2)cc1NS(=O)(=O)c1ccccc1F

>  <score_type>  (84) 
oracle

>  <origin>  (84) 
adg

>  <m_score__min__energy>  (84) 
-10.23

>  <m_primary>  (84) 
energy

$$$$
84:0
     RDKit          3D

 43 45  0  0  0  0  0  0  0  0999 V2000
   56.1000   31.1250   44.7610 O   0  0  0  0  0  0  0  0  0  0  0  0
   57.2290   31.5990   44.4570 C   0  0  0  0  0  0  0  0  0  0  0  0
   57.3870   33.0060   44.2380 N   0  0  0  0  0  0  0  0  0  0  0  0
   57.6580   34.0120   45.2690 C   0  0  0  0  0  0  0  0  0  0  0  0
   57.5070   33.4460   46.6880 C   0  0  0  0  0  0  0  0  0  0  0  0
   58.8570   33.6270   47.3680 C   0  0  0  0  0  0  0  0  0  0  0  0
   59.5800   34.7090   46.5850 C   0  0  0  0  0  0  0  0  0  0  0  0
   59.0740   34.5840   45.1590 C   0  0  0  0  0  0  0  0  0  0  0  0
   58.3550   30.7710   44.3760 O   0  0  0  0  0  0  0  0  0  0  0  0
   58.6870   29.7730   45.3050 C   0  0  0  0  0  0  0  0  0  0  0  0
   59.9950   29.7260   45.7990 C   0  0  0  0  0  0  0  0  0  0  0  0
   60.3670   28.7460   46.7220 C   0  0  0  0  0  0  0  0  0  0  0  0
   59.4320   27.8060   47.1610 C   0  0  0  0  0  0  0  0  0  0  0  0
   58.1180   27.8370   46.6790 C   0  0  0  0  0  0  0  0  0  0  0  0
   57.1880   26.8450   47.1370 N   0  0  0  0  0  0  0  0  0  0  0  0
   57.3690   25.4220   47.0910 C   0  0  0  0  0  0  0  0  0  0  0  0
   57.9130   24.8540   48.0740 O   0  0  0  0  0  0  0  0  0  0  0  0
   56.8780   24.6020   45.9570 C   0  0  0  0  0  0  0  0  0  0  0  0
   57.6970   23.5970   45.4090 C   0  0  0  0  0  0  0  0  0  0  0  0
   57.2440   22.8140   44.3450 C   0  0  0  0  0  0  0  0  0  0  0  0
   55.9750   23.0310   43.8050 C   0  0  0  0  0  0  0  0  0  0  0  0
   55.5250   22.2480   42.7490 O   0  0  0  0  0  0  0  0  0  0  0  0
   55.1580   24.0360   44.3280 C   0  0  0  0  0  0  0  0  0  0  0  0
   55.5980   24.8200   45.4040 C   0  0  0  0  0  0  0  0  0  0  0  0
   54.7600   25.8040   45.9310 O   0  0  0  0  0  0  0  0  0  0  0  0
   57.7580   28.8020   45.7210 C   0  0  0  0  0  0  0  0  0  0  0  0
   56.9134   34.8029   45.0959 H   0  0  0  0  0  0  0  0  0  0  0  0
   56.7279   33.9960   47.2362 H   0  0  0  0  0  0  0  0  0  0  0  0
   57.2101   32.3871   46.6658 H   0  0  0  0  0  0  0  0  0  0  0  0
   58.7191   33.9396   48.4136 H   0  0  0  0  0  0  0  0  0  0  0  0
   59.4303   32.6883   47.3805 H   0  0  0  0  0  0  0  0  0  0  0  0
   59.3413   35.7027   46.9920 H   0  0  0  0  0  0  0  0  0  0  0  0
   60.6724   34.5934   46.6422 H   0  0  0  0  0  0  0  0  0  0  0  0
   59.0523   35.5702   44.6722 H   0  0  0  0  0  0  0  0  0  0  0  0
   59.7261   33.9383   44.5525 H   0  0  0  0  0  0  0  0  0  0  0  0
   60.7349   30.4653   45.4585 H   0  0  0  0  0  0  0  0  0  0  0  0
   61.3981   28.7145   47.1038 H   0  0  0  0  0  0  0  0  0  0  0  0
   59.7296   27.0372   47.8893 H   0  0  0  0  0  0  0  0  0  0  0  0
   58.7022   23.4269   45.8222 H   0  0  0  0  0  0  0  0  0  0  0  0
   57.8886   22.0244   43.9314 H   0  0  0  0  0  0  0  0  0  0  0  0
   54.1633   24.2135   43.8931 H   0  0  0  0  0  0  0  0  0  0  0  0
   55.0110   26.3270   46.7620 H   0  0  0  0  0  0  0  0  0  0  0  0
   56.7440   28.7973   45.2946 H   0  0  0  0  0  0  0  0  0  0  0  0
  1  2  2  0
  2  3  1  0
  3  4  1  0
  4  5  1  0
  5  6  1  0
  6  7  1  0
  7  8  1  0
  2  9  1  0
  9 10  1  0
 10 11  2  0
 11 12  1  0
 12 13  2  0
 13 14  1  0
 14 15  1  0
 15 16  1  0
 16 17  2  0
 16 18  1  0
 18 19  2  0
 19 20  1  0
 20 21  2  0
 21 22  1  0
 21 23  1  0
 23 24  2  0
 24 25  1  0
 14 26  2  0
  8  4  1  0
 26 10  1  0
 24 18  1  0
  4 27  1  0
  5 28  1  0
  5 29  1  0
  6 30  1  0
  6 31  1  0
  7 32  1  0
  7 33  1  0
  8 34  1  0
  8 35  1  0
 11 36  1  0
 12 37  1  0
 13 38  1  0
 19 39  1  0
 20 40  1  0
 23 41  1  0
 25 42  1  0
 26 43  1  0
M  CHG  3   3  -1  15  -1  22  -1
M  END
>  <UniqueID>  (85) 
82

>  <SMILES>  (85) 
O=C([N-]C1CCCC1)Oc1cccc([N-]C(=O)c2ccc([O-])cc2O)c1

>  <Energy>  (85) 
53.70324736225965

>  <Genealogy>  (85) 
O=C([N-]C1CCCC1)Oc1cccc([N-]C(=O)c2ccc([O-])cc2O)c1 (protonated)
O=C([N-]C1CCCC1)Oc1cccc([N-]C(=O)c2ccc([O-])cc2O)c1 (3D coordinates assigned)
O=C([N-]C1CCCC1)Oc1cccc([N-]C(=O)c2ccc([O-])cc2O)c1 (nonaromatic ring conformer: 53.70324736225965 kcal/mol)

>  <smiles>  (85) 
O=C(NC1CCCC1)Oc1cccc(NC(=O)c2ccc(O)cc2O)c1

>  <score_type>  (85) 
oracle

>  <origin>  (85) 
adg

>  <m_score__min__energy>  (85) 
-13.199999999999999

>  <m_primary>  (85) 
energy

$$$$
85:0
     RDKit          3D

 53 55  0  0  0  0  0  0  0  0999 V2000
   57.8628   32.7225   41.7218 H   0  0  0  0  0  0  0  0  0  0  0  0
   57.7870   32.3850   42.7660 C   0  0  0  0  0  0  0  0  0  0  0  0
   57.0520   31.2380   43.0770 C   0  0  0  0  0  0  0  0  0  0  0  0
   56.5420   30.6824   42.2762 H   0  0  0  0  0  0  0  0  0  0  0  0
   56.9600   30.7910   44.4000 C   0  0  0  0  0  0  0  0  0  0  0  0
   56.2230   29.6280   44.6650 O   0  0  0  0  0  0  0  0  0  0  0  0
   56.6350   28.5790   45.4970 C   0  0  0  0  0  0  0  0  0  0  0  0
   57.7670   28.7210   46.2310 N   0  0  0  0  0  0  0  0  0  0  0  0
   58.1750   27.7320   47.0700 C   0  0  0  0  0  0  0  0  0  0  0  0
   59.2710   27.8400   47.7620 N   0  0  0  0  0  0  0  0  0  0  0  0
   60.1010   29.0070   47.8900 C   0  0  0  0  0  0  0  0  0  0  0  0
   60.5470   29.4740   49.1420 C   0  0  0  0  0  0  0  0  0  0  0  0
   60.2389   28.9549   50.0615 H   0  0  0  0  0  0  0  0  0  0  0  0
   61.3800   30.5950   49.2210 C   0  0  0  0  0  0  0  0  0  0  0  0
   61.7126   30.9640   50.2025 H   0  0  0  0  0  0  0  0  0  0  0  0
   61.7910   31.2480   48.0530 C   0  0  0  0  0  0  0  0  0  0  0  0
   62.6520   32.3990   48.1350 C   0  0  0  0  0  0  0  0  0  0  0  0
   63.3430   33.3250   48.2000 N   0  0  0  0  0  0  0  0  0  0  0  0
   61.3780   30.7680   46.8050 C   0  0  0  0  0  0  0  0  0  0  0  0
   61.7091   31.2724   45.8853 H   0  0  0  0  0  0  0  0  0  0  0  0
   60.5450   29.6480   46.7260 C   0  0  0  0  0  0  0  0  0  0  0  0
   60.2356   29.2668   45.7416 H   0  0  0  0  0  0  0  0  0  0  0  0
   57.4480   26.5890   47.1570 N   0  0  0  0  0  0  0  0  0  0  0  0
   56.3090   26.4400   46.4290 C   0  0  0  0  0  0  0  0  0  0  0  0
   55.6010   25.3530   46.5050 N   0  0  0  0  0  0  0  0  0  0  0  0
   55.4050   24.3980   45.4150 C   0  0  0  0  0  0  0  0  0  0  0  0
   54.6456   24.7943   44.7249 H   0  0  0  0  0  0  0  0  0  0  0  0
   55.0788   23.4413   45.8490 H   0  0  0  0  0  0  0  0  0  0  0  0
   56.7090   24.1550   44.6370 C   0  0  0  0  0  0  0  0  0  0  0  0
   57.2874   23.3810   45.1627 H   0  0  0  0  0  0  0  0  0  0  0  0
   57.2389   25.1179   44.5910 H   0  0  0  0  0  0  0  0  0  0  0  0
   56.4890   23.6940   43.1840 C   0  0  0  0  0  0  0  0  0  0  0  0
   57.2313   24.1951   42.5453 H   0  0  0  0  0  0  0  0  0  0  0  0
   55.4553   23.9595   42.9175 H   0  0  0  0  0  0  0  0  0  0  0  0
   56.6260   22.1710   42.9850 C   0  0  0  0  0  0  0  0  0  0  0  0
   56.8583   21.9721   41.9284 H   0  0  0  0  0  0  0  0  0  0  0  0
   55.6742   21.7064   43.2822 H   0  0  0  0  0  0  0  0  0  0  0  0
   57.7310   21.5680   43.8530 C   0  0  0  0  0  0  0  0  0  0  0  0
   57.4792   21.7054   44.9149 H   0  0  0  0  0  0  0  0  0  0  0  0
   57.8241   20.4940   43.6342 H   0  0  0  0  0  0  0  0  0  0  0  0
   58.6846   22.0708   43.6342 H   0  0  0  0  0  0  0  0  0  0  0  0
   55.9040   27.4400   45.6080 N   0  0  0  0  0  0  0  0  0  0  0  0
   57.5780   31.5380   45.4210 C   0  0  0  0  0  0  0  0  0  0  0  0
   57.4798   31.2170   46.4685 H   0  0  0  0  0  0  0  0  0  0  0  0
   58.3170   32.6870   45.1120 C   0  0  0  0  0  0  0  0  0  0  0  0
   59.1200   33.5770   46.4030 S   0  0  0  0  0  0  0  0  0  0  0  0
   58.5240   34.9500   46.5360 O   0  0  0  0  0  0  0  0  0  0  0  0
   58.9410   32.8440   47.7020 O   0  0  0  0  0  0  0  0  0  0  0  0
   60.8040   33.7220   46.0450 N   0  0  0  0  0  0  0  0  0  0  0  0
   61.3140   33.7020   46.9560 H   0  0  0  0  0  0  0  0  0  0  0  0
   60.9510   34.6730   45.6390 H   0  0  0  0  0  0  0  0  0  0  0  0
   58.4260   33.1040   43.7800 C   0  0  0  0  0  0  0  0  0  0  0  0
   59.0154   33.9988   43.5311 H   0  0  0  0  0  0  0  0  0  0  0  0
  1  2  1  0
  2  3  2  0
  3  4  1  0
  3  5  1  0
  5  6  1  0
  6  7  1  0
  7  8  2  0
  8  9  1  0
  9 10  2  0
 10 11  1  0
 11 12  2  0
 12 13  1  0
 12 14  1  0
 14 15  1  0
 14 16  2  0
 16 17  1  0
 17 18  3  0
 16 19  1  0
 19 20  1  0
 19 21  2  0
 21 22  1  0
  9 23  1  0
 23 24  1  0
 24 25  2  3
 25 26  1  0
 26 27  1  0
 26 28  1  0
 26 29  1  0
 29 30  1  0
 29 31  1  0
 29 32  1  0
 32 33  1  0
 32 34  1  0
 32 35  1  0
 35 36  1  0
 35 37  1  0
 35 38  1  0
 38 39  1  0
 38 40  1  0
 38 41  1  0
 24 42  1  0
  5 43  2  0
 43 44  1  0
 43 45  1  0
 45 46  1  0
 46 47  2  0
 46 48  2  0
 46 49  1  0
 49 50  1  0
 49 51  1  0
 45 52  2  0
 52 53  1  0
 52  2  1  0
 42  7  1  0
 21 11  1  0
M  CHG  2  23  -1  42  -1
M  END
>  <UniqueID>  (86) 
83

>  <SMILES>  (86) 
CCCCCN=c1[n-]c(Oc2cccc(S(N)(=O)=O)c2)n/c(=N\c2ccc(C#N)cc2)[n-]1

>  <Energy>  (86) 
59.63452213283265

>  <Genealogy>  (86) 
CCCCCN=c1[n-]c(Oc2cccc(S(N)(=O)=O)c2)nc(=Nc2ccc(C#N)cc2)[n-]1 (protonated)
CCCCCN=c1[n-]c(Oc2cccc(S(N)(=O)=O)c2)n/c(=N\c2ccc(C#N)cc2)[n-]1 (cis-trans isomerization)
CCCCCN=c1[n-]c(Oc2cccc(S(N)(=O)=O)c2)n/c(=N\c2ccc(C#N)cc2)[n-]1 (3D coordinates assigned)
CCCCCN=c1[n-]c(Oc2cccc(S(N)(=O)=O)c2)n/c(=N\c2ccc(C#N)cc2)[n-]1 (optimized conformer: 59.63452213283265 kcal/mol)

>  <smiles>  (86) 
CCCCCN=c1[nH]c(Oc2cccc(S(N)(=O)=O)c2)nc(=Nc2ccc(C#N)cc2)[nH]1

>  <score_type>  (86) 
oracle

>  <origin>  (86) 
adg

>  <m_score__min__energy>  (86) 
-12.15

>  <m_primary>  (86) 
energy

$$$$
86:0
     RDKit          3D

 45 46  0  0  0  0  0  0  0  0999 V2000
   59.9410   35.3351   44.7887 H   0  0  0  0  0  0  0  0  0  0  0  0
   59.1910   34.5790   45.0640 C   0  0  0  0  0  0  0  0  0  0  0  0
   58.7590   33.6830   44.1410 N   0  0  0  0  0  0  0  0  0  0  0  0
   57.8310   32.7370   44.4510 C   0  0  0  0  0  0  0  0  0  0  0  0
   57.4550   31.9070   43.5210 N   0  0  0  0  0  0  0  0  0  0  0  0
   56.7750   30.3290   43.7660 S   0  0  0  0  0  0  0  0  0  0  0  0
   56.4120   29.7350   42.4340 O   0  0  0  0  0  0  0  0  0  0  0  0
   55.5310   30.4550   44.5990 O   0  0  0  0  0  0  0  0  0  0  0  0
   57.9240   29.3020   44.6190 C   0  0  0  0  0  0  0  0  0  0  0  0
   57.7830   27.9090   44.5700 C   0  0  0  0  0  0  0  0  0  0  0  0
   56.9646   27.4606   43.9876 H   0  0  0  0  0  0  0  0  0  0  0  0
   58.6780   27.0890   45.2580 C   0  0  0  0  0  0  0  0  0  0  0  0
   58.5588   25.9961   45.2221 H   0  0  0  0  0  0  0  0  0  0  0  0
   59.7260   27.6520   45.9930 C   0  0  0  0  0  0  0  0  0  0  0  0
   60.4209   27.0008   46.5435 H   0  0  0  0  0  0  0  0  0  0  0  0
   59.8950   29.0490   46.0310 C   0  0  0  0  0  0  0  0  0  0  0  0
   60.9460   29.6570   46.8000 N   0  0  0  0  0  0  0  0  0  0  0  0
   61.5110   29.0430   47.4290 H   0  0  0  0  0  0  0  0  0  0  0  0
   61.2030   31.0690   46.8410 C   0  0  0  0  0  0  0  0  0  0  0  0
   60.3510   31.8830   46.3880 O   0  0  0  0  0  0  0  0  0  0  0  0
   62.4170   31.5480   47.4400 N   0  0  0  0  0  0  0  0  0  0  0  0
   63.0860   30.8390   47.8150 H   0  0  0  0  0  0  0  0  0  0  0  0
   62.7770   32.9360   47.5340 C   0  0  0  0  0  0  0  0  0  0  0  0
   62.0210   33.8310   47.0690 O   0  0  0  0  0  0  0  0  0  0  0  0
   64.0860   33.3340   48.1540 C   0  0  0  0  0  0  0  0  0  0  0  0
   64.3599   34.3367   47.7941 H   0  0  0  0  0  0  0  0  0  0  0  0
   64.8416   32.5891   47.8639 H   0  0  0  0  0  0  0  0  0  0  0  0
   64.0070   33.3610   49.6950 C   0  0  0  0  0  0  0  0  0  0  0  0
   64.7677   34.0677   50.0581 H   0  0  0  0  0  0  0  0  0  0  0  0
   62.6180   33.8320   50.1430 C   0  0  0  0  0  0  0  0  0  0  0  0
   62.5728   33.8473   51.2420 H   0  0  0  0  0  0  0  0  0  0  0  0
   62.4309   34.8438   49.7542 H   0  0  0  0  0  0  0  0  0  0  0  0
   61.8540   33.1427   49.7542 H   0  0  0  0  0  0  0  0  0  0  0  0
   64.3160   31.9840   50.3010 C   0  0  0  0  0  0  0  0  0  0  0  0
   64.3002   32.0545   51.3986 H   0  0  0  0  0  0  0  0  0  0  0  0
   63.5582   31.2590   49.9692 H   0  0  0  0  0  0  0  0  0  0  0  0
   65.3109   31.6523   49.9692 H   0  0  0  0  0  0  0  0  0  0  0  0
   58.9770   29.8670   45.3520 C   0  0  0  0  0  0  0  0  0  0  0  0
   59.0853   30.9608   45.3958 H   0  0  0  0  0  0  0  0  0  0  0  0
   57.3220   32.6860   45.7210 N   0  0  0  0  0  0  0  0  0  0  0  0
   56.6130   31.9760   46.0030 H   0  0  0  0  0  0  0  0  0  0  0  0
   57.7340   33.5690   46.6710 C   0  0  0  0  0  0  0  0  0  0  0  0
   57.3164   33.5163   47.6873 H   0  0  0  0  0  0  0  0  0  0  0  0
   58.6840   34.5400   46.3590 C   0  0  0  0  0  0  0  0  0  0  0  0
   59.0249   35.2586   47.1188 H   0  0  0  0  0  0  0  0  0  0  0  0
  1  2  1  0
  2  3  2  0
  3  4  1  0
  4  5  2  0
  5  6  1  0
  6  7  2  0
  6  8  2  0
  6  9  1  0
  9 10  2  0
 10 11  1  0
 10 12  1  0
 12 13  1  0
 12 14  2  0
 14 15  1  0
 14 16  1  0
 16 17  1  0
 17 18  1  0
 17 19  1  0
 19 20  2  0
 19 21  1  0
 21 22  1  0
 21 23  1  0
 23 24  2  0
 23 25  1  0
 25 26  1  0
 25 27  1  0
 25 28  1  0
 28 29  1  0
 28 30  1  0
 30 31  1  0
 30 32  1  0
 30 33  1  0
 28 34  1  0
 34 35  1  0
 34 36  1  0
 34 37  1  0
 16 38  2  0
 38 39  1  0
  4 40  1  0
 40 41  1  0
 40 42  1  0
 42 43  1  0
 42 44  2  0
 44 45  1  0
 44  2  1  0
 38  9  1  0
M  END
>  <UniqueID>  (87) 
84

>  <SMILES>  (87) 
CC(C)CC(=O)NC(=O)Nc1cccc(S(=O)(=O)/N=c2/nccc[nH]2)c1

>  <Energy>  (87) 
46.5166044610008

>  <Genealogy>  (87) 
CC(C)CC(=O)NC(=O)Nc1cccc(S(=O)(=O)/N=c2/nccc[nH]2)c1 (cis-trans isomerization)
CC(C)CC(=O)NC(=O)Nc1cccc(S(=O)(=O)/N=c2/nccc[nH]2)c1 (3D coordinates assigned)
CC(C)CC(=O)NC(=O)Nc1cccc(S(=O)(=O)/N=c2/nccc[nH]2)c1 (optimized conformer: 46.5166044610008 kcal/mol)

>  <smiles>  (87) 
CC(C)CC(=O)NC(=O)Nc1cccc(S(=O)(=O)N=c2nccc[nH]2)c1

>  <score_type>  (87) 
oracle

>  <origin>  (87) 
adg

>  <m_score__min__energy>  (87) 
-8.6799999999999997

>  <m_primary>  (87) 
energy

$$$$
87:0
     RDKit          3D

 27 29  0  0  0  0  0  0  0  0999 V2000
   57.0380   27.7730   46.0310 O   0  0  0  0  0  0  0  0  0  0  0  0
   57.2560   28.8670   45.4470 C   0  0  0  0  0  0  0  0  0  0  0  0
   57.7870   29.9460   46.1610 C   0  0  0  0  0  0  0  0  0  0  0  0
   58.0290   31.1440   45.5380 C   0  0  0  0  0  0  0  0  0  0  0  0
   58.5250   32.3030   46.1260 N   0  0  0  0  0  0  0  0  0  0  0  0
   59.8230   32.4900   46.6680 C   0  0  0  0  0  0  0  0  0  0  0  0
   60.3140   33.7660   46.9850 C   0  0  0  0  0  0  0  0  0  0  0  0
   61.5620   33.9400   47.5390 C   0  0  0  0  0  0  0  0  0  0  0  0
   62.4000   32.8780   47.8110 C   0  0  0  0  0  0  0  0  0  0  0  0
   64.1220   33.0630   48.5780 Br  0  0  0  0  0  0  0  0  0  0  0  0
   61.9290   31.6200   47.5020 C   0  0  0  0  0  0  0  0  0  0  0  0
   60.6800   31.4390   46.9490 C   0  0  0  0  0  0  0  0  0  0  0  0
   57.7200   31.2020   44.2090 N   0  0  0  0  0  0  0  0  0  0  0  0
   57.8340   32.2270   43.3160 C   0  0  0  0  0  0  0  0  0  0  0  0
   57.3890   31.8110   42.0770 C   0  0  0  0  0  0  0  0  0  0  0  0
   57.3100   32.7180   40.5730 Cl  0  0  0  0  0  0  0  0  0  0  0  0
   57.0110   30.5220   42.2530 N   0  0  0  0  0  0  0  0  0  0  0  0
   57.2110   30.1590   43.5410 C   0  0  0  0  0  0  0  0  0  0  0  0
   56.9710   28.9810   44.1410 N   0  0  0  0  0  0  0  0  0  0  0  0
   58.0126   29.8330   47.2317 H   0  0  0  0  0  0  0  0  0  0  0  0
   57.8830   33.1430   46.1780 H   0  0  0  0  0  0  0  0  0  0  0  0
   59.6869   34.6476   46.7861 H   0  0  0  0  0  0  0  0  0  0  0  0
   61.9026   34.9595   47.7727 H   0  0  0  0  0  0  0  0  0  0  0  0
   62.5628   30.7432   47.7008 H   0  0  0  0  0  0  0  0  0  0  0  0
   60.3491   30.4151   46.7208 H   0  0  0  0  0  0  0  0  0  0  0  0
   58.2209   33.2304   43.5474 H   0  0  0  0  0  0  0  0  0  0  0  0
   56.5730   28.1770   43.6000 H   0  0  0  0  0  0  0  0  0  0  0  0
  1  2  2  0
  2  3  1  0
  3  4  2  0
  4  5  1  0
  5  6  1  0
  6  7  2  0
  7  8  1  0
  8  9  2  0
  9 10  1  0
  9 11  1  0
 11 12  2  0
  4 13  1  0
 13 14  1  0
 14 15  2  0
 15 16  1  0
 15 17  1  0
 17 18  2  0
 18 19  1  0
 19  2  1  0
 12  6  1  0
 18 13  1  0
  3 20  1  0
  5 21  1  0
  7 22  1  0
  8 23  1  0
 11 24  1  0
 12 25  1  0
 14 26  1  0
 19 27  1  0
M  END
>  <smiles>  (88) 
O=c1cc(Nc2ccc(Br)cc2)n2cc(Cl)nc2[nH]1

>  <score_type>  (88) 
oracle

>  <origin>  (88) 
adg

>  <m_score__min__energy>  (88) 
-6.8600000000000003

>  <m_primary>  (88) 
energy

$$$$
88:0
     RDKit          3D

 74 78  0  0  0  0  0  0  0  0999 V2000
   55.5210   29.7210   43.8980 C   0  0  0  0  0  0  0  0  0  0  0  0
   56.0680   29.0590   45.0340 O   0  0  0  0  0  0  0  0  0  0  0  0
   57.4410   28.9790   45.3230 C   0  0  0  0  0  0  0  0  0  0  0  0
   58.1620   30.0820   45.8270 C   0  0  0  0  0  0  0  0  0  0  0  0
   59.5320   29.9700   46.1120 C   0  0  0  0  0  0  0  0  0  0  0  0
   60.2840   31.0920   46.5970 N   0  0  0  0  0  0  0  0  0  0  0  0
   61.1860   31.0010   47.7160 C   0  0  0  0  0  0  0  0  0  0  0  0
   61.4860   29.8780   48.2030 O   0  0  0  0  0  0  0  0  0  0  0  0
   61.7210   32.2290   48.3470 C   0  0  0  0  0  0  0  0  0  0  0  0
   63.0780   32.2400   48.7220 C   0  0  0  0  0  0  0  0  0  0  0  0
   63.6700   33.3990   49.2230 C   0  0  0  0  0  0  0  0  0  0  0  0
   62.9200   34.5670   49.3480 C   0  0  0  0  0  0  0  0  0  0  0  0
   61.5730   34.5770   48.9870 C   0  0  0  0  0  0  0  0  0  0  0  0
   60.9480   33.4130   48.5000 C   0  0  0  0  0  0  0  0  0  0  0  0
   59.4910   33.4700   48.2140 C   0  0  0  0  0  0  0  0  0  0  0  0
   59.0640   33.8240   47.0830 O   0  0  0  0  0  0  0  0  0  0  0  0
   58.5750   33.0800   49.1850 O   0  0  0  0  0  0  0  0  0  0  0  0
   60.1710   28.7380   45.9390 C   0  0  0  0  0  0  0  0  0  0  0  0
   59.4730   27.6470   45.4250 C   0  0  0  0  0  0  0  0  0  0  0  0
   58.1140   27.7600   45.0950 C   0  0  0  0  0  0  0  0  0  0  0  0
   57.3930   26.5730   44.5010 C   0  0  0  0  0  0  0  0  0  0  0  0
   57.4390   25.3670   45.4070 C   0  0  0  0  0  0  0  0  0  0  0  0
   57.1200   25.4910   46.7680 C   0  0  0  0  0  0  0  0  0  0  0  0
   57.0610   24.3600   47.5890 C   0  0  0  0  0  0  0  0  0  0  0  0
   57.3130   23.0840   47.0570 C   0  0  0  0  0  0  0  0  0  0  0  0
   57.2520   21.8960   47.8590 N   0  0  0  0  0  0  0  0  0  0  0  0
   56.6830   21.7770   49.1670 C   0  0  0  0  0  0  0  0  0  0  0  0
   55.4790   22.0960   49.3770 O   0  0  0  0  0  0  0  0  0  0  0  0
   57.4980   21.2750   50.2330 N   0  0  0  0  0  0  0  0  0  0  0  0
   58.5450   21.9880   50.9050 C   0  0  0  0  0  0  0  0  0  0  0  0
   58.3950   23.3310   51.2990 C   0  0  0  0  0  0  0  0  0  0  0  0
   59.3980   23.9650   52.0380 C   0  0  0  0  0  0  0  0  0  0  0  0
   60.5560   23.2670   52.4010 C   0  0  0  0  0  0  0  0  0  0  0  0
   61.7940   24.0410   53.3900 S   0  0  0  0  0  0  0  0  0  0  0  0
   61.1850   24.6350   54.6280 O   0  0  0  0  0  0  0  0  0  0  0  0
   62.8080   23.0080   53.7910 O   0  0  0  0  0  0  0  0  0  0  0  0
   62.5860   25.3020   52.4960 N   0  0  0  0  0  0  0  0  0  0  0  0
   61.9570   26.2550   51.8840 C   0  0  0  0  0  0  0  0  0  0  0  0
   61.4740   26.0770   50.6230 N   0  0  0  0  0  0  0  0  0  0  0  0
   60.8170   27.0720   49.9720 C   0  0  0  0  0  0  0  0  0  0  0  0
   60.2800   26.8300   48.5950 C   0  0  0  0  0  0  0  0  0  0  0  0
   60.6100   28.2970   50.6150 C   0  0  0  0  0  0  0  0  0  0  0  0
   61.1170   28.4660   51.9040 C   0  0  0  0  0  0  0  0  0  0  0  0
   61.7790   27.4490   52.5110 N   0  0  0  0  0  0  0  0  0  0  0  0
   60.7060   21.9290   52.0120 C   0  0  0  0  0  0  0  0  0  0  0  0
   59.7050   21.2940   51.2720 C   0  0  0  0  0  0  0  0  0  0  0  0
   57.6630   22.9640   45.7070 C   0  0  0  0  0  0  0  0  0  0  0  0
   57.7040   24.0900   44.8820 C   0  0  0  0  0  0  0  0  0  0  0  0
   54.8532   30.5292   44.2309 H   0  0  0  0  0  0  0  0  0  0  0  0
   56.3360   30.1447   43.2928 H   0  0  0  0  0  0  0  0  0  0  0  0
   54.9513   29.0005   43.2928 H   0  0  0  0  0  0  0  0  0  0  0  0
   57.6460   31.0383   45.9982 H   0  0  0  0  0  0  0  0  0  0  0  0
   60.0080   32.0410   46.2570 H   0  0  0  0  0  0  0  0  0  0  0  0
   63.6781   31.3239   48.6186 H   0  0  0  0  0  0  0  0  0  0  0  0
   64.7292   33.3913   49.5196 H   0  0  0  0  0  0  0  0  0  0  0  0
   63.3917   35.4834   49.7324 H   0  0  0  0  0  0  0  0  0  0  0  0
   60.9916   35.5057   49.0839 H   0  0  0  0  0  0  0  0  0  0  0  0
   61.2315   28.6296   46.2104 H   0  0  0  0  0  0  0  0  0  0  0  0
   59.9921   26.6886   45.2766 H   0  0  0  0  0  0  0  0  0  0  0  0
   56.3417   26.8469   44.3287 H   0  0  0  0  0  0  0  0  0  0  0  0
   57.8968   26.3080   43.5597 H   0  0  0  0  0  0  0  0  0  0  0  0
   56.9148   26.4849   47.1923 H   0  0  0  0  0  0  0  0  0  0  0  0
   56.8163   24.4699   48.6558 H   0  0  0  0  0  0  0  0  0  0  0  0
   57.4847   23.8840   51.0242 H   0  0  0  0  0  0  0  0  0  0  0  0
   59.2769   25.0170   52.3356 H   0  0  0  0  0  0  0  0  0  0  0  0
   59.2792   26.3790   48.6658 H   0  0  0  0  0  0  0  0  0  0  0  0
   60.2142   27.7855   48.0539 H   0  0  0  0  0  0  0  0  0  0  0  0
   60.9522   26.1478   48.0539 H   0  0  0  0  0  0  0  0  0  0  0  0
   60.0601   29.1085   50.1159 H   0  0  0  0  0  0  0  0  0  0  0  0
   60.9800   29.4235   52.4279 H   0  0  0  0  0  0  0  0  0  0  0  0
   61.6155   21.3764   52.2903 H   0  0  0  0  0  0  0  0  0  0  0  0
   59.8289   20.2419   50.9757 H   0  0  0  0  0  0  0  0  0  0  0  0
   57.9077   21.9748   45.2927 H   0  0  0  0  0  0  0  0  0  0  0  0
   57.9451   23.9771   43.8147 H   0  0  0  0  0  0  0  0  0  0  0  0
  1  2  1  0
  2  3  1  0
  3  4  2  0
  4  5  1  0
  5  6  1  0
  6  7  1  0
  7  8  2  0
  7  9  1  0
  9 10  2  0
 10 11  1  0
 11 12  2  0
 12 13  1  0
 13 14  2  0
 14 15  1  0
 15 16  2  0
 15 17  1  0
  5 18  2  0
 18 19  1  0
 19 20  2  0
 20 21  1  0
 21 22  1  0
 22 23  2  0
 23 24  1  0
 24 25  2  0
 25 26  1  0
 26 27  1  0
 27 28  2  0
 27 29  1  0
 29 30  1  0
 30 31  2  0
 31 32  1  0
 32 33  2  0
 33 34  1  0
 34 35  2  0
 34 36  2  0
 34 37  1  0
 37 38  2  3
 38 39  1  0
 39 40  2  0
 40 41  1  0
 40 42  1  0
 42 43  2  0
 43 44  1  0
 33 45  1  0
 45 46  2  0
 25 47  1  0
 47 48  2  0
 20  3  1  0
 48 22  1  0
 14  9  1  0
 46 30  1  0
 44 38  1  0
  1 49  1  0
  1 50  1  0
  1 51  1  0
  4 52  1  0
  6 53  1  0
 10 54  1  0
 11 55  1  0
 12 56  1  0
 13 57  1  0
 18 58  1  0
 19 59  1  0
 21 60  1  0
 21 61  1  0
 23 62  1  0
 24 63  1  0
 31 64  1  0
 32 65  1  0
 41 66  1  0
 41 67  1  0
 41 68  1  0
 42 69  1  0
 43 70  1  0
 45 71  1  0
 46 72  1  0
 47 73  1  0
 48 74  1  0
M  CHG  4  17  -1  26  -1  29  -1  44  -1
M  END
>  <UniqueID>  (89) 
85

>  <SMILES>  (89) 
COc1cc(NC(=O)c2ccccc2C(=O)[O-])ccc1Cc1ccc([N-]C(=O)[N-]c2ccc(S(=O)(=O)N=c3nc(C)cc[n-]3)cc2)cc1

>  <Energy>  (89) 
104.13515553909528

>  <Genealogy>  (89) 
COc1cc(NC(=O)c2ccccc2C(=O)[O-])ccc1Cc1ccc([N-]C(=O)[N-]c2ccc(S(=O)(=O)N=c3nc(C)cc[n-]3)cc2)cc1 (protonated)
COc1cc(NC(=O)c2ccccc2C(=O)[O-])ccc1Cc1ccc([N-]C(=O)[N-]c2ccc(S(=O)(=O)N=c3nc(C)cc[n-]3)cc2)cc1 (3D coordinates assigned)
COc1cc(NC(=O)c2ccccc2C(=O)[O-])ccc1Cc1ccc([N-]C(=O)[N-]c2ccc(S(=O)(=O)N=c3nc(C)cc[n-]3)cc2)cc1 (optimized conformer: 104.13515553909528 kcal/mol)

>  <smiles>  (89) 
COc1cc(NC(=O)c2ccccc2C(=O)O)ccc1Cc1ccc(NC(=O)Nc2ccc(S(=O)(=O)N=c3nc(C)cc[nH]3)cc2)cc1

>  <score_type>  (89) 
oracle

>  <origin>  (89) 
adg

>  <m_score__min__energy>  (89) 
-18.309999999999999

>  <m_primary>  (89) 
energy

$$$$
89:0
     RDKit          3D

 56 59  0  0  0  0  0  0  0  0999 V2000
   58.2280   34.0980   52.0260 O   0  0  0  0  0  0  0  0  0  0  0  0
   59.1690   33.2700   51.9020 C   0  0  0  0  0  0  0  0  0  0  0  0
   58.8570   31.7990   52.0100 C   0  0  0  0  0  0  0  0  0  0  0  0
   59.3380   31.0260   50.8040 C   0  0  0  0  0  0  0  0  0  0  0  0
   60.5810   30.3670   50.8300 C   0  0  0  0  0  0  0  0  0  0  0  0
   61.0290   29.6610   49.7090 C   0  0  0  0  0  0  0  0  0  0  0  0
   60.2530   29.6210   48.5480 C   0  0  0  0  0  0  0  0  0  0  0  0
   59.0320   30.2990   48.5010 C   0  0  0  0  0  0  0  0  0  0  0  0
   58.5780   31.0030   49.6200 C   0  0  0  0  0  0  0  0  0  0  0  0
   60.4760   33.7690   51.5760 N   0  0  0  0  0  0  0  0  0  0  0  0
   61.0850   33.7140   50.4280 C   0  0  0  0  0  0  0  0  0  0  0  0
   60.3990   34.1010   49.2690 C   0  0  0  0  0  0  0  0  0  0  0  0
   61.0420   34.0490   48.0310 C   0  0  0  0  0  0  0  0  0  0  0  0
   60.3420   34.4490   46.8820 O   0  0  0  0  0  0  0  0  0  0  0  0
   59.3390   33.6890   46.2670 C   0  0  0  0  0  0  0  0  0  0  0  0
   58.1240   34.2690   45.8640 C   0  0  0  0  0  0  0  0  0  0  0  0
   57.1390   33.4890   45.2510 C   0  0  0  0  0  0  0  0  0  0  0  0
   57.3440   32.1180   45.0670 C   0  0  0  0  0  0  0  0  0  0  0  0
   56.2870   31.3130   44.5320 N   0  0  0  0  0  0  0  0  0  0  0  0
   56.2490   29.8830   44.6340 C   0  0  0  0  0  0  0  0  0  0  0  0
   55.1540   29.3130   44.8670 O   0  0  0  0  0  0  0  0  0  0  0  0
   57.4360   29.0910   44.4760 N   0  0  0  0  0  0  0  0  0  0  0  0
   57.7290   27.9190   45.2500 C   0  0  0  0  0  0  0  0  0  0  0  0
   56.7060   27.0260   45.6130 C   0  0  0  0  0  0  0  0  0  0  0  0
   56.9730   25.9210   46.4290 C   0  0  0  0  0  0  0  0  0  0  0  0
   55.8980   25.0960   46.7930 O   0  0  0  0  0  0  0  0  0  0  0  0
   54.9880   24.4770   45.8880 C   0  0  0  0  0  0  0  0  0  0  0  0
   53.9940   25.3770   45.5670 F   0  0  0  0  0  0  0  0  0  0  0  0
   55.6410   24.1050   44.7270 F   0  0  0  0  0  0  0  0  0  0  0  0
   54.4110   23.3710   46.4800 F   0  0  0  0  0  0  0  0  0  0  0  0
   58.2910   25.6870   46.8560 C   0  0  0  0  0  0  0  0  0  0  0  0
   59.3210   26.5520   46.4680 C   0  0  0  0  0  0  0  0  0  0  0  0
   59.0450   27.6630   45.6620 C   0  0  0  0  0  0  0  0  0  0  0  0
   60.3530   28.7550   45.2270 Cl  0  0  0  0  0  0  0  0  0  0  0  0
   58.5710   31.5460   45.4350 C   0  0  0  0  0  0  0  0  0  0  0  0
   59.5670   32.3320   46.0200 C   0  0  0  0  0  0  0  0  0  0  0  0
   62.3830   33.6390   47.9710 C   0  0  0  0  0  0  0  0  0  0  0  0
   63.0430   33.2820   49.1480 C   0  0  0  0  0  0  0  0  0  0  0  0
   62.3880   33.3300   50.3350 N   0  0  0  0  0  0  0  0  0  0  0  0
   59.3487   31.3971   52.9082 H   0  0  0  0  0  0  0  0  0  0  0  0
   57.7643   31.6880   52.0698 H   0  0  0  0  0  0  0  0  0  0  0  0
   61.2032   30.4073   51.7362 H   0  0  0  0  0  0  0  0  0  0  0  0
   61.9950   29.1358   49.7415 H   0  0  0  0  0  0  0  0  0  0  0  0
   60.6029   29.0561   47.6714 H   0  0  0  0  0  0  0  0  0  0  0  0
   58.4274   30.2787   47.5823 H   0  0  0  0  0  0  0  0  0  0  0  0
   57.6205   31.5425   49.5747 H   0  0  0  0  0  0  0  0  0  0  0  0
   59.3562   34.4450   49.3346 H   0  0  0  0  0  0  0  0  0  0  0  0
   57.9472   35.3417   46.0317 H   0  0  0  0  0  0  0  0  0  0  0  0
   56.2014   33.9544   44.9129 H   0  0  0  0  0  0  0  0  0  0  0  0
   55.6817   27.1981   45.2507 H   0  0  0  0  0  0  0  0  0  0  0  0
   58.5142   24.8215   47.4971 H   0  0  0  0  0  0  0  0  0  0  0  0
   60.3522   26.3579   46.7980 H   0  0  0  0  0  0  0  0  0  0  0  0
   58.7496   30.4744   45.2623 H   0  0  0  0  0  0  0  0  0  0  0  0
   60.5342   31.8814   46.2872 H   0  0  0  0  0  0  0  0  0  0  0  0
   62.9088   33.5994   47.0056 H   0  0  0  0  0  0  0  0  0  0  0  0
   64.0947   32.9616   49.1130 H   0  0  0  0  0  0  0  0  0  0  0  0
  1  2  2  0
  2  3  1  0
  3  4  1  0
  4  5  2  0
  5  6  1  0
  6  7  2  0
  7  8  1  0
  8  9  2  0
  2 10  1  0
 10 11  2  3
 11 12  1  0
 12 13  2  0
 13 14  1  0
 14 15  1  0
 15 16  2  0
 16 17  1  0
 17 18  2  0
 18 19  1  0
 19 20  1  0
 20 21  2  0
 20 22  1  0
 22 23  1  0
 23 24  2  0
 24 25  1  0
 25 26  1  0
 26 27  1  0
 27 28  1  0
 27 29  1  0
 27 30  1  0
 25 31  2  0
 31 32  1  0
 32 33  2  0
 33 34  1  0
 18 35  1  0
 35 36  2  0
 13 37  1  0
 37 38  2  0
 38 39  1  0
  9  4  1  0
 39 11  1  0
 36 15  1  0
 33 23  1  0
  3 40  1  0
  3 41  1  0
  5 42  1  0
  6 43  1  0
  7 44  1  0
  8 45  1  0
  9 46  1  0
 12 47  1  0
 16 48  1  0
 17 49  1  0
 24 50  1  0
 31 51  1  0
 32 52  1  0
 35 53  1  0
 36 54  1  0
 37 55  1  0
 38 56  1  0
M  CHG  3  19  -1  22  -1  39  -1
M  END
>  <UniqueID>  (90) 
86

>  <SMILES>  (90) 
O=C(Cc1ccccc1)N=c1cc(Oc2ccc([N-]C(=O)[N-]c3cc(OC(F)(F)F)ccc3Cl)cc2)cc[n-]1

>  <Energy>  (90) 
79.4711837331027

>  <Genealogy>  (90) 
O=C(Cc1ccccc1)N=c1cc(Oc2ccc([N-]C(=O)[N-]c3cc(OC(F)(F)F)ccc3Cl)cc2)cc[n-]1 (protonated)
O=C(Cc1ccccc1)N=c1cc(Oc2ccc([N-]C(=O)[N-]c3cc(OC(F)(F)F)ccc3Cl)cc2)cc[n-]1 (3D coordinates assigned)
O=C(Cc1ccccc1)N=c1cc(Oc2ccc([N-]C(=O)[N-]c3cc(OC(F)(F)F)ccc3Cl)cc2)cc[n-]1 (optimized conformer: 79.4711837331027 kcal/mol)

>  <smiles>  (90) 
O=C(Cc1ccccc1)N=c1cc(Oc2ccc(NC(=O)Nc3cc(OC(F)(F)F)ccc3Cl)cc2)cc[nH]1

>  <score_type>  (90) 
oracle

>  <origin>  (90) 
adg

>  <m_score__min__energy>  (90) 
-13.32

>  <m_primary>  (90) 
energy

$$$$
90:0
     RDKit          3D

 39 40  0  0  0  0  0  0  0  0999 V2000
   54.7760   26.3340   45.6600 O   0  0  0  0  0  0  0  0  0  0  0  0
   55.5900   25.4010   45.8900 C   0  0  0  0  0  0  0  0  0  0  0  0
   55.5680   24.7710   47.1280 O   0  0  0  0  0  0  0  0  0  0  0  0
   56.5090   24.9060   44.8480 C   0  0  0  0  0  0  0  0  0  0  0  0
   57.6020   25.5420   44.3990 C   0  0  0  0  0  0  0  0  0  0  0  0
   57.9970   26.9180   44.7560 C   0  0  0  0  0  0  0  0  0  0  0  0
   59.2030   27.1430   45.0440 O   0  0  0  0  0  0  0  0  0  0  0  0
   57.0120   27.9530   44.9090 N   0  0  0  0  0  0  0  0  0  0  0  0
   57.3210   29.3560   44.9540 C   0  0  0  0  0  0  0  0  0  0  0  0
   58.2460   29.8280   45.8980 C   0  0  0  0  0  0  0  0  0  0  0  0
   58.5430   31.1910   45.9780 C   0  0  0  0  0  0  0  0  0  0  0  0
   57.9130   32.1030   45.1230 C   0  0  0  0  0  0  0  0  0  0  0  0
   58.2760   33.8220   45.2580 S   0  0  0  0  0  0  0  0  0  0  0  0
   57.0850   34.6410   44.8410 O   0  0  0  0  0  0  0  0  0  0  0  0
   59.4240   34.1510   44.3470 O   0  0  0  0  0  0  0  0  0  0  0  0
   58.7140   34.2130   46.8920 N   0  0  0  0  0  0  0  0  0  0  0  0
   60.0480   34.8050   46.9190 C   0  0  0  0  0  0  0  0  0  0  0  0
   61.0560   33.7330   47.2150 C   0  0  0  0  0  0  0  0  0  0  0  0
   62.3750   33.8540   46.7480 C   0  0  0  0  0  0  0  0  0  0  0  0
   63.3240   32.8720   47.0530 C   0  0  0  0  0  0  0  0  0  0  0  0
   62.9640   31.7710   47.8360 C   0  0  0  0  0  0  0  0  0  0  0  0
   61.6580   31.6520   48.3170 C   0  0  0  0  0  0  0  0  0  0  0  0
   60.7060   32.6320   48.0140 C   0  0  0  0  0  0  0  0  0  0  0  0
   56.9680   31.6420   44.1980 C   0  0  0  0  0  0  0  0  0  0  0  0
   56.6700   30.2790   44.1150 C   0  0  0  0  0  0  0  0  0  0  0  0
   56.2779   23.9287   44.3991 H   0  0  0  0  0  0  0  0  0  0  0  0
   58.2576   24.9921   43.7077 H   0  0  0  0  0  0  0  0  0  0  0  0
   56.0220   27.6600   45.0740 H   0  0  0  0  0  0  0  0  0  0  0  0
   58.7405   29.1202   46.5795 H   0  0  0  0  0  0  0  0  0  0  0  0
   59.2754   31.5491   46.7164 H   0  0  0  0  0  0  0  0  0  0  0  0
   60.2693   35.2588   45.9417 H   0  0  0  0  0  0  0  0  0  0  0  0
   60.0931   35.5808   47.6975 H   0  0  0  0  0  0  0  0  0  0  0  0
   62.6632   34.7242   46.1400 H   0  0  0  0  0  0  0  0  0  0  0  0
   64.3533   32.9662   46.6767 H   0  0  0  0  0  0  0  0  0  0  0  0
   63.7097   30.9980   48.0734 H   0  0  0  0  0  0  0  0  0  0  0  0
   61.3773   30.7864   48.9351 H   0  0  0  0  0  0  0  0  0  0  0  0
   59.6810   32.5399   48.4025 H   0  0  0  0  0  0  0  0  0  0  0  0
   56.4581   32.3556   43.5340 H   0  0  0  0  0  0  0  0  0  0  0  0
   55.9223   29.9259   43.3896 H   0  0  0  0  0  0  0  0  0  0  0  0
  1  2  2  0
  2  3  1  0
  2  4  1  0
  4  5  2  3
  5  6  1  0
  6  7  2  0
  6  8  1  0
  8  9  1  0
  9 10  2  0
 10 11  1  0
 11 12  2  0
 12 13  1  0
 13 14  2  0
 13 15  2  0
 13 16  1  0
 16 17  1  0
 17 18  1  0
 18 19  2  0
 19 20  1  0
 20 21  2  0
 21 22  1  0
 22 23  2  0
 12 24  1  0
 24 25  2  0
 25  9  1  0
 23 18  1  0
  4 26  1  0
  5 27  1  0
  8 28  1  0
 10 29  1  0
 11 30  1  0
 17 31  1  0
 17 32  1  0
 19 33  1  0
 20 34  1  0
 21 35  1  0
 22 36  1  0
 23 37  1  0
 24 38  1  0
 25 39  1  0
M  CHG  2   3  -1  16  -1
M  END
>  <UniqueID>  (91) 
87

>  <SMILES>  (91) 
O=C([O-])C=CC(=O)Nc1ccc(S(=O)(=O)[N-]Cc2ccccc2)cc1

>  <Energy>  (91) 
45.84937055745194

>  <Genealogy>  (91) 
O=C([O-])C=CC(=O)Nc1ccc(S(=O)(=O)[N-]Cc2ccccc2)cc1 (protonated)
O=C([O-])C=CC(=O)Nc1ccc(S(=O)(=O)[N-]Cc2ccccc2)cc1 (3D coordinates assigned)
O=C([O-])C=CC(=O)Nc1ccc(S(=O)(=O)[N-]Cc2ccccc2)cc1 (optimized conformer: 45.84937055745194 kcal/mol)

>  <smiles>  (91) 
O=C(O)C=CC(=O)Nc1ccc(S(=O)(=O)NCc2ccccc2)cc1

>  <score_type>  (91) 
oracle

>  <origin>  (91) 
adg

>  <m_score__min__energy>  (91) 
-12.039999999999999

>  <m_primary>  (91) 
energy

$$$$
91:0
     RDKit          3D

 49 52  0  0  0  0  0  0  0  0999 V2000
   59.4490   31.0850   47.7930 H   0  0  0  0  0  0  0  0  0  0  0  0
   60.0090   31.7160   48.3540 O   0  0  0  0  0  0  0  0  0  0  0  0
   61.1960   32.2660   47.8700 C   0  0  0  0  0  0  0  0  0  0  0  0
   62.4300   31.7520   48.2940 C   0  0  0  0  0  0  0  0  0  0  0  0
   62.4596   30.9342   49.0291 H   0  0  0  0  0  0  0  0  0  0  0  0
   63.6220   32.2750   47.7860 C   0  0  0  0  0  0  0  0  0  0  0  0
   64.5875   31.8721   48.1258 H   0  0  0  0  0  0  0  0  0  0  0  0
   63.5890   33.3090   46.8470 C   0  0  0  0  0  0  0  0  0  0  0  0
   64.5283   33.7123   46.4407 H   0  0  0  0  0  0  0  0  0  0  0  0
   62.3630   33.8320   46.4230 C   0  0  0  0  0  0  0  0  0  0  0  0
   62.3414   34.6373   45.6739 H   0  0  0  0  0  0  0  0  0  0  0  0
   61.1610   33.3350   46.9480 C   0  0  0  0  0  0  0  0  0  0  0  0
   59.8840   33.8960   46.4670 C   0  0  0  0  0  0  0  0  0  0  0  0
   59.9250   34.8292   45.8862 H   0  0  0  0  0  0  0  0  0  0  0  0
   58.6760   33.3530   46.6850 C   0  0  0  0  0  0  0  0  0  0  0  0
   58.0198   33.8536   47.4122 H   0  0  0  0  0  0  0  0  0  0  0  0
   58.1580   32.1380   46.0270 C   0  0  0  0  0  0  0  0  0  0  0  0
   57.0690   32.1040   45.2250 N   0  0  0  0  0  0  0  0  0  0  0  0
   56.9920   30.8130   44.8500 C   0  0  0  0  0  0  0  0  0  0  0  0
   55.8990   30.2650   44.0390 C   0  0  0  0  0  0  0  0  0  0  0  0
   55.7167   30.6574   43.0277 H   0  0  0  0  0  0  0  0  0  0  0  0
   55.1690   29.3470   44.4970 O   0  0  0  0  0  0  0  0  0  0  0  0
   58.0360   30.1230   45.4290 C   0  0  0  0  0  0  0  0  0  0  0  0
   58.3330   28.7230   45.3110 N   0  0  0  0  0  0  0  0  0  0  0  0
   58.4320   27.9100   46.5140 C   0  0  0  0  0  0  0  0  0  0  0  0
   59.4718   27.9301   46.8725 H   0  0  0  0  0  0  0  0  0  0  0  0
   57.7459   28.3275   47.2657 H   0  0  0  0  0  0  0  0  0  0  0  0
   58.0230   26.4480   46.2530 C   0  0  0  0  0  0  0  0  0  0  0  0
   58.6609   25.8043   46.8765 H   0  0  0  0  0  0  0  0  0  0  0  0
   56.9515   26.3936   46.4956 H   0  0  0  0  0  0  0  0  0  0  0  0
   58.1380   25.9770   44.8490 N   0  0  0  0  0  0  0  0  0  0  0  0
   57.7580   24.5990   44.5400 C   0  0  0  0  0  0  0  0  0  0  0  0
   58.3150   23.5080   45.2560 C   0  0  0  0  0  0  0  0  0  0  0  0
   59.0403   23.7015   46.0601 H   0  0  0  0  0  0  0  0  0  0  0  0
   57.9560   22.1910   44.9550 C   0  0  0  0  0  0  0  0  0  0  0  0
   58.3987   21.3594   45.5228 H   0  0  0  0  0  0  0  0  0  0  0  0
   57.0400   21.9270   43.9390 C   0  0  0  0  0  0  0  0  0  0  0  0
   56.7592   20.8891   43.7068 H   0  0  0  0  0  0  0  0  0  0  0  0
   56.4790   22.9810   43.2160 C   0  0  0  0  0  0  0  0  0  0  0  0
   55.7568   22.7718   42.4131 H   0  0  0  0  0  0  0  0  0  0  0  0
   56.8320   24.3020   43.5090 C   0  0  0  0  0  0  0  0  0  0  0  0
   56.3841   25.1233   42.9303 H   0  0  0  0  0  0  0  0  0  0  0  0
   58.4260   26.8940   43.7250 C   0  0  0  0  0  0  0  0  0  0  0  0
   59.1197   26.3904   43.0356 H   0  0  0  0  0  0  0  0  0  0  0  0
   57.4621   27.1336   43.2522 H   0  0  0  0  0  0  0  0  0  0  0  0
   59.0490   28.2130   44.1530 C   0  0  0  0  0  0  0  0  0  0  0  0
   60.1057   28.0539   44.4138 H   0  0  0  0  0  0  0  0  0  0  0  0
   58.9850   28.9382   43.3284 H   0  0  0  0  0  0  0  0  0  0  0  0
   58.7360   30.9630   46.1500 O   0  0  0  0  0  0  0  0  0  0  0  0
  1  2  1  0
  2  3  1  0
  3  4  2  0
  4  5  1  0
  4  6  1  0
  6  7  1  0
  6  8  2  0
  8  9  1  0
  8 10  1  0
 10 11  1  0
 10 12  2  0
 12 13  1  0
 13 14  1  0
 13 15  2  0
 15 16  1  0
 15 17  1  0
 17 18  2  0
 18 19  1  0
 19 20  1  0
 20 21  1  0
 20 22  2  0
 19 23  2  0
 23 24  1  0
 24 25  1  0
 25 26  1  0
 25 27  1  0
 25 28  1  0
 28 29  1  0
 28 30  1  0
 28 31  1  0
 31 32  1  0
 32 33  2  0
 33 34  1  0
 33 35  1  0
 35 36  1  0
 35 37  2  0
 37 38  1  0
 37 39  1  0
 39 40  1  0
 39 41  2  0
 41 42  1  0
 31 43  1  0
 43 44  1  0
 43 45  1  0
 43 46  1  0
 46 47  1  0
 46 48  1  0
 23 49  1  0
 12  3  1  0
 49 17  1  0
 46 24  1  0
 41 32  1  0
M  END
>  <UniqueID>  (92) 
88

>  <SMILES>  (92) 
O=Cc1nc(/C=C\c2ccccc2O)oc1N1CCN(c2ccccc2)CC1

>  <Energy>  (92) 
102.02384147166592

>  <Genealogy>  (92) 
O=Cc1nc(/C=C\c2ccccc2O)oc1N1CCN(c2ccccc2)CC1 (cis-trans isomerization)
O=Cc1nc(/C=C\c2ccccc2O)oc1N1CCN(c2ccccc2)CC1 (3D coordinates assigned)
O=Cc1nc(/C=C\c2ccccc2O)oc1N1CCN(c2ccccc2)CC1 (nonaromatic ring conformer: 102.02384147166592 kcal/mol)

>  <smiles>  (92) 
O=Cc1nc(C=Cc2ccccc2O)oc1N1CCN(c2ccccc2)CC1

>  <score_type>  (92) 
oracle

>  <origin>  (92) 
adg

>  <m_score__min__energy>  (92) 
-9.3000000000000007

>  <m_primary>  (92) 
energy

$$$$
