0:0
     RDKit          3D

 56 59  0  0  0  0  0  0  0  0999 V2000
   51.6230   31.7730   50.7740 C   0  0  0  0  0  0  0  0  0  0  0  0
   52.0950   31.0330   51.9910 C   0  0  0  0  0  0  0  0  0  0  0  0
   51.1850   30.5860   52.9760 C   0  0  0  0  0  0  0  0  0  0  0  0
   51.6430   29.8890   54.1150 C   0  0  0  0  0  0  0  0  0  0  0  0
   53.0120   29.6270   54.2870 C   0  0  0  0  0  0  0  0  0  0  0  0
   53.8900   30.0770   53.3050 C   0  0  0  0  0  0  0  0  0  0  0  0
   55.2590   29.9600   53.2110 C   0  0  0  0  0  0  0  0  0  0  0  0
   55.5950   30.5950   52.0170 C   0  0  0  0  0  0  0  0  0  0  0  0
   56.9650   30.7110   51.4820 C   0  0  0  0  0  0  0  0  0  0  0  0
   57.7620   29.7420   51.6170 O   0  0  0  0  0  0  0  0  0  0  0  0
   57.4060   31.9250   50.8530 N   0  0  0  0  0  0  0  0  0  0  0  0
   58.5630   32.0090   50.0040 C   0  0  0  0  0  0  0  0  0  0  0  0
   58.5800   31.4140   48.7310 C   0  0  0  0  0  0  0  0  0  0  0  0
   59.6970   31.5490   47.8940 C   0  0  0  0  0  0  0  0  0  0  0  0
   59.6960   30.9270   46.5110 C   0  0  0  0  0  0  0  0  0  0  0  0
   58.3420   30.6610   45.9740 N   0  0  0  0  0  0  0  0  0  0  0  0
   58.1280   29.2470   45.6250 C   0  0  0  0  0  0  0  0  0  0  0  0
   56.6520   29.0190   45.2660 C   0  0  0  0  0  0  0  0  0  0  0  0
   56.1860   29.9240   44.1950 N   0  0  0  0  0  0  0  0  0  0  0  0
   56.6470   29.5020   42.8610 C   0  0  0  0  0  0  0  0  0  0  0  0
   56.5090   31.3390   44.4810 C   0  0  0  0  0  0  0  0  0  0  0  0
   57.9870   31.5400   44.8470 C   0  0  0  0  0  0  0  0  0  0  0  0
   60.8130   32.2680   48.3450 C   0  0  0  0  0  0  0  0  0  0  0  0
   60.8170   32.8630   49.6180 C   0  0  0  0  0  0  0  0  0  0  0  0
   61.9940   33.6960   50.0630 C   0  0  0  0  0  0  0  0  0  0  0  0
   61.9230   33.9600   51.4190 F   0  0  0  0  0  0  0  0  0  0  0  0
   61.9920   34.8930   49.3700 F   0  0  0  0  0  0  0  0  0  0  0  0
   63.1820   33.0320   49.8140 F   0  0  0  0  0  0  0  0  0  0  0  0
   59.6730   32.7540   50.4260 C   0  0  0  0  0  0  0  0  0  0  0  0
   54.4890   31.0770   51.3990 N   0  0  0  0  0  0  0  0  0  0  0  0
   53.4530   30.7570   52.1960 C   0  0  0  0  0  0  0  0  0  0  0  0
   51.0553   32.6630   51.0833 H   0  0  0  0  0  0  0  0  0  0  0  0
   52.4911   32.0822   50.1733 H   0  0  0  0  0  0  0  0  0  0  0  0
   50.9766   31.1163   50.1733 H   0  0  0  0  0  0  0  0  0  0  0  0
   50.1097   30.7831   52.8538 H   0  0  0  0  0  0  0  0  0  0  0  0
   50.9224   29.5487   54.8733 H   0  0  0  0  0  0  0  0  0  0  0  0
   53.3789   29.0833   55.1700 H   0  0  0  0  0  0  0  0  0  0  0  0
   55.9395   29.4713   53.9238 H   0  0  0  0  0  0  0  0  0  0  0  0
   56.9230   32.8160   51.1070 H   0  0  0  0  0  0  0  0  0  0  0  0
   57.7087   30.8368   48.3878 H   0  0  0  0  0  0  0  0  0  0  0  0
   60.2132   31.6118   45.8228 H   0  0  0  0  0  0  0  0  0  0  0  0
   60.2019   29.9541   46.5980 H   0  0  0  0  0  0  0  0  0  0  0  0
   58.7586   28.9838   44.7630 H   0  0  0  0  0  0  0  0  0  0  0  0
   58.3950   28.6155   46.4852 H   0  0  0  0  0  0  0  0  0  0  0  0
   56.5270   27.9793   44.9291 H   0  0  0  0  0  0  0  0  0  0  0  0
   56.0526   29.2266   46.1646 H   0  0  0  0  0  0  0  0  0  0  0  0
   57.4545   28.7628   42.9690 H   0  0  0  0  0  0  0  0  0  0  0  0
   55.8089   29.0515   42.3090 H   0  0  0  0  0  0  0  0  0  0  0  0
   57.0218   30.3765   42.3090 H   0  0  0  0  0  0  0  0  0  0  0  0
   56.2811   31.9406   43.5888 H   0  0  0  0  0  0  0  0  0  0  0  0
   55.9041   31.6531   45.3444 H   0  0  0  0  0  0  0  0  0  0  0  0
   58.6157   31.2936   43.9787 H   0  0  0  0  0  0  0  0  0  0  0  0
   58.1519   32.5884   45.1361 H   0  0  0  0  0  0  0  0  0  0  0  0
   61.6950   32.3674   47.6953 H   0  0  0  0  0  0  0  0  0  0  0  0
   59.6479   33.2598   51.4025 H   0  0  0  0  0  0  0  0  0  0  0  0
   54.4400   31.5780   50.4840 H   0  0  0  0  0  0  0  0  0  0  0  0
  1  2  1  0
  2  3  2  0
  3  4  1  0
  4  5  2  0
  5  6  1  0
  6  7  1  0
  7  8  2  0
  8  9  1  0
  9 10  2  0
  9 11  1  0
 11 12  1  0
 12 13  2  0
 13 14  1  0
 14 15  1  0
 15 16  1  0
 16 17  1  0
 17 18  1  0
 18 19  1  0
 19 20  1  0
 19 21  1  0
 21 22  1  0
 14 23  2  0
 23 24  1  0
 24 25  1  0
 25 26  1  0
 25 27  1  0
 25 28  1  0
 24 29  2  0
  8 30  1  0
 30 31  1  0
 31  2  1  0
 31  6  2  0
 29 12  1  0
 22 16  1  0
  1 32  1  0
  1 33  1  0
  1 34  1  0
  3 35  1  0
  4 36  1  0
  5 37  1  0
  7 38  1  0
 11 39  1  0
 13 40  1  0
 15 41  1  0
 15 42  1  0
 17 43  1  0
 17 44  1  0
 18 45  1  0
 18 46  1  0
 20 47  1  0
 20 48  1  0
 20 49  1  0
 21 50  1  0
 21 51  1  0
 22 52  1  0
 22 53  1  0
 23 54  1  0
 29 55  1  0
 30 56  1  0
M  END
>  <UniqueID>  (1) 
1

>  <SMILES>  (1) 
Cc1cccc2cc(C(=O)Nc3cc(CN4CCN(C)CC4)cc(C(F)(F)F)c3)[nH]c12

>  <Energy>  (1) 
99.61745138985825

>  <Genealogy>  (1) 
Cc1cccc2cc(C(=O)Nc3cc(CN4CCN(C)CC4)cc(C(F)(F)F)c3)[nH]c12 (3D coordinates assigned)
Cc1cccc2cc(C(=O)Nc3cc(CN4CCN(C)CC4)cc(C(F)(F)F)c3)[nH]c12 (nonaromatic ring conformer: 99.61745138985825 kcal/mol)

>  <smiles>  (1) 
Cc1cccc2cc(C(=O)Nc3cc(CN4CCN(C)CC4)cc(C(F)(F)F)c3)[nH]c12

>  <score_type>  (1) 
oracle

>  <origin>  (1) 
adg

>  <m_score__min__energy>  (1) 
-8.3800000000000008

>  <m_primary>  (1) 
energy

$$$$
1:0
     RDKit          3D

 43 46  0  0  0  0  0  0  0  0999 V2000
   56.4910   31.1870   44.4950 O   0  0  0  0  0  0  0  0  0  0  0  0
   57.5300   31.1730   45.2270 C   0  0  0  0  0  0  0  0  0  0  0  0
   58.1130   32.4670   45.6180 C   0  0  0  0  0  0  0  0  0  0  0  0
   58.4800   33.2870   44.5440 C   0  0  0  0  0  0  0  0  0  0  0  0
   59.0320   34.5200   44.8090 C   0  0  0  0  0  0  0  0  0  0  0  0
   59.1890   34.8680   46.1290 C   0  0  0  0  0  0  0  0  0  0  0  0
   59.7450   36.0950   46.3690 F   0  0  0  0  0  0  0  0  0  0  0  0
   58.8250   34.0530   47.1700 C   0  0  0  0  0  0  0  0  0  0  0  0
   58.2790   32.8370   46.8920 N   0  0  0  0  0  0  0  0  0  0  0  0
   58.1220   29.9310   45.6640 N   0  0  0  0  0  0  0  0  0  0  0  0
   59.5110   29.9600   45.9910 C   0  0  0  0  0  0  0  0  0  0  0  0
   60.0650   28.7710   46.6800 C   0  0  0  0  0  0  0  0  0  0  0  0
   59.2800   27.5360   46.5340 C   0  0  0  0  0  0  0  0  0  0  0  0
   59.6350   26.2590   46.7760 N   0  0  0  0  0  0  0  0  0  0  0  0
   58.5900   25.4830   46.5010 N   0  0  0  0  0  0  0  0  0  0  0  0
   57.5620   26.2640   46.0830 C   0  0  0  0  0  0  0  0  0  0  0  0
   56.2690   25.7070   45.7060 C   0  0  0  0  0  0  0  0  0  0  0  0
   55.1800   26.2730   45.9950 O   0  0  0  0  0  0  0  0  0  0  0  0
   56.2560   24.4800   44.9850 N   0  0  0  0  0  0  0  0  0  0  0  0
   57.3960   23.6580   44.5550 C   0  0  0  0  0  0  0  0  0  0  0  0
   56.9530   22.9000   43.3370 C   0  0  0  0  0  0  0  0  0  0  0  0
   55.5380   23.3200   43.0770 C   0  0  0  0  0  0  0  0  0  0  0  0
   55.1000   23.7340   44.4860 C   0  0  0  0  0  0  0  0  0  0  0  0
   57.9790   27.5930   46.0940 C   0  0  0  0  0  0  0  0  0  0  0  0
   57.2430   28.7990   45.7360 C   0  0  0  0  0  0  0  0  0  0  0  0
   58.3299   32.9520   43.5071 H   0  0  0  0  0  0  0  0  0  0  0  0
   59.3348   35.1984   43.9978 H   0  0  0  0  0  0  0  0  0  0  0  0
   58.9715   34.3759   48.2113 H   0  0  0  0  0  0  0  0  0  0  0  0
   60.0701   30.0902   45.0527 H   0  0  0  0  0  0  0  0  0  0  0  0
   59.6174   30.7835   46.7125 H   0  0  0  0  0  0  0  0  0  0  0  0
   61.0713   28.5834   46.2773 H   0  0  0  0  0  0  0  0  0  0  0  0
   60.0568   29.0109   47.7535 H   0  0  0  0  0  0  0  0  0  0  0  0
   60.5730   25.9510   47.1200 H   0  0  0  0  0  0  0  0  0  0  0  0
   58.2542   24.3007   44.3091 H   0  0  0  0  0  0  0  0  0  0  0  0
   57.7089   22.9702   45.3544 H   0  0  0  0  0  0  0  0  0  0  0  0
   57.5904   23.1533   42.4771 H   0  0  0  0  0  0  0  0  0  0  0  0
   57.0275   21.8134   43.4911 H   0  0  0  0  0  0  0  0  0  0  0  0
   55.4887   24.1638   42.3731 H   0  0  0  0  0  0  0  0  0  0  0  0
   54.9100   22.5450   42.6133 H   0  0  0  0  0  0  0  0  0  0  0  0
   54.2040   24.3711   44.4501 H   0  0  0  0  0  0  0  0  0  0  0  0
   54.8276   22.8799   45.1234 H   0  0  0  0  0  0  0  0  0  0  0  0
   56.7641   28.6517   44.7568 H   0  0  0  0  0  0  0  0  0  0  0  0
   56.4842   28.9909   46.5089 H   0  0  0  0  0  0  0  0  0  0  0  0
  1  2  2  0
  2  3  1  0
  3  4  2  0
  4  5  1  0
  5  6  2  0
  6  7  1  0
  6  8  1  0
  8  9  2  0
  2 10  1  0
 10 11  1  0
 11 12  1  0
 12 13  1  0
 13 14  1  0
 14 15  1  0
 15 16  2  0
 16 17  1  0
 17 18  2  0
 17 19  1  0
 19 20  1  0
 20 21  1  0
 21 22  1  0
 22 23  1  0
 16 24  1  0
 24 25  1  0
  9  3  1  0
 25 10  1  0
 24 13  2  0
 23 19  1  0
  4 26  1  0
  5 27  1  0
  8 28  1  0
 11 29  1  0
 11 30  1  0
 12 31  1  0
 12 32  1  0
 14 33  1  0
 20 34  1  0
 20 35  1  0
 21 36  1  0
 21 37  1  0
 22 38  1  0
 22 39  1  0
 23 40  1  0
 23 41  1  0
 25 42  1  0
 25 43  1  0
M  END
>  <smiles>  (2) 
O=C(c1ccc(F)cn1)N1CCc2[nH]nc(C(=O)N3CCCC3)c2C1

>  <score_type>  (2) 
oracle

>  <origin>  (2) 
adg

>  <m_score__min__energy>  (2) 
-8.4499999999999993

>  <m_primary>  (2) 
energy

$$$$
2:0
     RDKit          3D

 72 76  0  0  0  0  0  0  0  0999 V2000
   55.1460   27.4730   45.9960 H   0  0  0  0  0  0  0  0  0  0  0  0
   55.2990   26.4410   46.0050 N   0  0  0  0  0  0  0  0  0  0  0  0
   56.9940   26.1810   45.7920 S   0  0  0  0  0  0  0  0  0  0  0  0
   57.4160   24.9540   46.5510 O   0  0  0  0  0  0  0  0  0  0  0  0
   57.2870   25.9710   44.3330 O   0  0  0  0  0  0  0  0  0  0  0  0
   57.8810   27.5830   46.3830 C   0  0  0  0  0  0  0  0  0  0  0  0
   57.8260   28.7950   45.6840 C   0  0  0  0  0  0  0  0  0  0  0  0
   57.2173   28.8736   44.7712 H   0  0  0  0  0  0  0  0  0  0  0  0
   58.5410   29.9050   46.1410 C   0  0  0  0  0  0  0  0  0  0  0  0
   58.4882   30.8547   45.5885 H   0  0  0  0  0  0  0  0  0  0  0  0
   59.3290   29.8150   47.3050 C   0  0  0  0  0  0  0  0  0  0  0  0
   60.0700   30.9450   47.8020 N   0  0  0  0  0  0  0  0  0  0  0  0
   61.1120   30.9080   47.7600 H   0  0  0  0  0  0  0  0  0  0  0  0
   59.4650   32.2170   48.0720 C   0  0  0  0  0  0  0  0  0  0  0  0
   59.3920   32.6950   49.2860 N   0  0  0  0  0  0  0  0  0  0  0  0
   59.3100   32.0160   50.5940 C   0  0  0  0  0  0  0  0  0  0  0  0
   60.7600   31.5920   50.9130 C   0  0  0  0  0  0  0  0  0  0  0  0
   61.7590   32.5930   50.9220 C   0  0  0  0  0  0  0  0  0  0  0  0
   61.4774   33.6380   50.7253 H   0  0  0  0  0  0  0  0  0  0  0  0
   63.0970   32.2800   51.1760 C   0  0  0  0  0  0  0  0  0  0  0  0
   63.8543   33.0777   51.1929 H   0  0  0  0  0  0  0  0  0  0  0  0
   63.4730   30.9580   51.4080 C   0  0  0  0  0  0  0  0  0  0  0  0
   64.5253   30.7123   51.6136 H   0  0  0  0  0  0  0  0  0  0  0  0
   62.5130   29.9480   51.3790 C   0  0  0  0  0  0  0  0  0  0  0  0
   62.8125   28.9042   51.5546 H   0  0  0  0  0  0  0  0  0  0  0  0
   61.1710   30.2530   51.1280 C   0  0  0  0  0  0  0  0  0  0  0  0
   60.4262   29.4441   51.0972 H   0  0  0  0  0  0  0  0  0  0  0  0
   58.8290   33.0070   51.7150 C   0  0  0  0  0  0  0  0  0  0  0  0
   59.5777   33.0103   52.5209 H   0  0  0  0  0  0  0  0  0  0  0  0
   58.7158   33.9951   51.2451 H   0  0  0  0  0  0  0  0  0  0  0  0
   57.4700   32.6380   52.3180 C   0  0  0  0  0  0  0  0  0  0  0  0
   57.2393   33.3220   53.1480 H   0  0  0  0  0  0  0  0  0  0  0  0
   56.6912   32.7225   51.5458 H   0  0  0  0  0  0  0  0  0  0  0  0
   57.5150   31.2550   52.8200 N   0  0  0  0  0  0  0  0  0  0  0  0
   56.3890   30.8730   53.7050 C   0  0  0  0  0  0  0  0  0  0  0  0
   56.7941   30.6927   54.7117 H   0  0  0  0  0  0  0  0  0  0  0  0
   55.6717   31.7058   53.6610 H   0  0  0  0  0  0  0  0  0  0  0  0
   55.6060   29.6110   53.2720 C   0  0  0  0  0  0  0  0  0  0  0  0
   56.2239   29.0448   52.5596 H   0  0  0  0  0  0  0  0  0  0  0  0
   55.3888   29.0352   54.1838 H   0  0  0  0  0  0  0  0  0  0  0  0
   54.2850   29.9210   52.6170 C   0  0  0  0  0  0  0  0  0  0  0  0
   54.1140   31.1050   51.8800 C   0  0  0  0  0  0  0  0  0  0  0  0
   54.9434   31.8227   51.7966 H   0  0  0  0  0  0  0  0  0  0  0  0
   52.8940   31.3750   51.2520 C   0  0  0  0  0  0  0  0  0  0  0  0
   52.7692   32.2994   50.6689 H   0  0  0  0  0  0  0  0  0  0  0  0
   51.8340   30.4730   51.3640 C   0  0  0  0  0  0  0  0  0  0  0  0
   50.8768   30.6839   50.8647 H   0  0  0  0  0  0  0  0  0  0  0  0
   51.9900   29.3020   52.1110 C   0  0  0  0  0  0  0  0  0  0  0  0
   51.1529   28.5944   52.2032 H   0  0  0  0  0  0  0  0  0  0  0  0
   53.2070   29.0280   52.7410 C   0  0  0  0  0  0  0  0  0  0  0  0
   53.3215   28.1100   53.3361 H   0  0  0  0  0  0  0  0  0  0  0  0
   57.9090   30.2230   51.8330 C   0  0  0  0  0  0  0  0  0  0  0  0
   58.7553   29.6530   52.2440 H   0  0  0  0  0  0  0  0  0  0  0  0
   57.0268   29.5901   51.6564 H   0  0  0  0  0  0  0  0  0  0  0  0
   58.3300   30.8070   50.4680 C   0  0  0  0  0  0  0  0  0  0  0  0
   58.8242   30.0151   49.8860 H   0  0  0  0  0  0  0  0  0  0  0  0
   57.4186   31.1742   49.9736 H   0  0  0  0  0  0  0  0  0  0  0  0
   58.8960   33.0110   46.9530 C   0  0  0  0  0  0  0  0  0  0  0  0
   57.5100   32.9990   46.6940 C   0  0  0  0  0  0  0  0  0  0  0  0
   56.8406   32.4004   47.3293 H   0  0  0  0  0  0  0  0  0  0  0  0
   56.9810   33.7430   45.6350 C   0  0  0  0  0  0  0  0  0  0  0  0
   55.8985   33.7265   45.4401 H   0  0  0  0  0  0  0  0  0  0  0  0
   57.8230   34.5070   44.8240 C   0  0  0  0  0  0  0  0  0  0  0  0
   57.4041   35.0895   43.9902 H   0  0  0  0  0  0  0  0  0  0  0  0
   59.1960   34.5310   45.0720 C   0  0  0  0  0  0  0  0  0  0  0  0
   59.8579   35.1353   44.4343 H   0  0  0  0  0  0  0  0  0  0  0  0
   59.7330   33.7890   46.1290 C   0  0  0  0  0  0  0  0  0  0  0  0
   60.8163   33.8131   46.3183 H   0  0  0  0  0  0  0  0  0  0  0  0
   59.3810   28.5970   47.9980 C   0  0  0  0  0  0  0  0  0  0  0  0
   59.9905   28.5142   48.9100 H   0  0  0  0  0  0  0  0  0  0  0  0
   58.6650   27.4870   47.5400 C   0  0  0  0  0  0  0  0  0  0  0  0
   58.7174   26.5356   48.0897 H   0  0  0  0  0  0  0  0  0  0  0  0
  1  2  1  0
  2  3  1  0
  3  4  2  0
  3  5  2  0
  3  6  1  0
  6  7  2  0
  7  8  1  0
  7  9  1  0
  9 10  1  0
  9 11  2  0
 11 12  1  0
 12 13  1  0
 12 14  1  0
 14 15  2  0
 15 16  1  0
 16 17  1  0
 17 18  2  0
 18 19  1  0
 18 20  1  0
 20 21  1  0
 20 22  2  0
 22 23  1  0
 22 24  1  0
 24 25  1  0
 24 26  2  0
 26 27  1  0
 16 28  1  0
 28 29  1  0
 28 30  1  0
 28 31  1  0
 31 32  1  0
 31 33  1  0
 31 34  1  0
 34 35  1  0
 35 36  1  0
 35 37  1  0
 35 38  1  0
 38 39  1  0
 38 40  1  0
 38 41  1  0
 41 42  2  0
 42 43  1  0
 42 44  1  0
 44 45  1  0
 44 46  2  0
 46 47  1  0
 46 48  1  0
 48 49  1  0
 48 50  2  0
 50 51  1  0
 34 52  1  0
 52 53  1  0
 52 54  1  0
 52 55  1  0
 55 56  1  0
 55 57  1  0
 14 58  1  0
 58 59  2  0
 59 60  1  0
 59 61  1  0
 61 62  1  0
 61 63  2  0
 63 64  1  0
 63 65  1  0
 65 66  1  0
 65 67  2  0
 67 68  1  0
 11 69  1  0
 69 70  1  0
 69 71  2  0
 71 72  1  0
 71  6  1  0
 55 16  1  0
 67 58  1  0
 26 17  1  0
 50 41  1  0
M  CHG  1   2  -1
M  END
>  <UniqueID>  (3) 
2

>  <SMILES>  (3) 
[NH-]S(=O)(=O)c1ccc(N/C(=N\C2(c3ccccc3)CCN(CCc3ccccc3)CC2)c2ccccc2)cc1

>  <Energy>  (3) 
105.72523758794898

>  <Genealogy>  (3) 
[NH-]S(=O)(=O)c1ccc(NC(=NC2(c3ccccc3)CCN(CCc3ccccc3)CC2)c2ccccc2)cc1 (protonated)
[NH-]S(=O)(=O)c1ccc(N/C(=N\C2(c3ccccc3)CCN(CCc3ccccc3)CC2)c2ccccc2)cc1 (cis-trans isomerization)
[NH-]S(=O)(=O)c1ccc(N/C(=N\C2(c3ccccc3)CCN(CCc3ccccc3)CC2)c2ccccc2)cc1 (3D coordinates assigned)
[NH-]S(=O)(=O)c1ccc(N/C(=N\C2(c3ccccc3)CCN(CCc3ccccc3)CC2)c2ccccc2)cc1 (nonaromatic ring conformer: 105.72523758794898 kcal/mol)

>  <smiles>  (3) 
NS(=O)(=O)c1ccc(NC(=NC2(c3ccccc3)CCN(CCc3ccccc3)CC2)c2ccccc2)cc1

>  <score_type>  (3) 
oracle

>  <origin>  (3) 
adg

>  <m_score__min__energy>  (3) 
-13.880000000000001

>  <m_primary>  (3) 
energy

$$$$
3:0
     RDKit          3D

 51 54  0  0  0  0  0  0  0  0999 V2000
   59.6360   26.1700   45.8720 O   0  0  0  0  0  0  0  0  0  0  0  0
   59.1340   27.0950   46.5620 C   0  0  0  0  0  0  0  0  0  0  0  0
   59.5680   27.2690   47.9170 N   0  0  0  0  0  0  0  0  0  0  0  0
   59.2940   28.4570   48.7220 C   0  0  0  0  0  0  0  0  0  0  0  0
   60.5480   28.8750   49.4960 C   0  0  0  0  0  0  0  0  0  0  0  0
   61.2160   30.0510   48.8390 C   0  0  0  0  0  0  0  0  0  0  0  0
   62.1690   30.8030   49.5450 C   0  0  0  0  0  0  0  0  0  0  0  0
   62.8050   31.8870   48.9310 C   0  0  0  0  0  0  0  0  0  0  0  0
   62.5010   32.2210   47.6080 C   0  0  0  0  0  0  0  0  0  0  0  0
   63.3700   33.7020   46.7720 Br  0  0  0  0  0  0  0  0  0  0  0  0
   61.5630   31.4670   46.8950 C   0  0  0  0  0  0  0  0  0  0  0  0
   60.9250   30.3820   47.5050 C   0  0  0  0  0  0  0  0  0  0  0  0
   58.1340   27.9870   45.9500 C   0  0  0  0  0  0  0  0  0  0  0  0
   56.8030   27.5760   45.8060 C   0  0  0  0  0  0  0  0  0  0  0  0
   55.8900   28.4080   45.2400 N   0  0  0  0  0  0  0  0  0  0  0  0
   56.2200   29.6530   44.8050 C   0  0  0  0  0  0  0  0  0  0  0  0
   55.3270   30.3850   44.3030 O   0  0  0  0  0  0  0  0  0  0  0  0
   57.5440   30.1160   44.9350 C   0  0  0  0  0  0  0  0  0  0  0  0
   57.9460   31.4690   44.4870 C   0  0  0  0  0  0  0  0  0  0  0  0
   58.0160   31.7260   43.2540 O   0  0  0  0  0  0  0  0  0  0  0  0
   58.2890   32.4870   45.4420 N   0  0  0  0  0  0  0  0  0  0  0  0
   59.2060   33.5620   45.0230 C   0  0  0  0  0  0  0  0  0  0  0  0
   59.3670   34.6590   46.0890 C   0  0  0  0  0  0  0  0  0  0  0  0
   59.4550   34.0670   47.4670 C   0  0  0  0  0  0  0  0  0  0  0  0
   60.3180   34.6010   48.4350 C   0  0  0  0  0  0  0  0  0  0  0  0
   60.3270   34.0780   49.7320 C   0  0  0  0  0  0  0  0  0  0  0  0
   59.4570   33.0380   50.0740 C   0  0  0  0  0  0  0  0  0  0  0  0
   58.5820   32.5140   49.1190 C   0  0  0  0  0  0  0  0  0  0  0  0
   58.5900   33.0150   47.8080 C   0  0  0  0  0  0  0  0  0  0  0  0
   57.6460   32.4860   46.7670 C   0  0  0  0  0  0  0  0  0  0  0  0
   58.5020   29.2590   45.5000 C   0  0  0  0  0  0  0  0  0  0  0  0
   58.9844   29.2799   48.0609 H   0  0  0  0  0  0  0  0  0  0  0  0
   58.4914   28.2269   49.4381 H   0  0  0  0  0  0  0  0  0  0  0  0
   60.2631   29.1496   50.5224 H   0  0  0  0  0  0  0  0  0  0  0  0
   61.2529   28.0306   49.5062 H   0  0  0  0  0  0  0  0  0  0  0  0
   62.4160   30.5388   50.5838 H   0  0  0  0  0  0  0  0  0  0  0  0
   63.5456   32.4777   49.4901 H   0  0  0  0  0  0  0  0  0  0  0  0
   61.3267   31.7278   45.8528 H   0  0  0  0  0  0  0  0  0  0  0  0
   60.1937   29.7864   46.9389 H   0  0  0  0  0  0  0  0  0  0  0  0
   56.4961   26.5778   46.1517 H   0  0  0  0  0  0  0  0  0  0  0  0
   60.1935   33.1220   44.8199 H   0  0  0  0  0  0  0  0  0  0  0  0
   58.7761   34.0326   44.1265 H   0  0  0  0  0  0  0  0  0  0  0  0
   60.2859   35.2276   45.8831 H   0  0  0  0  0  0  0  0  0  0  0  0
   58.4868   35.3174   46.0477 H   0  0  0  0  0  0  0  0  0  0  0  0
   60.9889   35.4326   48.1736 H   0  0  0  0  0  0  0  0  0  0  0  0
   61.0191   34.4851   50.4838 H   0  0  0  0  0  0  0  0  0  0  0  0
   59.4615   32.6319   51.0963 H   0  0  0  0  0  0  0  0  0  0  0  0
   57.8862   31.7080   49.3949 H   0  0  0  0  0  0  0  0  0  0  0  0
   57.3573   31.4574   47.0289 H   0  0  0  0  0  0  0  0  0  0  0  0
   56.7559   33.1314   46.7319 H   0  0  0  0  0  0  0  0  0  0  0  0
   59.5473   29.5898   45.5892 H   0  0  0  0  0  0  0  0  0  0  0  0
  1  2  2  0
  2  3  1  0
  3  4  1  0
  4  5  1  0
  5  6  1  0
  6  7  2  0
  7  8  1  0
  8  9  2  0
  9 10  1  0
  9 11  1  0
 11 12  2  0
  2 13  1  0
 13 14  2  0
 14 15  1  0
 15 16  1  0
 16 17  2  0
 16 18  1  0
 18 19  1  0
 19 20  2  0
 19 21  1  0
 21 22  1  0
 22 23  1  0
 23 24  1  0
 24 25  2  0
 25 26  1  0
 26 27  2  0
 27 28  1  0
 28 29  2  0
 29 30  1  0
 18 31  2  0
 12  6  1  0
 31 13  1  0
 30 21  1  0
 29 24  1  0
  4 32  1  0
  4 33  1  0
  5 34  1  0
  5 35  1  0
  7 36  1  0
  8 37  1  0
 11 38  1  0
 12 39  1  0
 14 40  1  0
 22 41  1  0
 22 42  1  0
 23 43  1  0
 23 44  1  0
 25 45  1  0
 26 46  1  0
 27 47  1  0
 28 48  1  0
 30 49  1  0
 30 50  1  0
 31 51  1  0
M  CHG  2   3  -1  15  -1
M  END
>  <UniqueID>  (4) 
3

>  <SMILES>  (4) 
O=C([N-]CCc1ccc(Br)cc1)c1c[n-]c(=O)c(C(=O)N2CCc3ccccc3C2)c1

>  <Energy>  (4) 
63.28191876818325

>  <Genealogy>  (4) 
O=C([N-]CCc1ccc(Br)cc1)c1c[n-]c(=O)c(C(=O)N2CCc3ccccc3C2)c1 (protonated)
O=C([N-]CCc1ccc(Br)cc1)c1c[n-]c(=O)c(C(=O)N2CCc3ccccc3C2)c1 (3D coordinates assigned)
O=C([N-]CCc1ccc(Br)cc1)c1c[n-]c(=O)c(C(=O)N2CCc3ccccc3C2)c1 (nonaromatic ring conformer: 63.28191876818325 kcal/mol)

>  <smiles>  (4) 
O=C(NCCc1ccc(Br)cc1)c1c[nH]c(=O)c(C(=O)N2CCc3ccccc3C2)c1

>  <score_type>  (4) 
oracle

>  <origin>  (4) 
adg

>  <m_score__min__energy>  (4) 
-12.58

>  <m_primary>  (4) 
energy

$$$$
4:0
     RDKit          3D

 65 68  0  0  0  0  0  0  0  0999 V2000
   59.6060   33.5540   50.3560 C   0  0  0  0  0  0  0  0  0  0  0  0
   58.8860   32.8720   49.2320 C   0  0  0  0  0  0  0  0  0  0  0  0
   58.2770   31.7950   49.4730 O   0  0  0  0  0  0  0  0  0  0  0  0
   58.8670   33.4360   47.8560 C   0  0  0  0  0  0  0  0  0  0  0  0
   59.6440   34.5690   47.5490 C   0  0  0  0  0  0  0  0  0  0  0  0
   59.6340   35.1080   46.2620 C   0  0  0  0  0  0  0  0  0  0  0  0
   58.8550   34.5270   45.2610 C   0  0  0  0  0  0  0  0  0  0  0  0
   58.0730   33.3930   45.5440 C   0  0  0  0  0  0  0  0  0  0  0  0
   57.2700   32.7680   44.5780 O   0  0  0  0  0  0  0  0  0  0  0  0
   57.6460   31.6310   43.8000 C   0  0  0  0  0  0  0  0  0  0  0  0
   57.0390   30.3690   44.3440 C   0  0  0  0  0  0  0  0  0  0  0  0
   55.7120   30.2140   44.5030 N   0  0  0  0  0  0  0  0  0  0  0  0
   55.5210   29.0300   45.0070 O   0  0  0  0  0  0  0  0  0  0  0  0
   56.6540   28.3920   45.1840 C   0  0  0  0  0  0  0  0  0  0  0  0
   56.7260   27.0580   45.8030 C   0  0  0  0  0  0  0  0  0  0  0  0
   57.8240   26.5900   46.2090 O   0  0  0  0  0  0  0  0  0  0  0  0
   55.5210   26.3050   45.9660 N   0  0  0  0  0  0  0  0  0  0  0  0
   55.4980   24.8940   46.3370 C   0  0  0  0  0  0  0  0  0  0  0  0
   56.0080   24.0480   45.2010 C   0  0  0  0  0  0  0  0  0  0  0  0
   55.1740   23.7690   44.1050 C   0  0  0  0  0  0  0  0  0  0  0  0
   55.6410   22.9810   43.0480 C   0  0  0  0  0  0  0  0  0  0  0  0
   56.9400   22.4690   43.0790 C   0  0  0  0  0  0  0  0  0  0  0  0
   57.7720   22.7360   44.1680 C   0  0  0  0  0  0  0  0  0  0  0  0
   57.3090   23.5190   45.2300 C   0  0  0  0  0  0  0  0  0  0  0  0
   57.6900   29.2010   44.7330 C   0  0  0  0  0  0  0  0  0  0  0  0
   59.1740   28.9330   44.7960 C   0  0  0  0  0  0  0  0  0  0  0  0
   59.8370   29.8470   45.6670 O   0  0  0  0  0  0  0  0  0  0  0  0
   60.0820   29.6410   47.0340 C   0  0  0  0  0  0  0  0  0  0  0  0
   59.5770   28.5190   47.7220 C   0  0  0  0  0  0  0  0  0  0  0  0
   59.8690   28.3340   49.0750 C   0  0  0  0  0  0  0  0  0  0  0  0
   60.6680   29.2550   49.7520 C   0  0  0  0  0  0  0  0  0  0  0  0
   61.1710   30.3720   49.0830 C   0  0  0  0  0  0  0  0  0  0  0  0
   60.8820   30.5770   47.7210 C   0  0  0  0  0  0  0  0  0  0  0  0
   61.4040   31.7170   47.0180 N   0  0  0  0  0  0  0  0  0  0  0  0
   62.7020   32.6940   47.6250 S   0  0  0  0  0  0  0  0  0  0  0  0
   63.2480   33.8300   46.3690 C   0  0  0  0  0  0  0  0  0  0  0  0
   62.2500   33.4510   48.8430 O   0  0  0  0  0  0  0  0  0  0  0  0
   63.8440   31.7970   48.0110 O   0  0  0  0  0  0  0  0  0  0  0  0
   58.0860   32.8570   46.8370 C   0  0  0  0  0  0  0  0  0  0  0  0
   59.2175   33.1860   51.3171 H   0  0  0  0  0  0  0  0  0  0  0  0
   60.6821   33.3362   50.2879 H   0  0  0  0  0  0  0  0  0  0  0  0
   59.4468   34.6403   50.2879 H   0  0  0  0  0  0  0  0  0  0  0  0
   60.2641   35.0332   48.3300 H   0  0  0  0  0  0  0  0  0  0  0  0
   60.2433   35.9954   46.0355 H   0  0  0  0  0  0  0  0  0  0  0  0
   58.8525   34.9568   44.2484 H   0  0  0  0  0  0  0  0  0  0  0  0
   57.3025   31.7761   42.7651 H   0  0  0  0  0  0  0  0  0  0  0  0
   58.7409   31.5326   43.8379 H   0  0  0  0  0  0  0  0  0  0  0  0
   56.1365   24.7401   47.2194 H   0  0  0  0  0  0  0  0  0  0  0  0
   54.4629   24.6004   46.5658 H   0  0  0  0  0  0  0  0  0  0  0  0
   54.1507   24.1716   44.0783 H   0  0  0  0  0  0  0  0  0  0  0  0
   54.9849   22.7645   42.1920 H   0  0  0  0  0  0  0  0  0  0  0  0
   57.3082   21.8545   42.2442 H   0  0  0  0  0  0  0  0  0  0  0  0
   58.7939   22.3295   44.1906 H   0  0  0  0  0  0  0  0  0  0  0  0
   57.9648   23.7211   46.0897 H   0  0  0  0  0  0  0  0  0  0  0  0
   59.3363   27.9088   45.1630 H   0  0  0  0  0  0  0  0  0  0  0  0
   59.5891   29.0591   43.7852 H   0  0  0  0  0  0  0  0  0  0  0  0
   58.9508   27.7867   47.1913 H   0  0  0  0  0  0  0  0  0  0  0  0
   59.4677   27.4595   49.6082 H   0  0  0  0  0  0  0  0  0  0  0  0
   60.9023   29.1008   50.8156 H   0  0  0  0  0  0  0  0  0  0  0  0
   61.7973   31.0967   49.6238 H   0  0  0  0  0  0  0  0  0  0  0  0
   61.1280   31.8760   46.0230 H   0  0  0  0  0  0  0  0  0  0  0  0
   63.6776   34.7239   46.8448 H   0  0  0  0  0  0  0  0  0  0  0  0
   64.0115   33.3451   45.7429 H   0  0  0  0  0  0  0  0  0  0  0  0
   62.3925   34.1233   45.7429 H   0  0  0  0  0  0  0  0  0  0  0  0
   57.4764   31.9692   47.0609 H   0  0  0  0  0  0  0  0  0  0  0  0
  1  2  1  0
  2  3  2  0
  2  4  1  0
  4  5  2  0
  5  6  1  0
  6  7  2  0
  7  8  1  0
  8  9  1  0
  9 10  1  0
 10 11  1  0
 11 12  2  0
 12 13  1  0
 13 14  1  0
 14 15  1  0
 15 16  2  0
 15 17  1  0
 17 18  1  0
 18 19  1  0
 19 20  2  0
 20 21  1  0
 21 22  2  0
 22 23  1  0
 23 24  2  0
 14 25  2  0
 25 26  1  0
 26 27  1  0
 27 28  1  0
 28 29  2  0
 29 30  1  0
 30 31  2  0
 31 32  1  0
 32 33  2  0
 33 34  1  0
 34 35  1  0
 35 36  1  0
 35 37  2  0
 35 38  2  0
  8 39  2  0
 39  4  1  0
 25 11  1  0
 33 28  1  0
 24 19  1  0
  1 40  1  0
  1 41  1  0
  1 42  1  0
  5 43  1  0
  6 44  1  0
  7 45  1  0
 10 46  1  0
 10 47  1  0
 18 48  1  0
 18 49  1  0
 20 50  1  0
 21 51  1  0
 22 52  1  0
 23 53  1  0
 24 54  1  0
 26 55  1  0
 26 56  1  0
 29 57  1  0
 30 58  1  0
 31 59  1  0
 32 60  1  0
 34 61  1  0
 36 62  1  0
 36 63  1  0
 36 64  1  0
 39 65  1  0
M  CHG  1  17  -1
M  END
>  <UniqueID>  (5) 
4

>  <SMILES>  (5) 
CC(=O)c1cccc(OCc2noc(C(=O)[N-]Cc3ccccc3)c2COc2ccccc2NS(C)(=O)=O)c1

>  <Energy>  (5) 
95.72085101607851

>  <Genealogy>  (5) 
CC(=O)c1cccc(OCc2noc(C(=O)[N-]Cc3ccccc3)c2COc2ccccc2NS(C)(=O)=O)c1 (protonated)
CC(=O)c1cccc(OCc2noc(C(=O)[N-]Cc3ccccc3)c2COc2ccccc2NS(C)(=O)=O)c1 (3D coordinates assigned)
CC(=O)c1cccc(OCc2noc(C(=O)[N-]Cc3ccccc3)c2COc2ccccc2NS(C)(=O)=O)c1 (optimized conformer: 95.72085101607851 kcal/mol)

>  <smiles>  (5) 
CC(=O)c1cccc(OCc2noc(C(=O)NCc3ccccc3)c2COc2ccccc2NS(C)(=O)=O)c1

>  <score_type>  (5) 
oracle

>  <origin>  (5) 
adg

>  <m_score__min__energy>  (5) 
-12.880000000000001

>  <m_primary>  (5) 
energy

$$$$
5:0
     RDKit          3D

 41 42  0  0  0  0  0  0  0  0999 V2000
   58.5340   26.7310   45.9060 C   0  0  0  0  0  0  0  0  0  0  0  0
   58.2380   28.1940   45.5330 C   0  0  0  0  0  0  0  0  0  0  0  0
   58.8410   28.5050   44.1480 C   0  0  0  0  0  0  0  0  0  0  0  0
   58.8890   29.1280   46.5750 C   0  0  0  0  0  0  0  0  0  0  0  0
   56.7330   28.3950   45.4980 C   0  0  0  0  0  0  0  0  0  0  0  0
   55.9560   27.4070   45.6060 O   0  0  0  0  0  0  0  0  0  0  0  0
   56.1970   29.6940   45.2120 N   0  0  0  0  0  0  0  0  0  0  0  0
   56.9380   30.8070   44.6920 C   0  0  0  0  0  0  0  0  0  0  0  0
   57.5500   31.6790   45.5960 C   0  0  0  0  0  0  0  0  0  0  0  0
   58.2640   32.7960   45.1450 C   0  0  0  0  0  0  0  0  0  0  0  0
   58.9250   33.6780   46.1400 C   0  0  0  0  0  0  0  0  0  0  0  0
   58.9560   34.9140   45.8950 O   0  0  0  0  0  0  0  0  0  0  0  0
   59.5640   33.2040   47.3560 N   0  0  0  0  0  0  0  0  0  0  0  0
   59.6860   34.1530   48.4730 C   0  0  0  0  0  0  0  0  0  0  0  0
   61.2070   34.1240   48.4210 C   0  0  0  0  0  0  0  0  0  0  0  0
   61.0280   33.1460   47.2680 C   0  0  0  0  0  0  0  0  0  0  0  0
   58.3790   33.0240   43.7660 C   0  0  0  0  0  0  0  0  0  0  0  0
   57.7430   32.1810   42.8370 C   0  0  0  0  0  0  0  0  0  0  0  0
   57.8480   32.4640   41.4260 N   0  0  0  0  0  0  0  0  0  0  0  0
   57.0120   32.0130   40.6160 O   0  0  0  0  0  0  0  0  0  0  0  0
   58.8920   33.2190   40.9430 O   0  0  0  0  0  0  0  0  0  0  0  0
   57.0050   31.0750   43.3120 C   0  0  0  0  0  0  0  0  0  0  0  0
   56.3050   30.3010   42.4440 F   0  0  0  0  0  0  0  0  0  0  0  0
   58.5547   26.6288   47.0010 H   0  0  0  0  0  0  0  0  0  0  0  0
   57.7492   26.0810   45.4918 H   0  0  0  0  0  0  0  0  0  0  0  0
   59.5098   26.4372   45.4918 H   0  0  0  0  0  0  0  0  0  0  0  0
   59.8121   29.0058   44.2750 H   0  0  0  0  0  0  0  0  0  0  0  0
   58.9822   27.5673   43.5906 H   0  0  0  0  0  0  0  0  0  0  0  0
   58.1588   29.1637   43.5906 H   0  0  0  0  0  0  0  0  0  0  0  0
   58.6433   28.7755   47.5876 H   0  0  0  0  0  0  0  0  0  0  0  0
   59.9807   29.1235   46.4400 H   0  0  0  0  0  0  0  0  0  0  0  0
   58.5070   30.1507   46.4400 H   0  0  0  0  0  0  0  0  0  0  0  0
   57.4699   31.4856   46.6759 H   0  0  0  0  0  0  0  0  0  0  0  0
   59.1630   32.2900   47.6770 H   0  0  0  0  0  0  0  0  0  0  0  0
   59.2582   35.1430   48.2566 H   0  0  0  0  0  0  0  0  0  0  0  0
   59.1800   33.9268   49.4232 H   0  0  0  0  0  0  0  0  0  0  0  0
   61.6830   35.0789   48.1532 H   0  0  0  0  0  0  0  0  0  0  0  0
   61.8293   33.9014   49.3003 H   0  0  0  0  0  0  0  0  0  0  0  0
   61.4249   33.5179   46.3119 H   0  0  0  0  0  0  0  0  0  0  0  0
   61.5264   32.1666   47.3179 H   0  0  0  0  0  0  0  0  0  0  0  0
   58.9756   33.8750   43.4055 H   0  0  0  0  0  0  0  0  0  0  0  0
  1  2  1  0
  2  3  1  0
  2  4  1  0
  2  5  1  0
  5  6  2  0
  5  7  1  0
  7  8  1  0
  8  9  2  0
  9 10  1  0
 10 11  1  0
 11 12  2  0
 11 13  1  0
 13 14  1  0
 14 15  1  0
 15 16  1  0
 10 17  2  0
 17 18  1  0
 18 19  1  0
 19 20  2  0
 19 21  1  0
 18 22  2  0
 22 23  1  0
 22  8  1  0
 16 13  1  0
  1 24  1  0
  1 25  1  0
  1 26  1  0
  3 27  1  0
  3 28  1  0
  3 29  1  0
  4 30  1  0
  4 31  1  0
  4 32  1  0
  9 33  1  0
 13 34  1  0
 14 35  1  0
 14 36  1  0
 15 37  1  0
 15 38  1  0
 16 39  1  0
 16 40  1  0
 17 41  1  0
M  CHG  4   7  -1  13   1  19   1  21  -1
M  END
>  <UniqueID>  (6) 
5

>  <SMILES>  (6) 
CC(C)(C)C(=O)[N-]c1cc(C(=O)[NH+]2CCC2)cc([N+](=O)[O-])c1F

>  <Energy>  (6) 
125.37345245130923

>  <Genealogy>  (6) 
CC(C)(C)C(=O)[N-]c1cc(C(=O)[NH+]2CCC2)cc([N+](=O)[O-])c1F (protonated)
CC(C)(C)C(=O)[N-]c1cc(C(=O)[NH+]2CCC2)cc([N+](=O)[O-])c1F (3D coordinates assigned)
CC(C)(C)C(=O)[N-]c1cc(C(=O)[NH+]2CCC2)cc([N+](=O)[O-])c1F (nonaromatic ring conformer: 125.37345245130923 kcal/mol)

>  <smiles>  (6) 
CC(C)(C)C(=O)Nc1cc(C(=O)N2CCC2)cc([N+](=O)[O-])c1F

>  <score_type>  (6) 
oracle

>  <origin>  (6) 
adg

>  <m_score__min__energy>  (6) 
-8

>  <m_primary>  (6) 
energy

$$$$
6:0
     RDKit          3D

 48 50  0  0  0  0  0  0  0  0999 V2000
   58.3300   32.4080   49.1320 C   0  0  0  0  0  0  0  0  0  0  0  0
   59.3380   32.9950   48.1770 C   0  0  0  0  0  0  0  0  0  0  0  0
   60.6440   33.2070   48.6470 C   0  0  0  0  0  0  0  0  0  0  0  0
   61.6160   33.8080   47.8330 C   0  0  0  0  0  0  0  0  0  0  0  0
   63.0170   34.0410   48.3610 C   0  0  0  0  0  0  0  0  0  0  0  0
   63.8740   32.8330   48.3470 N   0  0  0  0  0  0  0  0  0  0  0  0
   63.7340   32.0230   49.5670 C   0  0  0  0  0  0  0  0  0  0  0  0
   63.6700   32.0130   47.1440 C   0  0  0  0  0  0  0  0  0  0  0  0
   61.2680   34.2130   46.5380 C   0  0  0  0  0  0  0  0  0  0  0  0
   59.9800   33.9890   46.0510 C   0  0  0  0  0  0  0  0  0  0  0  0
   59.0140   33.3460   46.8420 C   0  0  0  0  0  0  0  0  0  0  0  0
   57.6780   33.0920   46.2510 C   0  0  0  0  0  0  0  0  0  0  0  0
   56.6520   33.5040   46.8540 O   0  0  0  0  0  0  0  0  0  0  0  0
   57.5120   32.3810   45.0160 N   0  0  0  0  0  0  0  0  0  0  0  0
   57.0400   31.0350   44.8880 C   0  0  0  0  0  0  0  0  0  0  0  0
   56.0610   30.6890   44.0300 N   0  0  0  0  0  0  0  0  0  0  0  0
   55.9150   29.3610   44.2190 C   0  0  0  0  0  0  0  0  0  0  0  0
   56.7720   28.8640   45.1360 N   0  0  0  0  0  0  0  0  0  0  0  0
   56.9020   27.4580   45.5060 C   0  0  0  0  0  0  0  0  0  0  0  0
   57.4900   29.9200   45.5760 C   0  0  0  0  0  0  0  0  0  0  0  0
   58.6780   29.8430   46.4510 C   0  0  0  0  0  0  0  0  0  0  0  0
   59.9510   30.2060   45.9870 C   0  0  0  0  0  0  0  0  0  0  0  0
   61.0450   30.1230   46.8520 C   0  0  0  0  0  0  0  0  0  0  0  0
   60.8650   29.6720   48.1600 C   0  0  0  0  0  0  0  0  0  0  0  0
   59.5870   29.3080   48.5860 C   0  0  0  0  0  0  0  0  0  0  0  0
   58.5340   29.4010   47.7330 N   0  0  0  0  0  0  0  0  0  0  0  0
   58.6526   32.5958   50.1667 H   0  0  0  0  0  0  0  0  0  0  0  0
   57.3490   32.8761   48.9631 H   0  0  0  0  0  0  0  0  0  0  0  0
   58.2529   31.3238   48.9631 H   0  0  0  0  0  0  0  0  0  0  0  0
   60.9091   32.8973   49.6687 H   0  0  0  0  0  0  0  0  0  0  0  0
   63.4966   34.8127   47.7409 H   0  0  0  0  0  0  0  0  0  0  0  0
   62.9143   34.3466   49.4127 H   0  0  0  0  0  0  0  0  0  0  0  0
   63.8456   32.6686   50.4506 H   0  0  0  0  0  0  0  0  0  0  0  0
   62.7408   31.5503   49.5813 H   0  0  0  0  0  0  0  0  0  0  0  0
   64.5109   31.2444   49.5813 H   0  0  0  0  0  0  0  0  0  0  0  0
   63.4142   30.9849   47.4401 H   0  0  0  0  0  0  0  0  0  0  0  0
   62.8500   32.4371   46.5459 H   0  0  0  0  0  0  0  0  0  0  0  0
   64.5931   32.0034   46.5459 H   0  0  0  0  0  0  0  0  0  0  0  0
   62.0145   34.7105   45.9014 H   0  0  0  0  0  0  0  0  0  0  0  0
   59.7179   34.3200   45.0352 H   0  0  0  0  0  0  0  0  0  0  0  0
   55.1757   28.7481   43.6825 H   0  0  0  0  0  0  0  0  0  0  0  0
   56.9105   27.3666   46.6022 H   0  0  0  0  0  0  0  0  0  0  0  0
   56.0524   26.8912   45.0973 H   0  0  0  0  0  0  0  0  0  0  0  0
   57.8411   27.0566   45.0973 H   0  0  0  0  0  0  0  0  0  0  0  0
   60.0867   30.5527   44.9519 H   0  0  0  0  0  0  0  0  0  0  0  0
   62.0469   30.4128   46.5023 H   0  0  0  0  0  0  0  0  0  0  0  0
   61.7209   29.6041   48.8477 H   0  0  0  0  0  0  0  0  0  0  0  0
   59.4323   28.9456   49.6130 H   0  0  0  0  0  0  0  0  0  0  0  0
  1  2  1  0
  2  3  2  0
  3  4  1  0
  4  5  1  0
  5  6  1  0
  6  7  1  0
  6  8  1  0
  4  9  2  0
  9 10  1  0
 10 11  2  0
 11 12  1  0
 12 13  2  0
 12 14  1  0
 14 15  1  0
 15 16  1  0
 16 17  2  0
 17 18  1  0
 18 19  1  0
 18 20  1  0
 20 21  1  0
 21 22  2  0
 22 23  1  0
 23 24  2  0
 24 25  1  0
 25 26  2  0
 11  2  1  0
 20 15  2  0
 26 21  1  0
  1 27  1  0
  1 28  1  0
  1 29  1  0
  3 30  1  0
  5 31  1  0
  5 32  1  0
  7 33  1  0
  7 34  1  0
  7 35  1  0
  8 36  1  0
  8 37  1  0
  8 38  1  0
  9 39  1  0
 10 40  1  0
 17 41  1  0
 19 42  1  0
 19 43  1  0
 19 44  1  0
 22 45  1  0
 23 46  1  0
 24 47  1  0
 25 48  1  0
M  CHG  1  14  -1
M  END
>  <UniqueID>  (7) 
6

>  <SMILES>  (7) 
Cc1cc(CN(C)C)ccc1C(=O)[N-]c1ncn(C)c1-c1ccccn1

>  <Energy>  (7) 
93.3259902273179

>  <Genealogy>  (7) 
Cc1cc(CN(C)C)ccc1C(=O)[N-]c1ncn(C)c1-c1ccccn1 (protonated)
Cc1cc(CN(C)C)ccc1C(=O)[N-]c1ncn(C)c1-c1ccccn1 (3D coordinates assigned)
Cc1cc(CN(C)C)ccc1C(=O)[N-]c1ncn(C)c1-c1ccccn1 (optimized conformer: 93.3259902273179 kcal/mol)

>  <smiles>  (7) 
Cc1cc(CN(C)C)ccc1C(=O)Nc1ncn(C)c1-c1ccccn1

>  <score_type>  (7) 
oracle

>  <origin>  (7) 
adg

>  <m_score__min__energy>  (7) 
-9.0700000000000003

>  <m_primary>  (7) 
energy

$$$$
7:0
     RDKit          3D

 50 52  0  0  0  0  0  0  0  0999 V2000
   57.0600   33.7310   45.7080 C   0  0  0  0  0  0  0  0  0  0  0  0
   57.4100   32.2750   45.6630 C   0  0  0  0  0  0  0  0  0  0  0  0
   57.0210   31.5890   44.6780 O   0  0  0  0  0  0  0  0  0  0  0  0
   58.1950   31.6530   46.7030 N   0  0  0  0  0  0  0  0  0  0  0  0
   58.2570   30.1890   46.7880 C   0  0  0  0  0  0  0  0  0  0  0  0
   58.6350   29.7530   48.2060 C   0  0  0  0  0  0  0  0  0  0  0  0
   59.9250   30.3320   48.6350 N   0  0  0  0  0  0  0  0  0  0  0  0
   60.0770   30.2120   50.3710 S   0  0  0  0  0  0  0  0  0  0  0  0
   59.8580   28.7870   50.8000 O   0  0  0  0  0  0  0  0  0  0  0  0
   61.4580   30.6320   50.7940 O   0  0  0  0  0  0  0  0  0  0  0  0
   58.8720   31.2300   51.1560 C   0  0  0  0  0  0  0  0  0  0  0  0
   59.2450   32.4410   51.7560 C   0  0  0  0  0  0  0  0  0  0  0  0
   58.2810   33.2460   52.3670 C   0  0  0  0  0  0  0  0  0  0  0  0
   56.9390   32.8560   52.3690 C   0  0  0  0  0  0  0  0  0  0  0  0
   56.5470   31.6590   51.7450 C   0  0  0  0  0  0  0  0  0  0  0  0
   55.1780   31.2230   51.7540 N   0  0  0  0  0  0  0  0  0  0  0  0
   54.7680   29.8750   52.0300 C   0  0  0  0  0  0  0  0  0  0  0  0
   55.5540   29.0700   52.5990 O   0  0  0  0  0  0  0  0  0  0  0  0
   53.3990   29.4100   51.6410 C   0  0  0  0  0  0  0  0  0  0  0  0
   52.5280   30.5880   51.3230 C   0  0  0  0  0  0  0  0  0  0  0  0
   52.2870   31.5890   52.1880 N   0  0  0  0  0  0  0  0  0  0  0  0
   51.4180   32.3750   51.5200 C   0  0  0  0  0  0  0  0  0  0  0  0
   50.9490   33.4350   52.0080 O   0  0  0  0  0  0  0  0  0  0  0  0
   51.0830   31.9290   50.2920 N   0  0  0  0  0  0  0  0  0  0  0  0
   51.7970   30.7960   50.1680 C   0  0  0  0  0  0  0  0  0  0  0  0
   51.7030   29.8850   48.9880 C   0  0  0  0  0  0  0  0  0  0  0  0
   57.5260   30.8430   51.1540 C   0  0  0  0  0  0  0  0  0  0  0  0
   60.1670   31.7230   48.1770 C   0  0  0  0  0  0  0  0  0  0  0  0
   58.8960   32.4520   47.7170 C   0  0  0  0  0  0  0  0  0  0  0  0
   56.9816   34.0571   46.7556 H   0  0  0  0  0  0  0  0  0  0  0  0
   57.8440   34.3124   45.2007 H   0  0  0  0  0  0  0  0  0  0  0  0
   56.0974   33.8926   45.2007 H   0  0  0  0  0  0  0  0  0  0  0  0
   57.2738   29.7688   46.5294 H   0  0  0  0  0  0  0  0  0  0  0  0
   59.0207   29.8226   46.0862 H   0  0  0  0  0  0  0  0  0  0  0  0
   57.8486   30.0826   48.9009 H   0  0  0  0  0  0  0  0  0  0  0  0
   58.7346   28.6575   48.2107 H   0  0  0  0  0  0  0  0  0  0  0  0
   60.2984   32.7576   51.7455 H   0  0  0  0  0  0  0  0  0  0  0  0
   58.5788   34.1894   52.8479 H   0  0  0  0  0  0  0  0  0  0  0  0
   56.1858   33.4888   52.8613 H   0  0  0  0  0  0  0  0  0  0  0  0
   54.4320   31.9390   51.5980 H   0  0  0  0  0  0  0  0  0  0  0  0
   53.4725   28.7618   50.7553 H   0  0  0  0  0  0  0  0  0  0  0  0
   52.9568   28.8497   52.4780 H   0  0  0  0  0  0  0  0  0  0  0  0
   51.5958   28.8464   49.3342 H   0  0  0  0  0  0  0  0  0  0  0  0
   50.8286   30.1610   48.3804 H   0  0  0  0  0  0  0  0  0  0  0  0
   52.6154   29.9767   48.3804 H   0  0  0  0  0  0  0  0  0  0  0  0
   57.2329   29.8919   50.6856 H   0  0  0  0  0  0  0  0  0  0  0  0
   60.6108   32.2901   49.0086 H   0  0  0  0  0  0  0  0  0  0  0  0
   60.8358   31.6626   47.3057 H   0  0  0  0  0  0  0  0  0  0  0  0
   58.2326   32.6069   48.5807 H   0  0  0  0  0  0  0  0  0  0  0  0
   59.1753   33.4225   47.2809 H   0  0  0  0  0  0  0  0  0  0  0  0
  1  2  1  0
  2  3  2  0
  2  4  1  0
  4  5  1  0
  5  6  1  0
  6  7  1  0
  7  8  1  0
  8  9  2  0
  8 10  2  0
  8 11  1  0
 11 12  2  0
 12 13  1  0
 13 14  2  0
 14 15  1  0
 15 16  1  0
 16 17  1  0
 17 18  2  0
 17 19  1  0
 19 20  1  0
 20 21  1  0
 21 22  1  0
 22 23  2  0
 22 24  1  0
 24 25  1  0
 25 26  1  0
 15 27  2  0
  7 28  1  0
 28 29  1  0
 29  4  1  0
 27 11  1  0
 25 20  2  0
  1 30  1  0
  1 31  1  0
  1 32  1  0
  5 33  1  0
  5 34  1  0
  6 35  1  0
  6 36  1  0
 12 37  1  0
 13 38  1  0
 14 39  1  0
 16 40  1  0
 19 41  1  0
 19 42  1  0
 26 43  1  0
 26 44  1  0
 26 45  1  0
 27 46  1  0
 28 47  1  0
 28 48  1  0
 29 49  1  0
 29 50  1  0
M  CHG  2  21  -1  24  -1
M  END
>  <UniqueID>  (8) 
7

>  <SMILES>  (8) 
CC(=O)N1CCN(S(=O)(=O)c2cccc(NC(=O)Cc3[n-]c(=O)[n-]c3C)c2)CC1

>  <Energy>  (8) 
82.67812696912071

>  <Genealogy>  (8) 
CC(=O)N1CCN(S(=O)(=O)c2cccc(NC(=O)Cc3[n-]c(=O)[n-]c3C)c2)CC1 (protonated)
CC(=O)N1CCN(S(=O)(=O)c2cccc(NC(=O)Cc3[n-]c(=O)[n-]c3C)c2)CC1 (3D coordinates assigned)
CC(=O)N1CCN(S(=O)(=O)c2cccc(NC(=O)Cc3[n-]c(=O)[n-]c3C)c2)CC1 (nonaromatic ring conformer: 82.67812696912071 kcal/mol)

>  <smiles>  (8) 
CC(=O)N1CCN(S(=O)(=O)c2cccc(NC(=O)Cc3[nH]c(=O)[nH]c3C)c2)CC1

>  <score_type>  (8) 
oracle

>  <origin>  (8) 
adg

>  <m_score__min__energy>  (8) 
-13.15

>  <m_primary>  (8) 
energy

$$$$
8:0
     RDKit          3D

 50 53  0  0  0  0  0  0  0  0999 V2000
   56.6662   30.5360   42.9586 H   0  0  0  0  0  0  0  0  0  0  0  0
   56.9080   29.5720   43.4300 C   0  0  0  0  0  0  0  0  0  0  0  0
   56.7155   28.6326   42.8911 H   0  0  0  0  0  0  0  0  0  0  0  0
   57.4390   29.5420   44.6650 C   0  0  0  0  0  0  0  0  0  0  0  0
   57.7930   28.3910   45.3800 C   0  0  0  0  0  0  0  0  0  0  0  0
   57.6590   27.1090   44.9750 C   0  0  0  0  0  0  0  0  0  0  0  0
   57.9409   26.8770   43.9374 H   0  0  0  0  0  0  0  0  0  0  0  0
   57.1650   25.9900   45.8090 C   0  0  0  0  0  0  0  0  0  0  0  0
   57.9060   24.9780   46.2960 N   0  0  0  0  0  0  0  0  0  0  0  0
   57.0230   24.2570   47.0200 C   0  0  0  0  0  0  0  0  0  0  0  0
   57.3460   23.2090   47.6360 O   0  0  0  0  0  0  0  0  0  0  0  0
   55.7670   24.7520   47.0350 N   0  0  0  0  0  0  0  0  0  0  0  0
   55.8760   25.8490   46.2690 C   0  0  0  0  0  0  0  0  0  0  0  0
   54.8160   26.7060   45.9960 O   0  0  0  0  0  0  0  0  0  0  0  0
   58.3580   28.8370   46.5670 C   0  0  0  0  0  0  0  0  0  0  0  0
   58.7527   28.2094   47.3796 H   0  0  0  0  0  0  0  0  0  0  0  0
   58.3310   30.2180   46.5350 C   0  0  0  0  0  0  0  0  0  0  0  0
   58.9830   31.0700   47.5560 C   0  0  0  0  0  0  0  0  0  0  0  0
   60.2020   30.9100   47.8350 O   0  0  0  0  0  0  0  0  0  0  0  0
   58.2200   32.0540   48.2690 N   0  0  0  0  0  0  0  0  0  0  0  0
   57.4420   32.5420   47.7710 H   0  0  0  0  0  0  0  0  0  0  0  0
   58.5780   32.4990   49.5870 C   0  0  0  0  0  0  0  0  0  0  0  0
   57.8330   32.0460   50.6850 C   0  0  0  0  0  0  0  0  0  0  0  0
   57.0073   31.3360   50.5294 H   0  0  0  0  0  0  0  0  0  0  0  0
   58.1320   32.4900   51.9750 C   0  0  0  0  0  0  0  0  0  0  0  0
   57.5361   32.1369   52.8296 H   0  0  0  0  0  0  0  0  0  0  0  0
   59.1870   33.3820   52.1810 C   0  0  0  0  0  0  0  0  0  0  0  0
   59.4121   33.7420   53.1958 H   0  0  0  0  0  0  0  0  0  0  0  0
   59.9560   33.8170   51.1000 C   0  0  0  0  0  0  0  0  0  0  0  0
   60.7901   34.5140   51.2684 H   0  0  0  0  0  0  0  0  0  0  0  0
   59.6720   33.3710   49.8000 C   0  0  0  0  0  0  0  0  0  0  0  0
   60.5300   33.7590   48.7150 N   0  0  0  0  0  0  0  0  0  0  0  0
   61.9790   33.5660   48.8460 C   0  0  0  0  0  0  0  0  0  0  0  0
   62.3678   34.2503   49.6145 H   0  0  0  0  0  0  0  0  0  0  0  0
   62.1754   32.5228   49.1345 H   0  0  0  0  0  0  0  0  0  0  0  0
   62.6780   33.8530   47.5150 C   0  0  0  0  0  0  0  0  0  0  0  0
   62.8621   34.9336   47.4237 H   0  0  0  0  0  0  0  0  0  0  0  0
   63.6354   33.3123   47.4810 H   0  0  0  0  0  0  0  0  0  0  0  0
   61.8590   33.4240   46.4480 O   0  0  0  0  0  0  0  0  0  0  0  0
   60.7610   34.3070   46.2970 C   0  0  0  0  0  0  0  0  0  0  0  0
   61.1366   35.2677   45.9149 H   0  0  0  0  0  0  0  0  0  0  0  0
   60.0546   33.8294   45.6021 H   0  0  0  0  0  0  0  0  0  0  0  0
   59.9950   34.5700   47.6160 C   0  0  0  0  0  0  0  0  0  0  0  0
   60.0880   35.6343   47.8781 H   0  0  0  0  0  0  0  0  0  0  0  0
   58.9403   34.2966   47.4649 H   0  0  0  0  0  0  0  0  0  0  0  0
   57.7440   30.6510   45.3920 N   0  0  0  0  0  0  0  0  0  0  0  0
   57.5300   32.0500   45.0030 C   0  0  0  0  0  0  0  0  0  0  0  0
   57.4350   32.6712   45.9058 H   0  0  0  0  0  0  0  0  0  0  0  0
   58.3851   32.3994   44.4058 H   0  0  0  0  0  0  0  0  0  0  0  0
   56.6095   32.1278   44.4058 H   0  0  0  0  0  0  0  0  0  0  0  0
  1  2  1  0
  2  3  1  0
  2  4  2  0
  4  5  1  0
  5  6  2  0
  6  7  1  0
  6  8  1  0
  8  9  1  0
  9 10  1  0
 10 11  2  0
 10 12  1  0
 12 13  1  0
 13 14  1  0
  5 15  1  0
 15 16  1  0
 15 17  2  0
 17 18  1  0
 18 19  2  0
 18 20  1  0
 20 21  1  0
 20 22  1  0
 22 23  2  0
 23 24  1  0
 23 25  1  0
 25 26  1  0
 25 27  2  0
 27 28  1  0
 27 29  1  0
 29 30  1  0
 29 31  2  0
 31 32  1  0
 32 33  1  0
 33 34  1  0
 33 35  1  0
 33 36  1  0
 36 37  1  0
 36 38  1  0
 36 39  1  0
 39 40  1  0
 40 41  1  0
 40 42  1  0
 40 43  1  0
 43 44  1  0
 43 45  1  0
 17 46  1  0
 46 47  1  0
 47 48  1  0
 47 49  1  0
 47 50  1  0
 46  4  1  0
 13  8  2  0
 31 22  1  0
 43 32  1  0
M  CHG  3   9  -1  12  -1  14  -1
M  END
>  <UniqueID>  (9) 
8

>  <SMILES>  (9) 
C=c1/c(=C/c2[n-]c(=O)[n-]c2[O-])cc(C(=O)Nc2ccccc2N2CCOCC2)n1C

>  <Energy>  (9) 
132.11906222392676

>  <Genealogy>  (9) 
C=c1c(=Cc2[n-]c(=O)[n-]c2[O-])cc(C(=O)Nc2ccccc2N2CCOCC2)n1C (protonated)
C=c1/c(=C/c2[n-]c(=O)[n-]c2[O-])cc(C(=O)Nc2ccccc2N2CCOCC2)n1C (cis-trans isomerization)
C=c1/c(=C/c2[n-]c(=O)[n-]c2[O-])cc(C(=O)Nc2ccccc2N2CCOCC2)n1C (3D coordinates assigned)
C=c1/c(=C/c2[n-]c(=O)[n-]c2[O-])cc(C(=O)Nc2ccccc2N2CCOCC2)n1C (nonaromatic ring conformer: 132.11906222392676 kcal/mol)

>  <smiles>  (9) 
C=c1c(=Cc2[nH]c(=O)[nH]c2O)cc(C(=O)Nc2ccccc2N2CCOCC2)n1C

>  <score_type>  (9) 
oracle

>  <origin>  (9) 
adg

>  <m_score__min__energy>  (9) 
-17.75

>  <m_primary>  (9) 
energy

$$$$
9:0
     RDKit          3D

 48 52  0  0  0  0  0  0  0  0999 V2000
   55.1570   29.3670   44.8270 O   0  0  0  0  0  0  0  0  0  0  0  0
   56.1140   30.0240   44.3350 C   0  0  0  0  0  0  0  0  0  0  0  0
   57.2010   29.3120   43.5930 C   0  0  0  0  0  0  0  0  0  0  0  0
   58.2450   28.8090   44.5460 C   0  0  0  0  0  0  0  0  0  0  0  0
   59.4930   29.3840   44.7840 C   0  0  0  0  0  0  0  0  0  0  0  0
   60.1460   28.7100   45.7590 N   0  0  0  0  0  0  0  0  0  0  0  0
   59.3180   27.7240   46.1460 C   0  0  0  0  0  0  0  0  0  0  0  0
   59.5450   26.7810   47.1450 C   0  0  0  0  0  0  0  0  0  0  0  0
   58.5290   25.8470   47.4150 C   0  0  0  0  0  0  0  0  0  0  0  0
   57.3090   25.8750   46.6880 C   0  0  0  0  0  0  0  0  0  0  0  0
   56.2480   24.9460   46.9480 N   0  0  0  0  0  0  0  0  0  0  0  0
   54.9030   24.6480   45.8950 S   0  0  0  0  0  0  0  0  0  0  0  0
   54.1660   25.9350   45.6440 O   0  0  0  0  0  0  0  0  0  0  0  0
   53.9780   23.6480   46.5290 O   0  0  0  0  0  0  0  0  0  0  0  0
   55.5300   23.9610   44.3640 C   0  0  0  0  0  0  0  0  0  0  0  0
   56.1420   22.5780   44.5040 C   0  0  0  0  0  0  0  0  0  0  0  0
   57.0380   23.7900   44.2910 C   0  0  0  0  0  0  0  0  0  0  0  0
   57.1190   26.8430   45.6800 C   0  0  0  0  0  0  0  0  0  0  0  0
   58.1470   27.7530   45.4340 C   0  0  0  0  0  0  0  0  0  0  0  0
   56.1910   31.4430   44.5160 N   0  0  0  0  0  0  0  0  0  0  0  0
   57.4000   32.2200   44.2720 C   0  0  0  0  0  0  0  0  0  0  0  0
   58.0520   32.5810   45.5680 C   0  0  0  0  0  0  0  0  0  0  0  0
   58.6840   33.7690   45.7630 N   0  0  0  0  0  0  0  0  0  0  0  0
   59.0640   33.6860   47.0460 C   0  0  0  0  0  0  0  0  0  0  0  0
   59.7590   34.6340   47.7930 C   0  0  0  0  0  0  0  0  0  0  0  0
   60.0400   34.3280   49.1380 C   0  0  0  0  0  0  0  0  0  0  0  0
   59.6210   33.0970   49.6930 C   0  0  0  0  0  0  0  0  0  0  0  0
   58.9190   32.1630   48.9080 C   0  0  0  0  0  0  0  0  0  0  0  0
   58.6610   32.5000   47.5810 C   0  0  0  0  0  0  0  0  0  0  0  0
   58.0080   31.7750   46.6620 N   0  0  0  0  0  0  0  0  0  0  0  0
   56.7689   28.4605   43.0469 H   0  0  0  0  0  0  0  0  0  0  0  0
   57.6707   30.0147   42.8891 H   0  0  0  0  0  0  0  0  0  0  0  0
   59.8907   30.2619   44.2538 H   0  0  0  0  0  0  0  0  0  0  0  0
   61.0940   28.9260   46.1400 H   0  0  0  0  0  0  0  0  0  0  0  0
   60.4909   26.7670   47.7063 H   0  0  0  0  0  0  0  0  0  0  0  0
   58.6804   25.0877   48.1964 H   0  0  0  0  0  0  0  0  0  0  0  0
   54.7733   24.4239   43.7135 H   0  0  0  0  0  0  0  0  0  0  0  0
   56.1300   22.0671   45.4781 H   0  0  0  0  0  0  0  0  0  0  0  0
   56.0061   21.6119   43.9959 H   0  0  0  0  0  0  0  0  0  0  0  0
   57.6735   24.1554   45.1111 H   0  0  0  0  0  0  0  0  0  0  0  0
   57.8181   24.0633   43.5652 H   0  0  0  0  0  0  0  0  0  0  0  0
   56.1836   26.8794   45.1024 H   0  0  0  0  0  0  0  0  0  0  0  0
   58.0992   31.6239   43.6672 H   0  0  0  0  0  0  0  0  0  0  0  0
   57.1318   33.1423   43.7359 H   0  0  0  0  0  0  0  0  0  0  0  0
   60.0771   35.5882   47.3477 H   0  0  0  0  0  0  0  0  0  0  0  0
   60.5884   35.0504   49.7604 H   0  0  0  0  0  0  0  0  0  0  0  0
   59.8451   32.8676   50.7452 H   0  0  0  0  0  0  0  0  0  0  0  0
   58.5862   31.2019   49.3271 H   0  0  0  0  0  0  0  0  0  0  0  0
  1  2  2  0
  2  3  1  0
  3  4  1  0
  4  5  2  0
  5  6  1  0
  6  7  1  0
  7  8  2  0
  8  9  1  0
  9 10  2  0
 10 11  1  0
 11 12  1  0
 12 13  2  0
 12 14  2  0
 12 15  1  0
 15 16  1  0
 16 17  1  0
 10 18  1  0
 18 19  2  0
  2 20  1  0
 20 21  1  0
 21 22  1  0
 22 23  2  0
 23 24  1  0
 24 25  2  0
 25 26  1  0
 26 27  2  0
 27 28  1  0
 28 29  2  0
 29 30  1  0
 19  4  1  0
 30 22  1  0
 19  7  1  0
 29 24  1  0
 17 15  1  0
  3 31  1  0
  3 32  1  0
  5 33  1  0
  6 34  1  0
  8 35  1  0
  9 36  1  0
 15 37  1  0
 16 38  1  0
 16 39  1  0
 17 40  1  0
 17 41  1  0
 18 42  1  0
 21 43  1  0
 21 44  1  0
 25 45  1  0
 26 46  1  0
 27 47  1  0
 28 48  1  0
M  CHG  3  11  -1  20  -1  30  -1
M  END
>  <UniqueID>  (10) 
9

>  <SMILES>  (10) 
O=C(Cc1c[nH]c2ccc([N-]S(=O)(=O)C3CC3)cc12)[N-]Cc1nc2ccccc2[n-]1

>  <Energy>  (10) 
380.6506338218315

>  <Genealogy>  (10) 
O=C(Cc1c[nH]c2ccc([N-]S(=O)(=O)C3CC3)cc12)[N-]Cc1nc2ccccc2[n-]1 (protonated)
O=C(Cc1c[nH]c2ccc([N-]S(=O)(=O)C3CC3)cc12)[N-]Cc1nc2ccccc2[n-]1 (3D coordinates assigned)
O=C(Cc1c[nH]c2ccc([N-]S(=O)(=O)C3CC3)cc12)[N-]Cc1nc2ccccc2[n-]1 (nonaromatic ring conformer: 380.6506338218315 kcal/mol)

>  <smiles>  (10) 
O=C(Cc1c[nH]c2ccc(NS(=O)(=O)C3CC3)cc12)NCc1nc2ccccc2[nH]1

>  <score_type>  (10) 
oracle

>  <origin>  (10) 
adg

>  <m_score__min__energy>  (10) 
-13.890000000000001

>  <m_primary>  (10) 
energy

$$$$
10:0
     RDKit          3D

 42 44  0  0  0  0  0  0  0  0999 V2000
   56.0830   31.9650   52.3370 C   0  0  0  0  0  0  0  0  0  0  0  0
   55.5340   30.8010   52.7200 C   0  0  0  0  0  0  0  0  0  0  0  0
   54.1710   30.4670   52.7050 C   0  0  0  0  0  0  0  0  0  0  0  0
   53.0730   31.2260   52.5160 C   0  0  0  0  0  0  0  0  0  0  0  0
   52.2010   31.1940   51.3300 C   0  0  0  0  0  0  0  0  0  0  0  0
   52.2630   30.2650   50.3580 N   0  0  0  0  0  0  0  0  0  0  0  0
   51.3890   30.7230   49.4340 C   0  0  0  0  0  0  0  0  0  0  0  0
   51.1520   30.1070   48.3630 O   0  0  0  0  0  0  0  0  0  0  0  0
   50.8000   31.8970   49.7450 N   0  0  0  0  0  0  0  0  0  0  0  0
   51.3370   32.1870   50.9410 C   0  0  0  0  0  0  0  0  0  0  0  0
   51.0470   33.3400   51.6590 O   0  0  0  0  0  0  0  0  0  0  0  0
   54.1030   29.1090   52.9640 C   0  0  0  0  0  0  0  0  0  0  0  0
   55.3940   28.6780   53.1880 C   0  0  0  0  0  0  0  0  0  0  0  0
   55.7610   27.2750   53.5680 C   0  0  0  0  0  0  0  0  0  0  0  0
   56.2670   29.7030   53.0520 N   0  0  0  0  0  0  0  0  0  0  0  0
   57.7320   29.6090   53.1490 C   0  0  0  0  0  0  0  0  0  0  0  0
   58.3900   30.3290   52.0090 C   0  0  0  0  0  0  0  0  0  0  0  0
   58.7420   31.5300   52.1610 O   0  0  0  0  0  0  0  0  0  0  0  0
   58.6740   29.6410   50.7810 N   0  0  0  0  0  0  0  0  0  0  0  0
   58.9160   30.3060   49.5310 C   0  0  0  0  0  0  0  0  0  0  0  0
   59.6360   31.5090   49.5200 C   0  0  0  0  0  0  0  0  0  0  0  0
   59.9040   32.1620   48.3160 C   0  0  0  0  0  0  0  0  0  0  0  0
   59.4720   31.6110   47.1070 C   0  0  0  0  0  0  0  0  0  0  0  0
   58.7700   30.3930   47.0910 C   0  0  0  0  0  0  0  0  0  0  0  0
   58.3260   29.7960   45.8120 C   0  0  0  0  0  0  0  0  0  0  0  0
   59.0710   28.9970   45.1840 O   0  0  0  0  0  0  0  0  0  0  0  0
   57.0780   30.1090   45.2840 O   0  0  0  0  0  0  0  0  0  0  0  0
   58.5020   29.7430   48.3090 C   0  0  0  0  0  0  0  0  0  0  0  0
   57.1724   32.1053   52.3968 H   0  0  0  0  0  0  0  0  0  0  0  0
   55.4434   32.7782   51.9634 H   0  0  0  0  0  0  0  0  0  0  0  0
   52.8053   31.9304   53.3174 H   0  0  0  0  0  0  0  0  0  0  0  0
   53.1931   28.4914   52.9868 H   0  0  0  0  0  0  0  0  0  0  0  0
   55.7842   27.1862   54.6642 H   0  0  0  0  0  0  0  0  0  0  0  0
   55.0151   26.5774   53.1593 H   0  0  0  0  0  0  0  0  0  0  0  0
   56.7529   27.0320   53.1593 H   0  0  0  0  0  0  0  0  0  0  0  0
   58.0600   30.0597   54.0973 H   0  0  0  0  0  0  0  0  0  0  0  0
   58.0201   28.5482   53.1086 H   0  0  0  0  0  0  0  0  0  0  0  0
   58.7460   28.5990   50.8070 H   0  0  0  0  0  0  0  0  0  0  0  0
   59.9921   31.9411   50.4668 H   0  0  0  0  0  0  0  0  0  0  0  0
   60.4568   33.1130   48.3190 H   0  0  0  0  0  0  0  0  0  0  0  0
   59.6824   32.1333   46.1620 H   0  0  0  0  0  0  0  0  0  0  0  0
   57.9630   28.7841   48.3068 H   0  0  0  0  0  0  0  0  0  0  0  0
  1  2  2  0
  2  3  1  0
  3  4  2  3
  4  5  1  0
  5  6  1  0
  6  7  1  0
  7  8  2  0
  7  9  1  0
  9 10  1  0
 10 11  1  0
  3 12  1  0
 12 13  2  0
 13 14  1  0
 13 15  1  0
 15 16  1  0
 16 17  1  0
 17 18  2  0
 17 19  1  0
 19 20  1  0
 20 21  2  0
 21 22  1  0
 22 23  2  0
 23 24  1  0
 24 25  1  0
 25 26  2  0
 25 27  1  0
 24 28  2  0
 15  2  1  0
 28 20  1  0
 10  5  2  0
  1 29  1  0
  1 30  1  0
  4 31  1  0
 12 32  1  0
 14 33  1  0
 14 34  1  0
 14 35  1  0
 16 36  1  0
 16 37  1  0
 19 38  1  0
 21 39  1  0
 22 40  1  0
 23 41  1  0
 28 42  1  0
M  CHG  4   6  -1   9  -1  11  -1  27  -1
M  END
>  <UniqueID>  (11) 
10

>  <SMILES>  (11) 
C=c1c(=Cc2[n-]c(=O)[n-]c2[O-])cc(C)n1CC(=O)Nc1cccc(C(=O)[O-])c1

>  <Energy>  (11) 
114.93446712701012

>  <Genealogy>  (11) 
C=c1c(=Cc2[n-]c(=O)[n-]c2[O-])cc(C)n1CC(=O)Nc1cccc(C(=O)[O-])c1 (protonated)
C=c1c(=Cc2[n-]c(=O)[n-]c2[O-])cc(C)n1CC(=O)Nc1cccc(C(=O)[O-])c1 (3D coordinates assigned)
C=c1c(=Cc2[n-]c(=O)[n-]c2[O-])cc(C)n1CC(=O)Nc1cccc(C(=O)[O-])c1 (optimized conformer: 114.93446712701012 kcal/mol)

>  <smiles>  (11) 
C=c1c(=Cc2[nH]c(=O)[nH]c2O)cc(C)n1CC(=O)Nc1cccc(C(=O)O)c1

>  <score_type>  (11) 
oracle

>  <origin>  (11) 
adg

>  <m_score__min__energy>  (11) 
-17.050000000000001

>  <m_primary>  (11) 
energy

$$$$
11:0
     RDKit          3D

 55 57  0  0  0  0  0  0  0  0999 V2000
   62.3660   30.5280   51.0060 C   0  0  0  0  0  0  0  0  0  0  0  0
   60.8870   30.1890   51.1560 C   0  0  0  0  0  0  0  0  0  0  0  0
   60.1700   30.5370   49.9110 N   0  0  0  0  0  0  0  0  0  0  0  0
   58.7040   30.5420   50.0710 C   0  0  0  0  0  0  0  0  0  0  0  0
   58.1740   31.9720   50.1150 C   0  0  0  0  0  0  0  0  0  0  0  0
   60.6410   29.5000   48.5770 S   0  0  0  0  0  0  0  0  0  0  0  0
   61.1270   28.1700   49.0820 O   0  0  0  0  0  0  0  0  0  0  0  0
   61.7790   30.1700   47.8590 O   0  0  0  0  0  0  0  0  0  0  0  0
   59.3160   29.2240   47.4360 C   0  0  0  0  0  0  0  0  0  0  0  0
   58.6910   27.9710   47.3670 C   0  0  0  0  0  0  0  0  0  0  0  0
   57.6090   27.7680   46.5100 C   0  0  0  0  0  0  0  0  0  0  0  0
   57.1460   28.8100   45.7000 C   0  0  0  0  0  0  0  0  0  0  0  0
   56.0650   28.6090   44.9000 N   0  0  0  0  0  0  0  0  0  0  0  0
   55.5690   29.5890   44.1050 C   0  0  0  0  0  0  0  0  0  0  0  0
   54.5620   29.3600   43.3830 O   0  0  0  0  0  0  0  0  0  0  0  0
   56.1750   30.8460   44.0810 C   0  0  0  0  0  0  0  0  0  0  0  0
   57.3030   31.0960   44.8760 C   0  0  0  0  0  0  0  0  0  0  0  0
   57.9700   32.4080   44.7610 C   0  0  0  0  0  0  0  0  0  0  0  0
   58.4960   32.7420   43.6640 O   0  0  0  0  0  0  0  0  0  0  0  0
   57.9980   33.3110   45.8770 N   0  0  0  0  0  0  0  0  0  0  0  0
   58.8360   34.5050   45.8890 C   0  0  0  0  0  0  0  0  0  0  0  0
   60.0150   34.2900   46.7960 C   0  0  0  0  0  0  0  0  0  0  0  0
   59.8820   34.4740   48.1800 C   0  0  0  0  0  0  0  0  0  0  0  0
   60.9640   34.2340   49.0300 C   0  0  0  0  0  0  0  0  0  0  0  0
   62.1890   33.7970   48.5150 C   0  0  0  0  0  0  0  0  0  0  0  0
   63.2420   33.5640   49.4090 O   0  0  0  0  0  0  0  0  0  0  0  0
   64.3620   32.7290   49.1330 C   0  0  0  0  0  0  0  0  0  0  0  0
   62.3210   33.6050   47.1270 C   0  0  0  0  0  0  0  0  0  0  0  0
   61.2410   33.8470   46.2750 C   0  0  0  0  0  0  0  0  0  0  0  0
   57.7880   30.0710   45.7260 C   0  0  0  0  0  0  0  0  0  0  0  0
   58.8610   30.2690   46.6210 C   0  0  0  0  0  0  0  0  0  0  0  0
   62.8211   30.6323   52.0020 H   0  0  0  0  0  0  0  0  0  0  0  0
   62.8726   29.7227   50.4539 H   0  0  0  0  0  0  0  0  0  0  0  0
   62.4713   31.4736   50.4539 H   0  0  0  0  0  0  0  0  0  0  0  0
   60.7763   29.1126   51.3536 H   0  0  0  0  0  0  0  0  0  0  0  0
   60.4638   30.7625   51.9939 H   0  0  0  0  0  0  0  0  0  0  0  0
   58.2459   30.0125   49.2226 H   0  0  0  0  0  0  0  0  0  0  0  0
   58.4484   30.0396   51.0156 H   0  0  0  0  0  0  0  0  0  0  0  0
   58.0570   32.2876   51.1622 H   0  0  0  0  0  0  0  0  0  0  0  0
   58.8836   32.6418   49.6072 H   0  0  0  0  0  0  0  0  0  0  0  0
   57.1993   32.0176   49.6072 H   0  0  0  0  0  0  0  0  0  0  0  0
   59.0559   27.1429   47.9924 H   0  0  0  0  0  0  0  0  0  0  0  0
   57.1180   26.7844   46.4712 H   0  0  0  0  0  0  0  0  0  0  0  0
   55.7679   31.6407   43.4385 H   0  0  0  0  0  0  0  0  0  0  0  0
   57.5090   33.0420   46.7610 H   0  0  0  0  0  0  0  0  0  0  0  0
   59.1926   34.7112   44.8691 H   0  0  0  0  0  0  0  0  0  0  0  0
   58.2468   35.3587   46.2551 H   0  0  0  0  0  0  0  0  0  0  0  0
   58.9212   34.8088   48.5980 H   0  0  0  0  0  0  0  0  0  0  0  0
   60.8520   34.3899   50.1131 H   0  0  0  0  0  0  0  0  0  0  0  0
   64.8115   32.3939   50.0794 H   0  0  0  0  0  0  0  0  0  0  0  0
   64.0330   31.8540   48.5532 H   0  0  0  0  0  0  0  0  0  0  0  0
   65.1066   33.2941   48.5532 H   0  0  0  0  0  0  0  0  0  0  0  0
   63.2799   33.2625   46.7109 H   0  0  0  0  0  0  0  0  0  0  0  0
   61.3515   33.6899   45.1919 H   0  0  0  0  0  0  0  0  0  0  0  0
   59.3456   31.2548   46.6794 H   0  0  0  0  0  0  0  0  0  0  0  0
  1  2  1  0
  2  3  1  0
  3  4  1  0
  4  5  1  0
  3  6  1  0
  6  7  2  0
  6  8  2  0
  6  9  1  0
  9 10  2  0
 10 11  1  0
 11 12  2  0
 12 13  1  0
 13 14  1  0
 14 15  2  0
 14 16  1  0
 16 17  2  0
 17 18  1  0
 18 19  2  0
 18 20  1  0
 20 21  1  0
 21 22  1  0
 22 23  2  0
 23 24  1  0
 24 25  2  0
 25 26  1  0
 26 27  1  0
 25 28  1  0
 28 29  2  0
 17 30  1  0
 30 31  2  0
 31  9  1  0
 30 12  1  0
 29 22  1  0
  1 32  1  0
  1 33  1  0
  1 34  1  0
  2 35  1  0
  2 36  1  0
  4 37  1  0
  4 38  1  0
  5 39  1  0
  5 40  1  0
  5 41  1  0
 10 42  1  0
 11 43  1  0
 16 44  1  0
 20 45  1  0
 21 46  1  0
 21 47  1  0
 23 48  1  0
 24 49  1  0
 27 50  1  0
 27 51  1  0
 27 52  1  0
 28 53  1  0
 29 54  1  0
 31 55  1  0
M  CHG  1  13  -1
M  END
>  <UniqueID>  (12) 
11

>  <SMILES>  (12) 
CCN(CC)S(=O)(=O)c1ccc2[n-]c(=O)cc(C(=O)NCc3ccc(OC)cc3)c2c1

>  <Energy>  (12) 
59.50681448498786

>  <Genealogy>  (12) 
CCN(CC)S(=O)(=O)c1ccc2[n-]c(=O)cc(C(=O)NCc3ccc(OC)cc3)c2c1 (protonated)
CCN(CC)S(=O)(=O)c1ccc2[n-]c(=O)cc(C(=O)NCc3ccc(OC)cc3)c2c1 (3D coordinates assigned)
CCN(CC)S(=O)(=O)c1ccc2[n-]c(=O)cc(C(=O)NCc3ccc(OC)cc3)c2c1 (optimized conformer: 59.50681448498786 kcal/mol)

>  <smiles>  (12) 
CCN(CC)S(=O)(=O)c1ccc2[nH]c(=O)cc(C(=O)NCc3ccc(OC)cc3)c2c1

>  <score_type>  (12) 
oracle

>  <origin>  (12) 
adg

>  <m_score__min__energy>  (12) 
-9.9800000000000004

>  <m_primary>  (12) 
energy

$$$$
12:0
     RDKit          3D

 41 43  0  0  0  0  0  0  0  0999 V2000
   56.4353   31.7505   52.1040 H   0  0  0  0  0  0  0  0  0  0  0  0
   55.3660   31.5510   52.2680 C   0  0  0  0  0  0  0  0  0  0  0  0
   54.6253   32.3455   52.0944 H   0  0  0  0  0  0  0  0  0  0  0  0
   54.9650   30.3380   52.6800 C   0  0  0  0  0  0  0  0  0  0  0  0
   53.6450   29.9440   52.9280 C   0  0  0  0  0  0  0  0  0  0  0  0
   52.5250   30.6600   52.7080 C   0  0  0  0  0  0  0  0  0  0  0  0
   52.0320   31.1261   53.5738 H   0  0  0  0  0  0  0  0  0  0  0  0
   51.9200   30.8570   51.3790 C   0  0  0  0  0  0  0  0  0  0  0  0
   52.0420   29.9720   50.3740 N   0  0  0  0  0  0  0  0  0  0  0  0
   51.4220   30.5810   49.3410 C   0  0  0  0  0  0  0  0  0  0  0  0
   51.3140   30.0490   48.2050 O   0  0  0  0  0  0  0  0  0  0  0  0
   50.9350   31.8110   49.6170 N   0  0  0  0  0  0  0  0  0  0  0  0
   51.2690   31.9760   50.9060 C   0  0  0  0  0  0  0  0  0  0  0  0
   51.0260   33.1450   51.6180 O   0  0  0  0  0  0  0  0  0  0  0  0
   53.7100   28.6410   53.4070 C   0  0  0  0  0  0  0  0  0  0  0  0
   52.8621   28.0076   53.7068 H   0  0  0  0  0  0  0  0  0  0  0  0
   55.0470   28.2970   53.4330 C   0  0  0  0  0  0  0  0  0  0  0  0
   55.5770   26.9640   53.8680 C   0  0  0  0  0  0  0  0  0  0  0  0
   55.5954   26.9176   54.9669 H   0  0  0  0  0  0  0  0  0  0  0  0
   54.9276   26.1663   53.4782 H   0  0  0  0  0  0  0  0  0  0  0  0
   56.5968   26.8299   53.4782 H   0  0  0  0  0  0  0  0  0  0  0  0
   55.8090   29.3200   52.9870 N   0  0  0  0  0  0  0  0  0  0  0  0
   57.2400   29.2960   52.8550 C   0  0  0  0  0  0  0  0  0  0  0  0
   57.9520   29.1030   53.8760 O   0  0  0  0  0  0  0  0  0  0  0  0
   57.8460   29.4850   51.5660 N   0  0  0  0  0  0  0  0  0  0  0  0
   57.2240   29.7180   50.7600 H   0  0  0  0  0  0  0  0  0  0  0  0
   59.2650   29.4570   51.3380 C   0  0  0  0  0  0  0  0  0  0  0  0
   60.1600   29.2250   52.3980 C   0  0  0  0  0  0  0  0  0  0  0  0
   59.7741   29.0845   53.4184 H   0  0  0  0  0  0  0  0  0  0  0  0
   61.5350   29.1720   52.1630 C   0  0  0  0  0  0  0  0  0  0  0  0
   62.2287   28.9999   52.9991 H   0  0  0  0  0  0  0  0  0  0  0  0
   62.0310   29.3370   50.8690 C   0  0  0  0  0  0  0  0  0  0  0  0
   63.1153   29.3007   50.6875 H   0  0  0  0  0  0  0  0  0  0  0  0
   61.1530   29.5480   49.8050 C   0  0  0  0  0  0  0  0  0  0  0  0
   61.5487   29.6706   48.7860 H   0  0  0  0  0  0  0  0  0  0  0  0
   59.7620   29.6050   50.0280 C   0  0  0  0  0  0  0  0  0  0  0  0
   58.8520   29.8180   48.9800 O   0  0  0  0  0  0  0  0  0  0  0  0
   59.1160   29.5370   47.6100 C   0  0  0  0  0  0  0  0  0  0  0  0
   59.8676   28.7370   47.5380 H   0  0  0  0  0  0  0  0  0  0  0  0
   58.1877   29.2134   47.1166 H   0  0  0  0  0  0  0  0  0  0  0  0
   59.4968   30.4434   47.1166 H   0  0  0  0  0  0  0  0  0  0  0  0
  1  2  1  0
  2  3  1  0
  2  4  2  0
  4  5  1  0
  5  6  2  0
  6  7  1  0
  6  8  1  0
  8  9  1  0
  9 10  1  0
 10 11  2  0
 10 12  1  0
 12 13  1  0
 13 14  1  0
  5 15  1  0
 15 16  1  0
 15 17  2  0
 17 18  1  0
 18 19  1  0
 18 20  1  0
 18 21  1  0
 17 22  1  0
 22 23  1  0
 23 24  2  0
 23 25  1  0
 25 26  1  0
 25 27  1  0
 27 28  2  0
 28 29  1  0
 28 30  1  0
 30 31  1  0
 30 32  2  0
 32 33  1  0
 32 34  1  0
 34 35  1  0
 34 36  2  0
 36 37  1  0
 37 38  1  0
 38 39  1  0
 38 40  1  0
 38 41  1  0
 22  4  1  0
 36 27  1  0
 13  8  2  0
M  CHG  3   9  -1  12  -1  14  -1
M  END
>  <UniqueID>  (13) 
12

>  <SMILES>  (13) 
C=c1/c(=C/c2[n-]c(=O)[n-]c2[O-])cc(C)n1C(=O)Nc1ccccc1OC

>  <Energy>  (13) 
116.68851350096139

>  <Genealogy>  (13) 
C=c1c(=Cc2[n-]c(=O)[n-]c2[O-])cc(C)n1C(=O)Nc1ccccc1OC (protonated)
C=c1/c(=C/c2[n-]c(=O)[n-]c2[O-])cc(C)n1C(=O)Nc1ccccc1OC (cis-trans isomerization)
C=c1/c(=C/c2[n-]c(=O)[n-]c2[O-])cc(C)n1C(=O)Nc1ccccc1OC (3D coordinates assigned)
C=c1/c(=C/c2[n-]c(=O)[n-]c2[O-])cc(C)n1C(=O)Nc1ccccc1OC (optimized conformer: 116.68851350096139 kcal/mol)

>  <smiles>  (13) 
C=c1c(=Cc2[nH]c(=O)[nH]c2O)cc(C)n1C(=O)Nc1ccccc1OC

>  <score_type>  (13) 
oracle

>  <origin>  (13) 
adg

>  <m_score__min__energy>  (13) 
-15.06

>  <m_primary>  (13) 
energy

$$$$
13:0
     RDKit          3D

 45 47  0  0  0  0  0  0  0  0999 V2000
   59.6410   26.8490   45.2400 O   0  0  0  0  0  0  0  0  0  0  0  0
   58.4290   26.5160   45.1300 C   0  0  0  0  0  0  0  0  0  0  0  0
   58.0550   25.0680   45.1940 C   0  0  0  0  0  0  0  0  0  0  0  0
   56.7160   24.8730   44.6280 N   0  0  0  0  0  0  0  0  0  0  0  0
   55.4880   25.0700   45.8500 S   0  0  0  0  0  0  0  0  0  0  0  0
   55.5170   26.4800   46.3690 O   0  0  0  0  0  0  0  0  0  0  0  0
   54.1280   24.7940   45.2690 O   0  0  0  0  0  0  0  0  0  0  0  0
   55.7980   23.9620   47.1750 C   0  0  0  0  0  0  0  0  0  0  0  0
   56.9610   23.9140   47.9270 C   0  0  0  0  0  0  0  0  0  0  0  0
   56.9360   22.9100   48.9040 C   0  0  0  0  0  0  0  0  0  0  0  0
   55.7580   22.1700   48.9150 C   0  0  0  0  0  0  0  0  0  0  0  0
   54.7470   22.7630   47.7080 S   0  0  0  0  0  0  0  0  0  0  0  0
   57.4180   27.5000   44.8610 N   0  0  0  0  0  0  0  0  0  0  0  0
   57.6200   28.9230   44.9280 C   0  0  0  0  0  0  0  0  0  0  0  0
   56.6450   29.7820   44.3920 C   0  0  0  0  0  0  0  0  0  0  0  0
   56.7940   31.1680   44.4780 C   0  0  0  0  0  0  0  0  0  0  0  0
   57.9200   31.7190   45.1070 C   0  0  0  0  0  0  0  0  0  0  0  0
   58.1050   33.4720   45.2230 S   0  0  0  0  0  0  0  0  0  0  0  0
   56.9760   34.1370   44.4830 O   0  0  0  0  0  0  0  0  0  0  0  0
   59.3940   33.8770   44.5590 O   0  0  0  0  0  0  0  0  0  0  0  0
   58.1150   34.0230   46.8860 N   0  0  0  0  0  0  0  0  0  0  0  0
   58.2930   32.9010   47.8170 C   0  0  0  0  0  0  0  0  0  0  0  0
   59.7600   32.8400   48.2220 C   0  0  0  0  0  0  0  0  0  0  0  0
   60.3670   34.1600   47.7820 C   0  0  0  0  0  0  0  0  0  0  0  0
   59.2310   34.9440   47.1340 C   0  0  0  0  0  0  0  0  0  0  0  0
   58.8880   30.8680   45.6640 C   0  0  0  0  0  0  0  0  0  0  0  0
   58.7380   29.4800   45.5820 C   0  0  0  0  0  0  0  0  0  0  0  0
   58.7835   24.4773   44.6192 H   0  0  0  0  0  0  0  0  0  0  0  0
   58.0558   24.7397   46.2439 H   0  0  0  0  0  0  0  0  0  0  0  0
   57.8133   24.5921   47.7732 H   0  0  0  0  0  0  0  0  0  0  0  0
   57.7696   22.7243   49.5973 H   0  0  0  0  0  0  0  0  0  0  0  0
   55.5268   21.3385   49.5970 H   0  0  0  0  0  0  0  0  0  0  0  0
   56.4900   27.1560   44.5210 H   0  0  0  0  0  0  0  0  0  0  0  0
   55.7566   29.3588   43.9004 H   0  0  0  0  0  0  0  0  0  0  0  0
   56.0258   31.8296   44.0511 H   0  0  0  0  0  0  0  0  0  0  0  0
   57.6676   33.0554   48.7087 H   0  0  0  0  0  0  0  0  0  0  0  0
   57.9948   31.9586   47.3343 H   0  0  0  0  0  0  0  0  0  0  0  0
   59.8517   32.7208   49.3117 H   0  0  0  0  0  0  0  0  0  0  0  0
   60.2724   31.9845   47.7577 H   0  0  0  0  0  0  0  0  0  0  0  0
   60.7639   34.7073   48.6497 H   0  0  0  0  0  0  0  0  0  0  0  0
   61.2038   34.0083   47.0843 H   0  0  0  0  0  0  0  0  0  0  0  0
   58.9047   35.7503   47.8074 H   0  0  0  0  0  0  0  0  0  0  0  0
   59.5710   35.3894   46.1874 H   0  0  0  0  0  0  0  0  0  0  0  0
   59.7682   31.2949   46.1671 H   0  0  0  0  0  0  0  0  0  0  0  0
   59.4956   28.8199   46.0297 H   0  0  0  0  0  0  0  0  0  0  0  0
  1  2  2  0
  2  3  1  0
  3  4  1  0
  4  5  1  0
  5  6  2  0
  5  7  2  0
  5  8  1  0
  8  9  2  0
  9 10  1  0
 10 11  2  0
 11 12  1  0
  2 13  1  0
 13 14  1  0
 14 15  2  0
 15 16  1  0
 16 17  2  0
 17 18  1  0
 18 19  2  0
 18 20  2  0
 18 21  1  0
 21 22  1  0
 22 23  1  0
 23 24  1  0
 24 25  1  0
 17 26  1  0
 26 27  2  0
 12  8  1  0
 27 14  1  0
 25 21  1  0
  3 28  1  0
  3 29  1  0
  9 30  1  0
 10 31  1  0
 11 32  1  0
 13 33  1  0
 15 34  1  0
 16 35  1  0
 22 36  1  0
 22 37  1  0
 23 38  1  0
 23 39  1  0
 24 40  1  0
 24 41  1  0
 25 42  1  0
 25 43  1  0
 26 44  1  0
 27 45  1  0
M  CHG  1   4  -1
M  END
>  <UniqueID>  (14) 
13

>  <SMILES>  (14) 
O=C(C[N-]S(=O)(=O)c1cccs1)Nc1ccc(S(=O)(=O)N2CCCC2)cc1

>  <Energy>  (14) 
73.97779683729858

>  <Genealogy>  (14) 
O=C(C[N-]S(=O)(=O)c1cccs1)Nc1ccc(S(=O)(=O)N2CCCC2)cc1 (protonated)
O=C(C[N-]S(=O)(=O)c1cccs1)Nc1ccc(S(=O)(=O)N2CCCC2)cc1 (3D coordinates assigned)
O=C(C[N-]S(=O)(=O)c1cccs1)Nc1ccc(S(=O)(=O)N2CCCC2)cc1 (nonaromatic ring conformer: 73.97779683729858 kcal/mol)

>  <smiles>  (14) 
O=C(CNS(=O)(=O)c1cccs1)Nc1ccc(S(=O)(=O)N2CCCC2)cc1

>  <score_type>  (14) 
oracle

>  <origin>  (14) 
adg

>  <m_score__min__energy>  (14) 
-10.869999999999999

>  <m_primary>  (14) 
energy

$$$$
14:0
     RDKit          3D

 56 59  0  0  0  0  0  0  0  0999 V2000
   60.2710   33.5270   48.9310 O   0  0  0  0  0  0  0  0  0  0  0  0
   59.0980   33.1760   48.6220 C   0  0  0  0  0  0  0  0  0  0  0  0
   58.2000   32.7180   49.6470 N   0  0  0  0  0  0  0  0  0  0  0  0
   58.5980   32.6100   51.0500 C   0  0  0  0  0  0  0  0  0  0  0  0
   57.9180   31.4270   51.6810 C   0  0  0  0  0  0  0  0  0  0  0  0
   58.5680   30.1840   51.7320 C   0  0  0  0  0  0  0  0  0  0  0  0
   57.9190   29.0730   52.2740 C   0  0  0  0  0  0  0  0  0  0  0  0
   56.6160   29.1900   52.7620 C   0  0  0  0  0  0  0  0  0  0  0  0
   55.9540   30.4280   52.7250 C   0  0  0  0  0  0  0  0  0  0  0  0
   54.5640   30.5520   53.2130 C   0  0  0  0  0  0  0  0  0  0  0  0
   54.3360   30.4390   54.4480 O   0  0  0  0  0  0  0  0  0  0  0  0
   53.4690   30.7930   52.3110 N   0  0  0  0  0  0  0  0  0  0  0  0
   52.2120   31.3780   52.7450 C   0  0  0  0  0  0  0  0  0  0  0  0
   51.2170   31.1080   51.6230 C   0  0  0  0  0  0  0  0  0  0  0  0
   52.0490   30.6880   50.4140 C   0  0  0  0  0  0  0  0  0  0  0  0
   53.3970   30.2460   50.9650 C   0  0  0  0  0  0  0  0  0  0  0  0
   56.6040   31.5400   52.1640 C   0  0  0  0  0  0  0  0  0  0  0  0
   58.6690   33.2610   47.2040 C   0  0  0  0  0  0  0  0  0  0  0  0
   58.7750   34.4820   46.5110 C   0  0  0  0  0  0  0  0  0  0  0  0
   58.3870   34.5750   45.1730 C   0  0  0  0  0  0  0  0  0  0  0  0
   57.8900   33.4540   44.5060 C   0  0  0  0  0  0  0  0  0  0  0  0
   57.7700   32.2280   45.1790 C   0  0  0  0  0  0  0  0  0  0  0  0
   57.2710   31.0120   44.4530 C   0  0  0  0  0  0  0  0  0  0  0  0
   58.2720   29.9570   44.5370 N   0  0  0  0  0  0  0  0  0  0  0  0
   58.4280   29.0210   45.6130 C   0  0  0  0  0  0  0  0  0  0  0  0
   59.3980   29.1770   46.4000 O   0  0  0  0  0  0  0  0  0  0  0  0
   57.5010   27.8900   45.8430 C   0  0  0  0  0  0  0  0  0  0  0  0
   57.8800   26.6520   46.3370 C   0  0  0  0  0  0  0  0  0  0  0  0
   56.7340   25.8920   46.4090 C   0  0  0  0  0  0  0  0  0  0  0  0
   55.7220   26.7080   45.9570 C   0  0  0  0  0  0  0  0  0  0  0  0
   54.3890   26.3320   45.8620 O   0  0  0  0  0  0  0  0  0  0  0  0
   56.1730   27.9260   45.6090 N   0  0  0  0  0  0  0  0  0  0  0  0
   58.1790   32.1320   46.5190 C   0  0  0  0  0  0  0  0  0  0  0  0
   57.1830   32.6150   49.4350 H   0  0  0  0  0  0  0  0  0  0  0  0
   59.6886   32.4804   51.1116 H   0  0  0  0  0  0  0  0  0  0  0  0
   58.3037   33.5260   51.5832 H   0  0  0  0  0  0  0  0  0  0  0  0
   59.5923   30.0848   51.3436 H   0  0  0  0  0  0  0  0  0  0  0  0
   58.4356   28.1028   52.3167 H   0  0  0  0  0  0  0  0  0  0  0  0
   56.1057   28.3085   53.1773 H   0  0  0  0  0  0  0  0  0  0  0  0
   51.8727   30.9065   53.6791 H   0  0  0  0  0  0  0  0  0  0  0  0
   52.3147   32.4551   52.9435 H   0  0  0  0  0  0  0  0  0  0  0  0
   50.5265   30.3014   51.9105 H   0  0  0  0  0  0  0  0  0  0  0  0
   50.6072   31.9967   51.4031 H   0  0  0  0  0  0  0  0  0  0  0  0
   51.5612   29.8562   49.8848 H   0  0  0  0  0  0  0  0  0  0  0  0
   52.1589   31.5128   49.6946 H   0  0  0  0  0  0  0  0  0  0  0  0
   53.4588   29.1481   50.9931 H   0  0  0  0  0  0  0  0  0  0  0  0
   54.2284   30.5995   50.3375 H   0  0  0  0  0  0  0  0  0  0  0  0
   56.0804   32.5054   52.1026 H   0  0  0  0  0  0  0  0  0  0  0  0
   59.1669   35.3703   47.0281 H   0  0  0  0  0  0  0  0  0  0  0  0
   58.4733   35.5349   44.6427 H   0  0  0  0  0  0  0  0  0  0  0  0
   57.5916   33.5316   43.4501 H   0  0  0  0  0  0  0  0  0  0  0  0
   56.3340   30.6671   44.9146 H   0  0  0  0  0  0  0  0  0  0  0  0
   57.0869   31.2623   43.3978 H   0  0  0  0  0  0  0  0  0  0  0  0
   58.8965   26.3381   46.6166 H   0  0  0  0  0  0  0  0  0  0  0  0
   56.6459   24.8516   46.7550 H   0  0  0  0  0  0  0  0  0  0  0  0
   58.1160   31.1648   47.0392 H   0  0  0  0  0  0  0  0  0  0  0  0
  1  2  2  0
  2  3  1  0
  3  4  1  0
  4  5  1  0
  5  6  2  0
  6  7  1  0
  7  8  2  0
  8  9  1  0
  9 10  1  0
 10 11  2  0
 10 12  1  0
 12 13  1  0
 13 14  1  0
 14 15  1  0
 15 16  1  0
  9 17  2  0
  2 18  1  0
 18 19  2  0
 19 20  1  0
 20 21  2  0
 21 22  1  0
 22 23  1  0
 23 24  1  0
 24 25  1  0
 25 26  2  0
 25 27  1  0
 27 28  2  0
 28 29  1  0
 29 30  2  0
 30 31  1  0
 30 32  1  0
 22 33  2  0
 17  5  1  0
 33 18  1  0
 16 12  1  0
 32 27  1  0
  3 34  1  0
  4 35  1  0
  4 36  1  0
  6 37  1  0
  7 38  1  0
  8 39  1  0
 13 40  1  0
 13 41  1  0
 14 42  1  0
 14 43  1  0
 15 44  1  0
 15 45  1  0
 16 46  1  0
 16 47  1  0
 17 48  1  0
 19 49  1  0
 20 50  1  0
 21 51  1  0
 23 52  1  0
 23 53  1  0
 28 54  1  0
 29 55  1  0
 33 56  1  0
M  CHG  3  24  -1  31  -1  32  -1
M  END
>  <UniqueID>  (15) 
14

>  <SMILES>  (15) 
O=C(NCc1cccc(C(=O)N2CCCC2)c1)c1cccc(C[N-]C(=O)c2ccc([O-])[n-]2)c1

>  <Energy>  (15) 
88.13669884646491

>  <Genealogy>  (15) 
O=C(NCc1cccc(C(=O)N2CCCC2)c1)c1cccc(C[N-]C(=O)c2ccc([O-])[n-]2)c1 (protonated)
O=C(NCc1cccc(C(=O)N2CCCC2)c1)c1cccc(C[N-]C(=O)c2ccc([O-])[n-]2)c1 (3D coordinates assigned)
O=C(NCc1cccc(C(=O)N2CCCC2)c1)c1cccc(C[N-]C(=O)c2ccc([O-])[n-]2)c1 (nonaromatic ring conformer: 88.13669884646491 kcal/mol)

>  <smiles>  (15) 
O=C(NCc1cccc(C(=O)N2CCCC2)c1)c1cccc(CNC(=O)c2ccc(O)[nH]2)c1

>  <score_type>  (15) 
oracle

>  <origin>  (15) 
adg

>  <m_score__min__energy>  (15) 
-16.859999999999999

>  <m_primary>  (15) 
energy

$$$$
15:0
     RDKit          3D

 32 33  0  0  0  0  0  0  0  0999 V2000
   54.6350   31.1980   52.0240 C   0  0  0  0  0  0  0  0  0  0  0  0
   54.7410   29.9440   52.5140 C   0  0  0  0  0  0  0  0  0  0  0  0
   56.0170   29.4600   52.9290 C   0  0  0  0  0  0  0  0  0  0  0  0
   57.2960   30.0500   52.4620 C   0  0  0  0  0  0  0  0  0  0  0  0
   57.7720   29.7900   51.1420 N   0  0  0  0  0  0  0  0  0  0  0  0
   57.9980   30.7410   53.2470 O   0  0  0  0  0  0  0  0  0  0  0  0
   56.0870   28.3830   53.8250 C   0  0  0  0  0  0  0  0  0  0  0  0
   54.9310   27.7440   54.2750 C   0  0  0  0  0  0  0  0  0  0  0  0
   55.0240   26.6350   55.2910 C   0  0  0  0  0  0  0  0  0  0  0  0
   55.9880   25.5520   54.8160 C   0  0  0  0  0  0  0  0  0  0  0  0
   53.6870   28.1390   53.7760 C   0  0  0  0  0  0  0  0  0  0  0  0
   53.5750   29.1660   52.8180 C   0  0  0  0  0  0  0  0  0  0  0  0
   52.3570   29.3320   52.2390 C   0  0  0  0  0  0  0  0  0  0  0  0
   51.7340   30.6270   51.8940 C   0  0  0  0  0  0  0  0  0  0  0  0
   51.4220   31.5940   52.7770 N   0  0  0  0  0  0  0  0  0  0  0  0
   50.9850   32.6030   51.9930 C   0  0  0  0  0  0  0  0  0  0  0  0
   50.5830   33.6990   52.4620 O   0  0  0  0  0  0  0  0  0  0  0  0
   51.0190   32.3480   50.6680 N   0  0  0  0  0  0  0  0  0  0  0  0
   51.5070   31.0970   50.6230 C   0  0  0  0  0  0  0  0  0  0  0  0
   51.7430   30.3960   49.4450 O   0  0  0  0  0  0  0  0  0  0  0  0
   53.6558   31.5814   51.7011 H   0  0  0  0  0  0  0  0  0  0  0  0
   55.5278   31.8360   51.9478 H   0  0  0  0  0  0  0  0  0  0  0  0
   57.4120   30.3320   50.3250 H   0  0  0  0  0  0  0  0  0  0  0  0
   57.0693   28.0365   54.1787 H   0  0  0  0  0  0  0  0  0  0  0  0
   55.3850   27.0476   56.2447 H   0  0  0  0  0  0  0  0  0  0  0  0
   54.0268   26.1897   55.4226 H   0  0  0  0  0  0  0  0  0  0  0  0
   56.4343   25.0506   55.6874 H   0  0  0  0  0  0  0  0  0  0  0  0
   55.4415   24.8152   54.2091 H   0  0  0  0  0  0  0  0  0  0  0  0
   56.7832   26.0095   54.2091 H   0  0  0  0  0  0  0  0  0  0  0  0
   52.7771   27.6382   54.1383 H   0  0  0  0  0  0  0  0  0  0  0  0
   51.7841   28.4222   52.0065 H   0  0  0  0  0  0  0  0  0  0  0  0
   52.6710   30.3670   49.0390 H   0  0  0  0  0  0  0  0  0  0  0  0
  1  2  2  0
  2  3  1  0
  3  4  1  0
  4  5  1  0
  4  6  2  0
  3  7  2  0
  7  8  1  0
  8  9  1  0
  9 10  1  0
  8 11  2  0
 11 12  1  0
 12 13  2  3
 13 14  1  0
 14 15  1  0
 15 16  1  0
 16 17  2  0
 16 18  1  0
 18 19  1  0
 19 20  1  0
 12  2  1  0
 19 14  2  0
  1 21  1  0
  1 22  1  0
  5 23  1  0
  7 24  1  0
  9 25  1  0
  9 26  1  0
 10 27  1  0
 10 28  1  0
 10 29  1  0
 11 30  1  0
 13 31  1  0
 20 32  1  0
M  CHG  3   5  -1  15  -1  18  -1
M  END
>  <UniqueID>  (16) 
15

>  <SMILES>  (16) 
C=c1c(C([NH-])=O)cc(CC)cc1=Cc1[n-]c(=O)[n-]c1O

>  <Energy>  (16) 
85.1588285846962

>  <Genealogy>  (16) 
C=c1c(C([NH-])=O)cc(CC)cc1=Cc1[n-]c(=O)[n-]c1O (protonated)
C=c1c(C([NH-])=O)cc(CC)cc1=Cc1[n-]c(=O)[n-]c1O (3D coordinates assigned)
C=c1c(C([NH-])=O)cc(CC)cc1=Cc1[n-]c(=O)[n-]c1O (optimized conformer: 85.1588285846962 kcal/mol)

>  <smiles>  (16) 
C=c1c(C(N)=O)cc(CC)cc1=Cc1[nH]c(=O)[nH]c1O

>  <score_type>  (16) 
oracle

>  <origin>  (16) 
adg

>  <m_score__min__energy>  (16) 
-12.18

>  <m_primary>  (16) 
energy

$$$$
16:0
     RDKit          3D

 48 50  0  0  0  0  0  0  0  0999 V2000
   61.4010   29.4380   50.7750 C   0  0  0  0  0  0  0  0  0  0  0  0
   60.5650   28.5530   50.2290 C   0  0  0  0  0  0  0  0  0  0  0  0
   59.9860   28.6880   48.8700 C   0  0  0  0  0  0  0  0  0  0  0  0
   60.3170   27.8180   47.8140 C   0  0  0  0  0  0  0  0  0  0  0  0
   59.7360   27.9790   46.5530 C   0  0  0  0  0  0  0  0  0  0  0  0
   58.8360   29.0270   46.3140 C   0  0  0  0  0  0  0  0  0  0  0  0
   58.2240   29.2150   44.9500 C   0  0  0  0  0  0  0  0  0  0  0  0
   57.7640   30.6290   44.7580 C   0  0  0  0  0  0  0  0  0  0  0  0
   56.5510   30.8560   44.5060 O   0  0  0  0  0  0  0  0  0  0  0  0
   58.7010   31.7120   44.8660 N   0  0  0  0  0  0  0  0  0  0  0  0
   58.2970   33.1210   44.8180 C   0  0  1  0  0  0  0  0  0  0  0  0
   57.0960   33.3480   45.7220 C   0  0  0  0  0  0  0  0  0  0  0  0
   57.7060   33.7250   47.0560 C   0  0  0  0  0  0  0  0  0  0  0  0
   58.9610   34.4190   46.7510 N   0  0  0  0  0  0  0  0  0  0  0  0
   59.9930   34.3640   47.8130 C   0  0  0  0  0  0  0  0  0  0  0  0
   61.1530   33.4250   47.5320 C   0  0  0  0  0  0  0  0  0  0  0  0
   62.3590   33.9210   47.0040 C   0  0  0  0  0  0  0  0  0  0  0  0
   63.4440   33.0660   46.7920 C   0  0  0  0  0  0  0  0  0  0  0  0
   63.3440   31.7120   47.1210 C   0  0  0  0  0  0  0  0  0  0  0  0
   62.1610   31.2130   47.6710 C   0  0  0  0  0  0  0  0  0  0  0  0
   61.0750   32.0660   47.8880 C   0  0  0  0  0  0  0  0  0  0  0  0
   59.3940   34.0090   45.4070 C   0  0  0  0  0  0  0  0  0  0  0  0
   58.5230   29.9120   47.3560 C   0  0  0  0  0  0  0  0  0  0  0  0
   59.0920   29.7430   48.6220 C   0  0  0  0  0  0  0  0  0  0  0  0
   61.7916   29.2721   51.7899 H   0  0  0  0  0  0  0  0  0  0  0  0
   61.6996   30.3335   50.2103 H   0  0  0  0  0  0  0  0  0  0  0  0
   60.2883   27.6694   50.8229 H   0  0  0  0  0  0  0  0  0  0  0  0
   61.0386   27.0050   47.9826 H   0  0  0  0  0  0  0  0  0  0  0  0
   59.9866   27.2787   45.7426 H   0  0  0  0  0  0  0  0  0  0  0  0
   58.9742   28.9734   44.1827 H   0  0  0  0  0  0  0  0  0  0  0  0
   57.3537   28.5481   44.8613 H   0  0  0  0  0  0  0  0  0  0  0  0
   59.7030   31.4850   45.0610 H   0  0  0  0  0  0  0  0  0  0  0  0
   58.0862   33.3609   43.7654 H   0  0  0  0  0  0  0  0  0  0  0  0
   56.4652   34.1626   45.3366 H   0  0  0  0  0  0  0  0  0  0  0  0
   56.4445   32.4642   45.7896 H   0  0  0  0  0  0  0  0  0  0  0  0
   57.0278   34.3899   47.6110 H   0  0  0  0  0  0  0  0  0  0  0  0
   57.8809   32.8374   47.6817 H   0  0  0  0  0  0  0  0  0  0  0  0
   60.3990   35.3775   47.9472 H   0  0  0  0  0  0  0  0  0  0  0  0
   59.4908   33.9727   48.7100 H   0  0  0  0  0  0  0  0  0  0  0  0
   62.4486   34.9890   46.7564 H   0  0  0  0  0  0  0  0  0  0  0  0
   64.3783   33.4599   46.3654 H   0  0  0  0  0  0  0  0  0  0  0  0
   64.1966   31.0391   46.9470 H   0  0  0  0  0  0  0  0  0  0  0  0
   62.0838   30.1476   47.9337 H   0  0  0  0  0  0  0  0  0  0  0  0
   60.1529   31.6720   48.3403 H   0  0  0  0  0  0  0  0  0  0  0  0
   59.5392   34.8961   44.7729 H   0  0  0  0  0  0  0  0  0  0  0  0
   60.3472   33.4623   45.4585 H   0  0  0  0  0  0  0  0  0  0  0  0
   57.8259   30.7438   47.1763 H   0  0  0  0  0  0  0  0  0  0  0  0
   58.8372   30.4428   49.4316 H   0  0  0  0  0  0  0  0  0  0  0  0
  1  2  2  0
  2  3  1  0
  3  4  2  0
  4  5  1  0
  5  6  2  0
  6  7  1  0
  7  8  1  0
  8  9  2  0
  8 10  1  0
 10 11  1  0
 11 12  1  0
 12 13  1  0
 13 14  1  0
 14 15  1  0
 15 16  1  0
 16 17  2  0
 17 18  1  0
 18 19  2  0
 19 20  1  0
 20 21  2  0
 14 22  1  0
  6 23  1  0
 23 24  2  0
 24  3  1  0
 22 11  1  0
 21 16  1  0
  1 25  1  0
  1 26  1  0
  2 27  1  0
  4 28  1  0
  5 29  1  0
  7 30  1  0
  7 31  1  0
 10 32  1  0
 11 33  1  6
 12 34  1  0
 12 35  1  0
 13 36  1  0
 13 37  1  0
 15 38  1  0
 15 39  1  0
 17 40  1  0
 18 41  1  0
 19 42  1  0
 20 43  1  0
 21 44  1  0
 22 45  1  0
 22 46  1  0
 23 47  1  0
 24 48  1  0
M  END
>  <UniqueID>  (17) 
16

>  <SMILES>  (17) 
C=Cc1ccc(CC(=O)N[C@H]2CCN(Cc3ccccc3)C2)cc1

>  <Energy>  (17) 
51.81235626392678

>  <Genealogy>  (17) 
C=Cc1ccc(CC(=O)N[C@H]2CCN(Cc3ccccc3)C2)cc1 (chirality)
C=Cc1ccc(CC(=O)N[C@H]2CCN(Cc3ccccc3)C2)cc1 (3D coordinates assigned)
C=Cc1ccc(CC(=O)N[C@H]2CCN(Cc3ccccc3)C2)cc1 (nonaromatic ring conformer: 51.81235626392678 kcal/mol)

>  <smiles>  (17) 
C=Cc1ccc(CC(=O)NC2CCN(Cc3ccccc3)C2)cc1

>  <score_type>  (17) 
oracle

>  <origin>  (17) 
adg

>  <m_score__min__energy>  (17) 
-8.1600000000000001

>  <m_primary>  (17) 
energy

$$$$
17:0
     RDKit          3D

 34 36  0  0  0  0  0  0  0  0999 V2000
   58.8870   25.5890   48.2560 O   0  0  0  0  0  0  0  0  0  0  0  0
   58.7520   25.5760   47.0020 C   0  0  0  0  0  0  0  0  0  0  0  0
   57.5220   24.9860   46.4210 C   0  0  0  0  0  0  0  0  0  0  0  0
   56.3530   25.7620   46.3590 C   0  0  0  0  0  0  0  0  0  0  0  0
   55.1840   25.2360   45.8080 C   0  0  0  0  0  0  0  0  0  0  0  0
   54.0350   26.0150   45.7370 O   0  0  0  0  0  0  0  0  0  0  0  0
   55.1850   23.9220   45.3320 C   0  0  0  0  0  0  0  0  0  0  0  0
   54.1430   23.4270   44.8280 O   0  0  0  0  0  0  0  0  0  0  0  0
   56.3150   23.1720   45.4180 N   0  0  0  0  0  0  0  0  0  0  0  0
   57.4690   23.6570   45.9490 C   0  0  0  0  0  0  0  0  0  0  0  0
   58.5770   22.8210   46.0440 O   0  0  0  0  0  0  0  0  0  0  0  0
   59.8350   26.1930   46.1360 C   0  0  2  0  0  0  0  0  0  0  0  0
   60.7670   27.0600   46.9770 C   0  0  0  0  0  0  0  0  0  0  0  0
   60.0960   28.7280   46.9490 S   0  0  0  0  0  0  0  0  0  0  0  0
   59.6020   28.4200   45.2280 C   0  0  2  0  0  0  0  0  0  0  0  0
   58.4670   29.3350   44.8180 C   0  0  0  0  0  0  0  0  0  0  0  0
   58.7390   30.6300   44.3440 C   0  0  0  0  0  0  0  0  0  0  0  0
   57.6950   31.4720   43.9480 C   0  0  0  0  0  0  0  0  0  0  0  0
   56.3720   31.0290   44.0150 C   0  0  0  0  0  0  0  0  0  0  0  0
   56.0900   29.7400   44.4760 C   0  0  0  0  0  0  0  0  0  0  0  0
   54.7740   29.2990   44.5390 O   0  0  0  0  0  0  0  0  0  0  0  0
   57.1300   28.8950   44.8740 C   0  0  0  0  0  0  0  0  0  0  0  0
   59.2620   27.0000   45.0450 N   0  0  0  0  0  0  0  0  0  0  0  0
   56.3591   26.7911   46.7474 H   0  0  0  0  0  0  0  0  0  0  0  0
   59.0640   22.5040   45.2130 H   0  0  0  0  0  0  0  0  0  0  0  0
   60.4081   25.3659   45.6917 H   0  0  0  0  0  0  0  0  0  0  0  0
   60.8034   26.6842   48.0102 H   0  0  0  0  0  0  0  0  0  0  0  0
   61.7911   27.0409   46.5759 H   0  0  0  0  0  0  0  0  0  0  0  0
   60.4506   28.6491   44.5667 H   0  0  0  0  0  0  0  0  0  0  0  0
   59.7790   30.9832   44.2842 H   0  0  0  0  0  0  0  0  0  0  0  0
   57.9163   32.4858   43.5828 H   0  0  0  0  0  0  0  0  0  0  0  0
   55.5525   31.6942   43.7051 H   0  0  0  0  0  0  0  0  0  0  0  0
   56.9030   27.8803   45.2331 H   0  0  0  0  0  0  0  0  0  0  0  0
   58.2280   26.8540   44.9600 H   0  0  0  0  0  0  0  0  0  0  0  0
  1  2  2  0
  2  3  1  0
  3  4  1  0
  4  5  2  0
  5  6  1  0
  5  7  1  0
  7  8  2  0
  7  9  1  0
  9 10  1  0
 10 11  1  0
  2 12  1  0
 12 13  1  0
 13 14  1  0
 14 15  1  0
 15 16  1  0
 16 17  2  0
 17 18  1  0
 18 19  2  0
 19 20  1  0
 20 21  1  0
 20 22  2  0
 15 23  1  0
 10  3  2  0
 23 12  1  0
 22 16  1  0
  4 24  1  0
 11 25  1  0
 12 26  1  6
 13 27  1  0
 13 28  1  0
 15 29  1  6
 17 30  1  0
 18 31  1  0
 19 32  1  0
 22 33  1  0
 23 34  1  0
M  CHG  3   6  -1   9  -1  21  -1
M  END
>  <UniqueID>  (18) 
17

>  <SMILES>  (18) 
O=C(c1cc([O-])c(=O)[n-]c1O)[C@@H]1CS[C@H](c2cccc([O-])c2)N1

>  <Energy>  (18) 
43.25947550982849

>  <Genealogy>  (18) 
O=C(c1cc([O-])c(=O)[n-]c1O)C1CSC(c2cccc([O-])c2)N1 (protonated)
O=C(c1cc([O-])c(=O)[n-]c1O)[C@@H]1CS[C@H](c2cccc([O-])c2)N1 (chirality)
O=C(c1cc([O-])c(=O)[n-]c1O)[C@@H]1CS[C@H](c2cccc([O-])c2)N1 (3D coordinates assigned)
O=C(c1cc([O-])c(=O)[n-]c1O)[C@@H]1CS[C@H](c2cccc([O-])c2)N1 (nonaromatic ring conformer: 43.25947550982849 kcal/mol)

>  <smiles>  (18) 
O=C(c1cc(O)c(=O)[nH]c1O)C1CSC(c2cccc(O)c2)N1

>  <score_type>  (18) 
oracle

>  <origin>  (18) 
adg

>  <m_score__min__energy>  (18) 
-14.76

>  <m_primary>  (18) 
energy

$$$$
18:0
     RDKit          3D

 45 48  0  0  0  0  0  0  0  0999 V2000
   51.2770   31.2330   54.2940 C   0  0  0  0  0  0  0  0  0  0  0  0
   52.5160   30.7390   54.2460 C   0  0  0  0  0  0  0  0  0  0  0  0
   52.9930   29.9910   55.2160 O   0  0  0  0  0  0  0  0  0  0  0  0
   54.1750   29.5360   54.8730 C   0  0  0  0  0  0  0  0  0  0  0  0
   54.4970   29.9920   53.6120 C   0  0  0  0  0  0  0  0  0  0  0  0
   55.7470   29.6730   52.8950 C   0  0  0  0  0  0  0  0  0  0  0  0
   55.8700   28.5350   52.3680 O   0  0  0  0  0  0  0  0  0  0  0  0
   56.8080   30.6390   52.7630 N   0  0  0  0  0  0  0  0  0  0  0  0
   56.5260   32.0780   52.7170 C   0  0  0  0  0  0  0  0  0  0  0  0
   57.3690   32.7510   51.6220 C   0  0  0  0  0  0  0  0  0  0  0  0
   58.7930   32.3050   51.5880 N   0  0  0  0  0  0  0  0  0  0  0  0
   59.8210   33.3730   51.4640 C   0  0  0  0  0  0  0  0  0  0  0  0
   61.2700   32.8860   51.4950 C   0  0  0  0  0  0  0  0  0  0  0  0
   61.4770   33.4430   50.0890 C   0  0  0  0  0  0  0  0  0  0  0  0
   60.0300   33.9270   50.0530 C   0  0  0  0  0  0  0  0  0  0  0  0
   59.1650   31.3550   52.6550 C   0  0  0  0  0  0  0  0  0  0  0  0
   58.1940   30.1730   52.6800 C   0  0  0  0  0  0  0  0  0  0  0  0
   53.4590   30.8310   53.2120 C   0  0  0  0  0  0  0  0  0  0  0  0
   53.4690   31.5910   52.0970 C   0  0  0  0  0  0  0  0  0  0  0  0
   52.5110   31.4970   50.9850 C   0  0  0  0  0  0  0  0  0  0  0  0
   52.4960   30.5150   50.0660 N   0  0  0  0  0  0  0  0  0  0  0  0
   51.3700   30.7650   49.3620 C   0  0  0  0  0  0  0  0  0  0  0  0
   51.0120   30.0580   48.3850 O   0  0  0  0  0  0  0  0  0  0  0  0
   50.6540   31.8240   49.7950 N   0  0  0  0  0  0  0  0  0  0  0  0
   51.3830   32.2660   50.8330 C   0  0  0  0  0  0  0  0  0  0  0  0
   51.0210   33.3450   51.6280 O   0  0  0  0  0  0  0  0  0  0  0  0
   50.9011   31.8564   53.4693 H   0  0  0  0  0  0  0  0  0  0  0  0
   50.6317   31.0167   55.1582 H   0  0  0  0  0  0  0  0  0  0  0  0
   54.8113   28.8900   55.4957 H   0  0  0  0  0  0  0  0  0  0  0  0
   55.4587   32.2321   52.4997 H   0  0  0  0  0  0  0  0  0  0  0  0
   56.7802   32.5242   53.6898 H   0  0  0  0  0  0  0  0  0  0  0  0
   56.9129   32.5247   50.6470 H   0  0  0  0  0  0  0  0  0  0  0  0
   57.3794   33.8277   51.8468 H   0  0  0  0  0  0  0  0  0  0  0  0
   59.4386   34.0289   52.2600 H   0  0  0  0  0  0  0  0  0  0  0  0
   61.8904   33.3666   52.2658 H   0  0  0  0  0  0  0  0  0  0  0  0
   61.5028   31.8349   51.7208 H   0  0  0  0  0  0  0  0  0  0  0  0
   62.2205   34.2518   50.0335 H   0  0  0  0  0  0  0  0  0  0  0  0
   61.8622   32.7937   49.2890 H   0  0  0  0  0  0  0  0  0  0  0  0
   59.9218   35.0190   49.9770 H   0  0  0  0  0  0  0  0  0  0  0  0
   59.3611   33.6329   49.2308 H   0  0  0  0  0  0  0  0  0  0  0  0
   60.1836   30.9832   52.4702 H   0  0  0  0  0  0  0  0  0  0  0  0
   59.1214   31.8728   53.6245 H   0  0  0  0  0  0  0  0  0  0  0  0
   58.3213   29.5824   51.7607 H   0  0  0  0  0  0  0  0  0  0  0  0
   58.4120   29.5568   53.5648 H   0  0  0  0  0  0  0  0  0  0  0  0
   54.2634   32.3472   52.0123 H   0  0  0  0  0  0  0  0  0  0  0  0
  1  2  2  0
  2  3  1  0
  3  4  1  0
  4  5  2  0
  5  6  1  0
  6  7  2  0
  6  8  1  0
  8  9  1  0
  9 10  1  0
 10 11  1  0
 11 12  1  0
 12 13  1  0
 13 14  1  0
 14 15  1  0
 11 16  1  0
 16 17  1  0
  5 18  1  0
 18 19  2  3
 19 20  1  0
 20 21  1  0
 21 22  1  0
 22 23  2  0
 22 24  1  0
 24 25  1  0
 25 26  1  0
 18  2  1  0
 25 20  2  0
 17  8  1  0
 15 12  1  0
  1 27  1  0
  1 28  1  0
  4 29  1  0
  9 30  1  0
  9 31  1  0
 10 32  1  0
 10 33  1  0
 12 34  1  0
 13 35  1  0
 13 36  1  0
 14 37  1  0
 14 38  1  0
 15 39  1  0
 15 40  1  0
 16 41  1  0
 16 42  1  0
 17 43  1  0
 17 44  1  0
 19 45  1  0
M  CHG  3  21  -1  24  -1  26  -1
M  END
>  <UniqueID>  (19) 
18

>  <SMILES>  (19) 
C=c1occ(C(=O)N2CCN(C3CCC3)CC2)c1=Cc1[n-]c(=O)[n-]c1[O-]

>  <Energy>  (19) 
192.24551867991025

>  <Genealogy>  (19) 
C=c1occ(C(=O)N2CCN(C3CCC3)CC2)c1=Cc1[n-]c(=O)[n-]c1[O-] (protonated)
C=c1occ(C(=O)N2CCN(C3CCC3)CC2)c1=Cc1[n-]c(=O)[n-]c1[O-] (3D coordinates assigned)
C=c1occ(C(=O)N2CCN(C3CCC3)CC2)c1=Cc1[n-]c(=O)[n-]c1[O-] (nonaromatic ring conformer: 192.24551867991025 kcal/mol)

>  <smiles>  (19) 
C=c1occ(C(=O)N2CCN(C3CCC3)CC2)c1=Cc1[nH]c(=O)[nH]c1O

>  <score_type>  (19) 
oracle

>  <origin>  (19) 
adg

>  <m_score__min__energy>  (19) 
-16.219999999999999

>  <m_primary>  (19) 
energy

$$$$
19:0
     RDKit          3D

 40 43  0  0  0  0  0  0  0  0999 V2000
   60.3460   29.7270   47.9700 C   0  0  0  0  0  0  0  0  0  0  0  0
   60.2400   29.0460   46.6880 N   0  0  0  0  0  0  0  0  0  0  0  0
   60.9490   29.3680   45.6130 N   0  0  0  0  0  0  0  0  0  0  0  0
   60.4260   28.8100   44.5260 N   0  0  0  0  0  0  0  0  0  0  0  0
   59.3780   28.0810   44.9560 C   0  0  0  0  0  0  0  0  0  0  0  0
   59.2470   28.2400   46.2790 C   0  0  0  0  0  0  0  0  0  0  0  0
   57.8420   28.1840   46.7350 C   0  0  0  0  0  0  0  0  0  0  0  0
   57.0930   27.7190   45.4560 C   0  0  1  0  0  0  0  0  0  0  0  0
   55.9050   28.5470   45.2450 N   0  0  0  0  0  0  0  0  0  0  0  0
   55.7100   29.5810   44.2660 C   0  0  0  0  0  0  0  0  0  0  0  0
   54.6970   29.5000   43.5210 O   0  0  0  0  0  0  0  0  0  0  0  0
   56.6380   30.7280   44.0930 C   0  0  0  0  0  0  0  0  0  0  0  0
   56.9830   31.1800   42.8100 C   0  0  0  0  0  0  0  0  0  0  0  0
   57.8760   32.2430   42.6720 C   0  0  0  0  0  0  0  0  0  0  0  0
   58.4170   32.8550   43.8030 C   0  0  0  0  0  0  0  0  0  0  0  0
   59.3250   33.8510   43.6460 F   0  0  0  0  0  0  0  0  0  0  0  0
   58.0470   32.3910   45.0790 C   0  0  0  0  0  0  0  0  0  0  0  0
   58.5710   33.0000   46.3240 C   0  0  0  0  0  0  0  0  0  0  0  0
   59.1570   34.2800   46.3240 C   0  0  0  0  0  0  0  0  0  0  0  0
   59.6190   34.8480   47.5150 C   0  0  0  0  0  0  0  0  0  0  0  0
   59.4910   34.1510   48.7190 C   0  0  0  0  0  0  0  0  0  0  0  0
   58.8940   32.8880   48.7360 C   0  0  0  0  0  0  0  0  0  0  0  0
   58.7620   32.2170   49.9060 F   0  0  0  0  0  0  0  0  0  0  0  0
   58.4310   32.3170   47.5460 C   0  0  0  0  0  0  0  0  0  0  0  0
   57.1890   31.3390   45.1760 N   0  0  0  0  0  0  0  0  0  0  0  0
   58.0930   27.8440   44.2710 C   0  0  0  0  0  0  0  0  0  0  0  0
   60.2322   28.9960   48.7840 H   0  0  0  0  0  0  0  0  0  0  0  0
   61.3304   30.2117   48.0474 H   0  0  0  0  0  0  0  0  0  0  0  0
   59.5555   30.4880   48.0474 H   0  0  0  0  0  0  0  0  0  0  0  0
   57.7182   27.4600   47.5538 H   0  0  0  0  0  0  0  0  0  0  0  0
   57.4727   29.1389   47.1373 H   0  0  0  0  0  0  0  0  0  0  0  0
   56.7483   26.6784   45.5469 H   0  0  0  0  0  0  0  0  0  0  0  0
   56.5523   30.6994   41.9192 H   0  0  0  0  0  0  0  0  0  0  0  0
   58.1541   32.5994   41.6692 H   0  0  0  0  0  0  0  0  0  0  0  0
   59.2521   34.8372   45.3803 H   0  0  0  0  0  0  0  0  0  0  0  0
   60.0838   35.8449   47.5041 H   0  0  0  0  0  0  0  0  0  0  0  0
   59.8605   34.5969   49.6542 H   0  0  0  0  0  0  0  0  0  0  0  0
   57.9537   31.3262   47.5658 H   0  0  0  0  0  0  0  0  0  0  0  0
   58.1240   26.9177   43.6786 H   0  0  0  0  0  0  0  0  0  0  0  0
   57.8264   28.6363   43.5560 H   0  0  0  0  0  0  0  0  0  0  0  0
  1  2  1  0
  2  3  1  0
  3  4  2  0
  4  5  1  0
  5  6  2  0
  6  7  1  0
  7  8  1  0
  8  9  1  0
  9 10  1  0
 10 11  2  0
 10 12  1  0
 12 13  2  0
 13 14  1  0
 14 15  2  0
 15 16  1  0
 15 17  1  0
 17 18  1  0
 18 19  2  0
 19 20  1  0
 20 21  2  0
 21 22  1  0
 22 23  1  0
 22 24  2  0
 17 25  2  0
  8 26  1  0
  6  2  1  0
 25 12  1  0
 26  5  1  0
 24 18  1  0
  1 27  1  0
  1 28  1  0
  1 29  1  0
  7 30  1  0
  7 31  1  0
  8 32  1  1
 13 33  1  0
 14 34  1  0
 19 35  1  0
 20 36  1  0
 21 37  1  0
 24 38  1  0
 26 39  1  0
 26 40  1  0
M  CHG  1   9  -1
M  END
>  <UniqueID>  (20) 
19

>  <SMILES>  (20) 
Cn1nnc2c1C[C@@H]([N-]C(=O)c1ccc(F)c(-c3cccc(F)c3)n1)C2

>  <Energy>  (20) 
108.80504332318816

>  <Genealogy>  (20) 
Cn1nnc2c1CC([N-]C(=O)c1ccc(F)c(-c3cccc(F)c3)n1)C2 (protonated)
Cn1nnc2c1C[C@@H]([N-]C(=O)c1ccc(F)c(-c3cccc(F)c3)n1)C2 (chirality)
Cn1nnc2c1C[C@@H]([N-]C(=O)c1ccc(F)c(-c3cccc(F)c3)n1)C2 (3D coordinates assigned)
Cn1nnc2c1C[C@@H]([N-]C(=O)c1ccc(F)c(-c3cccc(F)c3)n1)C2 (nonaromatic ring conformer: 108.80504332318816 kcal/mol)

>  <smiles>  (20) 
Cn1nnc2c1CC(NC(=O)c1ccc(F)c(-c3cccc(F)c3)n1)C2

>  <score_type>  (20) 
oracle

>  <origin>  (20) 
adg

>  <m_score__min__energy>  (20) 
-10.77

>  <m_primary>  (20) 
energy

$$$$
20:0
     RDKit          3D

 44 46  0  0  0  0  0  0  0  0999 V2000
   58.2150   32.3360   50.2150 C   0  0  0  0  0  0  0  0  0  0  0  0
   58.5780   31.9770   48.8850 O   0  0  0  0  0  0  0  0  0  0  0  0
   58.7580   32.8910   47.8330 C   0  0  0  0  0  0  0  0  0  0  0  0
   57.8930   32.9230   46.7200 C   0  0  0  0  0  0  0  0  0  0  0  0
   58.1060   33.8340   45.6840 C   0  0  0  0  0  0  0  0  0  0  0  0
   59.1840   34.7200   45.7410 C   0  0  0  0  0  0  0  0  0  0  0  0
   60.0480   34.7000   46.8370 C   0  0  0  0  0  0  0  0  0  0  0  0
   59.8360   33.8000   47.8950 C   0  0  0  0  0  0  0  0  0  0  0  0
   60.7910   33.7720   49.0550 C   0  0  0  0  0  0  0  0  0  0  0  0
   61.9320   32.9270   48.7210 N   0  0  0  0  0  0  0  0  0  0  0  0
   61.8500   31.5140   48.5070 C   0  0  0  0  0  0  0  0  0  0  0  0
   61.9810   30.7390   49.4900 O   0  0  0  0  0  0  0  0  0  0  0  0
   61.6680   30.9340   47.1320 C   0  0  0  0  0  0  0  0  0  0  0  0
   60.2960   30.4670   46.9500 N   0  0  0  0  0  0  0  0  0  0  0  0
   59.9260   29.6430   45.8370 C   0  0  0  0  0  0  0  0  0  0  0  0
   60.7890   29.3290   44.9710 O   0  0  0  0  0  0  0  0  0  0  0  0
   58.5270   29.1850   45.6800 C   0  0  0  0  0  0  0  0  0  0  0  0
   57.6000   30.0720   45.1090 C   0  0  0  0  0  0  0  0  0  0  0  0
   56.2810   29.6650   44.8960 C   0  0  0  0  0  0  0  0  0  0  0  0
   55.4530   30.4570   44.3760 O   0  0  0  0  0  0  0  0  0  0  0  0
   55.8900   28.4140   45.2450 N   0  0  0  0  0  0  0  0  0  0  0  0
   56.7460   27.5240   45.8130 C   0  0  0  0  0  0  0  0  0  0  0  0
   56.2830   26.2520   46.1660 C   0  0  0  0  0  0  0  0  0  0  0  0
   57.1400   25.3370   46.7770 C   0  0  0  0  0  0  0  0  0  0  0  0
   58.4630   25.6900   47.0480 C   0  0  0  0  0  0  0  0  0  0  0  0
   58.9410   26.9570   46.6980 C   0  0  0  0  0  0  0  0  0  0  0  0
   58.0950   27.8880   46.0570 C   0  0  0  0  0  0  0  0  0  0  0  0
   58.8100   31.7476   50.9290 H   0  0  0  0  0  0  0  0  0  0  0  0
   58.4089   33.4074   50.3715 H   0  0  0  0  0  0  0  0  0  0  0  0
   57.1458   32.1302   50.3715 H   0  0  0  0  0  0  0  0  0  0  0  0
   57.0443   32.2251   46.6677 H   0  0  0  0  0  0  0  0  0  0  0  0
   57.4237   33.8540   44.8214 H   0  0  0  0  0  0  0  0  0  0  0  0
   59.3523   35.4342   44.9215 H   0  0  0  0  0  0  0  0  0  0  0  0
   60.9009   35.3937   46.8728 H   0  0  0  0  0  0  0  0  0  0  0  0
   61.1401   34.7931   49.2680 H   0  0  0  0  0  0  0  0  0  0  0  0
   60.2810   33.3681   49.9420 H   0  0  0  0  0  0  0  0  0  0  0  0
   61.8897   31.7067   46.3812 H   0  0  0  0  0  0  0  0  0  0  0  0
   62.3523   30.0811   47.0128 H   0  0  0  0  0  0  0  0  0  0  0  0
   59.5700   30.7000   47.6660 H   0  0  0  0  0  0  0  0  0  0  0  0
   57.9131   31.0887   44.8291 H   0  0  0  0  0  0  0  0  0  0  0  0
   55.2391   25.9724   45.9609 H   0  0  0  0  0  0  0  0  0  0  0  0
   56.7728   24.3355   47.0458 H   0  0  0  0  0  0  0  0  0  0  0  0
   59.1326   24.9685   47.5390 H   0  0  0  0  0  0  0  0  0  0  0  0
   59.9825   27.2298   46.9235 H   0  0  0  0  0  0  0  0  0  0  0  0
  1  2  1  0
  2  3  1  0
  3  4  2  0
  4  5  1  0
  5  6  2  0
  6  7  1  0
  7  8  2  0
  8  9  1  0
  9 10  1  0
 10 11  1  0
 11 12  2  0
 11 13  1  0
 13 14  1  0
 14 15  1  0
 15 16  2  0
 15 17  1  0
 17 18  2  0
 18 19  1  0
 19 20  2  0
 19 21  1  0
 21 22  1  0
 22 23  2  0
 23 24  1  0
 24 25  2  0
 25 26  1  0
 26 27  2  0
  8  3  1  0
 27 17  1  0
 27 22  1  0
  1 28  1  0
  1 29  1  0
  1 30  1  0
  4 31  1  0
  5 32  1  0
  6 33  1  0
  7 34  1  0
  9 35  1  0
  9 36  1  0
 13 37  1  0
 13 38  1  0
 14 39  1  0
 18 40  1  0
 23 41  1  0
 24 42  1  0
 25 43  1  0
 26 44  1  0
M  CHG  2  10  -1  21  -1
M  END
>  <UniqueID>  (21) 
20

>  <SMILES>  (21) 
COc1ccccc1C[N-]C(=O)CNC(=O)c1cc(=O)[n-]c2ccccc12

>  <Energy>  (21) 
51.04286759227008

>  <Genealogy>  (21) 
COc1ccccc1C[N-]C(=O)CNC(=O)c1cc(=O)[n-]c2ccccc12 (protonated)
COc1ccccc1C[N-]C(=O)CNC(=O)c1cc(=O)[n-]c2ccccc12 (3D coordinates assigned)
COc1ccccc1C[N-]C(=O)CNC(=O)c1cc(=O)[n-]c2ccccc12 (optimized conformer: 51.04286759227008 kcal/mol)

>  <smiles>  (21) 
COc1ccccc1CNC(=O)CNC(=O)c1cc(=O)[nH]c2ccccc12

>  <score_type>  (21) 
oracle

>  <origin>  (21) 
adg

>  <m_score__min__energy>  (21) 
-11.09

>  <m_primary>  (21) 
energy

$$$$
21:0
     RDKit          3D

 29 31  0  0  0  0  0  0  0  0999 V2000
   54.8530   26.3700   46.1440 N   0  0  0  0  0  0  0  0  0  0  0  0
   56.2350   26.4290   45.7980 C   0  0  0  0  0  0  0  0  0  0  0  0
   56.8230   25.3620   45.4730 O   0  0  0  0  0  0  0  0  0  0  0  0
   56.9830   27.7170   45.8150 C   0  0  0  0  0  0  0  0  0  0  0  0
   58.2850   27.7530   46.3550 C   0  0  0  0  0  0  0  0  0  0  0  0
   59.0240   28.9460   46.3860 C   0  0  0  0  0  0  0  0  0  0  0  0
   60.4100   28.9670   46.9830 C   0  0  1  0  0  0  0  0  0  0  0  0
   61.1880   30.0720   46.4260 N   0  0  0  0  0  0  0  0  0  0  0  0
   61.6430   30.9870   47.4040 C   0  0  0  0  0  0  0  0  0  0  0  0
   62.3990   32.1290   47.1280 C   0  0  0  0  0  0  0  0  0  0  0  0
   62.7800   32.9600   48.1910 C   0  0  0  0  0  0  0  0  0  0  0  0
   62.4010   32.6410   49.5070 C   0  0  0  0  0  0  0  0  0  0  0  0
   61.6410   31.4900   49.7600 C   0  0  0  0  0  0  0  0  0  0  0  0
   61.2720   30.6740   48.6890 C   0  0  0  0  0  0  0  0  0  0  0  0
   60.3090   29.1790   48.8150 S   0  0  0  0  0  0  0  0  0  0  0  0
   58.4490   30.1220   45.8820 C   0  0  0  0  0  0  0  0  0  0  0  0
   57.1630   30.1020   45.3450 C   0  0  0  0  0  0  0  0  0  0  0  0
   56.4280   28.9140   45.3050 C   0  0  0  0  0  0  0  0  0  0  0  0
   55.1500   28.9460   44.7580 O   0  0  0  0  0  0  0  0  0  0  0  0
   54.4210   27.0930   46.7610 H   0  0  0  0  0  0  0  0  0  0  0  0
   58.7289   26.8310   46.7586 H   0  0  0  0  0  0  0  0  0  0  0  0
   60.9011   28.0124   46.7432 H   0  0  0  0  0  0  0  0  0  0  0  0
   61.4040   30.1630   45.4080 H   0  0  0  0  0  0  0  0  0  0  0  0
   62.6900   32.3718   46.0954 H   0  0  0  0  0  0  0  0  0  0  0  0
   63.3765   33.8632   47.9952 H   0  0  0  0  0  0  0  0  0  0  0  0
   62.7010   33.2951   50.3390 H   0  0  0  0  0  0  0  0  0  0  0  0
   61.3402   31.2340   50.7866 H   0  0  0  0  0  0  0  0  0  0  0  0
   59.0157   31.0644   45.9107 H   0  0  0  0  0  0  0  0  0  0  0  0
   56.7228   31.0292   44.9493 H   0  0  0  0  0  0  0  0  0  0  0  0
  1  2  1  0
  2  3  2  0
  2  4  1  0
  4  5  2  0
  5  6  1  0
  6  7  1  0
  7  8  1  0
  8  9  1  0
  9 10  2  0
 10 11  1  0
 11 12  2  0
 12 13  1  0
 13 14  2  0
 14 15  1  0
  6 16  2  0
 16 17  1  0
 17 18  2  0
 18 19  1  0
 18  4  1  0
 15  7  1  0
 14  9  1  0
  1 20  1  0
  5 21  1  0
  7 22  1  1
  8 23  1  0
 10 24  1  0
 11 25  1  0
 12 26  1  0
 13 27  1  0
 16 28  1  0
 17 29  1  0
M  CHG  2   1  -1  19  -1
M  END
>  <UniqueID>  (22) 
21

>  <SMILES>  (22) 
[NH-]C(=O)c1cc([C@H]2Nc3ccccc3S2)ccc1[O-]

>  <Energy>  (22) 
44.04166684488729

>  <Genealogy>  (22) 
[NH-]C(=O)c1cc(C2Nc3ccccc3S2)ccc1[O-] (protonated)
[NH-]C(=O)c1cc([C@H]2Nc3ccccc3S2)ccc1[O-] (chirality)
[NH-]C(=O)c1cc([C@H]2Nc3ccccc3S2)ccc1[O-] (3D coordinates assigned)
[NH-]C(=O)c1cc([C@H]2Nc3ccccc3S2)ccc1[O-] (nonaromatic ring conformer: 44.04166684488729 kcal/mol)

>  <smiles>  (22) 
NC(=O)c1cc(C2Nc3ccccc3S2)ccc1O

>  <score_type>  (22) 
oracle

>  <origin>  (22) 
adg

>  <m_score__min__energy>  (22) 
-13.01

>  <m_primary>  (22) 
energy

$$$$
22:0
     RDKit          3D

 61 64  0  0  0  0  0  0  0  0999 V2000
   58.0723   30.7711   43.6104 H   0  0  0  0  0  0  0  0  0  0  0  0
   57.4390   30.9160   44.4980 C   0  0  0  0  0  0  0  0  0  0  0  0
   56.9800   29.7000   45.2100 C   0  0  0  0  0  0  0  0  0  0  0  0
   55.7620   29.3820   45.2110 O   0  0  0  0  0  0  0  0  0  0  0  0
   57.8940   28.9340   46.0070 N   0  0  0  0  0  0  0  0  0  0  0  0
   58.8650   29.5040   46.8940 C   0  0  0  0  0  0  0  0  0  0  0  0
   58.8090   29.2000   48.2540 C   0  0  0  0  0  0  0  0  0  0  0  0
   58.0793   28.4639   48.6225 H   0  0  0  0  0  0  0  0  0  0  0  0
   59.6770   29.8280   49.1480 C   0  0  0  0  0  0  0  0  0  0  0  0
   59.6137   29.5954   50.2212 H   0  0  0  0  0  0  0  0  0  0  0  0
   60.6320   30.7550   48.6930 C   0  0  0  0  0  0  0  0  0  0  0  0
   61.4860   31.7260   49.9160 S   0  0  0  0  0  0  0  0  0  0  0  0
   61.9750   30.8600   51.0410 O   0  0  0  0  0  0  0  0  0  0  0  0
   60.4820   32.6790   50.5040 O   0  0  0  0  0  0  0  0  0  0  0  0
   62.8250   32.6770   49.2790 N   0  0  0  0  0  0  0  0  0  0  0  0
   62.7700   32.5290   48.2430 H   0  0  0  0  0  0  0  0  0  0  0  0
   62.6710   34.1330   49.4750 C   0  0  0  0  0  0  0  0  0  0  0  0
   63.3289   34.6544   48.7641 H   0  0  0  0  0  0  0  0  0  0  0  0
   61.6118   34.3783   49.3081 H   0  0  0  0  0  0  0  0  0  0  0  0
   63.0280   34.5830   50.8890 C   0  0  0  0  0  0  0  0  0  0  0  0
   63.0211   35.6821   50.9330 H   0  0  0  0  0  0  0  0  0  0  0  0
   62.2884   34.1739   51.5930 H   0  0  0  0  0  0  0  0  0  0  0  0
   64.3550   34.0940   51.2550 N   0  0  0  0  0  0  0  0  0  0  0  0
   65.1000   34.8070   52.2560 C   0  0  0  0  0  0  0  0  0  0  0  0
   64.4860   35.3350   53.2240 O   0  0  0  0  0  0  0  0  0  0  0  0
   66.5740   34.9280   52.1720 C   0  0  0  0  0  0  0  0  0  0  0  0
   67.2680   35.7650   53.0660 C   0  0  0  0  0  0  0  0  0  0  0  0
   66.7135   36.3267   53.8322 H   0  0  0  0  0  0  0  0  0  0  0  0
   68.6580   35.8860   52.9850 C   0  0  0  0  0  0  0  0  0  0  0  0
   69.1938   36.5392   53.6894 H   0  0  0  0  0  0  0  0  0  0  0  0
   69.3690   35.1790   52.0110 C   0  0  0  0  0  0  0  0  0  0  0  0
   70.4636   35.2715   51.9533 H   0  0  0  0  0  0  0  0  0  0  0  0
   68.6890   34.3550   51.1110 C   0  0  0  0  0  0  0  0  0  0  0  0
   69.3790   33.6740   50.1620 F   0  0  0  0  0  0  0  0  0  0  0  0
   67.2970   34.2310   51.1870 C   0  0  0  0  0  0  0  0  0  0  0  0
   66.7655   33.5851   50.4727 H   0  0  0  0  0  0  0  0  0  0  0  0
   64.6250   32.6670   51.0710 C   0  0  0  0  0  0  0  0  0  0  0  0
   65.7067   32.4922   51.1681 H   0  0  0  0  0  0  0  0  0  0  0  0
   64.0684   32.1081   51.8377 H   0  0  0  0  0  0  0  0  0  0  0  0
   64.1610   32.1800   49.6840 C   0  0  0  0  0  0  0  0  0  0  0  0
   64.8949   32.5171   48.9372 H   0  0  0  0  0  0  0  0  0  0  0  0
   64.0847   31.0843   49.7440 H   0  0  0  0  0  0  0  0  0  0  0  0
   60.7930   30.9410   47.2960 C   0  0  0  0  0  0  0  0  0  0  0  0
   61.8850   31.6870   46.7450 N   0  0  0  0  0  0  0  0  0  0  0  0
   61.7180   32.8920   46.4650 O   0  0  0  0  0  0  0  0  0  0  0  0
   63.1710   31.2280   46.9220 O   0  0  0  0  0  0  0  0  0  0  0  0
   59.8820   30.3400   46.4140 C   0  0  0  0  0  0  0  0  0  0  0  0
   59.9672   30.5273   45.3334 H   0  0  0  0  0  0  0  0  0  0  0  0
   57.1470   32.1790   44.8450 C   0  0  0  0  0  0  0  0  0  0  0  0
   56.1696   32.5746   44.5317 H   0  0  0  0  0  0  0  0  0  0  0  0
   58.0290   33.0830   45.6130 C   0  0  0  0  0  0  0  0  0  0  0  0
   58.7480   34.0780   44.9310 C   0  0  0  0  0  0  0  0  0  0  0  0
   58.6821   34.1477   43.8352 H   0  0  0  0  0  0  0  0  0  0  0  0
   59.5470   34.9800   45.6390 C   0  0  0  0  0  0  0  0  0  0  0  0
   60.1213   35.7462   45.0977 H   0  0  0  0  0  0  0  0  0  0  0  0
   59.6180   34.9110   47.0310 C   0  0  0  0  0  0  0  0  0  0  0  0
   60.2537   35.6173   47.5851 H   0  0  0  0  0  0  0  0  0  0  0  0
   58.8810   33.9440   47.7210 C   0  0  0  0  0  0  0  0  0  0  0  0
   58.9325   33.8939   48.8187 H   0  0  0  0  0  0  0  0  0  0  0  0
   58.0790   33.0410   47.0180 C   0  0  0  0  0  0  0  0  0  0  0  0
   57.4846   32.2946   47.5654 H   0  0  0  0  0  0  0  0  0  0  0  0
  1  2  1  0
  2  3  1  0
  3  4  2  0
  3  5  1  0
  5  6  1  0
  6  7  2  0
  7  8  1  0
  7  9  1  0
  9 10  1  0
  9 11  2  0
 11 12  1  0
 12 13  2  0
 12 14  2  0
 12 15  1  0
 15 16  1  0
 15 17  1  0
 17 18  1  0
 17 19  1  0
 17 20  1  0
 20 21  1  0
 20 22  1  0
 20 23  1  0
 23 24  1  0
 24 25  2  0
 24 26  1  0
 26 27  2  0
 27 28  1  0
 27 29  1  0
 29 30  1  0
 29 31  2  0
 31 32  1  0
 31 33  1  0
 33 34  1  0
 33 35  2  0
 35 36  1  0
 23 37  1  0
 37 38  1  0
 37 39  1  0
 37 40  1  0
 40 41  1  0
 40 42  1  0
 11 43  1  0
 43 44  1  0
 44 45  2  0
 44 46  1  0
 43 47  2  0
 47 48  1  0
  2 49  2  0
 49 50  1  0
 49 51  1  0
 51 52  2  0
 52 53  1  0
 52 54  1  0
 54 55  1  0
 54 56  2  0
 56 57  1  0
 56 58  1  0
 58 59  1  0
 58 60  2  0
 60 61  1  0
 47  6  1  0
 60 51  1  0
 40 15  1  0
 35 26  1  0
M  CHG  4   5  -1  15   1  44   1  46  -1
M  END
>  <UniqueID>  (23) 
22

>  <SMILES>  (23) 
O=C(/C=C\c1ccccc1)[N-]c1ccc(S(=O)(=O)[NH+]2CCN(C(=O)c3cccc(F)c3)CC2)c([N+](=O)[O-])c1

>  <Energy>  (23) 
95.36547914335767

>  <Genealogy>  (23) 
O=C(C=Cc1ccccc1)[N-]c1ccc(S(=O)(=O)[NH+]2CCN(C(=O)c3cccc(F)c3)CC2)c([N+](=O)[O-])c1 (protonated)
O=C(/C=C\c1ccccc1)[N-]c1ccc(S(=O)(=O)[NH+]2CCN(C(=O)c3cccc(F)c3)CC2)c([N+](=O)[O-])c1 (cis-trans isomerization)
O=C(/C=C\c1ccccc1)[N-]c1ccc(S(=O)(=O)[NH+]2CCN(C(=O)c3cccc(F)c3)CC2)c([N+](=O)[O-])c1 (3D coordinates assigned)
O=C(/C=C\c1ccccc1)[N-]c1ccc(S(=O)(=O)[NH+]2CCN(C(=O)c3cccc(F)c3)CC2)c([N+](=O)[O-])c1 (nonaromatic ring conformer: 95.36547914335767 kcal/mol)

>  <smiles>  (23) 
O=C(C=Cc1ccccc1)Nc1ccc(S(=O)(=O)N2CCN(C(=O)c3cccc(F)c3)CC2)c([N+](=O)[O-])c1

>  <score_type>  (23) 
oracle

>  <origin>  (23) 
adg

>  <m_score__min__energy>  (23) 
-10.41

>  <m_primary>  (23) 
energy

$$$$
23:0
     RDKit          3D

 54 57  0  0  0  0  0  0  0  0999 V2000
   55.4610   30.0980   45.6280 H   0  0  0  0  0  0  0  0  0  0  0  0
   55.6620   29.3240   45.0040 O   0  0  0  0  0  0  0  0  0  0  0  0
   56.2540   28.1600   45.4850 C   0  0  0  0  0  0  0  0  0  0  0  0
   55.5630   27.0720   45.8670 N   0  0  0  0  0  0  0  0  0  0  0  0
   56.5320   26.2480   46.3180 C   0  0  0  0  0  0  0  0  0  0  0  0
   56.2870   25.1050   46.7850 O   0  0  0  0  0  0  0  0  0  0  0  0
   57.7830   26.7520   46.2470 N   0  0  0  0  0  0  0  0  0  0  0  0
   57.6030   27.9620   45.6890 C   0  0  0  0  0  0  0  0  0  0  0  0
   58.6970   28.9290   45.4860 C   0  0  0  0  0  0  0  0  0  0  0  0
   59.6334   28.5626   45.0400 H   0  0  0  0  0  0  0  0  0  0  0  0
   58.6210   30.2340   45.8130 C   0  0  0  0  0  0  0  0  0  0  0  0
   57.8070   31.1840   45.2130 C   0  0  0  0  0  0  0  0  0  0  0  0
   57.0805   31.0101   44.4056 H   0  0  0  0  0  0  0  0  0  0  0  0
   58.0850   32.3890   45.8250 C   0  0  0  0  0  0  0  0  0  0  0  0
   57.4720   33.6970   45.4210 C   0  0  0  0  0  0  0  0  0  0  0  0
   57.2036   34.2697   46.3210 H   0  0  0  0  0  0  0  0  0  0  0  0
   58.1947   34.2714   44.8229 H   0  0  0  0  0  0  0  0  0  0  0  0
   56.5682   33.5091   44.8229 H   0  0  0  0  0  0  0  0  0  0  0  0
   59.0350   32.2320   46.7800 N   0  0  0  0  0  0  0  0  0  0  0  0
   59.5840   33.2920   47.6420 C   0  0  0  0  0  0  0  0  0  0  0  0
   59.1806   34.2625   47.3174 H   0  0  0  0  0  0  0  0  0  0  0  0
   59.2950   33.0782   48.6816 H   0  0  0  0  0  0  0  0  0  0  0  0
   61.0940   33.3360   47.5660 C   0  0  0  0  0  0  0  0  0  0  0  0
   61.7200   33.8190   46.4050 C   0  0  0  0  0  0  0  0  0  0  0  0
   61.1089   34.1561   45.5548 H   0  0  0  0  0  0  0  0  0  0  0  0
   63.1110   33.8740   46.3230 C   0  0  0  0  0  0  0  0  0  0  0  0
   63.5913   34.2485   45.4070 H   0  0  0  0  0  0  0  0  0  0  0  0
   63.8960   33.4560   47.3980 C   0  0  0  0  0  0  0  0  0  0  0  0
   64.9926   33.5005   47.3244 H   0  0  0  0  0  0  0  0  0  0  0  0
   63.2940   32.9790   48.5730 C   0  0  0  0  0  0  0  0  0  0  0  0
   64.1140   32.5430   49.6770 N   0  0  0  0  0  0  0  0  0  0  0  0
   63.5590   31.6760   50.7220 C   0  0  0  0  0  0  0  0  0  0  0  0
   63.2649   32.2917   51.5848 H   0  0  0  0  0  0  0  0  0  0  0  0
   62.6833   31.1471   50.3177 H   0  0  0  0  0  0  0  0  0  0  0  0
   64.6030   30.6390   51.1720 C   0  0  0  0  0  0  0  0  0  0  0  0
   64.2738   30.2120   52.1308 H   0  0  0  0  0  0  0  0  0  0  0  0
   64.6681   29.8883   50.3706 H   0  0  0  0  0  0  0  0  0  0  0  0
   65.9740   31.1910   51.3530 N   0  0  0  0  0  0  0  0  0  0  0  0
   66.5370   30.8040   52.6580 C   0  0  0  0  0  0  0  0  0  0  0  0
   65.9200   31.2281   53.4638 H   0  0  0  0  0  0  0  0  0  0  0  0
   66.5470   29.7073   52.7423 H   0  0  0  0  0  0  0  0  0  0  0  0
   67.5645   31.1876   52.7423 H   0  0  0  0  0  0  0  0  0  0  0  0
   66.0740   32.6510   51.1680 C   0  0  0  0  0  0  0  0  0  0  0  0
   65.5214   33.1581   51.9726 H   0  0  0  0  0  0  0  0  0  0  0  0
   67.1335   32.9453   51.1976 H   0  0  0  0  0  0  0  0  0  0  0  0
   65.4810   33.0530   49.8160 C   0  0  0  0  0  0  0  0  0  0  0  0
   65.4664   34.1503   49.7402 H   0  0  0  0  0  0  0  0  0  0  0  0
   66.1016   32.6231   49.0160 H   0  0  0  0  0  0  0  0  0  0  0  0
   61.8870   32.9320   48.6570 C   0  0  0  0  0  0  0  0  0  0  0  0
   61.2960   32.5290   49.8090 F   0  0  0  0  0  0  0  0  0  0  0  0
   59.3840   30.9180   46.7650 C   0  0  0  0  0  0  0  0  0  0  0  0
   60.3380   30.3840   47.5440 C   0  0  0  0  0  0  0  0  0  0  0  0
   60.8791   31.0168   48.2629 H   0  0  0  0  0  0  0  0  0  0  0  0
   60.5786   29.3137   47.4634 H   0  0  0  0  0  0  0  0  0  0  0  0
  1  2  1  0
  2  3  1  0
  3  4  1  0
  4  5  1  0
  5  6  2  0
  5  7  1  0
  7  8  1  0
  8  9  1  0
  9 10  1  0
  9 11  2  0
 11 12  1  0
 12 13  1  0
 12 14  2  0
 14 15  1  0
 15 16  1  0
 15 17  1  0
 15 18  1  0
 14 19  1  0
 19 20  1  0
 20 21  1  0
 20 22  1  0
 20 23  1  0
 23 24  2  0
 24 25  1  0
 24 26  1  0
 26 27  1  0
 26 28  2  0
 28 29  1  0
 28 30  1  0
 30 31  1  0
 31 32  1  0
 32 33  1  0
 32 34  1  0
 32 35  1  0
 35 36  1  0
 35 37  1  0
 35 38  1  0
 38 39  1  0
 39 40  1  0
 39 41  1  0
 39 42  1  0
 38 43  1  0
 43 44  1  0
 43 45  1  0
 43 46  1  0
 46 47  1  0
 46 48  1  0
 30 49  2  0
 49 50  1  0
 19 51  1  0
 51 52  2  0
 52 53  1  0
 52 54  1  0
  8  3  2  0
 51 11  1  0
 49 23  1  0
 46 31  1  0
M  CHG  2   4  -1   7  -1
M  END
>  <UniqueID>  (24) 
23

>  <SMILES>  (24) 
C=c1/c(=C/c2[n-]c(=O)[n-]c2O)cc(C)n1Cc1cccc(N2CCN(C)CC2)c1F

>  <Energy>  (24) 
130.887996944778

>  <Genealogy>  (24) 
C=c1c(=Cc2[n-]c(=O)[n-]c2O)cc(C)n1Cc1cccc(N2CCN(C)CC2)c1F (protonated)
C=c1/c(=C/c2[n-]c(=O)[n-]c2O)cc(C)n1Cc1cccc(N2CCN(C)CC2)c1F (cis-trans isomerization)
C=c1/c(=C/c2[n-]c(=O)[n-]c2O)cc(C)n1Cc1cccc(N2CCN(C)CC2)c1F (3D coordinates assigned)
C=c1/c(=C/c2[n-]c(=O)[n-]c2O)cc(C)n1Cc1cccc(N2CCN(C)CC2)c1F (nonaromatic ring conformer: 130.887996944778 kcal/mol)

>  <smiles>  (24) 
C=c1c(=Cc2[nH]c(=O)[nH]c2O)cc(C)n1Cc1cccc(N2CCN(C)CC2)c1F

>  <score_type>  (24) 
oracle

>  <origin>  (24) 
adg

>  <m_score__min__energy>  (24) 
-12.98

>  <m_primary>  (24) 
energy

$$$$
24:0
     RDKit          3D

 54 57  0  0  1  0  0  0  0  0999 V2000
   55.3380   24.9700   46.1520 O   0  0  0  0  0  0  0  0  0  0  0  0
   56.2160   25.1000   45.2480 C   0  0  0  0  0  0  0  0  0  0  0  0
   56.1570   24.3610   44.0450 N   0  0  0  0  0  0  0  0  0  0  0  0
   56.6710   23.1760   43.9720 C   0  0  0  0  0  0  0  0  0  0  0  0
   56.2540   22.2650   43.0550 N   0  0  0  0  0  0  0  0  0  0  0  0
   56.9850   21.1310   43.2380 C   0  0  0  0  0  0  0  0  0  0  0  0
   57.8260   21.3790   44.2580 N   0  0  0  0  0  0  0  0  0  0  0  0
   57.6430   22.6140   44.7090 N   0  0  0  0  0  0  0  0  0  0  0  0
   57.3240   26.0310   45.4320 C   0  0  0  0  0  0  0  0  0  0  0  0
   57.3920   27.1940   44.6970 C   0  0  0  0  0  0  0  0  0  0  0  0
   58.4090   28.1190   44.8210 C   0  0  0  0  0  0  0  0  0  0  0  0
   58.4710   29.3120   44.0550 N   0  0  0  0  0  0  0  0  0  0  0  0
   57.2760   30.5200   44.1290 S   0  0  0  0  0  0  0  0  0  0  0  0
   56.0610   30.0750   44.8990 O   0  0  0  0  0  0  0  0  0  0  0  0
   56.8330   30.8540   42.7220 O   0  0  0  0  0  0  0  0  0  0  0  0
   57.8240   32.0260   44.8280 C   0  0  0  0  0  0  0  0  0  0  0  0
   57.5810   33.2590   44.2600 C   0  0  0  0  0  0  0  0  0  0  0  0
   58.0280   34.4430   44.8640 C   0  0  0  0  0  0  0  0  0  0  0  0
   58.7370   34.3590   46.0720 C   0  0  0  0  0  0  0  0  0  0  0  0
   58.9850   33.1290   46.6490 C   0  0  0  0  0  0  0  0  0  0  0  0
   59.8460   32.9490   48.1610 S   0  0  0  0  0  0  0  0  0  0  0  0
   59.5720   34.0590   49.1030 O   0  0  0  0  0  0  0  0  0  0  0  0
   59.4770   31.6040   48.7650 O   0  0  0  0  0  0  0  0  0  0  0  0
   61.5230   32.8670   47.7960 N   0  0  0  0  0  0  0  0  0  0  0  0
   62.3520   33.3750   48.8700 C   0  0  0  0  0  0  0  0  0  0  0  0
   63.7630   32.8510   48.6040 C   0  0  0  0  0  0  0  0  0  0  0  0
   63.9780   32.7940   47.2230 O   0  0  0  0  0  0  0  0  0  0  0  0
   63.3100   33.8350   46.5660 C   0  0  0  0  0  0  0  0  0  0  0  0
   61.8350   33.5030   46.5300 C   0  0  0  0  0  0  0  0  0  0  0  0
   58.5180   31.9830   46.0040 C   0  0  0  0  0  0  0  0  0  0  0  0
   59.4010   27.8090   45.7550 C   0  0  0  0  0  0  0  0  0  0  0  0
   59.3340   26.6390   46.4930 C   0  0  0  0  0  0  0  0  0  0  0  0
   58.3060   25.7300   46.3530 C   0  0  0  0  0  0  0  0  0  0  0  0
   58.2530   24.5640   47.0980 O   0  0  0  0  0  0  0  0  0  0  0  0
   56.9038   20.1959   42.6645 H   0  0  0  0  0  0  0  0  0  0  0  0
   58.5280   20.6870   44.6400 H   0  0  0  0  0  0  0  0  0  0  0  0
   58.1210   23.1230   45.4810 H   0  0  0  0  0  0  0  0  0  0  0  0
   56.5912   27.3969   43.9707 H   0  0  0  0  0  0  0  0  0  0  0  0
   59.2830   29.4470   43.4250 H   0  0  0  0  0  0  0  0  0  0  0  0
   57.0246   33.3149   43.3128 H   0  0  0  0  0  0  0  0  0  0  0  0
   57.8266   35.4195   44.3994 H   0  0  0  0  0  0  0  0  0  0  0  0
   59.0966   35.2763   46.5612 H   0  0  0  0  0  0  0  0  0  0  0  0
   62.3470   34.4750   48.8679 H   0  0  0  0  0  0  0  0  0  0  0  0
   61.9811   33.0468   49.8522 H   0  0  0  0  0  0  0  0  0  0  0  0
   64.4994   33.5265   49.0637 H   0  0  0  0  0  0  0  0  0  0  0  0
   63.8727   31.8460   49.0376 H   0  0  0  0  0  0  0  0  0  0  0  0
   63.4659   34.7787   47.1093 H   0  0  0  0  0  0  0  0  0  0  0  0
   63.6984   33.9493   45.5432 H   0  0  0  0  0  0  0  0  0  0  0  0
   61.2419   34.4216   46.4102 H   0  0  0  0  0  0  0  0  0  0  0  0
   61.5976   32.8411   45.6841 H   0  0  0  0  0  0  0  0  0  0  0  0
   58.7172   31.0030   46.4621 H   0  0  0  0  0  0  0  0  0  0  0  0
   60.2430   28.5007   45.9055 H   0  0  0  0  0  0  0  0  0  0  0  0
   60.1321   26.4262   47.2195 H   0  0  0  0  0  0  0  0  0  0  0  0
   57.3220   24.1470   47.2280 H   0  0  0  0  0  0  0  0  0  0  0  0
  1  2  2  0
  2  3  1  0
  3  4  2  0
  4  5  1  0
  5  6  2  0
  6  7  1  0
  7  8  1  0
  2  9  1  0
  9 10  2  0
 10 11  1  0
 11 12  1  0
 12 13  1  0
 13 14  2  0
 13 15  2  0
 13 16  1  0
 16 17  2  0
 17 18  1  0
 18 19  2  0
 19 20  1  0
 20 21  1  0
 21 22  2  0
 21 23  2  0
 21 24  1  0
 24 25  1  0
 25 26  1  0
 26 27  1  0
 27 28  1  0
 28 29  1  0
 20 30  2  0
 11 31  2  0
 31 32  1  0
 32 33  2  0
 33 34  1  0
  8  4  1  0
 33  9  1  0
 30 16  1  0
 29 24  1  0
  6 35  1  0
  7 36  1  0
  8 37  1  0
 10 38  1  0
 12 39  1  0
 17 40  1  0
 18 41  1  0
 19 42  1  0
 25 43  1  0
 25 44  1  0
 26 45  1  0
 26 46  1  0
 28 47  1  0
 28 48  1  0
 29 49  1  0
 29 50  1  0
 30 51  1  0
 31 52  1  0
 32 53  1  0
 34 54  1  0
M  END
>  <smiles>  (25) 
O=C(N=c1nc[nH][nH]1)c1cc(NS(=O)(=O)c2cccc(S(=O)(=O)N3CCOCC3)c2)ccc1O

>  <score_type>  (25) 
oracle

>  <origin>  (25) 
adg

>  <m_score__min__energy>  (25) 
-11.449999999999999

>  <m_primary>  (25) 
energy

$$$$
25:0
     RDKit          3D

 58 61  0  0  0  0  0  0  0  0999 V2000
   51.1930   24.1360   43.4090 C   0  0  0  0  0  0  0  0  0  0  0  0
   51.4730   23.7810   44.8660 C   0  0  0  0  0  0  0  0  0  0  0  0
   52.9300   24.0700   45.2380 C   0  0  0  0  0  0  0  0  0  0  0  0
   53.7480   22.9320   44.9710 O   0  0  0  0  0  0  0  0  0  0  0  0
   55.1430   22.9910   44.8600 C   0  0  0  0  0  0  0  0  0  0  0  0
   55.7600   22.1360   44.1650 O   0  0  0  0  0  0  0  0  0  0  0  0
   55.8920   24.0570   45.5630 C   0  0  0  0  0  0  0  0  0  0  0  0
   56.2100   23.9190   46.9250 C   0  0  0  0  0  0  0  0  0  0  0  0
   56.9250   24.9180   47.5880 C   0  0  0  0  0  0  0  0  0  0  0  0
   57.3220   26.0690   46.9040 C   0  0  0  0  0  0  0  0  0  0  0  0
   56.9880   26.2370   45.5530 C   0  0  0  0  0  0  0  0  0  0  0  0
   57.4070   27.3950   44.8200 N   0  0  0  0  0  0  0  0  0  0  0  0
   56.6470   28.5970   44.6300 C   0  0  0  0  0  0  0  0  0  0  0  0
   55.5510   28.7210   45.2380 O   0  0  0  0  0  0  0  0  0  0  0  0
   57.1880   29.7660   43.8500 C   0  0  0  0  0  0  0  0  0  0  0  0
   57.7960   30.7540   44.7480 N   0  0  0  0  0  0  0  0  0  0  0  0
   57.2560   31.9850   44.7930 N   0  0  0  0  0  0  0  0  0  0  0  0
   57.7310   32.9700   45.6120 C   0  0  0  0  0  0  0  0  0  0  0  0
   57.0930   34.3210   45.6300 C   0  0  0  0  0  0  0  0  0  0  0  0
   58.8170   32.6590   46.4200 C   0  0  0  0  0  0  0  0  0  0  0  0
   59.4500   33.4480   47.3070 N   0  0  0  0  0  0  0  0  0  0  0  0
   60.4150   32.7120   47.8500 N   0  0  0  0  0  0  0  0  0  0  0  0
   61.2940   33.2220   48.8670 C   0  0  0  0  0  0  0  0  0  0  0  0
   60.8710   33.3160   50.2050 C   0  0  0  0  0  0  0  0  0  0  0  0
   61.7260   33.8420   51.1780 C   0  0  0  0  0  0  0  0  0  0  0  0
   63.0020   34.2880   50.8230 C   0  0  0  0  0  0  0  0  0  0  0  0
   63.4220   34.2170   49.4920 C   0  0  0  0  0  0  0  0  0  0  0  0
   62.5690   33.6930   48.5160 C   0  0  0  0  0  0  0  0  0  0  0  0
   60.4160   31.4670   47.2990 C   0  0  0  0  0  0  0  0  0  0  0  0
   61.3860   30.3640   47.6080 C   0  0  0  0  0  0  0  0  0  0  0  0
   59.3760   31.4190   46.3890 C   0  0  0  0  0  0  0  0  0  0  0  0
   58.8690   30.4300   45.5480 C   0  0  0  0  0  0  0  0  0  0  0  0
   59.3750   29.2750   45.5300 O   0  0  0  0  0  0  0  0  0  0  0  0
   56.2980   25.2190   44.8810 C   0  0  0  0  0  0  0  0  0  0  0  0
   50.5123   24.9990   43.3662 H   0  0  0  0  0  0  0  0  0  0  0  0
   52.1376   24.3887   42.9051 H   0  0  0  0  0  0  0  0  0  0  0  0
   50.7272   23.2763   42.9051 H   0  0  0  0  0  0  0  0  0  0  0  0
   50.8128   24.3768   45.5134 H   0  0  0  0  0  0  0  0  0  0  0  0
   51.2857   22.7059   45.0040 H   0  0  0  0  0  0  0  0  0  0  0  0
   53.2925   24.9235   44.6462 H   0  0  0  0  0  0  0  0  0  0  0  0
   52.9839   24.3035   46.3116 H   0  0  0  0  0  0  0  0  0  0  0  0
   55.8936   23.0185   47.4718 H   0  0  0  0  0  0  0  0  0  0  0  0
   57.1764   24.7982   48.6522 H   0  0  0  0  0  0  0  0  0  0  0  0
   57.8986   26.8462   47.4270 H   0  0  0  0  0  0  0  0  0  0  0  0
   57.9487   29.4060   43.1416 H   0  0  0  0  0  0  0  0  0  0  0  0
   56.3578   30.2442   43.3095 H   0  0  0  0  0  0  0  0  0  0  0  0
   56.9418   34.6412   46.6714 H   0  0  0  0  0  0  0  0  0  0  0  0
   57.7459   35.0417   45.1159 H   0  0  0  0  0  0  0  0  0  0  0  0
   56.1216   34.2747   45.1159 H   0  0  0  0  0  0  0  0  0  0  0  0
   59.8640   32.9745   50.4868 H   0  0  0  0  0  0  0  0  0  0  0  0
   61.3939   33.9049   52.2248 H   0  0  0  0  0  0  0  0  0  0  0  0
   63.6758   34.6950   51.5913 H   0  0  0  0  0  0  0  0  0  0  0  0
   64.4242   34.5736   49.2121 H   0  0  0  0  0  0  0  0  0  0  0  0
   62.8987   33.6496   47.4675 H   0  0  0  0  0  0  0  0  0  0  0  0
   61.4820   30.2549   48.6984 H   0  0  0  0  0  0  0  0  0  0  0  0
   61.0190   29.4213   47.1760 H   0  0  0  0  0  0  0  0  0  0  0  0
   62.3679   30.6075   47.1760 H   0  0  0  0  0  0  0  0  0  0  0  0
   56.0716   25.3293   43.8102 H   0  0  0  0  0  0  0  0  0  0  0  0
  1  2  1  0
  2  3  1  0
  3  4  1  0
  4  5  1  0
  5  6  2  0
  5  7  1  0
  7  8  2  0
  8  9  1  0
  9 10  2  0
 10 11  1  0
 11 12  1  0
 12 13  1  0
 13 14  2  0
 13 15  1  0
 15 16  1  0
 16 17  1  0
 17 18  2  0
 18 19  1  0
 18 20  1  0
 20 21  2  0
 21 22  1  0
 22 23  1  0
 23 24  2  0
 24 25  1  0
 25 26  2  0
 26 27  1  0
 27 28  2  0
 22 29  1  0
 29 30  1  0
 29 31  2  0
 31 32  1  0
 32 33  2  0
 11 34  2  0
 34  7  1  0
 32 16  1  0
 31 20  1  0
 28 23  1  0
  1 35  1  0
  1 36  1  0
  1 37  1  0
  2 38  1  0
  2 39  1  0
  3 40  1  0
  3 41  1  0
  8 42  1  0
  9 43  1  0
 10 44  1  0
 15 45  1  0
 15 46  1  0
 19 47  1  0
 19 48  1  0
 19 49  1  0
 24 50  1  0
 25 51  1  0
 26 52  1  0
 27 53  1  0
 28 54  1  0
 30 55  1  0
 30 56  1  0
 30 57  1  0
 34 58  1  0
M  CHG  1  12  -1
M  END
>  <UniqueID>  (26) 
24

>  <SMILES>  (26) 
CCCOC(=O)c1cccc([N-]C(=O)Cn2nc(C)c3nn(-c4ccccc4)c(C)c3c2=O)c1

>  <Energy>  (26) 
106.53608172243855

>  <Genealogy>  (26) 
CCCOC(=O)c1cccc([N-]C(=O)Cn2nc(C)c3nn(-c4ccccc4)c(C)c3c2=O)c1 (protonated)
CCCOC(=O)c1cccc([N-]C(=O)Cn2nc(C)c3nn(-c4ccccc4)c(C)c3c2=O)c1 (3D coordinates assigned)
CCCOC(=O)c1cccc([N-]C(=O)Cn2nc(C)c3nn(-c4ccccc4)c(C)c3c2=O)c1 (optimized conformer: 106.53608172243855 kcal/mol)

>  <smiles>  (26) 
CCCOC(=O)c1cccc(NC(=O)Cn2nc(C)c3nn(-c4ccccc4)c(C)c3c2=O)c1

>  <score_type>  (26) 
oracle

>  <origin>  (26) 
adg

>  <m_score__min__energy>  (26) 
-10.6

>  <m_primary>  (26) 
energy

$$$$
26:0
     RDKit          3D

 39 41  0  0  0  0  0  0  0  0999 V2000
   54.1700   25.9500   45.6300 N   0  0  0  0  0  0  0  0  0  0  0  0
   55.3270   25.1170   45.5820 C   0  0  0  0  0  0  0  0  0  0  0  0
   55.2000   23.9090   45.2430 O   0  0  0  0  0  0  0  0  0  0  0  0
   56.6620   25.6610   45.9270 C   0  0  0  0  0  0  0  0  0  0  0  0
   57.0100   25.9110   47.2660 C   0  0  0  0  0  0  0  0  0  0  0  0
   58.2690   26.4270   47.5880 C   0  0  0  0  0  0  0  0  0  0  0  0
   59.1940   26.7220   46.5780 C   0  0  0  0  0  0  0  0  0  0  0  0
   60.5320   27.2300   46.9500 C   0  0  0  0  0  0  0  0  0  0  0  0
   60.7870   28.0530   47.9780 C   0  0  0  0  0  0  0  0  0  0  0  0
   59.8310   29.0380   48.5260 C   0  0  0  0  0  0  0  0  0  0  0  0
   59.0420   28.7990   49.5910 N   0  0  0  0  0  0  0  0  0  0  0  0
   58.4790   29.9950   49.8430 C   0  0  0  0  0  0  0  0  0  0  0  0
   57.6590   30.1760   50.7810 O   0  0  0  0  0  0  0  0  0  0  0  0
   58.8740   30.9870   49.0220 N   0  0  0  0  0  0  0  0  0  0  0  0
   59.7290   30.3780   48.1800 C   0  0  0  0  0  0  0  0  0  0  0  0
   60.4210   31.1050   47.0980 C   0  0  0  0  0  0  0  0  0  0  0  0
   59.8400   31.3820   45.9240 C   0  0  0  0  0  0  0  0  0  0  0  0
   58.5270   30.8290   45.5210 C   0  0  0  0  0  0  0  0  0  0  0  0
   58.2040   29.5210   45.9180 C   0  0  0  0  0  0  0  0  0  0  0  0
   56.9740   28.9560   45.5650 C   0  0  0  0  0  0  0  0  0  0  0  0
   56.0490   29.6970   44.8270 C   0  0  0  0  0  0  0  0  0  0  0  0
   54.8280   29.1330   44.4770 O   0  0  0  0  0  0  0  0  0  0  0  0
   56.3480   31.0070   44.4470 C   0  0  0  0  0  0  0  0  0  0  0  0
   57.5760   31.5800   44.7940 C   0  0  0  0  0  0  0  0  0  0  0  0
   57.8040   32.8780   44.4690 F   0  0  0  0  0  0  0  0  0  0  0  0
   58.8630   26.4430   45.2430 C   0  0  0  0  0  0  0  0  0  0  0  0
   57.6050   25.9290   44.9180 C   0  0  0  0  0  0  0  0  0  0  0  0
   54.0740   26.6940   46.3560 H   0  0  0  0  0  0  0  0  0  0  0  0
   56.2861   25.6990   48.0666 H   0  0  0  0  0  0  0  0  0  0  0  0
   58.5349   26.6024   48.6409 H   0  0  0  0  0  0  0  0  0  0  0  0
   61.3853   26.9076   46.3353 H   0  0  0  0  0  0  0  0  0  0  0  0
   61.7799   27.9903   48.4473 H   0  0  0  0  0  0  0  0  0  0  0  0
   61.4579   31.4331   47.2631 H   0  0  0  0  0  0  0  0  0  0  0  0
   60.3629   32.0522   45.2258 H   0  0  0  0  0  0  0  0  0  0  0  0
   58.9233   28.9368   46.5107 H   0  0  0  0  0  0  0  0  0  0  0  0
   56.7352   27.9263   45.8693 H   0  0  0  0  0  0  0  0  0  0  0  0
   55.6144   31.5911   43.8720 H   0  0  0  0  0  0  0  0  0  0  0  0
   59.5989   26.6302   44.4471 H   0  0  0  0  0  0  0  0  0  0  0  0
   57.3503   25.7326   43.8661 H   0  0  0  0  0  0  0  0  0  0  0  0
  1  2  1  0
  2  3  2  0
  2  4  1  0
  4  5  2  0
  5  6  1  0
  6  7  2  0
  7  8  1  0
  8  9  2  3
  9 10  1  0
 10 11  1  0
 11 12  1  0
 12 13  2  0
 12 14  1  0
 14 15  1  0
 15 16  1  0
 16 17  2  3
 17 18  1  0
 18 19  2  0
 19 20  1  0
 20 21  2  0
 21 22  1  0
 21 23  1  0
 23 24  2  0
 24 25  1  0
  7 26  1  0
 26 27  2  0
 27  4  1  0
 15 10  2  0
 24 18  1  0
  1 28  1  0
  5 29  1  0
  6 30  1  0
  8 31  1  0
  9 32  1  0
 16 33  1  0
 17 34  1  0
 19 35  1  0
 20 36  1  0
 23 37  1  0
 26 38  1  0
 27 39  1  0
M  CHG  4   1  -1  11  -1  14  -1  22  -1
M  END
>  <UniqueID>  (27) 
25

>  <SMILES>  (27) 
[NH-]C(=O)c1ccc(C=Cc2[n-]c(=O)[n-]c2C=Cc2ccc([O-])cc2F)cc1

>  <Energy>  (27) 
85.00549132204927

>  <Genealogy>  (27) 
[NH-]C(=O)c1ccc(C=Cc2[n-]c(=O)[n-]c2C=Cc2ccc([O-])cc2F)cc1 (protonated)
[NH-]C(=O)c1ccc(C=Cc2[n-]c(=O)[n-]c2C=Cc2ccc([O-])cc2F)cc1 (3D coordinates assigned)
[NH-]C(=O)c1ccc(C=Cc2[n-]c(=O)[n-]c2C=Cc2ccc([O-])cc2F)cc1 (optimized conformer: 85.00549132204927 kcal/mol)

>  <smiles>  (27) 
NC(=O)c1ccc(C=Cc2[nH]c(=O)[nH]c2C=Cc2ccc(O)cc2F)cc1

>  <score_type>  (27) 
oracle

>  <origin>  (27) 
adg

>  <m_score__min__energy>  (27) 
-14.57

>  <m_primary>  (27) 
energy

$$$$
27:0
     RDKit          3D

 51 54  0  0  0  0  0  0  0  0999 V2000
   55.1410   26.6360   46.0040 O   0  0  0  0  0  0  0  0  0  0  0  0
   55.6000   25.4610   46.0210 C   0  0  0  0  0  0  0  0  0  0  0  0
   54.7030   24.3440   46.0590 N   0  0  0  0  0  0  0  0  0  0  0  0
   54.3890   23.5240   44.8950 C   0  0  0  0  0  0  0  0  0  0  0  0
   55.6150   22.7950   44.4270 C   0  0  0  0  0  0  0  0  0  0  0  0
   56.5520   22.3090   45.3500 C   0  0  0  0  0  0  0  0  0  0  0  0
   57.6630   21.5980   44.8890 C   0  0  0  0  0  0  0  0  0  0  0  0
   57.8220   21.3690   43.5190 C   0  0  0  0  0  0  0  0  0  0  0  0
   56.8680   21.8660   42.6290 C   0  0  0  0  0  0  0  0  0  0  0  0
   55.7950   22.5620   43.0960 N   0  0  0  0  0  0  0  0  0  0  0  0
   57.0160   25.2270   46.0410 N   0  0  0  0  0  0  0  0  0  0  0  0
   58.0100   26.2610   45.9170 C   0  0  0  0  0  0  0  0  0  0  0  0
   59.3370   26.0590   46.3300 C   0  0  0  0  0  0  0  0  0  0  0  0
   60.2810   27.0750   46.1870 C   0  0  0  0  0  0  0  0  0  0  0  0
   59.9110   28.3100   45.6520 C   0  0  0  0  0  0  0  0  0  0  0  0
   58.5770   28.5540   45.2740 C   0  0  0  0  0  0  0  0  0  0  0  0
   58.1570   29.8630   44.7010 C   0  0  0  0  0  0  0  0  0  0  0  0
   57.4690   29.9540   43.4770 C   0  0  0  0  0  0  0  0  0  0  0  0
   57.1030   31.2060   42.9850 C   0  0  0  0  0  0  0  0  0  0  0  0
   57.4290   32.3600   43.6980 C   0  0  0  0  0  0  0  0  0  0  0  0
   58.1310   32.2500   44.9090 C   0  0  0  0  0  0  0  0  0  0  0  0
   58.5150   33.4170   45.6650 N   0  0  0  0  0  0  0  0  0  0  0  0
   58.7710   34.6780   44.9550 C   0  0  0  0  0  0  0  0  0  0  0  0
   59.7370   35.5550   45.7590 C   0  0  0  0  0  0  0  0  0  0  0  0
   59.3010   35.6890   47.0980 O   0  0  0  0  0  0  0  0  0  0  0  0
   59.3550   34.4320   47.7400 C   0  0  0  0  0  0  0  0  0  0  0  0
   58.3450   33.4610   47.1230 C   0  0  0  0  0  0  0  0  0  0  0  0
   58.4700   31.0120   45.3670 N   0  0  0  0  0  0  0  0  0  0  0  0
   57.6350   27.5170   45.4150 C   0  0  0  0  0  0  0  0  0  0  0  0
   53.6126   22.7929   45.1646 H   0  0  0  0  0  0  0  0  0  0  0  0
   54.0279   24.1748   44.0850 H   0  0  0  0  0  0  0  0  0  0  0  0
   56.4137   22.4858   46.4269 H   0  0  0  0  0  0  0  0  0  0  0  0
   58.4104   21.2195   45.6019 H   0  0  0  0  0  0  0  0  0  0  0  0
   58.6890   20.8036   43.1465 H   0  0  0  0  0  0  0  0  0  0  0  0
   56.9834   21.6950   41.5485 H   0  0  0  0  0  0  0  0  0  0  0  0
   57.3360   24.2590   46.2690 H   0  0  0  0  0  0  0  0  0  0  0  0
   59.6330   25.0946   46.7684 H   0  0  0  0  0  0  0  0  0  0  0  0
   61.3222   26.9026   46.4972 H   0  0  0  0  0  0  0  0  0  0  0  0
   60.6674   29.0985   45.5248 H   0  0  0  0  0  0  0  0  0  0  0  0
   57.2215   29.0432   42.9120 H   0  0  0  0  0  0  0  0  0  0  0  0
   56.5565   31.2841   42.0335 H   0  0  0  0  0  0  0  0  0  0  0  0
   57.1382   33.3490   43.3142 H   0  0  0  0  0  0  0  0  0  0  0  0
   59.2134   34.4577   43.9723 H   0  0  0  0  0  0  0  0  0  0  0  0
   57.8202   35.2165   44.8283 H   0  0  0  0  0  0  0  0  0  0  0  0
   60.7354   35.0933   45.7497 H   0  0  0  0  0  0  0  0  0  0  0  0
   59.7714   36.5535   45.2988 H   0  0  0  0  0  0  0  0  0  0  0  0
   60.3674   34.0155   47.6323 H   0  0  0  0  0  0  0  0  0  0  0  0
   59.1076   34.5688   48.8030 H   0  0  0  0  0  0  0  0  0  0  0  0
   58.5059   32.4554   47.5388 H   0  0  0  0  0  0  0  0  0  0  0  0
   57.3262   33.8035   47.3571 H   0  0  0  0  0  0  0  0  0  0  0  0
   56.5882   27.6941   45.1271 H   0  0  0  0  0  0  0  0  0  0  0  0
  1  2  2  0
  2  3  1  0
  3  4  1  0
  4  5  1  0
  5  6  2  0
  6  7  1  0
  7  8  2  0
  8  9  1  0
  9 10  2  0
  2 11  1  0
 11 12  1  0
 12 13  2  0
 13 14  1  0
 14 15  2  0
 15 16  1  0
 16 17  1  0
 17 18  2  0
 18 19  1  0
 19 20  2  0
 20 21  1  0
 21 22  1  0
 22 23  1  0
 23 24  1  0
 24 25  1  0
 25 26  1  0
 26 27  1  0
 21 28  2  0
 16 29  2  0
 10  5  1  0
 29 12  1  0
 28 17  1  0
 27 22  1  0
  4 30  1  0
  4 31  1  0
  6 32  1  0
  7 33  1  0
  8 34  1  0
  9 35  1  0
 11 36  1  0
 13 37  1  0
 14 38  1  0
 15 39  1  0
 18 40  1  0
 19 41  1  0
 20 42  1  0
 23 43  1  0
 23 44  1  0
 24 45  1  0
 24 46  1  0
 26 47  1  0
 26 48  1  0
 27 49  1  0
 27 50  1  0
 29 51  1  0
M  CHG  1   3  -1
M  END
>  <UniqueID>  (28) 
26

>  <SMILES>  (28) 
O=C([N-]Cc1ccccn1)Nc1cccc(-c2cccc(N3CCOCC3)n2)c1

>  <Energy>  (28) 
64.18443947868404

>  <Genealogy>  (28) 
O=C([N-]Cc1ccccn1)Nc1cccc(-c2cccc(N3CCOCC3)n2)c1 (protonated)
O=C([N-]Cc1ccccn1)Nc1cccc(-c2cccc(N3CCOCC3)n2)c1 (3D coordinates assigned)
O=C([N-]Cc1ccccn1)Nc1cccc(-c2cccc(N3CCOCC3)n2)c1 (nonaromatic ring conformer: 64.18443947868404 kcal/mol)

>  <smiles>  (28) 
O=C(NCc1ccccn1)Nc1cccc(-c2cccc(N3CCOCC3)n2)c1

>  <score_type>  (28) 
oracle

>  <origin>  (28) 
adg

>  <m_score__min__energy>  (28) 
-11.16

>  <m_primary>  (28) 
energy

$$$$
28:0
     RDKit          3D

 53 56  0  0  0  0  0  0  0  0999 V2000
   56.1590   19.9950   44.2280 C   0  0  0  0  0  0  0  0  0  0  0  0
   55.9300   21.2130   43.5250 O   0  0  0  0  0  0  0  0  0  0  0  0
   56.5410   22.4370   43.8420 C   0  0  0  0  0  0  0  0  0  0  0  0
   57.3170   22.5110   45.0030 C   0  0  0  0  0  0  0  0  0  0  0  0
   57.9410   23.7080   45.3680 C   0  0  0  0  0  0  0  0  0  0  0  0
   57.7840   24.8590   44.5770 C   0  0  0  0  0  0  0  0  0  0  0  0
   58.4200   26.1010   44.9260 N   0  0  0  0  0  0  0  0  0  0  0  0
   57.9530   26.9750   45.9680 C   0  0  0  0  0  0  0  0  0  0  0  0
   56.7840   26.8450   46.4220 O   0  0  0  0  0  0  0  0  0  0  0  0
   58.8070   28.0730   46.4780 C   0  0  0  0  0  0  0  0  0  0  0  0
   58.6170   28.5630   47.7780 C   0  0  0  0  0  0  0  0  0  0  0  0
   59.3940   29.5710   48.2500 N   0  0  0  0  0  0  0  0  0  0  0  0
   60.3730   30.1160   47.4860 C   0  0  0  0  0  0  0  0  0  0  0  0
   61.3800   31.4460   48.1360 S   0  0  0  0  0  0  0  0  0  0  0  0
   60.1210   32.0210   49.3280 C   0  0  0  0  0  0  0  0  0  0  0  0
   58.9230   32.5620   48.6020 C   0  0  0  0  0  0  0  0  0  0  0  0
   57.7660   32.3360   49.0510 O   0  0  0  0  0  0  0  0  0  0  0  0
   59.0770   33.2460   47.3480 N   0  0  0  0  0  0  0  0  0  0  0  0
   59.6290   34.6090   47.4000 C   0  0  0  0  0  0  0  0  0  0  0  0
   60.0540   35.1000   46.0130 C   0  0  0  0  0  0  0  0  0  0  0  0
   58.8960   34.9630   45.0240 C   0  0  0  0  0  0  0  0  0  0  0  0
   58.4040   33.5400   44.9790 C   0  0  0  0  0  0  0  0  0  0  0  0
   57.8150   33.0420   43.8040 C   0  0  0  0  0  0  0  0  0  0  0  0
   57.3620   31.7210   43.7480 C   0  0  0  0  0  0  0  0  0  0  0  0
   57.4930   30.8890   44.8610 C   0  0  0  0  0  0  0  0  0  0  0  0
   58.0590   31.3790   46.0420 C   0  0  0  0  0  0  0  0  0  0  0  0
   58.4930   32.7190   46.1280 C   0  0  0  0  0  0  0  0  0  0  0  0
   60.5970   29.6460   46.2320 N   0  0  0  0  0  0  0  0  0  0  0  0
   59.8430   28.6430   45.7120 C   0  0  0  0  0  0  0  0  0  0  0  0
   60.1000   28.2210   44.5530 O   0  0  0  0  0  0  0  0  0  0  0  0
   57.0270   24.7800   43.4000 C   0  0  0  0  0  0  0  0  0  0  0  0
   56.4040   23.5820   43.0350 C   0  0  0  0  0  0  0  0  0  0  0  0
   56.1234   20.1844   45.3110 H   0  0  0  0  0  0  0  0  0  0  0  0
   55.3825   19.2642   43.9579 H   0  0  0  0  0  0  0  0  0  0  0  0
   57.1479   19.5961   43.9579 H   0  0  0  0  0  0  0  0  0  0  0  0
   57.4377   21.6190   45.6352 H   0  0  0  0  0  0  0  0  0  0  0  0
   58.5574   23.7489   46.2782 H   0  0  0  0  0  0  0  0  0  0  0  0
   59.1740   26.4580   44.2960 H   0  0  0  0  0  0  0  0  0  0  0  0
   57.8349   28.1287   48.4181 H   0  0  0  0  0  0  0  0  0  0  0  0
   59.8103   31.1778   49.9624 H   0  0  0  0  0  0  0  0  0  0  0  0
   60.5542   32.8200   49.9477 H   0  0  0  0  0  0  0  0  0  0  0  0
   58.8626   35.2892   47.7998 H   0  0  0  0  0  0  0  0  0  0  0  0
   60.5187   34.5948   48.0468 H   0  0  0  0  0  0  0  0  0  0  0  0
   60.3528   36.1567   46.0779 H   0  0  0  0  0  0  0  0  0  0  0  0
   60.8993   34.4904   45.6610 H   0  0  0  0  0  0  0  0  0  0  0  0
   58.0722   35.6207   45.3383 H   0  0  0  0  0  0  0  0  0  0  0  0
   59.2491   35.2484   44.0221 H   0  0  0  0  0  0  0  0  0  0  0  0
   57.7101   33.6947   42.9248 H   0  0  0  0  0  0  0  0  0  0  0  0
   56.9018   31.3366   42.8258 H   0  0  0  0  0  0  0  0  0  0  0  0
   57.1501   29.8451   44.8090 H   0  0  0  0  0  0  0  0  0  0  0  0
   58.1669   30.7141   46.9116 H   0  0  0  0  0  0  0  0  0  0  0  0
   56.9220   25.6672   42.7582 H   0  0  0  0  0  0  0  0  0  0  0  0
   55.8047   23.5346   42.1138 H   0  0  0  0  0  0  0  0  0  0  0  0
  1  2  1  0
  2  3  1  0
  3  4  2  0
  4  5  1  0
  5  6  2  0
  6  7  1  0
  7  8  1  0
  8  9  2  0
  8 10  1  0
 10 11  2  0
 11 12  1  0
 12 13  2  0
 13 14  1  0
 14 15  1  0
 15 16  1  0
 16 17  2  0
 16 18  1  0
 18 19  1  0
 19 20  1  0
 20 21  1  0
 21 22  1  0
 22 23  2  0
 23 24  1  0
 24 25  2  0
 25 26  1  0
 26 27  2  0
 13 28  1  0
 28 29  1  0
 29 30  2  0
  6 31  1  0
 31 32  2  0
 32  3  1  0
 29 10  1  0
 27 18  1  0
 27 22  1  0
  1 33  1  0
  1 34  1  0
  1 35  1  0
  4 36  1  0
  5 37  1  0
  7 38  1  0
 11 39  1  0
 15 40  1  0
 15 41  1  0
 19 42  1  0
 19 43  1  0
 20 44  1  0
 20 45  1  0
 21 46  1  0
 21 47  1  0
 23 48  1  0
 24 49  1  0
 25 50  1  0
 26 51  1  0
 31 52  1  0
 32 53  1  0
M  CHG  1  28  -1
M  END
>  <UniqueID>  (29) 
27

>  <SMILES>  (29) 
COc1ccc(NC(=O)c2cnc(SCC(=O)N3CCCc4ccccc43)[n-]c2=O)cc1

>  <Energy>  (29) 
67.23534402997659

>  <Genealogy>  (29) 
COc1ccc(NC(=O)c2cnc(SCC(=O)N3CCCc4ccccc43)[n-]c2=O)cc1 (protonated)
COc1ccc(NC(=O)c2cnc(SCC(=O)N3CCCc4ccccc43)[n-]c2=O)cc1 (3D coordinates assigned)
COc1ccc(NC(=O)c2cnc(SCC(=O)N3CCCc4ccccc43)[n-]c2=O)cc1 (nonaromatic ring conformer: 67.23534402997659 kcal/mol)

>  <smiles>  (29) 
COc1ccc(NC(=O)c2cnc(SCC(=O)N3CCCc4ccccc43)[nH]c2=O)cc1

>  <score_type>  (29) 
oracle

>  <origin>  (29) 
adg

>  <m_score__min__energy>  (29) 
-11.140000000000001

>  <m_primary>  (29) 
energy

$$$$
29:0
     RDKit          3D

 69 73  0  0  0  0  0  0  0  0999 V2000
   55.6383   30.5308   42.9935 H   0  0  0  0  0  0  0  0  0  0  0  0
   56.1880   29.6870   43.4360 C   0  0  0  0  0  0  0  0  0  0  0  0
   56.0520   29.4030   44.7970 C   0  0  0  0  0  0  0  0  0  0  0  0
   55.3958   30.0238   45.4246 H   0  0  0  0  0  0  0  0  0  0  0  0
   56.7480   28.3320   45.3620 C   0  0  0  0  0  0  0  0  0  0  0  0
   56.6445   28.1158   46.4356 H   0  0  0  0  0  0  0  0  0  0  0  0
   57.5810   27.5290   44.5620 C   0  0  0  0  0  0  0  0  0  0  0  0
   58.3140   26.3800   45.1510 C   0  0  0  0  0  0  0  0  0  0  0  0
   59.4630   26.5430   45.7510 N   0  0  0  0  0  0  0  0  0  0  0  0
   59.9160   27.7170   46.4450 C   0  0  0  0  0  0  0  0  0  0  0  0
   60.6160   28.6990   45.7400 C   0  0  0  0  0  0  0  0  0  0  0  0
   60.8113   28.5658   44.6657 H   0  0  0  0  0  0  0  0  0  0  0  0
   61.0700   29.8500   46.3910 C   0  0  0  0  0  0  0  0  0  0  0  0
   61.6078   30.6228   45.8222 H   0  0  0  0  0  0  0  0  0  0  0  0
   60.8440   30.0270   47.7680 C   0  0  0  0  0  0  0  0  0  0  0  0
   61.3110   31.2620   48.4460 C   0  0  0  0  0  0  0  0  0  0  0  0
   62.2510   32.0400   47.8430 N   0  0  0  0  0  0  0  0  0  0  0  0
   62.7010   33.1840   48.4170 C   0  0  0  0  0  0  0  0  0  0  0  0
   63.7580   33.9930   47.7340 C   0  0  0  0  0  0  0  0  0  0  0  0
   64.3930   34.4790   48.4893 H   0  0  0  0  0  0  0  0  0  0  0  0
   64.3749   33.3342   47.1053 H   0  0  0  0  0  0  0  0  0  0  0  0
   63.2832   34.7606   47.1053 H   0  0  0  0  0  0  0  0  0  0  0  0
   62.2050   33.5730   49.6610 C   0  0  0  0  0  0  0  0  0  0  0  0
   62.5715   34.4890   50.1473 H   0  0  0  0  0  0  0  0  0  0  0  0
   61.2310   32.7770   50.2820 C   0  0  0  0  0  0  0  0  0  0  0  0
   60.6990   33.1410   51.5740 N   0  0  0  0  0  0  0  0  0  0  0  0
   59.4130   33.8400   51.6890 C   0  0  0  0  0  0  0  0  0  0  0  0
   59.5785   34.9229   51.5897 H   0  0  0  0  0  0  0  0  0  0  0  0
   58.7414   33.4868   50.8927 H   0  0  0  0  0  0  0  0  0  0  0  0
   58.7680   33.5490   53.0520 C   0  0  0  0  0  0  0  0  0  0  0  0
   57.8587   34.1610   53.1451 H   0  0  0  0  0  0  0  0  0  0  0  0
   58.5494   32.4714   53.0840 H   0  0  0  0  0  0  0  0  0  0  0  0
   59.6580   33.8500   54.2030 N   0  0  0  0  0  0  0  0  0  0  0  0
   59.2760   35.1090   54.8620 C   0  0  0  0  0  0  0  0  0  0  0  0
   59.3157   34.9783   55.9535 H   0  0  0  0  0  0  0  0  0  0  0  0
   59.9728   35.9057   54.5626 H   0  0  0  0  0  0  0  0  0  0  0  0
   58.2539   35.3842   54.5626 H   0  0  0  0  0  0  0  0  0  0  0  0
   61.1060   33.8530   53.8870 C   0  0  0  0  0  0  0  0  0  0  0  0
   61.3926   34.8582   53.5442 H   0  0  0  0  0  0  0  0  0  0  0  0
   61.6533   33.5725   54.7990 H   0  0  0  0  0  0  0  0  0  0  0  0
   61.4570   32.8390   52.7940 C   0  0  0  0  0  0  0  0  0  0  0  0
   62.5341   32.8934   52.5776 H   0  0  0  0  0  0  0  0  0  0  0  0
   61.1994   31.8274   53.1407 H   0  0  0  0  0  0  0  0  0  0  0  0
   60.7990   31.6440   49.6540 N   0  0  0  0  0  0  0  0  0  0  0  0
   60.0330   31.0860   50.0920 H   0  0  0  0  0  0  0  0  0  0  0  0
   60.1910   29.0080   48.4850 C   0  0  0  0  0  0  0  0  0  0  0  0
   60.0369   29.1156   49.5688 H   0  0  0  0  0  0  0  0  0  0  0  0
   59.7370   27.8610   47.8310 C   0  0  0  0  0  0  0  0  0  0  0  0
   59.2367   27.0662   48.4037 H   0  0  0  0  0  0  0  0  0  0  0  0
   57.7880   25.0430   44.9960 N   0  0  0  0  0  0  0  0  0  0  0  0
   58.1020   23.9930   45.9760 C   0  0  0  0  0  0  0  0  0  0  0  0
   58.8217   24.3860   46.7092 H   0  0  0  0  0  0  0  0  0  0  0  0
   57.1731   23.6891   46.4808 H   0  0  0  0  0  0  0  0  0  0  0  0
   58.7110   22.7670   45.2770 C   0  0  0  0  0  0  0  0  0  0  0  0
   59.7806   22.9588   45.1066 H   0  0  0  0  0  0  0  0  0  0  0  0
   58.5423   21.9020   45.9352 H   0  0  0  0  0  0  0  0  0  0  0  0
   58.0500   22.4410   43.9190 C   0  0  0  0  0  0  0  0  0  0  0  0
   58.7484   22.7137   43.1141 H   0  0  0  0  0  0  0  0  0  0  0  0
   57.8194   21.3655   43.9135 H   0  0  0  0  0  0  0  0  0  0  0  0
   56.7340   23.1950   43.7010 C   0  0  0  0  0  0  0  0  0  0  0  0
   56.3479   22.9674   42.6965 H   0  0  0  0  0  0  0  0  0  0  0  0
   56.0095   22.8770   44.4652 H   0  0  0  0  0  0  0  0  0  0  0  0
   56.9580   24.7090   43.8260 C   0  0  0  0  0  0  0  0  0  0  0  0
   57.4611   25.0710   42.9172 H   0  0  0  0  0  0  0  0  0  0  0  0
   55.9774   25.1910   43.9529 H   0  0  0  0  0  0  0  0  0  0  0  0
   57.7180   27.8260   43.1970 C   0  0  0  0  0  0  0  0  0  0  0  0
   58.3762   27.2108   42.5659 H   0  0  0  0  0  0  0  0  0  0  0  0
   57.0210   28.9010   42.6360 C   0  0  0  0  0  0  0  0  0  0  0  0
   57.1287   29.1276   41.5650 H   0  0  0  0  0  0  0  0  0  0  0  0
  1  2  1  0
  2  3  2  0
  3  4  1  0
  3  5  1  0
  5  6  1  0
  5  7  2  0
  7  8  1  0
  8  9  2  0
  9 10  1  0
 10 11  2  0
 11 12  1  0
 11 13  1  0
 13 14  1  0
 13 15  2  0
 15 16  1  0
 16 17  2  0
 17 18  1  0
 18 19  1  0
 19 20  1  0
 19 21  1  0
 19 22  1  0
 18 23  2  0
 23 24  1  0
 23 25  1  0
 25 26  1  0
 26 27  1  0
 27 28  1  0
 27 29  1  0
 27 30  1  0
 30 31  1  0
 30 32  1  0
 30 33  1  0
 33 34  1  0
 34 35  1  0
 34 36  1  0
 34 37  1  0
 33 38  1  0
 38 39  1  0
 38 40  1  0
 38 41  1  0
 41 42  1  0
 41 43  1  0
 25 44  2  0
 44 45  1  0
 15 46  1  0
 46 47  1  0
 46 48  2  0
 48 49  1  0
  8 50  1  0
 50 51  1  0
 51 52  1  0
 51 53  1  0
 51 54  1  0
 54 55  1  0
 54 56  1  0
 54 57  1  0
 57 58  1  0
 57 59  1  0
 57 60  1  0
 60 61  1  0
 60 62  1  0
 60 63  1  0
 63 64  1  0
 63 65  1  0
  7 66  1  0
 66 67  1  0
 66 68  2  0
 68 69  1  0
 68  2  1  0
 48 10  1  0
 63 50  1  0
 44 16  1  0
 41 26  1  0
M  CHG  1  44   1
M  END
>  <UniqueID>  (30) 
28

>  <SMILES>  (30) 
Cc1cc(N2CCN(C)CC2)[nH+]c(-c2ccc(/N=C(\c3ccccc3)N3CCCCC3)cc2)n1

>  <Energy>  (30) 
98.6656662443419

>  <Genealogy>  (30) 
Cc1cc(N2CCN(C)CC2)[nH+]c(-c2ccc(N=C(c3ccccc3)N3CCCCC3)cc2)n1 (protonated)
Cc1cc(N2CCN(C)CC2)[nH+]c(-c2ccc(/N=C(\c3ccccc3)N3CCCCC3)cc2)n1 (cis-trans isomerization)
Cc1cc(N2CCN(C)CC2)[nH+]c(-c2ccc(/N=C(\c3ccccc3)N3CCCCC3)cc2)n1 (3D coordinates assigned)
Cc1cc(N2CCN(C)CC2)[nH+]c(-c2ccc(/N=C(\c3ccccc3)N3CCCCC3)cc2)n1 (nonaromatic ring conformer: 98.6656662443419 kcal/mol)

>  <smiles>  (30) 
Cc1cc(N2CCN(C)CC2)nc(-c2ccc(N=C(c3ccccc3)N3CCCCC3)cc2)n1

>  <score_type>  (30) 
oracle

>  <origin>  (30) 
adg

>  <m_score__min__energy>  (30) 
-7.5199999999999996

>  <m_primary>  (30) 
energy

$$$$
30:0
     RDKit          3D

 49 53  0  0  0  0  0  0  0  0999 V2000
   52.9120   29.0000   50.9440 H   0  0  0  0  0  0  0  0  0  0  0  0
   52.0850   29.2150   50.4010 O   0  0  0  0  0  0  0  0  0  0  0  0
   51.6870   30.5330   50.2040 C   0  0  0  0  0  0  0  0  0  0  0  0
   50.9980   30.9550   49.1300 N   0  0  0  0  0  0  0  0  0  0  0  0
   50.8480   32.2730   49.3760 C   0  0  0  0  0  0  0  0  0  0  0  0
   50.2450   33.0470   48.5880 O   0  0  0  0  0  0  0  0  0  0  0  0
   51.3980   32.7010   50.5340 N   0  0  0  0  0  0  0  0  0  0  0  0
   51.9290   31.5830   51.0610 C   0  0  0  0  0  0  0  0  0  0  0  0
   52.6940   31.5020   52.3230 C   0  0  0  0  0  0  0  0  0  0  0  0
   52.6384   32.3635   53.0047 H   0  0  0  0  0  0  0  0  0  0  0  0
   56.5490   28.8280   53.0370 C   0  0  0  0  0  0  0  0  0  0  0  0
   53.0900   29.2580   53.3190 C   0  0  0  0  0  0  0  0  0  0  0  0
   52.0649   28.9740   53.5992 H   0  0  0  0  0  0  0  0  0  0  0  0
   54.1930   28.4950   53.5180 N   0  0  0  0  0  0  0  0  0  0  0  0
   55.2280   29.1740   53.0520 N   0  0  0  0  0  0  0  0  0  0  0  0
   53.4520   30.4600   52.7040 C   0  0  0  0  0  0  0  0  0  0  0  0
   56.9950   27.6940   53.4990 N   0  0  0  0  0  0  0  0  0  0  0  0
   57.6110   27.4680   54.8030 C   0  0  0  0  0  0  0  0  0  0  0  0
   58.0592   26.4865   54.5891 H   0  0  0  0  0  0  0  0  0  0  0  0
   58.0970   28.7340   55.4840 C   0  0  0  0  0  0  0  0  0  0  0  0
   58.9858   28.7041   56.1314 H   0  0  0  0  0  0  0  0  0  0  0  0
   58.3787   29.7416   55.1443 H   0  0  0  0  0  0  0  0  0  0  0  0
   56.8040   28.0730   55.9360 C   0  0  0  0  0  0  0  0  0  0  0  0
   56.7572   27.5650   56.9105 H   0  0  0  0  0  0  0  0  0  0  0  0
   55.7623   28.4043   56.0590 H   0  0  0  0  0  0  0  0  0  0  0  0
   57.4330   29.7170   52.5070 N   0  0  0  0  0  0  0  0  0  0  0  0
   57.0090   30.9170   52.0040 C   0  0  0  0  0  0  0  0  0  0  0  0
   57.9810   31.8660   51.4440 C   0  0  0  0  0  0  0  0  0  0  0  0
   58.8880   31.6180   50.0510 S   0  0  0  0  0  0  0  0  0  0  0  0
   59.7030   33.0940   50.0840 C   0  0  0  0  0  0  0  0  0  0  0  0
   60.6600   33.6190   49.0840 C   0  0  0  0  0  0  0  0  0  0  0  0
   61.4150   34.5700   49.4210 O   0  0  0  0  0  0  0  0  0  0  0  0
   60.8030   33.0840   47.7570 N   0  0  0  0  0  0  0  0  0  0  0  0
   60.7910   33.8140   46.4940 C   0  0  0  0  0  0  0  0  0  0  0  0
   60.8262   33.0941   45.6630 H   0  0  0  0  0  0  0  0  0  0  0  0
   61.6665   34.4794   46.4677 H   0  0  0  0  0  0  0  0  0  0  0  0
   59.5540   34.6510   46.3640 C   0  0  0  0  0  0  0  0  0  0  0  0
   59.6400   35.9020   46.4960 O   0  0  0  0  0  0  0  0  0  0  0  0
   58.3200   34.0470   46.0990 O   0  0  0  0  0  0  0  0  0  0  0  0
   57.5930   33.3250   47.0840 C   0  0  0  0  0  0  0  0  0  0  0  0
   57.9154   33.6452   48.0858 H   0  0  0  0  0  0  0  0  0  0  0  0
   56.5176   33.5228   46.9643 H   0  0  0  0  0  0  0  0  0  0  0  0
   57.7833   32.2482   46.9643 H   0  0  0  0  0  0  0  0  0  0  0  0
   59.2440   33.8090   51.1900 C   0  0  0  0  0  0  0  0  0  0  0  0
   59.5974   34.8203   51.4396 H   0  0  0  0  0  0  0  0  0  0  0  0
   58.2920   33.1220   51.9540 C   0  0  0  0  0  0  0  0  0  0  0  0
   57.8360   33.5346   52.8661 H   0  0  0  0  0  0  0  0  0  0  0  0
   55.6840   31.2390   52.0280 N   0  0  0  0  0  0  0  0  0  0  0  0
   54.8160   30.3460   52.5600 C   0  0  0  0  0  0  0  0  0  0  0  0
  1  2  1  0
  2  3  1  0
  3  4  1  0
  4  5  1  0
  5  6  2  0
  5  7  1  0
  7  8  1  0
  8  9  1  0
  9 10  1  0
  9 11  2  0
 11 12  1  0
 12 13  1  0
 12 14  2  0
 14 15  1  0
 15 16  1  0
 16 17  2  0
 17 18  1  0
 18 19  1  0
 18 20  1  0
 20 21  1  0
 20 22  1  0
 20 23  1  0
 23 24  1  0
 23 25  1  0
 16 26  1  0
 26 27  2  0
 27 28  1  0
 28 29  1  0
 29 30  1  0
 30 31  1  0
 31 32  2  0
 31 33  1  0
 33 34  1  0
 34 35  1  0
 34 36  1  0
 34 37  1  0
 37 38  2  0
 37 39  1  0
 39 40  1  0
 40 41  1  0
 40 42  1  0
 40 43  1  0
 30 44  2  0
 44 45  1  0
 44 46  1  0
 46 47  1  0
 27 48  1  0
 48 49  2  0
  8  3  2  0
 49 11  1  0
 49 15  1  0
 23 18  1  0
 46 28  2  0
M  CHG  3   4  -1   7  -1  33  -1
M  END
>  <UniqueID>  (31) 
29

>  <SMILES>  (31) 
COC(=O)C[N-]C(=O)c1ccc(-c2n/c(=N/C3CC3)n3nc/c(=C\c4[n-]c(=O)[n-]c4O)c3n2)s1

>  <Energy>  (31) 
415.7954613446378

>  <Genealogy>  (31) 
COC(=O)C[N-]C(=O)c1ccc(-c2nc(=NC3CC3)n3ncc(=Cc4[n-]c(=O)[n-]c4O)c3n2)s1 (protonated)
COC(=O)C[N-]C(=O)c1ccc(-c2n/c(=N/C3CC3)n3nc/c(=C\c4[n-]c(=O)[n-]c4O)c3n2)s1 (cis-trans isomerization)
COC(=O)C[N-]C(=O)c1ccc(-c2n/c(=N/C3CC3)n3nc/c(=C\c4[n-]c(=O)[n-]c4O)c3n2)s1 (3D coordinates assigned)
COC(=O)C[N-]C(=O)c1ccc(-c2n/c(=N/C3CC3)n3nc/c(=C\c4[n-]c(=O)[n-]c4O)c3n2)s1 (nonaromatic ring conformer: 415.7954613446378 kcal/mol)

>  <smiles>  (31) 
COC(=O)CNC(=O)c1ccc(-c2nc(=NC3CC3)n3ncc(=Cc4[nH]c(=O)[nH]c4O)c3n2)s1

>  <score_type>  (31) 
oracle

>  <origin>  (31) 
adg

>  <m_score__min__energy>  (31) 
-13.57

>  <m_primary>  (31) 
energy

$$$$
31:0
     RDKit          3D

 42 44  0  0  0  0  0  0  0  0999 V2000
   61.0910   28.6320   44.8530 C   0  0  0  0  0  0  0  0  0  0  0  0
   59.8950   28.8480   45.4100 C   0  0  0  0  0  0  0  0  0  0  0  0
   58.8590   29.1550   44.6610 O   0  0  0  0  0  0  0  0  0  0  0  0
   57.8080   29.3190   45.4230 C   0  0  0  0  0  0  0  0  0  0  0  0
   56.4790   29.6750   44.9120 C   0  0  0  0  0  0  0  0  0  0  0  0
   55.5570   28.8150   44.8990 O   0  0  0  0  0  0  0  0  0  0  0  0
   56.2410   31.0020   44.4350 N   0  0  0  0  0  0  0  0  0  0  0  0
   57.2820   32.0170   44.3060 C   0  0  0  0  0  0  0  0  0  0  0  0
   57.0060   33.2110   45.2270 C   0  0  0  0  0  0  0  0  0  0  0  0
   58.2750   33.7430   45.8270 C   0  0  0  0  0  0  0  0  0  0  0  0
   59.1220   34.6920   45.2640 C   0  0  0  0  0  0  0  0  0  0  0  0
   60.1260   34.9940   46.1190 N   0  0  0  0  0  0  0  0  0  0  0  0
   59.9130   34.2520   47.2200 C   0  0  0  0  0  0  0  0  0  0  0  0
   60.6740   34.2340   48.3880 C   0  0  0  0  0  0  0  0  0  0  0  0
   60.2530   33.3930   49.4340 C   0  0  0  0  0  0  0  0  0  0  0  0
   59.0920   32.6000   49.2930 C   0  0  0  0  0  0  0  0  0  0  0  0
   58.3420   32.6400   48.1030 C   0  0  0  0  0  0  0  0  0  0  0  0
   58.7880   33.4790   47.0820 C   0  0  0  0  0  0  0  0  0  0  0  0
   58.1440   29.1140   46.7410 C   0  0  0  0  0  0  0  0  0  0  0  0
   59.5020   28.8050   46.7670 C   0  0  0  0  0  0  0  0  0  0  0  0
   60.2050   28.5350   47.9040 C   0  0  0  0  0  0  0  0  0  0  0  0
   60.4490   27.0990   48.3110 C   0  0  0  0  0  0  0  0  0  0  0  0
   60.7660   29.6070   48.7990 C   0  0  0  0  0  0  0  0  0  0  0  0
   61.9539   28.3755   45.4852 H   0  0  0  0  0  0  0  0  0  0  0  0
   61.2122   28.7108   43.7625 H   0  0  0  0  0  0  0  0  0  0  0  0
   58.2519   31.5729   44.5744 H   0  0  0  0  0  0  0  0  0  0  0  0
   57.2948   32.3740   43.2656 H   0  0  0  0  0  0  0  0  0  0  0  0
   56.5235   34.0091   44.6438 H   0  0  0  0  0  0  0  0  0  0  0  0
   56.3506   32.8746   46.0439 H   0  0  0  0  0  0  0  0  0  0  0  0
   58.9936   35.1343   44.2650 H   0  0  0  0  0  0  0  0  0  0  0  0
   60.8990   35.6770   45.9590 H   0  0  0  0  0  0  0  0  0  0  0  0
   61.5747   34.8574   48.4884 H   0  0  0  0  0  0  0  0  0  0  0  0
   60.8318   33.3524   50.3685 H   0  0  0  0  0  0  0  0  0  0  0  0
   58.7724   31.9472   50.1187 H   0  0  0  0  0  0  0  0  0  0  0  0
   57.4346   32.0301   47.9821 H   0  0  0  0  0  0  0  0  0  0  0  0
   57.4700   29.1812   47.6077 H   0  0  0  0  0  0  0  0  0  0  0  0
   60.4614   27.0260   49.4085 H   0  0  0  0  0  0  0  0  0  0  0  0
   59.6461   26.4628   47.9103 H   0  0  0  0  0  0  0  0  0  0  0  0
   61.4170   26.7637   47.9103 H   0  0  0  0  0  0  0  0  0  0  0  0
   60.6167   29.3217   49.8508 H   0  0  0  0  0  0  0  0  0  0  0  0
   61.8414   29.7250   48.6002 H   0  0  0  0  0  0  0  0  0  0  0  0
   60.2499   30.5578   48.6002 H   0  0  0  0  0  0  0  0  0  0  0  0
  1  2  2  0
  2  3  1  0
  3  4  1  0
  4  5  1  0
  5  6  2  0
  5  7  1  0
  7  8  1  0
  8  9  1  0
  9 10  1  0
 10 11  2  0
 11 12  1  0
 12 13  1  0
 13 14  2  0
 14 15  1  0
 15 16  2  0
 16 17  1  0
 17 18  2  0
  4 19  2  0
 19 20  1  0
 20 21  2  3
 21 22  1  0
 21 23  1  0
 20  2  1  0
 18 10  1  0
 18 13  1  0
  1 24  1  0
  1 25  1  0
  8 26  1  0
  8 27  1  0
  9 28  1  0
  9 29  1  0
 11 30  1  0
 12 31  1  0
 14 32  1  0
 15 33  1  0
 16 34  1  0
 17 35  1  0
 19 36  1  0
 22 37  1  0
 22 38  1  0
 22 39  1  0
 23 40  1  0
 23 41  1  0
 23 42  1  0
M  CHG  1   7  -1
M  END
>  <UniqueID>  (32) 
30

>  <SMILES>  (32) 
C=c1oc(C(=O)[N-]CCc2c[nH]c3ccccc23)cc1=C(C)C

>  <Energy>  (32) 
103.30799336676608

>  <Genealogy>  (32) 
C=c1oc(C(=O)[N-]CCc2c[nH]c3ccccc23)cc1=C(C)C (protonated)
C=c1oc(C(=O)[N-]CCc2c[nH]c3ccccc23)cc1=C(C)C (3D coordinates assigned)
C=c1oc(C(=O)[N-]CCc2c[nH]c3ccccc23)cc1=C(C)C (optimized conformer: 103.30799336676608 kcal/mol)

>  <smiles>  (32) 
C=c1oc(C(=O)NCCc2c[nH]c3ccccc23)cc1=C(C)C

>  <score_type>  (32) 
oracle

>  <origin>  (32) 
adg

>  <m_score__min__energy>  (32) 
-9.6300000000000008

>  <m_primary>  (32) 
energy

$$$$
32:0
     RDKit          3D

 45 47  0  0  0  0  0  0  0  0999 V2000
   53.9340   29.5070   54.8300 C   0  0  0  0  0  0  0  0  0  0  0  0
   54.3990   30.0750   53.7050 C   0  0  0  0  0  0  0  0  0  0  0  0
   53.6520   30.4210   52.5650 C   0  0  0  0  0  0  0  0  0  0  0  0
   52.3230   30.4370   52.3440 C   0  0  0  0  0  0  0  0  0  0  0  0
   51.6640   30.8200   51.0870 C   0  0  0  0  0  0  0  0  0  0  0  0
   51.6650   30.0540   49.9830 N   0  0  0  0  0  0  0  0  0  0  0  0
   51.0760   30.8410   49.0570 C   0  0  0  0  0  0  0  0  0  0  0  0
   50.8760   30.4610   47.8730 O   0  0  0  0  0  0  0  0  0  0  0  0
   50.7280   32.0700   49.4940 N   0  0  0  0  0  0  0  0  0  0  0  0
   51.1220   32.0470   50.7780 C   0  0  0  0  0  0  0  0  0  0  0  0
   51.0130   33.1330   51.6370 O   0  0  0  0  0  0  0  0  0  0  0  0
   54.5710   30.8090   51.6060 C   0  0  0  0  0  0  0  0  0  0  0  0
   55.8150   30.7410   52.1920 C   0  0  0  0  0  0  0  0  0  0  0  0
   57.0630   31.1130   51.5060 C   0  0  0  0  0  0  0  0  0  0  0  0
   57.0980   32.2000   50.8670 O   0  0  0  0  0  0  0  0  0  0  0  0
   58.1850   30.1930   51.4710 N   0  0  1  0  0  0  0  0  0  0  0  0
   58.5130   29.7870   50.0900 C   0  0  0  0  0  0  0  0  0  0  0  0
   59.0290   30.9540   49.2350 C   0  0  0  0  0  0  0  0  0  0  0  0
   60.0510   31.7390   49.9350 N   0  0  0  0  0  0  0  0  0  0  0  0
   60.8720   32.6810   49.1700 C   0  0  0  0  0  0  0  0  0  0  0  0
   60.1300   31.7350   51.3720 C   0  0  0  0  0  0  0  0  0  0  0  0
   60.8900   32.5450   51.9690 O   0  0  0  0  0  0  0  0  0  0  0  0
   59.3700   30.7200   52.1820 C   0  0  0  0  0  0  0  0  0  0  0  0
   55.7200   30.2990   53.4680 N   0  0  0  0  0  0  0  0  0  0  0  0
   56.8260   30.2100   54.4340 C   0  0  0  0  0  0  0  0  0  0  0  0
   57.5130   28.8530   54.3310 C   0  0  0  0  0  0  0  0  0  0  0  0
   54.6224   29.2831   55.6582 H   0  0  0  0  0  0  0  0  0  0  0  0
   52.8648   29.2658   54.9230 H   0  0  0  0  0  0  0  0  0  0  0  0
   51.6729   30.1366   53.1789 H   0  0  0  0  0  0  0  0  0  0  0  0
   54.3498   31.1137   50.5724 H   0  0  0  0  0  0  0  0  0  0  0  0
   57.8980   29.3200   51.9740 H   0  0  0  0  0  0  0  0  0  0  0  0
   59.2889   29.0082   50.1272 H   0  0  0  0  0  0  0  0  0  0  0  0
   57.5876   29.4178   49.6239 H   0  0  0  0  0  0  0  0  0  0  0  0
   59.4640   30.5503   48.3088 H   0  0  0  0  0  0  0  0  0  0  0  0
   58.1793   31.6184   49.0193 H   0  0  0  0  0  0  0  0  0  0  0  0
   61.4332   33.3250   49.8630 H   0  0  0  0  0  0  0  0  0  0  0  0
   61.5767   32.1225   48.5363 H   0  0  0  0  0  0  0  0  0  0  0  0
   60.2225   33.3027   48.5363 H   0  0  0  0  0  0  0  0  0  0  0  0
   60.0423   29.8811   52.4151 H   0  0  0  0  0  0  0  0  0  0  0  0
   59.0141   31.2220   53.0938 H   0  0  0  0  0  0  0  0  0  0  0  0
   57.5575   31.0037   54.2218 H   0  0  0  0  0  0  0  0  0  0  0  0
   56.4228   30.3298   55.4504 H   0  0  0  0  0  0  0  0  0  0  0  0
   57.7099   28.4641   55.3410 H   0  0  0  0  0  0  0  0  0  0  0  0
   56.8611   28.1522   53.7889 H   0  0  0  0  0  0  0  0  0  0  0  0
   58.4637   28.9635   53.7889 H   0  0  0  0  0  0  0  0  0  0  0  0
  1  2  2  0
  2  3  1  0
  3  4  2  3
  4  5  1  0
  5  6  1  0
  6  7  1  0
  7  8  2  0
  7  9  1  0
  9 10  1  0
 10 11  1  0
  3 12  1  0
 12 13  2  0
 13 14  1  0
 14 15  2  0
 14 16  1  0
 16 17  1  0
 17 18  1  0
 18 19  1  0
 19 20  1  0
 19 21  1  0
 21 22  2  0
 21 23  1  0
 13 24  1  0
 24 25  1  0
 25 26  1  0
 24  2  1  0
 10  5  2  0
 23 16  1  0
  1 27  1  0
  1 28  1  0
  4 29  1  0
 12 30  1  0
 16 31  1  1
 17 32  1  0
 17 33  1  0
 18 34  1  0
 18 35  1  0
 20 36  1  0
 20 37  1  0
 20 38  1  0
 23 39  1  0
 23 40  1  0
 25 41  1  0
 25 42  1  0
 26 43  1  0
 26 44  1  0
 26 45  1  0
M  CHG  4   6  -1   9  -1  11  -1  16   1
M  END
>  <UniqueID>  (33) 
31

>  <SMILES>  (33) 
C=c1c(=Cc2[n-]c(=O)[n-]c2[O-])cc(C(=O)[N@H+]2CCN(C)C(=O)C2)n1CC

>  <Energy>  (33) 
124.18826393467873

>  <Genealogy>  (33) 
C=c1c(=Cc2[n-]c(=O)[n-]c2[O-])cc(C(=O)[NH+]2CCN(C)C(=O)C2)n1CC (protonated)
C=c1c(=Cc2[n-]c(=O)[n-]c2[O-])cc(C(=O)[N@H+]2CCN(C)C(=O)C2)n1CC (chirality)
C=c1c(=Cc2[n-]c(=O)[n-]c2[O-])cc(C(=O)[N@H+]2CCN(C)C(=O)C2)n1CC (3D coordinates assigned)
C=c1c(=Cc2[n-]c(=O)[n-]c2[O-])cc(C(=O)[N@H+]2CCN(C)C(=O)C2)n1CC (nonaromatic ring conformer: 124.18826393467873 kcal/mol)

>  <smiles>  (33) 
C=c1c(=Cc2[nH]c(=O)[nH]c2O)cc(C(=O)N2CCN(C)C(=O)C2)n1CC

>  <score_type>  (33) 
oracle

>  <origin>  (33) 
adg

>  <m_score__min__energy>  (33) 
-14.98

>  <m_primary>  (33) 
energy

$$$$
33:0
     RDKit          3D

 38 41  0  0  0  0  0  0  0  0999 V2000
   58.5026   27.0289   47.6097 H   0  0  0  0  0  0  0  0  0  0  0  0
   58.5750   28.1260   47.5750 C   0  0  0  0  0  0  0  0  0  0  0  0
   58.9436   28.6808   48.4504 H   0  0  0  0  0  0  0  0  0  0  0  0
   58.2150   28.7850   46.4690 C   0  0  0  0  0  0  0  0  0  0  0  0
   57.8610   28.2550   45.2180 C   0  0  0  0  0  0  0  0  0  0  0  0
   57.5990   26.9920   44.8350 C   0  0  0  0  0  0  0  0  0  0  0  0
   57.7679   26.7427   43.7770 H   0  0  0  0  0  0  0  0  0  0  0  0
   57.1060   25.9150   45.7090 C   0  0  0  0  0  0  0  0  0  0  0  0
   57.8760   24.9480   46.2420 N   0  0  0  0  0  0  0  0  0  0  0  0
   57.0290   24.2970   47.0700 C   0  0  0  0  0  0  0  0  0  0  0  0
   57.3820   23.2990   47.7500 O   0  0  0  0  0  0  0  0  0  0  0  0
   55.7800   24.8060   47.1180 N   0  0  0  0  0  0  0  0  0  0  0  0
   55.8520   25.8380   46.2620 C   0  0  0  0  0  0  0  0  0  0  0  0
   54.7930   26.6970   45.9970 O   0  0  0  0  0  0  0  0  0  0  0  0
   57.7910   29.3350   44.3530 C   0  0  0  0  0  0  0  0  0  0  0  0
   57.5717   29.3008   43.2756 H   0  0  0  0  0  0  0  0  0  0  0  0
   58.0500   30.4620   45.1060 C   0  0  0  0  0  0  0  0  0  0  0  0
   57.9900   31.8720   44.6060 C   0  0  0  0  0  0  0  0  0  0  0  0
   58.5074   31.9379   43.6375 H   0  0  0  0  0  0  0  0  0  0  0  0
   56.9378   32.1694   44.4863 H   0  0  0  0  0  0  0  0  0  0  0  0
   58.6560   32.7930   45.5910 C   0  0  0  0  0  0  0  0  0  0  0  0
   57.9320   33.8390   46.1800 C   0  0  0  0  0  0  0  0  0  0  0  0
   56.8823   34.0060   45.8968 H   0  0  0  0  0  0  0  0  0  0  0  0
   58.5380   34.6700   47.1250 C   0  0  0  0  0  0  0  0  0  0  0  0
   57.9673   35.4945   47.5773 H   0  0  0  0  0  0  0  0  0  0  0  0
   59.8680   34.4560   47.4970 C   0  0  0  0  0  0  0  0  0  0  0  0
   60.3403   35.1153   48.2401 H   0  0  0  0  0  0  0  0  0  0  0  0
   60.6060   33.4040   46.9280 C   0  0  0  0  0  0  0  0  0  0  0  0
   62.0100   33.1700   47.3300 C   0  0  0  0  0  0  0  0  0  0  0  0
   63.0590   33.8410   46.8170 N   0  0  0  0  0  0  0  0  0  0  0  0
   64.1400   33.3640   47.4110 N   0  0  0  0  0  0  0  0  0  0  0  0
   63.7240   32.4180   48.2710 C   0  0  0  0  0  0  0  0  0  0  0  0
   64.3996   31.8373   48.9162 H   0  0  0  0  0  0  0  0  0  0  0  0
   62.3870   32.2620   48.2530 N   0  0  0  0  0  0  0  0  0  0  0  0
   59.9880   32.5720   45.9770 C   0  0  0  0  0  0  0  0  0  0  0  0
   60.5535   31.7403   45.5314 H   0  0  0  0  0  0  0  0  0  0  0  0
   58.2890   30.1290   46.3870 N   0  0  0  0  0  0  0  0  0  0  0  0
   58.5310   30.7920   47.1590 H   0  0  0  0  0  0  0  0  0  0  0  0
  1  2  1  0
  2  3  1  0
  2  4  2  0
  4  5  1  0
  5  6  2  0
  6  7  1  0
  6  8  1  0
  8  9  1  0
  9 10  1  0
 10 11  2  0
 10 12  1  0
 12 13  1  0
 13 14  1  0
  5 15  1  0
 15 16  1  0
 15 17  2  0
 17 18  1  0
 18 19  1  0
 18 20  1  0
 18 21  1  0
 21 22  2  0
 22 23  1  0
 22 24  1  0
 24 25  1  0
 24 26  2  0
 26 27  1  0
 26 28  1  0
 28 29  1  0
 29 30  2  0
 30 31  1  0
 31 32  1  0
 32 33  1  0
 32 34  2  0
 28 35  2  0
 35 36  1  0
 17 37  1  0
 37 38  1  0
 37  4  1  0
 13  8  2  0
 35 21  1  0
 34 29  1  0
M  CHG  4   9  -1  12  -1  14  -1  31  -1
M  END
>  <UniqueID>  (34) 
32

>  <SMILES>  (34) 
C=c1[nH]c(Cc2cccc(-c3nc[n-]n3)c2)c/c1=C/c1[n-]c(=O)[n-]c1[O-]

>  <Energy>  (34) 
139.27946342266483

>  <Genealogy>  (34) 
C=c1[nH]c(Cc2cccc(-c3nc[n-]n3)c2)cc1=Cc1[n-]c(=O)[n-]c1[O-] (protonated)
C=c1[nH]c(Cc2cccc(-c3nc[n-]n3)c2)c/c1=C/c1[n-]c(=O)[n-]c1[O-] (cis-trans isomerization)
C=c1[nH]c(Cc2cccc(-c3nc[n-]n3)c2)c/c1=C/c1[n-]c(=O)[n-]c1[O-] (3D coordinates assigned)
C=c1[nH]c(Cc2cccc(-c3nc[n-]n3)c2)c/c1=C/c1[n-]c(=O)[n-]c1[O-] (optimized conformer: 139.27946342266483 kcal/mol)

>  <smiles>  (34) 
C=c1[nH]c(Cc2cccc(-c3nc[nH]n3)c2)cc1=Cc1[nH]c(=O)[nH]c1O

>  <score_type>  (34) 
oracle

>  <origin>  (34) 
adg

>  <m_score__min__energy>  (34) 
-17.780000000000001

>  <m_primary>  (34) 
energy

$$$$
34:0
     RDKit          3D

 59 62  0  0  0  0  0  0  0  0999 V2000
   58.3450   33.0830   51.7400 C   0  0  0  0  0  0  0  0  0  0  0  0
   59.8380   32.8800   51.7080 C   0  0  0  0  0  0  0  0  0  0  0  0
   60.4370   32.1120   52.7180 C   0  0  0  0  0  0  0  0  0  0  0  0
   61.8110   31.8850   52.7140 C   0  0  0  0  0  0  0  0  0  0  0  0
   62.6080   32.4270   51.7090 C   0  0  0  0  0  0  0  0  0  0  0  0
   62.0430   33.2300   50.7050 C   0  0  0  0  0  0  0  0  0  0  0  0
   62.8590   33.7550   49.6440 N   0  0  0  0  0  0  0  0  0  0  0  0
   63.8790   33.0470   48.9300 C   0  0  0  0  0  0  0  0  0  0  0  0
   65.0910   33.1620   49.2520 O   0  0  0  0  0  0  0  0  0  0  0  0
   63.4960   32.1620   47.7860 C   0  0  0  0  0  0  0  0  0  0  0  0
   62.0410   32.2570   47.5400 N   0  0  0  0  0  0  0  0  0  0  0  0
   61.5510   33.2430   46.7290 C   0  0  0  0  0  0  0  0  0  0  0  0
   62.3410   34.0690   46.1880 O   0  0  0  0  0  0  0  0  0  0  0  0
   60.1770   33.3390   46.4870 C   0  0  0  0  0  0  0  0  0  0  0  0
   59.6610   34.3260   45.6220 C   0  0  0  0  0  0  0  0  0  0  0  0
   58.2940   34.3970   45.3660 C   0  0  0  0  0  0  0  0  0  0  0  0
   57.4280   33.4850   45.9580 C   0  0  0  0  0  0  0  0  0  0  0  0
   57.9190   32.5040   46.8210 C   0  0  0  0  0  0  0  0  0  0  0  0
   59.3050   32.4210   47.1180 C   0  0  0  0  0  0  0  0  0  0  0  0
   59.8210   31.4820   47.9910 N   0  0  0  0  0  0  0  0  0  0  0  0
   58.9520   30.5290   48.7210 C   0  0  0  0  0  0  0  0  0  0  0  0
   59.3250   29.1200   48.3800 C   0  0  0  0  0  0  0  0  0  0  0  0
   59.6870   28.3260   49.2890 O   0  0  0  0  0  0  0  0  0  0  0  0
   59.2280   28.6700   47.0240 N   0  0  0  0  0  0  0  0  0  0  0  0
   57.9810   28.2430   46.4000 C   0  0  0  0  0  0  0  0  0  0  0  0
   57.5980   29.1830   45.2880 C   0  0  0  0  0  0  0  0  0  0  0  0
   58.5440   30.0680   44.7420 C   0  0  0  0  0  0  0  0  0  0  0  0
   58.1760   30.9490   43.7220 C   0  0  0  0  0  0  0  0  0  0  0  0
   56.8640   30.9550   43.2410 C   0  0  0  0  0  0  0  0  0  0  0  0
   55.9170   30.0800   43.7800 C   0  0  0  0  0  0  0  0  0  0  0  0
   56.2810   29.1980   44.8010 C   0  0  0  0  0  0  0  0  0  0  0  0
   61.1830   31.3930   48.1740 C   0  0  0  0  0  0  0  0  0  0  0  0
   61.6560   30.5050   48.9390 O   0  0  0  0  0  0  0  0  0  0  0  0
   60.6470   33.4670   50.7000 C   0  0  0  0  0  0  0  0  0  0  0  0
   60.0210   34.2910   49.5970 C   0  0  0  0  0  0  0  0  0  0  0  0
   58.0036   33.1294   52.7846 H   0  0  0  0  0  0  0  0  0  0  0  0
   58.0919   34.0238   51.2294 H   0  0  0  0  0  0  0  0  0  0  0  0
   57.8498   32.2439   51.2294 H   0  0  0  0  0  0  0  0  0  0  0  0
   59.8161   31.6856   53.5197 H   0  0  0  0  0  0  0  0  0  0  0  0
   62.2682   31.2755   53.5074 H   0  0  0  0  0  0  0  0  0  0  0  0
   63.6892   32.2245   51.7015 H   0  0  0  0  0  0  0  0  0  0  0  0
   64.0397   32.4774   46.8833 H   0  0  0  0  0  0  0  0  0  0  0  0
   63.7541   31.1213   48.0316 H   0  0  0  0  0  0  0  0  0  0  0  0
   60.3435   35.0453   45.1458 H   0  0  0  0  0  0  0  0  0  0  0  0
   57.8996   35.1747   44.6954 H   0  0  0  0  0  0  0  0  0  0  0  0
   56.3500   33.5367   45.7452 H   0  0  0  0  0  0  0  0  0  0  0  0
   57.2225   31.7852   47.2774 H   0  0  0  0  0  0  0  0  0  0  0  0
   59.0720   30.6843   49.8033 H   0  0  0  0  0  0  0  0  0  0  0  0
   57.9058   30.7029   48.4291 H   0  0  0  0  0  0  0  0  0  0  0  0
   58.1098   27.2305   45.9897 H   0  0  0  0  0  0  0  0  0  0  0  0
   57.1845   28.2466   47.1586 H   0  0  0  0  0  0  0  0  0  0  0  0
   59.5773   30.0669   45.1191 H   0  0  0  0  0  0  0  0  0  0  0  0
   58.9200   31.6388   43.2970 H   0  0  0  0  0  0  0  0  0  0  0  0
   56.5764   31.6490   42.4375 H   0  0  0  0  0  0  0  0  0  0  0  0
   54.8846   30.0855   43.4004 H   0  0  0  0  0  0  0  0  0  0  0  0
   55.5325   28.5124   45.2251 H   0  0  0  0  0  0  0  0  0  0  0  0
   59.4117   35.0930   50.0392 H   0  0  0  0  0  0  0  0  0  0  0  0
   60.8132   34.7330   48.9748 H   0  0  0  0  0  0  0  0  0  0  0  0
   59.3828   33.6463   48.9748 H   0  0  0  0  0  0  0  0  0  0  0  0
  1  2  1  0
  2  3  2  0
  3  4  1  0
  4  5  2  0
  5  6  1  0
  6  7  1  0
  7  8  1  0
  8  9  2  0
  8 10  1  0
 10 11  1  0
 11 12  1  0
 12 13  2  0
 12 14  1  0
 14 15  2  0
 15 16  1  0
 16 17  2  0
 17 18  1  0
 18 19  2  0
 19 20  1  0
 20 21  1  0
 21 22  1  0
 22 23  2  0
 22 24  1  0
 24 25  1  0
 25 26  1  0
 26 27  2  0
 27 28  1  0
 28 29  2  0
 29 30  1  0
 30 31  2  0
 20 32  1  0
 32 33  2  0
  6 34  2  0
 34 35  1  0
 34  2  1  0
 32 11  1  0
 19 14  1  0
 31 26  1  0
  1 36  1  0
  1 37  1  0
  1 38  1  0
  3 39  1  0
  4 40  1  0
  5 41  1  0
 10 42  1  0
 10 43  1  0
 15 44  1  0
 16 45  1  0
 17 46  1  0
 18 47  1  0
 21 48  1  0
 21 49  1  0
 25 50  1  0
 25 51  1  0
 27 52  1  0
 28 53  1  0
 29 54  1  0
 30 55  1  0
 31 56  1  0
 35 57  1  0
 35 58  1  0
 35 59  1  0
M  CHG  2   7  -1  24  -1
M  END
>  <UniqueID>  (35) 
33

>  <SMILES>  (35) 
Cc1cccc([N-]C(=O)Cn2c(=O)c3ccccc3n(CC(=O)[N-]Cc3ccccc3)c2=O)c1C

>  <Energy>  (35) 
80.05031808207676

>  <Genealogy>  (35) 
Cc1cccc([N-]C(=O)Cn2c(=O)c3ccccc3n(CC(=O)[N-]Cc3ccccc3)c2=O)c1C (protonated)
Cc1cccc([N-]C(=O)Cn2c(=O)c3ccccc3n(CC(=O)[N-]Cc3ccccc3)c2=O)c1C (3D coordinates assigned)
Cc1cccc([N-]C(=O)Cn2c(=O)c3ccccc3n(CC(=O)[N-]Cc3ccccc3)c2=O)c1C (optimized conformer: 80.05031808207676 kcal/mol)

>  <smiles>  (35) 
Cc1cccc(NC(=O)Cn2c(=O)c3ccccc3n(CC(=O)NCc3ccccc3)c2=O)c1C

>  <score_type>  (35) 
oracle

>  <origin>  (35) 
adg

>  <m_score__min__energy>  (35) 
-12.52

>  <m_primary>  (35) 
energy

$$$$
35:0
     RDKit          3D

 35 37  0  0  0  0  0  0  0  0999 V2000
   59.6580   35.6870   46.1340 C   0  0  0  0  0  0  0  0  0  0  0  0
   59.5660   34.8130   47.2550 O   0  0  0  0  0  0  0  0  0  0  0  0
   59.7560   33.4240   47.1930 C   0  0  0  0  0  0  0  0  0  0  0  0
   58.6540   32.5910   47.4140 C   0  0  0  0  0  0  0  0  0  0  0  0
   58.7900   31.2020   47.3510 C   0  0  0  0  0  0  0  0  0  0  0  0
   60.0270   30.6260   47.0450 C   0  0  0  0  0  0  0  0  0  0  0  0
   60.1210   29.1980   46.9430 N   0  0  0  0  0  0  0  0  0  0  0  0
   59.4950   28.3710   45.9510 C   0  0  0  0  0  0  0  0  0  0  0  0
   60.1730   27.4610   45.4090 O   0  0  0  0  0  0  0  0  0  0  0  0
   58.0830   28.5380   45.5490 C   0  0  0  0  0  0  0  0  0  0  0  0
   57.6120   29.6890   45.0320 N   0  0  0  0  0  0  0  0  0  0  0  0
   56.2940   29.4520   44.8780 C   0  0  0  0  0  0  0  0  0  0  0  0
   55.4990   30.3120   44.4180 O   0  0  0  0  0  0  0  0  0  0  0  0
   55.8960   28.2220   45.2570 N   0  0  0  0  0  0  0  0  0  0  0  0
   57.0330   27.6350   45.6720 C   0  0  0  0  0  0  0  0  0  0  0  0
   57.0880   26.2310   46.1260 C   0  0  0  0  0  0  0  0  0  0  0  0
   56.6180   25.1890   45.3090 C   0  0  0  0  0  0  0  0  0  0  0  0
   56.6990   23.8620   45.7450 C   0  0  0  0  0  0  0  0  0  0  0  0
   57.2390   23.5680   47.0000 C   0  0  0  0  0  0  0  0  0  0  0  0
   57.3280   22.2500   47.4280 O   0  0  0  0  0  0  0  0  0  0  0  0
   57.6880   24.6030   47.8270 C   0  0  0  0  0  0  0  0  0  0  0  0
   57.6050   25.9300   47.3960 C   0  0  0  0  0  0  0  0  0  0  0  0
   61.1460   31.4560   46.8570 C   0  0  0  0  0  0  0  0  0  0  0  0
   61.0100   32.8450   46.9210 C   0  0  0  0  0  0  0  0  0  0  0  0
   59.7671   36.7237   46.4853 H   0  0  0  0  0  0  0  0  0  0  0  0
   60.5322   35.4121   45.5255 H   0  0  0  0  0  0  0  0  0  0  0  0
   58.7458   35.6002   45.5255 H   0  0  0  0  0  0  0  0  0  0  0  0
   57.6724   33.0333   47.6392 H   0  0  0  0  0  0  0  0  0  0  0  0
   57.9193   30.5579   47.5432 H   0  0  0  0  0  0  0  0  0  0  0  0
   56.1851   25.4172   44.3238 H   0  0  0  0  0  0  0  0  0  0  0  0
   56.3370   23.0487   45.0988 H   0  0  0  0  0  0  0  0  0  0  0  0
   58.1069   24.3723   48.8176 H   0  0  0  0  0  0  0  0  0  0  0  0
   57.9463   26.7421   48.0548 H   0  0  0  0  0  0  0  0  0  0  0  0
   62.1320   31.0103   46.6588 H   0  0  0  0  0  0  0  0  0  0  0  0
   61.8867   33.4891   46.7581 H   0  0  0  0  0  0  0  0  0  0  0  0
  1  2  1  0
  2  3  1  0
  3  4  2  0
  4  5  1  0
  5  6  2  0
  6  7  1  0
  7  8  1  0
  8  9  2  0
  8 10  1  0
 10 11  1  0
 11 12  1  0
 12 13  2  0
 12 14  1  0
 14 15  1  0
 15 16  1  0
 16 17  2  0
 17 18  1  0
 18 19  2  0
 19 20  1  0
 19 21  1  0
 21 22  2  0
  6 23  1  0
 23 24  2  0
 24  3  1  0
 15 10  2  0
 22 16  1  0
  1 25  1  0
  1 26  1  0
  1 27  1  0
  4 28  1  0
  5 29  1  0
 17 30  1  0
 18 31  1  0
 21 32  1  0
 22 33  1  0
 23 34  1  0
 24 35  1  0
M  CHG  4   7  -1  11  -1  14  -1  20  -1
M  END
>  <UniqueID>  (36) 
34

>  <SMILES>  (36) 
COc1ccc([N-]C(=O)c2[n-]c(=O)[n-]c2-c2ccc([O-])cc2)cc1

>  <Energy>  (36) 
73.72670140851898

>  <Genealogy>  (36) 
COc1ccc([N-]C(=O)c2[n-]c(=O)[n-]c2-c2ccc([O-])cc2)cc1 (protonated)
COc1ccc([N-]C(=O)c2[n-]c(=O)[n-]c2-c2ccc([O-])cc2)cc1 (3D coordinates assigned)
COc1ccc([N-]C(=O)c2[n-]c(=O)[n-]c2-c2ccc([O-])cc2)cc1 (optimized conformer: 73.72670140851898 kcal/mol)

>  <smiles>  (36) 
COc1ccc(NC(=O)c2[nH]c(=O)[nH]c2-c2ccc(O)cc2)cc1

>  <score_type>  (36) 
oracle

>  <origin>  (36) 
adg

>  <m_score__min__energy>  (36) 
-13.029999999999999

>  <m_primary>  (36) 
energy

$$$$
36:0
     RDKit          3D

 57 60  0  0  0  0  0  0  0  0999 V2000
   58.2926   32.8573   41.7062 H   0  0  0  0  0  0  0  0  0  0  0  0
   58.0520   32.5580   42.7370 C   0  0  0  0  0  0  0  0  0  0  0  0
   58.0880   33.4780   43.7350 N   0  0  0  0  0  0  0  0  0  0  0  0
   57.7900   33.1660   45.0240 C   0  0  0  0  0  0  0  0  0  0  0  0
   57.8680   34.1070   45.9230 N   0  0  0  0  0  0  0  0  0  0  0  0
   58.8970   34.3010   46.9070 C   0  0  0  0  0  0  0  0  0  0  0  0
   59.3260   35.4690   47.1070 O   0  0  0  0  0  0  0  0  0  0  0  0
   59.5300   33.1620   47.6090 C   0  0  0  0  0  0  0  0  0  0  0  0
   60.8510   32.7410   47.5280 C   0  0  0  0  0  0  0  0  0  0  0  0
   61.9360   33.3470   46.6980 C   0  0  0  0  0  0  0  0  0  0  0  0
   62.7051   33.7765   47.3568 H   0  0  0  0  0  0  0  0  0  0  0  0
   62.3887   32.5711   46.0631 H   0  0  0  0  0  0  0  0  0  0  0  0
   61.5128   34.1394   46.0631 H   0  0  0  0  0  0  0  0  0  0  0  0
   61.0390   31.7150   48.3270 O   0  0  0  0  0  0  0  0  0  0  0  0
   59.9050   31.4450   48.9280 C   0  0  0  0  0  0  0  0  0  0  0  0
   59.7130   30.1970   50.1420 S   0  0  0  0  0  0  0  0  0  0  0  0
   58.5520   29.3220   49.7540 O   0  0  0  0  0  0  0  0  0  0  0  0
   60.9600   29.3580   50.1880 O   0  0  0  0  0  0  0  0  0  0  0  0
   59.4130   30.9590   51.6900 N   0  0  0  0  0  0  0  0  0  0  0  0
   58.2930   31.9160   51.6240 C   0  0  0  0  0  0  0  0  0  0  0  0
   58.3176   32.5521   52.5211 H   0  0  0  0  0  0  0  0  0  0  0  0
   58.4120   32.5114   50.7068 H   0  0  0  0  0  0  0  0  0  0  0  0
   56.9200   31.2070   51.5540 C   0  0  0  0  0  0  0  0  0  0  0  0
   56.2159   31.7472   52.2039 H   0  0  0  0  0  0  0  0  0  0  0  0
   56.6056   31.2149   50.4999 H   0  0  0  0  0  0  0  0  0  0  0  0
   56.9610   29.8520   51.9660 O   0  0  0  0  0  0  0  0  0  0  0  0
   57.7600   29.7170   53.1180 C   0  0  0  0  0  0  0  0  0  0  0  0
   57.4377   30.4504   53.8719 H   0  0  0  0  0  0  0  0  0  0  0  0
   57.6486   28.6972   53.5149 H   0  0  0  0  0  0  0  0  0  0  0  0
   59.2390   29.9620   52.7700 C   0  0  0  0  0  0  0  0  0  0  0  0
   59.7573   30.3240   53.6702 H   0  0  0  0  0  0  0  0  0  0  0  0
   59.6594   29.0097   52.4146 H   0  0  0  0  0  0  0  0  0  0  0  0
   58.9160   32.3080   48.5070 C   0  0  0  0  0  0  0  0  0  0  0  0
   57.8613   32.3158   48.8193 H   0  0  0  0  0  0  0  0  0  0  0  0
   57.3890   31.8500   45.3310 C   0  0  0  0  0  0  0  0  0  0  0  0
   57.0823   31.5920   46.3554 H   0  0  0  0  0  0  0  0  0  0  0  0
   57.3820   30.8690   44.3260 C   0  0  0  0  0  0  0  0  0  0  0  0
   57.0290   29.4710   44.6660 C   0  0  0  0  0  0  0  0  0  0  0  0
   55.8110   29.1680   44.8040 O   0  0  0  0  0  0  0  0  0  0  0  0
   58.0510   28.4670   44.8920 N   0  0  2  0  0  0  0  0  0  0  0  0
   58.3720   28.0590   43.9830 H   0  0  0  0  0  0  0  0  0  0  0  0
   57.5620   27.3930   45.7730 C   0  0  0  0  0  0  0  0  0  0  0  0
   56.4621   27.3810   45.7704 H   0  0  0  0  0  0  0  0  0  0  0  0
   57.9250   26.4166   45.4196 H   0  0  0  0  0  0  0  0  0  0  0  0
   58.0730   27.6660   47.1870 C   0  0  0  0  0  0  0  0  0  0  0  0
   57.2340   27.9033   47.8576 H   0  0  0  0  0  0  0  0  0  0  0  0
   58.5871   26.7886   47.6064 H   0  0  0  0  0  0  0  0  0  0  0  0
   59.0130   28.8620   47.0700 C   0  0  1  0  0  0  0  0  0  0  0  0
   58.5943   29.7604   47.5470 H   0  0  0  0  0  0  0  0  0  0  0  0
   60.2830   28.6150   47.7510 N   0  0  0  0  0  0  0  0  0  0  0  0
   60.6960   29.5410   48.0050 H   0  0  0  0  0  0  0  0  0  0  0  0
   60.0750   28.1300   48.6570 H   0  0  0  0  0  0  0  0  0  0  0  0
   59.2180   29.0490   45.5700 C   0  0  0  0  0  0  0  0  0  0  0  0
   59.2961   30.1200   45.3316 H   0  0  0  0  0  0  0  0  0  0  0  0
   60.1448   28.5570   45.2399 H   0  0  0  0  0  0  0  0  0  0  0  0
   57.7110   31.2350   43.0150 C   0  0  0  0  0  0  0  0  0  0  0  0
   57.7005   30.4846   42.2108 H   0  0  0  0  0  0  0  0  0  0  0  0
  1  2  1  0
  2  3  1  0
  3  4  1  0
  4  5  2  0
  5  6  1  0
  6  7  2  0
  6  8  1  0
  8  9  2  0
  9 10  1  0
 10 11  1  0
 10 12  1  0
 10 13  1  0
  9 14  1  0
 14 15  1  0
 15 16  1  0
 16 17  2  0
 16 18  2  0
 16 19  1  0
 19 20  1  0
 20 21  1  0
 20 22  1  0
 20 23  1  0
 23 24  1  0
 23 25  1  0
 23 26  1  0
 26 27  1  0
 27 28  1  0
 27 29  1  0
 27 30  1  0
 30 31  1  0
 30 32  1  0
 15 33  2  0
 33 34  1  0
  4 35  1  0
 35 36  1  0
 35 37  2  0
 37 38  1  0
 38 39  2  0
 38 40  1  0
 40 41  1  6
 40 42  1  0
 42 43  1  0
 42 44  1  0
 42 45  1  0
 45 46  1  0
 45 47  1  0
 45 48  1  0
 48 49  1  1
 48 50  1  0
 50 51  1  0
 50 52  1  0
 48 53  1  0
 53 54  1  0
 53 55  1  0
 37 56  1  0
 56 57  1  0
 56  2  2  0
 33  8  1  0
 53 40  1  0
 30 19  1  0
M  CHG  2   3  -1  40   1
M  END
>  <UniqueID>  (37) 
35

>  <SMILES>  (37) 
Cc1oc(S(=O)(=O)N2CCOCC2)cc1C(=O)/N=c1\cc(C(=O)[N@@H+]2CC[C@@H](N)C2)cc[n-]1

>  <Energy>  (37) 
110.13720095235524

>  <Genealogy>  (37) 
Cc1oc(S(=O)(=O)N2CCOCC2)cc1C(=O)N=c1cc(C(=O)[NH+]2CCC(N)C2)cc[n-]1 (protonated)
Cc1oc(S(=O)(=O)N2CCOCC2)cc1C(=O)N=c1cc(C(=O)[N@@H+]2CC[C@@H](N)C2)cc[n-]1 (chirality)
Cc1oc(S(=O)(=O)N2CCOCC2)cc1C(=O)/N=c1\cc(C(=O)[N@@H+]2CC[C@@H](N)C2)cc[n-]1 (cis-trans isomerization)
Cc1oc(S(=O)(=O)N2CCOCC2)cc1C(=O)/N=c1\cc(C(=O)[N@@H+]2CC[C@@H](N)C2)cc[n-]1 (3D coordinates assigned)
Cc1oc(S(=O)(=O)N2CCOCC2)cc1C(=O)/N=c1\cc(C(=O)[N@@H+]2CC[C@@H](N)C2)cc[n-]1 (nonaromatic ring conformer: 110.13720095235524 kcal/mol)

>  <smiles>  (37) 
Cc1oc(S(=O)(=O)N2CCOCC2)cc1C(=O)N=c1cc(C(=O)N2CCC(N)C2)cc[nH]1

>  <score_type>  (37) 
oracle

>  <origin>  (37) 
adg

>  <m_score__min__energy>  (37) 
-10.859999999999999

>  <m_primary>  (37) 
energy

$$$$
37:0
     RDKit          3D

 50 52  0  0  0  0  0  0  0  0999 V2000
   59.2610   34.5690   44.8420 C   0  0  0  0  0  0  0  0  0  0  0  0
   59.1420   33.9760   46.2220 C   0  0  0  0  0  0  0  0  0  0  0  0
   59.7870   34.6170   47.2950 C   0  0  0  0  0  0  0  0  0  0  0  0
   59.7090   34.0940   48.5870 C   0  0  0  0  0  0  0  0  0  0  0  0
   58.9900   32.9240   48.8250 C   0  0  0  0  0  0  0  0  0  0  0  0
   58.3500   32.2690   47.7700 C   0  0  0  0  0  0  0  0  0  0  0  0
   58.4190   32.7800   46.4630 C   0  0  0  0  0  0  0  0  0  0  0  0
   57.6000   31.9060   45.1580 S   0  0  0  0  0  0  0  0  0  0  0  0
   58.4540   31.9660   43.9220 O   0  0  0  0  0  0  0  0  0  0  0  0
   56.2680   32.5400   44.8700 O   0  0  0  0  0  0  0  0  0  0  0  0
   57.3420   30.2640   45.6520 N   0  0  0  0  0  0  0  0  0  0  0  0
   56.7560   29.2340   44.8480 C   0  0  0  0  0  0  0  0  0  0  0  0
   55.5100   29.0650   44.8960 O   0  0  0  0  0  0  0  0  0  0  0  0
   57.5760   28.3480   43.9570 C   0  0  0  0  0  0  0  0  0  0  0  0
   58.1340   27.2810   44.7190 O   0  0  0  0  0  0  0  0  0  0  0  0
   57.6400   25.9720   44.6660 C   0  0  0  0  0  0  0  0  0  0  0  0
   57.4270   25.3900   43.4100 C   0  0  0  0  0  0  0  0  0  0  0  0
   56.9450   24.0850   43.3050 C   0  0  0  0  0  0  0  0  0  0  0  0
   56.6520   23.3550   44.4580 C   0  0  0  0  0  0  0  0  0  0  0  0
   56.8350   23.9310   45.7180 C   0  0  0  0  0  0  0  0  0  0  0  0
   57.3400   25.2400   45.8360 C   0  0  0  0  0  0  0  0  0  0  0  0
   57.4440   25.8810   47.1150 N   0  0  0  0  0  0  0  0  0  0  0  0
   58.5440   26.6670   47.5890 C   0  0  0  0  0  0  0  0  0  0  0  0
   59.4970   26.1210   48.2090 O   0  0  0  0  0  0  0  0  0  0  0  0
   58.5960   28.0620   47.2650 N   0  0  0  0  0  0  0  0  0  0  0  0
   59.5800   28.9690   47.7920 C   0  0  0  0  0  0  0  0  0  0  0  0
   59.6020   29.2810   49.1640 C   0  0  0  0  0  0  0  0  0  0  0  0
   60.5440   30.1800   49.6710 C   0  0  0  0  0  0  0  0  0  0  0  0
   61.4660   30.7840   48.8140 C   0  0  0  0  0  0  0  0  0  0  0  0
   61.4460   30.4940   47.4490 C   0  0  0  0  0  0  0  0  0  0  0  0
   60.5040   29.5960   46.9310 C   0  0  0  0  0  0  0  0  0  0  0  0
   60.5320   29.2470   45.2070 Cl  0  0  0  0  0  0  0  0  0  0  0  0
   59.4769   35.6446   44.9225 H   0  0  0  0  0  0  0  0  0  0  0  0
   60.0771   34.0709   44.2980 H   0  0  0  0  0  0  0  0  0  0  0  0
   58.3159   34.4244   44.2980 H   0  0  0  0  0  0  0  0  0  0  0  0
   60.3585   35.5394   47.1144 H   0  0  0  0  0  0  0  0  0  0  0  0
   60.2157   34.6060   49.4183 H   0  0  0  0  0  0  0  0  0  0  0  0
   58.9264   32.5159   49.8445 H   0  0  0  0  0  0  0  0  0  0  0  0
   57.7867   31.3444   47.9644 H   0  0  0  0  0  0  0  0  0  0  0  0
   56.9357   27.9345   43.1639 H   0  0  0  0  0  0  0  0  0  0  0  0
   58.3889   28.9372   43.5075 H   0  0  0  0  0  0  0  0  0  0  0  0
   57.6416   25.9669   42.4983 H   0  0  0  0  0  0  0  0  0  0  0  0
   56.7959   23.6316   42.3140 H   0  0  0  0  0  0  0  0  0  0  0  0
   56.2764   22.3245   44.3747 H   0  0  0  0  0  0  0  0  0  0  0  0
   56.5831   23.3584   46.6228 H   0  0  0  0  0  0  0  0  0  0  0  0
   57.9170   28.4140   46.5530 H   0  0  0  0  0  0  0  0  0  0  0  0
   58.8726   28.8139   49.8421 H   0  0  0  0  0  0  0  0  0  0  0  0
   60.5591   30.4120   50.7461 H   0  0  0  0  0  0  0  0  0  0  0  0
   62.2089   31.4891   49.2151 H   0  0  0  0  0  0  0  0  0  0  0  0
   62.1733   30.9728   46.7768 H   0  0  0  0  0  0  0  0  0  0  0  0
  1  2  1  0
  2  3  2  0
  3  4  1  0
  4  5  2  0
  5  6  1  0
  6  7  2  0
  7  8  1  0
  8  9  2  0
  8 10  2  0
  8 11  1  0
 11 12  1  0
 12 13  2  0
 12 14  1  0
 14 15  1  0
 15 16  1  0
 16 17  2  0
 17 18  1  0
 18 19  2  0
 19 20  1  0
 20 21  2  0
 21 22  1  0
 22 23  1  0
 23 24  2  0
 23 25  1  0
 25 26  1  0
 26 27  2  0
 27 28  1  0
 28 29  2  0
 29 30  1  0
 30 31  2  0
 31 32  1  0
  7  2  1  0
 21 16  1  0
 31 26  1  0
  1 33  1  0
  1 34  1  0
  1 35  1  0
  3 36  1  0
  4 37  1  0
  5 38  1  0
  6 39  1  0
 14 40  1  0
 14 41  1  0
 17 42  1  0
 18 43  1  0
 19 44  1  0
 20 45  1  0
 25 46  1  0
 27 47  1  0
 28 48  1  0
 29 49  1  0
 30 50  1  0
M  CHG  2  11  -1  22  -1
M  END
>  <UniqueID>  (38) 
36

>  <SMILES>  (38) 
Cc1ccccc1S(=O)(=O)[N-]C(=O)COc1ccccc1[N-]C(=O)Nc1ccccc1Cl

>  <Energy>  (38) 
69.09007294649797

>  <Genealogy>  (38) 
Cc1ccccc1S(=O)(=O)[N-]C(=O)COc1ccccc1[N-]C(=O)Nc1ccccc1Cl (protonated)
Cc1ccccc1S(=O)(=O)[N-]C(=O)COc1ccccc1[N-]C(=O)Nc1ccccc1Cl (3D coordinates assigned)
Cc1ccccc1S(=O)(=O)[N-]C(=O)COc1ccccc1[N-]C(=O)Nc1ccccc1Cl (optimized conformer: 69.09007294649797 kcal/mol)

>  <smiles>  (38) 
Cc1ccccc1S(=O)(=O)NC(=O)COc1ccccc1NC(=O)Nc1ccccc1Cl

>  <score_type>  (38) 
oracle

>  <origin>  (38) 
adg

>  <m_score__min__energy>  (38) 
-13.1

>  <m_primary>  (38) 
energy

$$$$
38:0
     RDKit          3D

 38 40  0  0  0  0  0  0  0  0999 V2000
   60.3840   28.3080   48.3780 C   0  0  0  0  0  0  0  0  0  0  0  0
   60.1600   29.7320   47.9660 C   0  0  0  0  0  0  0  0  0  0  0  0
   61.2220   30.4840   47.4400 C   0  0  0  0  0  0  0  0  0  0  0  0
   61.0330   31.8270   47.0980 C   0  0  0  0  0  0  0  0  0  0  0  0
   59.7850   32.4360   47.2900 C   0  0  0  0  0  0  0  0  0  0  0  0
   59.5330   34.1270   46.8630 S   0  0  0  0  0  0  0  0  0  0  0  0
   60.7600   34.6910   46.1990 O   0  0  0  0  0  0  0  0  0  0  0  0
   59.2640   34.9130   48.1170 O   0  0  0  0  0  0  0  0  0  0  0  0
   58.1700   34.2670   45.7950 N   0  0  0  0  0  0  0  0  0  0  0  0
   58.3960   33.4490   44.5990 C   0  0  0  0  0  0  0  0  0  0  0  0
   57.4040   32.3200   44.5530 C   0  0  0  0  0  0  0  0  0  0  0  0
   56.3530   32.3930   45.2420 O   0  0  0  0  0  0  0  0  0  0  0  0
   57.6780   31.1110   43.8300 N   0  0  0  0  0  0  0  0  0  0  0  0
   57.6790   29.7970   44.3980 C   0  0  0  0  0  0  0  0  0  0  0  0
   58.9130   29.1950   44.7420 C   0  0  0  0  0  0  0  0  0  0  0  0
   58.9480   27.9230   45.3430 C   0  0  0  0  0  0  0  0  0  0  0  0
   57.7340   27.2990   45.6090 C   0  0  0  0  0  0  0  0  0  0  0  0
   57.5340   26.1150   46.2060 N   0  0  0  0  0  0  0  0  0  0  0  0
   56.1780   26.0360   46.2300 C   0  0  0  0  0  0  0  0  0  0  0  0
   55.5690   25.0530   46.7290 O   0  0  0  0  0  0  0  0  0  0  0  0
   55.5250   27.0940   45.6830 N   0  0  0  0  0  0  0  0  0  0  0  0
   56.5420   27.8800   45.2980 C   0  0  0  0  0  0  0  0  0  0  0  0
   56.4670   29.1320   44.6910 C   0  0  0  0  0  0  0  0  0  0  0  0
   58.7220   31.6840   47.8100 C   0  0  0  0  0  0  0  0  0  0  0  0
   58.9100   30.3430   48.1550 C   0  0  0  0  0  0  0  0  0  0  0  0
   60.3945   28.2413   49.4759 H   0  0  0  0  0  0  0  0  0  0  0  0
   59.5737   27.6794   47.9802 H   0  0  0  0  0  0  0  0  0  0  0  0
   61.3482   27.9585   47.9802 H   0  0  0  0  0  0  0  0  0  0  0  0
   62.2067   30.0153   47.2962 H   0  0  0  0  0  0  0  0  0  0  0  0
   61.8669   32.4076   46.6767 H   0  0  0  0  0  0  0  0  0  0  0  0
   57.3510   33.8820   46.3210 H   0  0  0  0  0  0  0  0  0  0  0  0
   58.2776   34.0747   43.7021 H   0  0  0  0  0  0  0  0  0  0  0  0
   59.4141   33.0339   44.6326 H   0  0  0  0  0  0  0  0  0  0  0  0
   59.8540   29.7267   44.5375 H   0  0  0  0  0  0  0  0  0  0  0  0
   59.9033   27.4387   45.5939 H   0  0  0  0  0  0  0  0  0  0  0  0
   55.4959   29.5879   44.4478 H   0  0  0  0  0  0  0  0  0  0  0  0
   57.7358   32.1517   47.9470 H   0  0  0  0  0  0  0  0  0  0  0  0
   58.0753   29.7636   48.5764 H   0  0  0  0  0  0  0  0  0  0  0  0
  1  2  1  0
  2  3  2  0
  3  4  1  0
  4  5  2  0
  5  6  1  0
  6  7  2  0
  6  8  2  0
  6  9  1  0
  9 10  1  0
 10 11  1  0
 11 12  2  0
 11 13  1  0
 13 14  1  0
 14 15  2  0
 15 16  1  0
 16 17  2  0
 17 18  1  0
 18 19  1  0
 19 20  2  0
 19 21  1  0
 21 22  1  0
 22 23  2  0
  5 24  1  0
 24 25  2  0
 25  2  1  0
 23 14  1  0
 22 17  1  0
  1 26  1  0
  1 27  1  0
  1 28  1  0
  3 29  1  0
  4 30  1  0
  9 31  1  0
 10 32  1  0
 10 33  1  0
 15 34  1  0
 16 35  1  0
 23 36  1  0
 24 37  1  0
 25 38  1  0
M  CHG  3  13  -1  18  -1  21  -1
M  END
>  <UniqueID>  (39) 
37

>  <SMILES>  (39) 
Cc1ccc(S(=O)(=O)NCC(=O)[N-]c2ccc3[n-]c(=O)[n-]c3c2)cc1

>  <Energy>  (39) 
72.53847156494506

>  <Genealogy>  (39) 
Cc1ccc(S(=O)(=O)NCC(=O)[N-]c2ccc3[n-]c(=O)[n-]c3c2)cc1 (protonated)
Cc1ccc(S(=O)(=O)NCC(=O)[N-]c2ccc3[n-]c(=O)[n-]c3c2)cc1 (3D coordinates assigned)
Cc1ccc(S(=O)(=O)NCC(=O)[N-]c2ccc3[n-]c(=O)[n-]c3c2)cc1 (optimized conformer: 72.53847156494506 kcal/mol)

>  <smiles>  (39) 
Cc1ccc(S(=O)(=O)NCC(=O)Nc2ccc3[nH]c(=O)[nH]c3c2)cc1

>  <score_type>  (39) 
oracle

>  <origin>  (39) 
adg

>  <m_score__min__energy>  (39) 
-13.17

>  <m_primary>  (39) 
energy

$$$$
39:0
     RDKit          3D

 57 59  0  0  0  0  0  0  0  0999 V2000
   60.7400   30.8460   50.3520 C   0  0  0  0  0  0  0  0  0  0  0  0
   60.2720   29.7310   49.4650 C   0  0  0  0  0  0  0  0  0  0  0  0
   59.4030   29.9910   48.3940 C   0  0  0  0  0  0  0  0  0  0  0  0
   58.9890   28.9530   47.5550 C   0  0  0  0  0  0  0  0  0  0  0  0
   59.4560   27.6450   47.7620 C   0  0  0  0  0  0  0  0  0  0  0  0
   58.9860   26.5250   46.8730 C   0  0  0  0  0  0  0  0  0  0  0  0
   57.5290   26.5070   46.8050 N   0  0  0  0  0  0  0  0  0  0  0  0
   56.7810   27.0690   45.7230 C   0  0  0  0  0  0  0  0  0  0  0  0
   55.5200   27.0480   45.7370 O   0  0  0  0  0  0  0  0  0  0  0  0
   57.4980   27.6660   44.5520 C   0  0  0  0  0  0  0  0  0  0  0  0
   57.3330   29.1210   44.5520 N   0  0  0  0  0  0  0  0  0  0  0  0
   58.2980   30.0510   44.5140 C   0  0  0  0  0  0  0  0  0  0  0  0
   59.6600   29.7590   44.5190 O   0  0  0  0  0  0  0  0  0  0  0  0
   57.7100   31.3030   44.4650 C   0  0  0  0  0  0  0  0  0  0  0  0
   58.4040   32.6310   44.4810 C   0  0  0  0  0  0  0  0  0  0  0  0
   58.8360   32.9720   45.8810 C   0  0  0  0  0  0  0  0  0  0  0  0
   57.9600   32.7750   46.9590 C   0  0  0  0  0  0  0  0  0  0  0  0
   58.3710   33.0630   48.2630 C   0  0  0  0  0  0  0  0  0  0  0  0
   59.6610   33.5470   48.5020 C   0  0  0  0  0  0  0  0  0  0  0  0
   60.5480   33.7550   47.4290 C   0  0  0  0  0  0  0  0  0  0  0  0
   61.8860   34.2240   47.6390 N   0  0  0  0  0  0  0  0  0  0  0  0
   63.0700   33.6800   47.0380 C   0  0  0  0  0  0  0  0  0  0  0  0
   63.5900   34.2440   46.0360 O   0  0  0  0  0  0  0  0  0  0  0  0
   63.6180   32.3730   47.5540 C   0  0  0  0  0  0  0  0  0  0  0  0
   64.0720   32.5330   49.0080 C   0  0  0  0  0  0  0  0  0  0  0  0
   62.6010   31.2280   47.4290 C   0  0  0  0  0  0  0  0  0  0  0  0
   60.1360   33.4450   46.1270 C   0  0  0  0  0  0  0  0  0  0  0  0
   56.3660   31.1650   44.4720 N   0  0  0  0  0  0  0  0  0  0  0  0
   56.1820   29.8270   44.5140 C   0  0  0  0  0  0  0  0  0  0  0  0
   55.0420   29.2950   44.5180 O   0  0  0  0  0  0  0  0  0  0  0  0
   60.3370   27.3890   48.8240 C   0  0  0  0  0  0  0  0  0  0  0  0
   60.7480   28.4260   49.6650 C   0  0  0  0  0  0  0  0  0  0  0  0
   60.6170   30.5530   51.4051 H   0  0  0  0  0  0  0  0  0  0  0  0
   61.8013   31.0538   50.1508 H   0  0  0  0  0  0  0  0  0  0  0  0
   60.1450   31.7490   50.1508 H   0  0  0  0  0  0  0  0  0  0  0  0
   59.0464   31.0160   48.2143 H   0  0  0  0  0  0  0  0  0  0  0  0
   58.2939   29.1616   46.7284 H   0  0  0  0  0  0  0  0  0  0  0  0
   59.3943   26.6692   45.8618 H   0  0  0  0  0  0  0  0  0  0  0  0
   59.3356   25.5686   47.2890 H   0  0  0  0  0  0  0  0  0  0  0  0
   58.5684   27.4208   44.6167 H   0  0  0  0  0  0  0  0  0  0  0  0
   57.0765   27.2549   43.6228 H   0  0  0  0  0  0  0  0  0  0  0  0
   60.0990   29.2380   43.7700 H   0  0  0  0  0  0  0  0  0  0  0  0
   59.2881   32.5873   43.8280 H   0  0  0  0  0  0  0  0  0  0  0  0
   57.7098   33.4042   44.1202 H   0  0  0  0  0  0  0  0  0  0  0  0
   56.9450   32.3921   46.7768 H   0  0  0  0  0  0  0  0  0  0  0  0
   57.6783   32.9087   49.1034 H   0  0  0  0  0  0  0  0  0  0  0  0
   59.9833   33.7657   49.5307 H   0  0  0  0  0  0  0  0  0  0  0  0
   64.4831   32.1049   46.9298 H   0  0  0  0  0  0  0  0  0  0  0  0
   63.2521   32.2441   49.6820 H   0  0  0  0  0  0  0  0  0  0  0  0
   64.9435   31.8878   49.1931 H   0  0  0  0  0  0  0  0  0  0  0  0
   64.3464   33.5820   49.1931 H   0  0  0  0  0  0  0  0  0  0  0  0
   62.3023   30.8917   48.4328 H   0  0  0  0  0  0  0  0  0  0  0  0
   61.7148   31.5827   46.8823 H   0  0  0  0  0  0  0  0  0  0  0  0
   63.0578   30.3899   46.8823 H   0  0  0  0  0  0  0  0  0  0  0  0
   60.8368   33.5730   45.2889 H   0  0  0  0  0  0  0  0  0  0  0  0
   60.7057   26.3668   48.9950 H   0  0  0  0  0  0  0  0  0  0  0  0
   61.4480   28.2187   50.4878 H   0  0  0  0  0  0  0  0  0  0  0  0
  1  2  1  0
  2  3  2  0
  3  4  1  0
  4  5  2  0
  5  6  1  0
  6  7  1  0
  7  8  1  0
  8  9  2  0
  8 10  1  0
 10 11  1  0
 11 12  1  0
 12 13  1  0
 12 14  2  0
 14 15  1  0
 15 16  1  0
 16 17  2  0
 17 18  1  0
 18 19  2  0
 19 20  1  0
 20 21  1  0
 21 22  1  0
 22 23  2  0
 22 24  1  0
 24 25  1  0
 24 26  1  0
 20 27  2  0
 14 28  1  0
 28 29  1  0
 29 30  2  0
  5 31  1  0
 31 32  2  0
 32  2  1  0
 29 11  1  0
 27 16  1  0
  1 33  1  0
  1 34  1  0
  1 35  1  0
  3 36  1  0
  4 37  1  0
  6 38  1  0
  6 39  1  0
 10 40  1  0
 10 41  1  0
 13 42  1  0
 15 43  1  0
 15 44  1  0
 17 45  1  0
 18 46  1  0
 19 47  1  0
 24 48  1  0
 25 49  1  0
 25 50  1  0
 25 51  1  0
 26 52  1  0
 26 53  1  0
 26 54  1  0
 27 55  1  0
 31 56  1  0
 32 57  1  0
M  CHG  3   7  -1  21  -1  28  -1
M  END
>  <UniqueID>  (40) 
38

>  <SMILES>  (40) 
Cc1ccc(C[N-]C(=O)Cn2c(O)c(Cc3cccc([N-]C(=O)C(C)C)c3)[n-]c2=O)cc1

>  <Energy>  (40) 
82.915331158724

>  <Genealogy>  (40) 
Cc1ccc(C[N-]C(=O)Cn2c(O)c(Cc3cccc([N-]C(=O)C(C)C)c3)[n-]c2=O)cc1 (protonated)
Cc1ccc(C[N-]C(=O)Cn2c(O)c(Cc3cccc([N-]C(=O)C(C)C)c3)[n-]c2=O)cc1 (3D coordinates assigned)
Cc1ccc(C[N-]C(=O)Cn2c(O)c(Cc3cccc([N-]C(=O)C(C)C)c3)[n-]c2=O)cc1 (optimized conformer: 82.915331158724 kcal/mol)

>  <smiles>  (40) 
Cc1ccc(CNC(=O)Cn2c(O)c(Cc3cccc(NC(=O)C(C)C)c3)[nH]c2=O)cc1

>  <score_type>  (40) 
oracle

>  <origin>  (40) 
adg

>  <m_score__min__energy>  (40) 
-13.42

>  <m_primary>  (40) 
energy

$$$$
40:0
     RDKit          3D

 69 71  0  0  0  0  0  0  0  0999 V2000
   54.3820   29.3130   44.5020 H   0  0  0  0  0  0  0  0  0  0  0  0
   55.3570   29.3470   44.1260 N   0  0  0  0  0  0  0  0  0  0  0  0
   56.3570   29.6950   44.8690 C   0  0  0  0  0  0  0  0  0  0  0  0
   56.7410   30.9940   44.9160 N   0  0  0  0  0  0  0  0  0  0  0  0
   57.7880   31.4000   45.6830 C   0  0  0  0  0  0  0  0  0  0  0  0
   58.1460   32.8560   45.6820 C   0  0  0  0  0  0  0  0  0  0  0  0
   58.2337   33.2127   46.7188 H   0  0  0  0  0  0  0  0  0  0  0  0
   59.1056   32.9973   45.1632 H   0  0  0  0  0  0  0  0  0  0  0  0
   57.3613   33.4262   45.1632 H   0  0  0  0  0  0  0  0  0  0  0  0
   58.4980   30.4520   46.4530 C   0  0  0  0  0  0  0  0  0  0  0  0
   59.6660   30.8550   47.3370 C   0  0  0  0  0  0  0  0  0  0  0  0
   60.3618   30.0065   47.4135 H   0  0  0  0  0  0  0  0  0  0  0  0
   60.1507   31.7297   46.8787 H   0  0  0  0  0  0  0  0  0  0  0  0
   59.2320   31.2360   48.6910 N   0  0  0  0  0  0  0  0  0  0  0  0
   59.4940   32.4020   49.3320 C   0  0  0  0  0  0  0  0  0  0  0  0
   60.2590   33.5510   48.7180 C   0  0  0  0  0  0  0  0  0  0  0  0
   60.0229   33.5992   47.6447 H   0  0  0  0  0  0  0  0  0  0  0  0
   59.9569   34.4717   49.2387 H   0  0  0  0  0  0  0  0  0  0  0  0
   61.7550   33.3990   48.8800 C   0  0  0  0  0  0  0  0  0  0  0  0
   62.6290   33.5400   47.7870 C   0  0  0  0  0  0  0  0  0  0  0  0
   62.2221   33.7529   46.7874 H   0  0  0  0  0  0  0  0  0  0  0  0
   64.0100   33.4120   47.9600 C   0  0  0  0  0  0  0  0  0  0  0  0
   64.6824   33.5248   47.0967 H   0  0  0  0  0  0  0  0  0  0  0  0
   64.5440   33.1400   49.2310 C   0  0  0  0  0  0  0  0  0  0  0  0
   65.9600   33.0080   49.4360 N   0  0  0  0  0  0  0  0  0  0  0  0
   66.5390   32.6360   48.6510 H   0  0  0  0  0  0  0  0  0  0  0  0
   66.6490   33.4770   50.6060 C   0  0  0  0  0  0  0  0  0  0  0  0
   66.0710   34.2350   51.4320 O   0  0  0  0  0  0  0  0  0  0  0  0
   68.0800   33.1090   50.8200 C   0  0  0  0  0  0  0  0  0  0  0  0
   68.2875   33.0556   51.8989 H   0  0  0  0  0  0  0  0  0  0  0  0
   68.2797   32.1303   50.3594 H   0  0  0  0  0  0  0  0  0  0  0  0
   68.7271   33.8700   50.3594 H   0  0  0  0  0  0  0  0  0  0  0  0
   63.6770   33.0490   50.3300 C   0  0  0  0  0  0  0  0  0  0  0  0
   64.0873   32.8763   51.3359 H   0  0  0  0  0  0  0  0  0  0  0  0
   62.2970   33.1760   50.1570 C   0  0  0  0  0  0  0  0  0  0  0  0
   61.6289   33.1008   51.0276 H   0  0  0  0  0  0  0  0  0  0  0  0
   59.0880   32.2860   50.6660 C   0  0  0  0  0  0  0  0  0  0  0  0
   59.3290   33.2960   51.7750 C   0  0  0  0  0  0  0  0  0  0  0  0
   59.7521   34.2065   51.3255 H   0  0  0  0  0  0  0  0  0  0  0  0
   58.3566   33.4697   52.2590 H   0  0  0  0  0  0  0  0  0  0  0  0
   60.2900   32.8110   52.8780 C   0  0  0  0  0  0  0  0  0  0  0  0
   60.1612   31.7250   52.9964 H   0  0  0  0  0  0  0  0  0  0  0  0
   61.3065   33.0837   52.5580 H   0  0  0  0  0  0  0  0  0  0  0  0
   60.0590   33.4770   54.2430 C   0  0  0  0  0  0  0  0  0  0  0  0
   59.4950   32.7837   54.8842 H   0  0  0  0  0  0  0  0  0  0  0  0
   61.0433   33.7117   54.6744 H   0  0  0  0  0  0  0  0  0  0  0  0
   59.2750   34.7860   54.1240 C   0  0  0  0  0  0  0  0  0  0  0  0
   59.0457   35.1688   55.1294 H   0  0  0  0  0  0  0  0  0  0  0  0
   59.8784   35.5265   53.5785 H   0  0  0  0  0  0  0  0  0  0  0  0
   58.3374   34.6035   53.5785 H   0  0  0  0  0  0  0  0  0  0  0  0
   58.6270   31.0220   50.8510 N   0  0  0  0  0  0  0  0  0  0  0  0
   58.2020   30.3620   52.0940 C   0  0  0  0  0  0  0  0  0  0  0  0
   58.4683   29.2960   52.0410 H   0  0  0  0  0  0  0  0  0  0  0  0
   58.7119   30.8536   52.9356 H   0  0  0  0  0  0  0  0  0  0  0  0
   56.6820   30.4870   52.3130 C   0  0  0  0  0  0  0  0  0  0  0  0
   56.1811   30.0110   51.4572 H   0  0  0  0  0  0  0  0  0  0  0  0
   56.2280   29.7550   53.5820 C   0  0  0  0  0  0  0  0  0  0  0  0
   56.5717   30.3092   54.4678 H   0  0  0  0  0  0  0  0  0  0  0  0
   55.1301   29.6888   53.5942 H   0  0  0  0  0  0  0  0  0  0  0  0
   56.6566   28.7420   53.5942 H   0  0  0  0  0  0  0  0  0  0  0  0
   56.2770   31.9640   52.3790 C   0  0  0  0  0  0  0  0  0  0  0  0
   56.1919   32.2742   53.4309 H   0  0  0  0  0  0  0  0  0  0  0  0
   57.0404   32.5763   51.8767 H   0  0  0  0  0  0  0  0  0  0  0  0
   55.3081   32.1013   51.8767 H   0  0  0  0  0  0  0  0  0  0  0  0
   58.7390   30.4210   49.6470 C   0  0  0  0  0  0  0  0  0  0  0  0
   58.4540   29.2070   49.4530 O   0  0  0  0  0  0  0  0  0  0  0  0
   58.0720   29.1090   46.3880 C   0  0  0  0  0  0  0  0  0  0  0  0
   58.6530   28.2130   47.0570 O   0  0  0  0  0  0  0  0  0  0  0  0
   57.0210   28.7650   45.6020 N   0  0  0  0  0  0  0  0  0  0  0  0
  1  2  1  0
  2  3  2  0
  3  4  1  0
  4  5  1  0
  5  6  1  0
  6  7  1  0
  6  8  1  0
  6  9  1  0
  5 10  2  0
 10 11  1  0
 11 12  1  0
 11 13  1  0
 11 14  1  0
 14 15  1  0
 15 16  1  0
 16 17  1  0
 16 18  1  0
 16 19  1  0
 19 20  2  0
 20 21  1  0
 20 22  1  0
 22 23  1  0
 22 24  2  0
 24 25  1  0
 25 26  1  0
 25 27  1  0
 27 28  2  0
 27 29  1  0
 29 30  1  0
 29 31  1  0
 29 32  1  0
 24 33  1  0
 33 34  1  0
 33 35  2  0
 35 36  1  0
 15 37  2  0
 37 38  1  0
 38 39  1  0
 38 40  1  0
 38 41  1  0
 41 42  1  0
 41 43  1  0
 41 44  1  0
 44 45  1  0
 44 46  1  0
 44 47  1  0
 47 48  1  0
 47 49  1  0
 47 50  1  0
 37 51  1  0
 51 52  1  0
 52 53  1  0
 52 54  1  0
 52 55  1  0
 55 56  1  0
 55 57  1  0
 57 58  1  0
 57 59  1  0
 57 60  1  0
 55 61  1  0
 61 62  1  0
 61 63  1  0
 61 64  1  0
 51 65  1  0
 65 66  2  0
 10 67  1  0
 67 68  2  0
 67 69  1  0
 69  3  1  0
 65 14  1  0
 35 19  1  0
M  CHG  2   4  -1  69  -1
M  END
>  <UniqueID>  (41) 
39

>  <SMILES>  (41) 
[H]/N=c1/[n-]c(C)c(Cn2c(Cc3ccc(NC(C)=O)cc3)c(CCCC)n(CC(C)C)c2=O)c(=O)[n-]1

>  <Energy>  (41) 
93.58167579223583

>  <Genealogy>  (41) 
CCCCc1c(Cc2ccc(NC(C)=O)cc2)n(Cc2c(C)[n-]c(=N)[n-]c2=O)c(=O)n1CC(C)C (protonated)
[H]/N=c1/[n-]c(C)c(Cn2c(Cc3ccc(NC(C)=O)cc3)c(CCCC)n(CC(C)C)c2=O)c(=O)[n-]1 (cis-trans isomerization)
[H]/N=c1/[n-]c(C)c(Cn2c(Cc3ccc(NC(C)=O)cc3)c(CCCC)n(CC(C)C)c2=O)c(=O)[n-]1 (3D coordinates assigned)
[H]/N=c1/[n-]c(C)c(Cn2c(Cc3ccc(NC(C)=O)cc3)c(CCCC)n(CC(C)C)c2=O)c(=O)[n-]1 (optimized conformer: 93.58167579223583 kcal/mol)

>  <smiles>  (41) 
CCCCc1c(Cc2ccc(NC(C)=O)cc2)n(Cc2c(C)[nH]c(=N)[nH]c2=O)c(=O)n1CC(C)C

>  <score_type>  (41) 
oracle

>  <origin>  (41) 
adg

>  <m_score__min__energy>  (41) 
-12.51

>  <m_primary>  (41) 
energy

$$$$
41:0
     RDKit          3D

 55 58  0  0  0  0  0  0  0  0999 V2000
   55.9570   31.6990   52.3500 C   0  0  0  0  0  0  0  0  0  0  0  0
   57.2720   31.0340   52.0950 C   0  0  0  0  0  0  0  0  0  0  0  0
   57.3990   29.6490   52.2070 C   0  0  0  0  0  0  0  0  0  0  0  0
   58.6250   29.0520   51.9260 C   0  0  0  0  0  0  0  0  0  0  0  0
   59.7340   29.8290   51.5520 C   0  0  0  0  0  0  0  0  0  0  0  0
   60.9160   29.0980   51.0520 C   0  0  0  0  0  0  0  0  0  0  0  0
   61.9160   28.9500   51.8080 O   0  0  0  0  0  0  0  0  0  0  0  0
   60.9280   28.5560   49.7260 N   0  0  0  0  0  0  0  0  0  0  0  0
   60.2280   29.1220   48.6100 C   0  0  0  0  0  0  0  0  0  0  0  0
   60.6710   30.3080   47.9920 C   0  0  0  0  0  0  0  0  0  0  0  0
   59.9660   30.8440   46.9100 C   0  0  0  0  0  0  0  0  0  0  0  0
   58.8060   30.2090   46.4380 C   0  0  0  0  0  0  0  0  0  0  0  0
   57.9010   30.9020   45.0930 S   0  0  0  0  0  0  0  0  0  0  0  0
   56.5370   30.2720   45.0430 O   0  0  0  0  0  0  0  0  0  0  0  0
   58.6070   30.6010   43.8000 O   0  0  0  0  0  0  0  0  0  0  0  0
   57.7340   32.6280   45.3130 N   0  0  0  0  0  0  0  0  0  0  0  0
   57.4830   32.9970   46.7180 C   0  0  0  0  0  0  0  0  0  0  0  0
   58.3760   34.1900   47.0550 C   0  0  0  0  0  0  0  0  0  0  0  0
   59.0230   34.5890   45.7470 C   0  0  0  0  0  0  0  0  0  0  0  0
   58.9510   33.3360   44.9010 C   0  0  0  0  0  0  0  0  0  0  0  0
   58.3790   29.0170   47.0400 C   0  0  0  0  0  0  0  0  0  0  0  0
   59.0940   28.4680   48.1090 C   0  0  0  0  0  0  0  0  0  0  0  0
   59.5900   31.2520   51.5380 C   0  0  0  0  0  0  0  0  0  0  0  0
   60.5700   32.0960   51.3490 N   0  0  0  0  0  0  0  0  0  0  0  0
   61.2290   32.4910   50.1370 C   0  0  0  0  0  0  0  0  0  0  0  0
   60.6190   33.4400   49.3050 C   0  0  0  0  0  0  0  0  0  0  0  0
   61.2730   33.8970   48.1550 C   0  0  0  0  0  0  0  0  0  0  0  0
   62.5590   33.4320   47.8490 C   0  0  0  0  0  0  0  0  0  0  0  0
   63.2270   33.8890   46.6580 C   0  0  0  0  0  0  0  0  0  0  0  0
   63.7660   34.2550   45.7020 N   0  0  0  0  0  0  0  0  0  0  0  0
   63.1930   32.5220   48.7020 C   0  0  0  0  0  0  0  0  0  0  0  0
   62.5370   32.0640   49.8510 C   0  0  0  0  0  0  0  0  0  0  0  0
   58.3560   31.7820   51.7660 N   0  0  0  0  0  0  0  0  0  0  0  0
   55.7924   31.7822   53.4344 H   0  0  0  0  0  0  0  0  0  0  0  0
   55.9610   32.7034   51.9016 H   0  0  0  0  0  0  0  0  0  0  0  0
   55.1504   31.1005   51.9016 H   0  0  0  0  0  0  0  0  0  0  0  0
   56.5394   29.0352   52.5141 H   0  0  0  0  0  0  0  0  0  0  0  0
   58.7264   27.9590   51.9977 H   0  0  0  0  0  0  0  0  0  0  0  0
   61.5748   30.8142   48.3620 H   0  0  0  0  0  0  0  0  0  0  0  0
   60.3213   31.7662   46.4269 H   0  0  0  0  0  0  0  0  0  0  0  0
   56.9320   32.9560   44.7200 H   0  0  0  0  0  0  0  0  0  0  0  0
   56.4261   33.2720   46.8494 H   0  0  0  0  0  0  0  0  0  0  0  0
   57.7067   32.1500   47.3832 H   0  0  0  0  0  0  0  0  0  0  0  0
   57.7751   35.0195   47.4560 H   0  0  0  0  0  0  0  0  0  0  0  0
   59.1238   33.9379   47.8214 H   0  0  0  0  0  0  0  0  0  0  0  0
   58.4690   35.4125   45.2727 H   0  0  0  0  0  0  0  0  0  0  0  0
   60.0536   34.9501   45.8791 H   0  0  0  0  0  0  0  0  0  0  0  0
   58.8953   33.5996   43.8345 H   0  0  0  0  0  0  0  0  0  0  0  0
   59.8439   32.7088   45.0401 H   0  0  0  0  0  0  0  0  0  0  0  0
   57.4758   28.5104   46.6691 H   0  0  0  0  0  0  0  0  0  0  0  0
   58.7653   27.5193   48.5584 H   0  0  0  0  0  0  0  0  0  0  0  0
   59.6209   33.8276   49.5573 H   0  0  0  0  0  0  0  0  0  0  0  0
   60.7776   34.6211   47.4915 H   0  0  0  0  0  0  0  0  0  0  0  0
   64.2076   32.1661   48.4697 H   0  0  0  0  0  0  0  0  0  0  0  0
   63.0473   31.3674   50.5324 H   0  0  0  0  0  0  0  0  0  0  0  0
  1  2  1  0
  2  3  2  0
  3  4  1  0
  4  5  2  0
  5  6  1  0
  6  7  2  0
  6  8  1  0
  8  9  1  0
  9 10  2  0
 10 11  1  0
 11 12  2  0
 12 13  1  0
 13 14  2  0
 13 15  2  0
 13 16  1  0
 16 17  1  0
 17 18  1  0
 18 19  1  0
 19 20  1  0
 12 21  1  0
 21 22  2  0
  5 23  1  0
 23 24  2  3
 24 25  1  0
 25 26  2  0
 26 27  1  0
 27 28  2  0
 28 29  1  0
 29 30  3  0
 28 31  1  0
 31 32  2  0
 23 33  1  0
 33  2  1  0
 22  9  1  0
 32 25  1  0
 20 16  1  0
  1 34  1  0
  1 35  1  0
  1 36  1  0
  3 37  1  0
  4 38  1  0
 10 39  1  0
 11 40  1  0
 16 41  1  0
 17 42  1  0
 17 43  1  0
 18 44  1  0
 18 45  1  0
 19 46  1  0
 19 47  1  0
 20 48  1  0
 20 49  1  0
 21 50  1  0
 22 51  1  0
 26 52  1  0
 27 53  1  0
 31 54  1  0
 32 55  1  0
M  CHG  3   8  -1  16   1  33  -1
M  END
>  <UniqueID>  (42) 
40

>  <SMILES>  (42) 
Cc1ccc(C(=O)[N-]c2ccc(S(=O)(=O)[NH+]3CCCC3)cc2)c(=Nc2ccc(C#N)cc2)[n-]1

>  <Energy>  (42) 
81.35675278677513

>  <Genealogy>  (42) 
Cc1ccc(C(=O)[N-]c2ccc(S(=O)(=O)[NH+]3CCCC3)cc2)c(=Nc2ccc(C#N)cc2)[n-]1 (protonated)
Cc1ccc(C(=O)[N-]c2ccc(S(=O)(=O)[NH+]3CCCC3)cc2)c(=Nc2ccc(C#N)cc2)[n-]1 (3D coordinates assigned)
Cc1ccc(C(=O)[N-]c2ccc(S(=O)(=O)[NH+]3CCCC3)cc2)c(=Nc2ccc(C#N)cc2)[n-]1 (nonaromatic ring conformer: 81.35675278677513 kcal/mol)

>  <smiles>  (42) 
Cc1ccc(C(=O)Nc2ccc(S(=O)(=O)N3CCCC3)cc2)c(=Nc2ccc(C#N)cc2)[nH]1

>  <score_type>  (42) 
oracle

>  <origin>  (42) 
adg

>  <m_score__min__energy>  (42) 
-11.1

>  <m_primary>  (42) 
energy

$$$$
42:0
     RDKit          3D

 72 76  0  0  0  0  0  0  0  0999 V2000
   62.0780   33.6210   52.8400 C   0  0  0  0  0  0  0  0  0  0  0  0
   61.4310   32.4440   52.1060 C   0  0  1  0  0  0  0  0  0  0  0  0
   60.8700   31.3840   53.0920 C   0  0  0  0  0  0  0  0  0  0  0  0
   59.4510   31.2460   52.6700 C   0  0  0  0  0  0  0  0  0  0  0  0
   58.4940   30.3560   53.1610 C   0  0  0  0  0  0  0  0  0  0  0  0
   57.2000   30.3920   52.6150 C   0  0  0  0  0  0  0  0  0  0  0  0
   56.8910   31.3120   51.5930 C   0  0  0  0  0  0  0  0  0  0  0  0
   57.8740   32.1960   51.1110 C   0  0  0  0  0  0  0  0  0  0  0  0
   59.1530   32.1380   51.6750 C   0  0  0  0  0  0  0  0  0  0  0  0
   60.2880   32.9110   51.3070 N   0  0  0  0  0  0  0  0  0  0  0  0
   60.4350   33.6320   50.0750 C   0  0  0  0  0  0  0  0  0  0  0  0
   59.6400   34.5840   49.8390 O   0  0  0  0  0  0  0  0  0  0  0  0
   61.3820   33.1630   49.0130 C   0  0  0  0  0  0  0  0  0  0  0  0
   62.6990   33.6740   49.0120 C   0  0  0  0  0  0  0  0  0  0  0  0
   63.6780   33.1510   48.1650 C   0  0  0  0  0  0  0  0  0  0  0  0
   63.3690   32.0950   47.3120 C   0  0  0  0  0  0  0  0  0  0  0  0
   62.0750   31.5680   47.2900 C   0  0  0  0  0  0  0  0  0  0  0  0
   61.0610   32.1140   48.0970 C   0  0  0  0  0  0  0  0  0  0  0  0
   59.4060   31.3830   48.0160 S   0  0  0  0  0  0  0  0  0  0  0  0
   58.7480   32.3620   46.6460 C   0  0  0  0  0  0  0  0  0  0  0  0
   58.9490   33.7510   46.7280 C   0  0  0  0  0  0  0  0  0  0  0  0
   58.5940   34.5840   45.6680 C   0  0  0  0  0  0  0  0  0  0  0  0
   58.0360   34.0460   44.5130 C   0  0  0  0  0  0  0  0  0  0  0  0
   57.8040   32.6740   44.4220 C   0  0  0  0  0  0  0  0  0  0  0  0
   58.1290   31.8090   45.4900 C   0  0  0  0  0  0  0  0  0  0  0  0
   57.7680   30.3720   45.3650 C   0  0  0  0  0  0  0  0  0  0  0  0
   56.5840   30.0300   45.1000 O   0  0  0  0  0  0  0  0  0  0  0  0
   58.7790   29.3600   45.5480 N   0  0  0  0  0  0  0  0  0  0  0  0
   58.4830   27.9270   45.6320 C   0  0  0  0  0  0  0  0  0  0  0  0
   58.2120   27.4710   47.0720 C   0  0  0  0  0  0  0  0  0  0  0  0
   59.4760   26.9410   47.7820 C   0  0  0  0  0  0  0  0  0  0  0  0
   60.4170   28.0590   48.1800 C   0  0  0  0  0  0  0  0  0  0  0  0
   60.7710   28.9030   47.3040 O   0  0  0  0  0  0  0  0  0  0  0  0
   60.9510   28.1550   49.5170 N   0  0  0  0  0  0  0  0  0  0  0  0
   61.3480   29.4740   50.0320 C   0  0  0  0  0  0  0  0  0  0  0  0
   62.3770   29.3260   51.1600 C   0  0  0  0  0  0  0  0  0  0  0  0
   61.9400   28.3960   52.1320 O   0  0  0  0  0  0  0  0  0  0  0  0
   61.8620   27.1090   51.5510 C   0  0  0  0  0  0  0  0  0  0  0  0
   60.7670   27.0600   50.4790 C   0  0  0  0  0  0  0  0  0  0  0  0
   61.9934   33.4671   53.9259 H   0  0  0  0  0  0  0  0  0  0  0  0
   63.1399   33.6882   52.5608 H   0  0  0  0  0  0  0  0  0  0  0  0
   61.5657   34.5535   52.5608 H   0  0  0  0  0  0  0  0  0  0  0  0
   62.2177   32.0002   51.4781 H   0  0  0  0  0  0  0  0  0  0  0  0
   61.4062   30.4288   52.9915 H   0  0  0  0  0  0  0  0  0  0  0  0
   60.9803   31.6748   54.1471 H   0  0  0  0  0  0  0  0  0  0  0  0
   58.7477   29.6419   53.9583 H   0  0  0  0  0  0  0  0  0  0  0  0
   56.4277   29.7018   52.9853 H   0  0  0  0  0  0  0  0  0  0  0  0
   55.8760   31.3391   51.1699 H   0  0  0  0  0  0  0  0  0  0  0  0
   57.6426   32.9146   50.3109 H   0  0  0  0  0  0  0  0  0  0  0  0
   62.9581   34.4995   49.6913 H   0  0  0  0  0  0  0  0  0  0  0  0
   64.6936   33.5734   48.1717 H   0  0  0  0  0  0  0  0  0  0  0  0
   64.1444   31.6750   46.6545 H   0  0  0  0  0  0  0  0  0  0  0  0
   61.8467   30.7155   46.6333 H   0  0  0  0  0  0  0  0  0  0  0  0
   59.3906   34.1847   47.6373 H   0  0  0  0  0  0  0  0  0  0  0  0
   58.7556   35.6693   45.7452 H   0  0  0  0  0  0  0  0  0  0  0  0
   57.7774   34.7038   43.6702 H   0  0  0  0  0  0  0  0  0  0  0  0
   57.3612   32.2592   43.5045 H   0  0  0  0  0  0  0  0  0  0  0  0
   59.7890   29.6390   45.5590 H   0  0  0  0  0  0  0  0  0  0  0  0
   57.5943   27.7130   45.0202 H   0  0  0  0  0  0  0  0  0  0  0  0
   59.3643   27.3797   45.2662 H   0  0  0  0  0  0  0  0  0  0  0  0
   57.8209   28.3259   47.6432 H   0  0  0  0  0  0  0  0  0  0  0  0
   57.4880   26.6441   47.0258 H   0  0  0  0  0  0  0  0  0  0  0  0
   59.1717   26.3945   48.6868 H   0  0  0  0  0  0  0  0  0  0  0  0
   60.0089   26.2838   47.0791 H   0  0  0  0  0  0  0  0  0  0  0  0
   61.7897   30.0632   49.2148 H   0  0  0  0  0  0  0  0  0  0  0  0
   60.4571   29.9823   50.4293 H   0  0  0  0  0  0  0  0  0  0  0  0
   63.3295   28.9784   50.7335 H   0  0  0  0  0  0  0  0  0  0  0  0
   62.5040   30.3045   51.6463 H   0  0  0  0  0  0  0  0  0  0  0  0
   62.8296   26.8626   51.0894 H   0  0  0  0  0  0  0  0  0  0  0  0
   61.6166   26.3813   52.3386 H   0  0  0  0  0  0  0  0  0  0  0  0
   60.8200   26.0976   49.9489 H   0  0  0  0  0  0  0  0  0  0  0  0
   59.7851   27.1680   50.9630 H   0  0  0  0  0  0  0  0  0  0  0  0
  1  2  1  0
  2  3  1  0
  3  4  1  0
  4  5  2  0
  5  6  1  0
  6  7  2  0
  7  8  1  0
  8  9  2  0
  9 10  1  0
 10 11  1  0
 11 12  2  0
 11 13  1  0
 13 14  2  0
 14 15  1  0
 15 16  2  0
 16 17  1  0
 17 18  2  0
 18 19  1  0
 19 20  1  0
 20 21  2  0
 21 22  1  0
 22 23  2  0
 23 24  1  0
 24 25  2  0
 25 26  1  0
 26 27  2  0
 26 28  1  0
 28 29  1  0
 29 30  1  0
 30 31  1  0
 31 32  1  0
 32 33  2  0
 32 34  1  0
 34 35  1  0
 35 36  1  0
 36 37  1  0
 37 38  1  0
 38 39  1  0
 10  2  1  0
 18 13  1  0
 25 20  1  0
 39 34  1  0
  9  4  1  0
  1 40  1  0
  1 41  1  0
  1 42  1  0
  2 43  1  6
  3 44  1  0
  3 45  1  0
  5 46  1  0
  6 47  1  0
  7 48  1  0
  8 49  1  0
 14 50  1  0
 15 51  1  0
 16 52  1  0
 17 53  1  0
 21 54  1  0
 22 55  1  0
 23 56  1  0
 24 57  1  0
 28 58  1  0
 29 59  1  0
 29 60  1  0
 30 61  1  0
 30 62  1  0
 31 63  1  0
 31 64  1  0
 35 65  1  0
 35 66  1  0
 36 67  1  0
 36 68  1  0
 38 69  1  0
 38 70  1  0
 39 71  1  0
 39 72  1  0
M  END
>  <UniqueID>  (43) 
41

>  <SMILES>  (43) 
C[C@H]1Cc2ccccc2N1C(=O)c1ccccc1Sc1ccccc1C(=O)NCCCC(=O)N1CCOCC1

>  <Energy>  (43) 
102.75768611751813

>  <Genealogy>  (43) 
C[C@H]1Cc2ccccc2N1C(=O)c1ccccc1Sc1ccccc1C(=O)NCCCC(=O)N1CCOCC1 (chirality)
C[C@H]1Cc2ccccc2N1C(=O)c1ccccc1Sc1ccccc1C(=O)NCCCC(=O)N1CCOCC1 (3D coordinates assigned)
C[C@H]1Cc2ccccc2N1C(=O)c1ccccc1Sc1ccccc1C(=O)NCCCC(=O)N1CCOCC1 (nonaromatic ring conformer: 102.75768611751813 kcal/mol)

>  <smiles>  (43) 
CC1Cc2ccccc2N1C(=O)c1ccccc1Sc1ccccc1C(=O)NCCCC(=O)N1CCOCC1

>  <score_type>  (43) 
oracle

>  <origin>  (43) 
adg

>  <m_score__min__energy>  (43) 
-11.289999999999999

>  <m_primary>  (43) 
energy

$$$$
43:0
     RDKit          3D

 38 41  0  0  0  0  0  0  0  0999 V2000
   63.8748   34.4779   47.7986 H   0  0  0  0  0  0  0  0  0  0  0  0
   63.3410   33.8210   47.0960 C   0  0  0  0  0  0  0  0  0  0  0  0
   63.3255   34.0607   46.0225 H   0  0  0  0  0  0  0  0  0  0  0  0
   62.7150   32.7380   47.5440 C   0  0  0  0  0  0  0  0  0  0  0  0
   62.0120   31.8440   46.7360 O   0  0  0  0  0  0  0  0  0  0  0  0
   61.5050   30.8520   47.5750 C   0  0  0  0  0  0  0  0  0  0  0  0
   60.7350   29.7540   47.2030 C   0  0  0  0  0  0  0  0  0  0  0  0
   60.4547   29.5954   46.1512 H   0  0  0  0  0  0  0  0  0  0  0  0
   60.3220   28.8500   48.2010 C   0  0  0  0  0  0  0  0  0  0  0  0
   59.5330   27.7530   47.8240 O   0  0  0  0  0  0  0  0  0  0  0  0
   58.4180   27.8090   46.9750 C   0  0  0  0  0  0  0  0  0  0  0  0
   58.1310   28.9800   46.3490 N   0  0  0  0  0  0  0  0  0  0  0  0
   57.0780   29.0910   45.4910 C   0  0  0  0  0  0  0  0  0  0  0  0
   56.7890   30.2220   44.9190 N   0  0  0  0  0  0  0  0  0  0  0  0
   57.4940   31.4680   45.0590 C   0  0  0  0  0  0  0  0  0  0  0  0
   57.8490   31.8990   46.3430 C   0  0  0  0  0  0  0  0  0  0  0  0
   57.6083   31.2728   47.2147 H   0  0  0  0  0  0  0  0  0  0  0  0
   58.5070   33.1190   46.5260 C   0  0  0  0  0  0  0  0  0  0  0  0
   58.7940   33.4419   47.5376 H   0  0  0  0  0  0  0  0  0  0  0  0
   58.8010   33.9300   45.4240 C   0  0  0  0  0  0  0  0  0  0  0  0
   59.4760   35.1870   45.6120 C   0  0  0  0  0  0  0  0  0  0  0  0
   60.0190   36.1980   45.7630 N   0  0  0  0  0  0  0  0  0  0  0  0
   58.4200   33.5220   44.1400 C   0  0  0  0  0  0  0  0  0  0  0  0
   58.6389   34.1631   43.2734 H   0  0  0  0  0  0  0  0  0  0  0  0
   57.7620   32.3020   43.9560 C   0  0  0  0  0  0  0  0  0  0  0  0
   57.4527   31.9926   42.9467 H   0  0  0  0  0  0  0  0  0  0  0  0
   56.2870   28.0110   45.2590 N   0  0  0  0  0  0  0  0  0  0  0  0
   56.5410   26.8150   45.8490 C   0  0  0  0  0  0  0  0  0  0  0  0
   55.8933   25.9505   45.6414 H   0  0  0  0  0  0  0  0  0  0  0  0
   57.6230   26.6830   46.7180 C   0  0  0  0  0  0  0  0  0  0  0  0
   57.8483   25.7162   47.1919 H   0  0  0  0  0  0  0  0  0  0  0  0
   60.6690   29.0910   49.5570 C   0  0  0  0  0  0  0  0  0  0  0  0
   60.3250   28.3980   50.3390 H   0  0  0  0  0  0  0  0  0  0  0  0
   61.4480   30.2070   49.9090 C   0  0  0  0  0  0  0  0  0  0  0  0
   61.7280   30.3952   50.9560 H   0  0  0  0  0  0  0  0  0  0  0  0
   61.8540   31.0660   48.8930 C   0  0  0  0  0  0  0  0  0  0  0  0
   62.6410   32.2830   48.9310 C   0  0  0  0  0  0  0  0  0  0  0  0
   63.1510   32.8280   49.9460 O   0  0  0  0  0  0  0  0  0  0  0  0
  1  2  1  0
  2  3  1  0
  2  4  2  0
  4  5  1  0
  5  6  1  0
  6  7  2  0
  7  8  1  0
  7  9  1  0
  9 10  1  0
 10 11  1  0
 11 12  2  0
 12 13  1  0
 13 14  2  0
 14 15  1  0
 15 16  2  0
 16 17  1  0
 16 18  1  0
 18 19  1  0
 18 20  2  0
 20 21  1  0
 21 22  3  0
 20 23  1  0
 23 24  1  0
 23 25  2  0
 25 26  1  0
 13 27  1  0
 27 28  1  0
 28 29  1  0
 28 30  2  0
 30 31  1  0
  9 32  2  0
 32 33  1  0
 32 34  1  0
 34 35  1  0
 34 36  2  0
 36 37  1  0
 37 38  2  0
 37  4  1  0
 36  6  1  0
 30 11  1  0
 25 15  1  0
M  CHG  1  27  -1
M  END
>  <UniqueID>  (44) 
42

>  <SMILES>  (44) 
C=C1Oc2cc(Oc3cc[n-]/c(=N/c4ccc(C#N)cc4)n3)ccc2C1=O

>  <Energy>  (44) 
86.79295629824392

>  <Genealogy>  (44) 
C=C1Oc2cc(Oc3cc[n-]c(=Nc4ccc(C#N)cc4)n3)ccc2C1=O (protonated)
C=C1Oc2cc(Oc3cc[n-]/c(=N/c4ccc(C#N)cc4)n3)ccc2C1=O (cis-trans isomerization)
C=C1Oc2cc(Oc3cc[n-]/c(=N/c4ccc(C#N)cc4)n3)ccc2C1=O (3D coordinates assigned)
C=C1Oc2cc(Oc3cc[n-]/c(=N/c4ccc(C#N)cc4)n3)ccc2C1=O (nonaromatic ring conformer: 86.79295629824392 kcal/mol)

>  <smiles>  (44) 
C=C1Oc2cc(Oc3cc[nH]c(=Nc4ccc(C#N)cc4)n3)ccc2C1=O

>  <score_type>  (44) 
oracle

>  <origin>  (44) 
adg

>  <m_score__min__energy>  (44) 
-9.5600000000000005

>  <m_primary>  (44) 
energy

$$$$
44:0
     RDKit          3D

 58 61  0  0  0  0  0  0  0  0999 V2000
   56.5985   24.7825   43.3316 H   0  0  0  0  0  0  0  0  0  0  0  0
   56.6160   23.7650   42.9140 C   0  0  0  0  0  0  0  0  0  0  0  0
   56.8657   23.6097   41.8540 H   0  0  0  0  0  0  0  0  0  0  0  0
   56.3330   22.7140   43.6970 C   0  0  0  0  0  0  0  0  0  0  0  0
   56.3770   21.4890   43.1020 N   0  0  0  0  0  0  0  0  0  0  0  0
   56.3150   20.3320   43.7980 C   0  0  0  0  0  0  0  0  0  0  0  0
   56.3097   19.3694   43.2658 H   0  0  0  0  0  0  0  0  0  0  0  0
   56.2580   20.3590   45.1840 C   0  0  0  0  0  0  0  0  0  0  0  0
   56.2758   19.4190   45.7550 H   0  0  0  0  0  0  0  0  0  0  0  0
   56.1780   21.5820   45.8520 C   0  0  0  0  0  0  0  0  0  0  0  0
   56.0290   21.4820   47.7710 Br  0  0  0  0  0  0  0  0  0  0  0  0
   56.1250   22.7990   45.1170 C   0  0  0  0  0  0  0  0  0  0  0  0
   55.8590   23.9540   45.7840 C   0  0  0  0  0  0  0  0  0  0  0  0
   54.8667   24.0455   46.2499 H   0  0  0  0  0  0  0  0  0  0  0  0
   56.7800   25.0940   45.9390 C   0  0  0  0  0  0  0  0  0  0  0  0
   58.1150   24.9580   46.0850 N   0  0  0  0  0  0  0  0  0  0  0  0
   58.5530   26.2290   46.2240 C   0  0  0  0  0  0  0  0  0  0  0  0
   59.7720   26.5200   46.3560 O   0  0  0  0  0  0  0  0  0  0  0  0
   57.5650   27.1500   46.1980 N   0  0  0  0  0  0  0  0  0  0  0  0
   57.6870   28.6090   46.2480 C   0  0  0  0  0  0  0  0  0  0  0  0
   56.8197   29.0235   46.7828 H   0  0  0  0  0  0  0  0  0  0  0  0
   58.6217   28.8628   46.7695 H   0  0  0  0  0  0  0  0  0  0  0  0
   57.7390   29.2100   44.8370 C   0  0  0  0  0  0  0  0  0  0  0  0
   58.7528   29.5954   44.6536 H   0  0  0  0  0  0  0  0  0  0  0  0
   57.4764   28.4159   44.1225 H   0  0  0  0  0  0  0  0  0  0  0  0
   56.7340   30.3570   44.6560 C   0  0  0  0  0  0  0  0  0  0  0  0
   56.1803   30.2095   43.7171 H   0  0  0  0  0  0  0  0  0  0  0  0
   56.0378   30.3604   45.5076 H   0  0  0  0  0  0  0  0  0  0  0  0
   57.4400   31.6550   44.6070 N   0  0  0  0  0  0  0  0  0  0  0  0
   56.6540   32.7500   45.2360 C   0  0  0  0  0  0  0  0  0  0  0  0
   56.6608   33.6204   44.5634 H   0  0  0  0  0  0  0  0  0  0  0  0
   55.6332   32.3756   45.4026 H   0  0  0  0  0  0  0  0  0  0  0  0
   57.2230   33.1750   46.5970 C   0  0  0  0  0  0  0  0  0  0  0  0
   56.6005   33.9824   47.0099 H   0  0  0  0  0  0  0  0  0  0  0  0
   57.2178   32.3012   47.2651 H   0  0  0  0  0  0  0  0  0  0  0  0
   58.6170   33.6580   46.4670 N   0  0  0  0  0  0  0  0  0  0  0  0
   59.2740   33.6970   47.7890 C   0  0  0  0  0  0  0  0  0  0  0  0
   59.3377   34.7405   48.1313 H   0  0  0  0  0  0  0  0  0  0  0  0
   58.6816   33.1013   48.4991 H   0  0  0  0  0  0  0  0  0  0  0  0
   60.6620   33.1170   47.7040 C   0  0  0  0  0  0  0  0  0  0  0  0
   60.8960   31.7680   48.0200 C   0  0  0  0  0  0  0  0  0  0  0  0
   60.0609   31.1267   48.3384 H   0  0  0  0  0  0  0  0  0  0  0  0
   62.1870   31.2380   47.9310 C   0  0  0  0  0  0  0  0  0  0  0  0
   62.3653   30.1817   48.1810 H   0  0  0  0  0  0  0  0  0  0  0  0
   63.2510   32.0480   47.5250 C   0  0  0  0  0  0  0  0  0  0  0  0
   64.2656   31.6290   47.4534 H   0  0  0  0  0  0  0  0  0  0  0  0
   63.0250   33.3910   47.2100 C   0  0  0  0  0  0  0  0  0  0  0  0
   63.8630   34.0287   46.8922 H   0  0  0  0  0  0  0  0  0  0  0  0
   61.7370   33.9250   47.2980 C   0  0  0  0  0  0  0  0  0  0  0  0
   61.5640   34.9822   47.0484 H   0  0  0  0  0  0  0  0  0  0  0  0
   59.4130   32.9020   45.4640 C   0  0  0  0  0  0  0  0  0  0  0  0
   59.4573   33.4886   44.5345 H   0  0  0  0  0  0  0  0  0  0  0  0
   60.4146   32.7382   45.8881 H   0  0  0  0  0  0  0  0  0  0  0  0
   58.8110   31.5270   45.1490 C   0  0  0  0  0  0  0  0  0  0  0  0
   59.4445   31.0194   44.4066 H   0  0  0  0  0  0  0  0  0  0  0  0
   58.7643   30.9451   46.0813 H   0  0  0  0  0  0  0  0  0  0  0  0
   56.4450   26.4300   46.0340 C   0  0  0  0  0  0  0  0  0  0  0  0
   55.1620   26.9650   45.9850 O   0  0  0  0  0  0  0  0  0  0  0  0
  1  2  1  0
  2  3  1  0
  2  4  2  0
  4  5  1  0
  5  6  2  0
  6  7  1  0
  6  8  1  0
  8  9  1  0
  8 10  2  0
 10 11  1  0
 10 12  1  0
 12 13  2  0
 13 14  1  0
 13 15  1  0
 15 16  1  0
 16 17  1  0
 17 18  2  0
 17 19  1  0
 19 20  1  0
 20 21  1  0
 20 22  1  0
 20 23  1  0
 23 24  1  0
 23 25  1  0
 23 26  1  0
 26 27  1  0
 26 28  1  0
 26 29  1  0
 29 30  1  0
 30 31  1  0
 30 32  1  0
 30 33  1  0
 33 34  1  0
 33 35  1  0
 33 36  1  0
 36 37  1  0
 37 38  1  0
 37 39  1  0
 37 40  1  0
 40 41  2  0
 41 42  1  0
 41 43  1  0
 43 44  1  0
 43 45  2  0
 45 46  1  0
 45 47  1  0
 47 48  1  0
 47 49  2  0
 49 50  1  0
 36 51  1  0
 51 52  1  0
 51 53  1  0
 51 54  1  0
 54 55  1  0
 54 56  1  0
 19 57  1  0
 57 58  1  0
 12  4  1  0
 57 15  2  0
 54 29  1  0
 49 40  1  0
M  CHG  2  16  -1  58  -1
M  END
>  <UniqueID>  (45) 
43

>  <SMILES>  (45) 
C=c1nccc(Br)/c1=C/c1[n-]c(=O)n(CCCN2CCN(Cc3ccccc3)CC2)c1[O-]

>  <Energy>  (45) 
125.6049286018442

>  <Genealogy>  (45) 
C=c1nccc(Br)c1=Cc1[n-]c(=O)n(CCCN2CCN(Cc3ccccc3)CC2)c1[O-] (protonated)
C=c1nccc(Br)/c1=C/c1[n-]c(=O)n(CCCN2CCN(Cc3ccccc3)CC2)c1[O-] (cis-trans isomerization)
C=c1nccc(Br)/c1=C/c1[n-]c(=O)n(CCCN2CCN(Cc3ccccc3)CC2)c1[O-] (3D coordinates assigned)
C=c1nccc(Br)/c1=C/c1[n-]c(=O)n(CCCN2CCN(Cc3ccccc3)CC2)c1[O-] (nonaromatic ring conformer: 125.6049286018442 kcal/mol)

>  <smiles>  (45) 
C=c1nccc(Br)c1=Cc1[nH]c(=O)n(CCCN2CCN(Cc3ccccc3)CC2)c1O

>  <score_type>  (45) 
oracle

>  <origin>  (45) 
adg

>  <m_score__min__energy>  (45) 
-15.300000000000001

>  <m_primary>  (45) 
energy

$$$$
45:0
     RDKit          3D

 37 39  0  0  0  0  0  0  0  0999 V2000
   54.3660   26.7150   46.7650 H   0  0  0  0  0  0  0  0  0  0  0  0
   55.0180   26.4550   46.0360 O   0  0  0  0  0  0  0  0  0  0  0  0
   55.9770   25.4730   46.2600 C   0  0  0  0  0  0  0  0  0  0  0  0
   55.8730   24.5250   47.2070 N   0  0  0  0  0  0  0  0  0  0  0  0
   57.0360   23.8530   47.0800 C   0  0  0  0  0  0  0  0  0  0  0  0
   57.3350   22.8720   47.8100 O   0  0  0  0  0  0  0  0  0  0  0  0
   57.8620   24.3210   46.1190 N   0  0  0  0  0  0  0  0  0  0  0  0
   57.1650   25.3360   45.5790 C   0  0  0  0  0  0  0  0  0  0  0  0
   57.7110   26.2440   44.5600 C   0  0  0  0  0  0  0  0  0  0  0  0
   57.8845   25.8255   43.5576 H   0  0  0  0  0  0  0  0  0  0  0  0
   58.0180   27.5430   44.7440 C   0  0  0  0  0  0  0  0  0  0  0  0
   57.2000   28.5700   44.3110 C   0  0  0  0  0  0  0  0  0  0  0  0
   56.2136   28.4639   43.8359 H   0  0  0  0  0  0  0  0  0  0  0  0
   57.8540   29.7530   44.5870 C   0  0  0  0  0  0  0  0  0  0  0  0
   57.3510   31.0860   44.1850 C   0  0  0  0  0  0  0  0  0  0  0  0
   57.1480   31.3320   42.9660 O   0  0  0  0  0  0  0  0  0  0  0  0
   56.9840   32.0750   45.1560 N   0  0  0  0  0  0  0  0  0  0  0  0
   57.8530   33.0670   45.7240 C   0  0  0  0  0  0  0  0  0  0  0  0
   58.1760   33.0680   47.0940 C   0  0  0  0  0  0  0  0  0  0  0  0
   57.7491   32.3029   47.7591 H   0  0  0  0  0  0  0  0  0  0  0  0
   59.0380   34.0390   47.6110 C   0  0  0  0  0  0  0  0  0  0  0  0
   59.2764   34.0457   48.6848 H   0  0  0  0  0  0  0  0  0  0  0  0
   59.5980   35.0020   46.7660 C   0  0  0  0  0  0  0  0  0  0  0  0
   60.2716   35.7691   47.1757 H   0  0  0  0  0  0  0  0  0  0  0  0
   59.3010   34.9890   45.4000 C   0  0  0  0  0  0  0  0  0  0  0  0
   59.7460   35.7425   44.7335 H   0  0  0  0  0  0  0  0  0  0  0  0
   58.4380   34.0180   44.8800 C   0  0  0  0  0  0  0  0  0  0  0  0
   58.2182   34.0020   43.8023 H   0  0  0  0  0  0  0  0  0  0  0  0
   59.0260   29.5070   45.2190 N   0  0  0  0  0  0  0  0  0  0  0  0
   59.9630   30.5080   45.7430 C   0  0  0  0  0  0  0  0  0  0  0  0
   59.9441   30.4878   46.8427 H   0  0  0  0  0  0  0  0  0  0  0  0
   60.9793   30.2794   45.3895 H   0  0  0  0  0  0  0  0  0  0  0  0
   59.6679   31.5070   45.3895 H   0  0  0  0  0  0  0  0  0  0  0  0
   59.1360   28.1560   45.3350 C   0  0  0  0  0  0  0  0  0  0  0  0
   60.1240   27.5510   46.0140 C   0  0  0  0  0  0  0  0  0  0  0  0
   60.9496   28.1464   46.4309 H   0  0  0  0  0  0  0  0  0  0  0  0
   60.1077   26.4600   46.1533 H   0  0  0  0  0  0  0  0  0  0  0  0
  1  2  1  0
  2  3  1  0
  3  4  1  0
  4  5  1  0
  5  6  2  0
  5  7  1  0
  7  8  1  0
  8  9  1  0
  9 10  1  0
  9 11  2  0
 11 12  1  0
 12 13  1  0
 12 14  2  0
 14 15  1  0
 15 16  2  0
 15 17  1  0
 17 18  1  0
 18 19  2  0
 19 20  1  0
 19 21  1  0
 21 22  1  0
 21 23  2  0
 23 24  1  0
 23 25  1  0
 25 26  1  0
 25 27  2  0
 27 28  1  0
 14 29  1  0
 29 30  1  0
 30 31  1  0
 30 32  1  0
 30 33  1  0
 29 34  1  0
 34 35  2  0
 35 36  1  0
 35 37  1  0
  8  3  2  0
 34 11  1  0
 27 18  1  0
M  CHG  3   4  -1   7  -1  17  -1
M  END
>  <UniqueID>  (46) 
44

>  <SMILES>  (46) 
C=c1/c(=C\c2[n-]c(=O)[n-]c2O)cc(C(=O)[N-]c2ccccc2)n1C

>  <Energy>  (46) 
116.32124771582633

>  <Genealogy>  (46) 
C=c1c(=Cc2[n-]c(=O)[n-]c2O)cc(C(=O)[N-]c2ccccc2)n1C (protonated)
C=c1/c(=C\c2[n-]c(=O)[n-]c2O)cc(C(=O)[N-]c2ccccc2)n1C (cis-trans isomerization)
C=c1/c(=C\c2[n-]c(=O)[n-]c2O)cc(C(=O)[N-]c2ccccc2)n1C (3D coordinates assigned)
C=c1/c(=C\c2[n-]c(=O)[n-]c2O)cc(C(=O)[N-]c2ccccc2)n1C (optimized conformer: 116.32124771582633 kcal/mol)

>  <smiles>  (46) 
C=c1c(=Cc2[nH]c(=O)[nH]c2O)cc(C(=O)Nc2ccccc2)n1C

>  <score_type>  (46) 
oracle

>  <origin>  (46) 
adg

>  <m_score__min__energy>  (46) 
-13.99

>  <m_primary>  (46) 
energy

$$$$
46:0
     RDKit          3D

 50 53  0  0  0  0  0  0  0  0999 V2000
   63.4500   30.2630   51.4340 C   0  0  0  0  0  0  0  0  0  0  0  0
   62.3090   29.9750   52.0600 C   0  0  0  0  0  0  0  0  0  0  0  0
   60.9770   30.1890   51.4580 C   0  0  0  0  0  0  0  0  0  0  0  0
   60.1810   30.9810   52.0280 O   0  0  0  0  0  0  0  0  0  0  0  0
   60.5370   29.5060   50.2150 C   0  0  0  0  0  0  0  0  0  0  0  0
   59.8980   30.2310   49.1890 C   0  0  0  0  0  0  0  0  0  0  0  0
   59.6180   31.6300   49.3620 N   0  0  0  0  0  0  0  0  0  0  0  0
   59.8540   32.6160   48.3410 C   0  0  0  0  0  0  0  0  0  0  0  0
   61.1350   32.8060   47.7860 C   0  0  0  0  0  0  0  0  0  0  0  0
   61.3360   33.7670   46.7920 C   0  0  0  0  0  0  0  0  0  0  0  0
   60.2690   34.5520   46.3480 C   0  0  0  0  0  0  0  0  0  0  0  0
   58.9990   34.3800   46.9030 C   0  0  0  0  0  0  0  0  0  0  0  0
   58.7920   33.4190   47.8970 C   0  0  0  0  0  0  0  0  0  0  0  0
   59.5370   29.5770   47.9930 C   0  0  0  0  0  0  0  0  0  0  0  0
   58.8820   30.2650   46.9520 C   0  0  0  0  0  0  0  0  0  0  0  0
   58.5160   29.6040   45.7710 C   0  0  0  0  0  0  0  0  0  0  0  0
   57.8330   30.3470   44.6800 C   0  0  0  0  0  0  0  0  0  0  0  0
   57.2160   29.6970   43.6810 C   0  0  0  0  0  0  0  0  0  0  0  0
   56.5090   30.4720   42.6100 C   0  0  0  0  0  0  0  0  0  0  0  0
   57.3930   31.6360   42.1450 C   0  0  0  0  0  0  0  0  0  0  0  0
   57.9440   32.4850   43.3180 C   0  0  0  0  0  0  0  0  0  0  0  0
   57.7450   31.8570   44.7160 C   0  0  0  0  0  0  0  0  0  0  0  0
   58.8120   28.2390   45.6310 C   0  0  0  0  0  0  0  0  0  0  0  0
   59.4540   27.5350   46.6530 C   0  0  0  0  0  0  0  0  0  0  0  0
   59.7810   25.8250   46.3890 Cl  0  0  0  0  0  0  0  0  0  0  0  0
   59.8210   28.1970   47.8470 C   0  0  0  0  0  0  0  0  0  0  0  0
   60.4440   27.5260   48.8610 N   0  0  0  0  0  0  0  0  0  0  0  0
   60.8090   28.1420   50.0170 C   0  0  0  0  0  0  0  0  0  0  0  0
   61.4120   27.4780   50.9060 O   0  0  0  0  0  0  0  0  0  0  0  0
   64.4127   30.0815   51.9342 H   0  0  0  0  0  0  0  0  0  0  0  0
   63.4289   30.6822   50.4172 H   0  0  0  0  0  0  0  0  0  0  0  0
   62.3619   29.5569   53.0761 H   0  0  0  0  0  0  0  0  0  0  0  0
   59.2420   31.9400   50.2870 H   0  0  0  0  0  0  0  0  0  0  0  0
   61.9801   32.1954   48.1366 H   0  0  0  0  0  0  0  0  0  0  0  0
   62.3371   33.9059   46.3578 H   0  0  0  0  0  0  0  0  0  0  0  0
   60.4290   35.3048   45.5621 H   0  0  0  0  0  0  0  0  0  0  0  0
   58.1600   35.0018   46.5574 H   0  0  0  0  0  0  0  0  0  0  0  0
   57.7906   33.2914   48.3338 H   0  0  0  0  0  0  0  0  0  0  0  0
   58.6548   31.3351   47.0676 H   0  0  0  0  0  0  0  0  0  0  0  0
   57.2290   28.5976   43.6481 H   0  0  0  0  0  0  0  0  0  0  0  0
   56.2987   29.8094   41.7575 H   0  0  0  0  0  0  0  0  0  0  0  0
   55.5648   30.8692   43.0109 H   0  0  0  0  0  0  0  0  0  0  0  0
   58.2429   31.2263   41.5795 H   0  0  0  0  0  0  0  0  0  0  0  0
   56.7679   32.2967   41.5264 H   0  0  0  0  0  0  0  0  0  0  0  0
   59.0224   32.6319   43.1582 H   0  0  0  0  0  0  0  0  0  0  0  0
   57.3752   33.4265   43.3154 H   0  0  0  0  0  0  0  0  0  0  0  0
   58.5233   32.2415   45.3915 H   0  0  0  0  0  0  0  0  0  0  0  0
   56.7395   32.1291   45.0693 H   0  0  0  0  0  0  0  0  0  0  0  0
   58.5346   27.7163   44.7037 H   0  0  0  0  0  0  0  0  0  0  0  0
   60.6650   26.5090   48.7670 H   0  0  0  0  0  0  0  0  0  0  0  0
  1  2  2  0
  2  3  1  0
  3  4  2  0
  3  5  1  0
  5  6  2  0
  6  7  1  0
  7  8  1  0
  8  9  2  0
  9 10  1  0
 10 11  2  0
 11 12  1  0
 12 13  2  0
  6 14  1  0
 14 15  2  0
 15 16  1  0
 16 17  1  0
 17 18  2  0
 18 19  1  0
 19 20  1  0
 20 21  1  0
 21 22  1  0
 16 23  2  0
 23 24  1  0
 24 25  1  0
 24 26  2  0
 26 27  1  0
 27 28  1  0
 28 29  2  0
 28  5  1  0
 13  8  1  0
 26 14  1  0
 22 17  1  0
  1 30  1  0
  1 31  1  0
  2 32  1  0
  7 33  1  0
  9 34  1  0
 10 35  1  0
 11 36  1  0
 12 37  1  0
 13 38  1  0
 15 39  1  0
 18 40  1  0
 19 41  1  0
 19 42  1  0
 20 43  1  0
 20 44  1  0
 21 45  1  0
 21 46  1  0
 22 47  1  0
 22 48  1  0
 23 49  1  0
 27 50  1  0
M  END
>  <UniqueID>  (47) 
45

>  <SMILES>  (47) 
C=CC(=O)c1c(Nc2ccccc2)c2cc(C3=CCCCC3)cc(Cl)c2[nH]c1=O

>  <Energy>  (47) 
78.608291378698

>  <Genealogy>  (47) 
C=CC(=O)c1c(Nc2ccccc2)c2cc(C3=CCCCC3)cc(Cl)c2[nH]c1=O (3D coordinates assigned)
C=CC(=O)c1c(Nc2ccccc2)c2cc(C3=CCCCC3)cc(Cl)c2[nH]c1=O (nonaromatic ring conformer: 78.608291378698 kcal/mol)

>  <smiles>  (47) 
C=CC(=O)c1c(Nc2ccccc2)c2cc(C3=CCCCC3)cc(Cl)c2[nH]c1=O

>  <score_type>  (47) 
oracle

>  <origin>  (47) 
adg

>  <m_score__min__energy>  (47) 
-9.4100000000000001

>  <m_primary>  (47) 
energy

$$$$
47:0
     RDKit          3D

 38 40  0  0  0  0  0  0  0  0999 V2000
   53.4400   28.5680   52.7440 C   0  0  0  0  0  0  0  0  0  0  0  0
   54.4310   29.4750   52.8250 C   0  0  0  0  0  0  0  0  0  0  0  0
   55.5130   29.1730   53.6740 C   0  0  0  0  0  0  0  0  0  0  0  0
   56.6950   29.9060   53.6200 C   0  0  0  0  0  0  0  0  0  0  0  0
   56.8410   30.9560   52.7050 C   0  0  0  0  0  0  0  0  0  0  0  0
   58.1190   31.7020   52.6130 C   0  0  0  0  0  0  0  0  0  0  0  0
   58.3210   32.6980   53.3600 O   0  0  0  0  0  0  0  0  0  0  0  0
   59.1020   31.3260   51.6380 N   0  0  0  0  0  0  0  0  0  0  0  0
   58.8750   31.0930   50.2400 C   0  0  0  0  0  0  0  0  0  0  0  0
   58.7180   32.1470   49.3230 C   0  0  0  0  0  0  0  0  0  0  0  0
   58.5210   31.8790   47.9660 C   0  0  0  0  0  0  0  0  0  0  0  0
   58.4920   30.5530   47.4960 C   0  0  0  0  0  0  0  0  0  0  0  0
   58.2820   30.2650   46.0570 C   0  0  0  0  0  0  0  0  0  0  0  0
   56.9640   30.0980   45.5360 N   0  0  0  0  0  0  0  0  0  0  0  0
   59.2670   30.1630   45.2780 O   0  0  0  0  0  0  0  0  0  0  0  0
   58.6750   29.5040   48.4150 C   0  0  0  0  0  0  0  0  0  0  0  0
   58.8730   29.7750   49.7710 C   0  0  0  0  0  0  0  0  0  0  0  0
   55.7480   31.3080   51.8950 C   0  0  0  0  0  0  0  0  0  0  0  0
   54.5060   30.6410   51.9960 C   0  0  0  0  0  0  0  0  0  0  0  0
   53.4650   31.1800   51.3090 C   0  0  0  0  0  0  0  0  0  0  0  0
   52.1830   31.6300   51.8890 C   0  0  0  0  0  0  0  0  0  0  0  0
   51.8500   31.5340   53.1900 N   0  0  0  0  0  0  0  0  0  0  0  0
   50.6610   32.1720   53.2540 C   0  0  0  0  0  0  0  0  0  0  0  0
   50.0090   32.2840   54.3250 O   0  0  0  0  0  0  0  0  0  0  0  0
   50.2300   32.6880   52.0840 N   0  0  0  0  0  0  0  0  0  0  0  0
   51.2120   32.3460   51.2340 C   0  0  0  0  0  0  0  0  0  0  0  0
   51.2220   32.6850   49.8860 O   0  0  0  0  0  0  0  0  0  0  0  0
   52.5727   28.7575   52.0944 H   0  0  0  0  0  0  0  0  0  0  0  0
   53.4973   27.6372   53.3274 H   0  0  0  0  0  0  0  0  0  0  0  0
   55.4226   28.3442   54.3916 H   0  0  0  0  0  0  0  0  0  0  0  0
   57.5217   29.6583   54.3021 H   0  0  0  0  0  0  0  0  0  0  0  0
   58.7504   33.1884   49.6758 H   0  0  0  0  0  0  0  0  0  0  0  0
   58.3875   32.7113   47.2593 H   0  0  0  0  0  0  0  0  0  0  0  0
   56.2630   29.5030   46.0310 H   0  0  0  0  0  0  0  0  0  0  0  0
   58.6621   28.4619   48.0631 H   0  0  0  0  0  0  0  0  0  0  0  0
   59.0287   28.9451   50.4760 H   0  0  0  0  0  0  0  0  0  0  0  0
   55.8618   32.1225   51.1645 H   0  0  0  0  0  0  0  0  0  0  0  0
   53.5881   31.2915   50.2216 H   0  0  0  0  0  0  0  0  0  0  0  0
  1  2  2  0
  2  3  1  0
  3  4  2  0
  4  5  1  0
  5  6  1  0
  6  7  2  0
  6  8  1  0
  8  9  1  0
  9 10  2  0
 10 11  1  0
 11 12  2  0
 12 13  1  0
 13 14  1  0
 13 15  2  0
 12 16  1  0
 16 17  2  0
  5 18  2  0
 18 19  1  0
 19 20  2  3
 20 21  1  0
 21 22  1  0
 22 23  1  0
 23 24  2  0
 23 25  1  0
 25 26  1  0
 26 27  1  0
 19  2  1  0
 26 21  2  0
 17  9  1  0
  1 28  1  0
  1 29  1  0
  3 30  1  0
  4 31  1  0
 10 32  1  0
 11 33  1  0
 14 34  1  0
 16 35  1  0
 17 36  1  0
 18 37  1  0
 20 38  1  0
M  CHG  5   8  -1  14  -1  22  -1  25  -1  27  -1
M  END
>  <UniqueID>  (48) 
46

>  <SMILES>  (48) 
C=c1ccc(C(=O)[N-]c2ccc(C([NH-])=O)cc2)cc1=Cc1[n-]c(=O)[n-]c1[O-]

>  <Energy>  (48) 
95.20110747786683

>  <Genealogy>  (48) 
C=c1ccc(C(=O)[N-]c2ccc(C([NH-])=O)cc2)cc1=Cc1[n-]c(=O)[n-]c1[O-] (protonated)
C=c1ccc(C(=O)[N-]c2ccc(C([NH-])=O)cc2)cc1=Cc1[n-]c(=O)[n-]c1[O-] (3D coordinates assigned)
C=c1ccc(C(=O)[N-]c2ccc(C([NH-])=O)cc2)cc1=Cc1[n-]c(=O)[n-]c1[O-] (optimized conformer: 95.20110747786683 kcal/mol)

>  <smiles>  (48) 
C=c1ccc(C(=O)Nc2ccc(C(N)=O)cc2)cc1=Cc1[nH]c(=O)[nH]c1O

>  <score_type>  (48) 
oracle

>  <origin>  (48) 
adg

>  <m_score__min__energy>  (48) 
-18.800000000000001

>  <m_primary>  (48) 
energy

$$$$
48:0
     RDKit          3D

 42 43  0  0  0  0  0  0  0  0999 V2000
   59.0005   33.3665   42.9090 H   0  0  0  0  0  0  0  0  0  0  0  0
   58.3650   32.9360   43.6970 C   0  0  0  0  0  0  0  0  0  0  0  0
   58.2310   33.6210   44.8510 C   0  0  0  0  0  0  0  0  0  0  0  0
   59.3940   33.7290   45.7690 C   0  0  0  0  0  0  0  0  0  0  0  0
   59.6980   34.8540   46.2550 O   0  0  0  0  0  0  0  0  0  0  0  0
   60.1670   32.5680   46.1220 N   0  0  0  0  0  0  0  0  0  0  0  0
   59.8990   31.6360   45.7350 H   0  0  0  0  0  0  0  0  0  0  0  0
   61.3010   32.6190   47.0020 C   0  0  0  0  0  0  0  0  0  0  0  0
   62.1780   33.7150   46.9380 C   0  0  0  0  0  0  0  0  0  0  0  0
   61.9505   34.5561   46.2665 H   0  0  0  0  0  0  0  0  0  0  0  0
   63.3350   33.7470   47.7180 C   0  0  0  0  0  0  0  0  0  0  0  0
   64.0009   34.6214   47.6734 H   0  0  0  0  0  0  0  0  0  0  0  0
   63.6520   32.6730   48.5560 C   0  0  0  0  0  0  0  0  0  0  0  0
   64.8790   32.7240   49.4180 C   0  0  0  0  0  0  0  0  0  0  0  0
   64.5835   32.7117   50.4775 H   0  0  0  0  0  0  0  0  0  0  0  0
   65.5138   31.8515   49.2042 H   0  0  0  0  0  0  0  0  0  0  0  0
   65.4392   33.6462   49.2042 H   0  0  0  0  0  0  0  0  0  0  0  0
   62.7790   31.5790   48.6350 C   0  0  0  0  0  0  0  0  0  0  0  0
   63.0178   30.7427   49.3084 H   0  0  0  0  0  0  0  0  0  0  0  0
   61.6010   31.5350   47.8650 C   0  0  0  0  0  0  0  0  0  0  0  0
   60.6910   30.3720   48.0080 C   0  0  0  0  0  0  0  0  0  0  0  0
   61.1070   29.3030   48.5320 O   0  0  0  0  0  0  0  0  0  0  0  0
   59.3590   30.4400   47.4790 N   0  0  0  0  0  0  0  0  0  0  0  0
   58.8360   29.6710   46.3870 C   0  0  0  0  0  0  0  0  0  0  0  0
   59.6740   29.0320   45.4540 C   0  0  0  0  0  0  0  0  0  0  0  0
   60.7662   29.1295   45.5410 H   0  0  0  0  0  0  0  0  0  0  0  0
   59.1220   28.2730   44.4160 C   0  0  0  0  0  0  0  0  0  0  0  0
   59.7807   27.7856   43.6821 H   0  0  0  0  0  0  0  0  0  0  0  0
   57.7360   28.1330   44.3100 C   0  0  0  0  0  0  0  0  0  0  0  0
   57.3038   27.5414   43.4895 H   0  0  0  0  0  0  0  0  0  0  0  0
   56.8990   28.7450   45.2470 C   0  0  0  0  0  0  0  0  0  0  0  0
   55.5210   28.5970   45.1480 O   0  0  0  0  0  0  0  0  0  0  0  0
   57.4480   29.5050   46.2860 C   0  0  0  0  0  0  0  0  0  0  0  0
   56.7859   29.9751   47.0281 H   0  0  0  0  0  0  0  0  0  0  0  0
   56.9060   34.2150   45.2640 C   0  0  0  0  0  0  0  0  0  0  0  0
   56.8431   34.2432   46.3618 H   0  0  0  0  0  0  0  0  0  0  0  0
   56.8221   35.2369   44.8655 H   0  0  0  0  0  0  0  0  0  0  0  0
   56.0873   33.5977   44.8655 H   0  0  0  0  0  0  0  0  0  0  0  0
   57.6970   31.6210   43.4270 C   0  0  0  0  0  0  0  0  0  0  0  0
   57.4491   31.1329   44.3811 H   0  0  0  0  0  0  0  0  0  0  0  0
   56.7752   31.7895   42.8509 H   0  0  0  0  0  0  0  0  0  0  0  0
   58.3767   30.9759   42.8509 H   0  0  0  0  0  0  0  0  0  0  0  0
  1  2  1  0
  2  3  2  0
  3  4  1  0
  4  5  2  0
  4  6  1  0
  6  7  1  0
  6  8  1  0
  8  9  2  0
  9 10  1  0
  9 11  1  0
 11 12  1  0
 11 13  2  0
 13 14  1  0
 14 15  1  0
 14 16  1  0
 14 17  1  0
 13 18  1  0
 18 19  1  0
 18 20  2  0
 20 21  1  0
 21 22  2  0
 21 23  1  0
 23 24  1  0
 24 25  2  0
 25 26  1  0
 25 27  1  0
 27 28  1  0
 27 29  2  0
 29 30  1  0
 29 31  1  0
 31 32  1  0
 31 33  2  0
 33 34  1  0
  3 35  1  0
 35 36  1  0
 35 37  1  0
 35 38  1  0
  2 39  1  0
 39 40  1  0
 39 41  1  0
 39 42  1  0
 20  8  1  0
 33 24  1  0
M  CHG  2  23  -1  32  -1
M  END
>  <UniqueID>  (49) 
47

>  <SMILES>  (49) 
C/C=C(\C)C(=O)Nc1ccc(C)cc1C(=O)[N-]c1cccc([O-])c1

>  <Energy>  (49) 
52.663326061922355

>  <Genealogy>  (49) 
CC=C(C)C(=O)Nc1ccc(C)cc1C(=O)[N-]c1cccc([O-])c1 (protonated)
C/C=C(\C)C(=O)Nc1ccc(C)cc1C(=O)[N-]c1cccc([O-])c1 (cis-trans isomerization)
C/C=C(\C)C(=O)Nc1ccc(C)cc1C(=O)[N-]c1cccc([O-])c1 (3D coordinates assigned)
C/C=C(\C)C(=O)Nc1ccc(C)cc1C(=O)[N-]c1cccc([O-])c1 (optimized conformer: 52.663326061922355 kcal/mol)

>  <smiles>  (49) 
CC=C(C)C(=O)Nc1ccc(C)cc1C(=O)Nc1cccc(O)c1

>  <score_type>  (49) 
oracle

>  <origin>  (49) 
adg

>  <m_score__min__energy>  (49) 
-12.300000000000001

>  <m_primary>  (49) 
energy

$$$$
49:0
     RDKit          3D

 60 63  0  0  0  0  0  0  0  0999 V2000
   62.5070   29.1400   51.5950 C   0  0  0  0  0  0  0  0  0  0  0  0
   61.0420   29.1800   51.1640 C   0  0  0  0  0  0  0  0  0  0  0  0
   60.7820   30.2160   50.0980 C   0  0  0  0  0  0  0  0  0  0  0  0
   60.8580   31.4410   50.3960 O   0  0  0  0  0  0  0  0  0  0  0  0
   60.4050   29.8380   48.7570 N   0  0  0  0  0  0  0  0  0  0  0  0
   59.8940   28.4910   48.4570 C   0  0  0  0  0  0  0  0  0  0  0  0
   58.7930   28.5560   47.3920 C   0  0  0  0  0  0  0  0  0  0  0  0
   59.1770   29.4100   46.2590 N   0  0  0  0  0  0  0  0  0  0  0  0
   58.2070   29.6860   45.2330 C   0  0  0  0  0  0  0  0  0  0  0  0
   57.8710   28.6760   44.3170 C   0  0  0  0  0  0  0  0  0  0  0  0
   57.0190   28.9450   43.2440 C   0  0  0  0  0  0  0  0  0  0  0  0
   56.5100   30.2310   43.0630 C   0  0  0  0  0  0  0  0  0  0  0  0
   56.8330   31.2450   43.9660 C   0  0  0  0  0  0  0  0  0  0  0  0
   57.6480   30.9780   45.0730 C   0  0  0  0  0  0  0  0  0  0  0  0
   57.8760   32.0310   46.0210 N   0  0  0  0  0  0  0  0  0  0  0  0
   57.7550   33.4340   45.7470 C   0  0  0  0  0  0  0  0  0  0  0  0
   56.6590   33.8790   45.3190 O   0  0  0  0  0  0  0  0  0  0  0  0
   58.8500   34.3390   45.9340 N   0  0  0  0  0  0  0  0  0  0  0  0
   59.9840   34.1210   46.7840 C   0  0  0  0  0  0  0  0  0  0  0  0
   59.8240   34.2170   48.1690 C   0  0  0  0  0  0  0  0  0  0  0  0
   60.9180   34.0420   49.0210 C   0  0  0  0  0  0  0  0  0  0  0  0
   62.1920   33.7400   48.5030 C   0  0  0  0  0  0  0  0  0  0  0  0
   63.3280   33.5730   49.3830 N   0  0  0  0  0  0  0  0  0  0  0  0
   64.5640   32.9060   48.9980 C   0  0  0  0  0  0  0  0  0  0  0  0
   65.4030   32.8200   50.2650 C   0  0  0  0  0  0  0  0  0  0  0  0
   64.8050   33.8410   51.2260 C   0  0  0  0  0  0  0  0  0  0  0  0
   63.3770   34.0700   50.7500 C   0  0  0  0  0  0  0  0  0  0  0  0
   62.3340   33.5980   47.1090 C   0  0  0  0  0  0  0  0  0  0  0  0
   61.2390   33.7770   46.2600 C   0  0  0  0  0  0  0  0  0  0  0  0
   60.4420   30.1530   46.2950 C   0  0  0  0  0  0  0  0  0  0  0  0
   60.6270   30.8030   47.6670 C   0  0  0  0  0  0  0  0  0  0  0  0
   62.5661   29.1384   52.6934 H   0  0  0  0  0  0  0  0  0  0  0  0
   62.9804   28.2286   51.2010 H   0  0  0  0  0  0  0  0  0  0  0  0
   63.0294   30.0242   51.2010 H   0  0  0  0  0  0  0  0  0  0  0  0
   60.7627   28.1914   50.7709 H   0  0  0  0  0  0  0  0  0  0  0  0
   60.4412   29.4488   52.0454 H   0  0  0  0  0  0  0  0  0  0  0  0
   60.7194   27.8657   48.0859 H   0  0  0  0  0  0  0  0  0  0  0  0
   59.4726   28.0588   49.3766 H   0  0  0  0  0  0  0  0  0  0  0  0
   58.5968   27.5393   47.0207 H   0  0  0  0  0  0  0  0  0  0  0  0
   57.8944   28.9886   47.8562 H   0  0  0  0  0  0  0  0  0  0  0  0
   58.2826   27.6641   44.4459 H   0  0  0  0  0  0  0  0  0  0  0  0
   56.7492   28.1428   42.5414 H   0  0  0  0  0  0  0  0  0  0  0  0
   55.8531   30.4463   42.2074 H   0  0  0  0  0  0  0  0  0  0  0  0
   56.4444   32.2617   43.8069 H   0  0  0  0  0  0  0  0  0  0  0  0
   58.8311   34.4316   48.5911 H   0  0  0  0  0  0  0  0  0  0  0  0
   60.7823   34.1413   50.1081 H   0  0  0  0  0  0  0  0  0  0  0  0
   64.3508   31.8986   48.6110 H   0  0  0  0  0  0  0  0  0  0  0  0
   65.0887   33.4552   48.2024 H   0  0  0  0  0  0  0  0  0  0  0  0
   65.3457   31.8092   50.6950 H   0  0  0  0  0  0  0  0  0  0  0  0
   66.4647   33.0254   50.0635 H   0  0  0  0  0  0  0  0  0  0  0  0
   64.8082   33.4480   52.2534 H   0  0  0  0  0  0  0  0  0  0  0  0
   65.3840   34.7762   51.2357 H   0  0  0  0  0  0  0  0  0  0  0  0
   62.6688   33.5164   51.3841 H   0  0  0  0  0  0  0  0  0  0  0  0
   63.0988   35.1329   50.8036 H   0  0  0  0  0  0  0  0  0  0  0  0
   63.3165   33.3437   46.6846 H   0  0  0  0  0  0  0  0  0  0  0  0
   61.3616   33.6475   45.1746 H   0  0  0  0  0  0  0  0  0  0  0  0
   61.2761   29.4619   46.1037 H   0  0  0  0  0  0  0  0  0  0  0  0
   60.4229   30.9367   45.5234 H   0  0  0  0  0  0  0  0  0  0  0  0
   61.6518   31.1958   47.7409 H   0  0  0  0  0  0  0  0  0  0  0  0
   59.8886   31.6121   47.7674 H   0  0  0  0  0  0  0  0  0  0  0  0
  1  2  1  0
  2  3  1  0
  3  4  2  0
  3  5  1  0
  5  6  1  0
  6  7  1  0
  7  8  1  0
  8  9  1  0
  9 10  2  0
 10 11  1  0
 11 12  2  0
 12 13  1  0
 13 14  2  0
 14 15  1  0
 15 16  1  0
 16 17  2  0
 16 18  1  0
 18 19  1  0
 19 20  2  0
 20 21  1  0
 21 22  2  0
 22 23  1  0
 23 24  1  0
 24 25  1  0
 25 26  1  0
 26 27  1  0
 22 28  1  0
 28 29  2  0
  8 30  1  0
 30 31  1  0
 31  5  1  0
 14  9  1  0
 29 19  1  0
 27 23  1  0
  1 32  1  0
  1 33  1  0
  1 34  1  0
  2 35  1  0
  2 36  1  0
  6 37  1  0
  6 38  1  0
  7 39  1  0
  7 40  1  0
 10 41  1  0
 11 42  1  0
 12 43  1  0
 13 44  1  0
 20 45  1  0
 21 46  1  0
 24 47  1  0
 24 48  1  0
 25 49  1  0
 25 50  1  0
 26 51  1  0
 26 52  1  0
 27 53  1  0
 27 54  1  0
 28 55  1  0
 29 56  1  0
 30 57  1  0
 30 58  1  0
 31 59  1  0
 31 60  1  0
M  CHG  2  15  -1  18  -1
M  END
>  <UniqueID>  (50) 
48

>  <SMILES>  (50) 
CCC(=O)N1CCN(c2ccccc2[N-]C(=O)[N-]c2ccc(N3CCCC3)cc2)CC1

>  <Energy>  (50) 
74.04813755990534

>  <Genealogy>  (50) 
CCC(=O)N1CCN(c2ccccc2[N-]C(=O)[N-]c2ccc(N3CCCC3)cc2)CC1 (protonated)
CCC(=O)N1CCN(c2ccccc2[N-]C(=O)[N-]c2ccc(N3CCCC3)cc2)CC1 (3D coordinates assigned)
CCC(=O)N1CCN(c2ccccc2[N-]C(=O)[N-]c2ccc(N3CCCC3)cc2)CC1 (nonaromatic ring conformer: 74.04813755990534 kcal/mol)

>  <smiles>  (50) 
CCC(=O)N1CCN(c2ccccc2NC(=O)Nc2ccc(N3CCCC3)cc2)CC1

>  <score_type>  (50) 
oracle

>  <origin>  (50) 
adg

>  <m_score__min__energy>  (50) 
-10.800000000000001

>  <m_primary>  (50) 
energy

$$$$
50:0
     RDKit          3D

 72 75  0  0  0  0  0  0  0  0999 V2000
   60.5780   28.5780   45.0950 C   0  0  0  0  0  0  0  0  0  0  0  0
   60.0690   27.9110   46.3860 C   0  0  0  0  0  0  0  0  0  0  0  0
   59.5810   26.4850   46.0880 C   0  0  0  0  0  0  0  0  0  0  0  0
   58.9840   28.7450   47.1230 C   0  0  1  0  0  0  0  0  0  0  0  0
   59.5740   29.9970   47.6190 N   0  0  0  0  0  0  0  0  0  0  0  0
   60.7450   30.0150   48.4540 C   0  0  0  0  0  0  0  0  0  0  0  0
   60.9860   29.0430   49.2260 O   0  0  0  0  0  0  0  0  0  0  0  0
   61.6590   31.1800   48.4360 C   0  0  0  0  0  0  0  0  0  0  0  0
   62.2450   31.6130   47.2330 C   0  0  0  0  0  0  0  0  0  0  0  0
   63.1180   32.7050   47.2270 C   0  0  0  0  0  0  0  0  0  0  0  0
   63.4180   33.3690   48.4180 C   0  0  0  0  0  0  0  0  0  0  0  0
   62.8340   32.9570   49.6230 C   0  0  0  0  0  0  0  0  0  0  0  0
   63.2230   33.7810   51.1360 S   0  0  0  0  0  0  0  0  0  0  0  0
   62.0840   33.6040   52.1030 O   0  0  0  0  0  0  0  0  0  0  0  0
   63.3900   35.2540   50.8740 O   0  0  0  0  0  0  0  0  0  0  0  0
   64.6980   33.1630   51.8440 N   0  0  0  0  0  0  0  0  0  0  0  0
   65.8980   33.8250   51.2730 C   0  0  0  0  0  0  0  0  0  0  0  0
   66.6400   32.9450   50.2550 C   0  0  0  0  0  0  0  0  0  0  0  0
   67.0870   31.6150   50.8910 C   0  0  0  0  0  0  0  0  0  0  0  0
   66.1340   31.1350   51.9990 C   0  0  0  0  0  0  0  0  0  0  0  0
   64.7190   31.6830   51.7910 C   0  0  0  0  0  0  0  0  0  0  0  0
   61.9410   31.8760   49.6230 C   0  0  0  0  0  0  0  0  0  0  0  0
   57.7690   29.0350   46.2480 C   0  0  0  0  0  0  0  0  0  0  0  0
   57.0080   28.0830   45.9190 O   0  0  0  0  0  0  0  0  0  0  0  0
   57.3580   30.3690   45.9090 N   0  0  0  0  0  0  0  0  0  0  0  0
   57.4150   31.0160   44.6280 C   0  0  0  0  0  0  0  0  0  0  0  0
   56.8220   30.4340   43.4940 C   0  0  0  0  0  0  0  0  0  0  0  0
   56.9270   31.0510   42.2470 C   0  0  0  0  0  0  0  0  0  0  0  0
   57.5780   32.2810   42.1260 C   0  0  0  0  0  0  0  0  0  0  0  0
   58.1070   32.9030   43.2590 C   0  0  0  0  0  0  0  0  0  0  0  0
   58.0050   32.2950   44.5180 C   0  0  0  0  0  0  0  0  0  0  0  0
   58.5190   32.9770   45.6750 N   0  0  0  0  0  0  0  0  0  0  0  0
   59.7120   33.8290   45.5130 C   0  0  0  0  0  0  0  0  0  0  0  0
   60.2520   34.3350   46.8520 C   0  0  0  0  0  0  0  0  0  0  0  0
   59.1910   34.6480   47.7290 O   0  0  0  0  0  0  0  0  0  0  0  0
   58.5770   33.4450   48.1380 C   0  0  0  0  0  0  0  0  0  0  0  0
   57.8460   32.7710   46.9690 C   0  0  0  0  0  0  0  0  0  0  0  0
   61.2267   29.4281   45.3527 H   0  0  0  0  0  0  0  0  0  0  0  0
   61.1494   27.8463   44.5050 H   0  0  0  0  0  0  0  0  0  0  0  0
   59.7215   28.9361   44.5050 H   0  0  0  0  0  0  0  0  0  0  0  0
   60.9208   27.8593   47.0801 H   0  0  0  0  0  0  0  0  0  0  0  0
   59.3994   25.9544   47.0343 H   0  0  0  0  0  0  0  0  0  0  0  0
   58.6473   26.5306   45.5082 H   0  0  0  0  0  0  0  0  0  0  0  0
   60.3469   25.9490   45.5082 H   0  0  0  0  0  0  0  0  0  0  0  0
   58.6232   28.1429   47.9699 H   0  0  0  0  0  0  0  0  0  0  0  0
   59.2610   30.9050   47.2040 H   0  0  0  0  0  0  0  0  0  0  0  0
   62.0155   31.0902   46.2928 H   0  0  0  0  0  0  0  0  0  0  0  0
   63.5694   33.0417   46.2821 H   0  0  0  0  0  0  0  0  0  0  0  0
   64.1159   34.2192   48.4102 H   0  0  0  0  0  0  0  0  0  0  0  0
   65.5822   34.7516   50.7714 H   0  0  0  0  0  0  0  0  0  0  0  0
   66.5911   34.0244   52.1035 H   0  0  0  0  0  0  0  0  0  0  0  0
   65.9697   32.7312   49.4094 H   0  0  0  0  0  0  0  0  0  0  0  0
   67.5346   33.4860   49.9130 H   0  0  0  0  0  0  0  0  0  0  0  0
   67.1285   30.8461   50.1055 H   0  0  0  0  0  0  0  0  0  0  0  0
   68.0724   31.7819   51.3506 H   0  0  0  0  0  0  0  0  0  0  0  0
   66.0977   30.0356   51.9891 H   0  0  0  0  0  0  0  0  0  0  0  0
   66.5107   31.5030   52.9648 H   0  0  0  0  0  0  0  0  0  0  0  0
   64.3493   31.3550   50.8082 H   0  0  0  0  0  0  0  0  0  0  0  0
   64.0776   31.2991   52.5980 H   0  0  0  0  0  0  0  0  0  0  0  0
   61.4565   31.5700   50.5619 H   0  0  0  0  0  0  0  0  0  0  0  0
   56.2718   29.4864   43.5904 H   0  0  0  0  0  0  0  0  0  0  0  0
   56.4963   30.5680   41.3575 H   0  0  0  0  0  0  0  0  0  0  0  0
   57.6738   32.7589   41.1399 H   0  0  0  0  0  0  0  0  0  0  0  0
   58.6077   33.8777   43.1627 H   0  0  0  0  0  0  0  0  0  0  0  0
   60.4984   33.2447   45.0128 H   0  0  0  0  0  0  0  0  0  0  0  0
   59.4203   34.7054   44.9157 H   0  0  0  0  0  0  0  0  0  0  0  0
   60.8790   33.5543   47.3073 H   0  0  0  0  0  0  0  0  0  0  0  0
   60.8454   35.2440   46.6745 H   0  0  0  0  0  0  0  0  0  0  0  0
   59.3481   32.7607   48.5217 H   0  0  0  0  0  0  0  0  0  0  0  0
   57.8412   33.6779   48.9218 H   0  0  0  0  0  0  0  0  0  0  0  0
   57.7896   31.6904   47.1669 H   0  0  0  0  0  0  0  0  0  0  0  0
   56.8478   33.2275   46.8975 H   0  0  0  0  0  0  0  0  0  0  0  0
  1  2  1  0
  2  3  1  0
  2  4  1  0
  4  5  1  0
  5  6  1  0
  6  7  2  0
  6  8  1  0
  8  9  2  0
  9 10  1  0
 10 11  2  0
 11 12  1  0
 12 13  1  0
 13 14  2  0
 13 15  2  0
 13 16  1  0
 16 17  1  0
 17 18  1  0
 18 19  1  0
 19 20  1  0
 20 21  1  0
 12 22  2  0
  4 23  1  0
 23 24  2  0
 23 25  1  0
 25 26  1  0
 26 27  2  0
 27 28  1  0
 28 29  2  0
 29 30  1  0
 30 31  2  0
 31 32  1  0
 32 33  1  0
 33 34  1  0
 34 35  1  0
 35 36  1  0
 36 37  1  0
 22  8  1  0
 31 26  1  0
 37 32  1  0
 21 16  1  0
  1 38  1  0
  1 39  1  0
  1 40  1  0
  2 41  1  0
  3 42  1  0
  3 43  1  0
  3 44  1  0
  4 45  1  1
  5 46  1  0
  9 47  1  0
 10 48  1  0
 11 49  1  0
 17 50  1  0
 17 51  1  0
 18 52  1  0
 18 53  1  0
 19 54  1  0
 19 55  1  0
 20 56  1  0
 20 57  1  0
 21 58  1  0
 21 59  1  0
 22 60  1  0
 27 61  1  0
 28 62  1  0
 29 63  1  0
 30 64  1  0
 33 65  1  0
 33 66  1  0
 34 67  1  0
 34 68  1  0
 36 69  1  0
 36 70  1  0
 37 71  1  0
 37 72  1  0
M  CHG  1  25  -1
M  END
>  <UniqueID>  (51) 
49

>  <SMILES>  (51) 
CC(C)[C@@H](NC(=O)c1cccc(S(=O)(=O)N2CCCCC2)c1)C(=O)[N-]c1ccccc1N1CCOCC1

>  <Energy>  (51) 
90.5583475502137

>  <Genealogy>  (51) 
CC(C)C(NC(=O)c1cccc(S(=O)(=O)N2CCCCC2)c1)C(=O)[N-]c1ccccc1N1CCOCC1 (protonated)
CC(C)[C@@H](NC(=O)c1cccc(S(=O)(=O)N2CCCCC2)c1)C(=O)[N-]c1ccccc1N1CCOCC1 (chirality)
CC(C)[C@@H](NC(=O)c1cccc(S(=O)(=O)N2CCCCC2)c1)C(=O)[N-]c1ccccc1N1CCOCC1 (3D coordinates assigned)
CC(C)[C@@H](NC(=O)c1cccc(S(=O)(=O)N2CCCCC2)c1)C(=O)[N-]c1ccccc1N1CCOCC1 (nonaromatic ring conformer: 90.5583475502137 kcal/mol)

>  <smiles>  (51) 
CC(C)C(NC(=O)c1cccc(S(=O)(=O)N2CCCCC2)c1)C(=O)Nc1ccccc1N1CCOCC1

>  <score_type>  (51) 
oracle

>  <origin>  (51) 
adg

>  <m_score__min__energy>  (51) 
-11.68

>  <m_primary>  (51) 
energy

$$$$
51:0
     RDKit          3D

 57 60  0  0  0  0  0  0  0  0999 V2000
   55.9190   29.2710   44.8990 O   0  0  0  0  0  0  0  0  0  0  0  0
   56.8400   29.5220   44.0760 C   0  0  0  0  0  0  0  0  0  0  0  0
   56.8600   30.8440   43.3590 C   0  0  0  0  0  0  0  0  0  0  0  0
   57.5860   31.8990   44.1410 C   0  0  0  0  0  0  0  0  0  0  0  0
   58.0520   33.1170   43.6490 C   0  0  0  0  0  0  0  0  0  0  0  0
   58.7640   33.8580   44.6010 C   0  0  0  0  0  0  0  0  0  0  0  0
   58.8760   33.2100   45.8230 C   0  0  0  0  0  0  0  0  0  0  0  0
   59.7390   33.8150   47.2310 S   0  0  0  0  0  0  0  0  0  0  0  0
   58.9390   33.4950   48.4640 O   0  0  0  0  0  0  0  0  0  0  0  0
   59.8560   35.3120   47.1220 O   0  0  0  0  0  0  0  0  0  0  0  0
   61.3290   33.1080   47.3840 N   0  0  0  0  0  0  0  0  0  0  0  0
   62.2990   33.8450   46.5600 C   0  0  0  0  0  0  0  0  0  0  0  0
   63.7030   33.2220   46.7110 C   0  0  0  0  0  0  0  0  0  0  0  0
   63.7270   32.1840   47.6760 O   0  0  0  0  0  0  0  0  0  0  0  0
   63.2340   32.6680   48.9110 C   0  0  0  0  0  0  0  0  0  0  0  0
   61.7570   33.0990   48.7930 C   0  0  0  0  0  0  0  0  0  0  0  0
   58.1060   31.7190   45.7310 S   0  0  0  0  0  0  0  0  0  0  0  0
   57.9300   28.6020   43.9010 N   0  0  0  0  0  0  0  0  0  0  0  0
   57.9410   27.2640   44.4250 C   0  0  0  0  0  0  0  0  0  0  0  0
   58.1720   27.0660   45.7930 C   0  0  0  0  0  0  0  0  0  0  0  0
   58.1980   25.7750   46.3280 C   0  0  0  0  0  0  0  0  0  0  0  0
   58.0290   24.6590   45.4940 C   0  0  0  0  0  0  0  0  0  0  0  0
   58.0300   23.2920   46.0570 C   0  0  0  0  0  0  0  0  0  0  0  0
   58.6340   22.3780   45.4410 O   0  0  0  0  0  0  0  0  0  0  0  0
   57.3580   22.9730   47.2840 N   0  0  0  0  0  0  0  0  0  0  0  0
   56.1840   23.6680   47.8100 C   0  0  0  0  0  0  0  0  0  0  0  0
   54.9930   23.4160   46.9250 C   0  0  0  0  0  0  0  0  0  0  0  0
   54.1060   22.3600   47.1980 C   0  0  0  0  0  0  0  0  0  0  0  0
   53.0330   22.1220   46.3330 C   0  0  0  0  0  0  0  0  0  0  0  0
   52.8550   22.9080   45.2370 N   0  0  0  0  0  0  0  0  0  0  0  0
   53.7000   23.9360   44.9460 C   0  0  0  0  0  0  0  0  0  0  0  0
   54.7880   24.2040   45.7810 C   0  0  0  0  0  0  0  0  0  0  0  0
   57.8020   24.8540   44.1230 C   0  0  0  0  0  0  0  0  0  0  0  0
   57.7700   26.1470   43.5900 C   0  0  0  0  0  0  0  0  0  0  0  0
   57.3614   30.7137   42.3886 H   0  0  0  0  0  0  0  0  0  0  0  0
   55.8190   31.1748   43.2290 H   0  0  0  0  0  0  0  0  0  0  0  0
   57.8784   33.4611   42.6187 H   0  0  0  0  0  0  0  0  0  0  0  0
   59.1907   34.8518   44.4004 H   0  0  0  0  0  0  0  0  0  0  0  0
   61.9911   33.7972   45.5051 H   0  0  0  0  0  0  0  0  0  0  0  0
   62.3319   34.8930   46.8926 H   0  0  0  0  0  0  0  0  0  0  0  0
   64.0141   32.8100   45.7397 H   0  0  0  0  0  0  0  0  0  0  0  0
   64.3890   34.0129   47.0485 H   0  0  0  0  0  0  0  0  0  0  0  0
   63.3162   31.8727   49.6664 H   0  0  0  0  0  0  0  0  0  0  0  0
   63.8300   33.5449   49.2039 H   0  0  0  0  0  0  0  0  0  0  0  0
   61.1288   32.3937   49.3568 H   0  0  0  0  0  0  0  0  0  0  0  0
   61.6510   34.1148   49.2016 H   0  0  0  0  0  0  0  0  0  0  0  0
   58.8080   28.9640   43.4670 H   0  0  0  0  0  0  0  0  0  0  0  0
   58.3340   27.9329   46.4505 H   0  0  0  0  0  0  0  0  0  0  0  0
   58.3517   25.6330   47.4079 H   0  0  0  0  0  0  0  0  0  0  0  0
   55.9678   23.3005   48.8240 H   0  0  0  0  0  0  0  0  0  0  0  0
   56.3885   24.7484   47.8387 H   0  0  0  0  0  0  0  0  0  0  0  0
   54.2546   21.7261   48.0846 H   0  0  0  0  0  0  0  0  0  0  0  0
   52.3328   21.2990   46.5390 H   0  0  0  0  0  0  0  0  0  0  0  0
   53.5259   24.5552   44.0537 H   0  0  0  0  0  0  0  0  0  0  0  0
   55.4789   25.0264   45.5438 H   0  0  0  0  0  0  0  0  0  0  0  0
   57.6485   23.9863   43.4645 H   0  0  0  0  0  0  0  0  0  0  0  0
   57.6101   26.2900   42.5111 H   0  0  0  0  0  0  0  0  0  0  0  0
  1  2  2  0
  2  3  1  0
  3  4  1  0
  4  5  2  0
  5  6  1  0
  6  7  2  0
  7  8  1  0
  8  9  2  0
  8 10  2  0
  8 11  1  0
 11 12  1  0
 12 13  1  0
 13 14  1  0
 14 15  1  0
 15 16  1  0
  7 17  1  0
  2 18  1  0
 18 19  1  0
 19 20  2  0
 20 21  1  0
 21 22  2  0
 22 23  1  0
 23 24  2  0
 23 25  1  0
 25 26  1  0
 26 27  1  0
 27 28  2  0
 28 29  1  0
 29 30  2  0
 30 31  1  0
 31 32  2  0
 22 33  1  0
 33 34  2  0
 17  4  1  0
 34 19  1  0
 16 11  1  0
 32 27  1  0
  3 35  1  0
  3 36  1  0
  5 37  1  0
  6 38  1  0
 12 39  1  0
 12 40  1  0
 13 41  1  0
 13 42  1  0
 15 43  1  0
 15 44  1  0
 16 45  1  0
 16 46  1  0
 18 47  1  0
 20 48  1  0
 21 49  1  0
 26 50  1  0
 26 51  1  0
 28 52  1  0
 29 53  1  0
 31 54  1  0
 32 55  1  0
 33 56  1  0
 34 57  1  0
M  CHG  1  25  -1
M  END
>  <UniqueID>  (52) 
50

>  <SMILES>  (52) 
O=C(Cc1ccc(S(=O)(=O)N2CCOCC2)s1)Nc1ccc(C(=O)[N-]Cc2ccncc2)cc1

>  <Energy>  (52) 
99.59278351572371

>  <Genealogy>  (52) 
O=C(Cc1ccc(S(=O)(=O)N2CCOCC2)s1)Nc1ccc(C(=O)[N-]Cc2ccncc2)cc1 (protonated)
O=C(Cc1ccc(S(=O)(=O)N2CCOCC2)s1)Nc1ccc(C(=O)[N-]Cc2ccncc2)cc1 (3D coordinates assigned)
O=C(Cc1ccc(S(=O)(=O)N2CCOCC2)s1)Nc1ccc(C(=O)[N-]Cc2ccncc2)cc1 (nonaromatic ring conformer: 99.59278351572371 kcal/mol)

>  <smiles>  (52) 
O=C(Cc1ccc(S(=O)(=O)N2CCOCC2)s1)Nc1ccc(C(=O)NCc2ccncc2)cc1

>  <score_type>  (52) 
oracle

>  <origin>  (52) 
adg

>  <m_score__min__energy>  (52) 
-11.640000000000001

>  <m_primary>  (52) 
energy

$$$$
52:0
     RDKit          3D

 53 56  0  0  0  0  0  0  0  0999 V2000
   56.9780   23.0310   48.0380 O   0  0  0  0  0  0  0  0  0  0  0  0
   57.0840   23.8390   47.0770 C   0  0  0  0  0  0  0  0  0  0  0  0
   58.3950   24.1060   46.5540 N   0  0  0  0  0  0  0  0  0  0  0  0
   58.7010   24.7590   45.2870 C   0  0  0  0  0  0  0  0  0  0  0  0
   58.4670   26.2360   45.4070 C   0  0  0  0  0  0  0  0  0  0  0  0
   58.5440   26.8730   46.6530 C   0  0  0  0  0  0  0  0  0  0  0  0
   58.3570   28.2540   46.7310 C   0  0  0  0  0  0  0  0  0  0  0  0
   58.1130   29.0000   45.5680 C   0  0  0  0  0  0  0  0  0  0  0  0
   57.8900   30.4620   45.6350 C   0  0  0  0  0  0  0  0  0  0  0  0
   57.0310   30.9870   44.8750 O   0  0  0  0  0  0  0  0  0  0  0  0
   58.6200   31.2950   46.5530 N   0  0  0  0  0  0  0  0  0  0  0  0
   60.0550   31.0780   46.7880 C   0  0  0  0  0  0  0  0  0  0  0  0
   60.8370   32.4040   46.7380 C   0  0  0  0  0  0  0  0  0  0  0  0
   60.0540   33.6250   47.3010 C   0  0  0  0  0  0  0  0  0  0  0  0
   60.9640   34.5690   48.1160 C   0  0  0  0  0  0  0  0  0  0  0  0
   62.1320   33.8320   48.7240 C   0  0  0  0  0  0  0  0  0  0  0  0
   61.9900   33.1500   49.9470 C   0  0  0  0  0  0  0  0  0  0  0  0
   63.0720   32.4510   50.4920 C   0  0  0  0  0  0  0  0  0  0  0  0
   64.2990   32.4250   49.8230 C   0  0  0  0  0  0  0  0  0  0  0  0
   64.4480   33.0990   48.6070 C   0  0  0  0  0  0  0  0  0  0  0  0
   63.3700   33.8000   48.0580 C   0  0  0  0  0  0  0  0  0  0  0  0
   58.8450   33.1850   48.1480 C   0  0  0  0  0  0  0  0  0  0  0  0
   57.8950   32.3330   47.2970 C   0  0  0  0  0  0  0  0  0  0  0  0
   58.0470   28.3230   44.3410 C   0  0  0  0  0  0  0  0  0  0  0  0
   58.2360   26.9780   44.2890 N   0  0  0  0  0  0  0  0  0  0  0  0
   55.8570   24.4650   46.5360 C   0  0  0  0  0  0  0  0  0  0  0  0
   54.8040   23.7890   45.9550 C   0  0  0  0  0  0  0  0  0  0  0  0
   53.9140   24.7800   45.6070 C   0  0  0  0  0  0  0  0  0  0  0  0
   54.4140   25.9770   45.9640 N   0  0  0  0  0  0  0  0  0  0  0  0
   55.5960   25.7870   46.5290 N   0  0  0  0  0  0  0  0  0  0  0  0
   59.7540   24.5760   45.0268 H   0  0  0  0  0  0  0  0  0  0  0  0
   58.0487   24.3506   44.5011 H   0  0  0  0  0  0  0  0  0  0  0  0
   58.7502   26.2893   47.5623 H   0  0  0  0  0  0  0  0  0  0  0  0
   58.4011   28.7590   47.7072 H   0  0  0  0  0  0  0  0  0  0  0  0
   60.1905   30.6192   47.7785 H   0  0  0  0  0  0  0  0  0  0  0  0
   60.4404   30.4176   45.9972 H   0  0  0  0  0  0  0  0  0  0  0  0
   61.7588   32.2838   47.3261 H   0  0  0  0  0  0  0  0  0  0  0  0
   61.0346   32.6159   45.6768 H   0  0  0  0  0  0  0  0  0  0  0  0
   59.6796   34.1832   46.4302 H   0  0  0  0  0  0  0  0  0  0  0  0
   61.3470   35.3569   47.4508 H   0  0  0  0  0  0  0  0  0  0  0  0
   60.3669   34.9989   48.9338 H   0  0  0  0  0  0  0  0  0  0  0  0
   61.0255   33.1668   50.4756 H   0  0  0  0  0  0  0  0  0  0  0  0
   62.9571   31.9207   51.4489 H   0  0  0  0  0  0  0  0  0  0  0  0
   65.1481   31.8739   50.2535 H   0  0  0  0  0  0  0  0  0  0  0  0
   65.4143   33.0777   48.0818 H   0  0  0  0  0  0  0  0  0  0  0  0
   63.4909   34.3287   47.1010 H   0  0  0  0  0  0  0  0  0  0  0  0
   59.1965   32.5930   49.0059 H   0  0  0  0  0  0  0  0  0  0  0  0
   58.3097   34.0766   48.5064 H   0  0  0  0  0  0  0  0  0  0  0  0
   57.1593   31.8508   47.9575 H   0  0  0  0  0  0  0  0  0  0  0  0
   57.3978   32.9930   46.5710 H   0  0  0  0  0  0  0  0  0  0  0  0
   57.8414   28.8832   43.4169 H   0  0  0  0  0  0  0  0  0  0  0  0
   54.6993   22.7044   45.8041 H   0  0  0  0  0  0  0  0  0  0  0  0
   52.9443   24.6183   45.1135 H   0  0  0  0  0  0  0  0  0  0  0  0
  1  2  2  0
  2  3  1  0
  3  4  1  0
  4  5  1  0
  5  6  2  0
  6  7  1  0
  7  8  2  0
  8  9  1  0
  9 10  2  0
  9 11  1  0
 11 12  1  0
 12 13  1  0
 13 14  1  0
 14 15  1  0
 15 16  1  0
 16 17  2  0
 17 18  1  0
 18 19  2  0
 19 20  1  0
 20 21  2  0
 14 22  1  0
 22 23  1  0
  8 24  1  0
 24 25  2  0
  2 26  1  0
 26 27  1  0
 27 28  2  0
 28 29  1  0
 29 30  1  0
 25  5  1  0
 30 26  2  0
 23 11  1  0
 21 16  1  0
  4 31  1  0
  4 32  1  0
  6 33  1  0
  7 34  1  0
 12 35  1  0
 12 36  1  0
 13 37  1  0
 13 38  1  0
 14 39  1  0
 15 40  1  0
 15 41  1  0
 17 42  1  0
 18 43  1  0
 19 44  1  0
 20 45  1  0
 21 46  1  0
 22 47  1  0
 22 48  1  0
 23 49  1  0
 23 50  1  0
 24 51  1  0
 27 52  1  0
 28 53  1  0
M  CHG  2   3  -1  29  -1
M  END
>  <UniqueID>  (53) 
51

>  <SMILES>  (53) 
O=C([N-]Cc1ccc(C(=O)N2CCC(Cc3ccccc3)CC2)cn1)c1cc[n-]n1

>  <Energy>  (53) 
90.28554792173222

>  <Genealogy>  (53) 
O=C([N-]Cc1ccc(C(=O)N2CCC(Cc3ccccc3)CC2)cn1)c1cc[n-]n1 (protonated)
O=C([N-]Cc1ccc(C(=O)N2CCC(Cc3ccccc3)CC2)cn1)c1cc[n-]n1 (3D coordinates assigned)
O=C([N-]Cc1ccc(C(=O)N2CCC(Cc3ccccc3)CC2)cn1)c1cc[n-]n1 (nonaromatic ring conformer: 90.28554792173222 kcal/mol)

>  <smiles>  (53) 
O=C(NCc1ccc(C(=O)N2CCC(Cc3ccccc3)CC2)cn1)c1cc[nH]n1

>  <score_type>  (53) 
oracle

>  <origin>  (53) 
adg

>  <m_score__min__energy>  (53) 
-13.85

>  <m_primary>  (53) 
energy

$$$$
53:0
     RDKit          3D

 36 38  0  0  0  0  0  0  0  0999 V2000
   59.6290   34.2760   47.3670 C   0  0  0  0  0  0  0  0  0  0  0  0
   59.0950   33.5730   46.1540 C   0  0  0  0  0  0  0  0  0  0  0  0
   59.2400   34.1460   44.8840 C   0  0  0  0  0  0  0  0  0  0  0  0
   58.7760   33.4750   43.7480 C   0  0  0  0  0  0  0  0  0  0  0  0
   58.1640   32.2170   43.8670 C   0  0  0  0  0  0  0  0  0  0  0  0
   57.6790   31.5010   42.6360 C   0  0  0  0  0  0  0  0  0  0  0  0
   58.0440   31.6230   45.1410 C   0  0  0  0  0  0  0  0  0  0  0  0
   57.4480   30.3210   45.2960 N   0  0  0  0  0  0  0  0  0  0  0  0
   56.1710   30.1010   44.8600 C   0  0  0  0  0  0  0  0  0  0  0  0
   55.5060   31.0290   44.3230 O   0  0  0  0  0  0  0  0  0  0  0  0
   55.6050   28.8800   45.0020 N   0  0  0  0  0  0  0  0  0  0  0  0
   56.2720   27.8460   45.5690 C   0  0  0  0  0  0  0  0  0  0  0  0
   55.6160   26.6290   45.7090 O   0  0  0  0  0  0  0  0  0  0  0  0
   57.5930   28.0230   46.0200 C   0  0  0  0  0  0  0  0  0  0  0  0
   58.3660   26.9100   46.6440 C   0  0  0  0  0  0  0  0  0  0  0  0
   58.6260   26.9540   47.8770 O   0  0  0  0  0  0  0  0  0  0  0  0
   58.8810   25.7580   45.8150 C   0  0  0  0  0  0  0  0  0  0  0  0
   58.0400   25.4560   44.5830 C   0  0  0  0  0  0  0  0  0  0  0  0
   58.0210   24.5000   45.7630 C   0  0  0  0  0  0  0  0  0  0  0  0
   58.1670   29.3040   45.8660 C   0  0  0  0  0  0  0  0  0  0  0  0
   59.3550   29.5110   46.2420 O   0  0  0  0  0  0  0  0  0  0  0  0
   58.5110   32.3040   46.2750 C   0  0  0  0  0  0  0  0  0  0  0  0
   59.2523   33.7801   48.2737 H   0  0  0  0  0  0  0  0  0  0  0  0
   60.7283   34.2384   47.3583 H   0  0  0  0  0  0  0  0  0  0  0  0
   59.2979   35.3250   47.3583 H   0  0  0  0  0  0  0  0  0  0  0  0
   59.7216   35.1294   44.7796 H   0  0  0  0  0  0  0  0  0  0  0  0
   58.8912   33.9355   42.7557 H   0  0  0  0  0  0  0  0  0  0  0  0
   57.0849   30.6239   42.9321 H   0  0  0  0  0  0  0  0  0  0  0  0
   57.0551   32.1815   42.0379 H   0  0  0  0  0  0  0  0  0  0  0  0
   58.5424   31.1741   42.0379 H   0  0  0  0  0  0  0  0  0  0  0  0
   59.9430   25.9478   46.0296 H   0  0  0  0  0  0  0  0  0  0  0  0
   57.1548   26.0691   44.3582 H   0  0  0  0  0  0  0  0  0  0  0  0
   58.2461   25.3577   43.5070 H   0  0  0  0  0  0  0  0  0  0  0  0
   57.1226   24.4215   46.3928 H   0  0  0  0  0  0  0  0  0  0  0  0
   58.2078   23.4241   45.8954 H   0  0  0  0  0  0  0  0  0  0  0  0
   58.4183   31.8386   47.2674 H   0  0  0  0  0  0  0  0  0  0  0  0
  1  2  1  0
  2  3  2  0
  3  4  1  0
  4  5  2  0
  5  6  1  0
  5  7  1  0
  7  8  1  0
  8  9  1  0
  9 10  2  0
  9 11  1  0
 11 12  1  0
 12 13  1  0
 12 14  2  0
 14 15  1  0
 15 16  2  0
 15 17  1  0
 17 18  1  0
 18 19  1  0
 14 20  1  0
 20 21  2  0
  7 22  2  0
 22  2  1  0
 20  8  1  0
 19 17  1  0
  1 23  1  0
  1 24  1  0
  1 25  1  0
  3 26  1  0
  4 27  1  0
  6 28  1  0
  6 29  1  0
  6 30  1  0
 17 31  1  0
 18 32  1  0
 18 33  1  0
 19 34  1  0
 19 35  1  0
 22 36  1  0
M  CHG  2  11  -1  13  -1
M  END
>  <UniqueID>  (54) 
52

>  <SMILES>  (54) 
Cc1ccc(C)c(-n2c(=O)[n-]c([O-])c(C(=O)C3CC3)c2=O)c1

>  <Energy>  (54) 
317.6172235182381

>  <Genealogy>  (54) 
Cc1ccc(C)c(-n2c(=O)[n-]c([O-])c(C(=O)C3CC3)c2=O)c1 (protonated)
Cc1ccc(C)c(-n2c(=O)[n-]c([O-])c(C(=O)C3CC3)c2=O)c1 (3D coordinates assigned)
Cc1ccc(C)c(-n2c(=O)[n-]c([O-])c(C(=O)C3CC3)c2=O)c1 (nonaromatic ring conformer: 317.6172235182381 kcal/mol)

>  <smiles>  (54) 
Cc1ccc(C)c(-n2c(=O)[nH]c(O)c(C(=O)C3CC3)c2=O)c1

>  <score_type>  (54) 
oracle

>  <origin>  (54) 
adg

>  <m_score__min__energy>  (54) 
-11.48

>  <m_primary>  (54) 
energy

$$$$
54:0
     RDKit          3D

 29 30  0  0  0  0  0  0  0  0999 V2000
   57.4310   33.7210   44.5350 C   0  0  0  0  0  0  0  0  0  0  0  0
   58.0480   33.0520   45.7350 C   0  0  0  0  0  0  0  0  0  0  0  0
   58.3130   33.8300   46.8760 C   0  0  0  0  0  0  0  0  0  0  0  0
   58.8990   33.2590   48.0070 C   0  0  0  0  0  0  0  0  0  0  0  0
   59.2340   31.9070   48.0120 C   0  0  0  0  0  0  0  0  0  0  0  0
   58.9930   31.1220   46.8850 C   0  0  0  0  0  0  0  0  0  0  0  0
   58.4090   31.6780   45.7310 C   0  0  0  0  0  0  0  0  0  0  0  0
   58.1880   30.7820   44.5250 C   0  0  0  0  0  0  0  0  0  0  0  0
   58.0610   29.3650   44.9170 N   0  0  0  0  0  0  0  0  0  0  0  0
   59.1740   28.5680   44.9050 C   0  0  0  0  0  0  0  0  0  0  0  0
   59.0950   27.2240   45.2670 C   0  0  0  0  0  0  0  0  0  0  0  0
   57.8670   26.6830   45.6290 C   0  0  0  0  0  0  0  0  0  0  0  0
   56.7250   27.4820   45.6180 C   0  0  0  0  0  0  0  0  0  0  0  0
   55.4980   26.9210   45.9730 O   0  0  0  0  0  0  0  0  0  0  0  0
   56.8360   28.8350   45.2480 C   0  0  0  0  0  0  0  0  0  0  0  0
   55.7990   29.5530   45.2170 O   0  0  0  0  0  0  0  0  0  0  0  0
   56.7206   34.4913   44.8695 H   0  0  0  0  0  0  0  0  0  0  0  0
   58.2211   34.1891   43.9295 H   0  0  0  0  0  0  0  0  0  0  0  0
   56.9007   32.9713   43.9295 H   0  0  0  0  0  0  0  0  0  0  0  0
   58.0559   34.8995   46.8773 H   0  0  0  0  0  0  0  0  0  0  0  0
   59.0964   33.8773   48.8951 H   0  0  0  0  0  0  0  0  0  0  0  0
   59.6896   31.4577   48.9067 H   0  0  0  0  0  0  0  0  0  0  0  0
   59.2624   30.0556   46.8978 H   0  0  0  0  0  0  0  0  0  0  0  0
   57.2664   31.0945   44.0122 H   0  0  0  0  0  0  0  0  0  0  0  0
   59.0593   30.8784   43.8605 H   0  0  0  0  0  0  0  0  0  0  0  0
   60.1432   28.9936   44.6058 H   0  0  0  0  0  0  0  0  0  0  0  0
   59.9982   26.5961   45.2661 H   0  0  0  0  0  0  0  0  0  0  0  0
   57.7965   25.6256   45.9238 H   0  0  0  0  0  0  0  0  0  0  0  0
   54.7420   27.4750   46.3590 H   0  0  0  0  0  0  0  0  0  0  0  0
  1  2  1  0
  2  3  2  0
  3  4  1  0
  4  5  2  0
  5  6  1  0
  6  7  2  0
  7  8  1  0
  8  9  1  0
  9 10  1  0
 10 11  2  0
 11 12  1  0
 12 13  2  0
 13 14  1  0
 13 15  1  0
 15 16  2  0
  7  2  1  0
 15  9  1  0
  1 17  1  0
  1 18  1  0
  1 19  1  0
  3 20  1  0
  4 21  1  0
  5 22  1  0
  6 23  1  0
  8 24  1  0
  8 25  1  0
 10 26  1  0
 11 27  1  0
 12 28  1  0
 14 29  1  0
M  END
>  <UniqueID>  (55) 
53

>  <SMILES>  (55) 
Cc1ccccc1Cn1cccc(O)c1=O

>  <Energy>  (55) 
33.462884078761924

>  <Genealogy>  (55) 
Cc1ccccc1Cn1cccc(O)c1=O (3D coordinates assigned)
Cc1ccccc1Cn1cccc(O)c1=O (optimized conformer: 33.462884078761924 kcal/mol)

>  <smiles>  (55) 
Cc1ccccc1Cn1cccc(O)c1=O

>  <score_type>  (55) 
oracle

>  <origin>  (55) 
adg

>  <m_score__min__energy>  (55) 
-7.3600000000000003

>  <m_primary>  (55) 
energy

$$$$
55:0
     RDKit          3D

 57 60  0  0  0  0  0  0  0  0999 V2000
   56.1910   29.7170   42.9340 C   0  0  0  0  0  0  0  0  0  0  0  0
   57.0210   30.9690   43.1900 C   0  0  0  0  0  0  0  0  0  0  0  0
   56.6330   31.5840   44.4170 O   0  0  0  0  0  0  0  0  0  0  0  0
   57.4170   32.5300   45.0900 C   0  0  0  0  0  0  0  0  0  0  0  0
   57.4800   33.7180   44.6670 O   0  0  0  0  0  0  0  0  0  0  0  0
   58.1680   32.1390   46.3040 C   0  0  0  0  0  0  0  0  0  0  0  0
   58.4120   30.8090   46.6600 C   0  0  0  0  0  0  0  0  0  0  0  0
   58.0820   29.6550   45.8710 N   0  0  0  0  0  0  0  0  0  0  0  0
   58.9270   28.4990   45.7780 C   0  0  0  0  0  0  0  0  0  0  0  0
   59.8890   28.3460   46.5810 O   0  0  0  0  0  0  0  0  0  0  0  0
   58.6010   27.4190   44.7840 C   0  0  0  0  0  0  0  0  0  0  0  0
   57.5710   26.4610   45.3180 C   0  0  0  0  0  0  0  0  0  0  0  0
   57.9020   25.1500   45.4730 N   0  0  0  0  0  0  0  0  0  0  0  0
   57.0020   24.2400   45.9240 C   0  0  0  0  0  0  0  0  0  0  0  0
   57.3610   22.8970   46.0790 C   0  0  0  0  0  0  0  0  0  0  0  0
   56.4160   21.9730   46.5400 C   0  0  0  0  0  0  0  0  0  0  0  0
   55.1140   22.3890   46.8460 C   0  0  0  0  0  0  0  0  0  0  0  0
   54.7500   23.7310   46.6930 C   0  0  0  0  0  0  0  0  0  0  0  0
   55.6910   24.6590   46.2320 C   0  0  0  0  0  0  0  0  0  0  0  0
   55.3570   25.9660   46.0720 N   0  0  0  0  0  0  0  0  0  0  0  0
   56.2610   26.8770   45.6230 C   0  0  0  0  0  0  0  0  0  0  0  0
   55.9130   28.0790   45.4800 O   0  0  0  0  0  0  0  0  0  0  0  0
   59.3530   30.7740   48.0500 S   0  0  0  0  0  0  0  0  0  0  0  0
   59.4390   32.4400   48.2630 C   0  0  0  0  0  0  0  0  0  0  0  0
   60.2580   33.0920   49.3060 C   0  0  0  0  0  0  0  0  0  0  0  0
   59.7010   33.8370   50.1570 O   0  0  0  0  0  0  0  0  0  0  0  0
   61.6910   32.9660   49.3090 N   0  0  0  0  0  0  0  0  0  0  0  0
   62.5080   34.1170   49.7010 C   0  0  0  0  0  0  0  0  0  0  0  0
   63.9930   33.8090   49.4950 C   0  0  0  0  0  0  0  0  0  0  0  0
   64.1600   33.0990   48.2860 O   0  0  0  0  0  0  0  0  0  0  0  0
   63.6780   31.7670   48.4160 C   0  0  0  0  0  0  0  0  0  0  0  0
   62.3320   31.6510   49.1690 C   0  0  0  0  0  0  0  0  0  0  0  0
   58.7230   33.0610   47.2280 C   0  0  0  0  0  0  0  0  0  0  0  0
   58.5450   34.5540   47.1300 C   0  0  0  0  0  0  0  0  0  0  0  0
   55.8950   29.2705   43.8947 H   0  0  0  0  0  0  0  0  0  0  0  0
   55.2908   29.9846   42.3612 H   0  0  0  0  0  0  0  0  0  0  0  0
   56.7880   28.9921   42.3612 H   0  0  0  0  0  0  0  0  0  0  0  0
   58.0845   30.6934   43.2438 H   0  0  0  0  0  0  0  0  0  0  0  0
   56.8544   31.6803   42.3676 H   0  0  0  0  0  0  0  0  0  0  0  0
   57.1850   29.6540   45.3340 H   0  0  0  0  0  0  0  0  0  0  0  0
   58.2122   27.8850   43.8666 H   0  0  0  0  0  0  0  0  0  0  0  0
   59.5217   26.8526   44.5800 H   0  0  0  0  0  0  0  0  0  0  0  0
   58.3829   22.5680   45.8393 H   0  0  0  0  0  0  0  0  0  0  0  0
   56.6968   20.9165   46.6624 H   0  0  0  0  0  0  0  0  0  0  0  0
   54.3756   21.6583   47.2077 H   0  0  0  0  0  0  0  0  0  0  0  0
   53.7272   24.0560   46.9343 H   0  0  0  0  0  0  0  0  0  0  0  0
   62.2290   34.9860   49.0870 H   0  0  0  0  0  0  0  0  0  0  0  0
   62.3320   34.3351   50.7647 H   0  0  0  0  0  0  0  0  0  0  0  0
   64.5604   34.7502   49.4495 H   0  0  0  0  0  0  0  0  0  0  0  0
   64.3623   33.2002   50.3334 H   0  0  0  0  0  0  0  0  0  0  0  0
   63.5465   31.3477   47.4076 H   0  0  0  0  0  0  0  0  0  0  0  0
   64.4221   31.2181   49.0119 H   0  0  0  0  0  0  0  0  0  0  0  0
   61.6625   30.9825   48.6078 H   0  0  0  0  0  0  0  0  0  0  0  0
   62.5265   31.2475   50.1737 H   0  0  0  0  0  0  0  0  0  0  0  0
   58.4937   34.9843   48.1410 H   0  0  0  0  0  0  0  0  0  0  0  0
   59.3975   34.9902   46.5887 H   0  0  0  0  0  0  0  0  0  0  0  0
   57.6138   34.7775   46.5887 H   0  0  0  0  0  0  0  0  0  0  0  0
  1  2  1  0
  2  3  1  0
  3  4  1  0
  4  5  2  0
  4  6  1  0
  6  7  2  0
  7  8  1  0
  8  9  1  0
  9 10  2  0
  9 11  1  0
 11 12  1  0
 12 13  2  0
 13 14  1  0
 14 15  2  0
 15 16  1  0
 16 17  2  0
 17 18  1  0
 18 19  2  0
 19 20  1  0
 20 21  1  0
 21 22  2  0
  7 23  1  0
 23 24  1  0
 24 25  1  0
 25 26  2  0
 25 27  1  0
 27 28  1  0
 28 29  1  0
 29 30  1  0
 30 31  1  0
 31 32  1  0
 24 33  2  0
 33 34  1  0
 33  6  1  0
 21 12  1  0
 32 27  1  0
 19 14  1  0
  1 35  1  0
  1 36  1  0
  1 37  1  0
  2 38  1  0
  2 39  1  0
  8 40  1  0
 11 41  1  0
 11 42  1  0
 15 43  1  0
 16 44  1  0
 17 45  1  0
 18 46  1  0
 28 47  1  0
 28 48  1  0
 29 49  1  0
 29 50  1  0
 31 51  1  0
 31 52  1  0
 32 53  1  0
 32 54  1  0
 34 55  1  0
 34 56  1  0
 34 57  1  0
M  CHG  1  20  -1
M  END
>  <UniqueID>  (56) 
54

>  <SMILES>  (56) 
CCOC(=O)c1c(NC(=O)Cc2nc3ccccc3[n-]c2=O)sc(C(=O)N2CCOCC2)c1C

>  <Energy>  (56) 
102.24982841442869

>  <Genealogy>  (56) 
CCOC(=O)c1c(NC(=O)Cc2nc3ccccc3[n-]c2=O)sc(C(=O)N2CCOCC2)c1C (protonated)
CCOC(=O)c1c(NC(=O)Cc2nc3ccccc3[n-]c2=O)sc(C(=O)N2CCOCC2)c1C (3D coordinates assigned)
CCOC(=O)c1c(NC(=O)Cc2nc3ccccc3[n-]c2=O)sc(C(=O)N2CCOCC2)c1C (nonaromatic ring conformer: 102.24982841442869 kcal/mol)

>  <smiles>  (56) 
CCOC(=O)c1c(NC(=O)Cc2nc3ccccc3[nH]c2=O)sc(C(=O)N2CCOCC2)c1C

>  <score_type>  (56) 
oracle

>  <origin>  (56) 
adg

>  <m_score__min__energy>  (56) 
-10.630000000000001

>  <m_primary>  (56) 
energy

$$$$
56:0
     RDKit          3D

 35 36  0  0  0  0  0  0  0  0999 V2000
   55.5070   29.7610   43.3960 C   0  0  0  0  0  0  0  0  0  0  0  0
   56.4480   30.3390   44.4030 C   0  0  0  0  0  0  0  0  0  0  0  0
   56.6370   31.6600   44.5760 N   0  0  0  0  0  0  0  0  0  0  0  0
   57.5120   31.8350   45.5550 N   0  0  0  0  0  0  0  0  0  0  0  0
   57.8850   30.6280   46.0200 C   0  0  0  0  0  0  0  0  0  0  0  0
   58.8310   30.4530   47.1640 C   0  0  0  0  0  0  0  0  0  0  0  0
   57.2340   29.6360   45.3010 C   0  0  0  0  0  0  0  0  0  0  0  0
   57.2990   28.1700   45.4690 C   0  0  0  0  0  0  0  0  0  0  0  0
   58.4280   27.6180   45.5760 O   0  0  0  0  0  0  0  0  0  0  0  0
   56.0990   27.3790   45.5110 N   0  0  0  0  0  0  0  0  0  0  0  0
   56.0910   25.9530   45.7020 C   0  0  0  0  0  0  0  0  0  0  0  0
   57.2910   25.2410   45.8770 C   0  0  0  0  0  0  0  0  0  0  0  0
   57.2730   23.8490   46.0820 C   0  0  0  0  0  0  0  0  0  0  0  0
   58.4740   23.0840   46.2510 N   0  0  0  0  0  0  0  0  0  0  0  0
   58.7820   21.5160   45.5780 S   0  0  0  0  0  0  0  0  0  0  0  0
   58.5280   21.5420   43.8160 C   0  0  0  0  0  0  0  0  0  0  0  0
   60.1840   21.0830   45.9000 O   0  0  0  0  0  0  0  0  0  0  0  0
   57.8210   20.5330   46.1860 O   0  0  0  0  0  0  0  0  0  0  0  0
   56.0440   23.1810   46.1330 C   0  0  0  0  0  0  0  0  0  0  0  0
   54.8480   23.8860   45.9850 C   0  0  0  0  0  0  0  0  0  0  0  0
   54.8670   25.2680   45.7750 C   0  0  0  0  0  0  0  0  0  0  0  0
   53.6660   25.9540   45.6280 O   0  0  0  0  0  0  0  0  0  0  0  0
   54.6807   29.2535   43.9153 H   0  0  0  0  0  0  0  0  0  0  0  0
   55.1038   30.5674   42.7658 H   0  0  0  0  0  0  0  0  0  0  0  0
   56.0439   29.0368   42.7658 H   0  0  0  0  0  0  0  0  0  0  0  0
   58.2826   30.5545   48.1121 H   0  0  0  0  0  0  0  0  0  0  0  0
   59.2899   29.4547   47.1109 H   0  0  0  0  0  0  0  0  0  0  0  0
   59.6167   31.2210   47.1109 H   0  0  0  0  0  0  0  0  0  0  0  0
   55.1800   27.8480   45.3650 H   0  0  0  0  0  0  0  0  0  0  0  0
   58.2515   25.7766   45.8534 H   0  0  0  0  0  0  0  0  0  0  0  0
   57.4547   21.6519   43.6019 H   0  0  0  0  0  0  0  0  0  0  0  0
   59.0777   22.3886   43.3788 H   0  0  0  0  0  0  0  0  0  0  0  0
   58.8948   20.6016   43.3788 H   0  0  0  0  0  0  0  0  0  0  0  0
   56.0203   22.0926   46.2908 H   0  0  0  0  0  0  0  0  0  0  0  0
   53.8875   23.3522   46.0338 H   0  0  0  0  0  0  0  0  0  0  0  0
  1  2  1  0
  2  3  2  0
  3  4  1  0
  4  5  1  0
  5  6  1  0
  5  7  2  0
  7  8  1  0
  8  9  2  0
  8 10  1  0
 10 11  1  0
 11 12  2  0
 12 13  1  0
 13 14  1  0
 14 15  1  0
 15 16  1  0
 15 17  2  0
 15 18  2  0
 13 19  2  0
 19 20  1  0
 20 21  2  0
 21 22  1  0
  7  2  1  0
 21 11  1  0
  1 23  1  0
  1 24  1  0
  1 25  1  0
  6 26  1  0
  6 27  1  0
  6 28  1  0
 10 29  1  0
 12 30  1  0
 16 31  1  0
 16 32  1  0
 16 33  1  0
 19 34  1  0
 20 35  1  0
M  CHG  3   4  -1  14  -1  22  -1
M  END
>  <UniqueID>  (57) 
55

>  <SMILES>  (57) 
Cc1n[n-]c(C)c1C(=O)Nc1cc([N-]S(C)(=O)=O)ccc1[O-]

>  <Energy>  (57) 
69.09424789225775

>  <Genealogy>  (57) 
Cc1n[n-]c(C)c1C(=O)Nc1cc([N-]S(C)(=O)=O)ccc1[O-] (protonated)
Cc1n[n-]c(C)c1C(=O)Nc1cc([N-]S(C)(=O)=O)ccc1[O-] (3D coordinates assigned)
Cc1n[n-]c(C)c1C(=O)Nc1cc([N-]S(C)(=O)=O)ccc1[O-] (optimized conformer: 69.09424789225775 kcal/mol)

>  <smiles>  (57) 
Cc1n[nH]c(C)c1C(=O)Nc1cc(NS(C)(=O)=O)ccc1O

>  <score_type>  (57) 
oracle

>  <origin>  (57) 
adg

>  <m_score__min__energy>  (57) 
-12.44

>  <m_primary>  (57) 
energy

$$$$
57:0
     RDKit          3D

 53 56  0  0  0  0  0  0  0  0999 V2000
   58.9133   30.9336   44.3436 H   0  0  0  0  0  0  0  0  0  0  0  0
   58.5940   29.9160   44.6130 C   0  0  0  0  0  0  0  0  0  0  0  0
   58.2403   29.2259   43.8328 H   0  0  0  0  0  0  0  0  0  0  0  0
   58.6360   29.5160   45.8950 C   0  0  0  0  0  0  0  0  0  0  0  0
   58.2650   28.2590   46.3920 C   0  0  0  0  0  0  0  0  0  0  0  0
   57.7600   27.2270   45.6810 C   0  0  0  0  0  0  0  0  0  0  0  0
   57.8234   27.2964   44.5850 H   0  0  0  0  0  0  0  0  0  0  0  0
   57.1290   26.0110   46.2430 C   0  0  0  0  0  0  0  0  0  0  0  0
   57.7730   24.9200   46.6970 N   0  0  0  0  0  0  0  0  0  0  0  0
   56.7720   24.0980   47.0810 C   0  0  0  0  0  0  0  0  0  0  0  0
   56.9820   22.9580   47.5710 O   0  0  0  0  0  0  0  0  0  0  0  0
   55.5310   24.5930   46.8960 N   0  0  0  0  0  0  0  0  0  0  0  0
   55.7740   25.8010   46.3630 C   0  0  0  0  0  0  0  0  0  0  0  0
   54.7770   26.6950   45.9950 O   0  0  0  0  0  0  0  0  0  0  0  0
   58.5270   28.2960   47.7600 C   0  0  0  0  0  0  0  0  0  0  0  0
   58.3670   27.4807   48.4809 H   0  0  0  0  0  0  0  0  0  0  0  0
   59.0260   29.5530   48.0360 C   0  0  0  0  0  0  0  0  0  0  0  0
   59.4770   30.0190   49.3870 C   0  0  0  0  0  0  0  0  0  0  0  0
   58.9371   29.4612   50.1663 H   0  0  0  0  0  0  0  0  0  0  0  0
   60.5578   29.8443   49.4932 H   0  0  0  0  0  0  0  0  0  0  0  0
   59.2671   31.0935   49.4932 H   0  0  0  0  0  0  0  0  0  0  0  0
   59.0940   30.2900   46.9080 N   0  0  0  0  0  0  0  0  0  0  0  0
   59.5920   31.6340   46.8150 C   0  0  0  0  0  0  0  0  0  0  0  0
   60.9430   31.8960   47.0780 C   0  0  0  0  0  0  0  0  0  0  0  0
   61.6057   31.0795   47.4008 H   0  0  0  0  0  0  0  0  0  0  0  0
   61.4550   33.1930   46.9320 C   0  0  0  0  0  0  0  0  0  0  0  0
   63.1810   33.4940   47.1400 S   0  0  0  0  0  0  0  0  0  0  0  0
   63.9480   32.2520   46.7840 O   0  0  0  0  0  0  0  0  0  0  0  0
   63.6090   34.5910   46.2040 O   0  0  0  0  0  0  0  0  0  0  0  0
   63.5540   33.9460   48.7890 N   0  0  0  0  0  0  0  0  0  0  0  0
   64.6230   33.0920   49.3580 C   0  0  0  0  0  0  0  0  0  0  0  0
   65.1701   32.6137   48.5323 H   0  0  0  0  0  0  0  0  0  0  0  0
   65.2824   33.7356   49.9589 H   0  0  0  0  0  0  0  0  0  0  0  0
   64.0680   31.9970   50.2820 C   0  0  0  0  0  0  0  0  0  0  0  0
   63.3968   31.3469   49.7015 H   0  0  0  0  0  0  0  0  0  0  0  0
   64.9169   31.4260   50.6861 H   0  0  0  0  0  0  0  0  0  0  0  0
   63.3140   32.5720   51.4200 N   0  0  0  0  0  0  0  0  0  0  0  0
   62.3590   31.5860   51.9500 C   0  0  0  0  0  0  0  0  0  0  0  0
   62.3809   31.6086   53.0495 H   0  0  0  0  0  0  0  0  0  0  0  0
   61.3459   31.8310   51.5983 H   0  0  0  0  0  0  0  0  0  0  0  0
   62.6362   30.5813   51.5983 H   0  0  0  0  0  0  0  0  0  0  0  0
   62.6400   33.8570   51.1020 C   0  0  0  0  0  0  0  0  0  0  0  0
   61.6999   33.9147   51.6702 H   0  0  0  0  0  0  0  0  0  0  0  0
   63.3226   34.6749   51.3763 H   0  0  0  0  0  0  0  0  0  0  0  0
   62.3230   33.9870   49.6060 C   0  0  0  0  0  0  0  0  0  0  0  0
   61.6663   33.1572   49.3058 H   0  0  0  0  0  0  0  0  0  0  0  0
   61.8287   34.9555   49.4395 H   0  0  0  0  0  0  0  0  0  0  0  0
   60.5940   34.2370   46.5610 C   0  0  0  0  0  0  0  0  0  0  0  0
   60.9851   35.2602   46.4603 H   0  0  0  0  0  0  0  0  0  0  0  0
   59.2420   33.9820   46.3190 C   0  0  0  0  0  0  0  0  0  0  0  0
   58.5707   34.8058   46.0348 H   0  0  0  0  0  0  0  0  0  0  0  0
   58.7400   32.6830   46.4370 C   0  0  0  0  0  0  0  0  0  0  0  0
   57.4290   32.4430   46.1880 F   0  0  0  0  0  0  0  0  0  0  0  0
  1  2  1  0
  2  3  1  0
  2  4  2  0
  4  5  1  0
  5  6  2  0
  6  7  1  0
  6  8  1  0
  8  9  1  0
  9 10  1  0
 10 11  2  0
 10 12  1  0
 12 13  1  0
 13 14  1  0
  5 15  1  0
 15 16  1  0
 15 17  2  0
 17 18  1  0
 18 19  1  0
 18 20  1  0
 18 21  1  0
 17 22  1  0
 22 23  1  0
 23 24  2  0
 24 25  1  0
 24 26  1  0
 26 27  1  0
 27 28  2  0
 27 29  2  0
 27 30  1  0
 30 31  1  0
 31 32  1  0
 31 33  1  0
 31 34  1  0
 34 35  1  0
 34 36  1  0
 34 37  1  0
 37 38  1  0
 38 39  1  0
 38 40  1  0
 38 41  1  0
 37 42  1  0
 42 43  1  0
 42 44  1  0
 42 45  1  0
 45 46  1  0
 45 47  1  0
 26 48  2  0
 48 49  1  0
 48 50  1  0
 50 51  1  0
 50 52  2  0
 52 53  1  0
 22  4  1  0
 52 23  1  0
 13  8  2  0
 45 30  1  0
M  CHG  3   9  -1  12  -1  14  -1
M  END
>  <UniqueID>  (58) 
56

>  <SMILES>  (58) 
C=c1/c(=C/c2[n-]c(=O)[n-]c2[O-])cc(C)n1-c1cc(S(=O)(=O)N2CCN(C)CC2)ccc1F

>  <Energy>  (58) 
132.87546918259662

>  <Genealogy>  (58) 
C=c1c(=Cc2[n-]c(=O)[n-]c2[O-])cc(C)n1-c1cc(S(=O)(=O)N2CCN(C)CC2)ccc1F (protonated)
C=c1/c(=C/c2[n-]c(=O)[n-]c2[O-])cc(C)n1-c1cc(S(=O)(=O)N2CCN(C)CC2)ccc1F (cis-trans isomerization)
C=c1/c(=C/c2[n-]c(=O)[n-]c2[O-])cc(C)n1-c1cc(S(=O)(=O)N2CCN(C)CC2)ccc1F (3D coordinates assigned)
C=c1/c(=C/c2[n-]c(=O)[n-]c2[O-])cc(C)n1-c1cc(S(=O)(=O)N2CCN(C)CC2)ccc1F (nonaromatic ring conformer: 132.87546918259662 kcal/mol)

>  <smiles>  (58) 
C=c1c(=Cc2[nH]c(=O)[nH]c2O)cc(C)n1-c1cc(S(=O)(=O)N2CCN(C)CC2)ccc1F

>  <score_type>  (58) 
oracle

>  <origin>  (58) 
adg

>  <m_score__min__energy>  (58) 
-16.960000000000001

>  <m_primary>  (58) 
energy

$$$$
58:0
     RDKit          3D

 37 39  0  0  0  0  0  0  0  0999 V2000
   55.7064   22.6122   48.8135 H   0  0  0  0  0  0  0  0  0  0  0  0
   55.4400   23.1990   47.9220 C   0  0  0  0  0  0  0  0  0  0  0  0
   54.3270   22.8850   47.2120 N   0  0  0  0  0  0  0  0  0  0  0  0
   53.9770   23.5970   46.1100 C   0  0  0  0  0  0  0  0  0  0  0  0
   52.9020   23.2740   45.4570 N   0  0  0  0  0  0  0  0  0  0  0  0
   52.3170   24.0880   44.3980 C   0  0  0  0  0  0  0  0  0  0  0  0
   51.7303   24.9043   44.8446 H   0  0  0  0  0  0  0  0  0  0  0  0
   53.1190   24.5110   43.7752 H   0  0  0  0  0  0  0  0  0  0  0  0
   51.6603   23.4627   43.7752 H   0  0  0  0  0  0  0  0  0  0  0  0
   54.7540   24.6390   45.7060 N   0  0  0  0  0  0  0  0  0  0  0  0
   55.8860   24.9910   46.3750 C   0  0  0  0  0  0  0  0  0  0  0  0
   56.6710   26.1460   45.8770 C   0  0  0  0  0  0  0  0  0  0  0  0
   56.0140   27.3130   45.6190 N   0  0  0  0  0  0  0  0  0  0  0  0
   56.6480   28.4250   45.1510 C   0  0  0  0  0  0  0  0  0  0  0  0
   55.9870   29.5200   44.9200 N   0  0  0  0  0  0  0  0  0  0  0  0
   56.2530   30.4130   43.7960 C   0  0  0  0  0  0  0  0  0  0  0  0
   56.7414   29.8492   42.9875 H   0  0  0  0  0  0  0  0  0  0  0  0
   55.3048   30.8332   43.4294 H   0  0  0  0  0  0  0  0  0  0  0  0
   57.1560   31.5300   44.2450 C   0  0  0  0  0  0  0  0  0  0  0  0
   57.4040   31.7110   45.6170 C   0  0  0  0  0  0  0  0  0  0  0  0
   56.9529   31.0249   46.3490 H   0  0  0  0  0  0  0  0  0  0  0  0
   58.2200   32.7570   46.0570 C   0  0  0  0  0  0  0  0  0  0  0  0
   58.4149   32.8870   47.1318 H   0  0  0  0  0  0  0  0  0  0  0  0
   58.7880   33.6370   45.1340 C   0  0  0  0  0  0  0  0  0  0  0  0
   59.4340   34.4565   45.4819 H   0  0  0  0  0  0  0  0  0  0  0  0
   58.5370   33.4780   43.7700 C   0  0  0  0  0  0  0  0  0  0  0  0
   58.9827   34.1766   43.0466 H   0  0  0  0  0  0  0  0  0  0  0  0
   57.7210   32.4340   43.3180 C   0  0  0  0  0  0  0  0  0  0  0  0
   57.4210   32.2940   41.5870 Cl  0  0  0  0  0  0  0  0  0  0  0  0
   58.0240   28.3860   44.9150 C   0  0  0  0  0  0  0  0  0  0  0  0
   58.5491   29.2783   44.5434 H   0  0  0  0  0  0  0  0  0  0  0  0
   58.7260   27.2050   45.1550 C   0  0  0  0  0  0  0  0  0  0  0  0
   59.8090   27.1615   44.9675 H   0  0  0  0  0  0  0  0  0  0  0  0
   58.0550   26.0780   45.6330 C   0  0  0  0  0  0  0  0  0  0  0  0
   58.6046   25.1432   45.8176 H   0  0  0  0  0  0  0  0  0  0  0  0
   56.2470   24.2650   47.5230 C   0  0  0  0  0  0  0  0  0  0  0  0
   57.1476   24.5318   48.0954 H   0  0  0  0  0  0  0  0  0  0  0  0
  1  2  1  0
  2  3  1  0
  3  4  1  0
  4  5  2  0
  5  6  1  0
  6  7  1  0
  6  8  1  0
  6  9  1  0
  4 10  1  0
 10 11  2  0
 11 12  1  0
 12 13  1  0
 13 14  1  0
 14 15  2  0
 15 16  1  0
 16 17  1  0
 16 18  1  0
 16 19  1  0
 19 20  2  0
 20 21  1  0
 20 22  1  0
 22 23  1  0
 22 24  2  0
 24 25  1  0
 24 26  1  0
 26 27  1  0
 26 28  2  0
 28 29  1  0
 14 30  1  0
 30 31  1  0
 30 32  2  0
 32 33  1  0
 32 34  1  0
 34 35  1  0
 11 36  1  0
 36 37  1  0
 36  2  2  0
 34 12  2  0
 28 19  1  0
M  CHG  2   3  -1  13  -1
M  END
>  <UniqueID>  (59) 
57

>  <SMILES>  (59) 
C/N=c1\nc(-c2ccc/c(=N/Cc3ccccc3Cl)[n-]2)cc[n-]1

>  <Energy>  (59) 
42.311115260177175

>  <Genealogy>  (59) 
CN=c1nc(-c2cccc(=NCc3ccccc3Cl)[n-]2)cc[n-]1 (protonated)
C/N=c1\nc(-c2ccc/c(=N/Cc3ccccc3Cl)[n-]2)cc[n-]1 (cis-trans isomerization)
C/N=c1\nc(-c2ccc/c(=N/Cc3ccccc3Cl)[n-]2)cc[n-]1 (3D coordinates assigned)
C/N=c1\nc(-c2ccc/c(=N/Cc3ccccc3Cl)[n-]2)cc[n-]1 (optimized conformer: 42.311115260177175 kcal/mol)

>  <smiles>  (59) 
CN=c1nc(-c2cccc(=NCc3ccccc3Cl)[nH]2)cc[nH]1

>  <score_type>  (59) 
oracle

>  <origin>  (59) 
adg

>  <m_score__min__energy>  (59) 
-11.44

>  <m_primary>  (59) 
energy

$$$$
59:0
     RDKit          3D

 63 67  0  0  0  0  0  0  0  0999 V2000
   56.1942   30.4714   44.1126 H   0  0  0  0  0  0  0  0  0  0  0  0
   56.4830   29.4160   44.2250 C   0  0  0  0  0  0  0  0  0  0  0  0
   55.7785   28.6199   43.9422 H   0  0  0  0  0  0  0  0  0  0  0  0
   57.6970   29.0990   44.7080 C   0  0  0  0  0  0  0  0  0  0  0  0
   58.1920   27.8050   44.9020 C   0  0  0  0  0  0  0  0  0  0  0  0
   57.5800   26.6460   44.5800 C   0  0  0  0  0  0  0  0  0  0  0  0
   57.5051   26.3967   43.5113 H   0  0  0  0  0  0  0  0  0  0  0  0
   57.0030   25.6850   45.5390 C   0  0  0  0  0  0  0  0  0  0  0  0
   57.7280   24.7040   46.0950 N   0  0  0  0  0  0  0  0  0  0  0  0
   56.8970   24.1760   47.0170 C   0  0  0  0  0  0  0  0  0  0  0  0
   57.2300   23.2170   47.7550 O   0  0  0  0  0  0  0  0  0  0  0  0
   55.6980   24.7850   47.1140 N   0  0  0  0  0  0  0  0  0  0  0  0
   55.7840   25.7500   46.1860 C   0  0  0  0  0  0  0  0  0  0  0  0
   54.7980   26.7090   45.9950 O   0  0  0  0  0  0  0  0  0  0  0  0
   59.4220   27.9510   45.5260 C   0  0  0  0  0  0  0  0  0  0  0  0
   60.0832   27.1423   45.8706 H   0  0  0  0  0  0  0  0  0  0  0  0
   59.6560   29.3070   45.6310 C   0  0  0  0  0  0  0  0  0  0  0  0
   60.9030   29.9010   46.2160 C   0  0  0  0  0  0  0  0  0  0  0  0
   60.8427   29.8723   47.3140 H   0  0  0  0  0  0  0  0  0  0  0  0
   61.7766   29.3223   45.8815 H   0  0  0  0  0  0  0  0  0  0  0  0
   61.0042   30.9440   45.8815 H   0  0  0  0  0  0  0  0  0  0  0  0
   58.6090   30.0110   45.1410 N   0  0  0  0  0  0  0  0  0  0  0  0
   58.5240   31.4490   45.0480 C   0  0  0  0  0  0  0  0  0  0  0  0
   57.9020   32.0570   43.9420 C   0  0  0  0  0  0  0  0  0  0  0  0
   57.4970   31.4337   43.1312 H   0  0  0  0  0  0  0  0  0  0  0  0
   57.7960   33.4490   43.8680 C   0  0  0  0  0  0  0  0  0  0  0  0
   57.3015   33.9172   43.0041 H   0  0  0  0  0  0  0  0  0  0  0  0
   58.3180   34.2470   44.8910 C   0  0  0  0  0  0  0  0  0  0  0  0
   58.2208   35.3414   44.8366 H   0  0  0  0  0  0  0  0  0  0  0  0
   58.9650   33.6560   45.9860 C   0  0  0  0  0  0  0  0  0  0  0  0
   59.5930   34.4910   47.0270 C   0  0  0  0  0  0  0  0  0  0  0  0
   59.2770   35.7090   47.1230 O   0  0  0  0  0  0  0  0  0  0  0  0
   60.5550   33.9300   47.9310 N   0  0  0  0  0  0  0  0  0  0  0  0
   60.4830   34.2250   49.3680 C   0  0  0  0  0  0  0  0  0  0  0  0
   61.3485   34.8378   49.6603 H   0  0  0  0  0  0  0  0  0  0  0  0
   59.5549   34.7748   49.5832 H   0  0  0  0  0  0  0  0  0  0  0  0
   60.4950   32.9090   50.1630 C   0  0  0  0  0  0  0  0  0  0  0  0
   60.8285   33.1148   51.1908 H   0  0  0  0  0  0  0  0  0  0  0  0
   59.4768   32.4928   50.1589 H   0  0  0  0  0  0  0  0  0  0  0  0
   61.4030   31.9200   49.5530 N   0  0  0  0  0  0  0  0  0  0  0  0
   61.3300   30.5310   49.9250 C   0  0  0  0  0  0  0  0  0  0  0  0
   60.4030   29.6820   49.3020 C   0  0  0  0  0  0  0  0  0  0  0  0
   59.7545   30.0727   48.5040 H   0  0  0  0  0  0  0  0  0  0  0  0
   60.2980   28.3420   49.6890 C   0  0  0  0  0  0  0  0  0  0  0  0
   59.5689   27.6848   49.1925 H   0  0  0  0  0  0  0  0  0  0  0  0
   61.1200   27.8300   50.7100 C   0  0  0  0  0  0  0  0  0  0  0  0
   61.0540   26.4940   51.1360 O   0  0  0  0  0  0  0  0  0  0  0  0
   62.1630   25.7590   51.6440 C   0  0  0  0  0  0  0  0  0  0  0  0
   62.1402   25.7741   52.7437 H   0  0  0  0  0  0  0  0  0  0  0  0
   62.1065   24.7189   51.2904 H   0  0  0  0  0  0  0  0  0  0  0  0
   63.0989   26.2162   51.2904 H   0  0  0  0  0  0  0  0  0  0  0  0
   62.0400   28.6790   51.3350 C   0  0  0  0  0  0  0  0  0  0  0  0
   62.6829   28.2907   52.1387 H   0  0  0  0  0  0  0  0  0  0  0  0
   62.1480   30.0180   50.9450 C   0  0  0  0  0  0  0  0  0  0  0  0
   62.8788   30.6739   51.4407 H   0  0  0  0  0  0  0  0  0  0  0  0
   62.3770   32.3590   48.5420 C   0  0  0  0  0  0  0  0  0  0  0  0
   63.1077   33.0366   49.0078 H   0  0  0  0  0  0  0  0  0  0  0  0
   62.8977   31.4812   48.1316 H   0  0  0  0  0  0  0  0  0  0  0  0
   61.6490   33.0940   47.4100 C   0  0  0  0  0  0  0  0  0  0  0  0
   62.3678   33.7350   46.8787 H   0  0  0  0  0  0  0  0  0  0  0  0
   61.2189   32.3442   46.7297 H   0  0  0  0  0  0  0  0  0  0  0  0
   59.0420   32.2560   46.0720 C   0  0  0  0  0  0  0  0  0  0  0  0
   59.5124   31.7886   46.9496 H   0  0  0  0  0  0  0  0  0  0  0  0
  1  2  1  0
  2  3  1  0
  2  4  2  0
  4  5  1  0
  5  6  2  0
  6  7  1  0
  6  8  1  0
  8  9  1  0
  9 10  1  0
 10 11  2  0
 10 12  1  0
 12 13  1  0
 13 14  1  0
  5 15  1  0
 15 16  1  0
 15 17  2  0
 17 18  1  0
 18 19  1  0
 18 20  1  0
 18 21  1  0
 17 22  1  0
 22 23  1  0
 23 24  2  0
 24 25  1  0
 24 26  1  0
 26 27  1  0
 26 28  2  0
 28 29  1  0
 28 30  1  0
 30 31  1  0
 31 32  2  0
 31 33  1  0
 33 34  1  0
 34 35  1  0
 34 36  1  0
 34 37  1  0
 37 38  1  0
 37 39  1  0
 37 40  1  0
 40 41  1  0
 41 42  2  0
 42 43  1  0
 42 44  1  0
 44 45  1  0
 44 46  2  0
 46 47  1  0
 47 48  1  0
 48 49  1  0
 48 50  1  0
 48 51  1  0
 46 52  1  0
 52 53  1  0
 52 54  2  0
 54 55  1  0
 40 56  1  0
 56 57  1  0
 56 58  1  0
 56 59  1  0
 59 60  1  0
 59 61  1  0
 30 62  2  0
 62 63  1  0
 22  4  1  0
 62 23  1  0
 13  8  2  0
 59 33  1  0
 54 41  1  0
M  CHG  3   9  -1  12  -1  14  -1
M  END
>  <UniqueID>  (60) 
58

>  <SMILES>  (60) 
C=c1/c(=C/c2[n-]c(=O)[n-]c2[O-])cc(C)n1-c1cccc(C(=O)N2CCN(c3ccc(OC)cc3)CC2)c1

>  <Energy>  (60) 
147.68658164848063

>  <Genealogy>  (60) 
C=c1c(=Cc2[n-]c(=O)[n-]c2[O-])cc(C)n1-c1cccc(C(=O)N2CCN(c3ccc(OC)cc3)CC2)c1 (protonated)
C=c1/c(=C/c2[n-]c(=O)[n-]c2[O-])cc(C)n1-c1cccc(C(=O)N2CCN(c3ccc(OC)cc3)CC2)c1 (cis-trans isomerization)
C=c1/c(=C/c2[n-]c(=O)[n-]c2[O-])cc(C)n1-c1cccc(C(=O)N2CCN(c3ccc(OC)cc3)CC2)c1 (3D coordinates assigned)
C=c1/c(=C/c2[n-]c(=O)[n-]c2[O-])cc(C)n1-c1cccc(C(=O)N2CCN(c3ccc(OC)cc3)CC2)c1 (nonaromatic ring conformer: 147.68658164848063 kcal/mol)

>  <smiles>  (60) 
C=c1c(=Cc2[nH]c(=O)[nH]c2O)cc(C)n1-c1cccc(C(=O)N2CCN(c3ccc(OC)cc3)CC2)c1

>  <score_type>  (60) 
oracle

>  <origin>  (60) 
adg

>  <m_score__min__energy>  (60) 
-17.57

>  <m_primary>  (60) 
energy

$$$$
60:0
     RDKit          3D

 59 62  0  0  0  0  0  0  0  0999 V2000
   59.1470   23.2770   45.2270 C   0  0  0  0  0  0  0  0  0  0  0  0
   57.8960   24.0880   45.4010 C   0  0  0  0  0  0  0  0  0  0  0  0
   56.6400   23.4690   45.4170 C   0  0  0  0  0  0  0  0  0  0  0  0
   55.4850   24.2310   45.5950 C   0  0  0  0  0  0  0  0  0  0  0  0
   55.5680   25.6170   45.7700 C   0  0  0  0  0  0  0  0  0  0  0  0
   54.3900   26.3370   45.9460 O   0  0  0  0  0  0  0  0  0  0  0  0
   56.8280   26.2590   45.7730 C   0  0  0  0  0  0  0  0  0  0  0  0
   56.9580   27.7280   45.9710 C   0  0  0  0  0  0  0  0  0  0  0  0
   57.7680   28.1860   46.8220 O   0  0  0  0  0  0  0  0  0  0  0  0
   56.1250   28.6280   45.2250 N   0  0  0  0  0  0  0  0  0  0  0  0
   56.5610   29.7050   44.3830 C   0  0  0  0  0  0  0  0  0  0  0  0
   56.2980   29.7270   43.0010 C   0  0  0  0  0  0  0  0  0  0  0  0
   56.7140   30.8120   42.2250 C   0  0  0  0  0  0  0  0  0  0  0  0
   57.3780   31.8870   42.8180 C   0  0  0  0  0  0  0  0  0  0  0  0
   57.6220   31.8920   44.1990 C   0  0  0  0  0  0  0  0  0  0  0  0
   58.3480   33.0420   44.8470 C   0  0  0  0  0  0  0  0  0  0  0  0
   58.6190   32.7540   46.2720 N   0  0  0  0  0  0  0  0  0  0  0  0
   58.5150   33.9770   47.1040 C   0  0  0  0  0  0  0  0  0  0  0  0
   59.8770   34.6650   47.2960 C   0  0  0  0  0  0  0  0  0  0  0  0
   60.8910   33.7710   47.9170 N   0  0  0  0  0  0  0  0  0  0  0  0
   61.1670   34.1250   49.3240 C   0  0  0  0  0  0  0  0  0  0  0  0
   62.5950   33.8000   49.6800 C   0  0  0  0  0  0  0  0  0  0  0  0
   63.4960   33.3610   48.6960 C   0  0  0  0  0  0  0  0  0  0  0  0
   64.8150   33.0480   49.0370 C   0  0  0  0  0  0  0  0  0  0  0  0
   65.2490   33.1740   50.3640 C   0  0  0  0  0  0  0  0  0  0  0  0
   66.5600   32.8620   50.7160 O   0  0  0  0  0  0  0  0  0  0  0  0
   64.3570   33.6160   51.3470 C   0  0  0  0  0  0  0  0  0  0  0  0
   63.0370   33.9290   51.0080 C   0  0  0  0  0  0  0  0  0  0  0  0
   60.5590   32.3340   47.8000 C   0  0  0  0  0  0  0  0  0  0  0  0
   59.9100   32.0350   46.4440 C   0  0  0  0  0  0  0  0  0  0  0  0
   57.2090   30.7970   44.9750 C   0  0  0  0  0  0  0  0  0  0  0  0
   57.9850   25.4770   45.5830 C   0  0  0  0  0  0  0  0  0  0  0  0
   59.5535   23.0135   46.2146 H   0  0  0  0  0  0  0  0  0  0  0  0
   58.9136   22.3580   44.6694 H   0  0  0  0  0  0  0  0  0  0  0  0
   59.8907   23.8652   44.6694 H   0  0  0  0  0  0  0  0  0  0  0  0
   56.5639   22.3791   45.2889 H   0  0  0  0  0  0  0  0  0  0  0  0
   54.5014   23.7385   45.5978 H   0  0  0  0  0  0  0  0  0  0  0  0
   55.7638   28.8884   42.5305 H   0  0  0  0  0  0  0  0  0  0  0  0
   56.5175   30.8190   41.1427 H   0  0  0  0  0  0  0  0  0  0  0  0
   57.7112   32.7336   42.1997 H   0  0  0  0  0  0  0  0  0  0  0  0
   59.3018   33.2071   44.3244 H   0  0  0  0  0  0  0  0  0  0  0  0
   57.7162   33.9401   44.7821 H   0  0  0  0  0  0  0  0  0  0  0  0
   57.8277   34.6820   46.6135 H   0  0  0  0  0  0  0  0  0  0  0  0
   58.1429   33.6807   48.0958 H   0  0  0  0  0  0  0  0  0  0  0  0
   60.2490   34.9890   46.3128 H   0  0  0  0  0  0  0  0  0  0  0  0
   59.7254   35.5167   47.9754 H   0  0  0  0  0  0  0  0  0  0  0  0
   60.9945   35.2020   49.4668 H   0  0  0  0  0  0  0  0  0  0  0  0
   60.4971   33.5439   49.9749 H   0  0  0  0  0  0  0  0  0  0  0  0
   63.1622   33.2631   47.6524 H   0  0  0  0  0  0  0  0  0  0  0  0
   65.5144   32.7018   48.2618 H   0  0  0  0  0  0  0  0  0  0  0  0
   66.9930   33.2560   51.5440 H   0  0  0  0  0  0  0  0  0  0  0  0
   64.6948   33.7175   52.3889 H   0  0  0  0  0  0  0  0  0  0  0  0
   62.3408   34.2781   51.7848 H   0  0  0  0  0  0  0  0  0  0  0  0
   61.4808   31.7416   47.8973 H   0  0  0  0  0  0  0  0  0  0  0  0
   59.8487   32.0698   48.5973 H   0  0  0  0  0  0  0  0  0  0  0  0
   60.5987   32.3460   45.6446 H   0  0  0  0  0  0  0  0  0  0  0  0
   59.7058   30.9552   46.3964 H   0  0  0  0  0  0  0  0  0  0  0  0
   57.3962   30.7966   46.0590 H   0  0  0  0  0  0  0  0  0  0  0  0
   58.9722   25.9622   45.5772 H   0  0  0  0  0  0  0  0  0  0  0  0
  1  2  1  0
  2  3  2  0
  3  4  1  0
  4  5  2  0
  5  6  1  0
  5  7  1  0
  7  8  1  0
  8  9  2  0
  8 10  1  0
 10 11  1  0
 11 12  2  0
 12 13  1  0
 13 14  2  0
 14 15  1  0
 15 16  1  0
 16 17  1  0
 17 18  1  0
 18 19  1  0
 19 20  1  0
 20 21  1  0
 21 22  1  0
 22 23  2  0
 23 24  1  0
 24 25  2  0
 25 26  1  0
 25 27  1  0
 27 28  2  0
 20 29  1  0
 29 30  1  0
 15 31  2  0
  7 32  2  0
 32  2  1  0
 31 11  1  0
 30 17  1  0
 28 22  1  0
  1 33  1  0
  1 34  1  0
  1 35  1  0
  3 36  1  0
  4 37  1  0
 12 38  1  0
 13 39  1  0
 14 40  1  0
 16 41  1  0
 16 42  1  0
 18 43  1  0
 18 44  1  0
 19 45  1  0
 19 46  1  0
 21 47  1  0
 21 48  1  0
 23 49  1  0
 24 50  1  0
 26 51  1  0
 27 52  1  0
 28 53  1  0
 29 54  1  0
 29 55  1  0
 30 56  1  0
 30 57  1  0
 31 58  1  0
 32 59  1  0
M  CHG  2   6  -1  10  -1
M  END
>  <UniqueID>  (61) 
59

>  <SMILES>  (61) 
Cc1ccc([O-])c(C(=O)[N-]c2cccc(CN3CCN(Cc4ccc(O)cc4)CC3)c2)c1

>  <Energy>  (61) 
80.47938981753536

>  <Genealogy>  (61) 
Cc1ccc([O-])c(C(=O)[N-]c2cccc(CN3CCN(Cc4ccc(O)cc4)CC3)c2)c1 (protonated)
Cc1ccc([O-])c(C(=O)[N-]c2cccc(CN3CCN(Cc4ccc(O)cc4)CC3)c2)c1 (3D coordinates assigned)
Cc1ccc([O-])c(C(=O)[N-]c2cccc(CN3CCN(Cc4ccc(O)cc4)CC3)c2)c1 (nonaromatic ring conformer: 80.47938981753536 kcal/mol)

>  <smiles>  (61) 
Cc1ccc(O)c(C(=O)Nc2cccc(CN3CCN(Cc4ccc(O)cc4)CC3)c2)c1

>  <score_type>  (61) 
oracle

>  <origin>  (61) 
adg

>  <m_score__min__energy>  (61) 
-15.029999999999999

>  <m_primary>  (61) 
energy

$$$$
61:0
     RDKit          3D

 36 38  0  0  0  0  0  0  0  0999 V2000
   65.2920   33.1380   47.9860 H   0  0  0  0  0  0  0  0  0  0  0  0
   64.4970   33.4240   48.5990 N   0  0  0  0  0  0  0  0  0  0  0  0
   63.2780   33.3900   48.1720 C   0  0  0  0  0  0  0  0  0  0  0  0
   62.2340   33.0080   48.9440 N   0  0  0  0  0  0  0  0  0  0  0  0
   61.0680   33.0780   48.2500 C   0  0  0  0  0  0  0  0  0  0  0  0
   61.1980   33.4750   46.9230 C   0  0  0  0  0  0  0  0  0  0  0  0
   62.8170   33.8150   46.6090 S   0  0  0  0  0  0  0  0  0  0  0  0
   60.0470   33.7050   45.9930 C   0  0  0  0  0  0  0  0  0  0  0  0
   59.8355   34.7831   45.9390 H   0  0  0  0  0  0  0  0  0  0  0  0
   60.3123   33.3195   44.9975 H   0  0  0  0  0  0  0  0  0  0  0  0
   58.7880   32.9650   46.4950 C   0  0  2  0  0  0  0  0  0  0  0  0
   58.9369   31.8851   46.3476 H   0  0  0  0  0  0  0  0  0  0  0  0
   57.5850   33.3910   45.7020 C   0  0  0  0  0  0  0  0  0  0  0  0
   57.2410   34.6050   45.6730 O   0  0  0  0  0  0  0  0  0  0  0  0
   56.8530   32.4160   44.9510 N   0  0  0  0  0  0  0  0  0  0  0  0
   57.4720   31.5130   43.9880 C   0  0  0  0  0  0  0  0  0  0  0  0
   56.8456   31.4591   43.0854 H   0  0  0  0  0  0  0  0  0  0  0  0
   58.4710   31.8937   43.7288 H   0  0  0  0  0  0  0  0  0  0  0  0
   57.6080   30.1450   44.5780 C   0  0  0  0  0  0  0  0  0  0  0  0
   56.4020   28.9700   44.5840 S   0  0  0  0  0  0  0  0  0  0  0  0
   57.2980   27.8270   45.4290 C   0  0  0  0  0  0  0  0  0  0  0  0
   56.7350   26.2270   45.8730 S   0  0  0  0  0  0  0  0  0  0  0  0
   57.1650   25.2340   44.8300 O   0  0  0  0  0  0  0  0  0  0  0  0
   57.3220   25.8360   47.1990 O   0  0  0  0  0  0  0  0  0  0  0  0
   55.0100   26.2250   45.9730 N   0  0  0  0  0  0  0  0  0  0  0  0
   54.7350   27.0810   46.5010 H   0  0  0  0  0  0  0  0  0  0  0  0
   58.5510   28.3480   45.7220 C   0  0  0  0  0  0  0  0  0  0  0  0
   59.3269   27.7927   46.2694 H   0  0  0  0  0  0  0  0  0  0  0  0
   58.7240   29.6540   45.2480 C   0  0  0  0  0  0  0  0  0  0  0  0
   59.6483   30.2330   45.3908 H   0  0  0  0  0  0  0  0  0  0  0  0
   58.5700   33.2030   48.0070 C   0  0  0  0  0  0  0  0  0  0  0  0
   58.4732   34.2834   48.1895 H   0  0  0  0  0  0  0  0  0  0  0  0
   57.6560   32.6735   48.3140 H   0  0  0  0  0  0  0  0  0  0  0  0
   59.7490   32.6580   48.8340 C   0  0  0  0  0  0  0  0  0  0  0  0
   59.6737   33.0430   49.8617 H   0  0  0  0  0  0  0  0  0  0  0  0
   59.7001   31.5591   48.8245 H   0  0  0  0  0  0  0  0  0  0  0  0
  1  2  1  0
  2  3  2  0
  3  4  1  0
  4  5  1  0
  5  6  2  0
  6  7  1  0
  6  8  1  0
  8  9  1  0
  8 10  1  0
  8 11  1  0
 11 12  1  1
 11 13  1  0
 13 14  2  0
 13 15  1  0
 15 16  1  0
 16 17  1  0
 16 18  1  0
 16 19  1  0
 19 20  1  0
 20 21  1  0
 21 22  1  0
 22 23  2  0
 22 24  2  0
 22 25  1  0
 25 26  1  0
 21 27  2  0
 27 28  1  0
 27 29  1  0
 29 30  1  0
 11 31  1  0
 31 32  1  0
 31 33  1  0
 31 34  1  0
 34 35  1  0
 34 36  1  0
  7  3  1  0
 29 19  2  0
 34  5  1  0
M  CHG  3   4  -1  15  -1  25  -1
M  END
>  <UniqueID>  (62) 
60

>  <SMILES>  (62) 
[H]/N=c1\[n-]c2c(s1)C[C@H](C(=O)[N-]Cc1ccc(S([NH-])(=O)=O)s1)CC2

>  <Energy>  (62) 
88.4182127901439

>  <Genealogy>  (62) 
N=c1[n-]c2c(s1)CC(C(=O)[N-]Cc1ccc(S([NH-])(=O)=O)s1)CC2 (protonated)
N=c1[n-]c2c(s1)C[C@H](C(=O)[N-]Cc1ccc(S([NH-])(=O)=O)s1)CC2 (chirality)
[H]/N=c1\[n-]c2c(s1)C[C@H](C(=O)[N-]Cc1ccc(S([NH-])(=O)=O)s1)CC2 (cis-trans isomerization)
[H]/N=c1\[n-]c2c(s1)C[C@H](C(=O)[N-]Cc1ccc(S([NH-])(=O)=O)s1)CC2 (3D coordinates assigned)
[H]/N=c1\[n-]c2c(s1)C[C@H](C(=O)[N-]Cc1ccc(S([NH-])(=O)=O)s1)CC2 (nonaromatic ring conformer: 88.4182127901439 kcal/mol)

>  <smiles>  (62) 
N=c1[nH]c2c(s1)CC(C(=O)NCc1ccc(S(N)(=O)=O)s1)CC2

>  <score_type>  (62) 
oracle

>  <origin>  (62) 
adg

>  <m_score__min__energy>  (62) 
-13.43

>  <m_primary>  (62) 
energy

$$$$
62:0
     RDKit          3D

 55 58  0  0  0  0  0  0  0  0999 V2000
   60.6160   27.9220   51.2370 C   0  0  0  0  0  0  0  0  0  0  0  0
   60.8910   28.8630   50.1510 N   0  0  0  0  0  0  0  0  0  0  0  0
   60.3890   28.5960   48.9430 N   0  0  0  0  0  0  0  0  0  0  0  0
   60.5980   29.3940   47.8600 C   0  0  0  0  0  0  0  0  0  0  0  0
   59.9770   29.0210   46.5290 C   0  0  0  0  0  0  0  0  0  0  0  0
   58.5170   28.6740   46.6260 C   0  0  0  0  0  0  0  0  0  0  0  0
   58.1930   27.5710   47.1400 O   0  0  0  0  0  0  0  0  0  0  0  0
   57.4750   29.5400   46.1570 N   0  0  0  0  0  0  0  0  0  0  0  0
   57.6120   30.8760   45.0520 S   0  0  0  0  0  0  0  0  0  0  0  0
   58.5500   30.5600   43.9220 O   0  0  0  0  0  0  0  0  0  0  0  0
   56.2510   31.1770   44.4920 O   0  0  0  0  0  0  0  0  0  0  0  0
   58.2210   32.2890   45.9090 C   0  0  0  0  0  0  0  0  0  0  0  0
   58.4430   33.4810   45.2090 C   0  0  0  0  0  0  0  0  0  0  0  0
   58.9200   34.6090   45.8790 C   0  0  0  0  0  0  0  0  0  0  0  0
   59.1850   34.5510   47.2500 C   0  0  0  0  0  0  0  0  0  0  0  0
   58.9810   33.3590   47.9680 C   0  0  0  0  0  0  0  0  0  0  0  0
   59.2770   33.3150   49.4260 C   0  0  0  0  0  0  0  0  0  0  0  0
   60.2850   33.9420   49.8580 O   0  0  0  0  0  0  0  0  0  0  0  0
   58.4290   32.5910   50.3530 N   0  0  0  0  0  0  0  0  0  0  0  0
   58.7060   31.1420   50.2990 C   0  0  0  0  0  0  0  0  0  0  0  0
   57.7860   30.3780   51.2810 C   0  0  0  0  0  0  0  0  0  0  0  0
   57.0960   31.2440   52.1680 O   0  0  0  0  0  0  0  0  0  0  0  0
   58.0090   32.1390   52.7740 C   0  0  0  0  0  0  0  0  0  0  0  0
   58.6140   33.1020   51.7280 C   0  0  0  0  0  0  0  0  0  0  0  0
   58.4830   32.2320   47.2860 C   0  0  0  0  0  0  0  0  0  0  0  0
   61.3750   30.5630   48.0160 C   0  0  0  0  0  0  0  0  0  0  0  0
   61.6130   31.4590   46.9500 C   0  0  0  0  0  0  0  0  0  0  0  0
   62.3960   32.5990   47.1440 C   0  0  0  0  0  0  0  0  0  0  0  0
   62.9520   32.8640   48.3940 C   0  0  0  0  0  0  0  0  0  0  0  0
   62.7250   31.9940   49.4610 C   0  0  0  0  0  0  0  0  0  0  0  0
   61.9360   30.8410   49.2860 C   0  0  0  0  0  0  0  0  0  0  0  0
   61.6860   29.9580   50.3500 C   0  0  0  0  0  0  0  0  0  0  0  0
   62.1910   30.1760   51.4870 O   0  0  0  0  0  0  0  0  0  0  0  0
   60.7630   28.4251   52.2041 H   0  0  0  0  0  0  0  0  0  0  0  0
   59.5770   27.5686   51.1617 H   0  0  0  0  0  0  0  0  0  0  0  0
   61.3012   27.0648   51.1617 H   0  0  0  0  0  0  0  0  0  0  0  0
   60.0878   29.8728   45.8419 H   0  0  0  0  0  0  0  0  0  0  0  0
   60.5002   28.1235   46.1674 H   0  0  0  0  0  0  0  0  0  0  0  0
   58.2411   33.5288   44.1287 H   0  0  0  0  0  0  0  0  0  0  0  0
   59.0876   35.5454   45.3267 H   0  0  0  0  0  0  0  0  0  0  0  0
   59.5563   35.4453   47.7720 H   0  0  0  0  0  0  0  0  0  0  0  0
   57.4270   32.7170   50.0810 H   0  0  0  0  0  0  0  0  0  0  0  0
   58.5271   30.7770   49.2769 H   0  0  0  0  0  0  0  0  0  0  0  0
   59.7539   30.9690   50.5852 H   0  0  0  0  0  0  0  0  0  0  0  0
   57.0468   29.8073   50.6997 H   0  0  0  0  0  0  0  0  0  0  0  0
   58.4223   29.7173   51.8881 H   0  0  0  0  0  0  0  0  0  0  0  0
   57.4827   32.7255   53.5415 H   0  0  0  0  0  0  0  0  0  0  0  0
   58.8240   31.5559   53.2276 H   0  0  0  0  0  0  0  0  0  0  0  0
   58.1203   34.0811   51.8153 H   0  0  0  0  0  0  0  0  0  0  0  0
   59.6931   33.1900   51.9221 H   0  0  0  0  0  0  0  0  0  0  0  0
   58.2978   31.2987   47.8379 H   0  0  0  0  0  0  0  0  0  0  0  0
   61.1784   31.2572   45.9599 H   0  0  0  0  0  0  0  0  0  0  0  0
   62.5745   33.2902   46.3071 H   0  0  0  0  0  0  0  0  0  0  0  0
   63.5714   33.7613   48.5399 H   0  0  0  0  0  0  0  0  0  0  0  0
   63.1654   32.2104   50.4455 H   0  0  0  0  0  0  0  0  0  0  0  0
  1  2  1  0
  2  3  1  0
  3  4  2  0
  4  5  1  0
  5  6  1  0
  6  7  2  0
  6  8  1  0
  8  9  1  0
  9 10  2  0
  9 11  2  0
  9 12  1  0
 12 13  2  0
 13 14  1  0
 14 15  2  0
 15 16  1  0
 16 17  1  0
 17 18  2  0
 17 19  1  0
 19 20  1  0
 20 21  1  0
 21 22  1  0
 22 23  1  0
 23 24  1  0
 16 25  2  0
  4 26  1  0
 26 27  2  0
 27 28  1  0
 28 29  2  0
 29 30  1  0
 30 31  2  0
 31 32  1  0
 32 33  2  0
 32  2  1  0
 25 12  1  0
 31 26  1  0
 24 19  1  0
  1 34  1  0
  1 35  1  0
  1 36  1  0
  5 37  1  0
  5 38  1  0
 13 39  1  0
 14 40  1  0
 15 41  1  0
 19 42  1  0
 20 43  1  0
 20 44  1  0
 21 45  1  0
 21 46  1  0
 23 47  1  0
 23 48  1  0
 24 49  1  0
 24 50  1  0
 25 51  1  0
 27 52  1  0
 28 53  1  0
 29 54  1  0
 30 55  1  0
M  CHG  2   8  -1  19   1
M  END
>  <UniqueID>  (63) 
61

>  <SMILES>  (63) 
Cn1nc(CC(=O)[N-]S(=O)(=O)c2cccc(C(=O)[NH+]3CCOCC3)c2)c2ccccc2c1=O

>  <Energy>  (63) 
82.25950957188371

>  <Genealogy>  (63) 
Cn1nc(CC(=O)[N-]S(=O)(=O)c2cccc(C(=O)[NH+]3CCOCC3)c2)c2ccccc2c1=O (protonated)
Cn1nc(CC(=O)[N-]S(=O)(=O)c2cccc(C(=O)[NH+]3CCOCC3)c2)c2ccccc2c1=O (3D coordinates assigned)
Cn1nc(CC(=O)[N-]S(=O)(=O)c2cccc(C(=O)[NH+]3CCOCC3)c2)c2ccccc2c1=O (nonaromatic ring conformer: 82.25950957188371 kcal/mol)

>  <smiles>  (63) 
Cn1nc(CC(=O)NS(=O)(=O)c2cccc(C(=O)N3CCOCC3)c2)c2ccccc2c1=O

>  <score_type>  (63) 
oracle

>  <origin>  (63) 
adg

>  <m_score__min__energy>  (63) 
-9.2899999999999991

>  <m_primary>  (63) 
energy

$$$$
63:0
     RDKit          3D

 58 62  0  0  0  0  0  0  0  0999 V2000
   57.0480   31.2230   42.2730 C   0  0  0  0  0  0  0  0  0  0  0  0
   57.4340   31.1950   43.5520 C   0  0  0  0  0  0  0  0  0  0  0  0
   57.6900   32.6040   44.4450 S   0  0  0  0  0  0  0  0  0  0  0  0
   58.1170   31.8080   45.8490 C   0  0  0  0  0  0  0  0  0  0  0  0
   58.4470   32.3970   47.0200 N   0  0  0  0  0  0  0  0  0  0  0  0
   58.7870   31.6230   48.0880 C   0  0  0  0  0  0  0  0  0  0  0  0
   59.1350   32.2320   49.3510 N   0  0  0  0  0  0  0  0  0  0  0  0
   58.6090   31.6690   50.6030 C   0  0  0  0  0  0  0  0  0  0  0  0
   59.5740   31.9300   51.7690 C   0  0  0  0  0  0  0  0  0  0  0  0
   60.0010   33.3390   51.8520 N   0  0  0  0  0  0  0  0  0  0  0  0
   58.9320   34.2280   52.3370 C   0  0  0  0  0  0  0  0  0  0  0  0
   60.5960   33.8030   50.5850 C   0  0  0  0  0  0  0  0  0  0  0  0
   59.6640   33.6030   49.3820 C   0  0  0  0  0  0  0  0  0  0  0  0
   58.8180   30.2650   47.9460 N   0  0  0  0  0  0  0  0  0  0  0  0
   58.4940   29.6430   46.7770 C   0  0  0  0  0  0  0  0  0  0  0  0
   58.6810   28.2270   46.6910 N   0  0  0  0  0  0  0  0  0  0  0  0
   57.7580   27.3350   47.4000 C   0  0  0  0  0  0  0  0  0  0  0  0
   57.1470   26.3350   46.4150 C   0  0  0  0  0  0  0  0  0  0  0  0
   58.1850   25.6730   45.6070 N   0  0  0  0  0  0  0  0  0  0  0  0
   57.8630   24.4590   44.8930 C   0  0  0  0  0  0  0  0  0  0  0  0
   58.5520   23.2630   45.1680 C   0  0  0  0  0  0  0  0  0  0  0  0
   58.2430   22.0910   44.4740 C   0  0  0  0  0  0  0  0  0  0  0  0
   57.2470   22.0960   43.4960 C   0  0  0  0  0  0  0  0  0  0  0  0
   56.5570   23.2770   43.2100 C   0  0  0  0  0  0  0  0  0  0  0  0
   56.8620   24.4530   43.9020 C   0  0  0  0  0  0  0  0  0  0  0  0
   59.5730   26.1650   45.6410 C   0  0  0  0  0  0  0  0  0  0  0  0
   59.6030   27.6970   45.6800 C   0  0  0  0  0  0  0  0  0  0  0  0
   58.0960   30.4320   45.6750 C   0  0  0  0  0  0  0  0  0  0  0  0
   57.6670   30.0600   44.3660 C   0  0  0  0  0  0  0  0  0  0  0  0
   57.4410   28.7990   43.9590 C   0  0  0  0  0  0  0  0  0  0  0  0
   56.8916   30.2821   41.7250 H   0  0  0  0  0  0  0  0  0  0  0  0
   56.8866   32.1869   41.7682 H   0  0  0  0  0  0  0  0  0  0  0  0
   57.6382   32.1350   50.8276 H   0  0  0  0  0  0  0  0  0  0  0  0
   58.4937   30.5822   50.4786 H   0  0  0  0  0  0  0  0  0  0  0  0
   59.0710   31.6591   52.7090 H   0  0  0  0  0  0  0  0  0  0  0  0
   60.4736   31.3205   51.5976 H   0  0  0  0  0  0  0  0  0  0  0  0
   58.9284   34.2310   53.4370 H   0  0  0  0  0  0  0  0  0  0  0  0
   59.1088   35.2491   51.9682 H   0  0  0  0  0  0  0  0  0  0  0  0
   57.9602   33.8680   51.9682 H   0  0  0  0  0  0  0  0  0  0  0  0
   60.8266   34.8747   50.6766 H   0  0  0  0  0  0  0  0  0  0  0  0
   61.5015   33.2048   50.4056 H   0  0  0  0  0  0  0  0  0  0  0  0
   58.8254   34.3111   49.4544 H   0  0  0  0  0  0  0  0  0  0  0  0
   60.2372   33.7796   48.4599 H   0  0  0  0  0  0  0  0  0  0  0  0
   58.3057   26.7892   48.1824 H   0  0  0  0  0  0  0  0  0  0  0  0
   56.9553   27.9314   47.8582 H   0  0  0  0  0  0  0  0  0  0  0  0
   56.5914   25.5713   46.9790 H   0  0  0  0  0  0  0  0  0  0  0  0
   56.4775   26.8834   45.7360 H   0  0  0  0  0  0  0  0  0  0  0  0
   59.3400   23.2512   45.9354 H   0  0  0  0  0  0  0  0  0  0  0  0
   58.7861   21.1612   44.6988 H   0  0  0  0  0  0  0  0  0  0  0  0
   57.0056   21.1714   42.9511 H   0  0  0  0  0  0  0  0  0  0  0  0
   55.7724   23.2815   42.4390 H   0  0  0  0  0  0  0  0  0  0  0  0
   56.3165   25.3799   43.6710 H   0  0  0  0  0  0  0  0  0  0  0  0
   60.0741   25.7709   46.5374 H   0  0  0  0  0  0  0  0  0  0  0  0
   60.0919   25.8237   44.7331 H   0  0  0  0  0  0  0  0  0  0  0  0
   60.6243   28.0286   45.9187 H   0  0  0  0  0  0  0  0  0  0  0  0
   59.2893   28.0737   44.6953 H   0  0  0  0  0  0  0  0  0  0  0  0
   57.1110   28.6047   42.9278 H   0  0  0  0  0  0  0  0  0  0  0  0
   57.5860   27.9614   44.6571 H   0  0  0  0  0  0  0  0  0  0  0  0
  1  2  2  0
  2  3  1  0
  3  4  1  0
  4  5  2  0
  5  6  1  0
  6  7  1  0
  7  8  1  0
  8  9  1  0
  9 10  1  0
 10 11  1  0
 10 12  1  0
 12 13  1  0
  6 14  2  0
 14 15  1  0
 15 16  1  0
 16 17  1  0
 17 18  1  0
 18 19  1  0
 19 20  1  0
 20 21  2  0
 21 22  1  0
 22 23  2  0
 23 24  1  0
 24 25  2  0
 19 26  1  0
 26 27  1  0
 15 28  2  0
 28 29  1  0
 29 30  2  0
 29  2  1  0
 28  4  1  0
 13  7  1  0
 27 16  1  0
 25 20  1  0
  1 31  1  0
  1 32  1  0
  8 33  1  0
  8 34  1  0
  9 35  1  0
  9 36  1  0
 11 37  1  0
 11 38  1  0
 11 39  1  0
 12 40  1  0
 12 41  1  0
 13 42  1  0
 13 43  1  0
 17 44  1  0
 17 45  1  0
 18 46  1  0
 18 47  1  0
 21 48  1  0
 22 49  1  0
 23 50  1  0
 24 51  1  0
 25 52  1  0
 26 53  1  0
 26 54  1  0
 27 55  1  0
 27 56  1  0
 30 57  1  0
 30 58  1  0
M  END
>  <UniqueID>  (64) 
62

>  <SMILES>  (64) 
C=c1sc2nc(N3CCN(C)CC3)nc(N3CCN(c4ccccc4)CC3)c2c1=C

>  <Energy>  (64) 
114.99150308057037

>  <Genealogy>  (64) 
C=c1sc2nc(N3CCN(C)CC3)nc(N3CCN(c4ccccc4)CC3)c2c1=C (3D coordinates assigned)
C=c1sc2nc(N3CCN(C)CC3)nc(N3CCN(c4ccccc4)CC3)c2c1=C (nonaromatic ring conformer: 114.99150308057037 kcal/mol)

>  <smiles>  (64) 
C=c1sc2nc(N3CCN(C)CC3)nc(N3CCN(c4ccccc4)CC3)c2c1=C

>  <score_type>  (64) 
oracle

>  <origin>  (64) 
adg

>  <m_score__min__energy>  (64) 
-8

>  <m_primary>  (64) 
energy

$$$$
64:0
     RDKit          3D

 52 54  0  0  0  0  0  0  0  0999 V2000
   59.4840   27.7010   46.9280 C   0  0  0  0  0  0  0  0  0  0  0  0
   58.7530   28.4000   46.0300 C   0  0  0  0  0  0  0  0  0  0  0  0
   58.7380   29.8170   46.1460 C   0  0  0  0  0  0  0  0  0  0  0  0
   59.4190   30.4300   47.2190 O   0  0  0  0  0  0  0  0  0  0  0  0
   58.8350   31.2740   48.2150 C   0  0  0  0  0  0  0  0  0  0  0  0
   58.7990   32.7210   47.7650 C   0  0  0  0  0  0  0  0  0  0  0  0
   57.7170   33.2280   47.5010 O   0  0  0  0  0  0  0  0  0  0  0  0
   60.0040   33.5320   47.6860 N   0  0  1  0  0  0  0  0  0  0  0  0
   60.8370   33.4170   48.9180 C   0  0  0  0  0  0  0  0  0  0  0  0
   62.0960   32.5620   48.7110 C   0  0  0  0  0  0  0  0  0  0  0  0
   62.9880   33.1500   47.5970 C   0  0  1  0  0  0  0  0  0  0  0  0
   63.8610   32.1020   47.0630 N   0  0  0  0  0  0  0  0  0  0  0  0
   62.1590   33.8230   46.4700 C   0  0  0  0  0  0  0  0  0  0  0  0
   60.7330   33.2640   46.4200 C   0  0  0  0  0  0  0  0  0  0  0  0
   58.0610   30.5890   45.1910 C   0  0  0  0  0  0  0  0  0  0  0  0
   57.3750   29.9910   44.1380 C   0  0  0  0  0  0  0  0  0  0  0  0
   56.6670   30.8450   43.1170 C   0  0  0  0  0  0  0  0  0  0  0  0
   57.6030   31.9160   42.5700 C   0  0  0  0  0  0  0  0  0  0  0  0
   57.3740   28.6000   44.0170 C   0  0  0  0  0  0  0  0  0  0  0  0
   58.0420   27.7710   44.9470 C   0  0  0  0  0  0  0  0  0  0  0  0
   57.9450   26.4160   44.8290 C   0  0  0  0  0  0  0  0  0  0  0  0
   57.2570   25.5110   45.7770 C   0  0  0  0  0  0  0  0  0  0  0  0
   57.8170   24.4400   46.3720 N   0  0  0  0  0  0  0  0  0  0  0  0
   56.8560   24.0160   47.2220 C   0  0  0  0  0  0  0  0  0  0  0  0
   57.0030   23.0080   47.9620 O   0  0  0  0  0  0  0  0  0  0  0  0
   55.7320   24.7630   47.2240 N   0  0  0  0  0  0  0  0  0  0  0  0
   56.0080   25.7100   46.3140 C   0  0  0  0  0  0  0  0  0  0  0  0
   55.1360   26.7400   45.9830 O   0  0  0  0  0  0  0  0  0  0  0  0
   59.5210   26.6031   46.8716 H   0  0  0  0  0  0  0  0  0  0  0  0
   60.0415   28.2304   47.7147 H   0  0  0  0  0  0  0  0  0  0  0  0
   57.8072   30.9354   48.4126 H   0  0  0  0  0  0  0  0  0  0  0  0
   59.4498   31.2106   49.1249 H   0  0  0  0  0  0  0  0  0  0  0  0
   59.6950   34.5340   47.6350 H   0  0  0  0  0  0  0  0  0  0  0  0
   60.2284   32.9590   49.7116 H   0  0  0  0  0  0  0  0  0  0  0  0
   61.1674   34.4307   49.1887 H   0  0  0  0  0  0  0  0  0  0  0  0
   61.7956   31.5418   48.4301 H   0  0  0  0  0  0  0  0  0  0  0  0
   62.6697   32.5507   49.6495 H   0  0  0  0  0  0  0  0  0  0  0  0
   63.6066   33.9449   48.0392 H   0  0  0  0  0  0  0  0  0  0  0  0
   64.4320   31.7110   47.8470 H   0  0  0  0  0  0  0  0  0  0  0  0
   64.5250   32.5240   46.3730 H   0  0  0  0  0  0  0  0  0  0  0  0
   62.6508   33.6378   45.5037 H   0  0  0  0  0  0  0  0  0  0  0  0
   62.1026   34.9019   46.6767 H   0  0  0  0  0  0  0  0  0  0  0  0
   60.7796   32.1772   46.2564 H   0  0  0  0  0  0  0  0  0  0  0  0
   60.1947   33.7584   45.5979 H   0  0  0  0  0  0  0  0  0  0  0  0
   58.0723   31.6857   45.2755 H   0  0  0  0  0  0  0  0  0  0  0  0
   56.3237   30.2079   42.2886 H   0  0  0  0  0  0  0  0  0  0  0  0
   55.8098   31.3369   43.6000 H   0  0  0  0  0  0  0  0  0  0  0  0
   58.0732   32.4540   43.4064 H   0  0  0  0  0  0  0  0  0  0  0  0
   58.3820   31.4425   41.9544 H   0  0  0  0  0  0  0  0  0  0  0  0
   57.0295   32.6246   41.9544 H   0  0  0  0  0  0  0  0  0  0  0  0
   56.8388   28.1366   43.1751 H   0  0  0  0  0  0  0  0  0  0  0  0
   58.4204   25.9543   43.9510 H   0  0  0  0  0  0  0  0  0  0  0  0
  1  2  2  0
  2  3  1  0
  3  4  1  0
  4  5  1  0
  5  6  1  0
  6  7  2  0
  6  8  1  0
  8  9  1  0
  9 10  1  0
 10 11  1  0
 11 12  1  0
 11 13  1  0
 13 14  1  0
  3 15  2  0
 15 16  1  0
 16 17  1  0
 17 18  1  0
 16 19  2  0
 19 20  1  0
 20 21  2  3
 21 22  1  0
 22 23  1  0
 23 24  1  0
 24 25  2  0
 24 26  1  0
 26 27  1  0
 27 28  1  0
 20  2  1  0
 27 22  2  0
 14  8  1  0
  1 29  1  0
  1 30  1  0
  5 31  1  0
  5 32  1  0
  8 33  1  6
  9 34  1  0
  9 35  1  0
 10 36  1  0
 10 37  1  0
 11 38  1  1
 12 39  1  0
 12 40  1  0
 13 41  1  0
 13 42  1  0
 14 43  1  0
 14 44  1  0
 15 45  1  0
 17 46  1  0
 17 47  1  0
 18 48  1  0
 18 49  1  0
 18 50  1  0
 19 51  1  0
 21 52  1  0
M  CHG  4   8   1  23  -1  26  -1  28  -1
M  END
>  <UniqueID>  (65) 
63

>  <SMILES>  (65) 
C=c1c(OCC(=O)[NH+]2CCC(N)CC2)cc(CC)cc1=Cc1[n-]c(=O)[n-]c1[O-]

>  <Energy>  (65) 
106.36868920411489

>  <Genealogy>  (65) 
C=c1c(OCC(=O)[NH+]2CCC(N)CC2)cc(CC)cc1=Cc1[n-]c(=O)[n-]c1[O-] (protonated)
C=c1c(OCC(=O)[NH+]2CCC(N)CC2)cc(CC)cc1=Cc1[n-]c(=O)[n-]c1[O-] (3D coordinates assigned)
C=c1c(OCC(=O)[NH+]2CCC(N)CC2)cc(CC)cc1=Cc1[n-]c(=O)[n-]c1[O-] (nonaromatic ring conformer: 106.36868920411489 kcal/mol)

>  <smiles>  (65) 
C=c1c(OCC(=O)N2CCC(N)CC2)cc(CC)cc1=Cc1[nH]c(=O)[nH]c1O

>  <score_type>  (65) 
oracle

>  <origin>  (65) 
adg

>  <m_score__min__energy>  (65) 
-14.92

>  <m_primary>  (65) 
energy

$$$$
65:0
     RDKit          3D

 61 64  0  0  0  0  0  0  0  0999 V2000
   57.5010   33.0730   46.6170 C   0  0  0  0  0  0  0  0  0  0  0  0
   58.1570   31.9230   46.4610 C   0  0  0  0  0  0  0  0  0  0  0  0
   57.5800   30.8110   45.9560 N   0  0  0  0  0  0  0  0  0  0  0  0
   58.5610   29.8970   45.8240 C   0  0  0  0  0  0  0  0  0  0  0  0
   58.4120   28.7130   45.1970 C   0  0  0  0  0  0  0  0  0  0  0  0
   57.5280   27.6210   45.6870 C   0  0  0  0  0  0  0  0  0  0  0  0
   56.1280   27.7230   45.6180 C   0  0  0  0  0  0  0  0  0  0  0  0
   55.5250   28.8860   45.1750 O   0  0  0  0  0  0  0  0  0  0  0  0
   55.3500   26.6500   45.9350 N   0  0  0  0  0  0  0  0  0  0  0  0
   55.9050   25.4780   46.3280 C   0  0  0  0  0  0  0  0  0  0  0  0
   55.1640   24.4860   46.5740 O   0  0  0  0  0  0  0  0  0  0  0  0
   57.2520   25.3440   46.3910 N   0  0  0  0  0  0  0  0  0  0  0  0
   58.0750   26.3970   46.1070 C   0  0  0  0  0  0  0  0  0  0  0  0
   59.3230   26.2420   46.2150 O   0  0  0  0  0  0  0  0  0  0  0  0
   59.7660   30.4030   46.3100 C   0  0  0  0  0  0  0  0  0  0  0  0
   61.1090   29.7300   46.3150 C   0  0  0  0  0  0  0  0  0  0  0  0
   59.5090   31.7140   46.6930 C   0  0  0  0  0  0  0  0  0  0  0  0
   60.5270   32.7750   46.7410 C   0  0  0  0  0  0  0  0  0  0  0  0
   60.5020   33.6490   45.8250 O   0  0  0  0  0  0  0  0  0  0  0  0
   61.4800   32.8430   47.8510 N   0  0  0  0  0  0  0  0  0  0  0  0
   61.2980   34.1500   48.5440 C   0  0  0  0  0  0  0  0  0  0  0  0
   62.5420   34.6250   49.3280 C   0  0  0  0  0  0  0  0  0  0  0  0
   63.4570   33.5320   49.6740 N   0  0  0  0  0  0  0  0  0  0  0  0
   63.0030   32.7040   50.8180 C   0  0  0  0  0  0  0  0  0  0  0  0
   62.7780   31.2840   50.2990 C   0  0  0  0  0  0  0  0  0  0  0  0
   61.3980   31.0530   49.8230 N   0  0  0  0  0  0  0  0  0  0  0  0
   61.1230   29.6170   49.5810 C   0  0  0  0  0  0  0  0  0  0  0  0
   59.6390   29.2670   49.8100 C   0  0  0  0  0  0  0  0  0  0  0  0
   58.8100   30.3510   49.4400 O   0  0  0  0  0  0  0  0  0  0  0  0
   59.0170   31.4830   50.2730 C   0  0  0  0  0  0  0  0  0  0  0  0
   60.4570   31.6030   50.8120 C   0  0  0  0  0  0  0  0  0  0  0  0
   63.9050   32.7380   48.5000 C   0  0  0  0  0  0  0  0  0  0  0  0
   62.8710   32.7230   47.3440 C   0  0  0  0  0  0  0  0  0  0  0  0
   58.0189   33.9495   47.0335 H   0  0  0  0  0  0  0  0  0  0  0  0
   56.4418   33.1454   46.3292 H   0  0  0  0  0  0  0  0  0  0  0  0
   56.5980   30.7420   45.5900 H   0  0  0  0  0  0  0  0  0  0  0  0
   58.9772   28.5442   44.2685 H   0  0  0  0  0  0  0  0  0  0  0  0
   61.4337   29.5673   47.3533 H   0  0  0  0  0  0  0  0  0  0  0  0
   61.0360   28.7620   45.7977 H   0  0  0  0  0  0  0  0  0  0  0  0
   61.8407   30.3679   45.7977 H   0  0  0  0  0  0  0  0  0  0  0  0
   61.2860   32.0290   48.5110 H   0  0  0  0  0  0  0  0  0  0  0  0
   61.0542   34.9111   47.7882 H   0  0  0  0  0  0  0  0  0  0  0  0
   60.4925   34.0102   49.2800 H   0  0  0  0  0  0  0  0  0  0  0  0
   63.0865   35.3552   48.7113 H   0  0  0  0  0  0  0  0  0  0  0  0
   62.1864   35.0656   50.2711 H   0  0  0  0  0  0  0  0  0  0  0  0
   63.7711   32.6984   51.6054 H   0  0  0  0  0  0  0  0  0  0  0  0
   62.0749   33.1110   51.2457 H   0  0  0  0  0  0  0  0  0  0  0  0
   63.4713   31.1022   49.4645 H   0  0  0  0  0  0  0  0  0  0  0  0
   62.9551   30.5958   51.1387 H   0  0  0  0  0  0  0  0  0  0  0  0
   61.3888   29.3747   48.5415 H   0  0  0  0  0  0  0  0  0  0  0  0
   61.7241   29.0312   50.2920 H   0  0  0  0  0  0  0  0  0  0  0  0
   59.3770   28.3877   49.2032 H   0  0  0  0  0  0  0  0  0  0  0  0
   59.4858   29.0513   50.8777 H   0  0  0  0  0  0  0  0  0  0  0  0
   58.7875   32.3882   49.6917 H   0  0  0  0  0  0  0  0  0  0  0  0
   58.3569   31.3646   51.1449 H   0  0  0  0  0  0  0  0  0  0  0  0
   60.6935   32.6618   50.9939 H   0  0  0  0  0  0  0  0  0  0  0  0
   60.5443   31.0410   51.7535 H   0  0  0  0  0  0  0  0  0  0  0  0
   64.8443   33.1694   48.1237 H   0  0  0  0  0  0  0  0  0  0  0  0
   64.0344   31.6990   48.8373 H   0  0  0  0  0  0  0  0  0  0  0  0
   63.0785   33.5663   46.6688 H   0  0  0  0  0  0  0  0  0  0  0  0
   62.9619   31.7632   46.8144 H   0  0  0  0  0  0  0  0  0  0  0  0
  1  2  2  0
  2  3  1  0
  3  4  1  0
  4  5  2  3
  5  6  1  0
  6  7  2  0
  7  8  1  0
  7  9  1  0
  9 10  1  0
 10 11  2  0
 10 12  1  0
 12 13  1  0
 13 14  2  0
  4 15  1  0
 15 16  1  0
 15 17  2  0
 17 18  1  0
 18 19  2  0
 18 20  1  0
 20 21  1  0
 21 22  1  0
 22 23  1  0
 23 24  1  0
 24 25  1  0
 25 26  1  0
 26 27  1  0
 27 28  1  0
 28 29  1  0
 29 30  1  0
 30 31  1  0
 23 32  1  0
 32 33  1  0
 17  2  1  0
 33 20  1  0
 13  6  1  0
 31 26  1  0
  1 34  1  0
  1 35  1  0
  3 36  1  0
  5 37  1  0
 16 38  1  0
 16 39  1  0
 16 40  1  0
 20 41  1  0
 21 42  1  0
 21 43  1  0
 22 44  1  0
 22 45  1  0
 24 46  1  0
 24 47  1  0
 25 48  1  0
 25 49  1  0
 27 50  1  0
 27 51  1  0
 28 52  1  0
 28 53  1  0
 30 54  1  0
 30 55  1  0
 31 56  1  0
 31 57  1  0
 32 58  1  0
 32 59  1  0
 33 60  1  0
 33 61  1  0
M  CHG  4   8  -1   9  -1  12  -1  20   1
M  END
>  <UniqueID>  (66) 
64

>  <SMILES>  (66) 
C=c1[nH]c(=Cc2c([O-])[n-]c(=O)[n-]c2=O)c(C)c1C(=O)[NH+]1CCN(CCN2CCOCC2)CC1

>  <Energy>  (66) 
142.30127433249964

>  <Genealogy>  (66) 
C=c1[nH]c(=Cc2c([O-])[n-]c(=O)[n-]c2=O)c(C)c1C(=O)[NH+]1CCN(CCN2CCOCC2)CC1 (protonated)
C=c1[nH]c(=Cc2c([O-])[n-]c(=O)[n-]c2=O)c(C)c1C(=O)[NH+]1CCN(CCN2CCOCC2)CC1 (3D coordinates assigned)
C=c1[nH]c(=Cc2c([O-])[n-]c(=O)[n-]c2=O)c(C)c1C(=O)[NH+]1CCN(CCN2CCOCC2)CC1 (nonaromatic ring conformer: 142.30127433249964 kcal/mol)

>  <smiles>  (66) 
C=c1[nH]c(=Cc2c(O)[nH]c(=O)[nH]c2=O)c(C)c1C(=O)N1CCN(CCN2CCOCC2)CC1

>  <score_type>  (66) 
oracle

>  <origin>  (66) 
adg

>  <m_score__min__energy>  (66) 
-15.41

>  <m_primary>  (66) 
energy

$$$$
66:0
     RDKit          3D

 53 56  0  0  0  0  0  0  0  0999 V2000
   56.5134   34.3802   44.6911 H   0  0  0  0  0  0  0  0  0  0  0  0
   57.0200   33.5680   45.2330 C   0  0  0  0  0  0  0  0  0  0  0  0
   57.4360   33.7630   46.5100 N   0  0  0  0  0  0  0  0  0  0  0  0
   58.0710   32.7940   47.2210 C   0  0  0  0  0  0  0  0  0  0  0  0
   58.4120   33.0590   48.4530 N   0  0  0  0  0  0  0  0  0  0  0  0
   59.6610   33.5780   48.9420 C   0  0  0  0  0  0  0  0  0  0  0  0
   59.6680   34.1810   50.0470 O   0  0  0  0  0  0  0  0  0  0  0  0
   60.9470   33.3810   48.2230 C   0  0  0  0  0  0  0  0  0  0  0  0
   61.8980   32.5010   48.7730 C   0  0  0  0  0  0  0  0  0  0  0  0
   61.6669   31.9611   49.7031 H   0  0  0  0  0  0  0  0  0  0  0  0
   63.1320   32.3070   48.1490 C   0  0  0  0  0  0  0  0  0  0  0  0
   63.8688   31.6200   48.5907 H   0  0  0  0  0  0  0  0  0  0  0  0
   63.4320   32.9840   46.9650 C   0  0  0  0  0  0  0  0  0  0  0  0
   64.4103   32.8415   46.4827 H   0  0  0  0  0  0  0  0  0  0  0  0
   62.4910   33.8410   46.3940 C   0  0  0  0  0  0  0  0  0  0  0  0
   62.7280   34.3641   45.4558 H   0  0  0  0  0  0  0  0  0  0  0  0
   61.2460   34.0410   47.0060 C   0  0  0  0  0  0  0  0  0  0  0  0
   60.0770   35.0590   46.1710 Cl  0  0  0  0  0  0  0  0  0  0  0  0
   58.3490   31.5580   46.6000 C   0  0  0  0  0  0  0  0  0  0  0  0
   58.9122   30.7850   47.1435 H   0  0  0  0  0  0  0  0  0  0  0  0
   57.9070   31.3120   45.2860 C   0  0  0  0  0  0  0  0  0  0  0  0
   58.0950   29.9880   44.6160 C   0  0  0  0  0  0  0  0  0  0  0  0
   57.5620   29.8070   43.4840 O   0  0  0  0  0  0  0  0  0  0  0  0
   58.7890   28.8840   45.2600 N   0  0  0  0  0  0  0  0  0  0  0  0
   59.6960   29.2520   45.6310 H   0  0  0  0  0  0  0  0  0  0  0  0
   57.9860   28.3850   46.4120 C   0  0  0  0  0  0  0  0  0  0  0  0
   58.2976   28.9248   47.3184 H   0  0  0  0  0  0  0  0  0  0  0  0
   56.9254   28.5603   46.1787 H   0  0  0  0  0  0  0  0  0  0  0  0
   58.1650   26.8850   46.6500 C   0  0  0  0  0  0  0  0  0  0  0  0
   59.2209   26.6687   46.8696 H   0  0  0  0  0  0  0  0  0  0  0  0
   57.5492   26.5653   47.5035 H   0  0  0  0  0  0  0  0  0  0  0  0
   57.7550   26.1640   45.4410 N   0  0  0  0  0  0  0  0  0  0  0  0
   56.7860   25.1020   45.5250 C   0  0  0  0  0  0  0  0  0  0  0  0
   55.8510   25.1780   46.3680 O   0  0  0  0  0  0  0  0  0  0  0  0
   56.8510   23.9270   44.6270 C   0  0  0  0  0  0  0  0  0  0  0  0
   57.8200   22.9290   44.8190 C   0  0  0  0  0  0  0  0  0  0  0  0
   58.5467   23.0235   45.6393 H   0  0  0  0  0  0  0  0  0  0  0  0
   57.8670   21.8170   43.9750 C   0  0  0  0  0  0  0  0  0  0  0  0
   58.6341   21.0434   44.1269 H   0  0  0  0  0  0  0  0  0  0  0  0
   56.9390   21.6870   42.9370 C   0  0  0  0  0  0  0  0  0  0  0  0
   56.9814   20.8152   42.2675 H   0  0  0  0  0  0  0  0  0  0  0  0
   55.9580   22.6640   42.7500 C   0  0  0  0  0  0  0  0  0  0  0  0
   55.2245   22.5579   41.9371 H   0  0  0  0  0  0  0  0  0  0  0  0
   55.9080   23.7760   43.5950 C   0  0  0  0  0  0  0  0  0  0  0  0
   55.1268   24.5371   43.4520 H   0  0  0  0  0  0  0  0  0  0  0  0
   58.1270   26.7160   44.1310 C   0  0  0  0  0  0  0  0  0  0  0  0
   58.5417   25.9111   43.5064 H   0  0  0  0  0  0  0  0  0  0  0  0
   57.2278   27.1432   43.6632 H   0  0  0  0  0  0  0  0  0  0  0  0
   59.1790   27.8310   44.2790 C   0  0  0  0  0  0  0  0  0  0  0  0
   60.1243   27.3771   44.6114 H   0  0  0  0  0  0  0  0  0  0  0  0
   59.2758   28.3195   43.2982 H   0  0  0  0  0  0  0  0  0  0  0  0
   57.2330   32.3410   44.6060 C   0  0  0  0  0  0  0  0  0  0  0  0
   56.8736   32.1783   43.5792 H   0  0  0  0  0  0  0  0  0  0  0  0
  1  2  1  0
  2  3  1  0
  3  4  1  0
  4  5  2  0
  5  6  1  0
  6  7  2  0
  6  8  1  0
  8  9  2  0
  9 10  1  0
  9 11  1  0
 11 12  1  0
 11 13  2  0
 13 14  1  0
 13 15  1  0
 15 16  1  0
 15 17  2  0
 17 18  1  0
  4 19  1  0
 19 20  1  0
 19 21  2  0
 21 22  1  0
 22 23  2  0
 22 24  1  0
 24 25  1  0
 24 26  1  0
 26 27  1  0
 26 28  1  0
 26 29  1  0
 29 30  1  0
 29 31  1  0
 29 32  1  0
 32 33  1  0
 33 34  2  0
 33 35  1  0
 35 36  2  0
 36 37  1  0
 36 38  1  0
 38 39  1  0
 38 40  2  0
 40 41  1  0
 40 42  1  0
 42 43  1  0
 42 44  2  0
 44 45  1  0
 32 46  1  0
 46 47  1  0
 46 48  1  0
 46 49  1  0
 49 50  1  0
 49 51  1  0
 21 52  1  0
 52 53  1  0
 52  2  2  0
 17  8  1  0
 49 24  1  0
 44 35  1  0
M  CHG  2   3  -1  24   1
M  END
>  <UniqueID>  (67) 
65

>  <SMILES>  (67) 
O=C(/N=c1\cc(C(=O)[NH+]2CCN(C(=O)c3ccccc3)CC2)cc[n-]1)c1ccccc1Cl

>  <Energy>  (67) 
87.89550896319889

>  <Genealogy>  (67) 
O=C(N=c1cc(C(=O)[NH+]2CCN(C(=O)c3ccccc3)CC2)cc[n-]1)c1ccccc1Cl (protonated)
O=C(/N=c1\cc(C(=O)[NH+]2CCN(C(=O)c3ccccc3)CC2)cc[n-]1)c1ccccc1Cl (cis-trans isomerization)
O=C(/N=c1\cc(C(=O)[NH+]2CCN(C(=O)c3ccccc3)CC2)cc[n-]1)c1ccccc1Cl (3D coordinates assigned)
O=C(/N=c1\cc(C(=O)[NH+]2CCN(C(=O)c3ccccc3)CC2)cc[n-]1)c1ccccc1Cl (nonaromatic ring conformer: 87.89550896319889 kcal/mol)

>  <smiles>  (67) 
O=C(N=c1cc(C(=O)N2CCN(C(=O)c3ccccc3)CC2)cc[nH]1)c1ccccc1Cl

>  <score_type>  (67) 
oracle

>  <origin>  (67) 
adg

>  <m_score__min__energy>  (67) 
-9.6500000000000004

>  <m_primary>  (67) 
energy

$$$$
67:0
     RDKit          3D

 52 57  0  0  0  0  0  0  0  0999 V2000
   59.7330   34.9930   46.7610 O   0  0  0  0  0  0  0  0  0  0  0  0
   58.9630   33.9800   46.1910 C   0  0  0  0  0  0  0  0  0  0  0  0
   57.8380   34.3130   45.4040 C   0  0  0  0  0  0  0  0  0  0  0  0
   57.0530   33.3100   44.8190 C   0  0  0  0  0  0  0  0  0  0  0  0
   57.4240   31.9860   45.0220 C   0  0  0  0  0  0  0  0  0  0  0  0
   58.5140   31.6330   45.8050 C   0  0  0  0  0  0  0  0  0  0  0  0
   59.3100   32.6240   46.4090 C   0  0  0  0  0  0  0  0  0  0  0  0
   60.4980   32.2690   47.2710 C   0  0  0  0  0  0  0  0  0  0  0  0
   61.3970   33.4350   47.4170 N   0  0  0  0  0  0  0  0  0  0  0  0
   61.4910   33.9190   48.8130 C   0  0  0  0  0  0  0  0  0  0  0  0
   62.3280   32.9950   49.7200 C   0  0  0  0  0  0  0  0  0  0  0  0
   63.4810   32.2960   48.9650 C   0  0  0  0  0  0  0  0  0  0  0  0
   64.6590   32.0140   49.8780 C   0  0  0  0  0  0  0  0  0  0  0  0
   65.8450   32.7610   49.7490 C   0  0  0  0  0  0  0  0  0  0  0  0
   66.9390   32.5050   50.5820 C   0  0  0  0  0  0  0  0  0  0  0  0
   66.8630   31.5010   51.5500 C   0  0  0  0  0  0  0  0  0  0  0  0
   65.6940   30.7490   51.6850 C   0  0  0  0  0  0  0  0  0  0  0  0
   64.5970   31.0010   50.8550 C   0  0  0  0  0  0  0  0  0  0  0  0
   63.9010   33.1090   47.7350 C   0  0  0  0  0  0  0  0  0  0  0  0
   62.7190   33.2560   46.7560 C   0  0  0  0  0  0  0  0  0  0  0  0
   58.6240   30.1290   45.9270 C   0  0  0  0  0  0  0  0  0  0  0  0
   57.4650   29.7120   45.0760 C   0  0  0  0  0  0  0  0  0  0  0  0
   56.7930   30.7720   44.5700 C   0  0  0  0  0  0  0  0  0  0  0  0
   55.4810   30.5030   44.4520 N   0  0  0  0  0  0  0  0  0  0  0  0
   55.3080   29.2390   44.8280 N   0  0  0  0  0  0  0  0  0  0  0  0
   56.4960   28.7460   45.2480 C   0  0  0  0  0  0  0  0  0  0  0  0
   56.6540   27.4580   45.9320 C   0  0  0  0  0  0  0  0  0  0  0  0
   57.8040   27.0280   46.4770 N   0  0  0  0  0  0  0  0  0  0  0  0
   57.5100   25.8420   46.9830 N   0  0  0  0  0  0  0  0  0  0  0  0
   56.2360   25.5610   46.7580 N   0  0  0  0  0  0  0  0  0  0  0  0
   55.6680   26.5580   46.0980 N   0  0  0  0  0  0  0  0  0  0  0  0
   60.7370   34.9010   46.8670 H   0  0  0  0  0  0  0  0  0  0  0  0
   57.5755   35.3699   45.2488 H   0  0  0  0  0  0  0  0  0  0  0  0
   56.1684   33.5635   44.2163 H   0  0  0  0  0  0  0  0  0  0  0  0
   60.1443   31.9575   48.2649 H   0  0  0  0  0  0  0  0  0  0  0  0
   61.0531   31.4486   46.7927 H   0  0  0  0  0  0  0  0  0  0  0  0
   61.9545   34.9166   48.8069 H   0  0  0  0  0  0  0  0  0  0  0  0
   60.4698   33.9409   49.2213 H   0  0  0  0  0  0  0  0  0  0  0  0
   62.7561   33.5970   50.5351 H   0  0  0  0  0  0  0  0  0  0  0  0
   61.6579   32.2097   50.0999 H   0  0  0  0  0  0  0  0  0  0  0  0
   63.1090   31.3225   48.6129 H   0  0  0  0  0  0  0  0  0  0  0  0
   65.9119   33.5519   48.9875 H   0  0  0  0  0  0  0  0  0  0  0  0
   67.8609   33.0954   50.4746 H   0  0  0  0  0  0  0  0  0  0  0  0
   67.7236   31.3027   52.2058 H   0  0  0  0  0  0  0  0  0  0  0  0
   65.6359   29.9567   52.4459 H   0  0  0  0  0  0  0  0  0  0  0  0
   63.6796   30.4042   50.9658 H   0  0  0  0  0  0  0  0  0  0  0  0
   64.2311   34.1078   48.0566 H   0  0  0  0  0  0  0  0  0  0  0  0
   64.7224   32.5843   47.2251 H   0  0  0  0  0  0  0  0  0  0  0  0
   62.9068   34.1319   46.1177 H   0  0  0  0  0  0  0  0  0  0  0  0
   62.6625   32.3170   46.1858 H   0  0  0  0  0  0  0  0  0  0  0  0
   59.5786   29.7560   45.5274 H   0  0  0  0  0  0  0  0  0  0  0  0
   58.6027   29.7456   46.9578 H   0  0  0  0  0  0  0  0  0  0  0  0
  1  2  1  0
  2  3  2  0
  3  4  1  0
  4  5  2  0
  5  6  1  0
  6  7  2  0
  7  8  1  0
  8  9  1  0
  9 10  1  0
 10 11  1  0
 11 12  1  0
 12 13  1  0
 13 14  2  0
 14 15  1  0
 15 16  2  0
 16 17  1  0
 17 18  2  0
 12 19  1  0
 19 20  1  0
  6 21  1  0
 21 22  1  0
 22 23  1  0
 23 24  2  0
 24 25  1  0
 25 26  1  0
 26 27  1  0
 27 28  1  0
 28 29  2  0
 29 30  1  0
 30 31  1  0
  7  2  1  0
 20  9  1  0
 26 22  2  0
 31 27  2  0
 23  5  1  0
 18 13  1  0
  1 32  1  0
  3 33  1  0
  4 34  1  0
  8 35  1  0
  8 36  1  0
 10 37  1  0
 10 38  1  0
 11 39  1  0
 11 40  1  0
 12 41  1  0
 14 42  1  0
 15 43  1  0
 16 44  1  0
 17 45  1  0
 18 46  1  0
 19 47  1  0
 19 48  1  0
 20 49  1  0
 20 50  1  0
 21 51  1  0
 21 52  1  0
M  CHG  2  25  -1  30  -1
M  END
>  <UniqueID>  (68) 
66

>  <SMILES>  (68) 
Oc1ccc2c(c1CN1CCC(c3ccccc3)CC1)Cc1c-2n[n-]c1-c1nn[n-]n1

>  <Energy>  (68) 
177.49203167786897

>  <Genealogy>  (68) 
Oc1ccc2c(c1CN1CCC(c3ccccc3)CC1)Cc1c-2n[n-]c1-c1nn[n-]n1 (protonated)
Oc1ccc2c(c1CN1CCC(c3ccccc3)CC1)Cc1c-2n[n-]c1-c1nn[n-]n1 (3D coordinates assigned)
Oc1ccc2c(c1CN1CCC(c3ccccc3)CC1)Cc1c-2n[n-]c1-c1nn[n-]n1 (nonaromatic ring conformer: 177.49203167786897 kcal/mol)

>  <smiles>  (68) 
Oc1ccc2c(c1CN1CCC(c3ccccc3)CC1)Cc1c-2n[nH]c1-c1nn[nH]n1

>  <score_type>  (68) 
oracle

>  <origin>  (68) 
adg

>  <m_score__min__energy>  (68) 
-14.789999999999999

>  <m_primary>  (68) 
energy

$$$$
68:0
     RDKit          3D

 85 90  0  0  0  0  0  0  0  0999 V2000
   58.1200   30.2700   51.2640 C   0  0  0  0  0  0  0  0  0  0  0  0
   57.4660   30.7220   52.3390 C   0  0  0  0  0  0  0  0  0  0  0  0
   58.1770   31.0780   53.6200 C   0  0  0  0  0  0  0  0  0  0  0  0
   58.5160   32.5140   53.7280 N   0  0  0  0  0  0  0  0  0  0  0  0
   59.9410   32.7960   53.9950 C   0  0  0  0  0  0  0  0  0  0  0  0
   60.7990   32.8530   52.7110 C   0  0  0  0  0  0  0  0  0  0  0  0
   59.9960   33.0830   51.4880 N   0  0  0  0  0  0  0  0  0  0  0  0
   60.8430   33.5650   50.3780 C   0  0  0  0  0  0  0  0  0  0  0  0
   60.0580   33.6150   49.0920 C   0  0  0  0  0  0  0  0  0  0  0  0
   60.4100   34.5340   48.0950 C   0  0  0  0  0  0  0  0  0  0  0  0
   59.6970   34.5810   46.8950 C   0  0  0  0  0  0  0  0  0  0  0  0
   58.6150   33.7120   46.6710 C   0  0  0  0  0  0  0  0  0  0  0  0
   57.9260   33.7110   45.3560 C   0  0  0  0  0  0  0  0  0  0  0  0
   58.2960   34.5200   44.4630 O   0  0  0  0  0  0  0  0  0  0  0  0
   56.9040   32.7610   45.0310 N   0  0  0  0  0  0  0  0  0  0  0  0
   57.1040   31.4120   44.5850 C   0  0  0  0  0  0  0  0  0  0  0  0
   56.0050   30.7010   44.0900 C   0  0  0  0  0  0  0  0  0  0  0  0
   56.1350   29.3600   43.7270 C   0  0  0  0  0  0  0  0  0  0  0  0
   57.3650   28.7140   43.8660 C   0  0  0  0  0  0  0  0  0  0  0  0
   58.4810   29.4100   44.3570 C   0  0  0  0  0  0  0  0  0  0  0  0
   59.8100   28.7200   44.5090 C   0  0  0  0  0  0  0  0  0  0  0  0
   59.8710   28.0020   45.7820 N   0  0  0  0  0  0  0  0  0  0  0  0
   60.3050   28.5810   47.0290 C   0  0  0  0  0  0  0  0  0  0  0  0
   60.6630   29.9370   47.1410 C   0  0  0  0  0  0  0  0  0  0  0  0
   61.0610   30.4700   48.3710 C   0  0  0  0  0  0  0  0  0  0  0  0
   61.1210   29.6540   49.5080 C   0  0  0  0  0  0  0  0  0  0  0  0
   61.5080   30.1830   50.7500 C   0  0  0  0  0  0  0  0  0  0  0  0
   61.5610   29.3620   51.8880 C   0  0  0  0  0  0  0  0  0  0  0  0
   61.9660   29.9290   53.1980 C   0  0  0  0  0  0  0  0  0  0  0  0
   61.1830   29.8310   54.1800 O   0  0  0  0  0  0  0  0  0  0  0  0
   63.1980   30.6440   53.3730 N   0  0  0  0  0  0  0  0  0  0  0  0
   64.0500   30.9390   52.4340 C   0  0  0  0  0  0  0  0  0  0  0  0
   63.7670   31.9900   51.5540 C   0  0  0  0  0  0  0  0  0  0  0  0
   64.6860   32.3210   50.5490 C   0  0  0  0  0  0  0  0  0  0  0  0
   64.3720   33.4060   49.5620 C   0  0  0  0  0  0  0  0  0  0  0  0
   65.8710   31.5810   50.4320 C   0  0  0  0  0  0  0  0  0  0  0  0
   66.1270   30.5500   51.3350 C   0  0  0  0  0  0  0  0  0  0  0  0
   65.2240   30.2560   52.3080 N   0  0  0  0  0  0  0  0  0  0  0  0
   61.2560   27.9950   51.7650 C   0  0  0  0  0  0  0  0  0  0  0  0
   60.8670   27.4630   50.5340 C   0  0  0  0  0  0  0  0  0  0  0  0
   60.7900   28.2850   49.4020 C   0  0  0  0  0  0  0  0  0  0  0  0
   60.3900   27.7610   48.1640 C   0  0  0  0  0  0  0  0  0  0  0  0
   58.3460   30.7630   44.7140 C   0  0  0  0  0  0  0  0  0  0  0  0
   58.2520   32.8040   47.6820 C   0  0  0  0  0  0  0  0  0  0  0  0
   58.9640   32.7620   48.8860 C   0  0  0  0  0  0  0  0  0  0  0  0
   58.9090   34.0340   51.7590 C   0  0  0  0  0  0  0  0  0  0  0  0
   57.8890   33.3900   52.7110 C   0  0  0  0  0  0  0  0  0  0  0  0
   57.5654   30.0209   50.3473 H   0  0  0  0  0  0  0  0  0  0  0  0
   59.2127   30.1473   51.2963 H   0  0  0  0  0  0  0  0  0  0  0  0
   56.3734   30.8379   52.2871 H   0  0  0  0  0  0  0  0  0  0  0  0
   57.5265   30.8094   54.4654 H   0  0  0  0  0  0  0  0  0  0  0  0
   59.1252   30.5204   53.6292 H   0  0  0  0  0  0  0  0  0  0  0  0
   60.0156   33.7656   54.5091 H   0  0  0  0  0  0  0  0  0  0  0  0
   60.3284   31.9717   54.6118 H   0  0  0  0  0  0  0  0  0  0  0  0
   61.5266   33.6718   52.8117 H   0  0  0  0  0  0  0  0  0  0  0  0
   61.2926   31.8761   52.6016 H   0  0  0  0  0  0  0  0  0  0  0  0
   61.2107   34.5740   50.6161 H   0  0  0  0  0  0  0  0  0  0  0  0
   61.6873   32.8715   50.2504 H   0  0  0  0  0  0  0  0  0  0  0  0
   61.2524   35.2223   48.2581 H   0  0  0  0  0  0  0  0  0  0  0  0
   59.9847   35.3046   46.1181 H   0  0  0  0  0  0  0  0  0  0  0  0
   55.0317   31.2029   43.9863 H   0  0  0  0  0  0  0  0  0  0  0  0
   55.2677   28.8113   43.3310 H   0  0  0  0  0  0  0  0  0  0  0  0
   57.4601   27.6537   43.5892 H   0  0  0  0  0  0  0  0  0  0  0  0
   59.9436   28.0054   43.6834 H   0  0  0  0  0  0  0  0  0  0  0  0
   60.6084   29.4764   44.4882 H   0  0  0  0  0  0  0  0  0  0  0  0
   59.4940   27.0260   45.7910 H   0  0  0  0  0  0  0  0  0  0  0  0
   60.6295   30.5843   46.2522 H   0  0  0  0  0  0  0  0  0  0  0  0
   61.3281   31.5344   48.4460 H   0  0  0  0  0  0  0  0  0  0  0  0
   61.7714   31.2478   50.8320 H   0  0  0  0  0  0  0  0  0  0  0  0
   62.8274   32.5537   51.6508 H   0  0  0  0  0  0  0  0  0  0  0  0
   64.1055   34.3267   50.1017 H   0  0  0  0  0  0  0  0  0  0  0  0
   65.2528   33.5931   48.9303 H   0  0  0  0  0  0  0  0  0  0  0  0
   63.5274   33.0938   48.9303 H   0  0  0  0  0  0  0  0  0  0  0  0
   66.5927   31.8118   49.6346 H   0  0  0  0  0  0  0  0  0  0  0  0
   67.0609   29.9736   51.2601 H   0  0  0  0  0  0  0  0  0  0  0  0
   61.3244   27.3394   52.6456 H   0  0  0  0  0  0  0  0  0  0  0  0
   60.6200   26.3942   50.4526 H   0  0  0  0  0  0  0  0  0  0  0  0
   60.1397   26.6930   48.0820 H   0  0  0  0  0  0  0  0  0  0  0  0
   59.2158   31.3173   45.0962 H   0  0  0  0  0  0  0  0  0  0  0  0
   57.4029   32.1225   47.5252 H   0  0  0  0  0  0  0  0  0  0  0  0
   58.6641   32.0564   49.6748 H   0  0  0  0  0  0  0  0  0  0  0  0
   59.3229   34.9408   52.2243 H   0  0  0  0  0  0  0  0  0  0  0  0
   58.4114   34.3002   50.8148 H   0  0  0  0  0  0  0  0  0  0  0  0
   57.3397   34.1901   53.2288 H   0  0  0  0  0  0  0  0  0  0  0  0
   57.2232   32.7610   52.1018 H   0  0  0  0  0  0  0  0  0  0  0  0
  1  2  2  0
  2  3  1  0
  3  4  1  0
  4  5  1  0
  5  6  1  0
  6  7  1  0
  7  8  1  0
  8  9  1  0
  9 10  2  0
 10 11  1  0
 11 12  2  0
 12 13  1  0
 13 14  2  0
 13 15  1  0
 15 16  1  0
 16 17  2  0
 17 18  1  0
 18 19  2  0
 19 20  1  0
 20 21  1  0
 21 22  1  0
 22 23  1  0
 23 24  2  0
 24 25  1  0
 25 26  2  0
 26 27  1  0
 27 28  2  0
 28 29  1  0
 29 30  2  0
 29 31  1  0
 31 32  2  3
 32 33  1  0
 33 34  2  0
 34 35  1  0
 34 36  1  0
 36 37  2  0
 37 38  1  0
 28 39  1  0
 39 40  2  0
 40 41  1  0
 41 42  2  0
 20 43  2  0
 12 44  1  0
 44 45  2  0
  7 46  1  0
 46 47  1  0
 47  4  1  0
 45  9  1  0
 43 16  1  0
 42 23  1  0
 41 26  1  0
 38 32  1  0
  1 48  1  0
  1 49  1  0
  2 50  1  0
  3 51  1  0
  3 52  1  0
  5 53  1  0
  5 54  1  0
  6 55  1  0
  6 56  1  0
  8 57  1  0
  8 58  1  0
 10 59  1  0
 11 60  1  0
 17 61  1  0
 18 62  1  0
 19 63  1  0
 21 64  1  0
 21 65  1  0
 22 66  1  0
 24 67  1  0
 25 68  1  0
 27 69  1  0
 33 70  1  0
 35 71  1  0
 35 72  1  0
 35 73  1  0
 36 74  1  0
 37 75  1  0
 39 76  1  0
 40 77  1  0
 42 78  1  0
 43 79  1  0
 44 80  1  0
 45 81  1  0
 46 82  1  0
 46 83  1  0
 47 84  1  0
 47 85  1  0
M  CHG  2  15  -1  38  -1
M  END
>  <UniqueID>  (69) 
67

>  <SMILES>  (69) 
C=CCN1CCN(Cc2ccc(C(=O)[N-]c3cccc(CNc4ccc5cc(C(=O)N=c6cc(C)cc[n-]6)ccc5c4)c3)cc2)CC1

>  <Energy>  (69) 
117.58659823903682

>  <Genealogy>  (69) 
C=CCN1CCN(Cc2ccc(C(=O)[N-]c3cccc(CNc4ccc5cc(C(=O)N=c6cc(C)cc[n-]6)ccc5c4)c3)cc2)CC1 (protonated)
C=CCN1CCN(Cc2ccc(C(=O)[N-]c3cccc(CNc4ccc5cc(C(=O)N=c6cc(C)cc[n-]6)ccc5c4)c3)cc2)CC1 (3D coordinates assigned)
C=CCN1CCN(Cc2ccc(C(=O)[N-]c3cccc(CNc4ccc5cc(C(=O)N=c6cc(C)cc[n-]6)ccc5c4)c3)cc2)CC1 (nonaromatic ring conformer: 117.58659823903682 kcal/mol)

>  <smiles>  (69) 
C=CCN1CCN(Cc2ccc(C(=O)Nc3cccc(CNc4ccc5cc(C(=O)N=c6cc(C)cc[nH]6)ccc5c4)c3)cc2)CC1

>  <score_type>  (69) 
oracle

>  <origin>  (69) 
adg

>  <m_score__min__energy>  (69) 
-13.380000000000001

>  <m_primary>  (69) 
energy

$$$$
69:0
     RDKit          3D

 57 60  0  0  0  0  0  0  0  0999 V2000
   56.8600   29.4000   43.3090 C   0  0  0  0  0  0  0  0  0  0  0  0
   57.3840   29.4040   44.5460 C   0  0  0  0  0  0  0  0  0  0  0  0
   57.7590   28.2740   45.2840 C   0  0  0  0  0  0  0  0  0  0  0  0
   57.6780   26.9840   44.9040 C   0  0  0  0  0  0  0  0  0  0  0  0
   57.2500   25.8880   45.7920 C   0  0  0  0  0  0  0  0  0  0  0  0
   58.0610   24.8850   46.1700 N   0  0  0  0  0  0  0  0  0  0  0  0
   57.2520   24.0820   46.8930 C   0  0  0  0  0  0  0  0  0  0  0  0
   57.6590   23.0230   47.4380 O   0  0  0  0  0  0  0  0  0  0  0  0
   55.9700   24.4960   46.9770 N   0  0  0  0  0  0  0  0  0  0  0  0
   55.9800   25.6340   46.2640 C   0  0  0  0  0  0  0  0  0  0  0  0
   54.8460   26.4010   46.0140 O   0  0  0  0  0  0  0  0  0  0  0  0
   58.3000   28.7470   46.4710 C   0  0  0  0  0  0  0  0  0  0  0  0
   58.2180   30.1240   46.4240 C   0  0  0  0  0  0  0  0  0  0  0  0
   58.6890   31.0350   47.5180 C   0  0  0  0  0  0  0  0  0  0  0  0
   57.6630   30.5280   45.2570 N   0  0  0  0  0  0  0  0  0  0  0  0
   57.4060   31.8940   44.8810 C   0  0  0  0  0  0  0  0  0  0  0  0
   56.3270   32.4510   45.2210 O   0  0  0  0  0  0  0  0  0  0  0  0
   58.3870   32.6290   44.1410 N   0  0  0  0  0  0  0  0  0  0  0  0
   58.9680   33.8830   44.6000 C   0  0  0  0  0  0  0  0  0  0  0  0
   60.0010   33.6170   45.6050 C   0  0  0  0  0  0  0  0  0  0  0  0
   60.8560   33.3980   46.4260 C   0  0  0  0  0  0  0  0  0  0  0  0
   61.8760   33.1390   47.4090 C   0  0  0  0  0  0  0  0  0  0  0  0
   61.5700   32.4040   48.5590 C   0  0  0  0  0  0  0  0  0  0  0  0
   62.5570   32.1540   49.5170 C   0  0  0  0  0  0  0  0  0  0  0  0
   63.8750   32.6200   49.3260 C   0  0  0  0  0  0  0  0  0  0  0  0
   64.9840   32.4120   50.3550 C   0  0  1  0  0  0  0  0  0  0  0  0
   66.3940   32.8390   49.9550 C   0  0  0  0  0  0  0  0  0  0  0  0
   67.1220   32.9650   51.2820 C   0  0  0  0  0  0  0  0  0  0  0  0
   66.0250   32.9880   52.3490 C   0  0  0  0  0  0  0  0  0  0  0  0
   64.7200   33.0380   51.6670 N   0  0  0  0  0  0  0  0  0  0  0  0
   64.2660   34.4420   51.5570 C   0  0  0  0  0  0  0  0  0  0  0  0
   64.1580   33.3860   48.1800 C   0  0  0  0  0  0  0  0  0  0  0  0
   63.1700   33.6350   47.2240 C   0  0  0  0  0  0  0  0  0  0  0  0
   56.5999   30.3498   42.8188 H   0  0  0  0  0  0  0  0  0  0  0  0
   56.6910   28.4470   42.7863 H   0  0  0  0  0  0  0  0  0  0  0  0
   57.9478   26.7332   43.8675 H   0  0  0  0  0  0  0  0  0  0  0  0
   54.2590   26.7170   46.7770 H   0  0  0  0  0  0  0  0  0  0  0  0
   58.7141   28.1417   47.2908 H   0  0  0  0  0  0  0  0  0  0  0  0
   58.4567   30.5856   48.4948 H   0  0  0  0  0  0  0  0  0  0  0  0
   59.7757   31.1813   47.4309 H   0  0  0  0  0  0  0  0  0  0  0  0
   58.1801   32.0063   47.4309 H   0  0  0  0  0  0  0  0  0  0  0  0
   59.4176   34.4106   43.7459 H   0  0  0  0  0  0  0  0  0  0  0  0
   58.1789   34.5046   45.0482 H   0  0  0  0  0  0  0  0  0  0  0  0
   60.5498   32.0215   48.7101 H   0  0  0  0  0  0  0  0  0  0  0  0
   62.3041   31.5896   50.4267 H   0  0  0  0  0  0  0  0  0  0  0  0
   64.9595   31.3141   50.4176 H   0  0  0  0  0  0  0  0  0  0  0  0
   66.8684   32.0780   49.3180 H   0  0  0  0  0  0  0  0  0  0  0  0
   66.4076   33.7711   49.3711 H   0  0  0  0  0  0  0  0  0  0  0  0
   67.7910   32.1056   51.4367 H   0  0  0  0  0  0  0  0  0  0  0  0
   67.7478   33.8688   51.3202 H   0  0  0  0  0  0  0  0  0  0  0  0
   66.0876   32.0801   52.9670 H   0  0  0  0  0  0  0  0  0  0  0  0
   66.1470   33.8660   53.0004 H   0  0  0  0  0  0  0  0  0  0  0  0
   64.1298   34.8633   52.5640 H   0  0  0  0  0  0  0  0  0  0  0  0
   65.0199   35.0296   51.0126 H   0  0  0  0  0  0  0  0  0  0  0  0
   63.3108   34.4769   51.0126 H   0  0  0  0  0  0  0  0  0  0  0  0
   65.1693   33.7937   48.0351 H   0  0  0  0  0  0  0  0  0  0  0  0
   63.4104   34.2217   46.3251 H   0  0  0  0  0  0  0  0  0  0  0  0
  1  2  2  0
  2  3  1  0
  3  4  2  3
  4  5  1  0
  5  6  1  0
  6  7  1  0
  7  8  2  0
  7  9  1  0
  9 10  1  0
 10 11  1  0
  3 12  1  0
 12 13  2  0
 13 14  1  0
 13 15  1  0
 15 16  1  0
 16 17  2  0
 16 18  1  0
 18 19  1  0
 19 20  1  0
 20 21  3  0
 21 22  1  0
 22 23  2  0
 23 24  1  0
 24 25  2  0
 25 26  1  0
 26 27  1  0
 27 28  1  0
 28 29  1  0
 29 30  1  0
 30 31  1  0
 25 32  1  0
 32 33  2  0
 15  2  1  0
 33 22  1  0
 10  5  2  0
 30 26  1  0
  1 34  1  0
  1 35  1  0
  4 36  1  0
 11 37  1  0
 12 38  1  0
 14 39  1  0
 14 40  1  0
 14 41  1  0
 19 42  1  0
 19 43  1  0
 23 44  1  0
 24 45  1  0
 26 46  1  1
 27 47  1  0
 27 48  1  0
 28 49  1  0
 28 50  1  0
 29 51  1  0
 29 52  1  0
 31 53  1  0
 31 54  1  0
 31 55  1  0
 32 56  1  0
 33 57  1  0
M  CHG  3   6  -1   9  -1  18  -1
M  END
>  <UniqueID>  (70) 
68

>  <SMILES>  (70) 
C=c1c(=Cc2[n-]c(=O)[n-]c2O)cc(C)n1C(=O)[N-]CC#Cc1ccc([C@H]2CCCN2C)cc1

>  <Energy>  (70) 
132.03571586659706

>  <Genealogy>  (70) 
C=c1c(=Cc2[n-]c(=O)[n-]c2O)cc(C)n1C(=O)[N-]CC#Cc1ccc(C2CCCN2C)cc1 (protonated)
C=c1c(=Cc2[n-]c(=O)[n-]c2O)cc(C)n1C(=O)[N-]CC#Cc1ccc([C@H]2CCCN2C)cc1 (chirality)
C=c1c(=Cc2[n-]c(=O)[n-]c2O)cc(C)n1C(=O)[N-]CC#Cc1ccc([C@H]2CCCN2C)cc1 (3D coordinates assigned)
C=c1c(=Cc2[n-]c(=O)[n-]c2O)cc(C)n1C(=O)[N-]CC#Cc1ccc([C@H]2CCCN2C)cc1 (nonaromatic ring conformer: 132.03571586659706 kcal/mol)

>  <smiles>  (70) 
C=c1c(=Cc2[nH]c(=O)[nH]c2O)cc(C)n1C(=O)NCC#Cc1ccc(C2CCCN2C)cc1

>  <score_type>  (70) 
oracle

>  <origin>  (70) 
adg

>  <m_score__min__energy>  (70) 
-15.300000000000001

>  <m_primary>  (70) 
energy

$$$$
70:0
     RDKit          3D

 44 46  0  0  1  0  0  0  0  0999 V2000
   57.3140   31.9740   41.8060 C   0  0  0  0  0  0  0  0  0  0  0  0
   57.7780   32.0900   43.2170 C   0  0  0  0  0  0  0  0  0  0  0  0
   58.5080   33.1510   43.6340 N   0  0  0  0  0  0  0  0  0  0  0  0
   58.8990   33.1980   44.9260 C   0  0  0  0  0  0  0  0  0  0  0  0
   59.5980   34.1780   45.3890 N   0  0  0  0  0  0  0  0  0  0  0  0
   59.5530   34.5060   46.7820 C   0  0  0  0  0  0  0  0  0  0  0  0
   60.9210   34.1580   47.3130 C   0  0  0  0  0  0  0  0  0  0  0  0
   61.9500   33.8340   46.4510 C   0  0  0  0  0  0  0  0  0  0  0  0
   63.2110   33.5110   46.9130 C   0  0  0  0  0  0  0  0  0  0  0  0
   63.4560   33.5130   48.2870 C   0  0  0  0  0  0  0  0  0  0  0  0
   62.4090   33.8420   49.1460 C   0  0  0  0  0  0  0  0  0  0  0  0
   61.1500   34.1640   48.6810 C   0  0  0  0  0  0  0  0  0  0  0  0
   58.5760   32.2200   45.7840 N   0  0  0  0  0  0  0  0  0  0  0  0
   57.8540   31.1610   45.3930 C   0  0  0  0  0  0  0  0  0  0  0  0
   57.5550   30.2370   46.2250 N   0  0  0  0  0  0  0  0  0  0  0  0
   58.3710   29.1150   46.5880 C   0  0  0  0  0  0  0  0  0  0  0  0
   57.9980   27.8530   45.8980 C   0  0  0  0  0  0  0  0  0  0  0  0
   58.4880   27.6020   44.6140 C   0  0  0  0  0  0  0  0  0  0  0  0
   58.1430   26.4360   43.9840 C   0  0  0  0  0  0  0  0  0  0  0  0
   57.3450   25.4970   44.5310 N   0  0  0  0  0  0  0  0  0  0  0  0
   56.8640   25.7150   45.7570 C   0  0  0  0  0  0  0  0  0  0  0  0
   57.1860   26.8880   46.4440 C   0  0  0  0  0  0  0  0  0  0  0  0
   57.4320   31.0730   44.0740 C   0  0  0  0  0  0  0  0  0  0  0  0
   56.6690   29.9430   43.6860 N   0  0  0  0  0  0  0  0  0  0  0  0
   56.9920   29.2410   42.6920 O   0  0  0  0  0  0  0  0  0  0  0  0
   55.5570   29.6530   44.4540 O   0  0  0  0  0  0  0  0  0  0  0  0
   56.2469   31.7072   41.7917 H   0  0  0  0  0  0  0  0  0  0  0  0
   57.4584   32.9359   41.2923 H   0  0  0  0  0  0  0  0  0  0  0  0
   57.8941   31.1932   41.2923 H   0  0  0  0  0  0  0  0  0  0  0  0
   58.7640   33.9070   42.9940 H   0  0  0  0  0  0  0  0  0  0  0  0
   59.3466   35.5776   46.9198 H   0  0  0  0  0  0  0  0  0  0  0  0
   58.7560   33.9600   47.3080 H   0  0  0  0  0  0  0  0  0  0  0  0
   61.7604   33.8331   45.3675 H   0  0  0  0  0  0  0  0  0  0  0  0
   64.0135   33.2549   46.2056 H   0  0  0  0  0  0  0  0  0  0  0  0
   64.4511   33.2611   48.6823 H   0  0  0  0  0  0  0  0  0  0  0  0
   62.5921   33.8451   50.2306 H   0  0  0  0  0  0  0  0  0  0  0  0
   60.3427   34.4208   49.3827 H   0  0  0  0  0  0  0  0  0  0  0  0
   58.8900   32.2800   46.7720 H   0  0  0  0  0  0  0  0  0  0  0  0
   59.4159   29.3510   46.3380 H   0  0  0  0  0  0  0  0  0  0  0  0
   58.2230   28.9467   47.6649 H   0  0  0  0  0  0  0  0  0  0  0  0
   59.1427   28.3318   44.1153 H   0  0  0  0  0  0  0  0  0  0  0  0
   58.5396   26.2552   42.9740 H   0  0  0  0  0  0  0  0  0  0  0  0
   56.2103   24.9667   46.2290 H   0  0  0  0  0  0  0  0  0  0  0  0
   56.7770   27.0441   47.4531 H   0  0  0  0  0  0  0  0  0  0  0  0
  1  2  1  0
  2  3  1  0
  3  4  1  0
  4  5  2  0
  5  6  1  0
  6  7  1  0
  7  8  2  0
  8  9  1  0
  9 10  2  0
 10 11  1  0
 11 12  2  0
  4 13  1  0
 13 14  1  0
 14 15  2  0
 15 16  1  0
 16 17  1  0
 17 18  2  0
 18 19  1  0
 19 20  2  0
 20 21  1  0
 21 22  2  0
 14 23  1  0
 23 24  1  0
 24 25  2  0
 24 26  1  0
 23  2  2  0
 12  7  1  0
 22 17  1  0
  1 27  1  0
  1 28  1  0
  1 29  1  0
  3 30  1  0
  6 31  1  0
  6 32  1  0
  8 33  1  0
  9 34  1  0
 10 35  1  0
 11 36  1  0
 12 37  1  0
 13 38  1  0
 16 39  1  0
 16 40  1  0
 18 41  1  0
 19 42  1  0
 21 43  1  0
 22 44  1  0
M  CHG  2  24   1  26  -1
M  END
>  <smiles>  (71) 
Cc1[nH]c(=NCc2ccccc2)[nH]c(=NCc2ccncc2)c1[N+](=O)[O-]

>  <score_type>  (71) 
oracle

>  <origin>  (71) 
adg

>  <m_score__min__energy>  (71) 
-8.5600000000000005

>  <m_primary>  (71) 
energy

$$$$
71:0
     RDKit          3D

 42 46  0  0  0  0  0  0  0  0999 V2000
   56.1120   30.4370   44.8610 O   0  0  0  0  0  0  0  0  0  0  0  0
   57.1040   29.6620   44.8530 C   0  0  0  0  0  0  0  0  0  0  0  0
   57.0190   28.4260   44.2820 N   0  0  0  0  0  0  0  0  0  0  0  0
   58.0960   27.5730   44.2610 C   0  0  0  0  0  0  0  0  0  0  0  0
   57.9720   26.2150   43.6130 C   0  0  0  0  0  0  0  0  0  0  0  0
   57.6920   25.1160   44.5670 N   0  0  0  0  0  0  0  0  0  0  0  0
   57.8220   25.5070   45.9780 C   0  0  0  0  0  0  0  0  0  0  0  0
   56.4280   25.5300   46.5710 C   0  0  0  0  0  0  0  0  0  0  0  0
   55.6620   24.5140   45.7560 C   0  0  0  0  0  0  0  0  0  0  0  0
   56.3640   24.4950   44.3960 C   0  0  2  0  0  0  0  0  0  0  0  0
   56.5180   23.0920   43.8870 C   0  0  0  0  0  0  0  0  0  0  0  0
   55.8840   22.5980   42.8050 N   0  0  0  0  0  0  0  0  0  0  0  0
   56.3520   21.3670   42.6730 N   0  0  0  0  0  0  0  0  0  0  0  0
   57.2370   21.1350   43.6270 N   0  0  0  0  0  0  0  0  0  0  0  0
   57.3780   22.1930   44.4040 N   0  0  0  0  0  0  0  0  0  0  0  0
   59.2820   27.9510   44.8330 N   0  0  0  0  0  0  0  0  0  0  0  0
   59.3590   29.1780   45.4000 C   0  0  0  0  0  0  0  0  0  0  0  0
   60.4270   29.7180   46.0020 N   0  0  0  0  0  0  0  0  0  0  0  0
   59.9550   30.9390   46.3810 C   0  0  0  0  0  0  0  0  0  0  0  0
   60.7830   31.9300   47.1040 C   0  0  0  0  0  0  0  0  0  0  0  0
   62.1280   31.6500   47.4070 C   0  0  0  0  0  0  0  0  0  0  0  0
   62.9100   32.5900   48.0860 C   0  0  0  0  0  0  0  0  0  0  0  0
   62.3580   33.8150   48.4710 C   0  0  0  0  0  0  0  0  0  0  0  0
   61.0240   34.1020   48.1770 C   0  0  0  0  0  0  0  0  0  0  0  0
   60.2370   33.1660   47.4980 C   0  0  0  0  0  0  0  0  0  0  0  0
   58.6550   31.1700   46.0400 N   0  0  0  0  0  0  0  0  0  0  0  0
   58.3140   30.0310   45.4210 C   0  0  0  0  0  0  0  0  0  0  0  0
   57.1523   26.2546   42.8805 H   0  0  0  0  0  0  0  0  0  0  0  0
   58.9442   25.9937   43.1485 H   0  0  0  0  0  0  0  0  0  0  0  0
   58.4470   24.7778   46.5144 H   0  0  0  0  0  0  0  0  0  0  0  0
   58.2981   26.4948   46.0655 H   0  0  0  0  0  0  0  0  0  0  0  0
   56.4507   25.2418   47.6323 H   0  0  0  0  0  0  0  0  0  0  0  0
   55.9712   26.5300   46.5351 H   0  0  0  0  0  0  0  0  0  0  0  0
   55.7083   23.5224   46.2300 H   0  0  0  0  0  0  0  0  0  0  0  0
   54.5956   24.7695   45.6695 H   0  0  0  0  0  0  0  0  0  0  0  0
   55.7629   25.0499   43.6607 H   0  0  0  0  0  0  0  0  0  0  0  0
   57.7610   20.2400   43.7430 H   0  0  0  0  0  0  0  0  0  0  0  0
   62.5670   30.6866   47.1083 H   0  0  0  0  0  0  0  0  0  0  0  0
   63.9615   32.3648   48.3175 H   0  0  0  0  0  0  0  0  0  0  0  0
   62.9746   34.5526   49.0055 H   0  0  0  0  0  0  0  0  0  0  0  0
   60.5906   35.0666   48.4800 H   0  0  0  0  0  0  0  0  0  0  0  0
   59.1858   33.3971   47.2708 H   0  0  0  0  0  0  0  0  0  0  0  0
  1  2  2  0
  2  3  1  0
  3  4  1  0
  4  5  1  0
  5  6  1  0
  6  7  1  0
  7  8  1  0
  8  9  1  0
  9 10  1  0
 10 11  1  0
 11 12  2  0
 12 13  1  0
 13 14  1  0
 14 15  2  0
  4 16  2  0
 16 17  1  0
 17 18  1  0
 18 19  1  0
 19 20  1  0
 20 21  2  0
 21 22  1  0
 22 23  2  0
 23 24  1  0
 24 25  2  0
 19 26  2  0
 26 27  1  0
 27  2  1  0
 10  6  1  0
 15 11  1  0
 27 17  2  0
 25 20  1  0
  5 28  1  0
  5 29  1  0
  7 30  1  0
  7 31  1  0
  8 32  1  0
  8 33  1  0
  9 34  1  0
  9 35  1  0
 10 36  1  6
 14 37  1  0
 21 38  1  0
 22 39  1  0
 23 40  1  0
 24 41  1  0
 25 42  1  0
M  CHG  4   3  -1  13  -1  14   1  18  -1
M  END
>  <UniqueID>  (72) 
69

>  <SMILES>  (72) 
O=c1[n-]c(CN2CCC[C@@H]2c2n[n-][nH+]n2)nc2[n-]c(-c3ccccc3)nc12

>  <Energy>  (72) 
129.13916285360781

>  <Genealogy>  (72) 
O=c1[n-]c(CN2CCCC2c2n[n-][nH+]n2)nc2[n-]c(-c3ccccc3)nc12 (protonated)
O=c1[n-]c(CN2CCC[C@@H]2c2n[n-][nH+]n2)nc2[n-]c(-c3ccccc3)nc12 (chirality)
O=c1[n-]c(CN2CCC[C@@H]2c2n[n-][nH+]n2)nc2[n-]c(-c3ccccc3)nc12 (3D coordinates assigned)
O=c1[n-]c(CN2CCC[C@@H]2c2n[n-][nH+]n2)nc2[n-]c(-c3ccccc3)nc12 (nonaromatic ring conformer: 129.13916285360781 kcal/mol)

>  <smiles>  (72) 
O=c1[nH]c(CN2CCCC2c2nn[nH]n2)nc2[nH]c(-c3ccccc3)nc12

>  <score_type>  (72) 
oracle

>  <origin>  (72) 
adg

>  <m_score__min__energy>  (72) 
-11.52

>  <m_primary>  (72) 
energy

$$$$
72:0
     RDKit          3D

 51 53  0  0  0  0  0  0  0  0999 V2000
   63.4170   33.8020   50.2700 C   0  0  0  0  0  0  0  0  0  0  0  0
   63.2880   33.5530   48.8730 O   0  0  0  0  0  0  0  0  0  0  0  0
   62.1210   33.7880   48.1310 C   0  0  0  0  0  0  0  0  0  0  0  0
   60.9710   34.2010   48.8130 C   0  0  0  0  0  0  0  0  0  0  0  0
   59.7820   34.4410   48.1190 C   0  0  0  0  0  0  0  0  0  0  0  0
   59.7290   34.2790   46.7260 C   0  0  0  0  0  0  0  0  0  0  0  0
   58.4350   34.5010   45.9890 C   0  0  0  0  0  0  0  0  0  0  0  0
   57.3670   33.4820   46.4070 C   0  0  0  0  0  0  0  0  0  0  0  0
   57.6820   32.1120   45.8820 C   0  0  0  0  0  0  0  0  0  0  0  0
   57.0210   31.6530   44.9110 O   0  0  0  0  0  0  0  0  0  0  0  0
   58.7360   31.3440   46.4830 N   0  0  0  0  0  0  0  0  0  0  0  0
   59.0440   29.9830   46.1400 C   0  0  0  0  0  0  0  0  0  0  0  0
   59.6030   29.7050   44.8850 C   0  0  0  0  0  0  0  0  0  0  0  0
   59.9300   28.3970   44.5300 C   0  0  0  0  0  0  0  0  0  0  0  0
   59.7290   27.3540   45.4360 C   0  0  0  0  0  0  0  0  0  0  0  0
   59.2140   27.6140   46.7160 C   0  0  0  0  0  0  0  0  0  0  0  0
   59.0430   26.4980   47.6770 C   0  0  0  0  0  0  0  0  0  0  0  0
   59.8700   26.3690   48.6190 O   0  0  0  0  0  0  0  0  0  0  0  0
   57.9980   25.5220   47.5520 N   0  0  0  0  0  0  0  0  0  0  0  0
   57.6510   24.7480   46.3910 C   0  0  0  0  0  0  0  0  0  0  0  0
   58.4200   23.6280   46.0190 C   0  0  0  0  0  0  0  0  0  0  0  0
   58.0970   22.8890   44.8810 C   0  0  0  0  0  0  0  0  0  0  0  0
   57.0250   23.2750   44.0800 C   0  0  0  0  0  0  0  0  0  0  0  0
   56.2800   24.4090   44.4060 C   0  0  0  0  0  0  0  0  0  0  0  0
   56.5820   25.1630   45.5570 C   0  0  0  0  0  0  0  0  0  0  0  0
   55.7680   26.3700   45.8620 C   0  0  0  0  0  0  0  0  0  0  0  0
   56.3240   27.4930   45.9880 O   0  0  0  0  0  0  0  0  0  0  0  0
   54.3880   26.2930   45.9960 O   0  0  0  0  0  0  0  0  0  0  0  0
   58.8580   28.9320   47.0580 C   0  0  0  0  0  0  0  0  0  0  0  0
   60.8780   33.8580   46.0390 C   0  0  0  0  0  0  0  0  0  0  0  0
   62.0660   33.6200   46.7360 C   0  0  0  0  0  0  0  0  0  0  0  0
   62.9825   32.9632   50.8336 H   0  0  0  0  0  0  0  0  0  0  0  0
   64.4815   33.9043   50.5274 H   0  0  0  0  0  0  0  0  0  0  0  0
   62.8866   34.7307   50.5274 H   0  0  0  0  0  0  0  0  0  0  0  0
   61.0032   34.3378   49.9040 H   0  0  0  0  0  0  0  0  0  0  0  0
   58.8829   34.7586   48.6675 H   0  0  0  0  0  0  0  0  0  0  0  0
   58.0677   35.5142   46.2092 H   0  0  0  0  0  0  0  0  0  0  0  0
   58.6259   34.3785   44.9126 H   0  0  0  0  0  0  0  0  0  0  0  0
   57.3206   33.4424   47.5053 H   0  0  0  0  0  0  0  0  0  0  0  0
   56.4016   33.8002   45.9866 H   0  0  0  0  0  0  0  0  0  0  0  0
   59.3880   31.8410   47.1330 H   0  0  0  0  0  0  0  0  0  0  0  0
   59.7851   30.5251   44.1748 H   0  0  0  0  0  0  0  0  0  0  0  0
   60.3472   28.1864   43.5342 H   0  0  0  0  0  0  0  0  0  0  0  0
   59.9756   26.3222   45.1452 H   0  0  0  0  0  0  0  0  0  0  0  0
   59.2842   23.3331   46.6323 H   0  0  0  0  0  0  0  0  0  0  0  0
   58.6893   22.0008   44.6160 H   0  0  0  0  0  0  0  0  0  0  0  0
   56.7651   22.6849   43.1888 H   0  0  0  0  0  0  0  0  0  0  0  0
   55.4474   24.7177   43.7568 H   0  0  0  0  0  0  0  0  0  0  0  0
   58.4313   29.1424   48.0498 H   0  0  0  0  0  0  0  0  0  0  0  0
   60.8436   33.7149   44.9489 H   0  0  0  0  0  0  0  0  0  0  0  0
   62.9647   33.2988   46.1891 H   0  0  0  0  0  0  0  0  0  0  0  0
  1  2  1  0
  2  3  1  0
  3  4  2  0
  4  5  1  0
  5  6  2  0
  6  7  1  0
  7  8  1  0
  8  9  1  0
  9 10  2  0
  9 11  1  0
 11 12  1  0
 12 13  2  0
 13 14  1  0
 14 15  2  0
 15 16  1  0
 16 17  1  0
 17 18  2  0
 17 19  1  0
 19 20  1  0
 20 21  2  0
 21 22  1  0
 22 23  2  0
 23 24  1  0
 24 25  2  0
 25 26  1  0
 26 27  2  0
 26 28  1  0
 16 29  2  0
  6 30  1  0
 30 31  2  0
 31  3  1  0
 29 12  1  0
 25 20  1  0
  1 32  1  0
  1 33  1  0
  1 34  1  0
  4 35  1  0
  5 36  1  0
  7 37  1  0
  7 38  1  0
  8 39  1  0
  8 40  1  0
 11 41  1  0
 13 42  1  0
 14 43  1  0
 15 44  1  0
 21 45  1  0
 22 46  1  0
 23 47  1  0
 24 48  1  0
 29 49  1  0
 30 50  1  0
 31 51  1  0
M  CHG  2  19  -1  28  -1
M  END
>  <UniqueID>  (73) 
70

>  <SMILES>  (73) 
COc1ccc(CCC(=O)Nc2cccc(C(=O)[N-]c3ccccc3C(=O)[O-])c2)cc1

>  <Energy>  (73) 
58.62369551656768

>  <Genealogy>  (73) 
COc1ccc(CCC(=O)Nc2cccc(C(=O)[N-]c3ccccc3C(=O)[O-])c2)cc1 (protonated)
COc1ccc(CCC(=O)Nc2cccc(C(=O)[N-]c3ccccc3C(=O)[O-])c2)cc1 (3D coordinates assigned)
COc1ccc(CCC(=O)Nc2cccc(C(=O)[N-]c3ccccc3C(=O)[O-])c2)cc1 (optimized conformer: 58.62369551656768 kcal/mol)

>  <smiles>  (73) 
COc1ccc(CCC(=O)Nc2cccc(C(=O)Nc3ccccc3C(=O)O)c2)cc1

>  <score_type>  (73) 
oracle

>  <origin>  (73) 
adg

>  <m_score__min__energy>  (73) 
-15.359999999999999

>  <m_primary>  (73) 
energy

$$$$
73:0
     RDKit          3D

 44 47  0  0  0  0  0  0  0  0999 V2000
   56.1400   30.1730   44.5160 O   0  0  0  0  0  0  0  0  0  0  0  0
   57.3190   30.0740   44.9530 C   0  0  0  0  0  0  0  0  0  0  0  0
   57.8610   28.7360   45.2900 C   0  0  0  0  0  0  0  0  0  0  0  0
   59.2500   28.5170   45.3110 C   0  0  0  0  0  0  0  0  0  0  0  0
   59.7640   27.2600   45.6390 C   0  0  0  0  0  0  0  0  0  0  0  0
   58.8990   26.2100   45.9570 C   0  0  0  0  0  0  0  0  0  0  0  0
   59.3990   24.9900   46.2760 F   0  0  0  0  0  0  0  0  0  0  0  0
   57.5170   26.4190   45.9520 C   0  0  0  0  0  0  0  0  0  0  0  0
   56.9990   27.6750   45.6250 C   0  0  0  0  0  0  0  0  0  0  0  0
   58.1190   31.2630   45.1030 N   0  0  0  0  0  0  0  0  0  0  0  0
   58.8220   31.5440   46.3530 C   0  0  0  0  0  0  0  0  0  0  0  0
   58.1480   32.7240   47.0660 C   0  0  0  0  0  0  0  0  0  0  0  0
   57.8920   33.8740   46.1700 N   0  0  0  0  0  0  0  0  0  0  0  0
   58.9070   34.9470   46.1820 C   0  0  0  0  0  0  0  0  0  0  0  0
   60.1460   34.5910   46.9470 C   0  0  0  0  0  0  0  0  0  0  0  0
   61.2070   33.9530   46.4080 N   0  0  0  0  0  0  0  0  0  0  0  0
   62.0290   33.8540   47.4750 C   0  0  0  0  0  0  0  0  0  0  0  0
   63.3930   33.2420   47.4220 C   0  0  0  0  0  0  0  0  0  0  0  0
   63.7760   32.4500   48.6620 C   0  0  0  0  0  0  0  0  0  0  0  0
   63.4000   31.7230   47.3830 C   0  0  0  0  0  0  0  0  0  0  0  0
   61.5000   34.3840   48.5520 O   0  0  0  0  0  0  0  0  0  0  0  0
   60.3270   34.8450   48.2550 N   0  0  0  0  0  0  0  0  0  0  0  0
   57.2980   33.5510   44.8540 C   0  0  0  0  0  0  0  0  0  0  0  0
   57.9890   32.3730   44.1630 C   0  0  0  0  0  0  0  0  0  0  0  0
   59.9366   29.3412   45.0675 H   0  0  0  0  0  0  0  0  0  0  0  0
   60.8518   27.0967   45.6469 H   0  0  0  0  0  0  0  0  0  0  0  0
   56.8359   25.5934   46.2059 H   0  0  0  0  0  0  0  0  0  0  0  0
   55.9108   27.8355   45.6294 H   0  0  0  0  0  0  0  0  0  0  0  0
   58.7868   30.6558   47.0009 H   0  0  0  0  0  0  0  0  0  0  0  0
   59.8698   31.7980   46.1348 H   0  0  0  0  0  0  0  0  0  0  0  0
   57.1878   32.3813   47.4790 H   0  0  0  0  0  0  0  0  0  0  0  0
   58.8354   33.0678   47.8529 H   0  0  0  0  0  0  0  0  0  0  0  0
   59.1914   35.1686   45.1428 H   0  0  0  0  0  0  0  0  0  0  0  0
   58.4545   35.8141   46.6853 H   0  0  0  0  0  0  0  0  0  0  0  0
   63.8636   34.0402   46.8293 H   0  0  0  0  0  0  0  0  0  0  0  0
   64.8191   32.4452   49.0111 H   0  0  0  0  0  0  0  0  0  0  0  0
   63.4269   32.4206   49.7047 H   0  0  0  0  0  0  0  0  0  0  0  0
   64.1708   31.1914   46.8058 H   0  0  0  0  0  0  0  0  0  0  0  0
   62.6657   30.9487   47.1159 H   0  0  0  0  0  0  0  0  0  0  0  0
   59.6710   35.3190   48.9160 H   0  0  0  0  0  0  0  0  0  0  0  0
   56.2371   33.2995   44.9997 H   0  0  0  0  0  0  0  0  0  0  0  0
   57.4241   34.4330   44.2089 H   0  0  0  0  0  0  0  0  0  0  0  0
   57.3893   32.0525   43.2983 H   0  0  0  0  0  0  0  0  0  0  0  0
   58.9880   32.6832   43.8228 H   0  0  0  0  0  0  0  0  0  0  0  0
  1  2  2  0
  2  3  1  0
  3  4  2  0
  4  5  1  0
  5  6  2  0
  6  7  1  0
  6  8  1  0
  8  9  2  0
  2 10  1  0
 10 11  1  0
 11 12  1  0
 12 13  1  0
 13 14  1  0
 14 15  1  0
 15 16  1  0
 16 17  2  0
 17 18  1  0
 18 19  1  0
 19 20  1  0
 17 21  1  0
 21 22  1  0
 13 23  1  0
 23 24  1  0
  9  3  1  0
 24 10  1  0
 22 15  2  0
 20 18  1  0
  4 25  1  0
  5 26  1  0
  8 27  1  0
  9 28  1  0
 11 29  1  0
 11 30  1  0
 12 31  1  0
 12 32  1  0
 14 33  1  0
 14 34  1  0
 18 35  1  0
 19 36  1  0
 19 37  1  0
 20 38  1  0
 20 39  1  0
 22 40  1  0
 23 41  1  0
 23 42  1  0
 24 43  1  0
 24 44  1  0
M  CHG  1  22   1
M  END
>  <UniqueID>  (74) 
71

>  <SMILES>  (74) 
O=C(c1ccc(F)cc1)N1CCN(Cc2nc(C3CC3)o[nH+]2)CC1

>  <Energy>  (74) 
355.2991138669058

>  <Genealogy>  (74) 
O=C(c1ccc(F)cc1)N1CCN(Cc2nc(C3CC3)o[nH+]2)CC1 (protonated)
O=C(c1ccc(F)cc1)N1CCN(Cc2nc(C3CC3)o[nH+]2)CC1 (3D coordinates assigned)
O=C(c1ccc(F)cc1)N1CCN(Cc2nc(C3CC3)o[nH+]2)CC1 (nonaromatic ring conformer: 355.2991138669058 kcal/mol)

>  <smiles>  (74) 
O=C(c1ccc(F)cc1)N1CCN(Cc2noc(C3CC3)n2)CC1

>  <score_type>  (74) 
oracle

>  <origin>  (74) 
adg

>  <m_score__min__energy>  (74) 
-7.2699999999999996

>  <m_primary>  (74) 
energy

$$$$
74:0
     RDKit          3D

 48 50  0  0  0  0  0  0  0  0999 V2000
   57.4340   27.1900   44.6310 O   0  0  0  0  0  0  0  0  0  0  0  0
   57.1460   28.2010   45.3310 C   0  0  0  0  0  0  0  0  0  0  0  0
   55.8600   28.8140   45.1890 N   0  0  0  0  0  0  0  0  0  0  0  0
   55.5220   29.6900   44.0700 C   0  0  0  0  0  0  0  0  0  0  0  0
   56.6060   30.7540   43.8980 C   0  0  0  0  0  0  0  0  0  0  0  0
   56.4150   31.8300   44.8690 N   0  0  0  0  0  0  0  0  0  0  0  0
   57.3360   32.6700   45.2330 C   0  0  0  0  0  0  0  0  0  0  0  0
   58.1430   33.2690   44.3130 N   0  0  0  0  0  0  0  0  0  0  0  0
   59.0890   34.1670   44.6930 C   0  0  0  0  0  0  0  0  0  0  0  0
   59.2440   34.4870   46.0410 C   0  0  0  0  0  0  0  0  0  0  0  0
   58.4130   33.8630   46.9700 C   0  0  0  0  0  0  0  0  0  0  0  0
   57.4780   32.9710   46.5510 N   0  0  0  0  0  0  0  0  0  0  0  0
   58.1580   28.7970   46.2290 C   0  0  0  0  0  0  0  0  0  0  0  0
   58.3800   28.2610   47.5100 C   0  0  0  0  0  0  0  0  0  0  0  0
   59.2340   28.9040   48.4100 C   0  0  0  0  0  0  0  0  0  0  0  0
   59.8730   30.0970   48.0470 C   0  0  0  0  0  0  0  0  0  0  0  0
   60.8170   30.9950   49.2360 S   0  0  0  0  0  0  0  0  0  0  0  0
   60.9610   30.1680   50.4840 O   0  0  0  0  0  0  0  0  0  0  0  0
   60.0900   32.2610   49.5960 O   0  0  0  0  0  0  0  0  0  0  0  0
   62.4060   31.3850   48.6150 N   0  0  0  0  0  0  0  0  0  0  0  0
   63.0700   32.3830   49.4830 C   0  0  0  0  0  0  0  0  0  0  0  0
   64.2280   33.0760   48.7600 C   0  0  0  0  0  0  0  0  0  0  0  0
   63.7230   33.8610   47.5360 C   0  0  0  0  0  0  0  0  0  0  0  0
   62.4360   33.2650   46.9380 C   0  0  0  0  0  0  0  0  0  0  0  0
   62.3580   31.7490   47.1770 C   0  0  0  0  0  0  0  0  0  0  0  0
   59.6960   30.6080   46.7550 C   0  0  0  0  0  0  0  0  0  0  0  0
   58.8450   29.9650   45.8530 C   0  0  0  0  0  0  0  0  0  0  0  0
   55.4470   29.0932   43.1490 H   0  0  0  0  0  0  0  0  0  0  0  0
   54.5595   30.1823   44.2727 H   0  0  0  0  0  0  0  0  0  0  0  0
   57.5936   30.2952   44.0535 H   0  0  0  0  0  0  0  0  0  0  0  0
   56.5418   31.1712   42.8822 H   0  0  0  0  0  0  0  0  0  0  0  0
   59.7324   34.6414   43.9374 H   0  0  0  0  0  0  0  0  0  0  0  0
   60.0036   35.2142   46.3637 H   0  0  0  0  0  0  0  0  0  0  0  0
   58.5142   34.0926   48.0410 H   0  0  0  0  0  0  0  0  0  0  0  0
   57.8775   27.3283   47.8059 H   0  0  0  0  0  0  0  0  0  0  0  0
   59.4052   28.4720   49.4070 H   0  0  0  0  0  0  0  0  0  0  0  0
   62.3323   33.1412   49.7844 H   0  0  0  0  0  0  0  0  0  0  0  0
   63.4762   31.8597   50.3612 H   0  0  0  0  0  0  0  0  0  0  0  0
   64.7213   33.7715   49.4549 H   0  0  0  0  0  0  0  0  0  0  0  0
   64.9363   32.3079   48.4160 H   0  0  0  0  0  0  0  0  0  0  0  0
   63.5215   34.8983   47.8418 H   0  0  0  0  0  0  0  0  0  0  0  0
   64.5037   33.8093   46.7628 H   0  0  0  0  0  0  0  0  0  0  0  0
   61.5661   33.7469   47.4081 H   0  0  0  0  0  0  0  0  0  0  0  0
   62.4421   33.4451   45.8529 H   0  0  0  0  0  0  0  0  0  0  0  0
   61.4146   31.3753   46.7522 H   0  0  0  0  0  0  0  0  0  0  0  0
   63.2350   31.2943   46.6932 H   0  0  0  0  0  0  0  0  0  0  0  0
   60.2296   31.5200   46.4492 H   0  0  0  0  0  0  0  0  0  0  0  0
   58.7113   30.3753   44.8412 H   0  0  0  0  0  0  0  0  0  0  0  0
  1  2  2  0
  2  3  1  0
  3  4  1  0
  4  5  1  0
  5  6  1  0
  6  7  2  3
  7  8  1  0
  8  9  2  0
  9 10  1  0
 10 11  2  0
 11 12  1  0
  2 13  1  0
 13 14  2  0
 14 15  1  0
 15 16  2  0
 16 17  1  0
 17 18  2  0
 17 19  2  0
 17 20  1  0
 20 21  1  0
 21 22  1  0
 22 23  1  0
 23 24  1  0
 24 25  1  0
 16 26  1  0
 26 27  2  0
 12  7  1  0
 27 13  1  0
 25 20  1  0
  4 28  1  0
  4 29  1  0
  5 30  1  0
  5 31  1  0
  9 32  1  0
 10 33  1  0
 11 34  1  0
 14 35  1  0
 15 36  1  0
 21 37  1  0
 21 38  1  0
 22 39  1  0
 22 40  1  0
 23 41  1  0
 23 42  1  0
 24 43  1  0
 24 44  1  0
 25 45  1  0
 25 46  1  0
 26 47  1  0
 27 48  1  0
M  CHG  2   3  -1  12  -1
M  END
>  <UniqueID>  (75) 
72

>  <SMILES>  (75) 
O=C([N-]CCN=c1nccc[n-]1)c1ccc(S(=O)(=O)N2CCCCC2)cc1

>  <Energy>  (75) 
51.906425882766655

>  <Genealogy>  (75) 
O=C([N-]CCN=c1nccc[n-]1)c1ccc(S(=O)(=O)N2CCCCC2)cc1 (protonated)
O=C([N-]CCN=c1nccc[n-]1)c1ccc(S(=O)(=O)N2CCCCC2)cc1 (3D coordinates assigned)
O=C([N-]CCN=c1nccc[n-]1)c1ccc(S(=O)(=O)N2CCCCC2)cc1 (nonaromatic ring conformer: 51.906425882766655 kcal/mol)

>  <smiles>  (75) 
O=C(NCCN=c1nccc[nH]1)c1ccc(S(=O)(=O)N2CCCCC2)cc1

>  <score_type>  (75) 
oracle

>  <origin>  (75) 
adg

>  <m_score__min__energy>  (75) 
-12.210000000000001

>  <m_primary>  (75) 
energy

$$$$
75:0
     RDKit          3D

 46 48  0  0  0  0  0  0  0  0999 V2000
   59.6460   35.8000   45.2630 C   0  0  0  0  0  0  0  0  0  0  0  0
   59.0540   34.5830   45.8100 N   0  0  0  0  0  0  0  0  0  0  0  0
   58.9880   34.2420   47.1190 C   0  0  0  0  0  0  0  0  0  0  0  0
   58.3770   32.9990   47.2580 C   0  0  0  0  0  0  0  0  0  0  0  0
   58.1710   32.2440   48.5360 C   0  0  0  0  0  0  0  0  0  0  0  0
   59.4490   32.2490   49.3760 C   0  0  0  0  0  0  0  0  0  0  0  0
   60.4330   31.2670   48.8190 C   0  0  0  0  0  0  0  0  0  0  0  0
   61.1040   30.5450   49.6030 O   0  0  0  0  0  0  0  0  0  0  0  0
   60.5640   31.1120   47.4000 N   0  0  0  0  0  0  0  0  0  0  0  0
   61.1370   29.9110   46.7990 C   0  0  0  0  0  0  0  0  0  0  0  0
   60.0690   28.8610   46.6580 C   0  0  0  0  0  0  0  0  0  0  0  0
   59.6030   28.1650   47.7850 C   0  0  0  0  0  0  0  0  0  0  0  0
   58.5660   27.2360   47.6610 C   0  0  0  0  0  0  0  0  0  0  0  0
   57.9810   26.9950   46.4100 C   0  0  0  0  0  0  0  0  0  0  0  0
   56.6630   25.8380   46.2560 S   0  0  0  0  0  0  0  0  0  0  0  0
   55.1730   26.6850   46.0390 N   0  0  0  0  0  0  0  0  0  0  0  0
   56.9070   24.9410   45.0760 O   0  0  0  0  0  0  0  0  0  0  0  0
   56.5800   24.9910   47.4960 O   0  0  0  0  0  0  0  0  0  0  0  0
   58.4300   27.7020   45.2880 C   0  0  0  0  0  0  0  0  0  0  0  0
   59.4670   28.6330   45.4120 C   0  0  0  0  0  0  0  0  0  0  0  0
   58.0880   32.5720   45.9740 C   0  0  0  0  0  0  0  0  0  0  0  0
   57.5120   31.3900   45.5070 C   0  0  0  0  0  0  0  0  0  0  0  0
   57.3550   31.2400   44.1160 C   0  0  0  0  0  0  0  0  0  0  0  0
   56.6370   29.7750   43.4730 Cl  0  0  0  0  0  0  0  0  0  0  0  0
   57.7770   32.2610   43.2350 C   0  0  0  0  0  0  0  0  0  0  0  0
   58.3650   33.4380   43.7350 C   0  0  0  0  0  0  0  0  0  0  0  0
   58.5060   33.5630   45.1200 C   0  0  0  0  0  0  0  0  0  0  0  0
   59.9647   36.4552   46.0871 H   0  0  0  0  0  0  0  0  0  0  0  0
   60.5174   35.5381   44.6448 H   0  0  0  0  0  0  0  0  0  0  0  0
   58.9020   36.3238   44.6448 H   0  0  0  0  0  0  0  0  0  0  0  0
   59.3624   34.8571   47.9505 H   0  0  0  0  0  0  0  0  0  0  0  0
   57.3600   32.7174   49.1089 H   0  0  0  0  0  0  0  0  0  0  0  0
   57.9092   31.2032   48.2948 H   0  0  0  0  0  0  0  0  0  0  0  0
   59.8911   33.2561   49.3603 H   0  0  0  0  0  0  0  0  0  0  0  0
   59.2022   31.9654   50.4098 H   0  0  0  0  0  0  0  0  0  0  0  0
   60.0720   31.7880   46.7720 H   0  0  0  0  0  0  0  0  0  0  0  0
   61.5434   30.1560   45.8066 H   0  0  0  0  0  0  0  0  0  0  0  0
   61.9436   29.5289   47.4420 H   0  0  0  0  0  0  0  0  0  0  0  0
   60.0560   28.3517   48.7698 H   0  0  0  0  0  0  0  0  0  0  0  0
   58.2079   26.6924   48.5477 H   0  0  0  0  0  0  0  0  0  0  0  0
   55.1940   27.0950   45.0790 H   0  0  0  0  0  0  0  0  0  0  0  0
   57.9662   27.5250   44.3064 H   0  0  0  0  0  0  0  0  0  0  0  0
   59.8119   29.1890   44.5277 H   0  0  0  0  0  0  0  0  0  0  0  0
   57.1910   30.6010   46.2031 H   0  0  0  0  0  0  0  0  0  0  0  0
   57.6450   32.1350   42.1502 H   0  0  0  0  0  0  0  0  0  0  0  0
   58.7032   34.2351   43.0566 H   0  0  0  0  0  0  0  0  0  0  0  0
  1  2  1  0
  2  3  1  0
  3  4  2  0
  4  5  1  0
  5  6  1  0
  6  7  1  0
  7  8  2  0
  7  9  1  0
  9 10  1  0
 10 11  1  0
 11 12  2  0
 12 13  1  0
 13 14  2  0
 14 15  1  0
 15 16  1  0
 15 17  2  0
 15 18  2  0
 14 19  1  0
 19 20  2  0
  4 21  1  0
 21 22  2  0
 22 23  1  0
 23 24  1  0
 23 25  2  0
 25 26  1  0
 26 27  2  0
 27  2  1  0
 20 11  1  0
 27 21  1  0
  1 28  1  0
  1 29  1  0
  1 30  1  0
  3 31  1  0
  5 32  1  0
  5 33  1  0
  6 34  1  0
  6 35  1  0
  9 36  1  0
 10 37  1  0
 10 38  1  0
 12 39  1  0
 13 40  1  0
 16 41  1  0
 19 42  1  0
 20 43  1  0
 22 44  1  0
 25 45  1  0
 26 46  1  0
M  CHG  1  16  -1
M  END
>  <UniqueID>  (76) 
73

>  <SMILES>  (76) 
Cn1cc(CCC(=O)NCc2ccc(S([NH-])(=O)=O)cc2)c2cc(Cl)ccc21

>  <Energy>  (76) 
73.01776375867954

>  <Genealogy>  (76) 
Cn1cc(CCC(=O)NCc2ccc(S([NH-])(=O)=O)cc2)c2cc(Cl)ccc21 (protonated)
Cn1cc(CCC(=O)NCc2ccc(S([NH-])(=O)=O)cc2)c2cc(Cl)ccc21 (3D coordinates assigned)
Cn1cc(CCC(=O)NCc2ccc(S([NH-])(=O)=O)cc2)c2cc(Cl)ccc21 (optimized conformer: 73.01776375867954 kcal/mol)

>  <smiles>  (76) 
Cn1cc(CCC(=O)NCc2ccc(S(N)(=O)=O)cc2)c2cc(Cl)ccc21

>  <score_type>  (76) 
oracle

>  <origin>  (76) 
adg

>  <m_score__min__energy>  (76) 
-11.859999999999999

>  <m_primary>  (76) 
energy

$$$$
76:0
     RDKit          3D

 40 42  0  0  0  0  0  0  0  0999 V2000
   57.8000   30.6400   46.6260 N   0  0  0  0  0  0  0  0  0  0  0  0
   57.9440   31.5110   45.4890 C   0  0  0  0  0  0  0  0  0  0  0  0
   57.4580   31.0890   44.2280 C   0  0  0  0  0  0  0  0  0  0  0  0
   56.6820   29.8360   44.0710 C   0  0  0  0  0  0  0  0  0  0  0  0
   56.4600   29.3710   42.9200 O   0  0  0  0  0  0  0  0  0  0  0  0
   56.2010   29.1420   45.2280 N   0  0  0  0  0  0  0  0  0  0  0  0
   56.6290   27.7980   45.5960 C   0  0  0  0  0  0  0  0  0  0  0  0
   57.9910   27.8450   46.2110 C   0  0  0  0  0  0  0  0  0  0  0  0
   59.1480   27.3320   45.6570 C   0  0  0  0  0  0  0  0  0  0  0  0
   60.1400   27.5780   46.5820 C   0  0  0  0  0  0  0  0  0  0  0  0
   59.5290   28.2220   47.6390 C   0  0  0  0  0  0  0  0  0  0  0  0
   58.2470   28.3650   47.3890 O   0  0  0  0  0  0  0  0  0  0  0  0
   57.6930   31.9100   43.1180 C   0  0  0  0  0  0  0  0  0  0  0  0
   57.2730   31.5830   41.9740 O   0  0  0  0  0  0  0  0  0  0  0  0
   58.3590   33.0800   43.2700 N   0  0  0  0  0  0  0  0  0  0  0  0
   58.8070   33.4910   44.4830 C   0  0  0  0  0  0  0  0  0  0  0  0
   59.4210   34.5910   44.5610 O   0  0  0  0  0  0  0  0  0  0  0  0
   58.6010   32.7180   45.6030 N   0  0  0  0  0  0  0  0  0  0  0  0
   59.1420   33.1670   46.9080 C   0  0  0  0  0  0  0  0  0  0  0  0
   60.6170   32.8690   47.0170 C   0  0  0  0  0  0  0  0  0  0  0  0
   61.5670   33.8660   46.7330 C   0  0  0  0  0  0  0  0  0  0  0  0
   62.9330   33.5930   46.8490 C   0  0  0  0  0  0  0  0  0  0  0  0
   63.3630   32.3280   47.2580 C   0  0  0  0  0  0  0  0  0  0  0  0
   62.4270   31.3350   47.5570 C   0  0  0  0  0  0  0  0  0  0  0  0
   61.0590   31.6050   47.4440 C   0  0  0  0  0  0  0  0  0  0  0  0
   58.5280   30.5590   47.3670 H   0  0  0  0  0  0  0  0  0  0  0  0
   56.9610   30.0300   46.7380 H   0  0  0  0  0  0  0  0  0  0  0  0
   55.9171   27.3744   46.3197 H   0  0  0  0  0  0  0  0  0  0  0  0
   56.6620   27.1700   44.6935 H   0  0  0  0  0  0  0  0  0  0  0  0
   59.2551   26.8324   44.6829 H   0  0  0  0  0  0  0  0  0  0  0  0
   61.2044   27.3142   46.4953 H   0  0  0  0  0  0  0  0  0  0  0  0
   60.0382   28.5637   48.5522 H   0  0  0  0  0  0  0  0  0  0  0  0
   58.5270   33.6840   42.4320 H   0  0  0  0  0  0  0  0  0  0  0  0
   58.9864   34.2514   47.0073 H   0  0  0  0  0  0  0  0  0  0  0  0
   58.6165   32.6257   47.7085 H   0  0  0  0  0  0  0  0  0  0  0  0
   61.2336   34.8658   46.4180 H   0  0  0  0  0  0  0  0  0  0  0  0
   63.6708   34.3755   46.6179 H   0  0  0  0  0  0  0  0  0  0  0  0
   64.4385   32.1140   47.3445 H   0  0  0  0  0  0  0  0  0  0  0  0
   62.7659   30.3401   47.8815 H   0  0  0  0  0  0  0  0  0  0  0  0
   60.3251   30.8236   47.6907 H   0  0  0  0  0  0  0  0  0  0  0  0
  1  2  1  0
  2  3  2  0
  3  4  1  0
  4  5  2  0
  4  6  1  0
  6  7  1  0
  7  8  1  0
  8  9  2  0
  9 10  1  0
 10 11  2  0
 11 12  1  0
  3 13  1  0
 13 14  2  0
 13 15  1  0
 15 16  1  0
 16 17  2  0
 16 18  1  0
 18 19  1  0
 19 20  1  0
 20 21  2  0
 21 22  1  0
 22 23  2  0
 23 24  1  0
 24 25  2  0
 18  2  1  0
 25 20  1  0
 12  8  1  0
  1 26  1  0
  1 27  1  0
  7 28  1  0
  7 29  1  0
  9 30  1  0
 10 31  1  0
 11 32  1  0
 15 33  1  0
 19 34  1  0
 19 35  1  0
 21 36  1  0
 22 37  1  0
 23 38  1  0
 24 39  1  0
 25 40  1  0
M  CHG  1   6  -1
M  END
>  <UniqueID>  (77) 
74

>  <SMILES>  (77) 
Nc1c(C(=O)[N-]Cc2ccco2)c(=O)[nH]c(=O)n1Cc1ccccc1

>  <Energy>  (77) 
78.61415910999456

>  <Genealogy>  (77) 
Nc1c(C(=O)[N-]Cc2ccco2)c(=O)[nH]c(=O)n1Cc1ccccc1 (protonated)
Nc1c(C(=O)[N-]Cc2ccco2)c(=O)[nH]c(=O)n1Cc1ccccc1 (3D coordinates assigned)
Nc1c(C(=O)[N-]Cc2ccco2)c(=O)[nH]c(=O)n1Cc1ccccc1 (optimized conformer: 78.61415910999456 kcal/mol)

>  <smiles>  (77) 
Nc1c(C(=O)NCc2ccco2)c(=O)[nH]c(=O)n1Cc1ccccc1

>  <score_type>  (77) 
oracle

>  <origin>  (77) 
adg

>  <m_score__min__energy>  (77) 
-9.6899999999999995

>  <m_primary>  (77) 
energy

$$$$
77:0
     RDKit          3D

 45 47  0  0  0  0  0  0  0  0999 V2000
   58.7220   29.9750   44.4990 O   0  0  0  0  0  0  0  0  0  0  0  0
   57.4900   30.2260   44.6020 C   0  0  0  0  0  0  0  0  0  0  0  0
   56.4930   29.2310   44.1090 C   0  0  0  0  0  0  0  0  0  0  0  0
   55.8380   28.5990   45.2460 N   0  0  0  0  0  0  0  0  0  0  0  0
   56.2730   27.3520   45.7980 C   0  0  0  0  0  0  0  0  0  0  0  0
   55.4330   26.4340   46.0040 O   0  0  0  0  0  0  0  0  0  0  0  0
   57.7030   27.1410   46.1270 C   0  0  0  0  0  0  0  0  0  0  0  0
   58.3640   25.9680   45.7210 C   0  0  0  0  0  0  0  0  0  0  0  0
   59.7120   25.7750   46.0300 C   0  0  0  0  0  0  0  0  0  0  0  0
   60.4120   26.7400   46.7570 C   0  0  0  0  0  0  0  0  0  0  0  0
   59.7720   27.9090   47.1810 C   0  0  0  0  0  0  0  0  0  0  0  0
   60.5240   28.8640   47.9420 N   0  0  0  0  0  0  0  0  0  0  0  0
   59.8600   30.2570   48.7340 S   0  0  0  0  0  0  0  0  0  0  0  0
   59.6370   29.9400   50.1860 O   0  0  0  0  0  0  0  0  0  0  0  0
   58.5420   30.6040   48.1030 O   0  0  0  0  0  0  0  0  0  0  0  0
   60.9560   31.6230   48.5480 C   0  0  0  0  0  0  0  0  0  0  0  0
   60.7290   32.7980   49.2780 C   0  0  0  0  0  0  0  0  0  0  0  0
   61.5770   33.8980   49.1190 C   0  0  0  0  0  0  0  0  0  0  0  0
   62.6520   33.8330   48.2290 C   0  0  0  0  0  0  0  0  0  0  0  0
   62.8850   32.6600   47.4940 C   0  0  0  0  0  0  0  0  0  0  0  0
   63.9490   32.5830   46.5990 O   0  0  0  0  0  0  0  0  0  0  0  0
   62.0390   31.5570   47.6580 C   0  0  0  0  0  0  0  0  0  0  0  0
   58.4180   28.1120   46.8530 C   0  0  0  0  0  0  0  0  0  0  0  0
   57.0220   31.4390   45.2140 N   0  0  0  0  0  0  0  0  0  0  0  0
   57.7330   32.4850   45.5230 C   0  0  0  0  0  0  0  0  0  0  0  0
   58.4940   33.1110   44.5270 C   0  0  0  0  0  0  0  0  0  0  0  0
   59.2570   34.2350   44.8500 C   0  0  0  0  0  0  0  0  0  0  0  0
   59.2570   34.7240   46.1580 C   0  0  0  0  0  0  0  0  0  0  0  0
   58.4890   34.0760   47.1280 C   0  0  0  0  0  0  0  0  0  0  0  0
   57.7520   32.9830   46.7930 N   0  0  0  0  0  0  0  0  0  0  0  0
   55.7410   29.7411   43.4891 H   0  0  0  0  0  0  0  0  0  0  0  0
   57.0045   28.4654   43.5072 H   0  0  0  0  0  0  0  0  0  0  0  0
   57.8163   25.1986   45.1571 H   0  0  0  0  0  0  0  0  0  0  0  0
   60.2243   24.8594   45.6995 H   0  0  0  0  0  0  0  0  0  0  0  0
   61.4733   26.5798   46.9977 H   0  0  0  0  0  0  0  0  0  0  0  0
   59.8819   32.8546   49.9774 H   0  0  0  0  0  0  0  0  0  0  0  0
   61.3974   34.8171   49.6961 H   0  0  0  0  0  0  0  0  0  0  0  0
   63.3159   34.7011   48.1042 H   0  0  0  0  0  0  0  0  0  0  0  0
   64.7830   32.0480   46.8100 H   0  0  0  0  0  0  0  0  0  0  0  0
   62.2237   30.6350   47.0872 H   0  0  0  0  0  0  0  0  0  0  0  0
   57.9142   29.0381   47.1670 H   0  0  0  0  0  0  0  0  0  0  0  0
   58.4904   32.7202   43.4988 H   0  0  0  0  0  0  0  0  0  0  0  0
   59.8572   34.7345   44.0752 H   0  0  0  0  0  0  0  0  0  0  0  0
   59.8548   35.6091   46.4213 H   0  0  0  0  0  0  0  0  0  0  0  0
   58.4802   34.4495   48.1626 H   0  0  0  0  0  0  0  0  0  0  0  0
  1  2  2  0
  2  3  1  0
  3  4  1  0
  4  5  1  0
  5  6  2  0
  5  7  1  0
  7  8  2  0
  8  9  1  0
  9 10  2  0
 10 11  1  0
 11 12  1  0
 12 13  1  0
 13 14  2  0
 13 15  2  0
 13 16  1  0
 16 17  2  0
 17 18  1  0
 18 19  2  0
 19 20  1  0
 20 21  1  0
 20 22  2  0
 11 23  2  0
  2 24  1  0
 24 25  2  3
 25 26  1  0
 26 27  2  0
 27 28  1  0
 28 29  2  0
 29 30  1  0
 23  7  1  0
 30 25  1  0
 22 16  1  0
  3 31  1  0
  3 32  1  0
  8 33  1  0
  9 34  1  0
 10 35  1  0
 17 36  1  0
 18 37  1  0
 19 38  1  0
 21 39  1  0
 22 40  1  0
 23 41  1  0
 26 42  1  0
 27 43  1  0
 28 44  1  0
 29 45  1  0
M  CHG  3   4  -1  12  -1  30  -1
M  END
>  <UniqueID>  (78) 
75

>  <SMILES>  (78) 
O=C(C[N-]C(=O)c1cccc([N-]S(=O)(=O)c2cccc(O)c2)c1)N=c1cccc[n-]1

>  <Energy>  (78) 
50.729541751998845

>  <Genealogy>  (78) 
O=C(C[N-]C(=O)c1cccc([N-]S(=O)(=O)c2cccc(O)c2)c1)N=c1cccc[n-]1 (protonated)
O=C(C[N-]C(=O)c1cccc([N-]S(=O)(=O)c2cccc(O)c2)c1)N=c1cccc[n-]1 (3D coordinates assigned)
O=C(C[N-]C(=O)c1cccc([N-]S(=O)(=O)c2cccc(O)c2)c1)N=c1cccc[n-]1 (optimized conformer: 50.729541751998845 kcal/mol)

>  <smiles>  (78) 
O=C(CNC(=O)c1cccc(NS(=O)(=O)c2cccc(O)c2)c1)N=c1cccc[nH]1

>  <score_type>  (78) 
oracle

>  <origin>  (78) 
adg

>  <m_score__min__energy>  (78) 
-13.5

>  <m_primary>  (78) 
energy

$$$$
78:0
     RDKit          3D

 46 48  0  0  0  0  0  0  0  0999 V2000
   57.2330   21.1490   43.0060 C   0  0  0  0  0  0  0  0  0  0  0  0
   56.9680   22.4190   43.7000 N   0  0  0  0  0  0  0  0  0  0  0  0
   55.7370   22.3210   44.5030 C   0  0  0  0  0  0  0  0  0  0  0  0
   55.3330   23.7220   44.9720 C   0  0  0  0  0  0  0  0  0  0  0  0
   56.5130   24.5110   45.3480 N   0  0  0  0  0  0  0  0  0  0  0  0
   56.3410   25.9010   45.6810 C   0  0  0  0  0  0  0  0  0  0  0  0
   55.2770   26.2810   46.2370 O   0  0  0  0  0  0  0  0  0  0  0  0
   57.3760   26.8980   45.3570 C   0  0  0  0  0  0  0  0  0  0  0  0
   57.1590   28.2230   45.0420 C   0  0  0  0  0  0  0  0  0  0  0  0
   58.4310   28.7120   44.8230 C   0  0  0  0  0  0  0  0  0  0  0  0
   58.7850   30.1320   44.5240 C   0  0  0  0  0  0  0  0  0  0  0  0
   57.3690   31.0040   43.8750 S   0  0  0  0  0  0  0  0  0  0  0  0
   56.9700   30.3780   42.5680 O   0  0  0  0  0  0  0  0  0  0  0  0
   56.2260   30.8940   44.8440 O   0  0  0  0  0  0  0  0  0  0  0  0
   57.7730   32.7230   43.6110 C   0  0  0  0  0  0  0  0  0  0  0  0
   58.2340   33.3550   44.8940 C   0  0  0  0  0  0  0  0  0  0  0  0
   57.7550   32.8850   46.1280 C   0  0  0  0  0  0  0  0  0  0  0  0
   58.2050   33.4600   47.3210 C   0  0  0  0  0  0  0  0  0  0  0  0
   59.1440   34.4950   47.2920 C   0  0  0  0  0  0  0  0  0  0  0  0
   59.6370   34.9550   46.0670 C   0  0  0  0  0  0  0  0  0  0  0  0
   59.1870   34.3860   44.8720 C   0  0  0  0  0  0  0  0  0  0  0  0
   59.3350   27.7290   45.0030 N   0  0  0  0  0  0  0  0  0  0  0  0
   58.6660   26.6560   45.3140 O   0  0  0  0  0  0  0  0  0  0  0  0
   57.7700   23.8130   45.6480 C   0  0  0  0  0  0  0  0  0  0  0  0
   58.1300   22.8090   44.5310 C   0  0  0  0  0  0  0  0  0  0  0  0
   57.3990   20.3536   43.7475 H   0  0  0  0  0  0  0  0  0  0  0  0
   56.3699   20.8885   42.3758 H   0  0  0  0  0  0  0  0  0  0  0  0
   58.1283   21.2554   42.3758 H   0  0  0  0  0  0  0  0  0  0  0  0
   54.9309   21.8906   43.8907 H   0  0  0  0  0  0  0  0  0  0  0  0
   55.9134   21.6743   45.3751 H   0  0  0  0  0  0  0  0  0  0  0  0
   54.8019   24.2351   44.1568 H   0  0  0  0  0  0  0  0  0  0  0  0
   54.6821   23.6228   45.8532 H   0  0  0  0  0  0  0  0  0  0  0  0
   56.2016   28.7612   44.9801 H   0  0  0  0  0  0  0  0  0  0  0  0
   59.1209   30.6240   45.4487 H   0  0  0  0  0  0  0  0  0  0  0  0
   59.5887   30.1485   43.7731 H   0  0  0  0  0  0  0  0  0  0  0  0
   58.5754   32.7960   42.8621 H   0  0  0  0  0  0  0  0  0  0  0  0
   56.8755   33.2503   43.2555 H   0  0  0  0  0  0  0  0  0  0  0  0
   57.0245   32.0631   46.1562 H   0  0  0  0  0  0  0  0  0  0  0  0
   57.8188   33.0967   48.2848 H   0  0  0  0  0  0  0  0  0  0  0  0
   59.4946   34.9470   48.2315 H   0  0  0  0  0  0  0  0  0  0  0  0
   60.3800   35.7658   46.0436 H   0  0  0  0  0  0  0  0  0  0  0  0
   59.5810   34.7474   43.9107 H   0  0  0  0  0  0  0  0  0  0  0  0
   58.5786   24.5531   45.7398 H   0  0  0  0  0  0  0  0  0  0  0  0
   57.6447   23.2577   46.5892 H   0  0  0  0  0  0  0  0  0  0  0  0
   58.8876   23.2683   43.8790 H   0  0  0  0  0  0  0  0  0  0  0  0
   58.5032   21.8968   45.0194 H   0  0  0  0  0  0  0  0  0  0  0  0
  1  2  1  0
  2  3  1  0
  3  4  1  0
  4  5  1  0
  5  6  1  0
  6  7  2  0
  6  8  1  0
  8  9  2  0
  9 10  1  0
 10 11  1  0
 11 12  1  0
 12 13  2  0
 12 14  2  0
 12 15  1  0
 15 16  1  0
 16 17  2  0
 17 18  1  0
 18 19  2  0
 19 20  1  0
 20 21  2  0
 10 22  2  0
 22 23  1  0
  5 24  1  0
 24 25  1  0
 25  2  1  0
 23  8  1  0
 21 16  1  0
  1 26  1  0
  1 27  1  0
  1 28  1  0
  3 29  1  0
  3 30  1  0
  4 31  1  0
  4 32  1  0
  9 33  1  0
 11 34  1  0
 11 35  1  0
 15 36  1  0
 15 37  1  0
 17 38  1  0
 18 39  1  0
 19 40  1  0
 20 41  1  0
 21 42  1  0
 24 43  1  0
 24 44  1  0
 25 45  1  0
 25 46  1  0
M  END
>  <UniqueID>  (79) 
76

>  <SMILES>  (79) 
CN1CCN(C(=O)c2cc(CS(=O)(=O)Cc3ccccc3)no2)CC1

>  <Energy>  (79) 
74.6604443243817

>  <Genealogy>  (79) 
CN1CCN(C(=O)c2cc(CS(=O)(=O)Cc3ccccc3)no2)CC1 (3D coordinates assigned)
CN1CCN(C(=O)c2cc(CS(=O)(=O)Cc3ccccc3)no2)CC1 (nonaromatic ring conformer: 74.6604443243817 kcal/mol)

>  <smiles>  (79) 
CN1CCN(C(=O)c2cc(CS(=O)(=O)Cc3ccccc3)no2)CC1

>  <score_type>  (79) 
oracle

>  <origin>  (79) 
adg

>  <m_score__min__energy>  (79) 
-9.1799999999999997

>  <m_primary>  (79) 
energy

$$$$
79:0
     RDKit          3D

 60 63  0  0  0  0  0  0  0  0999 V2000
   58.4070   24.4870   45.3100 H   0  0  0  0  0  0  0  0  0  0  0  0
   57.6700   24.2490   45.9640 O   0  0  0  0  0  0  0  0  0  0  0  0
   56.4100   24.8280   45.8560 C   0  0  0  0  0  0  0  0  0  0  0  0
   55.2850   24.1400   45.5940 N   0  0  0  0  0  0  0  0  0  0  0  0
   54.3380   25.1040   45.6460 C   0  0  0  0  0  0  0  0  0  0  0  0
   53.1170   24.8630   45.4600 O   0  0  0  0  0  0  0  0  0  0  0  0
   54.8000   26.3430   45.9300 N   0  0  0  0  0  0  0  0  0  0  0  0
   56.1300   26.1630   46.0200 C   0  0  0  0  0  0  0  0  0  0  0  0
   57.0490   27.1410   46.6100 C   0  0  0  0  0  0  0  0  0  0  0  0
   56.7910   27.5050   47.6155 H   0  0  0  0  0  0  0  0  0  0  0  0
   58.1860   27.6520   46.0580 C   0  0  0  0  0  0  0  0  0  0  0  0
   58.1690   28.6230   44.9920 C   0  0  0  0  0  0  0  0  0  0  0  0
   56.6990   29.4300   44.2980 S   0  0  0  0  0  0  0  0  0  0  0  0
   57.3080   31.1280   44.3330 C   0  0  0  0  0  0  0  0  0  0  0  0
   57.7780   31.7770   43.1790 C   0  0  0  0  0  0  0  0  0  0  0  0
   57.7598   31.2567   42.2100 H   0  0  0  0  0  0  0  0  0  0  0  0
   58.2690   33.0840   43.2610 C   0  0  0  0  0  0  0  0  0  0  0  0
   58.6222   33.5955   42.3534 H   0  0  0  0  0  0  0  0  0  0  0  0
   58.3120   33.7420   44.4940 C   0  0  0  0  0  0  0  0  0  0  0  0
   58.6938   34.7719   44.5537 H   0  0  0  0  0  0  0  0  0  0  0  0
   57.8690   33.0910   45.6550 C   0  0  0  0  0  0  0  0  0  0  0  0
   57.9730   33.7100   46.9440 N   0  0  0  0  0  0  0  0  0  0  0  0
   59.1490   33.7620   47.7620 C   0  0  0  0  0  0  0  0  0  0  0  0
   59.9920   34.6740   47.5420 O   0  0  0  0  0  0  0  0  0  0  0  0
   59.4870   32.6510   48.7320 C   0  0  0  0  0  0  0  0  0  0  0  0
   58.5908   32.4219   49.3273 H   0  0  0  0  0  0  0  0  0  0  0  0
   59.8196   31.7875   48.1372 H   0  0  0  0  0  0  0  0  0  0  0  0
   60.6320   33.0130   49.6920 C   0  0  0  0  0  0  0  0  0  0  0  0
   61.0573   33.9826   49.3936 H   0  0  0  0  0  0  0  0  0  0  0  0
   60.2267   33.0647   50.7133 H   0  0  0  0  0  0  0  0  0  0  0  0
   61.7020   31.9860   49.6630 N   0  0  0  0  0  0  0  0  0  0  0  0
   63.0550   32.5450   49.8940 C   0  0  0  0  0  0  0  0  0  0  0  0
   62.9726   33.3722   50.6144 H   0  0  0  0  0  0  0  0  0  0  0  0
   63.6851   31.7267   50.2725 H   0  0  0  0  0  0  0  0  0  0  0  0
   63.7240   33.0800   48.6070 C   0  0  0  0  0  0  0  0  0  0  0  0
   64.1672   34.0651   48.8148 H   0  0  0  0  0  0  0  0  0  0  0  0
   64.5001   32.3665   48.2930 H   0  0  0  0  0  0  0  0  0  0  0  0
   62.7420   33.2140   47.5180 N   0  0  0  0  0  0  0  0  0  0  0  0
   63.3700   33.8120   46.3290 C   0  0  0  0  0  0  0  0  0  0  0  0
   64.1333   34.5388   46.6439 H   0  0  0  0  0  0  0  0  0  0  0  0
   63.8424   33.0217   45.7272 H   0  0  0  0  0  0  0  0  0  0  0  0
   62.6037   34.3225   45.7272 H   0  0  0  0  0  0  0  0  0  0  0  0
   62.1660   31.8970   47.1840 C   0  0  0  0  0  0  0  0  0  0  0  0
   61.3164   32.0431   46.5007 H   0  0  0  0  0  0  0  0  0  0  0  0
   62.9529   31.2896   46.7130 H   0  0  0  0  0  0  0  0  0  0  0  0
   61.6710   31.1480   48.4460 C   0  0  0  0  0  0  0  0  0  0  0  0
   60.6361   30.8173   48.2742 H   0  0  0  0  0  0  0  0  0  0  0  0
   62.3504   30.2992   48.6131 H   0  0  0  0  0  0  0  0  0  0  0  0
   57.4090   31.7740   45.5720 C   0  0  0  0  0  0  0  0  0  0  0  0
   57.1231   31.2388   46.4895 H   0  0  0  0  0  0  0  0  0  0  0  0
   59.3700   29.1850   44.5350 C   0  0  0  0  0  0  0  0  0  0  0  0
   59.3400   29.9380   43.7337 H   0  0  0  0  0  0  0  0  0  0  0  0
   60.5930   28.8140   45.0690 C   0  0  0  0  0  0  0  0  0  0  0  0
   61.5197   29.2665   44.6864 H   0  0  0  0  0  0  0  0  0  0  0  0
   60.6500   27.8740   46.0840 C   0  0  0  0  0  0  0  0  0  0  0  0
   61.6262   27.5974   46.5088 H   0  0  0  0  0  0  0  0  0  0  0  0
   59.4800   27.2640   46.5840 C   0  0  0  0  0  0  0  0  0  0  0  0
   59.6670   26.3050   47.5180 C   0  0  0  0  0  0  0  0  0  0  0  0
   58.8010   25.7852   47.9536 H   0  0  0  0  0  0  0  0  0  0  0  0
   60.6852   26.0444   47.8425 H   0  0  0  0  0  0  0  0  0  0  0  0
  1  2  1  0
  2  3  1  0
  3  4  1  0
  4  5  1  0
  5  6  2  0
  5  7  1  0
  7  8  1  0
  8  9  1  0
  9 10  1  0
  9 11  2  0
 11 12  1  0
 12 13  1  0
 13 14  1  0
 14 15  2  0
 15 16  1  0
 15 17  1  0
 17 18  1  0
 17 19  2  0
 19 20  1  0
 19 21  1  0
 21 22  1  0
 22 23  1  0
 23 24  2  0
 23 25  1  0
 25 26  1  0
 25 27  1  0
 25 28  1  0
 28 29  1  0
 28 30  1  0
 28 31  1  0
 31 32  1  0
 32 33  1  0
 32 34  1  0
 32 35  1  0
 35 36  1  0
 35 37  1  0
 35 38  1  0
 38 39  1  0
 39 40  1  0
 39 41  1  0
 39 42  1  0
 38 43  1  0
 43 44  1  0
 43 45  1  0
 43 46  1  0
 46 47  1  0
 46 48  1  0
 21 49  2  0
 49 50  1  0
 12 51  2  0
 51 52  1  0
 51 53  1  0
 53 54  1  0
 53 55  2  0
 55 56  1  0
 55 57  1  0
 57 58  2  0
 58 59  1  0
 58 60  1  0
  8  3  2  0
 57 11  1  0
 49 14  1  0
 46 31  1  0
M  CHG  3   4  -1   7  -1  22  -1
M  END
>  <UniqueID>  (80) 
77

>  <SMILES>  (80) 
C=c1cccc(Sc2cccc([N-]C(=O)CCN3CCN(C)CC3)c2)/c1=C\c1[n-]c(=O)[n-]c1O

>  <Energy>  (80) 
137.60948083440607

>  <Genealogy>  (80) 
C=c1cccc(Sc2cccc([N-]C(=O)CCN3CCN(C)CC3)c2)c1=Cc1[n-]c(=O)[n-]c1O (protonated)
C=c1cccc(Sc2cccc([N-]C(=O)CCN3CCN(C)CC3)c2)/c1=C\c1[n-]c(=O)[n-]c1O (cis-trans isomerization)
C=c1cccc(Sc2cccc([N-]C(=O)CCN3CCN(C)CC3)c2)/c1=C\c1[n-]c(=O)[n-]c1O (3D coordinates assigned)
C=c1cccc(Sc2cccc([N-]C(=O)CCN3CCN(C)CC3)c2)/c1=C\c1[n-]c(=O)[n-]c1O (nonaromatic ring conformer: 137.60948083440607 kcal/mol)

>  <smiles>  (80) 
C=c1cccc(Sc2cccc(NC(=O)CCN3CCN(C)CC3)c2)c1=Cc1[nH]c(=O)[nH]c1O

>  <score_type>  (80) 
oracle

>  <origin>  (80) 
adg

>  <m_score__min__energy>  (80) 
-16.129999999999999

>  <m_primary>  (80) 
energy

$$$$
80:0
     RDKit          3D

 32 34  0  0  0  0  0  0  0  0999 V2000
   61.2534   25.7203   46.0624 H   0  0  0  0  0  0  0  0  0  0  0  0
   60.2340   26.0770   46.2710 C   0  0  0  0  0  0  0  0  0  0  0  0
   59.1430   25.2320   46.0590 C   0  0  0  0  0  0  0  0  0  0  0  0
   59.3039   24.2081   45.6905 H   0  0  0  0  0  0  0  0  0  0  0  0
   57.8460   25.6870   46.3150 C   0  0  0  0  0  0  0  0  0  0  0  0
   56.7860   24.8720   46.0950 F   0  0  0  0  0  0  0  0  0  0  0  0
   57.6420   26.9860   46.7930 C   0  0  0  0  0  0  0  0  0  0  0  0
   56.6190   27.3463   46.9761 H   0  0  0  0  0  0  0  0  0  0  0  0
   58.7320   27.8310   47.0400 C   0  0  0  0  0  0  0  0  0  0  0  0
   58.4760   29.1700   47.4950 N   0  0  0  0  0  0  0  0  0  0  0  0
   58.4570   30.2570   46.7760 C   0  0  0  0  0  0  0  0  0  0  0  0
   59.1790   31.3450   47.1680 N   0  0  0  0  0  0  0  0  0  0  0  0
   59.1100   32.5300   46.5130 C   0  0  0  0  0  0  0  0  0  0  0  0
   59.8700   33.6260   46.9380 C   0  0  0  0  0  0  0  0  0  0  0  0
   60.5424   33.5294   47.8032 H   0  0  0  0  0  0  0  0  0  0  0  0
   59.7710   34.8450   46.2580 C   0  0  0  0  0  0  0  0  0  0  0  0
   60.3687   35.7076   46.5877 H   0  0  0  0  0  0  0  0  0  0  0  0
   58.9120   34.9690   45.1580 C   0  0  0  0  0  0  0  0  0  0  0  0
   58.8366   35.9291   44.6264 H   0  0  0  0  0  0  0  0  0  0  0  0
   58.1500   33.8750   44.7340 C   0  0  0  0  0  0  0  0  0  0  0  0
   57.4747   33.9738   43.8714 H   0  0  0  0  0  0  0  0  0  0  0  0
   58.2500   32.6550   45.4110 C   0  0  0  0  0  0  0  0  0  0  0  0
   57.5240   31.5790   45.0130 N   0  0  0  0  0  0  0  0  0  0  0  0
   57.6080   30.3730   45.6370 C   0  0  0  0  0  0  0  0  0  0  0  0
   56.8770   29.3990   45.1620 N   0  0  0  0  0  0  0  0  0  0  0  0
   56.0150   29.3920   44.0150 C   0  0  0  0  0  0  0  0  0  0  0  0
   54.7690   29.3260   44.1810 O   0  0  0  0  0  0  0  0  0  0  0  0
   56.5450   29.5730   42.7020 N   0  0  0  0  0  0  0  0  0  0  0  0
   57.5660   29.7410   42.5600 H   0  0  0  0  0  0  0  0  0  0  0  0
   55.9120   29.5720   41.8720 H   0  0  0  0  0  0  0  0  0  0  0  0
   60.0330   27.3760   46.7480 C   0  0  0  0  0  0  0  0  0  0  0  0
   60.8936   28.0449   46.8958 H   0  0  0  0  0  0  0  0  0  0  0  0
  1  2  1  0
  2  3  2  0
  3  4  1  0
  3  5  1  0
  5  6  1  0
  5  7  2  0
  7  8  1  0
  7  9  1  0
  9 10  1  0
 10 11  2  0
 11 12  1  0
 12 13  1  0
 13 14  2  0
 14 15  1  0
 14 16  1  0
 16 17  1  0
 16 18  2  0
 18 19  1  0
 18 20  1  0
 20 21  1  0
 20 22  2  0
 22 23  1  0
 23 24  1  0
 24 25  2  3
 25 26  1  0
 26 27  2  0
 26 28  1  0
 28 29  1  0
 28 30  1  0
  9 31  2  0
 31 32  1  0
 31  2  1  0
 24 11  1  0
 22 13  1  0
M  CHG  2  12  -1  23  -1
M  END
>  <UniqueID>  (81) 
78

>  <SMILES>  (81) 
NC(=O)N=c1[n-]c2ccccc2[n-]/c1=N\c1cccc(F)c1

>  <Energy>  (81) 
56.31093534970204

>  <Genealogy>  (81) 
NC(=O)N=c1[n-]c2ccccc2[n-]c1=Nc1cccc(F)c1 (protonated)
NC(=O)N=c1[n-]c2ccccc2[n-]/c1=N\c1cccc(F)c1 (cis-trans isomerization)
NC(=O)N=c1[n-]c2ccccc2[n-]/c1=N\c1cccc(F)c1 (3D coordinates assigned)
NC(=O)N=c1[n-]c2ccccc2[n-]/c1=N\c1cccc(F)c1 (optimized conformer: 56.31093534970204 kcal/mol)

>  <smiles>  (81) 
NC(=O)N=c1[nH]c2ccccc2[nH]c1=Nc1cccc(F)c1

>  <score_type>  (81) 
oracle

>  <origin>  (81) 
adg

>  <m_score__min__energy>  (81) 
-9.9600000000000009

>  <m_primary>  (81) 
energy

$$$$
81:0
     RDKit          3D

 66 70  0  0  0  0  0  0  0  0999 V2000
   58.1519   35.0807   53.1965 H   0  0  0  0  0  0  0  0  0  0  0  0
   58.7940   34.2880   52.7850 C   0  0  0  0  0  0  0  0  0  0  0  0
   58.9120   34.1400   51.4410 N   0  0  0  0  0  0  0  0  0  0  0  0
   59.6850   33.1660   50.8780 C   0  0  0  0  0  0  0  0  0  0  0  0
   59.7840   33.0630   49.5830 N   0  0  0  0  0  0  0  0  0  0  0  0
   60.9910   33.0420   48.8020 C   0  0  0  0  0  0  0  0  0  0  0  0
   61.2510   32.0330   47.8550 C   0  0  0  0  0  0  0  0  0  0  0  0
   60.5046   31.2456   47.6736 H   0  0  0  0  0  0  0  0  0  0  0  0
   62.4560   32.0290   47.1440 C   0  0  0  0  0  0  0  0  0  0  0  0
   62.6483   31.2481   46.3935 H   0  0  0  0  0  0  0  0  0  0  0  0
   63.4160   33.0160   47.3860 C   0  0  0  0  0  0  0  0  0  0  0  0
   64.3593   33.0165   46.8202 H   0  0  0  0  0  0  0  0  0  0  0  0
   63.1770   34.0010   48.3460 C   0  0  0  0  0  0  0  0  0  0  0  0
   63.9355   34.7733   48.5412 H   0  0  0  0  0  0  0  0  0  0  0  0
   61.9740   34.0070   49.0600 C   0  0  0  0  0  0  0  0  0  0  0  0
   61.7985   34.7740   49.8288 H   0  0  0  0  0  0  0  0  0  0  0  0
   60.4070   32.2840   51.7150 C   0  0  0  0  0  0  0  0  0  0  0  0
   61.2930   31.2280   51.1610 C   0  0  0  0  0  0  0  0  0  0  0  0
   62.5410   31.4020   51.1850 O   0  0  0  0  0  0  0  0  0  0  0  0
   60.7610   30.0020   50.6220 N   0  0  0  0  0  0  0  0  0  0  0  0
   61.5470   28.7670   50.7680 C   0  0  0  0  0  0  0  0  0  0  0  0
   62.4746   28.8632   50.1846 H   0  0  0  0  0  0  0  0  0  0  0  0
   61.7676   28.6240   51.8361 H   0  0  0  0  0  0  0  0  0  0  0  0
   60.7720   27.5430   50.2710 C   0  0  0  0  0  0  0  0  0  0  0  0
   61.4384   26.6679   50.2628 H   0  0  0  0  0  0  0  0  0  0  0  0
   59.9210   27.3559   50.9424 H   0  0  0  0  0  0  0  0  0  0  0  0
   60.2460   27.7990   48.8430 C   0  0  0  0  0  0  0  0  0  0  0  0
   61.1638   27.9009   48.2454 H   0  0  0  0  0  0  0  0  0  0  0  0
   59.5080   26.6660   48.2560 N   0  0  0  0  0  0  0  0  0  0  0  0
   59.6910   26.4310   46.5340 S   0  0  0  0  0  0  0  0  0  0  0  0
   59.0950   25.1070   46.1450 O   0  0  0  0  0  0  0  0  0  0  0  0
   61.1580   26.3920   46.2140 O   0  0  0  0  0  0  0  0  0  0  0  0
   58.9630   27.7060   45.5680 C   0  0  0  0  0  0  0  0  0  0  0  0
   58.5370   28.9330   46.0320 C   0  0  0  0  0  0  0  0  0  0  0  0
   58.5487   29.2905   47.0722 H   0  0  0  0  0  0  0  0  0  0  0  0
   58.0910   29.6220   44.9150 C   0  0  0  0  0  0  0  0  0  0  0  0
   57.5390   30.9930   44.8950 C   0  0  0  0  0  0  0  0  0  0  0  0
   56.3520   31.1570   44.4970 O   0  0  0  0  0  0  0  0  0  0  0  0
   58.3630   32.1350   45.2440 N   0  0  0  0  0  0  0  0  0  0  0  0
   59.3740   31.8630   45.2090 H   0  0  0  0  0  0  0  0  0  0  0  0
   58.1390   33.2570   44.3280 C   0  0  0  0  0  0  0  0  0  0  0  0
   58.7795   33.1541   43.4396 H   0  0  0  0  0  0  0  0  0  0  0  0
   57.0937   33.2848   43.9865 H   0  0  0  0  0  0  0  0  0  0  0  0
   58.4990   34.5270   45.0900 C   0  0  0  0  0  0  0  0  0  0  0  0
   59.4879   34.8944   44.7785 H   0  0  0  0  0  0  0  0  0  0  0  0
   57.7795   35.3360   44.8957 H   0  0  0  0  0  0  0  0  0  0  0  0
   58.5180   34.1310   46.5600 C   0  0  0  0  0  0  0  0  0  0  0  0
   59.5282   34.2516   46.9784 H   0  0  0  0  0  0  0  0  0  0  0  0
   57.8463   34.7601   47.1626 H   0  0  0  0  0  0  0  0  0  0  0  0
   58.1010   32.6680   46.5880 C   0  0  0  0  0  0  0  0  0  0  0  0
   58.6909   32.1187   47.3365 H   0  0  0  0  0  0  0  0  0  0  0  0
   57.0403   32.5613   46.8590 H   0  0  0  0  0  0  0  0  0  0  0  0
   58.2560   28.8700   43.8080 N   0  0  0  0  0  0  0  0  0  0  0  0
   58.0200   29.1370   42.8260 H   0  0  0  0  0  0  0  0  0  0  0  0
   58.7950   27.7010   44.1990 C   0  0  0  0  0  0  0  0  0  0  0  0
   59.0608   26.8693   43.5299 H   0  0  0  0  0  0  0  0  0  0  0  0
   59.4740   29.1340   48.6900 C   0  0  0  0  0  0  0  0  0  0  0  0
   59.9585   29.7277   47.9008 H   0  0  0  0  0  0  0  0  0  0  0  0
   58.4333   28.8788   48.4413 H   0  0  0  0  0  0  0  0  0  0  0  0
   59.4380   29.9720   49.9750 C   0  0  0  0  0  0  0  0  0  0  0  0
   59.1358   30.9999   49.7259 H   0  0  0  0  0  0  0  0  0  0  0  0
   58.7176   29.5168   50.6706 H   0  0  0  0  0  0  0  0  0  0  0  0
   60.2980   32.4380   53.1070 C   0  0  0  0  0  0  0  0  0  0  0  0
   60.8563   31.7676   53.7769 H   0  0  0  0  0  0  0  0  0  0  0  0
   59.4860   33.4360   53.6440 C   0  0  0  0  0  0  0  0  0  0  0  0
   59.3925   33.5498   54.7341 H   0  0  0  0  0  0  0  0  0  0  0  0
  1  2  1  0
  2  3  1  0
  3  4  1  0
  4  5  2  0
  5  6  1  0
  6  7  2  0
  7  8  1  0
  7  9  1  0
  9 10  1  0
  9 11  2  0
 11 12  1  0
 11 13  1  0
 13 14  1  0
 13 15  2  0
 15 16  1  0
  4 17  1  0
 17 18  1  0
 18 19  2  0
 18 20  1  0
 20 21  1  0
 21 22  1  0
 21 23  1  0
 21 24  1  0
 24 25  1  0
 24 26  1  0
 24 27  1  0
 27 28  1  0
 27 29  1  0
 29 30  1  0
 30 31  2  0
 30 32  2  0
 30 33  1  0
 33 34  1  0
 34 35  1  0
 34 36  2  0
 36 37  1  0
 37 38  2  0
 37 39  1  0
 39 40  1  0
 39 41  1  0
 41 42  1  0
 41 43  1  0
 41 44  1  0
 44 45  1  0
 44 46  1  0
 44 47  1  0
 47 48  1  0
 47 49  1  0
 47 50  1  0
 50 51  1  0
 50 52  1  0
 36 53  1  0
 53 54  1  0
 53 55  1  0
 55 56  1  0
 27 57  1  0
 57 58  1  0
 57 59  1  0
 57 60  1  0
 60 61  1  0
 60 62  1  0
 17 63  2  0
 63 64  1  0
 63 65  1  0
 65 66  1  0
 65  2  2  0
 15  6  1  0
 60 20  1  0
 55 33  2  0
 50 39  1  0
M  CHG  3   3  -1  29  -1  39   1
M  END
>  <UniqueID>  (82) 
79

>  <SMILES>  (82) 
O=C(c1ccc[n-]/c1=N\c1ccccc1)N1CCC([N-]S(=O)(=O)c2c[nH]c(C(=O)[NH+]3CCCC3)c2)CC1

>  <Energy>  (82) 
119.36158742960552

>  <Genealogy>  (82) 
O=C(c1ccc[n-]c1=Nc1ccccc1)N1CCC([N-]S(=O)(=O)c2c[nH]c(C(=O)[NH+]3CCCC3)c2)CC1 (protonated)
O=C(c1ccc[n-]/c1=N\c1ccccc1)N1CCC([N-]S(=O)(=O)c2c[nH]c(C(=O)[NH+]3CCCC3)c2)CC1 (cis-trans isomerization)
O=C(c1ccc[n-]/c1=N\c1ccccc1)N1CCC([N-]S(=O)(=O)c2c[nH]c(C(=O)[NH+]3CCCC3)c2)CC1 (3D coordinates assigned)
O=C(c1ccc[n-]/c1=N\c1ccccc1)N1CCC([N-]S(=O)(=O)c2c[nH]c(C(=O)[NH+]3CCCC3)c2)CC1 (nonaromatic ring conformer: 119.36158742960552 kcal/mol)

>  <smiles>  (82) 
O=C(c1cc(S(=O)(=O)NC2CCN(C(=O)c3ccc[nH]c3=Nc3ccccc3)CC2)c[nH]1)N1CCCC1

>  <score_type>  (82) 
oracle

>  <origin>  (82) 
adg

>  <m_score__min__energy>  (82) 
-12.300000000000001

>  <m_primary>  (82) 
energy

$$$$
82:0
     RDKit          3D

 70 74  0  0  1  0  0  0  0  0999 V2000
   67.7470   33.0620   50.8420 C   0  0  0  0  0  0  0  0  0  0  0  0
   66.8240   34.1850   51.3130 C   0  0  0  0  0  0  0  0  0  0  0  0
   65.5590   33.6010   51.5230 O   0  0  0  0  0  0  0  0  0  0  0  0
   64.5950   33.5300   50.5330 C   0  0  0  0  0  0  0  0  0  0  0  0
   63.4080   34.2180   50.6930 C   0  0  0  0  0  0  0  0  0  0  0  0
   62.4280   34.1690   49.7270 C   0  0  0  0  0  0  0  0  0  0  0  0
   62.5720   33.4510   48.5740 C   0  0  0  0  0  0  0  0  0  0  0  0
   61.5600   33.3720   47.5250 C   0  0  0  0  0  0  0  0  0  0  0  0
   61.8780   33.4870   46.2980 O   0  0  0  0  0  0  0  0  0  0  0  0
   60.1960   33.1680   47.8080 N   0  0  0  0  0  0  0  0  0  0  0  0
   59.1790   33.0860   46.8090 C   0  0  0  0  0  0  0  0  0  0  0  0
   58.5660   34.2240   46.3190 C   0  0  0  0  0  0  0  0  0  0  0  0
   57.5780   34.1840   45.3540 C   0  0  0  0  0  0  0  0  0  0  0  0
   57.1930   32.9580   44.8620 C   0  0  0  0  0  0  0  0  0  0  0  0
   57.7730   31.7850   45.3170 C   0  0  0  0  0  0  0  0  0  0  0  0
   57.3190   30.4940   44.7520 C   0  0  0  0  0  0  0  0  0  0  0  0
   58.2730   29.4320   45.0150 N   0  0  0  0  0  0  0  0  0  0  0  0
   59.7150   29.4820   44.8520 C   0  0  0  0  0  0  0  0  0  0  0  0
   60.2520   28.4200   45.8130 C   0  0  0  0  0  0  0  0  0  0  0  0
   59.1100   27.5040   45.9640 C   0  0  0  0  0  0  0  0  0  0  0  0
   58.9310   26.2060   46.4570 C   0  0  0  0  0  0  0  0  0  0  0  0
   57.7180   25.6380   46.4520 N   0  0  0  0  0  0  0  0  0  0  0  0
   56.6280   26.2640   45.9850 C   0  0  0  0  0  0  0  0  0  0  0  0
   55.5190   25.6550   46.0160 N   0  0  0  0  0  0  0  0  0  0  0  0
   55.2590   24.2900   45.6150 C   0  0  0  0  0  0  0  0  0  0  0  0
   55.5890   23.9150   44.2290 C   0  0  0  0  0  0  0  0  0  0  0  0
   56.2140   22.5580   44.0490 C   0  0  0  0  0  0  0  0  0  0  0  0
   55.9660   21.6060   45.0580 N   0  0  0  0  0  0  0  0  0  0  0  0
   55.8970   20.2370   44.6050 C   0  0  0  0  0  0  0  0  0  0  0  0
   54.9880   21.9400   46.0340 C   0  0  0  0  0  0  0  0  0  0  0  0
   55.4550   23.2580   46.6700 C   0  0  0  0  0  0  0  0  0  0  0  0
   56.7600   27.5150   45.5010 N   0  0  0  0  0  0  0  0  0  0  0  0
   57.9640   28.1170   45.4910 C   0  0  0  0  0  0  0  0  0  0  0  0
   58.7620   31.8780   46.2880 C   0  0  0  0  0  0  0  0  0  0  0  0
   63.7600   32.7570   48.4020 C   0  0  0  0  0  0  0  0  0  0  0  0
   64.7610   32.7940   49.3680 C   0  0  0  0  0  0  0  0  0  0  0  0
   68.1715   32.5456   51.7156 H   0  0  0  0  0  0  0  0  0  0  0  0
   67.1731   32.3457   50.2357 H   0  0  0  0  0  0  0  0  0  0  0  0
   68.5609   33.4863   50.2357 H   0  0  0  0  0  0  0  0  0  0  0  0
   67.2021   34.6200   52.2499 H   0  0  0  0  0  0  0  0  0  0  0  0
   66.7704   34.9941   50.5698 H   0  0  0  0  0  0  0  0  0  0  0  0
   63.2435   34.8126   51.6037 H   0  0  0  0  0  0  0  0  0  0  0  0
   61.4950   34.7285   49.8898 H   0  0  0  0  0  0  0  0  0  0  0  0
   59.8540   33.0630   48.8020 H   0  0  0  0  0  0  0  0  0  0  0  0
   58.8778   35.2022   46.7138 H   0  0  0  0  0  0  0  0  0  0  0  0
   57.1105   35.1099   44.9879 H   0  0  0  0  0  0  0  0  0  0  0  0
   56.4090   32.9083   44.0920 H   0  0  0  0  0  0  0  0  0  0  0  0
   56.3527   30.2262   45.2043 H   0  0  0  0  0  0  0  0  0  0  0  0
   57.2235   30.6093   43.6622 H   0  0  0  0  0  0  0  0  0  0  0  0
   59.9966   29.2449   43.8154 H   0  0  0  0  0  0  0  0  0  0  0  0
   60.1234   30.4808   45.0655 H   0  0  0  0  0  0  0  0  0  0  0  0
   61.1213   27.9009   45.3831 H   0  0  0  0  0  0  0  0  0  0  0  0
   60.6030   28.8371   46.7684 H   0  0  0  0  0  0  0  0  0  0  0  0
   59.7932   25.6483   46.8515 H   0  0  0  0  0  0  0  0  0  0  0  0
   57.6210   24.6920   46.8190 H   0  0  0  0  0  0  0  0  0  0  0  0
   54.1629   24.2980   45.5226 H   0  0  0  0  0  0  0  0  0  0  0  0
   54.6588   23.9387   43.6423 H   0  0  0  0  0  0  0  0  0  0  0  0
   56.3466   24.6395   43.8957 H   0  0  0  0  0  0  0  0  0  0  0  0
   55.8414   22.1430   43.1009 H   0  0  0  0  0  0  0  0  0  0  0  0
   57.2993   22.7343   44.0797 H   0  0  0  0  0  0  0  0  0  0  0  0
   55.8631   19.5643   45.4747 H   0  0  0  0  0  0  0  0  0  0  0  0
   54.9907   20.0970   43.9976 H   0  0  0  0  0  0  0  0  0  0  0  0
   56.7847   20.0066   43.9976 H   0  0  0  0  0  0  0  0  0  0  0  0
   54.0045   22.0723   45.5594 H   0  0  0  0  0  0  0  0  0  0  0  0
   54.8833   21.1450   46.7870 H   0  0  0  0  0  0  0  0  0  0  0  0
   54.8499   23.4939   47.5578 H   0  0  0  0  0  0  0  0  0  0  0  0
   56.5014   23.2053   47.0050 H   0  0  0  0  0  0  0  0  0  0  0  0
   59.2308   30.9533   46.6557 H   0  0  0  0  0  0  0  0  0  0  0  0
   63.9138   32.1671   47.4864 H   0  0  0  0  0  0  0  0  0  0  0  0
   65.6939   32.2339   49.2066 H   0  0  0  0  0  0  0  0  0  0  0  0
  1  2  1  0
  2  3  1  0
  3  4  1  0
  4  5  2  0
  5  6  1  0
  6  7  2  0
  7  8  1  0
  8  9  2  0
  8 10  1  0
 10 11  1  0
 11 12  2  0
 12 13  1  0
 13 14  2  0
 14 15  1  0
 15 16  1  0
 16 17  1  0
 17 18  1  0
 18 19  1  0
 19 20  1  0
 20 21  2  0
 21 22  1  0
 22 23  1  0
 23 24  2  0
 24 25  1  0
 25 26  1  0
 26 27  1  0
 27 28  1  0
 28 29  1  0
 28 30  1  0
 30 31  1  0
 23 32  1  0
 32 33  2  0
 15 34  2  0
  7 35  1  0
 35 36  2  0
 36  4  1  0
 34 11  1  0
 33 17  1  0
 33 20  1  0
 31 25  1  0
  1 37  1  0
  1 38  1  0
  1 39  1  0
  2 40  1  0
  2 41  1  0
  5 42  1  0
  6 43  1  0
 10 44  1  0
 12 45  1  0
 13 46  1  0
 14 47  1  0
 16 48  1  0
 16 49  1  0
 18 50  1  0
 18 51  1  0
 19 52  1  0
 19 53  1  0
 21 54  1  0
 22 55  1  0
 25 56  1  0
 26 57  1  0
 26 58  1  0
 27 59  1  0
 27 60  1  0
 29 61  1  0
 29 62  1  0
 29 63  1  0
 30 64  1  0
 30 65  1  0
 31 66  1  0
 31 67  1  0
 34 68  1  0
 35 69  1  0
 36 70  1  0
M  END
>  <smiles>  (83) 
CCOc1ccc(C(=O)Nc2cccc(CN3CCc4c[nH]c(=NC5CCN(C)CC5)nc43)c2)cc1

>  <score_type>  (83) 
oracle

>  <origin>  (83) 
adg

>  <m_score__min__energy>  (83) 
-9.5099999999999998

>  <m_primary>  (83) 
energy

$$$$
83:0
     RDKit          3D

 36 37  0  0  0  0  0  0  0  0999 V2000
   60.4410   32.0220   53.5770 H   0  0  0  0  0  0  0  0  0  0  0  0
   60.6460   32.8230   53.0290 O   0  0  0  0  0  0  0  0  0  0  0  0
   60.1640   32.5500   51.7400 C   0  0  0  0  0  0  0  0  0  0  0  0
   60.6354   31.6283   51.3682 H   0  0  0  0  0  0  0  0  0  0  0  0
   60.4101   33.4011   51.0880 H   0  0  0  0  0  0  0  0  0  0  0  0
   58.6230   32.3640   51.7460 C   0  0  0  0  0  0  0  0  0  0  0  0
   58.1780   31.1320   52.5310 C   0  0  0  0  0  0  0  0  0  0  0  0
   59.0410   30.4500   53.1500 O   0  0  0  0  0  0  0  0  0  0  0  0
   56.7830   30.6620   52.5620 C   0  0  0  0  0  0  0  0  0  0  0  0
   55.6710   31.4420   52.3090 C   0  0  0  0  0  0  0  0  0  0  0  0
   55.6574   32.5125   52.0564 H   0  0  0  0  0  0  0  0  0  0  0  0
   54.5760   30.6020   52.4380 C   0  0  0  0  0  0  0  0  0  0  0  0
   53.3030   31.0020   52.3030 C   0  0  0  0  0  0  0  0  0  0  0  0
   52.8431   31.5453   53.1416 H   0  0  0  0  0  0  0  0  0  0  0  0
   52.4800   30.7610   51.1040 C   0  0  0  0  0  0  0  0  0  0  0  0
   51.4830   31.5830   50.6290 C   0  0  0  0  0  0  0  0  0  0  0  0
   51.0180   32.7340   51.2510 O   0  0  0  0  0  0  0  0  0  0  0  0
   51.0070   31.1230   49.4570 N   0  0  0  0  0  0  0  0  0  0  0  0
   51.7600   30.0220   49.2410 C   0  0  0  0  0  0  0  0  0  0  0  0
   51.6360   29.3010   48.2170 O   0  0  0  0  0  0  0  0  0  0  0  0
   52.6660   29.7760   50.2070 N   0  0  0  0  0  0  0  0  0  0  0  0
   53.3900   29.0240   50.2140 H   0  0  0  0  0  0  0  0  0  0  0  0
   54.9760   29.3520   52.7650 N   0  0  0  0  0  0  0  0  0  0  0  0
   54.3760   28.5250   52.9790 H   0  0  0  0  0  0  0  0  0  0  0  0
   56.3220   29.3840   52.8320 C   0  0  0  0  0  0  0  0  0  0  0  0
   57.0720   28.3200   53.1240 C   0  0  0  0  0  0  0  0  0  0  0  0
   58.1674   28.4131   53.1627 H   0  0  0  0  0  0  0  0  0  0  0  0
   56.5950   27.3496   53.3260 H   0  0  0  0  0  0  0  0  0  0  0  0
   58.1490   32.2170   50.2850 C   0  0  0  0  0  0  0  0  0  0  0  0
   57.0984   31.8912   50.2714 H   0  0  0  0  0  0  0  0  0  0  0  0
   58.2393   33.1853   49.7710 H   0  0  0  0  0  0  0  0  0  0  0  0
   58.7714   31.4697   49.7710 H   0  0  0  0  0  0  0  0  0  0  0  0
   57.9590   33.6120   52.3640 C   0  0  0  0  0  0  0  0  0  0  0  0
   57.9963   33.5419   53.4611 H   0  0  0  0  0  0  0  0  0  0  0  0
   58.4965   34.5138   52.0357 H   0  0  0  0  0  0  0  0  0  0  0  0
   56.9107   33.6701   52.0357 H   0  0  0  0  0  0  0  0  0  0  0  0
  1  2  1  0
  2  3  1  0
  3  4  1  0
  3  5  1  0
  3  6  1  0
  6  7  1  0
  7  8  2  0
  7  9  1  0
  9 10  2  0
 10 11  1  0
 10 12  1  0
 12 13  2  0
 13 14  1  0
 13 15  1  0
 15 16  2  0
 16 17  1  0
 16 18  1  0
 18 19  1  0
 19 20  2  0
 19 21  1  0
 21 22  1  0
 12 23  1  0
 23 24  1  0
 23 25  1  0
 25 26  2  0
 26 27  1  0
 26 28  1  0
  6 29  1  0
 29 30  1  0
 29 31  1  0
 29 32  1  0
  6 33  1  0
 33 34  1  0
 33 35  1  0
 33 36  1  0
 25  9  1  0
 21 15  1  0
M  CHG  2  17  -1  18  -1
M  END
>  <UniqueID>  (84) 
80

>  <SMILES>  (84) 
C=c1[nH]/c(=C\c2[nH]c(=O)[n-]c2[O-])cc1C(=O)C(C)(C)CO

>  <Energy>  (84) 
102.66342066940106

>  <Genealogy>  (84) 
C=c1[nH]c(=Cc2[nH]c(=O)[n-]c2[O-])cc1C(=O)C(C)(C)CO (protonated)
C=c1[nH]/c(=C\c2[nH]c(=O)[n-]c2[O-])cc1C(=O)C(C)(C)CO (cis-trans isomerization)
C=c1[nH]/c(=C\c2[nH]c(=O)[n-]c2[O-])cc1C(=O)C(C)(C)CO (3D coordinates assigned)
C=c1[nH]/c(=C\c2[nH]c(=O)[n-]c2[O-])cc1C(=O)C(C)(C)CO (optimized conformer: 102.66342066940106 kcal/mol)

>  <smiles>  (84) 
C=c1[nH]c(=Cc2[nH]c(=O)[nH]c2O)cc1C(=O)C(C)(C)CO

>  <score_type>  (84) 
oracle

>  <origin>  (84) 
adg

>  <m_score__min__energy>  (84) 
-13

>  <m_primary>  (84) 
energy

$$$$
84:0
     RDKit          3D

 58 61  0  0  0  0  0  0  0  0999 V2000
   54.2470   21.3730   50.4400 C   0  0  0  0  0  0  0  0  0  0  0  0
   55.2430   20.6160   49.7600 O   0  0  0  0  0  0  0  0  0  0  0  0
   55.4570   20.6510   48.3740 C   0  0  0  0  0  0  0  0  0  0  0  0
   56.6240   20.0720   47.8670 C   0  0  0  0  0  0  0  0  0  0  0  0
   56.8840   20.0810   46.4940 C   0  0  0  0  0  0  0  0  0  0  0  0
   55.9760   20.6740   45.6030 C   0  0  0  0  0  0  0  0  0  0  0  0
   56.2670   20.6920   44.1220 C   0  0  0  0  0  0  0  0  0  0  0  0
   56.8630   21.9850   43.7280 N   0  0  0  0  0  0  0  0  0  0  0  0
   55.8500   22.9280   43.1840 C   0  0  0  0  0  0  0  0  0  0  0  0
   55.4860   24.0350   44.1830 C   0  0  0  0  0  0  0  0  0  0  0  0
   56.6720   24.8380   44.5450 N   0  0  0  0  0  0  0  0  0  0  0  0
   56.3700   25.7020   46.0340 S   0  0  0  0  0  0  0  0  0  0  0  0
   55.0090   26.3400   45.9900 O   0  0  0  0  0  0  0  0  0  0  0  0
   56.4150   24.7460   47.1920 O   0  0  0  0  0  0  0  0  0  0  0  0
   57.6040   26.9370   46.2720 C   0  0  0  0  0  0  0  0  0  0  0  0
   58.6900   26.7060   47.1280 C   0  0  0  0  0  0  0  0  0  0  0  0
   59.6520   27.7010   47.3270 C   0  0  0  0  0  0  0  0  0  0  0  0
   59.5320   28.9450   46.6900 C   0  0  0  0  0  0  0  0  0  0  0  0
   60.5460   29.9440   46.8960 N   0  0  0  0  0  0  0  0  0  0  0  0
   60.7710   30.6110   48.1490 C   0  0  0  0  0  0  0  0  0  0  0  0
   60.2730   30.1440   49.2110 O   0  0  0  0  0  0  0  0  0  0  0  0
   61.6160   31.8230   48.2090 C   0  0  0  0  0  0  0  0  0  0  0  0
   61.6870   32.6030   49.3740 C   0  0  0  0  0  0  0  0  0  0  0  0
   62.4970   33.7390   49.3700 C   0  0  0  0  0  0  0  0  0  0  0  0
   62.5840   34.4590   50.3980 O   0  0  0  0  0  0  0  0  0  0  0  0
   63.1960   34.0700   48.2530 N   0  0  0  0  0  0  0  0  0  0  0  0
   63.1180   33.3090   47.1310 C   0  0  0  0  0  0  0  0  0  0  0  0
   63.7720   33.6310   46.1060 O   0  0  0  0  0  0  0  0  0  0  0  0
   62.3360   32.1990   47.1160 N   0  0  0  0  0  0  0  0  0  0  0  0
   58.4490   29.1670   45.8200 C   0  0  0  0  0  0  0  0  0  0  0  0
   57.4880   28.1700   45.6210 C   0  0  0  0  0  0  0  0  0  0  0  0
   57.9220   24.0470   44.6350 C   0  0  0  0  0  0  0  0  0  0  0  0
   57.6560   22.5490   44.8430 C   0  0  0  0  0  0  0  0  0  0  0  0
   54.8000   21.2580   46.1080 C   0  0  0  0  0  0  0  0  0  0  0  0
   53.8810   21.8530   45.2490 O   0  0  0  0  0  0  0  0  0  0  0  0
   54.5430   21.2460   47.4830 C   0  0  0  0  0  0  0  0  0  0  0  0
   54.3848   21.2682   51.5263 H   0  0  0  0  0  0  0  0  0  0  0  0
   54.3368   22.4328   50.1595 H   0  0  0  0  0  0  0  0  0  0  0  0
   53.2499   21.0027   50.1595 H   0  0  0  0  0  0  0  0  0  0  0  0
   57.3441   19.6051   48.5550 H   0  0  0  0  0  0  0  0  0  0  0  0
   57.8059   19.6205   46.1092 H   0  0  0  0  0  0  0  0  0  0  0  0
   56.9700   19.8809   43.8812 H   0  0  0  0  0  0  0  0  0  0  0  0
   55.3245   20.5522   43.5723 H   0  0  0  0  0  0  0  0  0  0  0  0
   56.2537   23.3932   42.2726 H   0  0  0  0  0  0  0  0  0  0  0  0
   54.9362   22.3534   42.9720 H   0  0  0  0  0  0  0  0  0  0  0  0
   54.7312   24.6940   43.7292 H   0  0  0  0  0  0  0  0  0  0  0  0
   55.0914   23.5649   45.0958 H   0  0  0  0  0  0  0  0  0  0  0  0
   58.7855   25.7395   47.6444 H   0  0  0  0  0  0  0  0  0  0  0  0
   60.5094   27.5068   47.9881 H   0  0  0  0  0  0  0  0  0  0  0  0
   61.2130   30.1260   46.1120 H   0  0  0  0  0  0  0  0  0  0  0  0
   61.1157   32.3243   50.2717 H   0  0  0  0  0  0  0  0  0  0  0  0
   58.3574   30.1287   45.2939 H   0  0  0  0  0  0  0  0  0  0  0  0
   56.6370   28.3564   44.9494 H   0  0  0  0  0  0  0  0  0  0  0  0
   58.4905   24.1782   43.7025 H   0  0  0  0  0  0  0  0  0  0  0  0
   58.4857   24.4107   45.5067 H   0  0  0  0  0  0  0  0  0  0  0  0
   58.6180   22.0189   44.9028 H   0  0  0  0  0  0  0  0  0  0  0  0
   57.0846   22.4234   45.7745 H   0  0  0  0  0  0  0  0  0  0  0  0
   53.6212   21.7042   47.8707 H   0  0  0  0  0  0  0  0  0  0  0  0
  1  2  1  0
  2  3  1  0
  3  4  2  0
  4  5  1  0
  5  6  2  0
  6  7  1  0
  7  8  1  0
  8  9  1  0
  9 10  1  0
 10 11  1  0
 11 12  1  0
 12 13  2  0
 12 14  2  0
 12 15  1  0
 15 16  2  0
 16 17  1  0
 17 18  2  0
 18 19  1  0
 19 20  1  0
 20 21  2  0
 20 22  1  0
 22 23  2  0
 23 24  1  0
 24 25  2  0
 24 26  1  0
 26 27  1  0
 27 28  2  0
 27 29  1  0
 18 30  1  0
 30 31  2  0
 11 32  1  0
 32 33  1  0
  6 34  1  0
 34 35  1  0
 34 36  2  0
 36  3  1  0
 33  8  1  0
 31 15  1  0
 29 22  1  0
  1 37  1  0
  1 38  1  0
  1 39  1  0
  4 40  1  0
  5 41  1  0
  7 42  1  0
  7 43  1  0
  9 44  1  0
  9 45  1  0
 10 46  1  0
 10 47  1  0
 16 48  1  0
 17 49  1  0
 19 50  1  0
 23 51  1  0
 30 52  1  0
 31 53  1  0
 32 54  1  0
 32 55  1  0
 33 56  1  0
 33 57  1  0
 36 58  1  0
M  CHG  3  26  -1  29  -1  35  -1
M  END
>  <UniqueID>  (85) 
81

>  <SMILES>  (85) 
COc1ccc(CN2CCN(S(=O)(=O)c3ccc(NC(=O)c4cc(=O)[n-]c(=O)[n-]4)cc3)CC2)c([O-])c1

>  <Energy>  (85) 
77.31618473717211

>  <Genealogy>  (85) 
COc1ccc(CN2CCN(S(=O)(=O)c3ccc(NC(=O)c4cc(=O)[n-]c(=O)[n-]4)cc3)CC2)c([O-])c1 (protonated)
COc1ccc(CN2CCN(S(=O)(=O)c3ccc(NC(=O)c4cc(=O)[n-]c(=O)[n-]4)cc3)CC2)c([O-])c1 (3D coordinates assigned)
COc1ccc(CN2CCN(S(=O)(=O)c3ccc(NC(=O)c4cc(=O)[n-]c(=O)[n-]4)cc3)CC2)c([O-])c1 (nonaromatic ring conformer: 77.31618473717211 kcal/mol)

>  <smiles>  (85) 
COc1ccc(CN2CCN(S(=O)(=O)c3ccc(NC(=O)c4cc(=O)[nH]c(=O)[nH]4)cc3)CC2)c(O)c1

>  <score_type>  (85) 
oracle

>  <origin>  (85) 
adg

>  <m_score__min__energy>  (85) 
-14.65

>  <m_primary>  (85) 
energy

$$$$
85:0
     RDKit          3D

 56 59  0  0  0  0  0  0  0  0999 V2000
   58.7780   34.8200   44.8380 C   0  0  0  0  0  0  0  0  0  0  0  0
   58.3570   33.3870   44.6570 C   0  0  0  0  0  0  0  0  0  0  0  0
   58.0770   32.9170   43.3630 C   0  0  0  0  0  0  0  0  0  0  0  0
   57.6430   31.6050   43.1640 C   0  0  0  0  0  0  0  0  0  0  0  0
   57.4810   30.7490   44.2540 C   0  0  0  0  0  0  0  0  0  0  0  0
   57.7710   31.1960   45.5430 C   0  0  0  0  0  0  0  0  0  0  0  0
   58.2390   32.4990   45.7540 C   0  0  0  0  0  0  0  0  0  0  0  0
   58.5460   32.9060   47.0920 N   0  0  0  0  0  0  0  0  0  0  0  0
   59.8240   33.4150   47.4920 C   0  0  0  0  0  0  0  0  0  0  0  0
   60.6360   33.8210   46.6160 O   0  0  0  0  0  0  0  0  0  0  0  0
   60.2070   33.4070   48.8800 N   0  0  0  0  0  0  0  0  0  0  0  0
   59.2170   33.2570   49.9500 C   0  0  0  0  0  0  0  0  0  0  0  0
   59.6210   32.1160   50.8980 C   0  0  0  0  0  0  0  0  0  0  0  0
   61.0870   31.9460   51.0300 N   0  0  0  0  0  0  0  0  0  0  0  0
   61.6160   30.6350   50.5910 C   0  0  0  0  0  0  0  0  0  0  0  0
   61.2250   30.2560   49.1880 C   0  0  0  0  0  0  0  0  0  0  0  0
   61.5850   30.9140   48.0170 C   0  0  0  0  0  0  0  0  0  0  0  0
   61.0310   30.3470   46.8630 C   0  0  0  0  0  0  0  0  0  0  0  0
   60.2070   29.2470   47.1150 C   0  0  0  0  0  0  0  0  0  0  0  0
   59.4660   28.4370   46.1120 C   0  0  0  0  0  0  0  0  0  0  0  0
   59.7180   28.5760   44.7330 C   0  0  0  0  0  0  0  0  0  0  0  0
   59.0040   27.8170   43.8010 C   0  0  0  0  0  0  0  0  0  0  0  0
   58.0360   26.9080   44.2280 C   0  0  0  0  0  0  0  0  0  0  0  0
   57.7770   26.7480   45.5940 C   0  0  0  0  0  0  0  0  0  0  0  0
   56.5470   25.6140   46.1390 S   0  0  0  0  0  0  0  0  0  0  0  0
   54.9880   26.3480   46.0000 N   0  0  0  0  0  0  0  0  0  0  0  0
   56.5870   24.3670   45.3010 O   0  0  0  0  0  0  0  0  0  0  0  0
   56.8030   25.2400   47.5730 O   0  0  0  0  0  0  0  0  0  0  0  0
   58.4870   27.5140   46.5290 C   0  0  0  0  0  0  0  0  0  0  0  0
   60.1820   29.0010   48.7850 S   0  0  0  0  0  0  0  0  0  0  0  0
   61.9060   33.1220   50.6690 C   0  0  0  0  0  0  0  0  0  0  0  0
   61.6060   33.6400   49.2510 C   0  0  0  0  0  0  0  0  0  0  0  0
   58.8454   35.0495   45.9117 H   0  0  0  0  0  0  0  0  0  0  0  0
   59.7599   34.9759   44.3673 H   0  0  0  0  0  0  0  0  0  0  0  0
   58.0365   35.4823   44.3673 H   0  0  0  0  0  0  0  0  0  0  0  0
   58.2006   33.5878   42.5000 H   0  0  0  0  0  0  0  0  0  0  0  0
   57.4285   31.2457   42.1467 H   0  0  0  0  0  0  0  0  0  0  0  0
   57.1242   29.7205   44.0965 H   0  0  0  0  0  0  0  0  0  0  0  0
   57.6312   30.5204   46.3998 H   0  0  0  0  0  0  0  0  0  0  0  0
   59.1537   34.1960   50.5194 H   0  0  0  0  0  0  0  0  0  0  0  0
   58.2407   33.0199   49.5021 H   0  0  0  0  0  0  0  0  0  0  0  0
   59.2043   32.3272   51.8939 H   0  0  0  0  0  0  0  0  0  0  0  0
   59.2254   31.1839   50.4682 H   0  0  0  0  0  0  0  0  0  0  0  0
   62.7141   30.6688   50.6469 H   0  0  0  0  0  0  0  0  0  0  0  0
   61.1811   29.8766   51.2585 H   0  0  0  0  0  0  0  0  0  0  0  0
   62.2423   31.7958   47.9991 H   0  0  0  0  0  0  0  0  0  0  0  0
   61.2264   30.7320   45.8512 H   0  0  0  0  0  0  0  0  0  0  0  0
   60.4824   29.2872   44.3869 H   0  0  0  0  0  0  0  0  0  0  0  0
   59.2064   27.9371   42.7265 H   0  0  0  0  0  0  0  0  0  0  0  0
   57.4752   26.3159   43.4898 H   0  0  0  0  0  0  0  0  0  0  0  0
   55.1370   27.3810   46.0000 H   0  0  0  0  0  0  0  0  0  0  0  0
   58.2770   27.3928   47.6019 H   0  0  0  0  0  0  0  0  0  0  0  0
   61.7015   33.9281   51.3890 H   0  0  0  0  0  0  0  0  0  0  0  0
   62.9615   32.8132   50.6943 H   0  0  0  0  0  0  0  0  0  0  0  0
   61.8107   34.7202   49.2140 H   0  0  0  0  0  0  0  0  0  0  0  0
   62.2469   33.0961   48.5415 H   0  0  0  0  0  0  0  0  0  0  0  0
  1  2  1  0
  2  3  2  0
  3  4  1  0
  4  5  2  0
  5  6  1  0
  6  7  2  0
  7  8  1  0
  8  9  1  0
  9 10  2  0
  9 11  1  0
 11 12  1  0
 12 13  1  0
 13 14  1  0
 14 15  1  0
 15 16  1  0
 16 17  2  0
 17 18  1  0
 18 19  2  0
 19 20  1  0
 20 21  2  0
 21 22  1  0
 22 23  2  0
 23 24  1  0
 24 25  1  0
 25 26  1  0
 25 27  2  0
 25 28  2  0
 24 29  2  0
 19 30  1  0
 14 31  1  0
 31 32  1  0
  7  2  1  0
 32 11  1  0
 30 16  1  0
 29 20  1  0
  1 33  1  0
  1 34  1  0
  1 35  1  0
  3 36  1  0
  4 37  1  0
  5 38  1  0
  6 39  1  0
 12 40  1  0
 12 41  1  0
 13 42  1  0
 13 43  1  0
 15 44  1  0
 15 45  1  0
 17 46  1  0
 18 47  1  0
 21 48  1  0
 22 49  1  0
 23 50  1  0
 26 51  1  0
 29 52  1  0
 31 53  1  0
 31 54  1  0
 32 55  1  0
 32 56  1  0
M  CHG  2   8  -1  26  -1
M  END
>  <UniqueID>  (86) 
82

>  <SMILES>  (86) 
Cc1ccccc1[N-]C(=O)N1CCN(Cc2ccc(-c3cccc(S([NH-])(=O)=O)c3)s2)CC1

>  <Energy>  (86) 
102.9096243045429

>  <Genealogy>  (86) 
Cc1ccccc1[N-]C(=O)N1CCN(Cc2ccc(-c3cccc(S([NH-])(=O)=O)c3)s2)CC1 (protonated)
Cc1ccccc1[N-]C(=O)N1CCN(Cc2ccc(-c3cccc(S([NH-])(=O)=O)c3)s2)CC1 (3D coordinates assigned)
Cc1ccccc1[N-]C(=O)N1CCN(Cc2ccc(-c3cccc(S([NH-])(=O)=O)c3)s2)CC1 (nonaromatic ring conformer: 102.9096243045429 kcal/mol)

>  <smiles>  (86) 
Cc1ccccc1NC(=O)N1CCN(Cc2ccc(-c3cccc(S(N)(=O)=O)c3)s2)CC1

>  <score_type>  (86) 
oracle

>  <origin>  (86) 
adg

>  <m_score__min__energy>  (86) 
-14.109999999999999

>  <m_primary>  (86) 
energy

$$$$
86:0
     RDKit          3D

 43 45  0  0  0  0  0  0  0  0999 V2000
   55.1440   26.7020   46.0060 N   0  0  0  0  0  0  0  0  0  0  0  0
   56.8670   26.7400   45.8810 S   0  0  0  0  0  0  0  0  0  0  0  0
   57.2870   25.9640   44.6650 O   0  0  0  0  0  0  0  0  0  0  0  0
   57.4770   26.1180   47.1050 O   0  0  0  0  0  0  0  0  0  0  0  0
   57.4090   28.4000   45.7340 C   0  0  0  0  0  0  0  0  0  0  0  0
   58.3100   29.0300   46.5800 C   0  0  0  0  0  0  0  0  0  0  0  0
   58.5720   30.3540   46.2100 C   0  0  0  0  0  0  0  0  0  0  0  0
   57.8540   30.7620   45.0900 C   0  0  0  0  0  0  0  0  0  0  0  0
   57.9660   32.0640   44.4130 C   0  0  0  0  0  0  0  0  0  0  0  0
   58.4890   32.0750   43.2650 O   0  0  0  0  0  0  0  0  0  0  0  0
   57.4480   33.3090   44.9630 N   0  0  0  0  0  0  0  0  0  0  0  0
   58.3270   34.4950   44.8170 C   0  0  0  0  0  0  0  0  0  0  0  0
   59.4650   34.5410   45.8540 C   0  0  0  0  0  0  0  0  0  0  0  0
   58.9350   34.4000   47.2250 N   0  0  0  0  0  0  0  0  0  0  0  0
   60.0290   34.4320   48.2180 C   0  0  0  0  0  0  0  0  0  0  0  0
   61.1110   33.4500   47.8500 C   0  0  0  0  0  0  0  0  0  0  0  0
   60.8920   32.0670   47.9670 C   0  0  0  0  0  0  0  0  0  0  0  0
   61.8940   31.1620   47.6040 C   0  0  0  0  0  0  0  0  0  0  0  0
   63.1190   31.6310   47.1190 C   0  0  0  0  0  0  0  0  0  0  0  0
   63.3420   33.0050   46.9960 C   0  0  0  0  0  0  0  0  0  0  0  0
   62.3420   33.9140   47.3580 C   0  0  0  0  0  0  0  0  0  0  0  0
   58.1900   33.1340   47.3400 C   0  0  0  0  0  0  0  0  0  0  0  0
   57.0090   33.1310   46.3640 C   0  0  0  0  0  0  0  0  0  0  0  0
   56.9410   29.4670   44.5240 S   0  0  0  0  0  0  0  0  0  0  0  0
   54.7670   26.7130   45.0310 H   0  0  0  0  0  0  0  0  0  0  0  0
   58.7704   28.5401   47.4507 H   0  0  0  0  0  0  0  0  0  0  0  0
   59.2744   31.0061   46.7498 H   0  0  0  0  0  0  0  0  0  0  0  0
   56.5850   33.5230   44.4070 H   0  0  0  0  0  0  0  0  0  0  0  0
   58.7717   34.4783   43.8110 H   0  0  0  0  0  0  0  0  0  0  0  0
   57.7022   35.3857   44.9791 H   0  0  0  0  0  0  0  0  0  0  0  0
   60.1683   33.7193   45.6535 H   0  0  0  0  0  0  0  0  0  0  0  0
   59.9753   35.5121   45.7728 H   0  0  0  0  0  0  0  0  0  0  0  0
   60.4568   35.4449   48.2515 H   0  0  0  0  0  0  0  0  0  0  0  0
   59.6216   34.1571   49.2021 H   0  0  0  0  0  0  0  0  0  0  0  0
   59.9286   31.6949   48.3456 H   0  0  0  0  0  0  0  0  0  0  0  0
   61.7187   30.0803   47.7000 H   0  0  0  0  0  0  0  0  0  0  0  0
   63.9070   30.9183   46.8343 H   0  0  0  0  0  0  0  0  0  0  0  0
   64.3057   33.3726   46.6138 H   0  0  0  0  0  0  0  0  0  0  0  0
   62.5203   34.9948   47.2571 H   0  0  0  0  0  0  0  0  0  0  0  0
   58.8600   32.2942   47.1038 H   0  0  0  0  0  0  0  0  0  0  0  0
   57.8101   33.0304   48.3671 H   0  0  0  0  0  0  0  0  0  0  0  0
   56.4789   32.1711   46.4509 H   0  0  0  0  0  0  0  0  0  0  0  0
   56.3513   33.9736   46.6237 H   0  0  0  0  0  0  0  0  0  0  0  0
  1  2  1  0
  2  3  2  0
  2  4  2  0
  2  5  1  0
  5  6  2  0
  6  7  1  0
  7  8  2  0
  8  9  1  0
  9 10  2  0
  9 11  1  0
 11 12  1  0
 12 13  1  0
 13 14  1  0
 14 15  1  0
 15 16  1  0
 16 17  2  0
 17 18  1  0
 18 19  2  0
 19 20  1  0
 20 21  2  0
 14 22  1  0
 22 23  1  0
  8 24  1  0
 24  5  1  0
 23 11  1  0
 21 16  1  0
  1 25  1  0
  6 26  1  0
  7 27  1  0
 11 28  1  0
 12 29  1  0
 12 30  1  0
 13 31  1  0
 13 32  1  0
 15 33  1  0
 15 34  1  0
 17 35  1  0
 18 36  1  0
 19 37  1  0
 20 38  1  0
 21 39  1  0
 22 40  1  0
 22 41  1  0
 23 42  1  0
 23 43  1  0
M  CHG  2   1  -1  11   1
M  END
>  <UniqueID>  (87) 
83

>  <SMILES>  (87) 
[NH-]S(=O)(=O)c1ccc(C(=O)[NH+]2CCN(Cc3ccccc3)CC2)s1

>  <Energy>  (87) 
84.50008187577556

>  <Genealogy>  (87) 
[NH-]S(=O)(=O)c1ccc(C(=O)[NH+]2CCN(Cc3ccccc3)CC2)s1 (protonated)
[NH-]S(=O)(=O)c1ccc(C(=O)[NH+]2CCN(Cc3ccccc3)CC2)s1 (3D coordinates assigned)
[NH-]S(=O)(=O)c1ccc(C(=O)[NH+]2CCN(Cc3ccccc3)CC2)s1 (nonaromatic ring conformer: 84.50008187577556 kcal/mol)

>  <smiles>  (87) 
NS(=O)(=O)c1ccc(C(=O)N2CCN(Cc3ccccc3)CC2)s1

>  <score_type>  (87) 
oracle

>  <origin>  (87) 
adg

>  <m_score__min__energy>  (87) 
-9.8399999999999999

>  <m_primary>  (87) 
energy

$$$$
