0:0
     RDKit          3D

 44 47  0  0  0  0  0  0  0  0999 V2000
   58.0280   32.4110   42.4400 O   0  0  0  0  0  0  0  0  0  0  0  0
   57.7540   31.5770   43.3460 C   0  0  0  0  0  0  0  0  0  0  0  0
   56.7680   30.4820   43.0690 C   0  0  0  0  0  0  0  0  0  0  0  0
   55.6380   30.2320   44.4870 S   0  0  0  0  0  0  0  0  0  0  0  0
   56.5600   28.8600   45.1800 C   0  0  0  0  0  0  0  0  0  0  0  0
   55.9030   27.7540   45.6210 N   0  0  0  0  0  0  0  0  0  0  0  0
   56.5790   26.6620   46.0660 C   0  0  0  0  0  0  0  0  0  0  0  0
   55.9310   25.6560   46.4630 O   0  0  0  0  0  0  0  0  0  0  0  0
   57.9850   26.6650   46.0680 C   0  0  0  0  0  0  0  0  0  0  0  0
   58.7430   25.5550   46.4840 C   0  0  0  0  0  0  0  0  0  0  0  0
   60.1410   25.6140   46.4530 C   0  0  0  0  0  0  0  0  0  0  0  0
   60.7890   26.7720   46.0100 C   0  0  0  0  0  0  0  0  0  0  0  0
   60.0430   27.8810   45.5980 C   0  0  0  0  0  0  0  0  0  0  0  0
   58.6440   27.8330   45.6240 C   0  0  0  0  0  0  0  0  0  0  0  0
   57.9180   28.8990   45.1960 N   0  0  0  0  0  0  0  0  0  0  0  0
   58.3840   31.6630   44.6350 N   0  0  0  0  0  0  0  0  0  0  0  0
   58.9050   32.8770   45.2150 C   0  0  0  0  0  0  0  0  0  0  0  0
   58.7290   34.1140   44.5630 C   0  0  0  0  0  0  0  0  0  0  0  0
   59.1480   35.3020   45.1620 C   0  0  0  0  0  0  0  0  0  0  0  0
   59.7240   35.2820   46.4280 C   0  0  0  0  0  0  0  0  0  0  0  0
   59.8790   34.0740   47.1070 C   0  0  0  0  0  0  0  0  0  0  0  0
   59.4780   32.8620   46.5140 C   0  0  0  0  0  0  0  0  0  0  0  0
   59.6560   31.6040   47.2780 C   0  0  0  0  0  0  0  0  0  0  0  0
   60.9450   31.1500   47.6020 C   0  0  0  0  0  0  0  0  0  0  0  0
   61.1150   29.9690   48.3280 C   0  0  0  0  0  0  0  0  0  0  0  0
   60.0020   29.2260   48.7310 C   0  0  0  0  0  0  0  0  0  0  0  0
   58.7170   29.6640   48.4080 C   0  0  0  0  0  0  0  0  0  0  0  0
   58.5410   30.8470   47.6830 C   0  0  0  0  0  0  0  0  0  0  0  0
   56.1757   30.7490   42.1813 H   0  0  0  0  0  0  0  0  0  0  0  0
   57.3241   29.5483   42.8988 H   0  0  0  0  0  0  0  0  0  0  0  0
   58.2377   24.6424   46.8330 H   0  0  0  0  0  0  0  0  0  0  0  0
   60.7330   24.7459   46.7785 H   0  0  0  0  0  0  0  0  0  0  0  0
   61.8881   26.8104   45.9856 H   0  0  0  0  0  0  0  0  0  0  0  0
   60.5556   28.7912   45.2534 H   0  0  0  0  0  0  0  0  0  0  0  0
   58.3360   30.8160   45.2470 H   0  0  0  0  0  0  0  0  0  0  0  0
   58.2558   34.1430   43.5704 H   0  0  0  0  0  0  0  0  0  0  0  0
   59.0226   36.2575   44.6317 H   0  0  0  0  0  0  0  0  0  0  0  0
   60.0578   36.2207   46.8943 H   0  0  0  0  0  0  0  0  0  0  0  0
   60.3187   34.0681   48.1153 H   0  0  0  0  0  0  0  0  0  0  0  0
   61.8250   31.7274   47.2824 H   0  0  0  0  0  0  0  0  0  0  0  0
   62.1274   29.6228   48.5832 H   0  0  0  0  0  0  0  0  0  0  0  0
   60.1388   28.2962   49.3026 H   0  0  0  0  0  0  0  0  0  0  0  0
   57.8413   29.0780   48.7240 H   0  0  0  0  0  0  0  0  0  0  0  0
   57.5264   31.1872   47.4282 H   0  0  0  0  0  0  0  0  0  0  0  0
  1  2  2  0
  2  3  1  0
  3  4  1  0
  4  5  1  0
  5  6  2  0
  6  7  1  0
  7  8  2  0
  7  9  1  0
  9 10  2  0
 10 11  1  0
 11 12  2  0
 12 13  1  0
 13 14  2  0
 14 15  1  0
  2 16  1  0
 16 17  1  0
 17 18  2  0
 18 19  1  0
 19 20  2  0
 20 21  1  0
 21 22  2  0
 22 23  1  0
 23 24  2  0
 24 25  1  0
 25 26  2  0
 26 27  1  0
 27 28  2  0
 15  5  1  0
 22 17  1  0
 28 23  1  0
 14  9  1  0
  3 29  1  0
  3 30  1  0
 10 31  1  0
 11 32  1  0
 12 33  1  0
 13 34  1  0
 16 35  1  0
 18 36  1  0
 19 37  1  0
 20 38  1  0
 21 39  1  0
 24 40  1  0
 25 41  1  0
 26 42  1  0
 27 43  1  0
 28 44  1  0
M  CHG  1  15  -1
M  END
>  <UniqueID>  (1) 
1

>  <SMILES>  (1) 
O=C(CSc1nc(=O)c2ccccc2[n-]1)Nc1ccccc1-c1ccccc1

>  <Energy>  (1) 
54.42025021076402

>  <Genealogy>  (1) 
O=C(CSc1nc(=O)c2ccccc2[n-]1)Nc1ccccc1-c1ccccc1 (protonated)
O=C(CSc1nc(=O)c2ccccc2[n-]1)Nc1ccccc1-c1ccccc1 (3D coordinates assigned)
O=C(CSc1nc(=O)c2ccccc2[n-]1)Nc1ccccc1-c1ccccc1 (optimized conformer: 54.42025021076402 kcal/mol)

>  <smiles>  (1) 
O=C(CSc1nc(=O)c2ccccc2[nH]1)Nc1ccccc1-c1ccccc1

>  <score_type>  (1) 
oracle

>  <origin>  (1) 
adg

>  <m_score__min__energy>  (1) 
-10.619999999999999

>  <m_primary>  (1) 
energy

$$$$
1:0
     RDKit          3D

 54 57  0  0  0  0  0  0  0  0999 V2000
   62.5160   29.3250   51.2190 C   0  0  0  0  0  0  0  0  0  0  0  0
   61.6040   29.3320   50.1420 O   0  0  0  0  0  0  0  0  0  0  0  0
   60.4980   30.1650   50.2450 C   0  0  0  0  0  0  0  0  0  0  0  0
   60.2250   30.8550   51.4050 C   0  0  0  0  0  0  0  0  0  0  0  0
   59.1160   31.6790   51.4780 C   0  0  0  0  0  0  0  0  0  0  0  0
   58.2880   31.8030   50.3860 C   0  0  0  0  0  0  0  0  0  0  0  0
   58.5930   31.0980   49.2450 C   0  0  0  0  0  0  0  0  0  0  0  0
   59.6790   30.2650   49.1080 C   0  0  0  0  0  0  0  0  0  0  0  0
   60.0030   29.5410   47.9530 N   0  0  0  0  0  0  0  0  0  0  0  0
   59.1530   29.5380   46.4740 S   0  0  0  0  0  0  0  0  0  0  0  0
   59.9630   28.7940   45.4220 O   0  0  0  0  0  0  0  0  0  0  0  0
   57.7990   28.8690   46.6220 O   0  0  0  0  0  0  0  0  0  0  0  0
   58.8780   31.1430   45.8840 C   0  0  0  0  0  0  0  0  0  0  0  0
   59.4390   32.2570   46.4930 C   0  0  0  0  0  0  0  0  0  0  0  0
   59.2590   33.5400   46.0440 C   0  0  0  0  0  0  0  0  0  0  0  0
   60.0440   34.8520   46.9590 S   0  0  0  0  0  0  0  0  0  0  0  0
   61.0800   34.2090   48.2430 C   0  0  0  0  0  0  0  0  0  0  0  0
   60.7610   34.2790   49.5590 N   0  0  0  0  0  0  0  0  0  0  0  0
   61.7470   33.6980   50.2970 C   0  0  0  0  0  0  0  0  0  0  0  0
   61.8330   33.5540   51.6280 N   0  0  0  0  0  0  0  0  0  0  0  0
   62.9260   32.9390   52.1200 C   0  0  0  0  0  0  0  0  0  0  0  0
   63.0330   32.7860   53.3960 N   0  0  0  0  0  0  0  0  0  0  0  0
   63.9050   32.4790   51.2880 N   0  0  0  0  0  0  0  0  0  0  0  0
   63.8190   32.6220   49.9620 C   0  0  0  0  0  0  0  0  0  0  0  0
   64.7560   32.1730   49.1900 N   0  0  0  0  0  0  0  0  0  0  0  0
   62.7130   33.2490   49.4310 C   0  0  0  0  0  0  0  0  0  0  0  0
   62.2990   33.5660   48.1610 C   0  0  0  0  0  0  0  0  0  0  0  0
   63.0170   33.2810   46.9240 C   0  0  0  0  0  0  0  0  0  0  0  0
   63.0990   34.1480   46.0340 O   0  0  0  0  0  0  0  0  0  0  0  0
   63.6170   32.0180   46.7380 O   0  0  0  0  0  0  0  0  0  0  0  0
   58.4820   33.7470   44.9310 C   0  0  0  0  0  0  0  0  0  0  0  0
   57.8910   32.6690   44.2740 C   0  0  0  0  0  0  0  0  0  0  0  0
   58.1010   31.3970   44.7640 C   0  0  0  0  0  0  0  0  0  0  0  0
   57.4450   30.2780   44.0220 C   0  0  0  0  0  0  0  0  0  0  0  0
   61.9615   29.3293   52.1690 H   0  0  0  0  0  0  0  0  0  0  0  0
   63.1418   28.4220   51.1637 H   0  0  0  0  0  0  0  0  0  0  0  0
   63.1555   30.2183   51.1637 H   0  0  0  0  0  0  0  0  0  0  0  0
   60.8898   30.7509   52.2751 H   0  0  0  0  0  0  0  0  0  0  0  0
   58.8975   32.2318   52.4036 H   0  0  0  0  0  0  0  0  0  0  0  0
   57.4009   32.4522   50.4247 H   0  0  0  0  0  0  0  0  0  0  0  0
   57.9210   31.2081   48.3811 H   0  0  0  0  0  0  0  0  0  0  0  0
   60.8730   28.9240   47.9990 H   0  0  0  0  0  0  0  0  0  0  0  0
   60.0628   32.1019   47.3856 H   0  0  0  0  0  0  0  0  0  0  0  0
   59.8800   34.7190   49.9600 H   0  0  0  0  0  0  0  0  0  0  0  0
   61.1100   33.8920   52.2740 H   0  0  0  0  0  0  0  0  0  0  0  0
   63.2880   33.6080   53.9760 H   0  0  0  0  0  0  0  0  0  0  0  0
   64.7100   32.0200   51.7420 H   0  0  0  0  0  0  0  0  0  0  0  0
   64.8920   32.7560   48.3090 H   0  0  0  0  0  0  0  0  0  0  0  0
   64.5620   31.8420   47.0580 H   0  0  0  0  0  0  0  0  0  0  0  0
   58.3251   34.7691   44.5558 H   0  0  0  0  0  0  0  0  0  0  0  0
   57.2687   32.8298   43.3813 H   0  0  0  0  0  0  0  0  0  0  0  0
   57.0236   29.5592   44.7401 H   0  0  0  0  0  0  0  0  0  0  0  0
   56.6394   30.6798   43.3898 H   0  0  0  0  0  0  0  0  0  0  0  0
   58.1891   29.7713   43.3898 H   0  0  0  0  0  0  0  0  0  0  0  0
  1  2  1  0
  2  3  1  0
  3  4  2  0
  4  5  1  0
  5  6  2  0
  6  7  1  0
  7  8  2  0
  8  9  1  0
  9 10  1  0
 10 11  2  0
 10 12  2  0
 10 13  1  0
 13 14  2  0
 14 15  1  0
 15 16  1  0
 16 17  1  0
 17 18  1  0
 18 19  1  0
 19 20  1  0
 20 21  1  0
 21 22  2  3
 21 23  1  0
 23 24  1  0
 24 25  2  3
 24 26  1  0
 26 27  1  0
 27 28  1  0
 28 29  2  0
 28 30  1  0
 15 31  2  0
 31 32  1  0
 32 33  2  0
 33 34  1  0
  8  3  1  0
 33 13  1  0
 27 17  2  0
 26 19  2  0
  1 35  1  0
  1 36  1  0
  1 37  1  0
  4 38  1  0
  5 39  1  0
  6 40  1  0
  7 41  1  0
  9 42  1  0
 14 43  1  0
 18 44  1  0
 20 45  1  0
 22 46  1  0
 23 47  1  0
 25 48  1  0
 30 49  1  0
 31 50  1  0
 32 51  1  0
 34 52  1  0
 34 53  1  0
 34 54  1  0
M  END
>  <smiles>  (2) 
COc1ccccc1NS(=O)(=O)c1cc(Sc2[nH]c3[nH]c(=N)[nH]c(=N)c3c2C(=O)O)ccc1C

>  <score_type>  (2) 
oracle

>  <origin>  (2) 
adg

>  <m_score__min__energy>  (2) 
-8.9199999999999999

>  <m_primary>  (2) 
energy

$$$$
2:0
     RDKit          3D

 46 49  0  0  0  0  0  0  0  0999 V2000
   58.3840   28.1010   47.9260 C   0  0  0  0  0  0  0  0  0  0  0  0
   58.1010   28.6000   46.7120 C   0  0  0  0  0  0  0  0  0  0  0  0
   58.2250   29.9340   46.2870 C   0  0  0  0  0  0  0  0  0  0  0  0
   58.4710   31.0640   46.9770 C   0  0  0  0  0  0  0  0  0  0  0  0
   58.5390   32.4190   46.4060 C   0  0  0  0  0  0  0  0  0  0  0  0
   59.4770   33.3320   46.7220 N   0  0  0  0  0  0  0  0  0  0  0  0
   59.0620   34.4440   46.0790 C   0  0  0  0  0  0  0  0  0  0  0  0
   59.6980   35.5280   46.1210 O   0  0  0  0  0  0  0  0  0  0  0  0
   57.9060   34.3040   45.3950 N   0  0  0  0  0  0  0  0  0  0  0  0
   57.5800   33.0210   45.6220 C   0  0  0  0  0  0  0  0  0  0  0  0
   56.4280   32.4220   45.1220 O   0  0  0  0  0  0  0  0  0  0  0  0
   58.0140   29.9250   44.9170 C   0  0  0  0  0  0  0  0  0  0  0  0
   57.7140   28.6250   44.5660 C   0  0  0  0  0  0  0  0  0  0  0  0
   57.3910   28.1610   43.1790 C   0  0  0  0  0  0  0  0  0  0  0  0
   57.7590   27.8250   45.6520 N   0  0  0  0  0  0  0  0  0  0  0  0
   57.5550   26.4030   45.6420 C   0  0  0  0  0  0  0  0  0  0  0  0
   58.6590   25.5440   45.5910 C   0  0  0  0  0  0  0  0  0  0  0  0
   58.4720   24.1610   45.5800 C   0  0  0  0  0  0  0  0  0  0  0  0
   57.1830   23.6270   45.6280 C   0  0  0  0  0  0  0  0  0  0  0  0
   56.0640   24.4730   45.6940 C   0  0  0  0  0  0  0  0  0  0  0  0
   54.7410   23.9080   45.7590 N   0  0  0  0  0  0  0  0  0  0  0  0
   53.8490   24.0640   44.5930 C   0  0  0  0  0  0  0  0  0  0  0  0
   52.3970   23.7130   44.9290 C   0  0  0  0  0  0  0  0  0  0  0  0
   52.3460   22.4280   45.6090 N   0  0  0  0  0  0  0  0  0  0  0  0
   53.2770   22.1590   46.6520 C   0  0  0  0  0  0  0  0  0  0  0  0
   53.1900   21.0930   47.3160 O   0  0  0  0  0  0  0  0  0  0  0  0
   54.3340   23.1710   46.9710 C   0  0  0  0  0  0  0  0  0  0  0  0
   56.2550   25.8690   45.6960 C   0  0  0  0  0  0  0  0  0  0  0  0
   55.1630   26.7300   45.7390 O   0  0  0  0  0  0  0  0  0  0  0  0
   58.2406   27.0291   48.1272 H   0  0  0  0  0  0  0  0  0  0  0  0
   58.7593   28.7641   48.7194 H   0  0  0  0  0  0  0  0  0  0  0  0
   58.6352   30.9660   48.0603 H   0  0  0  0  0  0  0  0  0  0  0  0
   56.2430   31.4360   45.2590 H   0  0  0  0  0  0  0  0  0  0  0  0
   58.0743   30.7893   44.2392 H   0  0  0  0  0  0  0  0  0  0  0  0
   56.7632   27.2592   43.2309 H   0  0  0  0  0  0  0  0  0  0  0  0
   56.8491   28.9546   42.6437 H   0  0  0  0  0  0  0  0  0  0  0  0
   58.3234   27.9284   42.6437 H   0  0  0  0  0  0  0  0  0  0  0  0
   59.6768   25.9601   45.5595 H   0  0  0  0  0  0  0  0  0  0  0  0
   59.3424   23.4900   45.5334 H   0  0  0  0  0  0  0  0  0  0  0  0
   57.0429   22.5361   45.6140 H   0  0  0  0  0  0  0  0  0  0  0  0
   53.8916   25.1086   44.2508 H   0  0  0  0  0  0  0  0  0  0  0  0
   54.1921   23.3734   43.8086 H   0  0  0  0  0  0  0  0  0  0  0  0
   51.9756   24.4898   45.5839 H   0  0  0  0  0  0  0  0  0  0  0  0
   51.8124   23.6555   43.9990 H   0  0  0  0  0  0  0  0  0  0  0  0
   53.9389   23.8836   47.7100 H   0  0  0  0  0  0  0  0  0  0  0  0
   55.2125   22.6461   47.3745 H   0  0  0  0  0  0  0  0  0  0  0  0
  1  2  2  0
  2  3  1  0
  3  4  2  3
  4  5  1  0
  5  6  1  0
  6  7  1  0
  7  8  2  0
  7  9  1  0
  9 10  1  0
 10 11  1  0
  3 12  1  0
 12 13  2  0
 13 14  1  0
 13 15  1  0
 15 16  1  0
 16 17  2  0
 17 18  1  0
 18 19  2  0
 19 20  1  0
 20 21  1  0
 21 22  1  0
 22 23  1  0
 23 24  1  0
 24 25  1  0
 25 26  2  0
 25 27  1  0
 20 28  2  0
 28 29  1  0
 15  2  1  0
 28 16  1  0
 10  5  2  0
 27 21  1  0
  1 30  1  0
  1 31  1  0
  4 32  1  0
 11 33  1  0
 12 34  1  0
 14 35  1  0
 14 36  1  0
 14 37  1  0
 17 38  1  0
 18 39  1  0
 19 40  1  0
 22 41  1  0
 22 42  1  0
 23 43  1  0
 23 44  1  0
 27 45  1  0
 27 46  1  0
M  CHG  4   6  -1   9  -1  24  -1  29  -1
M  END
>  <UniqueID>  (3) 
2

>  <SMILES>  (3) 
C=c1c(=Cc2[n-]c(=O)[n-]c2O)cc(C)n1-c1cccc(N2CC[N-]C(=O)C2)c1[O-]

>  <Energy>  (3) 
129.15627011518163

>  <Genealogy>  (3) 
C=c1c(=Cc2[n-]c(=O)[n-]c2O)cc(C)n1-c1cccc(N2CC[N-]C(=O)C2)c1[O-] (protonated)
C=c1c(=Cc2[n-]c(=O)[n-]c2O)cc(C)n1-c1cccc(N2CC[N-]C(=O)C2)c1[O-] (3D coordinates assigned)
C=c1c(=Cc2[n-]c(=O)[n-]c2O)cc(C)n1-c1cccc(N2CC[N-]C(=O)C2)c1[O-] (nonaromatic ring conformer: 129.15627011518163 kcal/mol)

>  <smiles>  (3) 
C=c1c(=Cc2[nH]c(=O)[nH]c2O)cc(C)n1-c1cccc(N2CCNC(=O)C2)c1O

>  <score_type>  (3) 
oracle

>  <origin>  (3) 
adg

>  <m_score__min__energy>  (3) 
-15.23

>  <m_primary>  (3) 
energy

$$$$
3:0
     RDKit          3D

 54 57  0  0  1  0  0  0  0  0999 V2000
   54.9170   26.3380   45.9930 N   0  0  0  0  0  0  0  0  0  0  0  0
   55.8840   25.5510   46.0110 C   0  0  0  0  0  0  0  0  0  0  0  0
   55.5450   24.2140   45.9510 N   0  0  0  0  0  0  0  0  0  0  0  0
   56.4380   23.2310   46.0220 C   0  0  0  0  0  0  0  0  0  0  0  0
   57.7610   23.5640   46.1610 C   0  0  0  0  0  0  0  0  0  0  0  0
   58.1270   24.8900   46.2210 C   0  0  0  0  0  0  0  0  0  0  0  0
   57.1920   25.9330   46.1460 C   0  0  0  0  0  0  0  0  0  0  0  0
   57.7190   27.2700   46.1000 C   0  0  0  0  0  0  0  0  0  0  0  0
   58.8770   27.7270   46.6640 C   0  0  0  0  0  0  0  0  0  0  0  0
   59.2440   29.0720   46.6110 C   0  0  0  0  0  0  0  0  0  0  0  0
   60.3340   29.4830   47.1440 N   0  0  0  0  0  0  0  0  0  0  0  0
   60.9830   30.7280   46.7670 C   0  0  0  0  0  0  0  0  0  0  0  0
   60.6510   31.8170   47.7180 C   0  0  0  0  0  0  0  0  0  0  0  0
   59.4820   31.7180   48.4560 C   0  0  0  0  0  0  0  0  0  0  0  0
   59.1230   32.7200   49.3650 C   0  0  0  0  0  0  0  0  0  0  0  0
   59.9430   33.8310   49.5340 C   0  0  0  0  0  0  0  0  0  0  0  0
   61.0850   33.8860   48.7830 C   0  0  0  0  0  0  0  0  0  0  0  0
   61.4660   32.9150   47.8820 C   0  0  0  0  0  0  0  0  0  0  0  0
   62.7060   33.0690   47.1360 C   0  0  0  0  0  0  0  0  0  0  0  0
   62.9520   34.0400   46.3770 O   0  0  0  0  0  0  0  0  0  0  0  0
   63.6990   32.1020   47.2440 O   0  0  0  0  0  0  0  0  0  0  0  0
   58.4700   29.9850   45.9990 N   0  0  0  0  0  0  0  0  0  0  0  0
   57.3300   29.5180   45.4480 C   0  0  0  0  0  0  0  0  0  0  0  0
   56.5830   30.3900   44.8590 N   0  0  0  0  0  0  0  0  0  0  0  0
   57.1210   31.3090   43.8750 C   0  0  0  0  0  0  0  0  0  0  0  0
   57.6980   32.4620   44.6090 C   0  0  0  0  0  0  0  0  0  0  0  0
   58.7350   33.2320   44.0950 C   0  0  0  0  0  0  0  0  0  0  0  0
   59.2270   34.2880   44.8270 C   0  0  0  0  0  0  0  0  0  0  0  0
   58.7210   34.6250   46.0830 C   0  0  0  0  0  0  0  0  0  0  0  0
   57.6930   33.8610   46.5940 C   0  0  0  0  0  0  0  0  0  0  0  0
   57.1960   32.7970   45.8590 C   0  0  0  0  0  0  0  0  0  0  0  0
   56.9570   28.2330   45.4860 N   0  0  0  0  0  0  0  0  0  0  0  0
   54.0190   26.3430   46.3970 H   0  0  0  0  0  0  0  0  0  0  0  0
   54.5360   23.9290   45.8450 H   0  0  0  0  0  0  0  0  0  0  0  0
   56.1235   22.1782   45.9706 H   0  0  0  0  0  0  0  0  0  0  0  0
   58.5258   22.7759   46.2242 H   0  0  0  0  0  0  0  0  0  0  0  0
   59.1923   25.1408   46.3319 H   0  0  0  0  0  0  0  0  0  0  0  0
   59.5395   27.0130   47.1751 H   0  0  0  0  0  0  0  0  0  0  0  0
   62.0726   30.5769   46.7611 H   0  0  0  0  0  0  0  0  0  0  0  0
   60.6255   31.0178   45.7679 H   0  0  0  0  0  0  0  0  0  0  0  0
   58.8291   30.8423   48.3259 H   0  0  0  0  0  0  0  0  0  0  0  0
   58.1930   32.6290   49.9454 H   0  0  0  0  0  0  0  0  0  0  0  0
   59.6838   34.6319   50.2421 H   0  0  0  0  0  0  0  0  0  0  0  0
   61.7408   34.7605   48.9059 H   0  0  0  0  0  0  0  0  0  0  0  0
   64.6410   32.2760   46.8890 H   0  0  0  0  0  0  0  0  0  0  0  0
   58.7430   30.9910   45.9590 H   0  0  0  0  0  0  0  0  0  0  0  0
   57.9035   30.8105   43.2841 H   0  0  0  0  0  0  0  0  0  0  0  0
   56.3316   31.6444   43.1863 H   0  0  0  0  0  0  0  0  0  0  0  0
   59.1602   32.9982   43.1078 H   0  0  0  0  0  0  0  0  0  0  0  0
   60.0481   34.8877   44.4074 H   0  0  0  0  0  0  0  0  0  0  0  0
   59.1301   35.4750   46.6488 H   0  0  0  0  0  0  0  0  0  0  0  0
   57.2691   34.0955   47.5816 H   0  0  0  0  0  0  0  0  0  0  0  0
   56.3757   32.1973   46.2803 H   0  0  0  0  0  0  0  0  0  0  0  0
   56.0580   28.0030   45.0110 H   0  0  0  0  0  0  0  0  0  0  0  0
  1  2  2  3
  2  3  1  0
  3  4  1  0
  4  5  2  0
  5  6  1  0
  6  7  2  0
  7  8  1  0
  8  9  2  0
  9 10  1  0
 10 11  2  0
 11 12  1  0
 12 13  1  0
 13 14  2  0
 14 15  1  0
 15 16  2  0
 16 17  1  0
 17 18  2  0
 18 19  1  0
 19 20  2  0
 19 21  1  0
 10 22  1  0
 22 23  1  0
 23 24  2  0
 24 25  1  0
 25 26  1  0
 26 27  2  0
 27 28  1  0
 28 29  2  0
 29 30  1  0
 30 31  2  0
 23 32  1  0
  7  2  1  0
 32  8  1  0
 18 13  1  0
 31 26  1  0
  1 33  1  0
  3 34  1  0
  4 35  1  0
  5 36  1  0
  6 37  1  0
  9 38  1  0
 12 39  1  0
 12 40  1  0
 14 41  1  0
 15 42  1  0
 16 43  1  0
 17 44  1  0
 21 45  1  0
 22 46  1  0
 25 47  1  0
 25 48  1  0
 27 49  1  0
 28 50  1  0
 29 51  1  0
 30 52  1  0
 31 53  1  0
 32 54  1  0
M  END
>  <smiles>  (4) 
N=c1[nH]cccc1-c1cc(=NCc2ccccc2C(=O)O)[nH]c(=NCc2ccccc2)[nH]1

>  <score_type>  (4) 
oracle

>  <origin>  (4) 
adg

>  <m_score__min__energy>  (4) 
-9.8499999999999996

>  <m_primary>  (4) 
energy

$$$$
4:0
     RDKit          3D

 34 36  0  0  0  0  0  0  0  0999 V2000
   59.5222   28.2753   49.5051 H   0  0  0  0  0  0  0  0  0  0  0  0
   59.2600   28.1280   48.4470 C   0  0  0  0  0  0  0  0  0  0  0  0
   59.1533   27.1103   48.0433 H   0  0  0  0  0  0  0  0  0  0  0  0
   59.0700   29.1920   47.6470 C   0  0  0  0  0  0  0  0  0  0  0  0
   58.7330   29.1750   46.2820 C   0  0  0  0  0  0  0  0  0  0  0  0
   58.3700   28.1620   45.4680 C   0  0  0  0  0  0  0  0  0  0  0  0
   58.8396   28.1237   44.4740 H   0  0  0  0  0  0  0  0  0  0  0  0
   57.3980   27.1010   45.7950 C   0  0  0  0  0  0  0  0  0  0  0  0
   56.0150   27.3110   45.6590 C   0  0  0  0  0  0  0  0  0  0  0  0
   55.5200   28.5430   45.2460 O   0  0  0  0  0  0  0  0  0  0  0  0
   55.1470   26.3020   45.9270 N   0  0  0  0  0  0  0  0  0  0  0  0
   55.5930   25.0770   46.3100 C   0  0  0  0  0  0  0  0  0  0  0  0
   54.7700   24.1590   46.5570 O   0  0  0  0  0  0  0  0  0  0  0  0
   56.9250   24.8430   46.4210 N   0  0  0  0  0  0  0  0  0  0  0  0
   57.8340   25.8190   46.1660 C   0  0  0  0  0  0  0  0  0  0  0  0
   59.0640   25.5650   46.2720 O   0  0  0  0  0  0  0  0  0  0  0  0
   58.8230   30.4840   45.8450 C   0  0  0  0  0  0  0  0  0  0  0  0
   58.6592   30.8440   44.8186 H   0  0  0  0  0  0  0  0  0  0  0  0
   59.1570   31.2520   46.9400 C   0  0  0  0  0  0  0  0  0  0  0  0
   59.3440   32.7390   46.9070 C   0  0  0  0  0  0  0  0  0  0  0  0
   59.3926   33.1254   47.9358 H   0  0  0  0  0  0  0  0  0  0  0  0
   60.2794   32.9793   46.3805 H   0  0  0  0  0  0  0  0  0  0  0  0
   58.4972   33.2035   46.3805 H   0  0  0  0  0  0  0  0  0  0  0  0
   59.2900   30.4760   48.0410 N   0  0  0  0  0  0  0  0  0  0  0  0
   59.7060   30.9470   49.3700 C   0  0  0  0  0  0  0  0  0  0  0  0
   60.5298   30.3171   49.7369 H   0  0  0  0  0  0  0  0  0  0  0  0
   60.0378   31.9928   49.2916 H   0  0  0  0  0  0  0  0  0  0  0  0
   58.5610   30.8700   50.3290 C   0  0  0  0  0  0  0  0  0  0  0  0
   58.0340   29.7490   50.7710 O   0  0  0  0  0  0  0  0  0  0  0  0
   57.0650   29.9820   51.6090 N   0  0  0  0  0  0  0  0  0  0  0  0
   56.9720   31.3190   51.7080 C   0  0  0  0  0  0  0  0  0  0  0  0
   56.1350   31.9100   52.4380 O   0  0  0  0  0  0  0  0  0  0  0  0
   57.9070   31.9370   50.9100 C   0  0  0  0  0  0  0  0  0  0  0  0
   58.0879   33.0130   50.7701 H   0  0  0  0  0  0  0  0  0  0  0  0
  1  2  1  0
  2  3  1  0
  2  4  2  0
  4  5  1  0
  5  6  2  0
  6  7  1  0
  6  8  1  0
  8  9  2  0
  9 10  1  0
  9 11  1  0
 11 12  1  0
 12 13  2  0
 12 14  1  0
 14 15  1  0
 15 16  2  0
  5 17  1  0
 17 18  1  0
 17 19  2  0
 19 20  1  0
 20 21  1  0
 20 22  1  0
 20 23  1  0
 19 24  1  0
 24 25  1  0
 25 26  1  0
 25 27  1  0
 25 28  1  0
 28 29  1  0
 29 30  1  0
 30 31  1  0
 31 32  2  0
 31 33  1  0
 33 34  1  0
 24  4  1  0
 33 28  2  0
 15  8  1  0
M  CHG  4  10  -1  11  -1  14  -1  30  -1
M  END
>  <UniqueID>  (5) 
3

>  <SMILES>  (5) 
C=c1/c(=C\c2c([O-])[n-]c(=O)[n-]c2=O)cc(C)n1Cc1cc(=O)[n-]o1

>  <Energy>  (5) 
109.42731552217909

>  <Genealogy>  (5) 
C=c1c(=Cc2c([O-])[n-]c(=O)[n-]c2=O)cc(C)n1Cc1cc(=O)[n-]o1 (protonated)
C=c1/c(=C\c2c([O-])[n-]c(=O)[n-]c2=O)cc(C)n1Cc1cc(=O)[n-]o1 (cis-trans isomerization)
C=c1/c(=C\c2c([O-])[n-]c(=O)[n-]c2=O)cc(C)n1Cc1cc(=O)[n-]o1 (3D coordinates assigned)
C=c1/c(=C\c2c([O-])[n-]c(=O)[n-]c2=O)cc(C)n1Cc1cc(=O)[n-]o1 (optimized conformer: 109.42731552217909 kcal/mol)

>  <smiles>  (5) 
C=c1c(=Cc2c(O)[nH]c(=O)[nH]c2=O)cc(C)n1Cc1cc(=O)[nH]o1

>  <score_type>  (5) 
oracle

>  <origin>  (5) 
adg

>  <m_score__min__energy>  (5) 
-16.379999999999999

>  <m_primary>  (5) 
energy

$$$$
5:0
     RDKit          3D

 49 51  0  0  0  0  0  0  0  0999 V2000
   55.7660   30.8260   44.5000 O   0  0  0  0  0  0  0  0  0  0  0  0
   56.7950   30.2790   44.0160 C   0  0  0  0  0  0  0  0  0  0  0  0
   56.9380   28.7910   44.0700 C   0  0  0  0  0  0  0  0  0  0  0  0
   56.1800   28.2750   45.2040 N   0  0  0  0  0  0  0  0  0  0  0  0
   56.6540   27.2770   46.1180 C   0  0  0  0  0  0  0  0  0  0  0  0
   55.9480   26.2530   46.3170 O   0  0  0  0  0  0  0  0  0  0  0  0
   57.9660   27.3870   46.7870 C   0  0  0  0  0  0  0  0  0  0  0  0
   59.0320   26.5750   46.3720 C   0  0  0  0  0  0  0  0  0  0  0  0
   60.2820   26.6880   46.9830 C   0  0  0  0  0  0  0  0  0  0  0  0
   60.4770   27.6020   48.0230 C   0  0  0  0  0  0  0  0  0  0  0  0
   59.4090   28.3940   48.4710 C   0  0  0  0  0  0  0  0  0  0  0  0
   59.6180   29.5070   49.8200 S   0  0  0  0  0  0  0  0  0  0  0  0
   60.9100   29.1840   50.5180 O   0  0  0  0  0  0  0  0  0  0  0  0
   58.4960   29.3780   50.8090 O   0  0  0  0  0  0  0  0  0  0  0  0
   59.6820   31.1370   49.2380 N   0  0  0  0  0  0  0  0  0  0  0  0
   60.8280   31.7690   48.6500 C   0  0  0  0  0  0  0  0  0  0  0  0
   61.1710   33.0600   49.0710 C   0  0  0  0  0  0  0  0  0  0  0  0
   62.2850   33.7110   48.5300 C   0  0  0  0  0  0  0  0  0  0  0  0
   63.0650   33.0740   47.5610 C   0  0  0  0  0  0  0  0  0  0  0  0
   64.1460   33.7030   47.0360 F   0  0  0  0  0  0  0  0  0  0  0  0
   62.7300   31.7880   47.1340 C   0  0  0  0  0  0  0  0  0  0  0  0
   61.6150   31.1360   47.6690 C   0  0  0  0  0  0  0  0  0  0  0  0
   58.1580   28.2860   47.8510 C   0  0  0  0  0  0  0  0  0  0  0  0
   57.8220   31.0720   43.4030 N   0  0  0  0  0  0  0  0  0  0  0  0
   57.7520   32.5280   43.3300 C   0  0  0  0  0  0  0  0  0  0  0  0
   58.1580   33.1410   44.6430 C   0  0  0  0  0  0  0  0  0  0  0  0
   57.5760   32.7070   45.8460 C   0  0  0  0  0  0  0  0  0  0  0  0
   57.9570   33.2880   47.0600 C   0  0  0  0  0  0  0  0  0  0  0  0
   58.9190   34.3040   47.0830 C   0  0  0  0  0  0  0  0  0  0  0  0
   59.4990   34.7420   45.8880 C   0  0  0  0  0  0  0  0  0  0  0  0
   59.1200   34.1640   44.6710 C   0  0  0  0  0  0  0  0  0  0  0  0
   56.5518   28.3507   43.1389 H   0  0  0  0  0  0  0  0  0  0  0  0
   57.9995   28.5267   44.1853 H   0  0  0  0  0  0  0  0  0  0  0  0
   58.8823   25.8462   45.5618 H   0  0  0  0  0  0  0  0  0  0  0  0
   61.1164   26.0559   46.6452 H   0  0  0  0  0  0  0  0  0  0  0  0
   61.4680   27.7002   48.4901 H   0  0  0  0  0  0  0  0  0  0  0  0
   60.5598   33.5660   49.8329 H   0  0  0  0  0  0  0  0  0  0  0  0
   62.5470   34.7246   48.8675 H   0  0  0  0  0  0  0  0  0  0  0  0
   63.3458   31.2855   46.3735 H   0  0  0  0  0  0  0  0  0  0  0  0
   61.3518   30.1257   47.3226 H   0  0  0  0  0  0  0  0  0  0  0  0
   57.3202   28.9084   48.1986 H   0  0  0  0  0  0  0  0  0  0  0  0
   58.6840   30.5970   43.0570 H   0  0  0  0  0  0  0  0  0  0  0  0
   58.4290   32.8839   42.5395 H   0  0  0  0  0  0  0  0  0  0  0  0
   56.7169   32.8238   43.1039 H   0  0  0  0  0  0  0  0  0  0  0  0
   56.8193   31.9088   45.8331 H   0  0  0  0  0  0  0  0  0  0  0  0
   57.4990   32.9452   47.9995 H   0  0  0  0  0  0  0  0  0  0  0  0
   59.2186   34.7575   48.0394 H   0  0  0  0  0  0  0  0  0  0  0  0
   60.2540   35.5418   45.9047 H   0  0  0  0  0  0  0  0  0  0  0  0
   59.5772   34.5122   43.7330 H   0  0  0  0  0  0  0  0  0  0  0  0
  1  2  2  0
  2  3  1  0
  3  4  1  0
  4  5  1  0
  5  6  2  0
  5  7  1  0
  7  8  2  0
  8  9  1  0
  9 10  2  0
 10 11  1  0
 11 12  1  0
 12 13  2  0
 12 14  2  0
 12 15  1  0
 15 16  1  0
 16 17  2  0
 17 18  1  0
 18 19  2  0
 19 20  1  0
 19 21  1  0
 21 22  2  0
 11 23  2  0
  2 24  1  0
 24 25  1  0
 25 26  1  0
 26 27  2  0
 27 28  1  0
 28 29  2  0
 29 30  1  0
 30 31  2  0
 23  7  1  0
 31 26  1  0
 22 16  1  0
  3 32  1  0
  3 33  1  0
  8 34  1  0
  9 35  1  0
 10 36  1  0
 17 37  1  0
 18 38  1  0
 21 39  1  0
 22 40  1  0
 23 41  1  0
 24 42  1  0
 25 43  1  0
 25 44  1  0
 27 45  1  0
 28 46  1  0
 29 47  1  0
 30 48  1  0
 31 49  1  0
M  CHG  2   4  -1  15  -1
M  END
>  <UniqueID>  (6) 
4

>  <SMILES>  (6) 
O=C(C[N-]C(=O)c1cccc(S(=O)(=O)[N-]c2ccc(F)cc2)c1)NCc1ccccc1

>  <Energy>  (6) 
54.79180118182157

>  <Genealogy>  (6) 
O=C(C[N-]C(=O)c1cccc(S(=O)(=O)[N-]c2ccc(F)cc2)c1)NCc1ccccc1 (protonated)
O=C(C[N-]C(=O)c1cccc(S(=O)(=O)[N-]c2ccc(F)cc2)c1)NCc1ccccc1 (3D coordinates assigned)
O=C(C[N-]C(=O)c1cccc(S(=O)(=O)[N-]c2ccc(F)cc2)c1)NCc1ccccc1 (optimized conformer: 54.79180118182157 kcal/mol)

>  <smiles>  (6) 
O=C(CNC(=O)c1cccc(S(=O)(=O)Nc2ccc(F)cc2)c1)NCc1ccccc1

>  <score_type>  (6) 
oracle

>  <origin>  (6) 
adg

>  <m_score__min__energy>  (6) 
-12.1

>  <m_primary>  (6) 
energy

$$$$
6:0
     RDKit          3D

 29 31  0  0  0  0  0  0  0  0999 V2000
   61.1610   30.0750   48.1210 O   0  0  0  0  0  0  0  0  0  0  0  0
   59.9320   29.8240   48.0230 C   0  0  0  0  0  0  0  0  0  0  0  0
   59.1330   29.8860   49.1570 O   0  0  0  0  0  0  0  0  0  0  0  0
   59.3180   29.5090   46.7200 C   0  0  0  0  0  0  0  0  0  0  0  0
   58.7270   30.3350   45.8500 C   0  0  0  0  0  0  0  0  0  0  0  0
   58.7270   31.8130   45.9050 C   0  0  0  0  0  0  0  0  0  0  0  0
   57.6450   32.5380   45.3790 C   0  0  0  0  0  0  0  0  0  0  0  0
   57.6570   33.9360   45.3970 C   0  0  0  0  0  0  0  0  0  0  0  0
   58.7550   34.6200   45.9240 C   0  0  0  0  0  0  0  0  0  0  0  0
   59.8440   33.9080   46.4320 C   0  0  0  0  0  0  0  0  0  0  0  0
   59.8360   32.5100   46.4160 C   0  0  0  0  0  0  0  0  0  0  0  0
   58.0250   29.5490   44.7480 C   0  0  0  0  0  0  0  0  0  0  0  0
   58.4410   28.0720   45.0100 C   0  0  2  0  0  0  0  0  0  0  0  0
   57.5190   27.0560   45.4900 C   0  0  2  0  0  0  0  0  0  0  0  0
   56.0740   27.4590   45.6230 C   0  0  0  0  0  0  0  0  0  0  0  0
   55.6750   28.5940   45.2440 O   0  0  0  0  0  0  0  0  0  0  0  0
   55.1570   26.5500   46.1320 O   0  0  0  0  0  0  0  0  0  0  0  0
   58.2660   27.0800   46.7910 C   0  0  0  0  0  0  0  0  0  0  0  0
   58.1840   26.4580   47.8820 O   0  0  0  0  0  0  0  0  0  0  0  0
   59.0900   28.1980   46.2790 N   0  0  0  0  0  0  0  0  0  0  0  0
   56.7842   32.0034   44.9509 H   0  0  0  0  0  0  0  0  0  0  0  0
   56.8007   34.4979   44.9957 H   0  0  0  0  0  0  0  0  0  0  0  0
   58.7620   35.7199   45.9389 H   0  0  0  0  0  0  0  0  0  0  0  0
   60.7089   34.4478   46.8451 H   0  0  0  0  0  0  0  0  0  0  0  0
   60.7011   31.9530   46.8049 H   0  0  0  0  0  0  0  0  0  0  0  0
   56.9336   29.6658   44.8199 H   0  0  0  0  0  0  0  0  0  0  0  0
   58.3035   29.8935   43.7411 H   0  0  0  0  0  0  0  0  0  0  0  0
   58.8553   27.7595   44.0401 H   0  0  0  0  0  0  0  0  0  0  0  0
   57.3576   26.1380   44.9059 H   0  0  0  0  0  0  0  0  0  0  0  0
  1  2  2  0
  2  3  1  0
  2  4  1  0
  4  5  2  0
  5  6  1  0
  6  7  2  0
  7  8  1  0
  8  9  2  0
  9 10  1  0
 10 11  2  0
  5 12  1  0
 12 13  1  0
 13 14  1  0
 14 15  1  0
 15 16  2  0
 15 17  1  0
 14 18  1  0
 18 19  2  0
 18 20  1  0
 20  4  1  0
 11  6  1  0
 20 13  1  0
  7 21  1  0
  8 22  1  0
  9 23  1  0
 10 24  1  0
 11 25  1  0
 12 26  1  0
 12 27  1  0
 13 28  1  6
 14 29  1  6
M  CHG  2   3  -1  17  -1
M  END
>  <UniqueID>  (7) 
5

>  <SMILES>  (7) 
O=C([O-])C1=C(c2ccccc2)C[C@@H]2[C@H](C(=O)[O-])C(=O)N12

>  <Energy>  (7) 
113.7611180604812

>  <Genealogy>  (7) 
O=C([O-])C1=C(c2ccccc2)CC2C(C(=O)[O-])C(=O)N12 (protonated)
O=C([O-])C1=C(c2ccccc2)C[C@@H]2[C@H](C(=O)[O-])C(=O)N12 (chirality)
O=C([O-])C1=C(c2ccccc2)C[C@@H]2[C@H](C(=O)[O-])C(=O)N12 (3D coordinates assigned)
O=C([O-])C1=C(c2ccccc2)C[C@@H]2[C@H](C(=O)[O-])C(=O)N12 (nonaromatic ring conformer: 113.7611180604812 kcal/mol)

>  <smiles>  (7) 
O=C(O)C1=C(c2ccccc2)CC2C(C(=O)O)C(=O)N12

>  <score_type>  (7) 
oracle

>  <origin>  (7) 
adg

>  <m_score__min__energy>  (7) 
-10.6

>  <m_primary>  (7) 
energy

$$$$
7:0
     RDKit          3D

 47 49  0  0  0  0  0  0  0  0999 V2000
   58.0060   29.0320   43.0490 H   0  0  0  0  0  0  0  0  0  0  0  0
   57.4690   29.8250   43.3730 O   0  0  0  0  0  0  0  0  0  0  0  0
   57.9060   30.7270   44.3530 C   0  0  0  0  0  0  0  0  0  0  0  0
   58.2220   30.2210   45.6200 C   0  0  0  0  0  0  0  0  0  0  0  0
   58.1590   28.7510   45.8560 C   0  0  0  0  0  0  0  0  0  0  0  0
   57.9296   28.3794   46.8656 H   0  0  0  0  0  0  0  0  0  0  0  0
   58.3680   27.8980   44.9000 N   0  0  0  0  0  0  0  0  0  0  0  0
   58.6270   26.4880   45.1530 C   0  0  0  0  0  0  0  0  0  0  0  0
   59.2947   26.0917   44.3738 H   0  0  0  0  0  0  0  0  0  0  0  0
   59.1050   26.3724   46.1369 H   0  0  0  0  0  0  0  0  0  0  0  0
   57.3300   25.7330   45.1330 C   0  0  0  0  0  0  0  0  0  0  0  0
   56.3130   26.0360   46.0520 C   0  0  0  0  0  0  0  0  0  0  0  0
   56.4515   26.8541   46.7742 H   0  0  0  0  0  0  0  0  0  0  0  0
   55.1570   25.3200   46.0510 N   0  0  0  0  0  0  0  0  0  0  0  0
   54.9510   24.2940   45.1840 C   0  0  0  0  0  0  0  0  0  0  0  0
   54.0029   23.7367   45.2068 H   0  0  0  0  0  0  0  0  0  0  0  0
   55.9430   23.9470   44.2640 C   0  0  0  0  0  0  0  0  0  0  0  0
   55.7832   23.1156   43.5617 H   0  0  0  0  0  0  0  0  0  0  0  0
   57.1390   24.6660   44.2450 C   0  0  0  0  0  0  0  0  0  0  0  0
   57.9321   24.3950   43.5326 H   0  0  0  0  0  0  0  0  0  0  0  0
   58.5780   31.1310   46.6280 C   0  0  0  0  0  0  0  0  0  0  0  0
   58.9020   30.6970   47.7690 O   0  0  0  0  0  0  0  0  0  0  0  0
   58.5660   32.4830   46.3880 N   0  0  0  0  0  0  0  0  0  0  0  0
   58.8680   33.4150   47.5050 C   0  0  0  0  0  0  0  0  0  0  0  0
   58.2546   33.1417   48.3762 H   0  0  0  0  0  0  0  0  0  0  0  0
   58.6391   34.4393   47.1757 H   0  0  0  0  0  0  0  0  0  0  0  0
   60.3270   33.3510   47.8900 C   0  0  0  0  0  0  0  0  0  0  0  0
   61.3160   33.1690   46.9080 C   0  0  0  0  0  0  0  0  0  0  0  0
   61.0251   33.0652   45.8522 H   0  0  0  0  0  0  0  0  0  0  0  0
   62.6660   33.1190   47.2640 C   0  0  0  0  0  0  0  0  0  0  0  0
   63.4308   32.9605   46.4895 H   0  0  0  0  0  0  0  0  0  0  0  0
   63.0510   33.2700   48.6050 C   0  0  0  0  0  0  0  0  0  0  0  0
   64.4960   33.1740   48.9910 C   0  0  0  0  0  0  0  0  0  0  0  0
   64.5830   33.1682   50.0875 H   0  0  0  0  0  0  0  0  0  0  0  0
   64.9232   32.2455   48.5844 H   0  0  0  0  0  0  0  0  0  0  0  0
   65.0423   34.0378   48.5844 H   0  0  0  0  0  0  0  0  0  0  0  0
   62.0670   33.4460   49.5880 C   0  0  0  0  0  0  0  0  0  0  0  0
   62.3593   33.5436   50.6440 H   0  0  0  0  0  0  0  0  0  0  0  0
   60.7150   33.4980   49.2320 C   0  0  0  0  0  0  0  0  0  0  0  0
   59.9511   33.6550   50.0078 H   0  0  0  0  0  0  0  0  0  0  0  0
   58.2550   32.9560   45.1270 C   0  0  0  0  0  0  0  0  0  0  0  0
   58.1470   34.5910   44.8630 S   0  0  0  0  0  0  0  0  0  0  0  0
   58.0050   32.0720   44.0950 N   0  0  0  0  0  0  0  0  0  0  0  0
   57.8060   32.5440   42.7080 C   0  0  0  0  0  0  0  0  0  0  0  0
   57.3787   33.5575   42.7233 H   0  0  0  0  0  0  0  0  0  0  0  0
   58.7732   32.5618   42.1844 H   0  0  0  0  0  0  0  0  0  0  0  0
   57.1180   31.8639   42.1844 H   0  0  0  0  0  0  0  0  0  0  0  0
  1  2  1  0
  2  3  1  0
  3  4  2  0
  4  5  1  0
  5  6  1  0
  5  7  2  0
  7  8  1  0
  8  9  1  0
  8 10  1  0
  8 11  1  0
 11 12  2  0
 12 13  1  0
 12 14  1  0
 14 15  2  0
 15 16  1  0
 15 17  1  0
 17 18  1  0
 17 19  2  0
 19 20  1  0
  4 21  1  0
 21 22  2  0
 21 23  1  0
 23 24  1  0
 24 25  1  0
 24 26  1  0
 24 27  1  0
 27 28  2  0
 28 29  1  0
 28 30  1  0
 30 31  1  0
 30 32  2  0
 32 33  1  0
 33 34  1  0
 33 35  1  0
 33 36  1  0
 32 37  1  0
 37 38  1  0
 37 39  2  0
 39 40  1  0
 23 41  1  0
 41 42  2  0
 41 43  1  0
 43 44  1  0
 44 45  1  0
 44 46  1  0
 44 47  1  0
 43  3  1  0
 19 11  1  0
 39 27  1  0
M  END
>  <UniqueID>  (8) 
6

>  <SMILES>  (8) 
Cc1ccc(Cn2c(=O)c(/C=N/Cc3cccnc3)c(O)n(C)c2=S)cc1

>  <Energy>  (8) 
65.57103739589404

>  <Genealogy>  (8) 
Cc1ccc(Cn2c(=O)c(/C=N/Cc3cccnc3)c(O)n(C)c2=S)cc1 (cis-trans isomerization)
Cc1ccc(Cn2c(=O)c(/C=N/Cc3cccnc3)c(O)n(C)c2=S)cc1 (3D coordinates assigned)
Cc1ccc(Cn2c(=O)c(/C=N/Cc3cccnc3)c(O)n(C)c2=S)cc1 (optimized conformer: 65.57103739589404 kcal/mol)

>  <smiles>  (8) 
Cc1ccc(Cn2c(=O)c(C=NCc3cccnc3)c(O)n(C)c2=S)cc1

>  <score_type>  (8) 
oracle

>  <origin>  (8) 
adg

>  <m_score__min__energy>  (8) 
-7.8300000000000001

>  <m_primary>  (8) 
energy

$$$$
8:0
     RDKit          3D

 41 42  0  0  0  0  0  0  0  0999 V2000
   55.3970   29.0300   52.1280 O   0  0  0  0  0  0  0  0  0  0  0  0
   55.7470   30.2400   52.0460 C   0  0  0  0  0  0  0  0  0  0  0  0
   57.2000   30.5900   52.0110 C   0  0  0  0  0  0  0  0  0  0  0  0
   57.4700   31.6170   51.0070 N   0  0  0  0  0  0  0  0  0  0  0  0
   58.1470   31.4300   49.7540 C   0  0  0  0  0  0  0  0  0  0  0  0
   58.3070   32.4260   49.0010 O   0  0  0  0  0  0  0  0  0  0  0  0
   58.6480   30.0900   49.3000 C   0  0  0  0  0  0  0  0  0  0  0  0
   59.6500   30.2600   48.2550 N   0  0  0  0  0  0  0  0  0  0  0  0
   59.6230   29.5210   47.0300 C   0  0  0  0  0  0  0  0  0  0  0  0
   60.6000   29.5920   46.2360 O   0  0  0  0  0  0  0  0  0  0  0  0
   58.4480   28.6850   46.6920 C   0  0  0  0  0  0  0  0  0  0  0  0
   57.3950   29.2110   45.9200 C   0  0  0  0  0  0  0  0  0  0  0  0
   56.2880   28.4200   45.5980 C   0  0  0  0  0  0  0  0  0  0  0  0
   55.2480   28.9580   44.8490 O   0  0  0  0  0  0  0  0  0  0  0  0
   56.2240   27.0920   46.0340 C   0  0  0  0  0  0  0  0  0  0  0  0
   55.1250   26.3050   45.7080 O   0  0  0  0  0  0  0  0  0  0  0  0
   57.2670   26.5530   46.7960 C   0  0  0  0  0  0  0  0  0  0  0  0
   57.1980   25.2300   47.2250 O   0  0  0  0  0  0  0  0  0  0  0  0
   58.3750   27.3490   47.1240 C   0  0  0  0  0  0  0  0  0  0  0  0
   54.7660   31.2750   51.9240 N   0  0  0  0  0  0  0  0  0  0  0  0
   53.4310   31.0640   51.3780 C   0  0  0  0  0  0  0  0  0  0  0  0
   52.3910   31.3490   52.4310 C   0  0  0  0  0  0  0  0  0  0  0  0
   52.5430   30.7880   53.7120 C   0  0  0  0  0  0  0  0  0  0  0  0
   51.5660   30.9920   54.6930 C   0  0  0  0  0  0  0  0  0  0  0  0
   50.4350   31.7610   54.4080 C   0  0  0  0  0  0  0  0  0  0  0  0
   50.2780   32.3280   53.1400 C   0  0  0  0  0  0  0  0  0  0  0  0
   51.2480   32.1260   52.1510 C   0  0  0  0  0  0  0  0  0  0  0  0
   51.0680   32.7000   50.8970 O   0  0  0  0  0  0  0  0  0  0  0  0
   57.5029   30.9656   52.9995 H   0  0  0  0  0  0  0  0  0  0  0  0
   57.7706   29.6868   51.7489 H   0  0  0  0  0  0  0  0  0  0  0  0
   59.0977   29.5611   50.1532 H   0  0  0  0  0  0  0  0  0  0  0  0
   57.8056   29.5060   48.9008 H   0  0  0  0  0  0  0  0  0  0  0  0
   57.4434   30.2519   45.5675 H   0  0  0  0  0  0  0  0  0  0  0  0
   56.4130   24.6360   46.9850 H   0  0  0  0  0  0  0  0  0  0  0  0
   59.1933   26.9243   47.7241 H   0  0  0  0  0  0  0  0  0  0  0  0
   53.2769   31.7379   50.5224 H   0  0  0  0  0  0  0  0  0  0  0  0
   53.3362   30.0178   51.0515 H   0  0  0  0  0  0  0  0  0  0  0  0
   53.4341   30.1861   53.9437 H   0  0  0  0  0  0  0  0  0  0  0  0
   51.6889   30.5458   55.6909 H   0  0  0  0  0  0  0  0  0  0  0  0
   49.6686   31.9202   55.1808 H   0  0  0  0  0  0  0  0  0  0  0  0
   49.3883   32.9356   52.9183 H   0  0  0  0  0  0  0  0  0  0  0  0
  1  2  2  0
  2  3  1  0
  3  4  1  0
  4  5  1  0
  5  6  2  0
  5  7  1  0
  7  8  1  0
  8  9  1  0
  9 10  2  0
  9 11  1  0
 11 12  2  0
 12 13  1  0
 13 14  1  0
 13 15  2  0
 15 16  1  0
 15 17  1  0
 17 18  1  0
 17 19  2  0
  2 20  1  0
 20 21  1  0
 21 22  1  0
 22 23  2  0
 23 24  1  0
 24 25  2  0
 25 26  1  0
 26 27  2  0
 27 28  1  0
 19 11  1  0
 27 22  1  0
  3 29  1  0
  3 30  1  0
  7 31  1  0
  7 32  1  0
 12 33  1  0
 18 34  1  0
 19 35  1  0
 21 36  1  0
 21 37  1  0
 23 38  1  0
 24 39  1  0
 25 40  1  0
 26 41  1  0
M  CHG  6   4  -1   8  -1  14  -1  16  -1  20  -1  28  -1
M  END
>  <UniqueID>  (9) 
7

>  <SMILES>  (9) 
O=C(C[N-]C(=O)C[N-]C(=O)c1cc([O-])c([O-])c(O)c1)[N-]Cc1ccccc1[O-]

>  <Energy>  (9) 
32.961314720127845

>  <Genealogy>  (9) 
O=C(C[N-]C(=O)C[N-]C(=O)c1cc([O-])c([O-])c(O)c1)[N-]Cc1ccccc1[O-] (protonated)
O=C(C[N-]C(=O)C[N-]C(=O)c1cc([O-])c([O-])c(O)c1)[N-]Cc1ccccc1[O-] (3D coordinates assigned)
O=C(C[N-]C(=O)C[N-]C(=O)c1cc([O-])c([O-])c(O)c1)[N-]Cc1ccccc1[O-] (optimized conformer: 32.961314720127845 kcal/mol)

>  <smiles>  (9) 
O=C(CNC(=O)CNC(=O)c1cc(O)c(O)c(O)c1)NCc1ccccc1O

>  <score_type>  (9) 
oracle

>  <origin>  (9) 
adg

>  <m_score__min__energy>  (9) 
-22.300000000000001

>  <m_primary>  (9) 
energy

$$$$
9:0
     RDKit          3D

 54 56  0  0  1  0  0  0  0  0999 V2000
   60.4400   27.3660   48.0940 C   0  0  0  0  0  0  0  0  0  0  0  0
   60.2220   28.7280   48.0130 O   0  0  0  0  0  0  0  0  0  0  0  0
   59.6830   29.2820   49.1490 C   0  0  0  0  0  0  0  0  0  0  0  0
   58.8910   30.5410   48.9190 C   0  0  0  0  0  0  0  0  0  0  0  0
   59.1190   31.0540   47.5820 N   0  0  0  0  0  0  0  0  0  0  0  0
   58.4130   32.2590   47.2440 C   0  0  0  0  0  0  0  0  0  0  0  0
   57.6860   32.7310   48.1370 O   0  0  0  0  0  0  0  0  0  0  0  0
   58.5450   32.8830   45.9410 C   0  0  0  0  0  0  0  0  0  0  0  0
   57.9350   32.4640   44.7890 C   0  0  0  0  0  0  0  0  0  0  0  0
   56.9800   31.3880   44.4980 C   0  0  0  0  0  0  0  0  0  0  0  0
   57.5670   30.0770   44.7570 C   0  0  0  0  0  0  0  0  0  0  0  0
   58.9320   29.9290   44.5120 C   0  0  0  0  0  0  0  0  0  0  0  0
   59.5920   28.7450   44.7390 C   0  0  0  0  0  0  0  0  0  0  0  0
   58.9140   27.6340   45.2280 C   0  0  0  0  0  0  0  0  0  0  0  0
   57.5670   27.7680   45.4740 C   0  0  0  0  0  0  0  0  0  0  0  0
   56.8000   26.6020   46.0000 C   0  0  0  0  0  0  0  0  0  0  0  0
   56.9190   28.9710   45.2390 C   0  0  0  0  0  0  0  0  0  0  0  0
   58.3630   33.3140   43.7990 N   0  0  0  0  0  0  0  0  0  0  0  0
   59.1850   34.2090   44.2940 N   0  0  0  0  0  0  0  0  0  0  0  0
   59.3230   33.9750   45.6190 C   0  0  0  0  0  0  0  0  0  0  0  0
   60.0740   34.7030   46.3620 N   0  0  0  0  0  0  0  0  0  0  0  0
   61.1220   34.1570   47.1560 C   0  0  0  0  0  0  0  0  0  0  0  0
   62.2620   33.7360   46.4590 C   0  0  0  0  0  0  0  0  0  0  0  0
   63.3310   33.1930   47.1570 C   0  0  0  0  0  0  0  0  0  0  0  0
   63.2460   33.0790   48.5340 C   0  0  0  0  0  0  0  0  0  0  0  0
   64.6080   32.3900   49.4000 Cl  0  0  0  0  0  0  0  0  0  0  0  0
   62.1150   33.5000   49.2000 C   0  0  0  0  0  0  0  0  0  0  0  0
   61.0410   34.0420   48.5280 C   0  0  0  0  0  0  0  0  0  0  0  0
   59.8290   34.4950   49.2240 C   0  0  0  0  0  0  0  0  0  0  0  0
   60.4882   27.0646   49.1508 H   0  0  0  0  0  0  0  0  0  0  0  0
   59.6158   26.8326   47.5978 H   0  0  0  0  0  0  0  0  0  0  0  0
   61.3895   27.1165   47.5978 H   0  0  0  0  0  0  0  0  0  0  0  0
   59.0174   28.5378   49.6107 H   0  0  0  0  0  0  0  0  0  0  0  0
   60.5311   29.5611   49.7915 H   0  0  0  0  0  0  0  0  0  0  0  0
   57.8203   30.3217   49.0437 H   0  0  0  0  0  0  0  0  0  0  0  0
   59.2132   31.2991   49.6480 H   0  0  0  0  0  0  0  0  0  0  0  0
   59.7550   30.5670   46.9230 H   0  0  0  0  0  0  0  0  0  0  0  0
   56.0914   31.5152   45.1338 H   0  0  0  0  0  0  0  0  0  0  0  0
   56.7066   31.4432   43.4339 H   0  0  0  0  0  0  0  0  0  0  0  0
   59.4990   30.7882   44.1243 H   0  0  0  0  0  0  0  0  0  0  0  0
   60.6700   28.6755   44.5312 H   0  0  0  0  0  0  0  0  0  0  0  0
   59.4354   26.6829   45.4114 H   0  0  0  0  0  0  0  0  0  0  0  0
   56.8124   26.6209   47.0998 H   0  0  0  0  0  0  0  0  0  0  0  0
   55.7606   26.6562   45.6441 H   0  0  0  0  0  0  0  0  0  0  0  0
   57.2613   25.6690   45.6441 H   0  0  0  0  0  0  0  0  0  0  0  0
   55.8412   29.0398   45.4481 H   0  0  0  0  0  0  0  0  0  0  0  0
   58.0980   33.2910   42.7880 H   0  0  0  0  0  0  0  0  0  0  0  0
   59.6600   34.9850   43.7450 H   0  0  0  0  0  0  0  0  0  0  0  0
   62.3093   33.8354   45.3645 H   0  0  0  0  0  0  0  0  0  0  0  0
   64.2330   32.8579   46.6240 H   0  0  0  0  0  0  0  0  0  0  0  0
   62.0686   33.4009   50.2945 H   0  0  0  0  0  0  0  0  0  0  0  0
   59.9867   34.4360   50.3110 H   0  0  0  0  0  0  0  0  0  0  0  0
   59.6109   35.5354   48.9410 H   0  0  0  0  0  0  0  0  0  0  0  0
   58.9820   33.8528   48.9410 H   0  0  0  0  0  0  0  0  0  0  0  0
  1  2  1  0
  2  3  1  0
  3  4  1  0
  4  5  1  0
  5  6  1  0
  6  7  2  0
  6  8  1  0
  8  9  2  0
  9 10  1  0
 10 11  1  0
 11 12  2  0
 12 13  1  0
 13 14  2  0
 14 15  1  0
 15 16  1  0
 15 17  2  0
  9 18  1  0
 18 19  1  0
 19 20  1  0
 20 21  2  0
 21 22  1  0
 22 23  2  0
 23 24  1  0
 24 25  2  0
 25 26  1  0
 25 27  1  0
 27 28  2  0
 28 29  1  0
 20  8  1  0
 28 22  1  0
 17 11  1  0
  1 30  1  0
  1 31  1  0
  1 32  1  0
  3 33  1  0
  3 34  1  0
  4 35  1  0
  4 36  1  0
  5 37  1  0
 10 38  1  0
 10 39  1  0
 12 40  1  0
 13 41  1  0
 14 42  1  0
 16 43  1  0
 16 44  1  0
 16 45  1  0
 17 46  1  0
 18 47  1  0
 19 48  1  0
 23 49  1  0
 24 50  1  0
 27 51  1  0
 29 52  1  0
 29 53  1  0
 29 54  1  0
M  END
>  <smiles>  (10) 
COCCNC(=O)c1c(Cc2cccc(C)c2)[nH][nH]c1=Nc1ccc(Cl)cc1C

>  <score_type>  (10) 
oracle

>  <origin>  (10) 
adg

>  <m_score__min__energy>  (10) 
-8.2699999999999996

>  <m_primary>  (10) 
energy

$$$$
10:0
     RDKit          3D

 53 55  0  0  0  0  0  0  0  0999 V2000
   63.3950   33.9090   46.0040 C   0  0  0  0  0  0  0  0  0  0  0  0
   62.2950   33.6450   46.9980 C   0  0  0  0  0  0  0  0  0  0  0  0
   60.9760   34.0100   46.6730 C   0  0  0  0  0  0  0  0  0  0  0  0
   59.9250   33.7870   47.5800 C   0  0  0  0  0  0  0  0  0  0  0  0
   58.5970   34.1410   47.2960 O   0  0  0  0  0  0  0  0  0  0  0  0
   58.0380   34.1990   45.9870 C   0  0  0  0  0  0  0  0  0  0  0  0
   57.8050   32.8130   45.4920 C   0  0  0  0  0  0  0  0  0  0  0  0
   58.7770   31.8930   45.3440 N   0  0  0  0  0  0  0  0  0  0  0  0
   58.0730   30.8340   44.8890 C   0  0  0  0  0  0  0  0  0  0  0  0
   58.7010   29.4900   44.6100 C   0  0  0  0  0  0  0  0  0  0  0  0
   57.6640   28.4080   44.2630 C   0  0  0  0  0  0  0  0  0  0  0  0
   56.9460   27.8140   45.4940 C   0  0  0  0  0  0  0  0  0  0  0  0
   57.8450   27.4940   46.6180 N   0  0  0  0  0  0  0  0  0  0  0  0
   58.5490   25.8880   46.5490 S   0  0  0  0  0  0  0  0  0  0  0  0
   58.1190   24.9620   45.0890 C   0  0  0  0  0  0  0  0  0  0  0  0
   60.0490   25.9760   46.6240 O   0  0  0  0  0  0  0  0  0  0  0  0
   58.0640   25.1130   47.7420 O   0  0  0  0  0  0  0  0  0  0  0  0
   58.7940   28.5660   46.9670 C   0  0  0  0  0  0  0  0  0  0  0  0
   59.6090   29.0400   45.7620 C   0  0  0  0  0  0  0  0  0  0  0  0
   56.7560   31.0980   44.7860 N   0  0  0  0  0  0  0  0  0  0  0  0
   56.6310   32.3330   45.1640 O   0  0  0  0  0  0  0  0  0  0  0  0
   60.2010   33.1910   48.8100 C   0  0  0  0  0  0  0  0  0  0  0  0
   61.5030   32.8150   49.1420 C   0  0  0  0  0  0  0  0  0  0  0  0
   62.5660   33.0380   48.2490 C   0  0  0  0  0  0  0  0  0  0  0  0
   63.9040   32.6290   48.5900 N   0  0  0  0  0  0  0  0  0  0  0  0
   64.5710   32.7760   50.1860 S   0  0  0  0  0  0  0  0  0  0  0  0
   66.3500   32.7120   50.1200 C   0  0  0  0  0  0  0  0  0  0  0  0
   64.1180   34.0630   50.8160 O   0  0  0  0  0  0  0  0  0  0  0  0
   64.0860   31.6260   51.0240 O   0  0  0  0  0  0  0  0  0  0  0  0
   64.3285   34.1330   46.5410 H   0  0  0  0  0  0  0  0  0  0  0  0
   63.5396   33.0201   45.3724 H   0  0  0  0  0  0  0  0  0  0  0  0
   63.1204   34.7667   45.3724 H   0  0  0  0  0  0  0  0  0  0  0  0
   60.7645   34.4749   45.6988 H   0  0  0  0  0  0  0  0  0  0  0  0
   57.0829   34.7438   46.0186 H   0  0  0  0  0  0  0  0  0  0  0  0
   58.7318   34.7209   45.3116 H   0  0  0  0  0  0  0  0  0  0  0  0
   59.3282   29.6238   43.7163 H   0  0  0  0  0  0  0  0  0  0  0  0
   56.9065   28.8534   43.6014 H   0  0  0  0  0  0  0  0  0  0  0  0
   58.2107   27.5832   43.7826 H   0  0  0  0  0  0  0  0  0  0  0  0
   56.2005   28.5430   45.8444 H   0  0  0  0  0  0  0  0  0  0  0  0
   56.4925   26.8656   45.1701 H   0  0  0  0  0  0  0  0  0  0  0  0
   57.6725   24.0006   45.3828 H   0  0  0  0  0  0  0  0  0  0  0  0
   57.3949   25.5351   44.4913 H   0  0  0  0  0  0  0  0  0  0  0  0
   59.0241   24.7786   44.4913 H   0  0  0  0  0  0  0  0  0  0  0  0
   58.2295   29.4200   47.3694 H   0  0  0  0  0  0  0  0  0  0  0  0
   59.4979   28.1616   47.7093 H   0  0  0  0  0  0  0  0  0  0  0  0
   60.2421   29.8855   46.0691 H   0  0  0  0  0  0  0  0  0  0  0  0
   60.2231   28.1986   45.4085 H   0  0  0  0  0  0  0  0  0  0  0  0
   59.3842   33.0155   49.5256 H   0  0  0  0  0  0  0  0  0  0  0  0
   61.7002   32.3386   50.1137 H   0  0  0  0  0  0  0  0  0  0  0  0
   64.5620   32.3180   47.8420 H   0  0  0  0  0  0  0  0  0  0  0  0
   66.7546   32.6974   51.1428 H   0  0  0  0  0  0  0  0  0  0  0  0
   66.6647   31.8020   49.5882 H   0  0  0  0  0  0  0  0  0  0  0  0
   66.7293   33.5971   49.5882 H   0  0  0  0  0  0  0  0  0  0  0  0
  1  2  1  0
  2  3  2  0
  3  4  1  0
  4  5  1  0
  5  6  1  0
  6  7  1  0
  7  8  2  0
  8  9  1  0
  9 10  1  0
 10 11  1  0
 11 12  1  0
 12 13  1  0
 13 14  1  0
 14 15  1  0
 14 16  2  0
 14 17  2  0
 13 18  1  0
 18 19  1  0
  9 20  2  0
 20 21  1  0
  4 22  2  0
 22 23  1  0
 23 24  2  0
 24 25  1  0
 25 26  1  0
 26 27  1  0
 26 28  2  0
 26 29  2  0
 24  2  1  0
 21  7  1  0
 19 10  1  0
  1 30  1  0
  1 31  1  0
  1 32  1  0
  3 33  1  0
  6 34  1  0
  6 35  1  0
 10 36  1  0
 11 37  1  0
 11 38  1  0
 12 39  1  0
 12 40  1  0
 15 41  1  0
 15 42  1  0
 15 43  1  0
 18 44  1  0
 18 45  1  0
 19 46  1  0
 19 47  1  0
 22 48  1  0
 23 49  1  0
 25 50  1  0
 27 51  1  0
 27 52  1  0
 27 53  1  0
M  END
>  <UniqueID>  (11) 
8

>  <SMILES>  (11) 
Cc1cc(OCc2nc(C3CCN(S(C)(=O)=O)CC3)no2)ccc1NS(C)(=O)=O

>  <Energy>  (11) 
85.70307258298877

>  <Genealogy>  (11) 
Cc1cc(OCc2nc(C3CCN(S(C)(=O)=O)CC3)no2)ccc1NS(C)(=O)=O (3D coordinates assigned)
Cc1cc(OCc2nc(C3CCN(S(C)(=O)=O)CC3)no2)ccc1NS(C)(=O)=O (nonaromatic ring conformer: 85.70307258298877 kcal/mol)

>  <smiles>  (11) 
Cc1cc(OCc2nc(C3CCN(S(C)(=O)=O)CC3)no2)ccc1NS(C)(=O)=O

>  <score_type>  (11) 
oracle

>  <origin>  (11) 
adg

>  <m_score__min__energy>  (11) 
-9.1500000000000004

>  <m_primary>  (11) 
energy

$$$$
11:0
     RDKit          3D

 35 36  0  0  0  0  0  0  0  0999 V2000
   57.3720   21.4860   43.4200 C   0  0  0  0  0  0  0  0  0  0  0  0
   58.3430   21.5670   44.3330 C   0  0  0  0  0  0  0  0  0  0  0  0
   58.0540   21.9260   45.7640 C   0  0  0  0  0  0  0  0  0  0  0  0
   57.2680   23.1750   45.8400 N   0  0  0  0  0  0  0  0  0  0  0  0
   55.9120   23.1360   46.0450 C   0  0  0  0  0  0  0  0  0  0  0  0
   55.3090   22.0370   46.1850 O   0  0  0  0  0  0  0  0  0  0  0  0
   55.1940   24.2840   46.1030 N   0  0  0  0  0  0  0  0  0  0  0  0
   55.7770   25.4970   45.9500 C   0  0  0  0  0  0  0  0  0  0  0  0
   54.9890   26.6400   46.0060 O   0  0  0  0  0  0  0  0  0  0  0  0
   57.1560   25.5850   45.7210 C   0  0  0  0  0  0  0  0  0  0  0  0
   57.8040   26.9080   45.5480 C   0  0  0  0  0  0  0  0  0  0  0  0
   58.6690   27.4750   46.6470 C   0  0  0  0  0  0  0  0  0  0  0  0
   57.5630   27.5800   44.4580 N   0  0  0  0  0  0  0  0  0  0  0  0
   57.5360   29.0090   44.3620 C   0  0  0  0  0  0  0  0  0  0  0  0
   58.7310   29.7120   44.1690 C   0  0  0  0  0  0  0  0  0  0  0  0
   58.7220   31.1080   44.0920 C   0  0  0  0  0  0  0  0  0  0  0  0
   57.5180   31.8070   44.2190 C   0  0  0  0  0  0  0  0  0  0  0  0
   56.3240   31.1130   44.4310 C   0  0  0  0  0  0  0  0  0  0  0  0
   56.3270   29.7130   44.5110 C   0  0  0  0  0  0  0  0  0  0  0  0
   55.1410   29.0180   44.7410 O   0  0  0  0  0  0  0  0  0  0  0  0
   57.8950   24.3870   45.6780 C   0  0  0  0  0  0  0  0  0  0  0  0
   59.1470   24.4320   45.5070 O   0  0  0  0  0  0  0  0  0  0  0  0
   57.6152   21.2209   42.3805 H   0  0  0  0  0  0  0  0  0  0  0  0
   56.3289   21.6843   43.7074 H   0  0  0  0  0  0  0  0  0  0  0  0
   59.3812   21.3658   44.0303 H   0  0  0  0  0  0  0  0  0  0  0  0
   57.4831   21.1109   46.2327 H   0  0  0  0  0  0  0  0  0  0  0  0
   59.0079   22.0755   46.2910 H   0  0  0  0  0  0  0  0  0  0  0  0
   58.2475   27.1987   47.6248 H   0  0  0  0  0  0  0  0  0  0  0  0
   59.6874   27.0686   46.5586 H   0  0  0  0  0  0  0  0  0  0  0  0
   58.7026   28.5709   46.5586 H   0  0  0  0  0  0  0  0  0  0  0  0
   59.6805   29.1642   44.0776 H   0  0  0  0  0  0  0  0  0  0  0  0
   59.6621   31.6562   43.9315 H   0  0  0  0  0  0  0  0  0  0  0  0
   57.5106   32.9049   44.1519 H   0  0  0  0  0  0  0  0  0  0  0  0
   55.3791   31.6663   44.5354 H   0  0  0  0  0  0  0  0  0  0  0  0
   55.1350   28.0170   44.9010 H   0  0  0  0  0  0  0  0  0  0  0  0
  1  2  2  0
  2  3  1  0
  3  4  1  0
  4  5  1  0
  5  6  2  0
  5  7  1  0
  7  8  1  0
  8  9  1  0
  8 10  2  0
 10 11  1  0
 11 12  1  0
 11 13  2  3
 13 14  1  0
 14 15  2  0
 15 16  1  0
 16 17  2  0
 17 18  1  0
 18 19  2  0
 19 20  1  0
 10 21  1  0
 21 22  2  0
 21  4  1  0
 19 14  1  0
  1 23  1  0
  1 24  1  0
  2 25  1  0
  3 26  1  0
  3 27  1  0
 12 28  1  0
 12 29  1  0
 12 30  1  0
 15 31  1  0
 16 32  1  0
 17 33  1  0
 18 34  1  0
 20 35  1  0
M  CHG  2   7  -1   9  -1
M  END
>  <UniqueID>  (12) 
9

>  <SMILES>  (12) 
C=CCn1c(=O)[n-]c([O-])c(C(C)=Nc2ccccc2O)c1=O

>  <Energy>  (12) 
51.61349358088933

>  <Genealogy>  (12) 
C=CCn1c(=O)[n-]c([O-])c(C(C)=Nc2ccccc2O)c1=O (protonated)
C=CCn1c(=O)[n-]c([O-])c(C(C)=Nc2ccccc2O)c1=O (3D coordinates assigned)
C=CCn1c(=O)[n-]c([O-])c(C(C)=Nc2ccccc2O)c1=O (optimized conformer: 51.61349358088933 kcal/mol)

>  <smiles>  (12) 
C=CCn1c(=O)[nH]c(O)c(C(C)=Nc2ccccc2O)c1=O

>  <score_type>  (12) 
oracle

>  <origin>  (12) 
adg

>  <m_score__min__energy>  (12) 
-13.359999999999999

>  <m_primary>  (12) 
energy

$$$$
12:0
     RDKit          3D

 43 45  0  0  1  0  0  0  0  0999 V2000
   55.2420   29.4380   44.8730 O   0  0  0  0  0  0  0  0  0  0  0  0
   56.3180   29.7470   44.2960 C   0  0  0  0  0  0  0  0  0  0  0  0
   57.2570   28.6010   44.0300 C   0  0  0  0  0  0  0  0  0  0  0  0
   58.2700   28.5380   45.1370 C   0  0  0  0  0  0  0  0  0  0  0  0
   59.5860   28.2260   44.9250 C   0  0  0  0  0  0  0  0  0  0  0  0
   60.4090   28.2010   46.0530 C   0  0  0  0  0  0  0  0  0  0  0  0
   59.9190   28.4770   47.3150 C   0  0  0  0  0  0  0  0  0  0  0  0
   60.5940   28.4720   48.3570 O   0  0  0  0  0  0  0  0  0  0  0  0
   58.6140   28.7700   47.4060 N   0  0  0  0  0  0  0  0  0  0  0  0
   57.7970   28.8060   46.3710 N   0  0  0  0  0  0  0  0  0  0  0  0
   56.6550   31.0670   43.9090 N   0  0  0  0  0  0  0  0  0  0  0  0
   57.2880   31.9240   44.6090 C   0  0  0  0  0  0  0  0  0  0  0  0
   57.7820   33.0400   43.9490 C   0  0  0  0  0  0  0  0  0  0  0  0
   58.4650   33.9530   44.7230 C   0  0  0  0  0  0  0  0  0  0  0  0
   58.6500   33.7720   46.0830 C   0  0  0  0  0  0  0  0  0  0  0  0
   59.3850   34.7480   46.8810 C   0  0  0  0  0  0  0  0  0  0  0  0
   59.9440   35.7400   46.3830 O   0  0  0  0  0  0  0  0  0  0  0  0
   59.4570   34.5500   48.2480 O   0  0  0  0  0  0  0  0  0  0  0  0
   60.6610   34.3990   48.9770 C   0  0  0  0  0  0  0  0  0  0  0  0
   61.6010   33.4710   48.3450 C   0  0  0  0  0  0  0  0  0  0  0  0
   62.7170   33.8420   47.6490 C   0  0  0  0  0  0  0  0  0  0  0  0
   63.5960   32.9600   47.0560 C   0  0  0  0  0  0  0  0  0  0  0  0
   63.3220   31.6120   47.1790 C   0  0  0  0  0  0  0  0  0  0  0  0
   62.2010   31.1960   47.8770 C   0  0  0  0  0  0  0  0  0  0  0  0
   61.3350   32.1010   48.4630 C   0  0  0  0  0  0  0  0  0  0  0  0
   59.8000   31.5040   49.4210 Br  0  0  0  0  0  0  0  0  0  0  0  0
   58.1110   32.6200   46.6280 C   0  0  0  0  0  0  0  0  0  0  0  0
   57.4390   31.7050   45.9140 N   0  0  0  0  0  0  0  0  0  0  0  0
   56.6899   27.6592   43.9939 H   0  0  0  0  0  0  0  0  0  0  0  0
   57.7656   28.7507   43.0662 H   0  0  0  0  0  0  0  0  0  0  0  0
   59.9745   28.0066   43.9196 H   0  0  0  0  0  0  0  0  0  0  0  0
   61.4745   27.9553   45.9337 H   0  0  0  0  0  0  0  0  0  0  0  0
   58.1800   28.9890   48.3420 H   0  0  0  0  0  0  0  0  0  0  0  0
   57.6366   33.1877   42.8687 H   0  0  0  0  0  0  0  0  0  0  0  0
   58.8763   34.8543   44.2450 H   0  0  0  0  0  0  0  0  0  0  0  0
   61.1445   35.3833   49.0626 H   0  0  0  0  0  0  0  0  0  0  0  0
   60.3994   33.9825   49.9609 H   0  0  0  0  0  0  0  0  0  0  0  0
   62.9287   34.9174   47.5553 H   0  0  0  0  0  0  0  0  0  0  0  0
   64.4801   33.3161   46.5069 H   0  0  0  0  0  0  0  0  0  0  0  0
   63.9936   30.8697   46.7230 H   0  0  0  0  0  0  0  0  0  0  0  0
   61.9942   30.1194   47.9676 H   0  0  0  0  0  0  0  0  0  0  0  0
   58.2408   32.4451   47.7062 H   0  0  0  0  0  0  0  0  0  0  0  0
   57.0360   30.8390   46.3250 H   0  0  0  0  0  0  0  0  0  0  0  0
  1  2  2  0
  2  3  1  0
  3  4  1  0
  4  5  1  0
  5  6  2  0
  6  7  1  0
  7  8  2  0
  7  9  1  0
  9 10  1  0
  2 11  1  0
 11 12  2  0
 12 13  1  0
 13 14  2  0
 14 15  1  0
 15 16  1  0
 16 17  2  0
 16 18  1  0
 18 19  1  0
 19 20  1  0
 20 21  2  0
 21 22  1  0
 22 23  2  0
 23 24  1  0
 24 25  2  0
 25 26  1  0
 15 27  2  0
 27 28  1  0
 10  4  2  0
 28 12  1  0
 25 20  1  0
  3 29  1  0
  3 30  1  0
  5 31  1  0
  6 32  1  0
  9 33  1  0
 13 34  1  0
 14 35  1  0
 19 36  1  0
 19 37  1  0
 21 38  1  0
 22 39  1  0
 23 40  1  0
 24 41  1  0
 27 42  1  0
 28 43  1  0
M  END
>  <smiles>  (13) 
O=C(Cc1ccc(=O)[nH]n1)N=c1ccc(C(=O)OCc2ccccc2Br)c[nH]1

>  <score_type>  (13) 
oracle

>  <origin>  (13) 
adg

>  <m_score__min__energy>  (13) 
-9.0899999999999999

>  <m_primary>  (13) 
energy

$$$$
13:0
     RDKit          3D

 49 53  0  0  0  0  0  0  0  0999 V2000
   64.8960   32.9460   47.5110 H   0  0  0  0  0  0  0  0  0  0  0  0
   64.3490   33.4520   48.2420 N   0  0  0  0  0  0  0  0  0  0  0  0
   63.0580   33.5090   48.1900 C   0  0  0  0  0  0  0  0  0  0  0  0
   62.3060   34.2590   49.0140 N   0  0  0  0  0  0  0  0  0  0  0  0
   61.0520   34.0480   48.6420 N   0  0  0  0  0  0  0  0  0  0  0  0
   61.0970   33.1790   47.6100 C   0  0  0  0  0  0  0  0  0  0  0  0
   59.9120   32.6680   46.8970 C   0  0  0  0  0  0  0  0  0  0  0  0
   58.7190   33.4350   46.8430 C   0  0  0  0  0  0  0  0  0  0  0  0
   58.6864   34.4246   47.3222 H   0  0  0  0  0  0  0  0  0  0  0  0
   57.5790   32.9440   46.1840 C   0  0  0  0  0  0  0  0  0  0  0  0
   56.6516   33.5341   46.1433 H   0  0  0  0  0  0  0  0  0  0  0  0
   57.6560   31.6900   45.5840 C   0  0  0  0  0  0  0  0  0  0  0  0
   56.6720   31.0630   44.9150 N   0  0  0  0  0  0  0  0  0  0  0  0
   57.2270   29.8930   44.5200 C   0  0  0  0  0  0  0  0  0  0  0  0
   56.5120   28.9440   43.7940 O   0  0  0  0  0  0  0  0  0  0  0  0
   56.3540   28.0060   44.1370 H   0  0  0  0  0  0  0  0  0  0  0  0
   58.5570   29.7790   44.9320 C   0  0  0  0  0  0  0  0  0  0  0  0
   59.5370   28.6760   44.6340 C   0  0  0  0  0  0  0  0  0  0  0  0
   59.8785   28.7673   43.5923 H   0  0  0  0  0  0  0  0  0  0  0  0
   60.3902   28.7635   45.3228 H   0  0  0  0  0  0  0  0  0  0  0  0
   58.8940   27.3320   44.8270 C   0  0  0  0  0  0  0  0  0  0  0  0
   58.9350   26.5520   45.9760 C   0  0  0  0  0  0  0  0  0  0  0  0
   59.6540   26.8720   47.2510 C   0  0  0  0  0  0  0  0  0  0  0  0
   59.0237   26.5915   48.1077 H   0  0  0  0  0  0  0  0  0  0  0  0
   60.5983   26.3092   47.2907 H   0  0  0  0  0  0  0  0  0  0  0  0
   59.8679   27.9503   47.2907 H   0  0  0  0  0  0  0  0  0  0  0  0
   58.0840   25.4790   45.7500 C   0  0  0  0  0  0  0  0  0  0  0  0
   57.7650   24.3700   46.7130 C   0  0  0  0  0  0  0  0  0  0  0  0
   57.3155   23.5294   46.1640 H   0  0  0  0  0  0  0  0  0  0  0  0
   58.6927   24.0422   47.2050 H   0  0  0  0  0  0  0  0  0  0  0  0
   56.8650   24.8220   47.6860 O   0  0  0  0  0  0  0  0  0  0  0  0
   56.0040   24.9860   47.2210 H   0  0  0  0  0  0  0  0  0  0  0  0
   57.6180   25.6200   44.4500 C   0  0  0  0  0  0  0  0  0  0  0  0
   56.6160   24.7430   43.7600 C   0  0  0  0  0  0  0  0  0  0  0  0
   56.0863   25.3267   42.9927 H   0  0  0  0  0  0  0  0  0  0  0  0
   57.1369   23.8974   43.2871 H   0  0  0  0  0  0  0  0  0  0  0  0
   55.6300   24.2220   44.7570 C   0  0  0  0  0  0  0  0  0  0  0  0
   55.4500   22.9190   45.0350 N   0  0  0  0  0  0  0  0  0  0  0  0
   54.5410   22.9370   46.0320 C   0  0  0  0  0  0  0  0  0  0  0  0
   54.1040   21.8860   46.5700 O   0  0  0  0  0  0  0  0  0  0  0  0
   54.1400   24.1680   46.4140 N   0  0  0  0  0  0  0  0  0  0  0  0
   54.8460   24.9710   45.6010 C   0  0  0  0  0  0  0  0  0  0  0  0
   54.7800   26.3580   45.6350 O   0  0  0  0  0  0  0  0  0  0  0  0
   58.1000   26.7530   43.9050 N   0  0  0  0  0  0  0  0  0  0  0  0
   57.8740   27.1270   42.9570 H   0  0  0  0  0  0  0  0  0  0  0  0
   58.8080   30.9460   45.6220 C   0  0  0  0  0  0  0  0  0  0  0  0
   59.9560   31.4010   46.2720 C   0  0  0  0  0  0  0  0  0  0  0  0
   60.8704   30.7901   46.2973 H   0  0  0  0  0  0  0  0  0  0  0  0
   62.3350   32.8430   47.3270 O   0  0  0  0  0  0  0  0  0  0  0  0
  1  2  1  0
  2  3  2  0
  3  4  1  0
  4  5  1  0
  5  6  2  0
  6  7  1  0
  7  8  2  0
  8  9  1  0
  8 10  1  0
 10 11  1  0
 10 12  2  0
 12 13  1  0
 13 14  1  0
 14 15  1  0
 15 16  1  0
 14 17  2  0
 17 18  1  0
 18 19  1  0
 18 20  1  0
 18 21  1  0
 21 22  2  0
 22 23  1  0
 23 24  1  0
 23 25  1  0
 23 26  1  0
 22 27  1  0
 27 28  1  0
 28 29  1  0
 28 30  1  0
 28 31  1  0
 31 32  1  0
 27 33  2  0
 33 34  1  0
 34 35  1  0
 34 36  1  0
 34 37  1  0
 37 38  1  0
 38 39  1  0
 39 40  2  0
 39 41  1  0
 41 42  1  0
 42 43  1  0
 33 44  1  0
 44 45  1  0
 17 46  1  0
 46 47  2  0
 47 48  1  0
  6 49  1  0
 49  3  1  0
 47  7  1  0
 46 12  1  0
 44 21  1  0
 42 37  2  0
M  CHG  5   4  -1  13  -1  38  -1  41  -1  43  -1
M  END
>  <UniqueID>  (14) 
10

>  <SMILES>  (14) 
[H]/N=c1\[n-]nc(-c2ccc3[n-]c(O)c(Cc4[nH]c(Cc5[n-]c(=O)[n-]c5[O-])c(CO)c4C)c3c2)o1

>  <Energy>  (14) 
168.96021287207108

>  <Genealogy>  (14) 
Cc1c(Cc2c(O)[n-]c3ccc(-c4n[n-]c(=N)o4)cc23)[nH]c(Cc2[n-]c(=O)[n-]c2[O-])c1CO (protonated)
[H]/N=c1\[n-]nc(-c2ccc3[n-]c(O)c(Cc4[nH]c(Cc5[n-]c(=O)[n-]c5[O-])c(CO)c4C)c3c2)o1 (cis-trans isomerization)
[H]/N=c1\[n-]nc(-c2ccc3[n-]c(O)c(Cc4[nH]c(Cc5[n-]c(=O)[n-]c5[O-])c(CO)c4C)c3c2)o1 (3D coordinates assigned)
[H]/N=c1\[n-]nc(-c2ccc3[n-]c(O)c(Cc4[nH]c(Cc5[n-]c(=O)[n-]c5[O-])c(CO)c4C)c3c2)o1 (optimized conformer: 168.96021287207108 kcal/mol)

>  <smiles>  (14) 
Cc1c(Cc2c(O)[nH]c3ccc(-c4n[nH]c(=N)o4)cc23)[nH]c(Cc2[nH]c(=O)[nH]c2O)c1CO

>  <score_type>  (14) 
oracle

>  <origin>  (14) 
adg

>  <m_score__min__energy>  (14) 
-18.940000000000001

>  <m_primary>  (14) 
energy

$$$$
14:0
     RDKit          3D

 42 44  0  0  0  0  0  0  0  0999 V2000
   55.5040   29.0580   44.9170 O   0  0  0  0  0  0  0  0  0  0  0  0
   56.7320   29.7130   44.3510 S   0  0  0  0  0  0  0  0  0  0  0  0
   56.8090   29.3910   42.8840 O   0  0  0  0  0  0  0  0  0  0  0  0
   56.6130   31.4330   44.5660 N   0  0  0  0  0  0  0  0  0  0  0  0
   57.7960   32.0860   44.0000 C   0  0  0  0  0  0  0  0  0  0  0  0
   58.5110   32.8550   45.0760 C   0  0  0  0  0  0  0  0  0  0  0  0
   58.2020   34.2010   45.3090 C   0  0  0  0  0  0  0  0  0  0  0  0
   58.8940   34.9020   46.2950 C   0  0  0  0  0  0  0  0  0  0  0  0
   59.8710   34.2880   47.0120 N   0  0  0  0  0  0  0  0  0  0  0  0
   60.2170   32.9860   46.8020 C   0  0  0  0  0  0  0  0  0  0  0  0
   61.2710   32.3940   47.5940 N   0  0  0  0  0  0  0  0  0  0  0  0
   62.6700   32.8050   47.4220 C   0  0  0  0  0  0  0  0  0  0  0  0
   63.4580   32.5640   48.7130 C   0  0  0  0  0  0  0  0  0  0  0  0
   63.2760   31.2420   49.1760 O   0  0  0  0  0  0  0  0  0  0  0  0
   61.9260   31.0560   49.5540 C   0  0  0  0  0  0  0  0  0  0  0  0
   61.0020   31.1560   48.3370 C   0  0  0  0  0  0  0  0  0  0  0  0
   59.5330   32.2470   45.8190 C   0  0  0  0  0  0  0  0  0  0  0  0
   58.1540   29.0880   45.1850 C   0  0  0  0  0  0  0  0  0  0  0  0
   59.3970   29.0930   44.5380 C   0  0  0  0  0  0  0  0  0  0  0  0
   60.5270   28.5800   45.1830 C   0  0  0  0  0  0  0  0  0  0  0  0
   60.4180   28.0570   46.4750 C   0  0  0  0  0  0  0  0  0  0  0  0
   59.1790   28.0430   47.1220 C   0  0  0  0  0  0  0  0  0  0  0  0
   58.0480   28.5550   46.4780 C   0  0  0  0  0  0  0  0  0  0  0  0
   56.6060   31.6090   45.5970 H   0  0  0  0  0  0  0  0  0  0  0  0
   58.4714   31.3236   43.5846 H   0  0  0  0  0  0  0  0  0  0  0  0
   57.4854   32.7768   43.2023 H   0  0  0  0  0  0  0  0  0  0  0  0
   57.4197   34.7007   44.7188 H   0  0  0  0  0  0  0  0  0  0  0  0
   58.6483   35.9557   46.4933 H   0  0  0  0  0  0  0  0  0  0  0  0
   63.1220   32.2211   46.6067 H   0  0  0  0  0  0  0  0  0  0  0  0
   62.7004   33.8775   47.1795 H   0  0  0  0  0  0  0  0  0  0  0  0
   64.5274   32.7335   48.5190 H   0  0  0  0  0  0  0  0  0  0  0  0
   63.0919   33.2592   49.4828 H   0  0  0  0  0  0  0  0  0  0  0  0
   61.8133   30.0621   50.0117 H   0  0  0  0  0  0  0  0  0  0  0  0
   61.6494   31.8419   50.2723 H   0  0  0  0  0  0  0  0  0  0  0  0
   61.1748   30.2923   47.6781 H   0  0  0  0  0  0  0  0  0  0  0  0
   59.9570   31.1643   48.6805 H   0  0  0  0  0  0  0  0  0  0  0  0
   59.7992   31.1958   45.6341 H   0  0  0  0  0  0  0  0  0  0  0  0
   59.4842   29.5014   43.5203 H   0  0  0  0  0  0  0  0  0  0  0  0
   61.5019   28.5880   44.6736 H   0  0  0  0  0  0  0  0  0  0  0  0
   61.3078   27.6563   46.9827 H   0  0  0  0  0  0  0  0  0  0  0  0
   59.0935   27.6293   48.1377 H   0  0  0  0  0  0  0  0  0  0  0  0
   57.0729   28.5396   46.9868 H   0  0  0  0  0  0  0  0  0  0  0  0
  1  2  2  0
  2  3  2  0
  2  4  1  0
  4  5  1  0
  5  6  1  0
  6  7  2  0
  7  8  1  0
  8  9  2  0
  9 10  1  0
 10 11  1  0
 11 12  1  0
 12 13  1  0
 13 14  1  0
 14 15  1  0
 15 16  1  0
 10 17  2  0
  2 18  1  0
 18 19  2  0
 19 20  1  0
 20 21  2  0
 21 22  1  0
 22 23  2  0
 17  6  1  0
 23 18  1  0
 16 11  1  0
  4 24  1  0
  5 25  1  0
  5 26  1  0
  7 27  1  0
  8 28  1  0
 12 29  1  0
 12 30  1  0
 13 31  1  0
 13 32  1  0
 15 33  1  0
 15 34  1  0
 16 35  1  0
 16 36  1  0
 17 37  1  0
 19 38  1  0
 20 39  1  0
 21 40  1  0
 22 41  1  0
 23 42  1  0
M  END
>  <UniqueID>  (15) 
11

>  <SMILES>  (15) 
O=S(=O)(NCc1ccnc(N2CCOCC2)c1)c1ccccc1

>  <Energy>  (15) 
45.026500909232496

>  <Genealogy>  (15) 
O=S(=O)(NCc1ccnc(N2CCOCC2)c1)c1ccccc1 (3D coordinates assigned)
O=S(=O)(NCc1ccnc(N2CCOCC2)c1)c1ccccc1 (nonaromatic ring conformer: 45.026500909232496 kcal/mol)

>  <smiles>  (15) 
O=S(=O)(NCc1ccnc(N2CCOCC2)c1)c1ccccc1

>  <score_type>  (15) 
oracle

>  <origin>  (15) 
adg

>  <m_score__min__energy>  (15) 
-8.6199999999999992

>  <m_primary>  (15) 
energy

$$$$
15:0
     RDKit          3D

 27 28  0  0  0  0  0  0  0  0999 V2000
   55.4810   29.1370   44.8460 N   0  0  0  0  0  0  0  0  0  0  0  0
   56.1700   29.9460   43.8920 C   0  0  0  0  0  0  0  0  0  0  0  0
   55.9230   29.7980   42.6650 O   0  0  0  0  0  0  0  0  0  0  0  0
   57.1730   30.9420   44.3280 C   0  0  0  0  0  0  0  0  0  0  0  0
   57.4370   32.0520   43.5050 C   0  0  0  0  0  0  0  0  0  0  0  0
   58.2970   33.0660   43.9320 C   0  0  0  0  0  0  0  0  0  0  0  0
   58.8970   32.9920   45.1880 C   0  0  0  0  0  0  0  0  0  0  0  0
   58.6560   31.8930   46.0140 C   0  0  0  0  0  0  0  0  0  0  0  0
   57.8230   30.8500   45.5870 C   0  0  0  0  0  0  0  0  0  0  0  0
   57.6680   29.7120   46.4480 N   0  0  0  0  0  0  0  0  0  0  0  0
   58.5360   28.5700   46.4770 C   0  0  0  0  0  0  0  0  0  0  0  0
   59.6230   28.6530   47.1050 O   0  0  0  0  0  0  0  0  0  0  0  0
   58.2170   27.3370   45.7280 C   0  0  0  0  0  0  0  0  0  0  0  0
   58.5860   27.2360   44.5270 O   0  0  0  0  0  0  0  0  0  0  0  0
   57.5040   26.2010   46.3440 C   0  0  0  0  0  0  0  0  0  0  0  0
   58.1330   25.1370   46.8750 N   0  0  0  0  0  0  0  0  0  0  0  0
   57.1210   24.3380   47.2770 C   0  0  0  0  0  0  0  0  0  0  0  0
   57.3160   23.2290   47.8390 O   0  0  0  0  0  0  0  0  0  0  0  0
   55.8870   24.8180   47.0240 N   0  0  0  0  0  0  0  0  0  0  0  0
   56.1420   25.9940   46.4280 C   0  0  0  0  0  0  0  0  0  0  0  0
   55.1480   26.8350   45.9430 O   0  0  0  0  0  0  0  0  0  0  0  0
   54.7920   28.4200   44.5260 H   0  0  0  0  0  0  0  0  0  0  0  0
   55.6070   29.2860   45.8720 H   0  0  0  0  0  0  0  0  0  0  0  0
   56.9614   32.1219   42.5156 H   0  0  0  0  0  0  0  0  0  0  0  0
   58.5014   33.9249   43.2758 H   0  0  0  0  0  0  0  0  0  0  0  0
   59.5609   33.8003   45.5284 H   0  0  0  0  0  0  0  0  0  0  0  0
   59.1238   31.8451   47.0084 H   0  0  0  0  0  0  0  0  0  0  0  0
  1  2  1  0
  2  3  2  0
  2  4  1  0
  4  5  2  0
  5  6  1  0
  6  7  2  0
  7  8  1  0
  8  9  2  0
  9 10  1  0
 10 11  1  0
 11 12  2  0
 11 13  1  0
 13 14  2  0
 13 15  1  0
 15 16  1  0
 16 17  1  0
 17 18  2  0
 17 19  1  0
 19 20  1  0
 20 21  1  0
  9  4  1  0
 20 15  2  0
  1 22  1  0
  1 23  1  0
  5 24  1  0
  6 25  1  0
  7 26  1  0
  8 27  1  0
M  CHG  4  10  -1  16  -1  19  -1  21  -1
M  END
>  <UniqueID>  (16) 
12

>  <SMILES>  (16) 
NC(=O)c1ccccc1[N-]C(=O)C(=O)c1[n-]c(=O)[n-]c1[O-]

>  <Energy>  (16) 
69.53376162899045

>  <Genealogy>  (16) 
NC(=O)c1ccccc1[N-]C(=O)C(=O)c1[n-]c(=O)[n-]c1[O-] (protonated)
NC(=O)c1ccccc1[N-]C(=O)C(=O)c1[n-]c(=O)[n-]c1[O-] (3D coordinates assigned)
NC(=O)c1ccccc1[N-]C(=O)C(=O)c1[n-]c(=O)[n-]c1[O-] (optimized conformer: 69.53376162899045 kcal/mol)

>  <smiles>  (16) 
NC(=O)c1ccccc1NC(=O)C(=O)c1[nH]c(=O)[nH]c1O

>  <score_type>  (16) 
oracle

>  <origin>  (16) 
adg

>  <m_score__min__energy>  (16) 
-15.76

>  <m_primary>  (16) 
energy

$$$$
16:0
     RDKit          3D

 52 55  0  0  0  0  0  0  0  0999 V2000
   59.4160   34.9346   45.0518 H   0  0  0  0  0  0  0  0  0  0  0  0
   59.0850   34.1420   45.7390 C   0  0  0  0  0  0  0  0  0  0  0  0
   58.0300   33.3970   45.3860 C   0  0  0  0  0  0  0  0  0  0  0  0
   57.0673   33.5452   45.8972 H   0  0  0  0  0  0  0  0  0  0  0  0
   58.1400   32.3630   44.3040 C   0  0  0  0  0  0  0  0  0  0  0  0
   57.9431   32.8346   43.3300 H   0  0  0  0  0  0  0  0  0  0  0  0
   59.1540   31.9367   44.3181 H   0  0  0  0  0  0  0  0  0  0  0  0
   57.1610   31.2810   44.5280 N   0  0  0  0  0  0  0  0  0  0  0  0
   56.6040   30.7900   43.2540 C   0  0  0  0  0  0  0  0  0  0  0  0
   56.1384   31.6270   42.7130 H   0  0  0  0  0  0  0  0  0  0  0  0
   57.4140   30.3591   42.6471 H   0  0  0  0  0  0  0  0  0  0  0  0
   55.5420   29.7040   43.5280 C   0  0  0  0  0  0  0  0  0  0  0  0
   54.5486   30.1145   43.2943 H   0  0  0  0  0  0  0  0  0  0  0  0
   55.7788   28.8362   42.8949 H   0  0  0  0  0  0  0  0  0  0  0  0
   55.5490   29.2690   44.8780 O   0  0  0  0  0  0  0  0  0  0  0  0
   56.8630   28.9230   45.2640 C   0  0  0  0  0  0  0  0  0  0  0  0
   56.8391   28.4910   46.2753 H   0  0  0  0  0  0  0  0  0  0  0  0
   57.2599   28.1930   44.5432 H   0  0  0  0  0  0  0  0  0  0  0  0
   57.7820   30.1630   45.2660 C   0  0  0  0  0  0  0  0  0  0  0  0
   57.9640   30.4746   46.3051 H   0  0  0  0  0  0  0  0  0  0  0  0
   58.7289   29.8992   44.7722 H   0  0  0  0  0  0  0  0  0  0  0  0
   59.8300   33.9560   47.0050 C   0  0  0  0  0  0  0  0  0  0  0  0
   61.2330   33.9580   46.9700 C   0  0  0  0  0  0  0  0  0  0  0  0
   61.7552   34.1127   46.0143 H   0  0  0  0  0  0  0  0  0  0  0  0
   61.9710   33.7650   48.1400 C   0  0  0  0  0  0  0  0  0  0  0  0
   63.0701   33.7933   48.1046 H   0  0  0  0  0  0  0  0  0  0  0  0
   61.3200   33.5360   49.3560 C   0  0  0  0  0  0  0  0  0  0  0  0
   62.0770   33.3260   50.5050 O   0  0  0  0  0  0  0  0  0  0  0  0
   59.9170   33.4970   49.4040 C   0  0  0  0  0  0  0  0  0  0  0  0
   59.2120   33.2220   50.6710 C   0  0  0  0  0  0  0  0  0  0  0  0
   58.9220   34.1580   51.6630 C   0  0  0  0  0  0  0  0  0  0  0  0
   59.2686   35.2020   51.6603 H   0  0  0  0  0  0  0  0  0  0  0  0
   58.1550   33.6030   52.6290 N   0  0  0  0  0  0  0  0  0  0  0  0
   57.7730   34.0760   53.4780 H   0  0  0  0  0  0  0  0  0  0  0  0
   57.9650   32.3290   52.2530 C   0  0  0  0  0  0  0  0  0  0  0  0
   57.2240   31.4080   52.9140 N   0  0  0  0  0  0  0  0  0  0  0  0
   57.1210   30.1530   52.3850 C   0  0  0  0  0  0  0  0  0  0  0  0
   56.5120   29.3931   52.8966 H   0  0  0  0  0  0  0  0  0  0  0  0
   57.7700   29.8340   51.2230 N   0  0  0  0  0  0  0  0  0  0  0  0
   58.5260   30.7520   50.5490 C   0  0  0  0  0  0  0  0  0  0  0  0
   59.2530   30.3620   49.3750 N   0  0  0  0  0  0  0  0  0  0  0  0
   60.7130   30.2990   49.4270 C   0  0  0  0  0  0  0  0  0  0  0  0
   61.0422   30.2848   50.4765 H   0  0  0  0  0  0  0  0  0  0  0  0
   61.0588   29.3851   48.9218 H   0  0  0  0  0  0  0  0  0  0  0  0
   61.1362   31.1797   48.9218 H   0  0  0  0  0  0  0  0  0  0  0  0
   58.5630   29.5960   48.3400 C   0  0  0  0  0  0  0  0  0  0  0  0
   57.8980   28.8578   48.8121 H   0  0  0  0  0  0  0  0  0  0  0  0
   57.9684   30.2778   47.7143 H   0  0  0  0  0  0  0  0  0  0  0  0
   59.3030   29.0756   47.7143 H   0  0  0  0  0  0  0  0  0  0  0  0
   58.5980   32.0460   51.0760 C   0  0  0  0  0  0  0  0  0  0  0  0
   59.1790   33.7240   48.2310 C   0  0  0  0  0  0  0  0  0  0  0  0
   58.0797   33.7204   48.2709 H   0  0  0  0  0  0  0  0  0  0  0  0
  1  2  1  0
  2  3  2  0
  3  4  1  0
  3  5  1  0
  5  6  1  0
  5  7  1  0
  5  8  1  0
  8  9  1  0
  9 10  1  0
  9 11  1  0
  9 12  1  0
 12 13  1  0
 12 14  1  0
 12 15  1  0
 15 16  1  0
 16 17  1  0
 16 18  1  0
 16 19  1  0
 19 20  1  0
 19 21  1  0
  2 22  1  0
 22 23  2  0
 23 24  1  0
 23 25  1  0
 25 26  1  0
 25 27  2  0
 27 28  1  0
 27 29  1  0
 29 30  1  0
 30 31  2  0
 31 32  1  0
 31 33  1  0
 33 34  1  0
 33 35  1  0
 35 36  2  0
 36 37  1  0
 37 38  1  0
 37 39  2  0
 39 40  1  0
 40 41  1  0
 41 42  1  0
 42 43  1  0
 42 44  1  0
 42 45  1  0
 41 46  1  0
 46 47  1  0
 46 48  1  0
 46 49  1  0
 40 50  2  0
 29 51  2  0
 51 52  1  0
 19  8  1  0
 51 22  1  0
 50 30  1  0
 50 35  1  0
M  CHG  1  28  -1
M  END
>  <UniqueID>  (17) 
13

>  <SMILES>  (17) 
CN(C)c1ncnc2[nH]cc(-c3cc(/C=C/CN4CCOCC4)ccc3[O-])c12

>  <Energy>  (17) 
106.88464455750318

>  <Genealogy>  (17) 
CN(C)c1ncnc2[nH]cc(-c3cc(C=CCN4CCOCC4)ccc3[O-])c12 (protonated)
CN(C)c1ncnc2[nH]cc(-c3cc(/C=C/CN4CCOCC4)ccc3[O-])c12 (cis-trans isomerization)
CN(C)c1ncnc2[nH]cc(-c3cc(/C=C/CN4CCOCC4)ccc3[O-])c12 (3D coordinates assigned)
CN(C)c1ncnc2[nH]cc(-c3cc(/C=C/CN4CCOCC4)ccc3[O-])c12 (nonaromatic ring conformer: 106.88464455750318 kcal/mol)

>  <smiles>  (17) 
CN(C)c1ncnc2[nH]cc(-c3cc(C=CCN4CCOCC4)ccc3O)c12

>  <score_type>  (17) 
oracle

>  <origin>  (17) 
adg

>  <m_score__min__energy>  (17) 
-10.34

>  <m_primary>  (17) 
energy

$$$$
17:0
     RDKit          3D

 42 44  0  0  0  0  0  0  0  0999 V2000
   55.8970   20.3470   44.5320 C   0  0  0  0  0  0  0  0  0  0  0  0
   55.9160   20.6680   46.0400 C   0  0  0  0  0  0  0  0  0  0  0  0
   55.1130   19.5860   46.7820 C   0  0  0  0  0  0  0  0  0  0  0  0
   55.2780   21.9280   46.2500 O   0  0  0  0  0  0  0  0  0  0  0  0
   55.9410   23.1530   46.0980 C   0  0  0  0  0  0  0  0  0  0  0  0
   55.1890   24.3250   46.1030 C   0  0  0  0  0  0  0  0  0  0  0  0
   55.8070   25.5650   45.9500 C   0  0  0  0  0  0  0  0  0  0  0  0
   55.0260   26.7160   45.9840 O   0  0  0  0  0  0  0  0  0  0  0  0
   57.2020   25.6480   45.7740 C   0  0  0  0  0  0  0  0  0  0  0  0
   57.8380   26.9780   45.5980 C   0  0  0  0  0  0  0  0  0  0  0  0
   58.7080   27.1300   44.6980 O   0  0  0  0  0  0  0  0  0  0  0  0
   57.4300   28.1690   46.4220 C   0  0  0  0  0  0  0  0  0  0  0  0
   57.4370   29.4310   45.6040 C   0  0  0  0  0  0  0  0  0  0  0  0
   58.5300   30.3110   45.6460 C   0  0  0  0  0  0  0  0  0  0  0  0
   58.4950   31.4850   44.8910 C   0  0  0  0  0  0  0  0  0  0  0  0
   57.3730   31.7790   44.1130 C   0  0  0  0  0  0  0  0  0  0  0  0
   56.2960   30.8900   44.1060 C   0  0  0  0  0  0  0  0  0  0  0  0
   56.3490   29.7500   44.8470 N   0  0  0  0  0  0  0  0  0  0  0  0
   57.9690   24.4620   45.7450 C   0  0  0  0  0  0  0  0  0  0  0  0
   59.3370   24.5470   45.4730 O   0  0  0  0  0  0  0  0  0  0  0  0
   57.3430   23.2080   45.9570 C   0  0  0  0  0  0  0  0  0  0  0  0
   58.1520   21.9260   45.9840 C   0  0  0  0  0  0  0  0  0  0  0  0
   57.3760   20.7280   46.5760 C   0  0  1  0  0  0  0  0  0  0  0  0
   57.4070   20.7800   47.9830 O   0  0  0  0  0  0  0  0  0  0  0  0
   55.8325   19.2582   44.3897 H   0  0  0  0  0  0  0  0  0  0  0  0
   55.0259   20.8300   44.0653 H   0  0  0  0  0  0  0  0  0  0  0  0
   56.8190   20.7239   44.0653 H   0  0  0  0  0  0  0  0  0  0  0  0
   55.2197   19.7298   47.8673 H   0  0  0  0  0  0  0  0  0  0  0  0
   54.0513   19.6625   46.5046 H   0  0  0  0  0  0  0  0  0  0  0  0
   55.4937   18.5920   46.5046 H   0  0  0  0  0  0  0  0  0  0  0  0
   54.0975   24.2718   46.2288 H   0  0  0  0  0  0  0  0  0  0  0  0
   56.4159   28.0024   46.8141 H   0  0  0  0  0  0  0  0  0  0  0  0
   58.1522   28.2851   47.2436 H   0  0  0  0  0  0  0  0  0  0  0  0
   59.4065   30.0776   46.2684 H   0  0  0  0  0  0  0  0  0  0  0  0
   59.3497   32.1772   44.9089 H   0  0  0  0  0  0  0  0  0  0  0  0
   57.3380   32.7001   43.5127 H   0  0  0  0  0  0  0  0  0  0  0  0
   55.4043   31.1115   43.5011 H   0  0  0  0  0  0  0  0  0  0  0  0
   59.8160   25.4150   45.2720 H   0  0  0  0  0  0  0  0  0  0  0  0
   58.4466   21.6769   44.9539 H   0  0  0  0  0  0  0  0  0  0  0  0
   59.0231   22.1031   46.6319 H   0  0  0  0  0  0  0  0  0  0  0  0
   57.8716   19.8014   46.2507 H   0  0  0  0  0  0  0  0  0  0  0  0
   56.5600   21.1950   48.2930 H   0  0  0  0  0  0  0  0  0  0  0  0
  1  2  1  0
  2  3  1  0
  2  4  1  0
  4  5  1  0
  5  6  2  0
  6  7  1  0
  7  8  1  0
  7  9  2  0
  9 10  1  0
 10 11  2  0
 10 12  1  0
 12 13  1  0
 13 14  2  0
 14 15  1  0
 15 16  2  0
 16 17  1  0
 17 18  2  0
  9 19  1  0
 19 20  1  0
 19 21  2  0
 21 22  1  0
 22 23  1  0
 23 24  1  0
 23  2  1  0
 21  5  1  0
 18 13  1  0
  1 25  1  0
  1 26  1  0
  1 27  1  0
  3 28  1  0
  3 29  1  0
  3 30  1  0
  6 31  1  0
 12 32  1  0
 12 33  1  0
 14 34  1  0
 15 35  1  0
 16 36  1  0
 17 37  1  0
 20 38  1  0
 22 39  1  0
 22 40  1  0
 23 41  1  1
 24 42  1  0
M  CHG  1   8  -1
M  END
>  <UniqueID>  (18) 
14

>  <SMILES>  (18) 
CC1(C)Oc2cc([O-])c(C(=O)Cc3ccccn3)c(O)c2C[C@H]1O

>  <Energy>  (18) 
51.30031080717247

>  <Genealogy>  (18) 
CC1(C)Oc2cc([O-])c(C(=O)Cc3ccccn3)c(O)c2CC1O (protonated)
CC1(C)Oc2cc([O-])c(C(=O)Cc3ccccn3)c(O)c2C[C@H]1O (chirality)
CC1(C)Oc2cc([O-])c(C(=O)Cc3ccccn3)c(O)c2C[C@H]1O (3D coordinates assigned)
CC1(C)Oc2cc([O-])c(C(=O)Cc3ccccn3)c(O)c2C[C@H]1O (nonaromatic ring conformer: 51.30031080717247 kcal/mol)

>  <smiles>  (18) 
CC1(C)Oc2cc(O)c(C(=O)Cc3ccccn3)c(O)c2CC1O

>  <score_type>  (18) 
oracle

>  <origin>  (18) 
adg

>  <m_score__min__energy>  (18) 
-10.24

>  <m_primary>  (18) 
energy

$$$$
18:0
     RDKit          3D

 46 48  0  0  0  0  0  0  0  0999 V2000
   61.9670   30.2100   51.5270 H   0  0  0  0  0  0  0  0  0  0  0  0
   61.6860   29.2570   51.3280 O   0  0  0  0  0  0  0  0  0  0  0  0
   61.1310   28.9030   50.0990 C   0  0  0  0  0  0  0  0  0  0  0  0
   60.7750   27.5740   49.8410 C   0  0  0  0  0  0  0  0  0  0  0  0
   60.9383   26.8049   50.6104 H   0  0  0  0  0  0  0  0  0  0  0  0
   60.2140   27.2190   48.6130 C   0  0  0  0  0  0  0  0  0  0  0  0
   59.9525   26.1695   48.4127 H   0  0  0  0  0  0  0  0  0  0  0  0
   59.9830   28.1950   47.6350 C   0  0  0  0  0  0  0  0  0  0  0  0
   59.4280   27.7920   46.3240 C   0  0  0  0  0  0  0  0  0  0  0  0
   59.9365   26.9681   45.8019 H   0  0  0  0  0  0  0  0  0  0  0  0
   58.3480   28.3420   45.7000 C   0  0  0  0  0  0  0  0  0  0  0  0
   57.0350   27.7820   45.7070 C   0  0  0  0  0  0  0  0  0  0  0  0
   56.7560   26.5130   46.0410 C   0  0  0  0  0  0  0  0  0  0  0  0
   57.5502   25.8597   46.4314 H   0  0  0  0  0  0  0  0  0  0  0  0
   55.7330   26.1258   45.9245 H   0  0  0  0  0  0  0  0  0  0  0  0
   56.0030   28.5220   45.2340 N   0  0  0  0  0  0  0  0  0  0  0  0
   56.1730   29.7400   44.6740 C   0  0  0  0  0  0  0  0  0  0  0  0
   55.1570   30.3690   44.2730 O   0  0  0  0  0  0  0  0  0  0  0  0
   57.4290   30.2590   44.5190 N   0  0  0  0  0  0  0  0  0  0  0  0
   57.6090   31.5820   43.8830 C   0  0  0  0  0  0  0  0  0  0  0  0
   58.3817   31.5065   43.1038 H   0  0  0  0  0  0  0  0  0  0  0  0
   56.6522   31.8961   43.4405 H   0  0  0  0  0  0  0  0  0  0  0  0
   58.0330   32.6080   44.9040 C   0  0  0  0  0  0  0  0  0  0  0  0
   57.7760   32.3990   46.2700 C   0  0  0  0  0  0  0  0  0  0  0  0
   57.2384   31.4956   46.5937 H   0  0  0  0  0  0  0  0  0  0  0  0
   58.2000   33.3330   47.2190 C   0  0  0  0  0  0  0  0  0  0  0  0
   57.9946   33.1640   48.2864 H   0  0  0  0  0  0  0  0  0  0  0  0
   58.8850   34.4820   46.8130 C   0  0  0  0  0  0  0  0  0  0  0  0
   59.2177   35.2169   47.5608 H   0  0  0  0  0  0  0  0  0  0  0  0
   59.1470   34.6970   45.4580 C   0  0  0  0  0  0  0  0  0  0  0  0
   59.6869   35.6009   45.1396 H   0  0  0  0  0  0  0  0  0  0  0  0
   58.7240   33.7650   44.5060 C   0  0  0  0  0  0  0  0  0  0  0  0
   58.9331   33.9381   43.4400 H   0  0  0  0  0  0  0  0  0  0  0  0
   58.5140   29.5740   45.0110 C   0  0  0  0  0  0  0  0  0  0  0  0
   59.6710   30.0670   44.8780 O   0  0  0  0  0  0  0  0  0  0  0  0
   60.3710   29.5240   47.8790 C   0  0  0  0  0  0  0  0  0  0  0  0
   60.2343   30.2855   47.0971 H   0  0  0  0  0  0  0  0  0  0  0  0
   60.9340   29.8870   49.1190 C   0  0  0  0  0  0  0  0  0  0  0  0
   61.3090   31.2080   49.4110 O   0  0  0  0  0  0  0  0  0  0  0  0
   61.3400   32.2670   48.4580 C   0  0  0  0  0  0  0  0  0  0  0  0
   60.4432   32.2151   47.8231 H   0  0  0  0  0  0  0  0  0  0  0  0
   61.3619   33.2328   48.9841 H   0  0  0  0  0  0  0  0  0  0  0  0
   62.5820   32.1340   47.5920 C   0  0  0  0  0  0  0  0  0  0  0  0
   63.4691   32.0390   48.2354 H   0  0  0  0  0  0  0  0  0  0  0  0
   62.4922   31.2403   46.9569 H   0  0  0  0  0  0  0  0  0  0  0  0
   62.6835   33.0264   46.9569 H   0  0  0  0  0  0  0  0  0  0  0  0
  1  2  1  0
  2  3  1  0
  3  4  2  0
  4  5  1  0
  4  6  1  0
  6  7  1  0
  6  8  2  0
  8  9  1  0
  9 10  1  0
  9 11  2  0
 11 12  1  0
 12 13  2  0
 13 14  1  0
 13 15  1  0
 12 16  1  0
 16 17  1  0
 17 18  2  0
 17 19  1  0
 19 20  1  0
 20 21  1  0
 20 22  1  0
 20 23  1  0
 23 24  2  0
 24 25  1  0
 24 26  1  0
 26 27  1  0
 26 28  2  0
 28 29  1  0
 28 30  1  0
 30 31  1  0
 30 32  2  0
 32 33  1  0
 19 34  1  0
 34 35  2  0
  8 36  1  0
 36 37  1  0
 36 38  2  0
 38 39  1  0
 39 40  1  0
 40 41  1  0
 40 42  1  0
 40 43  1  0
 43 44  1  0
 43 45  1  0
 43 46  1  0
 38  3  1  0
 34 11  1  0
 32 23  1  0
M  CHG  1  16  -1
M  END
>  <UniqueID>  (19) 
15

>  <SMILES>  (19) 
C=c1[n-]c(=O)n(Cc2ccccc2)c(=O)/c1=C/c1ccc(O)c(OCC)c1

>  <Energy>  (19) 
70.95317661789137

>  <Genealogy>  (19) 
C=c1[n-]c(=O)n(Cc2ccccc2)c(=O)c1=Cc1ccc(O)c(OCC)c1 (protonated)
C=c1[n-]c(=O)n(Cc2ccccc2)c(=O)/c1=C/c1ccc(O)c(OCC)c1 (cis-trans isomerization)
C=c1[n-]c(=O)n(Cc2ccccc2)c(=O)/c1=C/c1ccc(O)c(OCC)c1 (3D coordinates assigned)
C=c1[n-]c(=O)n(Cc2ccccc2)c(=O)/c1=C/c1ccc(O)c(OCC)c1 (optimized conformer: 70.95317661789137 kcal/mol)

>  <smiles>  (19) 
C=c1[nH]c(=O)n(Cc2ccccc2)c(=O)c1=Cc1ccc(O)c(OCC)c1

>  <score_type>  (19) 
oracle

>  <origin>  (19) 
adg

>  <m_score__min__energy>  (19) 
-10.01

>  <m_primary>  (19) 
energy

$$$$
19:0
     RDKit          3D

 49 51  0  0  0  0  0  0  0  0999 V2000
   58.5180   34.5820   52.3750 N   0  0  0  0  0  0  0  0  0  0  0  0
   58.5760   33.2240   51.9290 C   0  0  0  0  0  0  0  0  0  0  0  0
   57.3970   32.4820   52.0220 C   0  0  0  0  0  0  0  0  0  0  0  0
   57.3850   31.1610   51.6070 C   0  0  0  0  0  0  0  0  0  0  0  0
   56.3440   30.4390   51.6700 O   0  0  0  0  0  0  0  0  0  0  0  0
   58.5420   30.6680   51.1280 N   0  0  0  0  0  0  0  0  0  0  0  0
   59.6740   31.4110   51.0480 C   0  0  0  0  0  0  0  0  0  0  0  0
   61.1160   30.5740   50.3800 S   0  0  0  0  0  0  0  0  0  0  0  0
   60.6280   28.8650   50.0710 C   0  0  0  0  0  0  0  0  0  0  0  0
   59.7380   28.8400   48.8530 C   0  0  0  0  0  0  0  0  0  0  0  0
   58.5260   29.0610   49.0650 O   0  0  0  0  0  0  0  0  0  0  0  0
   60.2810   28.5790   47.5750 N   0  0  0  0  0  0  0  0  0  0  0  0
   59.5650   28.5260   46.3630 C   0  0  0  0  0  0  0  0  0  0  0  0
   59.4650   27.4390   45.5360 C   0  0  0  0  0  0  0  0  0  0  0  0
   58.7410   27.4470   44.3470 C   0  0  0  0  0  0  0  0  0  0  0  0
   58.0920   28.5870   43.9710 C   0  0  0  0  0  0  0  0  0  0  0  0
   58.1840   29.6830   44.7880 C   0  0  0  0  0  0  0  0  0  0  0  0
   57.3660   31.1550   44.3320 S   0  0  0  0  0  0  0  0  0  0  0  0
   57.6000   31.4030   42.8480 O   0  0  0  0  0  0  0  0  0  0  0  0
   55.9000   31.1030   44.5300 O   0  0  0  0  0  0  0  0  0  0  0  0
   58.1130   32.4560   45.1610 N   0  0  0  0  0  0  0  0  0  0  0  0
   57.9590   33.7150   44.5020 C   0  0  0  0  0  0  0  0  0  0  0  0
   59.0940   34.6130   45.0120 C   0  0  0  0  0  0  0  0  0  0  0  0
   58.9890   34.7230   46.5000 C   0  0  0  0  0  0  0  0  0  0  0  0
   58.8220   33.4170   47.2140 C   0  0  0  0  0  0  0  0  0  0  0  0
   57.7750   32.5390   46.5490 C   0  0  0  0  0  0  0  0  0  0  0  0
   58.9020   29.6720   45.9650 C   0  0  0  0  0  0  0  0  0  0  0  0
   59.7150   32.6970   51.4440 N   0  0  0  0  0  0  0  0  0  0  0  0
   58.2810   35.3450   51.6830 H   0  0  0  0  0  0  0  0  0  0  0  0
   58.6990   34.8690   53.3600 H   0  0  0  0  0  0  0  0  0  0  0  0
   56.4828   32.9442   52.4227 H   0  0  0  0  0  0  0  0  0  0  0  0
   58.5260   29.6650   50.8150 H   0  0  0  0  0  0  0  0  0  0  0  0
   61.5218   28.2495   49.8914 H   0  0  0  0  0  0  0  0  0  0  0  0
   60.0908   28.4606   50.9416 H   0  0  0  0  0  0  0  0  0  0  0  0
   61.3310   28.4100   47.5590 H   0  0  0  0  0  0  0  0  0  0  0  0
   59.9829   26.5128   45.8259 H   0  0  0  0  0  0  0  0  0  0  0  0
   58.6927   26.5456   43.7184 H   0  0  0  0  0  0  0  0  0  0  0  0
   57.5110   28.6250   43.0377 H   0  0  0  0  0  0  0  0  0  0  0  0
   58.0364   33.5860   43.4123 H   0  0  0  0  0  0  0  0  0  0  0  0
   56.9746   34.1579   44.7135 H   0  0  0  0  0  0  0  0  0  0  0  0
   60.0646   34.1719   44.7413 H   0  0  0  0  0  0  0  0  0  0  0  0
   59.0146   35.6112   44.5566 H   0  0  0  0  0  0  0  0  0  0  0  0
   59.9055   35.2030   46.8736 H   0  0  0  0  0  0  0  0  0  0  0  0
   58.0799   35.3075   46.7049 H   0  0  0  0  0  0  0  0  0  0  0  0
   59.7849   32.8853   47.2132 H   0  0  0  0  0  0  0  0  0  0  0  0
   58.4878   33.6292   48.2403 H   0  0  0  0  0  0  0  0  0  0  0  0
   57.7831   31.5356   46.9996 H   0  0  0  0  0  0  0  0  0  0  0  0
   56.7685   32.9626   46.6814 H   0  0  0  0  0  0  0  0  0  0  0  0
   58.9474   30.5770   46.5887 H   0  0  0  0  0  0  0  0  0  0  0  0
  1  2  1  0
  2  3  2  0
  3  4  1  0
  4  5  2  0
  4  6  1  0
  6  7  1  0
  7  8  1  0
  8  9  1  0
  9 10  1  0
 10 11  2  0
 10 12  1  0
 12 13  1  0
 13 14  2  0
 14 15  1  0
 15 16  2  0
 16 17  1  0
 17 18  1  0
 18 19  2  0
 18 20  2  0
 18 21  1  0
 21 22  1  0
 22 23  1  0
 23 24  1  0
 24 25  1  0
 25 26  1  0
 17 27  2  0
  7 28  2  0
 28  2  1  0
 27 13  1  0
 26 21  1  0
  1 29  1  0
  1 30  1  0
  3 31  1  0
  6 32  1  0
  9 33  1  0
  9 34  1  0
 12 35  1  0
 14 36  1  0
 15 37  1  0
 16 38  1  0
 22 39  1  0
 22 40  1  0
 23 41  1  0
 23 42  1  0
 24 43  1  0
 24 44  1  0
 25 45  1  0
 25 46  1  0
 26 47  1  0
 26 48  1  0
 27 49  1  0
M  END
>  <smiles>  (20) 
Nc1cc(=O)[nH]c(SCC(=O)Nc2cccc(S(=O)(=O)N3CCCCC3)c2)n1

>  <score_type>  (20) 
oracle

>  <origin>  (20) 
adg

>  <m_score__min__energy>  (20) 
-10.460000000000001

>  <m_primary>  (20) 
energy

$$$$
20:0
     RDKit          3D

 54 57  0  0  0  0  0  0  0  0999 V2000
   55.1580   29.2960   44.8560 O   0  0  0  0  0  0  0  0  0  0  0  0
   56.1970   29.8230   44.3840 C   0  0  0  0  0  0  0  0  0  0  0  0
   57.2110   28.9640   43.7000 C   0  0  0  0  0  0  0  0  0  0  0  0
   58.3540   28.7630   44.5830 N   0  0  0  0  0  0  0  0  0  0  0  0
   58.3380   28.1890   45.7970 C   0  0  0  0  0  0  0  0  0  0  0  0
   59.6550   28.1200   46.2020 C   0  0  0  0  0  0  0  0  0  0  0  0
   60.1780   27.5660   47.4620 C   0  0  0  0  0  0  0  0  0  0  0  0
   60.7270   26.4320   47.4490 O   0  0  0  0  0  0  0  0  0  0  0  0
   60.0200   28.2780   48.7020 N   0  0  0  0  0  0  0  0  0  0  0  0
   60.7740   27.9980   49.8950 C   0  0  0  0  0  0  0  0  0  0  0  0
   61.5190   29.0270   50.4950 C   0  0  0  0  0  0  0  0  0  0  0  0
   62.2780   28.7760   51.6430 C   0  0  0  0  0  0  0  0  0  0  0  0
   62.3130   27.4910   52.1910 C   0  0  0  0  0  0  0  0  0  0  0  0
   61.5970   26.4540   51.5870 C   0  0  0  0  0  0  0  0  0  0  0  0
   60.8390   26.7000   50.4390 C   0  0  0  0  0  0  0  0  0  0  0  0
   60.4270   28.6480   45.2290 N   0  0  0  0  0  0  0  0  0  0  0  0
   59.6100   29.0220   44.2550 N   0  0  0  0  0  0  0  0  0  0  0  0
   56.4790   31.2130   44.5830 N   0  0  0  0  0  0  0  0  0  0  0  0
   57.5720   31.7900   45.3150 C   0  0  0  0  0  0  0  0  0  0  0  0
   58.1270   31.1760   46.4530 C   0  0  0  0  0  0  0  0  0  0  0  0
   59.2160   31.7610   47.1100 C   0  0  0  0  0  0  0  0  0  0  0  0
   59.7530   32.9720   46.6520 C   0  0  0  0  0  0  0  0  0  0  0  0
   61.1880   33.6600   47.4180 S   0  0  0  0  0  0  0  0  0  0  0  0
   60.7790   34.7990   48.3090 O   0  0  0  0  0  0  0  0  0  0  0  0
   62.1020   34.2070   46.3570 O   0  0  0  0  0  0  0  0  0  0  0  0
   62.0390   32.4660   48.3710 N   0  0  0  0  0  0  0  0  0  0  0  0
   63.4290   32.2810   47.8980 C   0  0  0  0  0  0  0  0  0  0  0  0
   64.4510   32.9840   48.8130 C   0  0  0  0  0  0  0  0  0  0  0  0
   64.3940   32.5590   50.1700 O   0  0  0  0  0  0  0  0  0  0  0  0
   63.1050   32.1210   50.5800 C   0  0  0  0  0  0  0  0  0  0  0  0
   61.9590   32.7930   49.8080 C   0  0  0  0  0  0  0  0  0  0  0  0
   59.1610   33.6140   45.5550 C   0  0  0  0  0  0  0  0  0  0  0  0
   58.0780   33.0260   44.8930 C   0  0  0  0  0  0  0  0  0  0  0  0
   56.7613   27.9904   43.4552 H   0  0  0  0  0  0  0  0  0  0  0  0
   57.5448   29.4571   42.7751 H   0  0  0  0  0  0  0  0  0  0  0  0
   57.4548   27.8442   46.3548 H   0  0  0  0  0  0  0  0  0  0  0  0
   59.2610   28.9960   48.7620 H   0  0  0  0  0  0  0  0  0  0  0  0
   61.5054   30.0369   50.0591 H   0  0  0  0  0  0  0  0  0  0  0  0
   62.8475   29.5905   52.1145 H   0  0  0  0  0  0  0  0  0  0  0  0
   62.9042   27.2958   53.0979 H   0  0  0  0  0  0  0  0  0  0  0  0
   61.6301   25.4417   52.0162 H   0  0  0  0  0  0  0  0  0  0  0  0
   60.2907   25.8766   49.9580 H   0  0  0  0  0  0  0  0  0  0  0  0
   57.7035   30.2326   46.8279 H   0  0  0  0  0  0  0  0  0  0  0  0
   59.6528   31.2675   47.9907 H   0  0  0  0  0  0  0  0  0  0  0  0
   63.6554   31.2048   47.8744 H   0  0  0  0  0  0  0  0  0  0  0  0
   63.5081   32.7275   46.8958 H   0  0  0  0  0  0  0  0  0  0  0  0
   65.4606   32.7789   48.4274 H   0  0  0  0  0  0  0  0  0  0  0  0
   64.2064   34.0564   48.8024 H   0  0  0  0  0  0  0  0  0  0  0  0
   63.0401   31.0340   50.4244 H   0  0  0  0  0  0  0  0  0  0  0  0
   62.9894   32.3967   51.6386 H   0  0  0  0  0  0  0  0  0  0  0  0
   60.9973   32.4376   50.2066 H   0  0  0  0  0  0  0  0  0  0  0  0
   62.0414   33.8832   49.9288 H   0  0  0  0  0  0  0  0  0  0  0  0
   59.5500   34.5845   45.2134 H   0  0  0  0  0  0  0  0  0  0  0  0
   57.6201   33.5385   44.0341 H   0  0  0  0  0  0  0  0  0  0  0  0
  1  2  2  0
  2  3  1  0
  3  4  1  0
  4  5  1  0
  5  6  2  0
  6  7  1  0
  7  8  2  0
  7  9  1  0
  9 10  1  0
 10 11  2  0
 11 12  1  0
 12 13  2  0
 13 14  1  0
 14 15  2  0
  6 16  1  0
 16 17  2  0
  2 18  1  0
 18 19  1  0
 19 20  2  0
 20 21  1  0
 21 22  2  0
 22 23  1  0
 23 24  2  0
 23 25  2  0
 23 26  1  0
 26 27  1  0
 27 28  1  0
 28 29  1  0
 29 30  1  0
 30 31  1  0
 22 32  1  0
 32 33  2  0
 17  4  1  0
 33 19  1  0
 15 10  1  0
 31 26  1  0
  3 34  1  0
  3 35  1  0
  5 36  1  0
  9 37  1  0
 11 38  1  0
 12 39  1  0
 13 40  1  0
 14 41  1  0
 15 42  1  0
 20 43  1  0
 21 44  1  0
 27 45  1  0
 27 46  1  0
 28 47  1  0
 28 48  1  0
 30 49  1  0
 30 50  1  0
 31 51  1  0
 31 52  1  0
 32 53  1  0
 33 54  1  0
M  CHG  1  18  -1
M  END
>  <UniqueID>  (21) 
16

>  <SMILES>  (21) 
O=C(Cn1cc(C(=O)Nc2ccccc2)nn1)[N-]c1ccc(S(=O)(=O)N2CCOCC2)cc1

>  <Energy>  (21) 
108.52028428185906

>  <Genealogy>  (21) 
O=C(Cn1cc(C(=O)Nc2ccccc2)nn1)[N-]c1ccc(S(=O)(=O)N2CCOCC2)cc1 (protonated)
O=C(Cn1cc(C(=O)Nc2ccccc2)nn1)[N-]c1ccc(S(=O)(=O)N2CCOCC2)cc1 (3D coordinates assigned)
O=C(Cn1cc(C(=O)Nc2ccccc2)nn1)[N-]c1ccc(S(=O)(=O)N2CCOCC2)cc1 (nonaromatic ring conformer: 108.52028428185906 kcal/mol)

>  <smiles>  (21) 
O=C(Cn1cc(C(=O)Nc2ccccc2)nn1)Nc1ccc(S(=O)(=O)N2CCOCC2)cc1

>  <score_type>  (21) 
oracle

>  <origin>  (21) 
adg

>  <m_score__min__energy>  (21) 
-11.609999999999999

>  <m_primary>  (21) 
energy

$$$$
21:0
     RDKit          3D

 52 54  0  0  0  0  0  0  0  0999 V2000
   60.7730   27.8570   49.9840 C   0  0  0  0  0  0  0  0  0  0  0  0
   60.6110   28.9940   49.0800 N   0  0  0  0  0  0  0  0  0  0  0  0
   59.8010   28.8560   47.9030 C   0  0  0  0  0  0  0  0  0  0  0  0
   58.6470   28.0600   47.9270 C   0  0  0  0  0  0  0  0  0  0  0  0
   57.8470   27.9420   46.7880 C   0  0  0  0  0  0  0  0  0  0  0  0
   58.1720   28.6450   45.6230 C   0  0  0  0  0  0  0  0  0  0  0  0
   57.3000   28.5660   44.4910 N   0  0  0  0  0  0  0  0  0  0  0  0
   56.2990   29.5350   44.1450 C   0  0  0  0  0  0  0  0  0  0  0  0
   55.1130   29.3380   44.5210 O   0  0  0  0  0  0  0  0  0  0  0  0
   56.6220   30.7990   43.3870 C   0  0  0  0  0  0  0  0  0  0  0  0
   57.3360   31.8010   44.2500 C   0  0  0  0  0  0  0  0  0  0  0  0
   58.0600   32.8570   43.6800 C   0  0  0  0  0  0  0  0  0  0  0  0
   58.6440   33.8140   44.5120 C   0  0  0  0  0  0  0  0  0  0  0  0
   58.5100   33.7200   45.9000 C   0  0  0  0  0  0  0  0  0  0  0  0
   59.0950   34.7150   46.7000 O   0  0  0  0  0  0  0  0  0  0  0  0
   59.5910   34.5190   48.0250 C   0  0  0  0  0  0  0  0  0  0  0  0
   61.0530   34.1600   48.0040 C   0  0  0  0  0  0  0  0  0  0  0  0
   61.6800   33.7860   46.8030 C   0  0  0  0  0  0  0  0  0  0  0  0
   63.0360   33.4460   46.7930 C   0  0  0  0  0  0  0  0  0  0  0  0
   63.7720   33.4660   47.9810 C   0  0  0  0  0  0  0  0  0  0  0  0
   63.1520   33.8210   49.1810 C   0  0  0  0  0  0  0  0  0  0  0  0
   61.7970   34.1630   49.1970 C   0  0  0  0  0  0  0  0  0  0  0  0
   57.7910   32.6360   46.4330 C   0  0  0  0  0  0  0  0  0  0  0  0
   57.2310   31.7160   45.6040 N   0  0  0  0  0  0  0  0  0  0  0  0
   59.3410   29.4180   45.5840 C   0  0  0  0  0  0  0  0  0  0  0  0
   60.1490   29.5270   46.7200 C   0  0  0  0  0  0  0  0  0  0  0  0
   61.3230   30.5300   49.4810 S   0  0  0  0  0  0  0  0  0  0  0  0
   62.2110   30.4260   51.0220 C   0  0  0  0  0  0  0  0  0  0  0  0
   62.2610   30.9530   48.3870 O   0  0  0  0  0  0  0  0  0  0  0  0
   60.2390   31.5600   49.6390 O   0  0  0  0  0  0  0  0  0  0  0  0
   60.7232   28.2068   51.0257 H   0  0  0  0  0  0  0  0  0  0  0  0
   59.9697   27.1276   49.8033 H   0  0  0  0  0  0  0  0  0  0  0  0
   61.7480   27.3809   49.8033 H   0  0  0  0  0  0  0  0  0  0  0  0
   58.3701   27.5256   48.8477 H   0  0  0  0  0  0  0  0  0  0  0  0
   56.9583   27.2940   46.8072 H   0  0  0  0  0  0  0  0  0  0  0  0
   57.2636   30.5460   42.5300 H   0  0  0  0  0  0  0  0  0  0  0  0
   55.6752   31.2487   43.0533 H   0  0  0  0  0  0  0  0  0  0  0  0
   58.1671   32.9311   42.5877 H   0  0  0  0  0  0  0  0  0  0  0  0
   59.2128   34.6467   44.0726 H   0  0  0  0  0  0  0  0  0  0  0  0
   59.4562   35.4465   48.6008 H   0  0  0  0  0  0  0  0  0  0  0  0
   59.0331   33.6931   48.4904 H   0  0  0  0  0  0  0  0  0  0  0  0
   61.1017   33.7607   45.8676 H   0  0  0  0  0  0  0  0  0  0  0  0
   63.5243   33.1624   45.8490 H   0  0  0  0  0  0  0  0  0  0  0  0
   64.8398   33.2021   47.9708 H   0  0  0  0  0  0  0  0  0  0  0  0
   63.7316   33.8315   50.1159 H   0  0  0  0  0  0  0  0  0  0  0  0
   61.3112   34.4353   50.1456 H   0  0  0  0  0  0  0  0  0  0  0  0
   57.6815   32.5322   47.5226 H   0  0  0  0  0  0  0  0  0  0  0  0
   59.6232   29.9399   44.6577 H   0  0  0  0  0  0  0  0  0  0  0  0
   61.0611   30.1410   46.6866 H   0  0  0  0  0  0  0  0  0  0  0  0
   61.5028   30.5089   51.8596 H   0  0  0  0  0  0  0  0  0  0  0  0
   62.7348   29.4604   51.0789 H   0  0  0  0  0  0  0  0  0  0  0  0
   62.9437   31.2445   51.0789 H   0  0  0  0  0  0  0  0  0  0  0  0
  1  2  1  0
  2  3  1  0
  3  4  2  0
  4  5  1  0
  5  6  2  0
  6  7  1  0
  7  8  1  0
  8  9  2  0
  8 10  1  0
 10 11  1  0
 11 12  2  0
 12 13  1  0
 13 14  2  0
 14 15  1  0
 15 16  1  0
 16 17  1  0
 17 18  2  0
 18 19  1  0
 19 20  2  0
 20 21  1  0
 21 22  2  0
 14 23  1  0
 23 24  2  0
  6 25  1  0
 25 26  2  0
  2 27  1  0
 27 28  1  0
 27 29  2  0
 27 30  2  0
 26  3  1  0
 24 11  1  0
 22 17  1  0
  1 31  1  0
  1 32  1  0
  1 33  1  0
  4 34  1  0
  5 35  1  0
 10 36  1  0
 10 37  1  0
 12 38  1  0
 13 39  1  0
 16 40  1  0
 16 41  1  0
 18 42  1  0
 19 43  1  0
 20 44  1  0
 21 45  1  0
 22 46  1  0
 23 47  1  0
 25 48  1  0
 26 49  1  0
 28 50  1  0
 28 51  1  0
 28 52  1  0
M  CHG  1   7  -1
M  END
>  <UniqueID>  (22) 
17

>  <SMILES>  (22) 
CN(c1ccc([N-]C(=O)Cc2ccc(OCc3ccccc3)cn2)cc1)S(C)(=O)=O

>  <Energy>  (22) 
56.21065185689359

>  <Genealogy>  (22) 
CN(c1ccc([N-]C(=O)Cc2ccc(OCc3ccccc3)cn2)cc1)S(C)(=O)=O (protonated)
CN(c1ccc([N-]C(=O)Cc2ccc(OCc3ccccc3)cn2)cc1)S(C)(=O)=O (3D coordinates assigned)
CN(c1ccc([N-]C(=O)Cc2ccc(OCc3ccccc3)cn2)cc1)S(C)(=O)=O (optimized conformer: 56.21065185689359 kcal/mol)

>  <smiles>  (22) 
CN(c1ccc(NC(=O)Cc2ccc(OCc3ccccc3)cn2)cc1)S(C)(=O)=O

>  <score_type>  (22) 
oracle

>  <origin>  (22) 
adg

>  <m_score__min__energy>  (22) 
-11.07

>  <m_primary>  (22) 
energy

$$$$
22:0
     RDKit          3D

 53 55  0  0  0  0  0  0  0  0999 V2000
   55.9100   27.5780   44.8800 H   0  0  0  0  0  0  0  0  0  0  0  0
   55.5230   27.0140   45.6290 O   0  0  0  0  0  0  0  0  0  0  0  0
   55.9620   25.7120   45.8650 C   0  0  0  0  0  0  0  0  0  0  0  0
   55.0930   24.6340   45.6430 C   0  0  0  0  0  0  0  0  0  0  0  0
   54.0768   24.8196   45.2649 H   0  0  0  0  0  0  0  0  0  0  0  0
   55.5100   23.3270   45.8990 C   0  0  0  0  0  0  0  0  0  0  0  0
   54.8227   22.4866   45.7220 H   0  0  0  0  0  0  0  0  0  0  0  0
   56.7970   23.0850   46.3790 C   0  0  0  0  0  0  0  0  0  0  0  0
   57.1227   22.0547   46.5850 H   0  0  0  0  0  0  0  0  0  0  0  0
   57.6720   24.1510   46.5980 C   0  0  0  0  0  0  0  0  0  0  0  0
   58.6868   23.9545   46.9743 H   0  0  0  0  0  0  0  0  0  0  0  0
   57.2680   25.4730   46.3420 C   0  0  0  0  0  0  0  0  0  0  0  0
   58.1960   26.5590   46.5420 N   0  0  0  0  0  0  0  0  0  0  0  0
   57.7730   27.7760   47.2490 C   0  0  0  0  0  0  0  0  0  0  0  0
   57.9052   27.6288   48.3311 H   0  0  0  0  0  0  0  0  0  0  0  0
   56.7158   27.9700   47.0152 H   0  0  0  0  0  0  0  0  0  0  0  0
   58.6080   28.9880   46.7990 C   0  0  0  0  0  0  0  0  0  0  0  0
   59.5612   28.9845   47.3481 H   0  0  0  0  0  0  0  0  0  0  0  0
   58.0252   29.8963   47.0122 H   0  0  0  0  0  0  0  0  0  0  0  0
   58.8950   28.9640   45.3460 N   0  0  0  0  0  0  0  0  0  0  0  0
   57.4780   29.2940   44.3690 S   0  0  0  0  0  0  0  0  0  0  0  0
   56.2450   29.3310   45.2280 O   0  0  0  0  0  0  0  0  0  0  0  0
   57.3290   28.1900   43.3600 O   0  0  0  0  0  0  0  0  0  0  0  0
   57.6400   30.8490   43.4890 C   0  0  0  0  0  0  0  0  0  0  0  0
   56.6403   31.1874   43.1792 H   0  0  0  0  0  0  0  0  0  0  0  0
   58.2908   30.6802   42.6184 H   0  0  0  0  0  0  0  0  0  0  0  0
   58.2820   31.9340   44.3550 C   0  0  0  0  0  0  0  0  0  0  0  0
   58.9541   32.5431   43.7327 H   0  0  0  0  0  0  0  0  0  0  0  0
   58.8479   31.4526   45.1662 H   0  0  0  0  0  0  0  0  0  0  0  0
   57.2590   32.7940   44.9400 N   0  0  0  0  0  0  0  0  0  0  0  0
   57.4170   34.1950   45.1890 C   0  0  0  0  0  0  0  0  0  0  0  0
   56.4810   34.9700   44.8600 O   0  0  0  0  0  0  0  0  0  0  0  0
   58.6300   34.7210   45.8650 C   0  0  0  0  0  0  0  0  0  0  0  0
   59.1887   35.5138   45.3460 H   0  0  0  0  0  0  0  0  0  0  0  0
   59.1060   34.3150   47.0540 C   0  0  0  0  0  0  0  0  0  0  0  0
   58.3704   34.1154   47.8471 H   0  0  0  0  0  0  0  0  0  0  0  0
   60.5310   34.1130   47.3900 C   0  0  0  0  0  0  0  0  0  0  0  0
   61.4790   33.7870   46.4020 C   0  0  0  0  0  0  0  0  0  0  0  0
   61.1688   33.7080   45.3496 H   0  0  0  0  0  0  0  0  0  0  0  0
   62.8150   33.5630   46.7540 C   0  0  0  0  0  0  0  0  0  0  0  0
   63.5564   33.3279   45.9762 H   0  0  0  0  0  0  0  0  0  0  0  0
   63.2080   33.6380   48.0950 C   0  0  0  0  0  0  0  0  0  0  0  0
   64.5020   33.4150   48.4350 F   0  0  0  0  0  0  0  0  0  0  0  0
   62.2630   33.9280   49.0850 C   0  0  0  0  0  0  0  0  0  0  0  0
   62.5707   33.9769   50.1400 H   0  0  0  0  0  0  0  0  0  0  0  0
   60.9270   34.1560   48.7360 C   0  0  0  0  0  0  0  0  0  0  0  0
   60.1847   34.3696   49.5192 H   0  0  0  0  0  0  0  0  0  0  0  0
   59.5970   27.7340   44.8940 C   0  0  0  0  0  0  0  0  0  0  0  0
   60.6589   27.9775   44.7423 H   0  0  0  0  0  0  0  0  0  0  0  0
   59.1017   27.4063   43.9681 H   0  0  0  0  0  0  0  0  0  0  0  0
   59.5060   26.5610   45.8880 C   0  0  0  0  0  0  0  0  0  0  0  0
   60.2930   26.6668   46.6492 H   0  0  0  0  0  0  0  0  0  0  0  0
   59.6388   25.6148   45.3429 H   0  0  0  0  0  0  0  0  0  0  0  0
  1  2  1  0
  2  3  1  0
  3  4  2  0
  4  5  1  0
  4  6  1  0
  6  7  1  0
  6  8  2  0
  8  9  1  0
  8 10  1  0
 10 11  1  0
 10 12  2  0
 12 13  1  0
 13 14  1  0
 14 15  1  0
 14 16  1  0
 14 17  1  0
 17 18  1  0
 17 19  1  0
 17 20  1  0
 20 21  1  0
 21 22  2  0
 21 23  2  0
 21 24  1  0
 24 25  1  0
 24 26  1  0
 24 27  1  0
 27 28  1  0
 27 29  1  0
 27 30  1  0
 30 31  1  0
 31 32  2  0
 31 33  1  0
 33 34  1  0
 33 35  2  0
 35 36  1  0
 35 37  1  0
 37 38  2  0
 38 39  1  0
 38 40  1  0
 40 41  1  0
 40 42  2  0
 42 43  1  0
 42 44  1  0
 44 45  1  0
 44 46  2  0
 46 47  1  0
 20 48  1  0
 48 49  1  0
 48 50  1  0
 48 51  1  0
 51 52  1  0
 51 53  1  0
 12  3  1  0
 51 13  1  0
 46 37  1  0
M  CHG  1  30  -1
M  END
>  <UniqueID>  (23) 
18

>  <SMILES>  (23) 
O=C(/C=C\c1ccc(F)cc1)[N-]CCS(=O)(=O)N1CCN(c2ccccc2O)CC1

>  <Energy>  (23) 
67.20276526160578

>  <Genealogy>  (23) 
O=C(C=Cc1ccc(F)cc1)[N-]CCS(=O)(=O)N1CCN(c2ccccc2O)CC1 (protonated)
O=C(/C=C\c1ccc(F)cc1)[N-]CCS(=O)(=O)N1CCN(c2ccccc2O)CC1 (cis-trans isomerization)
O=C(/C=C\c1ccc(F)cc1)[N-]CCS(=O)(=O)N1CCN(c2ccccc2O)CC1 (3D coordinates assigned)
O=C(/C=C\c1ccc(F)cc1)[N-]CCS(=O)(=O)N1CCN(c2ccccc2O)CC1 (nonaromatic ring conformer: 67.20276526160578 kcal/mol)

>  <smiles>  (23) 
O=C(C=Cc1ccc(F)cc1)NCCS(=O)(=O)N1CCN(c2ccccc2O)CC1

>  <score_type>  (23) 
oracle

>  <origin>  (23) 
adg

>  <m_score__min__energy>  (23) 
-10.18

>  <m_primary>  (23) 
energy

$$$$
23:0
     RDKit          3D

 54 56  0  0  0  0  0  0  0  0999 V2000
   59.2990   28.7610   47.8740 O   0  0  0  0  0  0  0  0  0  0  0  0
   59.6510   28.1080   46.8520 C   0  0  0  0  0  0  0  0  0  0  0  0
   60.0310   26.6640   46.9850 C   0  0  0  0  0  0  0  0  0  0  0  0
   58.7930   25.7660   46.9630 C   0  0  0  0  0  0  0  0  0  0  0  0
   57.6470   26.5110   46.4410 N   0  0  0  0  0  0  0  0  0  0  0  0
   56.2650   25.4710   46.2840 S   0  0  0  0  0  0  0  0  0  0  0  0
   55.0760   26.2670   45.8200 O   0  0  0  0  0  0  0  0  0  0  0  0
   55.9470   24.8580   47.6200 O   0  0  0  0  0  0  0  0  0  0  0  0
   56.6390   24.1840   45.1400 C   0  0  0  0  0  0  0  0  0  0  0  0
   57.6450   23.2580   45.4460 C   0  0  0  0  0  0  0  0  0  0  0  0
   57.9560   22.2320   44.5480 C   0  0  0  0  0  0  0  0  0  0  0  0
   57.2600   22.1260   43.3410 C   0  0  0  0  0  0  0  0  0  0  0  0
   56.2560   23.0470   43.0290 C   0  0  0  0  0  0  0  0  0  0  0  0
   55.9450   24.0770   43.9250 C   0  0  0  0  0  0  0  0  0  0  0  0
   59.6890   28.7420   45.5690 N   0  0  0  0  0  0  0  0  0  0  0  0
   58.6430   29.6110   45.1270 C   0  0  0  0  0  0  0  0  0  0  0  0
   58.7350   30.9800   45.3960 C   0  0  0  0  0  0  0  0  0  0  0  0
   57.7800   31.8690   44.8850 C   0  0  0  0  0  0  0  0  0  0  0  0
   57.9750   33.6090   45.1140 S   0  0  0  0  0  0  0  0  0  0  0  0
   58.9890   34.1280   44.1340 O   0  0  0  0  0  0  0  0  0  0  0  0
   56.6650   34.2900   44.8310 O   0  0  0  0  0  0  0  0  0  0  0  0
   58.5070   33.9940   46.7370 N   0  0  0  0  0  0  0  0  0  0  0  0
   58.1690   32.9210   47.7020 C   0  0  0  0  0  0  0  0  0  0  0  0
   59.2380   32.7210   48.7780 C   0  0  0  0  0  0  0  0  0  0  0  0
   60.5760   32.3820   48.1170 C   0  0  0  0  0  0  0  0  0  0  0  0
   60.9500   33.3720   46.9930 C   0  0  0  0  0  0  0  0  0  0  0  0
   59.9050   34.4840   46.7690 C   0  0  0  0  0  0  0  0  0  0  0  0
   56.7010   31.3710   44.1410 C   0  0  0  0  0  0  0  0  0  0  0  0
   56.5840   29.9980   43.9050 C   0  0  0  0  0  0  0  0  0  0  0  0
   57.5480   29.1120   44.3940 C   0  0  0  0  0  0  0  0  0  0  0  0
   57.3910   27.7470   44.1560 O   0  0  0  0  0  0  0  0  0  0  0  0
   60.6907   26.3874   46.1493 H   0  0  0  0  0  0  0  0  0  0  0  0
   60.5471   26.5250   47.9464 H   0  0  0  0  0  0  0  0  0  0  0  0
   58.9856   24.8949   46.3195 H   0  0  0  0  0  0  0  0  0  0  0  0
   58.5709   25.4300   47.9866 H   0  0  0  0  0  0  0  0  0  0  0  0
   58.1925   23.3384   46.3967 H   0  0  0  0  0  0  0  0  0  0  0  0
   58.7482   21.5088   44.7917 H   0  0  0  0  0  0  0  0  0  0  0  0
   57.5024   21.3172   42.6359 H   0  0  0  0  0  0  0  0  0  0  0  0
   55.7094   22.9625   42.0782 H   0  0  0  0  0  0  0  0  0  0  0  0
   55.1564   24.8025   43.6765 H   0  0  0  0  0  0  0  0  0  0  0  0
   59.5622   31.3615   46.0126 H   0  0  0  0  0  0  0  0  0  0  0  0
   57.2205   33.1801   48.1951 H   0  0  0  0  0  0  0  0  0  0  0  0
   58.0959   31.9815   47.1346 H   0  0  0  0  0  0  0  0  0  0  0  0
   59.3437   33.6452   49.3651 H   0  0  0  0  0  0  0  0  0  0  0  0
   58.9388   31.8955   49.4406 H   0  0  0  0  0  0  0  0  0  0  0  0
   61.3640   32.4057   48.8841 H   0  0  0  0  0  0  0  0  0  0  0  0
   60.4808   31.3840   47.6642 H   0  0  0  0  0  0  0  0  0  0  0  0
   61.9090   33.8445   47.2521 H   0  0  0  0  0  0  0  0  0  0  0  0
   61.0047   32.7915   46.0602 H   0  0  0  0  0  0  0  0  0  0  0  0
   59.9972   35.2159   47.5850 H   0  0  0  0  0  0  0  0  0  0  0  0
   60.1125   34.9243   45.7826 H   0  0  0  0  0  0  0  0  0  0  0  0
   55.9444   32.0625   43.7419 H   0  0  0  0  0  0  0  0  0  0  0  0
   55.7283   29.6128   43.3311 H   0  0  0  0  0  0  0  0  0  0  0  0
   56.6930   27.1880   44.6290 H   0  0  0  0  0  0  0  0  0  0  0  0
  1  2  2  0
  2  3  1  0
  3  4  1  0
  4  5  1  0
  5  6  1  0
  6  7  2  0
  6  8  2  0
  6  9  1  0
  9 10  2  0
 10 11  1  0
 11 12  2  0
 12 13  1  0
 13 14  2  0
  2 15  1  0
 15 16  1  0
 16 17  2  0
 17 18  1  0
 18 19  1  0
 19 20  2  0
 19 21  2  0
 19 22  1  0
 22 23  1  0
 23 24  1  0
 24 25  1  0
 25 26  1  0
 26 27  1  0
 18 28  2  0
 28 29  1  0
 29 30  2  0
 30 31  1  0
 14  9  1  0
 30 16  1  0
 27 22  1  0
  3 32  1  0
  3 33  1  0
  4 34  1  0
  4 35  1  0
 10 36  1  0
 11 37  1  0
 12 38  1  0
 13 39  1  0
 14 40  1  0
 17 41  1  0
 23 42  1  0
 23 43  1  0
 24 44  1  0
 24 45  1  0
 25 46  1  0
 25 47  1  0
 26 48  1  0
 26 49  1  0
 27 50  1  0
 27 51  1  0
 28 52  1  0
 29 53  1  0
 31 54  1  0
M  CHG  2   5  -1  15  -1
M  END
>  <UniqueID>  (24) 
19

>  <SMILES>  (24) 
O=C(CC[N-]S(=O)(=O)c1ccccc1)[N-]c1cc(S(=O)(=O)N2CCCCC2)ccc1O

>  <Energy>  (24) 
62.32807392652131

>  <Genealogy>  (24) 
O=C(CC[N-]S(=O)(=O)c1ccccc1)[N-]c1cc(S(=O)(=O)N2CCCCC2)ccc1O (protonated)
O=C(CC[N-]S(=O)(=O)c1ccccc1)[N-]c1cc(S(=O)(=O)N2CCCCC2)ccc1O (3D coordinates assigned)
O=C(CC[N-]S(=O)(=O)c1ccccc1)[N-]c1cc(S(=O)(=O)N2CCCCC2)ccc1O (nonaromatic ring conformer: 62.32807392652131 kcal/mol)

>  <smiles>  (24) 
O=C(CCNS(=O)(=O)c1ccccc1)Nc1cc(S(=O)(=O)N2CCCCC2)ccc1O

>  <score_type>  (24) 
oracle

>  <origin>  (24) 
adg

>  <m_score__min__energy>  (24) 
-12.98

>  <m_primary>  (24) 
energy

$$$$
24:0
     RDKit          3D

 37 39  0  0  0  0  0  0  0  0999 V2000
   57.4486   26.2069   43.1643 H   0  0  0  0  0  0  0  0  0  0  0  0
   57.7760   26.4410   44.1880 C   0  0  0  0  0  0  0  0  0  0  0  0
   57.4220   25.5110   45.2830 C   0  0  0  0  0  0  0  0  0  0  0  0
   58.1910   25.3800   46.2730 O   0  0  0  0  0  0  0  0  0  0  0  0
   56.1460   24.7540   45.2530 C   0  0  0  0  0  0  0  0  0  0  0  0
   54.9370   25.3760   45.6190 C   0  0  0  0  0  0  0  0  0  0  0  0
   54.9100   26.7130   45.9990 O   0  0  0  0  0  0  0  0  0  0  0  0
   53.7740   24.6750   45.5870 N   0  0  0  0  0  0  0  0  0  0  0  0
   53.7500   23.3720   45.2110 C   0  0  0  0  0  0  0  0  0  0  0  0
   52.6590   22.7460   45.1860 O   0  0  0  0  0  0  0  0  0  0  0  0
   54.9010   22.7430   44.8640 N   0  0  0  0  0  0  0  0  0  0  0  0
   56.0920   23.3960   44.8800 C   0  0  0  0  0  0  0  0  0  0  0  0
   57.1400   22.7640   44.5810 O   0  0  0  0  0  0  0  0  0  0  0  0
   58.4830   27.5600   44.4030 C   0  0  0  0  0  0  0  0  0  0  0  0
   59.5601   27.4607   44.6032 H   0  0  0  0  0  0  0  0  0  0  0  0
   57.8990   28.9250   44.3870 C   0  0  0  0  0  0  0  0  0  0  0  0
   56.5180   29.0620   44.1740 C   0  0  0  0  0  0  0  0  0  0  0  0
   55.8950   28.1653   44.0407 H   0  0  0  0  0  0  0  0  0  0  0  0
   55.9290   30.3270   44.1300 C   0  0  0  0  0  0  0  0  0  0  0  0
   54.8445   30.4217   43.9719 H   0  0  0  0  0  0  0  0  0  0  0  0
   56.7120   31.4720   44.2860 C   0  0  0  0  0  0  0  0  0  0  0  0
   56.2406   32.4653   44.2529 H   0  0  0  0  0  0  0  0  0  0  0  0
   58.0910   31.3640   44.4840 C   0  0  0  0  0  0  0  0  0  0  0  0
   58.8610   32.5690   44.6160 N   0  0  0  0  0  0  0  0  0  0  0  0
   58.4140   33.9440   45.5730 S   0  0  0  0  0  0  0  0  0  0  0  0
   56.9190   34.1040   45.5430 O   0  0  0  0  0  0  0  0  0  0  0  0
   59.0500   35.1770   44.9980 O   0  0  0  0  0  0  0  0  0  0  0  0
   58.9710   33.7320   47.2220 C   0  0  0  0  0  0  0  0  0  0  0  0
   58.5690   32.4370   48.2130 S   0  0  0  0  0  0  0  0  0  0  0  0
   59.4070   32.9880   49.5650 C   0  0  0  0  0  0  0  0  0  0  0  0
   59.4698   32.4744   50.5357 H   0  0  0  0  0  0  0  0  0  0  0  0
   60.0060   34.2010   49.2480 C   0  0  0  0  0  0  0  0  0  0  0  0
   60.6135   34.7772   49.9613 H   0  0  0  0  0  0  0  0  0  0  0  0
   59.7630   34.6200   47.9350 C   0  0  0  0  0  0  0  0  0  0  0  0
   60.1586   35.5555   47.5126 H   0  0  0  0  0  0  0  0  0  0  0  0
   58.6840   30.0880   44.5340 C   0  0  0  0  0  0  0  0  0  0  0  0
   59.7692   29.9970   44.6891 H   0  0  0  0  0  0  0  0  0  0  0  0
  1  2  1  0
  2  3  1  0
  3  4  2  0
  3  5  1  0
  5  6  2  0
  6  7  1  0
  6  8  1  0
  8  9  1  0
  9 10  2  0
  9 11  1  0
 11 12  1  0
 12 13  2  0
  2 14  2  0
 14 15  1  0
 14 16  1  0
 16 17  2  0
 17 18  1  0
 17 19  1  0
 19 20  1  0
 19 21  2  0
 21 22  1  0
 21 23  1  0
 23 24  1  0
 24 25  1  0
 25 26  2  0
 25 27  2  0
 25 28  1  0
 28 29  1  0
 29 30  1  0
 30 31  1  0
 30 32  2  0
 32 33  1  0
 32 34  1  0
 34 35  1  0
 23 36  2  0
 36 37  1  0
 12  5  1  0
 36 16  1  0
 34 28  2  0
M  CHG  4   7  -1   8  -1  11  -1  24  -1
M  END
>  <UniqueID>  (25) 
20

>  <SMILES>  (25) 
O=C(/C=C/c1cccc([N-]S(=O)(=O)c2cccs2)c1)c1c([O-])[n-]c(=O)[n-]c1=O

>  <Energy>  (25) 
77.64110479581653

>  <Genealogy>  (25) 
O=C(C=Cc1cccc([N-]S(=O)(=O)c2cccs2)c1)c1c([O-])[n-]c(=O)[n-]c1=O (protonated)
O=C(/C=C/c1cccc([N-]S(=O)(=O)c2cccs2)c1)c1c([O-])[n-]c(=O)[n-]c1=O (cis-trans isomerization)
O=C(/C=C/c1cccc([N-]S(=O)(=O)c2cccs2)c1)c1c([O-])[n-]c(=O)[n-]c1=O (3D coordinates assigned)
O=C(/C=C/c1cccc([N-]S(=O)(=O)c2cccs2)c1)c1c([O-])[n-]c(=O)[n-]c1=O (optimized conformer: 77.64110479581653 kcal/mol)

>  <smiles>  (25) 
O=C(C=Cc1cccc(NS(=O)(=O)c2cccs2)c1)c1c(O)[nH]c(=O)[nH]c1=O

>  <score_type>  (25) 
oracle

>  <origin>  (25) 
adg

>  <m_score__min__energy>  (25) 
-17.829999999999998

>  <m_primary>  (25) 
energy

$$$$
25:0
     RDKit          3D

 40 42  0  0  0  0  0  0  0  0999 V2000
   60.3100   28.4490   49.1070 O   0  0  0  0  0  0  0  0  0  0  0  0
   59.3590   29.2410   48.8710 C   0  0  0  0  0  0  0  0  0  0  0  0
   59.1130   29.6890   47.4610 C   0  0  0  0  0  0  0  0  0  0  0  0
   58.1680   30.7550   47.4560 O   0  0  0  0  0  0  0  0  0  0  0  0
   58.2040   31.8470   46.5740 C   0  0  0  0  0  0  0  0  0  0  0  0
   58.9440   33.0120   46.8570 C   0  0  0  0  0  0  0  0  0  0  0  0
   58.9520   34.0790   45.9560 C   0  0  0  0  0  0  0  0  0  0  0  0
   58.2290   33.9950   44.7670 C   0  0  0  0  0  0  0  0  0  0  0  0
   57.4960   32.8440   44.4720 C   0  0  0  0  0  0  0  0  0  0  0  0
   57.4760   31.7620   45.3740 C   0  0  0  0  0  0  0  0  0  0  0  0
   56.7310   30.5660   45.1030 N   0  0  0  0  0  0  0  0  0  0  0  0
   57.3820   29.1020   44.4420 S   0  0  0  0  0  0  0  0  0  0  0  0
   58.8810   29.1480   44.5190 O   0  0  0  0  0  0  0  0  0  0  0  0
   56.9770   28.9750   43.0000 O   0  0  0  0  0  0  0  0  0  0  0  0
   56.8110   27.7230   45.3630 C   0  0  0  0  0  0  0  0  0  0  0  0
   57.5960   26.7380   45.9250 C   0  0  0  0  0  0  0  0  0  0  0  0
   56.6630   25.9170   46.5130 C   0  0  0  0  0  0  0  0  0  0  0  0
   56.9220   24.8660   47.1540 O   0  0  0  0  0  0  0  0  0  0  0  0
   55.4160   26.3810   46.3140 N   0  0  0  0  0  0  0  0  0  0  0  0
   55.5460   27.4730   45.6160 O   0  0  0  0  0  0  0  0  0  0  0  0
   58.5230   29.6590   49.9590 N   0  0  0  0  0  0  0  0  0  0  0  0
   58.4990   30.9560   50.5710 C   0  0  0  0  0  0  0  0  0  0  0  0
   59.3850   31.9760   50.1770 C   0  0  0  0  0  0  0  0  0  0  0  0
   59.3570   33.2190   50.8180 C   0  0  0  0  0  0  0  0  0  0  0  0
   58.4650   33.4490   51.8710 C   0  0  0  0  0  0  0  0  0  0  0  0
   58.4520   34.6900   52.5010 O   0  0  0  0  0  0  0  0  0  0  0  0
   57.6010   32.4260   52.2840 C   0  0  0  0  0  0  0  0  0  0  0  0
   57.6260   31.1840   51.6420 C   0  0  0  0  0  0  0  0  0  0  0  0
   60.0579   30.0354   47.0169 H   0  0  0  0  0  0  0  0  0  0  0  0
   58.7169   28.8471   46.8742 H   0  0  0  0  0  0  0  0  0  0  0  0
   59.5185   33.0815   47.7925 H   0  0  0  0  0  0  0  0  0  0  0  0
   59.5295   34.9868   46.1848 H   0  0  0  0  0  0  0  0  0  0  0  0
   58.2361   34.8374   44.0597 H   0  0  0  0  0  0  0  0  0  0  0  0
   56.9310   32.7816   43.5302 H   0  0  0  0  0  0  0  0  0  0  0  0
   58.6911   26.6353   45.9073 H   0  0  0  0  0  0  0  0  0  0  0  0
   60.1018   31.7952   49.3624 H   0  0  0  0  0  0  0  0  0  0  0  0
   60.0389   34.0186   50.4929 H   0  0  0  0  0  0  0  0  0  0  0  0
   58.1180   35.5220   52.0280 H   0  0  0  0  0  0  0  0  0  0  0  0
   56.9016   32.6003   53.1150 H   0  0  0  0  0  0  0  0  0  0  0  0
   56.9553   30.3805   51.9806 H   0  0  0  0  0  0  0  0  0  0  0  0
  1  2  2  0
  2  3  1  0
  3  4  1  0
  4  5  1  0
  5  6  2  0
  6  7  1  0
  7  8  2  0
  8  9  1  0
  9 10  2  0
 10 11  1  0
 11 12  1  0
 12 13  2  0
 12 14  2  0
 12 15  1  0
 15 16  2  0
 16 17  1  0
 17 18  2  0
 17 19  1  0
 19 20  1  0
  2 21  1  0
 21 22  1  0
 22 23  2  0
 23 24  1  0
 24 25  2  0
 25 26  1  0
 25 27  1  0
 27 28  2  0
 10  5  1  0
 20 15  1  0
 28 22  1  0
  3 29  1  0
  3 30  1  0
  6 31  1  0
  7 32  1  0
  8 33  1  0
  9 34  1  0
 16 35  1  0
 23 36  1  0
 24 37  1  0
 26 38  1  0
 27 39  1  0
 28 40  1  0
M  CHG  3  11  -1  19  -1  21  -1
M  END
>  <UniqueID>  (26) 
21

>  <SMILES>  (26) 
O=C(COc1ccccc1[N-]S(=O)(=O)c1cc(=O)[n-]o1)[N-]c1ccc(O)cc1

>  <Energy>  (26) 
81.17974307258166

>  <Genealogy>  (26) 
O=C(COc1ccccc1[N-]S(=O)(=O)c1cc(=O)[n-]o1)[N-]c1ccc(O)cc1 (protonated)
O=C(COc1ccccc1[N-]S(=O)(=O)c1cc(=O)[n-]o1)[N-]c1ccc(O)cc1 (3D coordinates assigned)
O=C(COc1ccccc1[N-]S(=O)(=O)c1cc(=O)[n-]o1)[N-]c1ccc(O)cc1 (optimized conformer: 81.17974307258166 kcal/mol)

>  <smiles>  (26) 
O=C(COc1ccccc1NS(=O)(=O)c1cc(=O)[nH]o1)Nc1ccc(O)cc1

>  <score_type>  (26) 
oracle

>  <origin>  (26) 
adg

>  <m_score__min__energy>  (26) 
-13.85

>  <m_primary>  (26) 
energy

$$$$
26:0
     RDKit          3D

 70 74  0  0  0  0  0  0  0  0999 V2000
   57.3480   30.3630   46.3460 O   0  0  0  0  0  0  0  0  0  0  0  0
   58.0960   29.3860   46.6160 C   0  0  0  0  0  0  0  0  0  0  0  0
   58.4390   28.3960   45.5510 C   0  0  0  0  0  0  0  0  0  0  0  0
   57.9100   27.0850   45.9230 N   0  0  0  0  0  0  0  0  0  0  0  0
   56.6290   26.6840   45.8800 C   0  0  0  0  0  0  0  0  0  0  0  0
   55.5610   27.5320   45.6080 O   0  0  0  0  0  0  0  0  0  0  0  0
   56.5690   25.3260   46.1580 C   0  0  0  0  0  0  0  0  0  0  0  0
   55.3740   24.4470   46.2220 C   0  0  0  0  0  0  0  0  0  0  0  0
   54.3510   24.6020   45.2630 C   0  0  0  0  0  0  0  0  0  0  0  0
   53.2060   23.8010   45.3070 C   0  0  0  0  0  0  0  0  0  0  0  0
   53.0650   22.8350   46.3070 C   0  0  0  0  0  0  0  0  0  0  0  0
   51.9270   22.0370   46.3510 O   0  0  0  0  0  0  0  0  0  0  0  0
   54.0680   22.6750   47.2680 C   0  0  0  0  0  0  0  0  0  0  0  0
   55.2140   23.4760   47.2310 C   0  0  0  0  0  0  0  0  0  0  0  0
   57.8270   24.8760   46.3760 N   0  0  0  0  0  0  0  0  0  0  0  0
   58.6040   25.9670   46.2140 C   0  0  0  0  0  0  0  0  0  0  0  0
   59.8580   25.9340   46.3200 O   0  0  0  0  0  0  0  0  0  0  0  0
   58.5670   29.1750   47.9490 N   0  0  0  0  0  0  0  0  0  0  0  0
   59.1680   30.2190   48.7730 C   0  0  1  0  0  0  0  0  0  0  0  0
   59.0760   31.5690   48.0410 C   0  0  0  0  0  0  0  0  0  0  0  0
   60.4380   32.1210   47.6990 C   0  0  0  0  0  0  0  0  0  0  0  0
   60.5610   33.3640   47.0570 C   0  0  0  0  0  0  0  0  0  0  0  0
   61.8250   33.8830   46.7630 C   0  0  0  0  0  0  0  0  0  0  0  0
   62.9750   33.1670   47.1090 C   0  0  0  0  0  0  0  0  0  0  0  0
   62.8590   31.9300   47.7510 C   0  0  0  0  0  0  0  0  0  0  0  0
   61.5970   31.4110   48.0510 C   0  0  0  0  0  0  0  0  0  0  0  0
   58.4620   30.2710   50.1090 C   0  0  0  0  0  0  0  0  0  0  0  0
   58.1930   29.2200   50.6750 O   0  0  0  0  0  0  0  0  0  0  0  0
   58.1250   31.6010   50.7730 C   0  0  2  0  0  0  0  0  0  0  0  0
   59.1600   32.0540   51.7980 C   0  0  0  0  0  0  0  0  0  0  0  0
   58.3930   32.9890   52.7130 C   0  0  0  0  0  0  0  0  0  0  0  0
   56.9180   32.8150   52.3420 C   0  0  0  0  0  0  0  0  0  0  0  0
   56.8010   31.6610   51.4310 N   0  0  0  0  0  0  0  0  0  0  0  0
   56.4420   30.4300   52.1780 C   0  0  0  0  0  0  0  0  0  0  0  0
   55.0570   30.5340   52.7630 C   0  0  0  0  0  0  0  0  0  0  0  0
   54.9370   30.4600   54.0170 O   0  0  0  0  0  0  0  0  0  0  0  0
   53.8450   30.7110   51.9170 C   0  0  0  0  0  0  0  0  0  0  0  0
   53.5120   29.7910   50.9010 C   0  0  0  0  0  0  0  0  0  0  0  0
   52.3680   29.9790   50.1210 C   0  0  0  0  0  0  0  0  0  0  0  0
   51.5370   31.0780   50.3440 C   0  0  0  0  0  0  0  0  0  0  0  0
   51.8500   31.9960   51.3470 C   0  0  0  0  0  0  0  0  0  0  0  0
   51.0210   33.0900   51.5730 O   0  0  0  0  0  0  0  0  0  0  0  0
   52.9970   31.8160   52.1270 C   0  0  0  0  0  0  0  0  0  0  0  0
   57.9948   28.7143   44.5963 H   0  0  0  0  0  0  0  0  0  0  0  0
   59.5319   28.3354   45.4418 H   0  0  0  0  0  0  0  0  0  0  0  0
   54.4552   25.3604   44.4730 H   0  0  0  0  0  0  0  0  0  0  0  0
   52.4152   23.9313   44.5536 H   0  0  0  0  0  0  0  0  0  0  0  0
   53.9553   21.9161   48.0563 H   0  0  0  0  0  0  0  0  0  0  0  0
   55.9955   23.3473   47.9943 H   0  0  0  0  0  0  0  0  0  0  0  0
   60.2305   29.9964   48.9505 H   0  0  0  0  0  0  0  0  0  0  0  0
   58.5053   31.4304   47.1109 H   0  0  0  0  0  0  0  0  0  0  0  0
   58.5777   32.2852   48.7109 H   0  0  0  0  0  0  0  0  0  0  0  0
   59.6589   33.9314   46.7844 H   0  0  0  0  0  0  0  0  0  0  0  0
   61.9152   34.8564   46.2586 H   0  0  0  0  0  0  0  0  0  0  0  0
   63.9693   33.5760   46.8766 H   0  0  0  0  0  0  0  0  0  0  0  0
   63.7632   31.3645   48.0203 H   0  0  0  0  0  0  0  0  0  0  0  0
   61.5111   30.4423   48.5650 H   0  0  0  0  0  0  0  0  0  0  0  0
   58.1189   32.2806   49.9081 H   0  0  0  0  0  0  0  0  0  0  0  0
   59.5544   31.1947   52.3601 H   0  0  0  0  0  0  0  0  0  0  0  0
   60.0297   32.5402   51.3319 H   0  0  0  0  0  0  0  0  0  0  0  0
   58.5583   32.7163   53.7658 H   0  0  0  0  0  0  0  0  0  0  0  0
   58.7209   34.0323   52.5943 H   0  0  0  0  0  0  0  0  0  0  0  0
   56.3252   32.6329   53.2505 H   0  0  0  0  0  0  0  0  0  0  0  0
   56.5416   33.7244   51.8508 H   0  0  0  0  0  0  0  0  0  0  0  0
   56.4787   29.5704   51.4926 H   0  0  0  0  0  0  0  0  0  0  0  0
   57.1598   30.2994   53.0013 H   0  0  0  0  0  0  0  0  0  0  0  0
   54.1578   28.9189   50.7213 H   0  0  0  0  0  0  0  0  0  0  0  0
   52.1213   29.2578   49.3279 H   0  0  0  0  0  0  0  0  0  0  0  0
   50.6359   31.2203   49.7294 H   0  0  0  0  0  0  0  0  0  0  0  0
   53.2396   32.5458   52.9135 H   0  0  0  0  0  0  0  0  0  0  0  0
  1  2  2  0
  2  3  1  0
  3  4  1  0
  4  5  1  0
  5  6  1  0
  5  7  2  0
  7  8  1  0
  8  9  2  0
  9 10  1  0
 10 11  2  0
 11 12  1  0
 11 13  1  0
 13 14  2  0
  7 15  1  0
 15 16  1  0
 16 17  2  0
  2 18  1  0
 18 19  1  0
 19 20  1  0
 20 21  1  0
 21 22  2  0
 22 23  1  0
 23 24  2  0
 24 25  1  0
 25 26  2  0
 19 27  1  0
 27 28  2  0
 27 29  1  0
 29 30  1  0
 30 31  1  0
 31 32  1  0
 32 33  1  0
 33 34  1  0
 34 35  1  0
 35 36  2  0
 35 37  1  0
 37 38  2  0
 38 39  1  0
 39 40  2  0
 40 41  1  0
 41 42  1  0
 41 43  2  0
 16  4  1  0
 26 21  1  0
 33 29  1  0
 43 37  1  0
 14  8  1  0
  3 44  1  0
  3 45  1  0
  9 46  1  0
 10 47  1  0
 13 48  1  0
 14 49  1  0
 19 50  1  1
 20 51  1  0
 20 52  1  0
 22 53  1  0
 23 54  1  0
 24 55  1  0
 25 56  1  0
 26 57  1  0
 29 58  1  6
 30 59  1  0
 30 60  1  0
 31 61  1  0
 31 62  1  0
 32 63  1  0
 32 64  1  0
 34 65  1  0
 34 66  1  0
 38 67  1  0
 39 68  1  0
 40 69  1  0
 43 70  1  0
M  CHG  5   6  -1  12  -1  15  -1  18  -1  42  -1
M  END
>  <UniqueID>  (27) 
22

>  <SMILES>  (27) 
O=C(Cn1c([O-])c(-c2ccc([O-])cc2)[n-]c1=O)[N-][C@@H](Cc1ccccc1)C(=O)[C@@H]1CCCN1CC(=O)c1cccc([O-])c1

>  <Energy>  (27) 
111.92408208714663

>  <Genealogy>  (27) 
O=C(Cn1c([O-])c(-c2ccc([O-])cc2)[n-]c1=O)[N-]C(Cc1ccccc1)C(=O)C1CCCN1CC(=O)c1cccc([O-])c1 (protonated)
O=C(Cn1c([O-])c(-c2ccc([O-])cc2)[n-]c1=O)[N-][C@@H](Cc1ccccc1)C(=O)[C@@H]1CCCN1CC(=O)c1cccc([O-])c1 (chirality)
O=C(Cn1c([O-])c(-c2ccc([O-])cc2)[n-]c1=O)[N-][C@@H](Cc1ccccc1)C(=O)[C@@H]1CCCN1CC(=O)c1cccc([O-])c1 (3D coordinates assigned)
O=C(Cn1c([O-])c(-c2ccc([O-])cc2)[n-]c1=O)[N-][C@@H](Cc1ccccc1)C(=O)[C@@H]1CCCN1CC(=O)c1cccc([O-])c1 (nonaromatic ring conformer: 111.92408208714663 kcal/mol)

>  <smiles>  (27) 
O=C(Cn1c(O)c(-c2ccc(O)cc2)[nH]c1=O)NC(Cc1ccccc1)C(=O)C1CCCN1CC(=O)c1cccc(O)c1

>  <score_type>  (27) 
oracle

>  <origin>  (27) 
adg

>  <m_score__min__energy>  (27) 
-21.289999999999999

>  <m_primary>  (27) 
energy

$$$$
27:0
     RDKit          3D

 56 58  0  0  0  0  0  0  0  0999 V2000
   60.2030   30.9390   51.3420 C   0  0  0  0  0  0  0  0  0  0  0  0
   61.1820   30.5390   50.3870 O   0  0  0  0  0  0  0  0  0  0  0  0
   62.5380   30.9050   50.4290 C   0  0  0  0  0  0  0  0  0  0  0  0
   63.4520   30.2550   51.2840 C   0  0  0  0  0  0  0  0  0  0  0  0
   64.7810   30.6770   51.3480 C   0  0  0  0  0  0  0  0  0  0  0  0
   65.2160   31.7480   50.5670 C   0  0  0  0  0  0  0  0  0  0  0  0
   64.3230   32.3960   49.7100 C   0  0  0  0  0  0  0  0  0  0  0  0
   62.9880   31.9680   49.6170 C   0  0  0  0  0  0  0  0  0  0  0  0
   62.0770   32.6590   48.6830 C   0  0  0  0  0  0  0  0  0  0  0  0
   62.4780   33.7000   48.0960 O   0  0  0  0  0  0  0  0  0  0  0  0
   60.7500   32.1500   48.4510 N   0  0  0  0  0  0  0  0  0  0  0  0
   59.7990   32.7340   47.5440 C   0  0  0  0  0  0  0  0  0  0  0  0
   59.7080   34.1290   47.4580 C   0  0  0  0  0  0  0  0  0  0  0  0
   58.7910   34.7280   46.5940 C   0  0  0  0  0  0  0  0  0  0  0  0
   57.9310   33.9410   45.8120 C   0  0  0  0  0  0  0  0  0  0  0  0
   56.9460   34.6000   44.8870 C   0  0  0  0  0  0  0  0  0  0  0  0
   57.9700   32.5360   45.9340 C   0  0  0  0  0  0  0  0  0  0  0  0
   57.0860   31.7390   45.1300 N   0  0  0  0  0  0  0  0  0  0  0  0
   57.4590   30.6870   44.2300 C   0  0  0  0  0  0  0  0  0  0  0  0
   57.6440   30.9380   43.0070 O   0  0  0  0  0  0  0  0  0  0  0  0
   57.6690   29.3130   44.7430 C   0  0  0  0  0  0  0  0  0  0  0  0
   57.6750   29.0580   46.1270 C   0  0  0  0  0  0  0  0  0  0  0  0
   57.8940   27.7640   46.6090 C   0  0  0  0  0  0  0  0  0  0  0  0
   58.1270   26.7050   45.7180 C   0  0  0  0  0  0  0  0  0  0  0  0
   58.3330   25.3090   46.2280 C   0  0  0  0  0  0  0  0  0  0  0  0
   57.1990   24.9350   47.0700 N   0  0  0  0  0  0  0  0  0  0  0  0
   55.7360   24.9100   46.1310 S   0  0  0  0  0  0  0  0  0  0  0  0
   56.0450   24.2990   44.4860 C   0  0  0  0  0  0  0  0  0  0  0  0
   54.7450   24.0040   46.8050 O   0  0  0  0  0  0  0  0  0  0  0  0
   55.1580   26.2940   46.0530 O   0  0  0  0  0  0  0  0  0  0  0  0
   58.1040   26.9520   44.3390 C   0  0  0  0  0  0  0  0  0  0  0  0
   57.8800   28.2430   43.8540 C   0  0  0  0  0  0  0  0  0  0  0  0
   58.9130   31.9420   46.7930 C   0  0  0  0  0  0  0  0  0  0  0  0
   60.5945   30.7790   52.3574 H   0  0  0  0  0  0  0  0  0  0  0  0
   59.9691   32.0048   51.2029 H   0  0  0  0  0  0  0  0  0  0  0  0
   59.2897   30.3419   51.2029 H   0  0  0  0  0  0  0  0  0  0  0  0
   63.1157   29.4108   51.9039 H   0  0  0  0  0  0  0  0  0  0  0  0
   65.4877   30.1634   52.0165 H   0  0  0  0  0  0  0  0  0  0  0  0
   66.2623   32.0823   50.6260 H   0  0  0  0  0  0  0  0  0  0  0  0
   64.6674   33.2470   49.1040 H   0  0  0  0  0  0  0  0  0  0  0  0
   60.4310   31.3270   49.0120 H   0  0  0  0  0  0  0  0  0  0  0  0
   60.3651   34.7576   48.0769 H   0  0  0  0  0  0  0  0  0  0  0  0
   58.7415   35.8247   46.5250 H   0  0  0  0  0  0  0  0  0  0  0  0
   56.1754   35.1155   45.4789 H   0  0  0  0  0  0  0  0  0  0  0  0
   57.4704   35.3298   44.2526 H   0  0  0  0  0  0  0  0  0  0  0  0
   56.4715   33.8368   44.2526 H   0  0  0  0  0  0  0  0  0  0  0  0
   57.5061   29.8829   46.8348 H   0  0  0  0  0  0  0  0  0  0  0  0
   57.8836   27.5749   47.6926 H   0  0  0  0  0  0  0  0  0  0  0  0
   58.4062   24.6137   45.3788 H   0  0  0  0  0  0  0  0  0  0  0  0
   59.2618   25.2626   46.8155 H   0  0  0  0  0  0  0  0  0  0  0  0
   56.5407   23.3188   44.5460 H   0  0  0  0  0  0  0  0  0  0  0  0
   55.0911   24.1951   43.9482 H   0  0  0  0  0  0  0  0  0  0  0  0
   56.6940   25.0058   43.9482 H   0  0  0  0  0  0  0  0  0  0  0  0
   58.2634   26.1235   43.6331 H   0  0  0  0  0  0  0  0  0  0  0  0
   57.8685   28.4242   42.7691 H   0  0  0  0  0  0  0  0  0  0  0  0
   58.9574   30.8462   46.8778 H   0  0  0  0  0  0  0  0  0  0  0  0
  1  2  1  0
  2  3  1  0
  3  4  2  0
  4  5  1  0
  5  6  2  0
  6  7  1  0
  7  8  2  0
  8  9  1  0
  9 10  2  0
  9 11  1  0
 11 12  1  0
 12 13  2  0
 13 14  1  0
 14 15  2  0
 15 16  1  0
 15 17  1  0
 17 18  1  0
 18 19  1  0
 19 20  2  0
 19 21  1  0
 21 22  2  0
 22 23  1  0
 23 24  2  0
 24 25  1  0
 25 26  1  0
 26 27  1  0
 27 28  1  0
 27 29  2  0
 27 30  2  0
 24 31  1  0
 31 32  2  0
 17 33  2  0
  8  3  1  0
 33 12  1  0
 32 21  1  0
  1 34  1  0
  1 35  1  0
  1 36  1  0
  4 37  1  0
  5 38  1  0
  6 39  1  0
  7 40  1  0
 11 41  1  0
 13 42  1  0
 14 43  1  0
 16 44  1  0
 16 45  1  0
 16 46  1  0
 22 47  1  0
 23 48  1  0
 25 49  1  0
 25 50  1  0
 28 51  1  0
 28 52  1  0
 28 53  1  0
 31 54  1  0
 32 55  1  0
 33 56  1  0
M  CHG  2  18  -1  26  -1
M  END
>  <UniqueID>  (28) 
23

>  <SMILES>  (28) 
COc1ccccc1C(=O)Nc1ccc(C)c([N-]C(=O)c2ccc(C[N-]S(C)(=O)=O)cc2)c1

>  <Energy>  (28) 
64.3669002907536

>  <Genealogy>  (28) 
COc1ccccc1C(=O)Nc1ccc(C)c([N-]C(=O)c2ccc(C[N-]S(C)(=O)=O)cc2)c1 (protonated)
COc1ccccc1C(=O)Nc1ccc(C)c([N-]C(=O)c2ccc(C[N-]S(C)(=O)=O)cc2)c1 (3D coordinates assigned)
COc1ccccc1C(=O)Nc1ccc(C)c([N-]C(=O)c2ccc(C[N-]S(C)(=O)=O)cc2)c1 (optimized conformer: 64.3669002907536 kcal/mol)

>  <smiles>  (28) 
COc1ccccc1C(=O)Nc1ccc(C)c(NC(=O)c2ccc(CNS(C)(=O)=O)cc2)c1

>  <score_type>  (28) 
oracle

>  <origin>  (28) 
adg

>  <m_score__min__energy>  (28) 
-11.94

>  <m_primary>  (28) 
energy

$$$$
28:0
     RDKit          3D

 67 70  0  0  0  0  0  0  0  0999 V2000
   63.3700   33.2840   47.4500 C   0  0  0  0  0  0  0  0  0  0  0  0
   61.9210   33.6620   47.6150 C   0  0  0  0  0  0  0  0  0  0  0  0
   61.1270   33.7850   46.4630 C   0  0  0  0  0  0  0  0  0  0  0  0
   59.7800   34.1250   46.5620 C   0  0  0  0  0  0  0  0  0  0  0  0
   59.2020   34.3360   47.8110 C   0  0  0  0  0  0  0  0  0  0  0  0
   59.9700   34.2330   48.9840 C   0  0  0  0  0  0  0  0  0  0  0  0
   59.3430   34.4070   50.2680 N   0  0  0  0  0  0  0  0  0  0  0  0
   59.1430   33.1080   51.4020 S   0  0  0  0  0  0  0  0  0  0  0  0
   59.8700   33.4530   52.6720 O   0  0  0  0  0  0  0  0  0  0  0  0
   57.6800   32.9400   51.7020 O   0  0  0  0  0  0  0  0  0  0  0  0
   59.7490   31.6030   50.7130 C   0  0  0  0  0  0  0  0  0  0  0  0
   60.7480   30.8900   51.3880 C   0  0  0  0  0  0  0  0  0  0  0  0
   61.2290   29.6870   50.8700 C   0  0  0  0  0  0  0  0  0  0  0  0
   60.7350   29.1990   49.6600 C   0  0  0  0  0  0  0  0  0  0  0  0
   59.7630   29.9220   48.9450 C   0  0  0  0  0  0  0  0  0  0  0  0
   59.2430   29.4320   47.6970 N   0  0  0  0  0  0  0  0  0  0  0  0
   60.0050   29.4010   46.4780 C   0  0  0  0  0  0  0  0  0  0  0  0
   61.1170   29.9890   46.4090 O   0  0  0  0  0  0  0  0  0  0  0  0
   59.5110   28.7400   45.3080 N   0  0  0  0  0  0  0  0  0  0  0  0
   57.8390   28.6320   44.8680 S   0  0  0  0  0  0  0  0  0  0  0  0
   57.6240   29.3650   43.5730 O   0  0  0  0  0  0  0  0  0  0  0  0
   56.9880   29.2350   45.9490 O   0  0  0  0  0  0  0  0  0  0  0  0
   57.3970   26.9410   44.6590 C   0  0  0  0  0  0  0  0  0  0  0  0
   57.7740   26.2460   43.5020 C   0  0  0  0  0  0  0  0  0  0  0  0
   57.4150   24.9070   43.3350 C   0  0  0  0  0  0  0  0  0  0  0  0
   56.6680   24.2420   44.3230 C   0  0  0  0  0  0  0  0  0  0  0  0
   56.2920   22.8210   44.1570 C   0  0  0  0  0  0  0  0  0  0  0  0
   55.9320   22.4080   43.0200 O   0  0  0  0  0  0  0  0  0  0  0  0
   56.3400   21.8980   45.2610 N   0  0  0  0  0  0  0  0  0  0  0  0
   55.3280   20.8440   45.3910 C   0  0  0  0  0  0  0  0  0  0  0  0
   55.9880   19.4510   45.4230 C   0  0  0  0  0  0  0  0  0  0  0  0
   57.3450   19.4410   46.0090 N   0  0  0  0  0  0  0  0  0  0  0  0
   57.5840   20.5640   46.9260 C   0  0  0  0  0  0  0  0  0  0  0  0
   57.4900   21.8980   46.1760 C   0  0  0  0  0  0  0  0  0  0  0  0
   56.3180   24.9330   45.4960 C   0  0  0  0  0  0  0  0  0  0  0  0
   56.6770   26.2750   45.6610 C   0  0  0  0  0  0  0  0  0  0  0  0
   59.2600   31.1170   49.4890 C   0  0  0  0  0  0  0  0  0  0  0  0
   58.3160   31.8160   48.8060 F   0  0  0  0  0  0  0  0  0  0  0  0
   61.3540   33.9320   48.8890 C   0  0  0  0  0  0  0  0  0  0  0  0
   62.1980   33.8890   50.1460 C   0  0  0  0  0  0  0  0  0  0  0  0
   63.8326   33.1633   48.4407 H   0  0  0  0  0  0  0  0  0  0  0  0
   63.4410   32.3373   46.8944 H   0  0  0  0  0  0  0  0  0  0  0  0
   63.8944   34.0754   46.8944 H   0  0  0  0  0  0  0  0  0  0  0  0
   61.5734   33.6111   45.4728 H   0  0  0  0  0  0  0  0  0  0  0  0
   59.1714   34.2271   45.6514 H   0  0  0  0  0  0  0  0  0  0  0  0
   58.1330   34.5859   47.8807 H   0  0  0  0  0  0  0  0  0  0  0  0
   58.9080   35.3220   50.5180 H   0  0  0  0  0  0  0  0  0  0  0  0
   61.1557   31.2807   52.3320 H   0  0  0  0  0  0  0  0  0  0  0  0
   61.9989   29.1225   51.4165 H   0  0  0  0  0  0  0  0  0  0  0  0
   61.1077   28.2433   49.2628 H   0  0  0  0  0  0  0  0  0  0  0  0
   58.2330   29.1770   47.6650 H   0  0  0  0  0  0  0  0  0  0  0  0
   58.3558   26.7580   42.7213 H   0  0  0  0  0  0  0  0  0  0  0  0
   57.7186   24.3691   42.4247 H   0  0  0  0  0  0  0  0  0  0  0  0
   54.7652   20.9977   46.3235 H   0  0  0  0  0  0  0  0  0  0  0  0
   54.6536   20.8944   44.5235 H   0  0  0  0  0  0  0  0  0  0  0  0
   55.3501   18.7798   46.0167 H   0  0  0  0  0  0  0  0  0  0  0  0
   56.0907   19.1239   44.3778 H   0  0  0  0  0  0  0  0  0  0  0  0
   58.0500   19.4930   45.2350 H   0  0  0  0  0  0  0  0  0  0  0  0
   56.8298   20.5447   47.7265 H   0  0  0  0  0  0  0  0  0  0  0  0
   58.5928   20.4662   47.3535 H   0  0  0  0  0  0  0  0  0  0  0  0
   57.3726   22.7143   46.9039 H   0  0  0  0  0  0  0  0  0  0  0  0
   58.4095   22.0401   45.5893 H   0  0  0  0  0  0  0  0  0  0  0  0
   55.7584   24.4154   46.2890 H   0  0  0  0  0  0  0  0  0  0  0  0
   56.3935   26.8094   46.5797 H   0  0  0  0  0  0  0  0  0  0  0  0
   61.5428   33.9224   51.0289 H   0  0  0  0  0  0  0  0  0  0  0  0
   62.7864   32.9597   50.1610 H   0  0  0  0  0  0  0  0  0  0  0  0
   62.8778   34.7537   50.1610 H   0  0  0  0  0  0  0  0  0  0  0  0
  1  2  1  0
  2  3  2  0
  3  4  1  0
  4  5  2  0
  5  6  1  0
  6  7  1  0
  7  8  1  0
  8  9  2  0
  8 10  2  0
  8 11  1  0
 11 12  2  0
 12 13  1  0
 13 14  2  0
 14 15  1  0
 15 16  1  0
 16 17  1  0
 17 18  2  0
 17 19  1  0
 19 20  1  0
 20 21  2  0
 20 22  2  0
 20 23  1  0
 23 24  2  0
 24 25  1  0
 25 26  2  0
 26 27  1  0
 27 28  2  0
 27 29  1  0
 29 30  1  0
 30 31  1  0
 31 32  1  0
 32 33  1  0
 33 34  1  0
 26 35  1  0
 35 36  2  0
 15 37  2  0
 37 38  1  0
  6 39  2  0
 39 40  1  0
 39  2  1  0
 37 11  1  0
 36 23  1  0
 34 29  1  0
  1 41  1  0
  1 42  1  0
  1 43  1  0
  3 44  1  0
  4 45  1  0
  5 46  1  0
  7 47  1  0
 12 48  1  0
 13 49  1  0
 14 50  1  0
 16 51  1  0
 24 52  1  0
 25 53  1  0
 30 54  1  0
 30 55  1  0
 31 56  1  0
 31 57  1  0
 32 58  1  0
 33 59  1  0
 33 60  1  0
 34 61  1  0
 34 62  1  0
 35 63  1  0
 36 64  1  0
 40 65  1  0
 40 66  1  0
 40 67  1  0
M  CHG  1  19  -1
M  END
>  <UniqueID>  (29) 
24

>  <SMILES>  (29) 
Cc1cccc(NS(=O)(=O)c2cccc(NC(=O)[N-]S(=O)(=O)c3ccc(C(=O)N4CCNCC4)cc3)c2F)c1C

>  <Energy>  (29) 
94.13648734527979

>  <Genealogy>  (29) 
Cc1cccc(NS(=O)(=O)c2cccc(NC(=O)[N-]S(=O)(=O)c3ccc(C(=O)N4CCNCC4)cc3)c2F)c1C (protonated)
Cc1cccc(NS(=O)(=O)c2cccc(NC(=O)[N-]S(=O)(=O)c3ccc(C(=O)N4CCNCC4)cc3)c2F)c1C (3D coordinates assigned)
Cc1cccc(NS(=O)(=O)c2cccc(NC(=O)[N-]S(=O)(=O)c3ccc(C(=O)N4CCNCC4)cc3)c2F)c1C (nonaromatic ring conformer: 94.13648734527979 kcal/mol)

>  <smiles>  (29) 
Cc1cccc(NS(=O)(=O)c2cccc(NC(=O)NS(=O)(=O)c3ccc(C(=O)N4CCNCC4)cc3)c2F)c1C

>  <score_type>  (29) 
oracle

>  <origin>  (29) 
adg

>  <m_score__min__energy>  (29) 
-11.550000000000001

>  <m_primary>  (29) 
energy

$$$$
29:0
     RDKit          3D

 64 68  0  0  0  0  0  0  0  0999 V2000
   51.0250   32.3530   50.1010 N   0  0  0  0  0  0  0  0  0  0  0  0
   51.3620   31.7450   51.3460 C   0  0  0  0  0  0  0  0  0  0  0  0
   51.6340   32.4670   52.3430 O   0  0  0  0  0  0  0  0  0  0  0  0
   51.4390   30.2520   51.4510 C   0  0  0  0  0  0  0  0  0  0  0  0
   52.7530   29.8190   52.0350 C   0  0  0  0  0  0  0  0  0  0  0  0
   53.9040   30.6020   51.8650 C   0  0  0  0  0  0  0  0  0  0  0  0
   55.1280   30.1700   52.3980 C   0  0  0  0  0  0  0  0  0  0  0  0
   56.3580   30.9650   52.1880 C   0  0  0  0  0  0  0  0  0  0  0  0
   57.2790   30.6640   51.2300 N   0  0  0  0  0  0  0  0  0  0  0  0
   58.1730   31.6550   51.3600 C   0  0  0  0  0  0  0  0  0  0  0  0
   59.3290   31.8640   50.6160 C   0  0  0  0  0  0  0  0  0  0  0  0
   60.0950   33.0170   50.8950 C   0  0  0  0  0  0  0  0  0  0  0  0
   61.3130   33.2950   50.1180 C   0  0  0  0  0  0  0  0  0  0  0  0
   62.4360   33.1540   50.6780 O   0  0  0  0  0  0  0  0  0  0  0  0
   61.2710   33.7850   48.7690 N   0  0  0  0  0  0  0  0  0  0  0  0
   61.7970   33.1460   47.5550 C   0  0  2  0  0  0  0  0  0  0  0  0
   61.3220   33.8400   46.2670 C   0  0  0  0  0  0  0  0  0  0  0  0
   59.8180   33.8460   46.1650 C   0  0  0  0  0  0  0  0  0  0  0  0
   59.1940   34.2010   44.9560 C   0  0  0  0  0  0  0  0  0  0  0  0
   57.7990   34.2030   44.8580 C   0  0  0  0  0  0  0  0  0  0  0  0
   57.0180   33.8380   45.9590 C   0  0  0  0  0  0  0  0  0  0  0  0
   57.6310   33.4670   47.1590 C   0  0  0  0  0  0  0  0  0  0  0  0
   59.0250   33.4660   47.2630 C   0  0  0  0  0  0  0  0  0  0  0  0
   61.4800   31.6730   47.5370 C   0  0  0  0  0  0  0  0  0  0  0  0
   61.9080   30.9330   48.4650 O   0  0  0  0  0  0  0  0  0  0  0  0
   60.7450   31.1050   46.4490 N   0  0  0  0  0  0  0  0  0  0  0  0
   60.1610   29.7740   46.5030 C   0  0  0  0  0  0  0  0  0  0  0  0
   59.0670   29.6700   45.4810 C   0  0  0  0  0  0  0  0  0  0  0  0
   58.8350   28.4510   44.8190 C   0  0  0  0  0  0  0  0  0  0  0  0
   57.7830   28.3380   43.9020 C   0  0  0  0  0  0  0  0  0  0  0  0
   56.9560   29.4360   43.6430 C   0  0  0  0  0  0  0  0  0  0  0  0
   57.1760   30.6490   44.3080 C   0  0  0  0  0  0  0  0  0  0  0  0
   58.2220   30.7650   45.2310 C   0  0  0  0  0  0  0  0  0  0  0  0
   59.7140   33.8750   51.9580 C   0  0  0  0  0  0  0  0  0  0  0  0
   58.5440   33.6230   52.6960 C   0  0  0  0  0  0  0  0  0  0  0  0
   57.7940   32.5010   52.3530 C   0  0  0  0  0  0  0  0  0  0  0  0
   56.6410   32.0900   52.8980 N   0  0  0  0  0  0  0  0  0  0  0  0
   55.1650   28.9640   53.1140 C   0  0  0  0  0  0  0  0  0  0  0  0
   53.9940   28.2160   53.2730 C   0  0  0  0  0  0  0  0  0  0  0  0
   52.8270   28.6550   52.7360 N   0  0  0  0  0  0  0  0  0  0  0  0
   50.0440   32.3320   49.7450 H   0  0  0  0  0  0  0  0  0  0  0  0
   50.6234   29.8946   52.0968 H   0  0  0  0  0  0  0  0  0  0  0  0
   51.3474   29.8252   50.4413 H   0  0  0  0  0  0  0  0  0  0  0  0
   53.8474   31.5529   51.3149 H   0  0  0  0  0  0  0  0  0  0  0  0
   59.6371   31.1536   49.8347 H   0  0  0  0  0  0  0  0  0  0  0  0
   62.8907   33.2601   47.5837 H   0  0  0  0  0  0  0  0  0  0  0  0
   61.6845   34.8786   46.2661 H   0  0  0  0  0  0  0  0  0  0  0  0
   61.7240   33.2841   45.4071 H   0  0  0  0  0  0  0  0  0  0  0  0
   59.8052   34.4781   44.0844 H   0  0  0  0  0  0  0  0  0  0  0  0
   57.3153   34.4922   43.9133 H   0  0  0  0  0  0  0  0  0  0  0  0
   55.9208   33.8429   45.8806 H   0  0  0  0  0  0  0  0  0  0  0  0
   57.0156   33.1754   48.0229 H   0  0  0  0  0  0  0  0  0  0  0  0
   59.5037   33.1669   48.2071 H   0  0  0  0  0  0  0  0  0  0  0  0
   60.9363   29.0237   46.2888 H   0  0  0  0  0  0  0  0  0  0  0  0
   59.7464   29.5942   47.5059 H   0  0  0  0  0  0  0  0  0  0  0  0
   59.4814   27.5845   45.0221 H   0  0  0  0  0  0  0  0  0  0  0  0
   57.6065   27.3837   43.3841 H   0  0  0  0  0  0  0  0  0  0  0  0
   56.1337   29.3470   42.9178 H   0  0  0  0  0  0  0  0  0  0  0  0
   56.5254   31.5123   44.1045 H   0  0  0  0  0  0  0  0  0  0  0  0
   58.3830   31.7150   45.7617 H   0  0  0  0  0  0  0  0  0  0  0  0
   60.3392   34.7451   52.2073 H   0  0  0  0  0  0  0  0  0  0  0  0
   58.2324   34.2882   53.5148 H   0  0  0  0  0  0  0  0  0  0  0  0
   56.1109   28.6083   53.5484 H   0  0  0  0  0  0  0  0  0  0  0  0
   54.0186   27.2702   53.8342 H   0  0  0  0  0  0  0  0  0  0  0  0
  1  2  1  0
  2  3  2  0
  2  4  1  0
  4  5  1  0
  5  6  2  0
  6  7  1  0
  7  8  1  0
  8  9  2  0
  9 10  1  0
 10 11  2  0
 11 12  1  0
 12 13  1  0
 13 14  2  0
 13 15  1  0
 15 16  1  0
 16 17  1  0
 17 18  1  0
 18 19  2  0
 19 20  1  0
 20 21  2  0
 21 22  1  0
 22 23  2  0
 16 24  1  0
 24 25  2  0
 24 26  1  0
 26 27  1  0
 27 28  1  0
 28 29  2  0
 29 30  1  0
 30 31  2  0
 31 32  1  0
 32 33  2  0
 12 34  2  0
 34 35  1  0
 35 36  2  0
 36 37  1  0
  7 38  2  0
 38 39  1  0
 39 40  2  0
 40  5  1  0
 37  8  1  0
 36 10  1  0
 23 18  1  0
 33 28  1  0
  1 41  1  0
  4 42  1  0
  4 43  1  0
  6 44  1  0
 11 45  1  0
 16 46  1  1
 17 47  1  0
 17 48  1  0
 19 49  1  0
 20 50  1  0
 21 51  1  0
 22 52  1  0
 23 53  1  0
 27 54  1  0
 27 55  1  0
 29 56  1  0
 30 57  1  0
 31 58  1  0
 32 59  1  0
 33 60  1  0
 34 61  1  0
 35 62  1  0
 38 63  1  0
 39 64  1  0
M  CHG  4   1  -1  15  -1  26  -1  37  -1
M  END
>  <UniqueID>  (30) 
25

>  <SMILES>  (30) 
[NH-]C(=O)Cc1cc(-c2nc3cc(C(=O)[N-][C@H](Cc4ccccc4)C(=O)[N-]Cc4ccccc4)ccc3[n-]2)ccn1

>  <Energy>  (30) 
103.72614385042671

>  <Genealogy>  (30) 
[NH-]C(=O)Cc1cc(-c2nc3cc(C(=O)[N-]C(Cc4ccccc4)C(=O)[N-]Cc4ccccc4)ccc3[n-]2)ccn1 (protonated)
[NH-]C(=O)Cc1cc(-c2nc3cc(C(=O)[N-][C@H](Cc4ccccc4)C(=O)[N-]Cc4ccccc4)ccc3[n-]2)ccn1 (chirality)
[NH-]C(=O)Cc1cc(-c2nc3cc(C(=O)[N-][C@H](Cc4ccccc4)C(=O)[N-]Cc4ccccc4)ccc3[n-]2)ccn1 (3D coordinates assigned)
[NH-]C(=O)Cc1cc(-c2nc3cc(C(=O)[N-][C@H](Cc4ccccc4)C(=O)[N-]Cc4ccccc4)ccc3[n-]2)ccn1 (optimized conformer: 103.72614385042671 kcal/mol)

>  <smiles>  (30) 
NC(=O)Cc1cc(-c2nc3cc(C(=O)NC(Cc4ccccc4)C(=O)NCc4ccccc4)ccc3[nH]2)ccn1

>  <score_type>  (30) 
oracle

>  <origin>  (30) 
adg

>  <m_score__min__energy>  (30) 
-17.120000000000001

>  <m_primary>  (30) 
energy

$$$$
30:0
     RDKit          3D

 39 41  0  0  0  0  0  0  0  0999 V2000
   59.2690   35.0930   50.1790 H   0  0  0  0  0  0  0  0  0  0  0  0
   59.7940   34.2310   50.0900 O   0  0  0  0  0  0  0  0  0  0  0  0
   60.5790   33.9640   48.9700 C   0  0  0  0  0  0  0  0  0  0  0  0
   61.9690   34.1390   49.0380 C   0  0  0  0  0  0  0  0  0  0  0  0
   62.4299   34.4975   49.9702 H   0  0  0  0  0  0  0  0  0  0  0  0
   62.7710   33.8610   47.9300 C   0  0  0  0  0  0  0  0  0  0  0  0
   63.8601   34.0036   47.9897 H   0  0  0  0  0  0  0  0  0  0  0  0
   62.1910   33.4020   46.7460 C   0  0  0  0  0  0  0  0  0  0  0  0
   62.8240   33.1794   45.8744 H   0  0  0  0  0  0  0  0  0  0  0  0
   60.8070   33.2250   46.6670 C   0  0  0  0  0  0  0  0  0  0  0  0
   60.3572   32.8541   45.7342 H   0  0  0  0  0  0  0  0  0  0  0  0
   59.9840   33.5170   47.7700 C   0  0  0  0  0  0  0  0  0  0  0  0
   58.4900   33.3030   47.6630 C   0  0  0  0  0  0  0  0  0  0  0  0
   57.9920   34.2825   47.6123 H   0  0  0  0  0  0  0  0  0  0  0  0
   58.1596   32.7389   48.5476 H   0  0  0  0  0  0  0  0  0  0  0  0
   58.1370   32.5250   46.4630 N   0  0  0  0  0  0  0  0  0  0  0  0
   57.5070   32.9990   45.3610 C   0  0  0  0  0  0  0  0  0  0  0  0
   57.0150   34.4050   45.1830 C   0  0  0  0  0  0  0  0  0  0  0  0
   56.8541   34.8648   46.1693 H   0  0  0  0  0  0  0  0  0  0  0  0
   57.7628   34.9872   44.6246 H   0  0  0  0  0  0  0  0  0  0  0  0
   56.0673   34.3939   44.6246 H   0  0  0  0  0  0  0  0  0  0  0  0
   57.3320   31.9940   44.4310 C   0  0  0  0  0  0  0  0  0  0  0  0
   56.8626   32.0895   43.4408 H   0  0  0  0  0  0  0  0  0  0  0  0
   57.8630   30.8410   44.9880 C   0  0  0  0  0  0  0  0  0  0  0  0
   57.9220   29.6290   44.4010 C   0  0  0  0  0  0  0  0  0  0  0  0
   58.3440   29.5613   43.3874 H   0  0  0  0  0  0  0  0  0  0  0  0
   57.4490   28.3840   45.0480 C   0  0  0  0  0  0  0  0  0  0  0  0
   56.0760   28.1740   45.2450 C   0  0  0  0  0  0  0  0  0  0  0  0
   55.1500   29.1410   44.8700 O   0  0  0  0  0  0  0  0  0  0  0  0
   55.6420   27.0210   45.8170 N   0  0  0  0  0  0  0  0  0  0  0  0
   56.5160   26.0530   46.1930 C   0  0  0  0  0  0  0  0  0  0  0  0
   55.9630   24.6800   46.8820 S   0  0  0  0  0  0  0  0  0  0  0  0
   57.8460   26.2200   45.9880 N   0  0  0  0  0  0  0  0  0  0  0  0
   58.3310   27.3530   45.4180 C   0  0  0  0  0  0  0  0  0  0  0  0
   59.5700   27.4580   45.2120 O   0  0  0  0  0  0  0  0  0  0  0  0
   58.3470   31.1980   46.2500 C   0  0  0  0  0  0  0  0  0  0  0  0
   58.9010   30.3680   47.1480 C   0  0  0  0  0  0  0  0  0  0  0  0
   59.2496   30.7580   48.1156 H   0  0  0  0  0  0  0  0  0  0  0  0
   59.0063   29.2979   46.9162 H   0  0  0  0  0  0  0  0  0  0  0  0
  1  2  1  0
  2  3  1  0
  3  4  2  0
  4  5  1  0
  4  6  1  0
  6  7  1  0
  6  8  2  0
  8  9  1  0
  8 10  1  0
 10 11  1  0
 10 12  2  0
 12 13  1  0
 13 14  1  0
 13 15  1  0
 13 16  1  0
 16 17  1  0
 17 18  1  0
 18 19  1  0
 18 20  1  0
 18 21  1  0
 17 22  2  0
 22 23  1  0
 22 24  1  0
 24 25  2  0
 25 26  1  0
 25 27  1  0
 27 28  2  0
 28 29  1  0
 28 30  1  0
 30 31  1  0
 31 32  2  0
 31 33  1  0
 33 34  1  0
 34 35  2  0
 24 36  1  0
 36 37  2  0
 37 38  1  0
 37 39  1  0
 12  3  1  0
 36 16  1  0
 34 27  1  0
M  CHG  3  29  -1  30  -1  33  -1
M  END
>  <UniqueID>  (31) 
26

>  <SMILES>  (31) 
C=c1/c(=C/c2c([O-])[n-]c(=S)[n-]c2=O)cc(C)n1Cc1ccccc1O

>  <Energy>  (31) 
80.28924064215701

>  <Genealogy>  (31) 
C=c1c(=Cc2c([O-])[n-]c(=S)[n-]c2=O)cc(C)n1Cc1ccccc1O (protonated)
C=c1/c(=C/c2c([O-])[n-]c(=S)[n-]c2=O)cc(C)n1Cc1ccccc1O (cis-trans isomerization)
C=c1/c(=C/c2c([O-])[n-]c(=S)[n-]c2=O)cc(C)n1Cc1ccccc1O (3D coordinates assigned)
C=c1/c(=C/c2c([O-])[n-]c(=S)[n-]c2=O)cc(C)n1Cc1ccccc1O (optimized conformer: 80.28924064215701 kcal/mol)

>  <smiles>  (31) 
C=c1c(=Cc2c(O)[nH]c(=S)[nH]c2=O)cc(C)n1Cc1ccccc1O

>  <score_type>  (31) 
oracle

>  <origin>  (31) 
adg

>  <m_score__min__energy>  (31) 
-14.67

>  <m_primary>  (31) 
energy

$$$$
31:0
     RDKit          3D

103105  0  0  0  0  0  0  0  0999 V2000
   55.2660   30.6440   52.1180 C   0  0  0  0  0  0  0  0  0  0  0  0
   56.6840   30.7440   51.6580 C   0  0  0  0  0  0  0  0  0  0  0  0
   57.4070   29.7100   51.6360 O   0  0  0  0  0  0  0  0  0  0  0  0
   57.2100   32.0060   51.2190 N   0  0  0  0  0  0  0  0  0  0  0  0
   58.6450   32.2550   51.0600 C   0  0  0  0  0  0  0  0  0  0  0  0
   58.9340   33.0670   49.7870 C   0  0  0  0  0  0  0  0  0  0  0  0
   59.3190   32.1580   48.6100 C   0  0  0  0  0  0  0  0  0  0  0  0
   59.2510   30.6720   49.0050 C   0  0  0  0  0  0  0  0  0  0  0  0
   60.5780   29.9170   48.7700 C   0  0  1  0  0  0  0  0  0  0  0  0
   61.5810   30.3050   49.7590 N   0  0  0  0  0  0  0  0  0  0  0  0
   62.5960   31.2880   49.5300 C   0  0  0  0  0  0  0  0  0  0  0  0
   62.4940   32.0990   48.5710 O   0  0  0  0  0  0  0  0  0  0  0  0
   63.7850   31.3510   50.4460 C   0  0  2  0  0  0  0  0  0  0  0  0
   63.3170   31.5580   51.8930 C   0  0  0  0  0  0  0  0  0  0  0  0
   62.0550   32.4420   51.9720 C   0  0  0  0  0  0  0  0  0  0  0  0
   61.2580   32.1940   53.2530 C   0  0  0  0  0  0  0  0  0  0  0  0
   61.1370   30.7580   53.4840 N   0  0  0  0  0  0  0  0  0  0  0  0
   60.1320   30.0110   53.1280 C   0  0  0  0  0  0  0  0  0  0  0  0
   60.1940   29.3160   51.8850 N   0  0  0  0  0  0  0  0  0  0  0  0
   58.9600   29.8860   53.9440 N   0  0  0  0  0  0  0  0  0  0  0  0
   64.6370   32.4710   50.0570 N   0  0  0  0  0  0  0  0  0  0  0  0
   65.9450   32.7220   50.5850 C   0  0  0  0  0  0  0  0  0  0  0  0
   66.9410   32.0990   50.1140 O   0  0  0  0  0  0  0  0  0  0  0  0
   66.1210   33.6830   51.6450 N   0  0  0  0  0  0  0  0  0  0  0  0
   64.9200   34.3290   52.2130 C   0  0  0  0  0  0  0  0  0  0  0  0
   65.0300   35.8610   52.3430 C   0  0  0  0  0  0  0  0  0  0  0  0
   66.2700   36.3490   53.1210 C   0  0  0  0  0  0  0  0  0  0  0  0
   67.5470   36.5430   52.2840 C   0  0  0  0  0  0  0  0  0  0  0  0
   68.0660   35.2590   51.6230 C   0  0  0  0  0  0  0  0  0  0  0  0
   67.4700   33.9550   52.1790 C   0  0  0  0  0  0  0  0  0  0  0  0
   60.3600   28.4290   48.8240 C   0  0  0  0  0  0  0  0  0  0  0  0
   60.4990   27.8120   49.9160 O   0  0  0  0  0  0  0  0  0  0  0  0
   59.9120   27.7360   47.6520 N   0  0  0  0  0  0  0  0  0  0  0  0
   58.7570   28.1510   46.8590 C   0  0  2  0  0  0  0  0  0  0  0  0
   57.6270   27.1730   47.0720 C   0  0  0  0  0  0  0  0  0  0  0  0
   57.6450   25.9510   46.5230 C   0  0  0  0  0  0  0  0  0  0  0  0
   56.1540   25.0460   46.3060 S   0  0  0  0  0  0  0  0  0  0  0  0
   55.7830   24.3850   47.6040 O   0  0  0  0  0  0  0  0  0  0  0  0
   55.0510   25.9870   45.8970 O   0  0  0  0  0  0  0  0  0  0  0  0
   56.3950   23.8020   45.0820 C   0  0  0  0  0  0  0  0  0  0  0  0
   55.6440   23.8140   43.8970 C   0  0  0  0  0  0  0  0  0  0  0  0
   55.8880   22.8620   42.9010 C   0  0  0  0  0  0  0  0  0  0  0  0
   56.8810   21.8930   43.0840 C   0  0  0  0  0  0  0  0  0  0  0  0
   57.6290   21.8740   44.2660 C   0  0  0  0  0  0  0  0  0  0  0  0
   57.3880   22.8260   45.2640 C   0  0  0  0  0  0  0  0  0  0  0  0
   59.1530   28.1980   45.3750 C   0  0  0  0  0  0  0  0  0  0  0  0
   58.2630   29.1380   44.6020 C   0  0  0  0  0  0  0  0  0  0  0  0
   57.2510   28.6330   43.7670 C   0  0  0  0  0  0  0  0  0  0  0  0
   56.4580   29.5060   43.0130 C   0  0  0  0  0  0  0  0  0  0  0  0
   56.6670   30.8880   43.0920 C   0  0  0  0  0  0  0  0  0  0  0  0
   57.6750   31.3950   43.9170 C   0  0  0  0  0  0  0  0  0  0  0  0
   58.4730   30.5260   44.6680 C   0  0  0  0  0  0  0  0  0  0  0  0
   55.2365   30.6419   53.2176 H   0  0  0  0  0  0  0  0  0  0  0  0
   54.6956   31.5041   51.7375 H   0  0  0  0  0  0  0  0  0  0  0  0
   54.8219   29.7123   51.7375 H   0  0  0  0  0  0  0  0  0  0  0  0
   56.5510   32.8030   51.0740 H   0  0  0  0  0  0  0  0  0  0  0  0
   59.0102   32.8157   51.9331 H   0  0  0  0  0  0  0  0  0  0  0  0
   59.1582   31.2856   50.9771 H   0  0  0  0  0  0  0  0  0  0  0  0
   58.0340   33.6388   49.5166 H   0  0  0  0  0  0  0  0  0  0  0  0
   59.7801   33.7391   49.9930 H   0  0  0  0  0  0  0  0  0  0  0  0
   58.6253   32.3390   47.7757 H   0  0  0  0  0  0  0  0  0  0  0  0
   60.3525   32.3916   48.3147 H   0  0  0  0  0  0  0  0  0  0  0  0
   58.9958   30.6057   50.0729 H   0  0  0  0  0  0  0  0  0  0  0  0
   58.4894   30.1994   48.3673 H   0  0  0  0  0  0  0  0  0  0  0  0
   60.9453   30.1883   47.7692 H   0  0  0  0  0  0  0  0  0  0  0  0
   64.3471   30.4083   50.3730 H   0  0  0  0  0  0  0  0  0  0  0  0
   63.0918   30.5771   52.3371 H   0  0  0  0  0  0  0  0  0  0  0  0
   64.1233   32.0675   52.4410 H   0  0  0  0  0  0  0  0  0  0  0  0
   62.3597   33.4986   51.9428 H   0  0  0  0  0  0  0  0  0  0  0  0
   61.4101   32.1887   51.1176 H   0  0  0  0  0  0  0  0  0  0  0  0
   61.7780   32.6591   54.1035 H   0  0  0  0  0  0  0  0  0  0  0  0
   60.2548   32.6332   53.1499 H   0  0  0  0  0  0  0  0  0  0  0  0
   61.0070   29.4450   51.2490 H   0  0  0  0  0  0  0  0  0  0  0  0
   59.3900   28.7390   51.5560 H   0  0  0  0  0  0  0  0  0  0  0  0
   58.8390   30.4240   54.8260 H   0  0  0  0  0  0  0  0  0  0  0  0
   58.1720   29.2710   53.6400 H   0  0  0  0  0  0  0  0  0  0  0  0
   64.0636   34.0983   51.5624 H   0  0  0  0  0  0  0  0  0  0  0  0
   64.7991   33.9326   53.2319 H   0  0  0  0  0  0  0  0  0  0  0  0
   65.0685   36.2900   51.3308 H   0  0  0  0  0  0  0  0  0  0  0  0
   64.1509   36.1906   52.9162 H   0  0  0  0  0  0  0  0  0  0  0  0
   66.0198   37.3144   53.5852 H   0  0  0  0  0  0  0  0  0  0  0  0
   66.5028   35.5541   53.8449 H   0  0  0  0  0  0  0  0  0  0  0  0
   67.3328   37.2763   51.4926 H   0  0  0  0  0  0  0  0  0  0  0  0
   68.3313   36.8814   52.9771 H   0  0  0  0  0  0  0  0  0  0  0  0
   67.8332   35.3099   50.5491 H   0  0  0  0  0  0  0  0  0  0  0  0
   69.1447   35.2187   51.8347 H   0  0  0  0  0  0  0  0  0  0  0  0
   68.1326   33.1197   51.9084 H   0  0  0  0  0  0  0  0  0  0  0  0
   67.3844   34.0627   53.2704 H   0  0  0  0  0  0  0  0  0  0  0  0
   58.4244   29.1517   47.1720 H   0  0  0  0  0  0  0  0  0  0  0  0
   56.7688   27.4706   47.6924 H   0  0  0  0  0  0  0  0  0  0  0  0
   58.6014   25.5102   46.2052 H   0  0  0  0  0  0  0  0  0  0  0  0
   54.8618   24.5734   43.7506 H   0  0  0  0  0  0  0  0  0  0  0  0
   55.2983   22.8753   41.9725 H   0  0  0  0  0  0  0  0  0  0  0  0
   57.0732   21.1468   42.2990 H   0  0  0  0  0  0  0  0  0  0  0  0
   58.4073   21.1104   44.4115 H   0  0  0  0  0  0  0  0  0  0  0  0
   57.9777   22.8093   46.1924 H   0  0  0  0  0  0  0  0  0  0  0  0
   60.1948   28.5412   45.2925 H   0  0  0  0  0  0  0  0  0  0  0  0
   59.0424   27.1882   44.9531 H   0  0  0  0  0  0  0  0  0  0  0  0
   57.0817   27.5478   43.7059 H   0  0  0  0  0  0  0  0  0  0  0  0
   55.6701   29.1058   42.3580 H   0  0  0  0  0  0  0  0  0  0  0  0
   56.0386   31.5742   42.5054 H   0  0  0  0  0  0  0  0  0  0  0  0
   57.8411   32.4808   43.9758 H   0  0  0  0  0  0  0  0  0  0  0  0
   59.2676   30.9302   45.3124 H   0  0  0  0  0  0  0  0  0  0  0  0
  1  2  1  0
  2  3  2  0
  2  4  1  0
  4  5  1  0
  5  6  1  0
  6  7  1  0
  7  8  1  0
  8  9  1  0
  9 10  1  0
 10 11  1  0
 11 12  2  0
 11 13  1  0
 13 14  1  0
 14 15  1  0
 15 16  1  0
 16 17  1  0
 17 18  2  3
 18 19  1  0
 18 20  1  0
 13 21  1  0
 21 22  1  0
 22 23  2  0
 22 24  1  0
 24 25  1  0
 25 26  1  0
 26 27  1  0
 27 28  1  0
 28 29  1  0
 29 30  1  0
  9 31  1  0
 31 32  2  0
 31 33  1  0
 33 34  1  0
 34 35  1  0
 35 36  2  3
 36 37  1  0
 37 38  2  0
 37 39  2  0
 37 40  1  0
 40 41  2  0
 41 42  1  0
 42 43  2  0
 43 44  1  0
 44 45  2  0
 34 46  1  0
 46 47  1  0
 47 48  2  0
 48 49  1  0
 49 50  2  0
 50 51  1  0
 51 52  2  0
 30 24  1  0
 45 40  1  0
 52 47  1  0
  1 53  1  0
  1 54  1  0
  1 55  1  0
  4 56  1  0
  5 57  1  0
  5 58  1  0
  6 59  1  0
  6 60  1  0
  7 61  1  0
  7 62  1  0
  8 63  1  0
  8 64  1  0
  9 65  1  6
 13 66  1  1
 14 67  1  0
 14 68  1  0
 15 69  1  0
 15 70  1  0
 16 71  1  0
 16 72  1  0
 19 73  1  0
 19 74  1  0
 20 75  1  0
 20 76  1  0
 25 77  1  0
 25 78  1  0
 26 79  1  0
 26 80  1  0
 27 81  1  0
 27 82  1  0
 28 83  1  0
 28 84  1  0
 29 85  1  0
 29 86  1  0
 30 87  1  0
 30 88  1  0
 34 89  1  1
 35 90  1  0
 36 91  1  0
 41 92  1  0
 42 93  1  0
 43 94  1  0
 44 95  1  0
 45 96  1  0
 46 97  1  0
 46 98  1  0
 48 99  1  0
 49100  1  0
 50101  1  0
 51102  1  0
 52103  1  0
M  CHG  3  10  -1  21  -1  33  -1
M  END
>  <UniqueID>  (32) 
27

>  <SMILES>  (32) 
CC(=O)NCCCC[C@@H]([N-]C(=O)[C@H](CCCN=C(N)N)[N-]C(=O)N1CCCCCC1)C(=O)[N-]C(C=CS(=O)(=O)c1ccccc1)Cc1ccccc1

>  <Energy>  (32) 
74.74461606177942

>  <Genealogy>  (32) 
CC(=O)NCCCCC([N-]C(=O)C(CCCN=C(N)N)[N-]C(=O)N1CCCCCC1)C(=O)[N-]C(C=CS(=O)(=O)c1ccccc1)Cc1ccccc1 (protonated)
CC(=O)NCCCC[C@@H]([N-]C(=O)[C@H](CCCN=C(N)N)[N-]C(=O)N1CCCCCC1)C(=O)[N-]C(C=CS(=O)(=O)c1ccccc1)Cc1ccccc1 (chirality)
CC(=O)NCCCC[C@@H]([N-]C(=O)[C@H](CCCN=C(N)N)[N-]C(=O)N1CCCCCC1)C(=O)[N-]C(C=CS(=O)(=O)c1ccccc1)Cc1ccccc1 (3D coordinates assigned)
CC(=O)NCCCC[C@@H]([N-]C(=O)[C@H](CCCN=C(N)N)[N-]C(=O)N1CCCCCC1)C(=O)[N-]C(C=CS(=O)(=O)c1ccccc1)Cc1ccccc1 (nonaromatic ring conformer: 74.74461606177942 kcal/mol)

>  <smiles>  (32) 
CC(=O)NCCCCC(NC(=O)C(CCCN=C(N)N)NC(=O)N1CCCCCC1)C(=O)NC(C=CS(=O)(=O)c1ccccc1)Cc1ccccc1

>  <score_type>  (32) 
oracle

>  <origin>  (32) 
adg

>  <m_score__min__energy>  (32) 
-10.960000000000001

>  <m_primary>  (32) 
energy

$$$$
32:0
     RDKit          3D

 45 47  0  0  0  0  0  0  0  0999 V2000
   64.1460   34.2800   51.3320 C   0  0  0  0  0  0  0  0  0  0  0  0
   64.0850   33.4630   50.1130 N   0  0  0  0  0  0  0  0  0  0  0  0
   65.2550   32.6600   49.7380 C   0  0  0  0  0  0  0  0  0  0  0  0
   62.8850   33.4470   49.2940 C   0  0  0  0  0  0  0  0  0  0  0  0
   61.6350   33.8190   49.8330 C   0  0  0  0  0  0  0  0  0  0  0  0
   60.4820   33.8060   49.0420 C   0  0  0  0  0  0  0  0  0  0  0  0
   60.5490   33.4320   47.6910 C   0  0  0  0  0  0  0  0  0  0  0  0
   59.3740   33.3880   46.8640 N   0  0  0  0  0  0  0  0  0  0  0  0
   58.9030   34.4930   46.0760 C   0  0  0  0  0  0  0  0  0  0  0  0
   59.6160   35.5210   45.9210 O   0  0  0  0  0  0  0  0  0  0  0  0
   57.5840   34.4070   45.3690 C   0  0  0  0  0  0  0  0  0  0  0  0
   57.1220   33.0590   45.3450 O   0  0  0  0  0  0  0  0  0  0  0  0
   57.5390   32.1150   44.3980 C   0  0  0  0  0  0  0  0  0  0  0  0
   57.6690   32.4480   43.1870 O   0  0  0  0  0  0  0  0  0  0  0  0
   57.8330   30.7280   44.8200 C   0  0  0  0  0  0  0  0  0  0  0  0
   59.1370   30.3630   45.1970 C   0  0  0  0  0  0  0  0  0  0  0  0
   59.4220   29.0530   45.5900 C   0  0  0  0  0  0  0  0  0  0  0  0
   58.4100   28.0890   45.6120 C   0  0  0  0  0  0  0  0  0  0  0  0
   57.0920   28.4530   45.2820 C   0  0  0  0  0  0  0  0  0  0  0  0
   56.8120   29.7610   44.8700 C   0  0  0  0  0  0  0  0  0  0  0  0
   56.0140   27.5240   45.4510 N   0  0  0  0  0  0  0  0  0  0  0  0
   56.1340   26.3530   46.2640 C   0  0  0  0  0  0  0  0  0  0  0  0
   55.1670   25.5520   46.3490 O   0  0  0  0  0  0  0  0  0  0  0  0
   57.3840   26.1110   47.0550 C   0  0  0  0  0  0  0  0  0  0  0  0
   58.8240   26.3770   45.9790 S   0  0  0  0  0  0  0  0  0  0  0  0
   61.7820   33.0370   47.1560 C   0  0  0  0  0  0  0  0  0  0  0  0
   62.9360   33.0510   47.9420 C   0  0  0  0  0  0  0  0  0  0  0  0
   64.0971   33.6256   52.2148 H   0  0  0  0  0  0  0  0  0  0  0  0
   65.0889   34.8463   51.3471 H   0  0  0  0  0  0  0  0  0  0  0  0
   63.2976   34.9800   51.3471 H   0  0  0  0  0  0  0  0  0  0  0  0
   65.7657   32.3095   50.6470 H   0  0  0  0  0  0  0  0  0  0  0  0
   64.9298   31.7939   49.1430 H   0  0  0  0  0  0  0  0  0  0  0  0
   65.9463   33.2749   49.1430 H   0  0  0  0  0  0  0  0  0  0  0  0
   61.5668   34.1228   50.8880 H   0  0  0  0  0  0  0  0  0  0  0  0
   59.5150   34.0911   49.4821 H   0  0  0  0  0  0  0  0  0  0  0  0
   58.8870   32.4690   46.7570 H   0  0  0  0  0  0  0  0  0  0  0  0
   56.8487   35.0332   45.8955 H   0  0  0  0  0  0  0  0  0  0  0  0
   57.7089   34.7606   44.3349 H   0  0  0  0  0  0  0  0  0  0  0  0
   59.9397   31.1150   45.1825 H   0  0  0  0  0  0  0  0  0  0  0  0
   60.4463   28.7792   45.8831 H   0  0  0  0  0  0  0  0  0  0  0  0
   55.7861   30.0351   44.5831 H   0  0  0  0  0  0  0  0  0  0  0  0
   57.4241   26.8088   47.9044 H   0  0  0  0  0  0  0  0  0  0  0  0
   57.3895   25.0790   47.4358 H   0  0  0  0  0  0  0  0  0  0  0  0
   61.8416   32.7127   46.1066 H   0  0  0  0  0  0  0  0  0  0  0  0
   63.8973   32.7491   47.5006 H   0  0  0  0  0  0  0  0  0  0  0  0
  1  2  1  0
  2  3  1  0
  2  4  1  0
  4  5  2  0
  5  6  1  0
  6  7  2  0
  7  8  1  0
  8  9  1  0
  9 10  2  0
  9 11  1  0
 11 12  1  0
 12 13  1  0
 13 14  2  0
 13 15  1  0
 15 16  2  0
 16 17  1  0
 17 18  2  0
 18 19  1  0
 19 20  2  0
 19 21  1  0
 21 22  1  0
 22 23  2  0
 22 24  1  0
 24 25  1  0
  7 26  1  0
 26 27  2  0
 27  4  1  0
 20 15  1  0
 25 18  1  0
  1 28  1  0
  1 29  1  0
  1 30  1  0
  3 31  1  0
  3 32  1  0
  3 33  1  0
  5 34  1  0
  6 35  1  0
  8 36  1  0
 11 37  1  0
 11 38  1  0
 16 39  1  0
 17 40  1  0
 20 41  1  0
 24 42  1  0
 24 43  1  0
 26 44  1  0
 27 45  1  0
M  CHG  1  21  -1
M  END
>  <UniqueID>  (33) 
28

>  <SMILES>  (33) 
CN(C)c1ccc(NC(=O)COC(=O)c2ccc3c(c2)[N-]C(=O)CS3)cc1

>  <Energy>  (33) 
53.7631061540211

>  <Genealogy>  (33) 
CN(C)c1ccc(NC(=O)COC(=O)c2ccc3c(c2)[N-]C(=O)CS3)cc1 (protonated)
CN(C)c1ccc(NC(=O)COC(=O)c2ccc3c(c2)[N-]C(=O)CS3)cc1 (3D coordinates assigned)
CN(C)c1ccc(NC(=O)COC(=O)c2ccc3c(c2)[N-]C(=O)CS3)cc1 (nonaromatic ring conformer: 53.7631061540211 kcal/mol)

>  <smiles>  (33) 
CN(C)c1ccc(NC(=O)COC(=O)c2ccc3c(c2)NC(=O)CS3)cc1

>  <score_type>  (33) 
oracle

>  <origin>  (33) 
adg

>  <m_score__min__energy>  (33) 
-10.449999999999999

>  <m_primary>  (33) 
energy

$$$$
33:0
     RDKit          3D

 33 35  0  0  0  0  0  0  0  0999 V2000
   55.1310   28.5980   45.6320 H   0  0  0  0  0  0  0  0  0  0  0  0
   55.2340   29.3060   44.8730 N   0  0  0  0  0  0  0  0  0  0  0  0
   56.5060   29.8780   44.5750 C   0  0  0  0  0  0  0  0  0  0  0  0
   56.6280   30.6450   43.5820 O   0  0  0  0  0  0  0  0  0  0  0  0
   57.6730   29.5920   45.4330 C   0  0  0  0  0  0  0  0  0  0  0  0
   58.2760   28.3130   45.3600 C   0  0  0  0  0  0  0  0  0  0  0  0
   57.7830   27.0750   44.1440 S   0  0  0  0  0  0  0  0  0  0  0  0
   57.4920   25.8060   45.3810 C   0  0  0  0  0  0  0  0  0  0  0  0
   58.4300   24.8470   45.5920 N   0  0  0  0  0  0  0  0  0  0  0  0
   58.2470   23.8890   46.5020 N   0  0  0  0  0  0  0  0  0  0  0  0
   57.1100   23.8450   47.2430 C   0  0  0  0  0  0  0  0  0  0  0  0
   56.9510   22.9400   48.1020 O   0  0  0  0  0  0  0  0  0  0  0  0
   56.1450   24.7780   47.0490 N   0  0  0  0  0  0  0  0  0  0  0  0
   56.3100   25.7600   46.1270 C   0  0  0  0  0  0  0  0  0  0  0  0
   55.3950   26.6050   45.9440 O   0  0  0  0  0  0  0  0  0  0  0  0
   59.2710   27.9570   46.2730 C   0  0  0  0  0  0  0  0  0  0  0  0
   59.7657   26.9775   46.1970 H   0  0  0  0  0  0  0  0  0  0  0  0
   59.6330   28.8450   47.2770 C   0  0  0  0  0  0  0  0  0  0  0  0
   60.3802   28.5505   48.0286 H   0  0  0  0  0  0  0  0  0  0  0  0
   59.0660   30.0740   47.3310 N   0  0  0  0  0  0  0  0  0  0  0  0
   58.1340   30.5020   46.4380 C   0  0  0  0  0  0  0  0  0  0  0  0
   57.7370   31.7420   46.5540 N   0  0  0  0  0  0  0  0  0  0  0  0
   58.4670   32.9600   46.3560 C   0  0  0  0  0  0  0  0  0  0  0  0
   58.5300   33.5230   45.0750 C   0  0  0  0  0  0  0  0  0  0  0  0
   58.0547   33.0091   44.2265 H   0  0  0  0  0  0  0  0  0  0  0  0
   59.1950   34.7360   44.8710 C   0  0  0  0  0  0  0  0  0  0  0  0
   59.2594   35.1641   43.8598 H   0  0  0  0  0  0  0  0  0  0  0  0
   59.7780   35.4050   45.9510 C   0  0  0  0  0  0  0  0  0  0  0  0
   60.3109   36.3533   45.7874 H   0  0  0  0  0  0  0  0  0  0  0  0
   59.6840   34.8690   47.2400 C   0  0  0  0  0  0  0  0  0  0  0  0
   60.1342   35.4012   48.0909 H   0  0  0  0  0  0  0  0  0  0  0  0
   59.0180   33.6570   47.4470 C   0  0  0  0  0  0  0  0  0  0  0  0
   58.9020   33.1650   48.7070 F   0  0  0  0  0  0  0  0  0  0  0  0
  1  2  1  0
  2  3  1  0
  3  4  2  0
  3  5  1  0
  5  6  2  0
  6  7  1  0
  7  8  1  0
  8  9  2  0
  9 10  1  0
 10 11  1  0
 11 12  2  0
 11 13  1  0
 13 14  1  0
 14 15  2  0
  6 16  1  0
 16 17  1  0
 16 18  2  0
 18 19  1  0
 18 20  1  0
 20 21  1  0
 21 22  2  0
 22 23  1  0
 23 24  2  0
 24 25  1  0
 24 26  1  0
 26 27  1  0
 26 28  2  0
 28 29  1  0
 28 30  1  0
 30 31  1  0
 30 32  2  0
 32 33  1  0
 21  5  1  0
 32 23  1  0
 14  8  1  0
M  CHG  4   2  -1  10  -1  13  -1  20  -1
M  END
>  <UniqueID>  (34) 
29

>  <SMILES>  (34) 
[NH-]C(=O)c1c(Sc2n[n-]c(=O)[n-]c2=O)cc[n-]/c1=N/c1ccccc1F

>  <Energy>  (34) 
59.13452405651088

>  <Genealogy>  (34) 
[NH-]C(=O)c1c(Sc2n[n-]c(=O)[n-]c2=O)cc[n-]c1=Nc1ccccc1F (protonated)
[NH-]C(=O)c1c(Sc2n[n-]c(=O)[n-]c2=O)cc[n-]/c1=N/c1ccccc1F (cis-trans isomerization)
[NH-]C(=O)c1c(Sc2n[n-]c(=O)[n-]c2=O)cc[n-]/c1=N/c1ccccc1F (3D coordinates assigned)
[NH-]C(=O)c1c(Sc2n[n-]c(=O)[n-]c2=O)cc[n-]/c1=N/c1ccccc1F (optimized conformer: 59.13452405651088 kcal/mol)

>  <smiles>  (34) 
NC(=O)c1c(Sc2n[nH]c(=O)[nH]c2=O)cc[nH]c1=Nc1ccccc1F

>  <score_type>  (34) 
oracle

>  <origin>  (34) 
adg

>  <m_score__min__energy>  (34) 
-16.460000000000001

>  <m_primary>  (34) 
energy

$$$$
34:0
     RDKit          3D

 44 47  0  0  0  0  0  0  0  0999 V2000
   55.5640   29.3330   45.0960 O   0  0  0  0  0  0  0  0  0  0  0  0
   56.6470   29.9360   44.8650 C   0  0  0  0  0  0  0  0  0  0  0  0
   56.6410   31.3260   44.5130 N   0  0  0  0  0  0  0  0  0  0  0  0
   57.4580   32.3500   45.0960 C   0  0  0  0  0  0  0  0  0  0  0  0
   57.7050   33.5150   44.3600 C   0  0  0  0  0  0  0  0  0  0  0  0
   58.4950   34.5360   44.8960 C   0  0  0  0  0  0  0  0  0  0  0  0
   59.0350   34.4040   46.1760 C   0  0  0  0  0  0  0  0  0  0  0  0
   58.7790   33.2540   46.9350 C   0  0  0  0  0  0  0  0  0  0  0  0
   59.4640   33.0840   48.5540 S   0  0  0  0  0  0  0  0  0  0  0  0
   58.6140   32.1360   49.3540 O   0  0  0  0  0  0  0  0  0  0  0  0
   59.4470   34.4200   49.2440 O   0  0  0  0  0  0  0  0  0  0  0  0
   61.1060   32.4840   48.4970 N   0  0  0  0  0  0  0  0  0  0  0  0
   61.5890   32.3370   47.1060 C   0  0  0  0  0  0  0  0  0  0  0  0
   62.5770   33.4510   46.7170 C   0  0  0  0  0  0  0  0  0  0  0  0
   63.7210   33.5070   47.5580 O   0  0  0  0  0  0  0  0  0  0  0  0
   63.4570   33.1470   48.9090 C   0  0  0  0  0  0  0  0  0  0  0  0
   61.9880   33.3230   49.3310 C   0  0  0  0  0  0  0  0  0  0  0  0
   57.9750   32.2370   46.3990 C   0  0  0  0  0  0  0  0  0  0  0  0
   57.9310   29.2310   45.0090 C   0  0  0  0  0  0  0  0  0  0  0  0
   59.1650   29.6690   44.5280 C   0  0  0  0  0  0  0  0  0  0  0  0
   60.1380   28.7800   44.8300 N   0  0  0  0  0  0  0  0  0  0  0  0
   59.5270   27.7870   45.4950 C   0  0  0  0  0  0  0  0  0  0  0  0
   60.1250   26.6740   45.9900 N   0  0  0  0  0  0  0  0  0  0  0  0
   59.3640   25.7470   46.6440 C   0  0  0  0  0  0  0  0  0  0  0  0
   57.9750   25.9430   46.8040 C   0  0  0  0  0  0  0  0  0  0  0  0
   57.3660   27.0990   46.2860 C   0  0  0  0  0  0  0  0  0  0  0  0
   58.1850   28.0170   45.6270 C   0  0  0  0  0  0  0  0  0  0  0  0
   57.2748   33.6276   43.3539 H   0  0  0  0  0  0  0  0  0  0  0  0
   58.6913   35.4447   44.3081 H   0  0  0  0  0  0  0  0  0  0  0  0
   59.6639   35.2055   46.5908 H   0  0  0  0  0  0  0  0  0  0  0  0
   62.0933   31.3645   47.0063 H   0  0  0  0  0  0  0  0  0  0  0  0
   60.7194   32.4054   46.4358 H   0  0  0  0  0  0  0  0  0  0  0  0
   62.9115   33.2758   45.6838 H   0  0  0  0  0  0  0  0  0  0  0  0
   62.0467   34.4087   46.8244 H   0  0  0  0  0  0  0  0  0  0  0  0
   63.7311   32.0904   49.0447 H   0  0  0  0  0  0  0  0  0  0  0  0
   64.0513   33.8247   49.5395 H   0  0  0  0  0  0  0  0  0  0  0  0
   61.8766   33.0288   50.3851 H   0  0  0  0  0  0  0  0  0  0  0  0
   61.7042   34.3776   49.1992 H   0  0  0  0  0  0  0  0  0  0  0  0
   57.7475   31.3454   47.0018 H   0  0  0  0  0  0  0  0  0  0  0  0
   59.3246   30.6085   43.9785 H   0  0  0  0  0  0  0  0  0  0  0  0
   61.1540   28.8520   44.5940 H   0  0  0  0  0  0  0  0  0  0  0  0
   59.8373   24.8405   47.0493 H   0  0  0  0  0  0  0  0  0  0  0  0
   57.3702   25.1920   47.3334 H   0  0  0  0  0  0  0  0  0  0  0  0
   56.2855   27.2734   46.3958 H   0  0  0  0  0  0  0  0  0  0  0  0
  1  2  2  0
  2  3  1  0
  3  4  1  0
  4  5  2  0
  5  6  1  0
  6  7  2  0
  7  8  1  0
  8  9  1  0
  9 10  2  0
  9 11  2  0
  9 12  1  0
 12 13  1  0
 13 14  1  0
 14 15  1  0
 15 16  1  0
 16 17  1  0
  8 18  2  0
  2 19  1  0
 19 20  2  0
 20 21  1  0
 21 22  1  0
 22 23  2  0
 23 24  1  0
 24 25  2  0
 25 26  1  0
 26 27  2  0
 18  4  1  0
 27 19  1  0
 17 12  1  0
 27 22  1  0
  5 28  1  0
  6 29  1  0
  7 30  1  0
 13 31  1  0
 13 32  1  0
 14 33  1  0
 14 34  1  0
 16 35  1  0
 16 36  1  0
 17 37  1  0
 17 38  1  0
 18 39  1  0
 20 40  1  0
 21 41  1  0
 24 42  1  0
 25 43  1  0
 26 44  1  0
M  CHG  1   3  -1
M  END
>  <UniqueID>  (35) 
30

>  <SMILES>  (35) 
O=C([N-]c1cccc(S(=O)(=O)N2CCOCC2)c1)c1c[nH]c2ncccc12

>  <Energy>  (35) 
97.64391727257328

>  <Genealogy>  (35) 
O=C([N-]c1cccc(S(=O)(=O)N2CCOCC2)c1)c1c[nH]c2ncccc12 (protonated)
O=C([N-]c1cccc(S(=O)(=O)N2CCOCC2)c1)c1c[nH]c2ncccc12 (3D coordinates assigned)
O=C([N-]c1cccc(S(=O)(=O)N2CCOCC2)c1)c1c[nH]c2ncccc12 (nonaromatic ring conformer: 97.64391727257328 kcal/mol)

>  <smiles>  (35) 
O=C(Nc1cccc(S(=O)(=O)N2CCOCC2)c1)c1c[nH]c2ncccc12

>  <score_type>  (35) 
oracle

>  <origin>  (35) 
adg

>  <m_score__min__energy>  (35) 
-11.140000000000001

>  <m_primary>  (35) 
energy

$$$$
35:0
     RDKit          3D

 38 40  0  0  0  0  0  0  0  0999 V2000
   56.5120   31.0750   43.5990 C   0  0  0  0  0  0  0  0  0  0  0  0
   57.3800   30.8480   44.6050 C   0  0  0  0  0  0  0  0  0  0  0  0
   58.2680   31.8800   44.9740 C   0  0  0  0  0  0  0  0  0  0  0  0
   58.1640   33.1550   44.4220 O   0  0  0  0  0  0  0  0  0  0  0  0
   59.2680   31.6480   45.9100 C   0  0  0  0  0  0  0  0  0  0  0  0
   59.4720   30.3740   46.4380 C   0  0  0  0  0  0  0  0  0  0  0  0
   60.4050   30.2170   47.4630 O   0  0  0  0  0  0  0  0  0  0  0  0
   58.6800   29.2830   45.9960 C   0  0  0  0  0  0  0  0  0  0  0  0
   58.9340   27.9360   46.4040 C   0  0  0  0  0  0  0  0  0  0  0  0
   60.1600   27.4390   46.7010 C   0  0  0  0  0  0  0  0  0  0  0  0
   60.6290   27.1210   48.0610 C   0  0  0  0  0  0  0  0  0  0  0  0
   60.0310   27.6020   49.0590 O   0  0  0  0  0  0  0  0  0  0  0  0
   57.8650   27.0270   46.4040 C   0  0  0  0  0  0  0  0  0  0  0  0
   56.6380   27.3530   45.8400 C   0  0  0  0  0  0  0  0  0  0  0  0
   55.6180   26.3910   45.8760 O   0  0  0  0  0  0  0  0  0  0  0  0
   55.8060   25.0520   46.2420 C   0  0  0  0  0  0  0  0  0  0  0  0
   55.5860   24.6810   47.4280 O   0  0  0  0  0  0  0  0  0  0  0  0
   56.2190   24.0640   45.2210 C   0  0  0  0  0  0  0  0  0  0  0  0
   55.4850   23.9240   44.0280 C   0  0  0  0  0  0  0  0  0  0  0  0
   55.8740   22.9920   43.0620 C   0  0  0  0  0  0  0  0  0  0  0  0
   57.0000   22.1920   43.2730 C   0  0  0  0  0  0  0  0  0  0  0  0
   57.3760   21.2890   42.3330 F   0  0  0  0  0  0  0  0  0  0  0  0
   57.7380   22.3220   44.4520 C   0  0  0  0  0  0  0  0  0  0  0  0
   57.3520   23.2520   45.4230 C   0  0  0  0  0  0  0  0  0  0  0  0
   56.4380   28.6230   45.2770 C   0  0  0  0  0  0  0  0  0  0  0  0
   55.1530   28.9640   44.8660 O   0  0  0  0  0  0  0  0  0  0  0  0
   57.4950   29.5740   45.2500 C   0  0  0  0  0  0  0  0  0  0  0  0
   55.8086   30.2873   43.2912 H   0  0  0  0  0  0  0  0  0  0  0  0
   56.5071   32.0480   43.0859 H   0  0  0  0  0  0  0  0  0  0  0  0
   59.9073   32.4806   46.2389 H   0  0  0  0  0  0  0  0  0  0  0  0
   60.2470   29.5860   48.2400 H   0  0  0  0  0  0  0  0  0  0  0  0
   60.8543   27.2604   45.8667 H   0  0  0  0  0  0  0  0  0  0  0  0
   61.5000   26.4646   48.2041 H   0  0  0  0  0  0  0  0  0  0  0  0
   58.0014   26.0354   46.8602 H   0  0  0  0  0  0  0  0  0  0  0  0
   54.5990   24.5526   43.8549 H   0  0  0  0  0  0  0  0  0  0  0  0
   55.2927   22.8880   42.1339 H   0  0  0  0  0  0  0  0  0  0  0  0
   58.6244   21.6918   44.6171 H   0  0  0  0  0  0  0  0  0  0  0  0
   57.9367   23.3497   46.3496 H   0  0  0  0  0  0  0  0  0  0  0  0
  1  2  2  0
  2  3  1  0
  3  4  1  0
  3  5  2  0
  5  6  1  0
  6  7  1  0
  6  8  2  0
  8  9  1  0
  9 10  2  3
 10 11  1  0
 11 12  2  0
  9 13  1  0
 13 14  2  0
 14 15  1  0
 15 16  1  0
 16 17  2  0
 16 18  1  0
 18 19  2  0
 19 20  1  0
 20 21  2  0
 21 22  1  0
 21 23  1  0
 23 24  2  0
 14 25  1  0
 25 26  1  0
 25 27  2  0
 27  2  1  0
 27  8  1  0
 24 18  1  0
  1 28  1  0
  1 29  1  0
  5 30  1  0
  7 31  1  0
 10 32  1  0
 11 33  1  0
 13 34  1  0
 19 35  1  0
 20 36  1  0
 23 37  1  0
 24 38  1  0
M  CHG  2   4  -1  26  -1
M  END
>  <UniqueID>  (36) 
31

>  <SMILES>  (36) 
C=c1c([O-])cc(O)c2c(=CC=O)cc(OC(=O)c3ccc(F)cc3)c([O-])c12

>  <Energy>  (36) 
86.51402911263871

>  <Genealogy>  (36) 
C=c1c([O-])cc(O)c2c(=CC=O)cc(OC(=O)c3ccc(F)cc3)c([O-])c12 (protonated)
C=c1c([O-])cc(O)c2c(=CC=O)cc(OC(=O)c3ccc(F)cc3)c([O-])c12 (3D coordinates assigned)
C=c1c([O-])cc(O)c2c(=CC=O)cc(OC(=O)c3ccc(F)cc3)c([O-])c12 (optimized conformer: 86.51402911263871 kcal/mol)

>  <smiles>  (36) 
C=c1c(O)cc(O)c2c(=CC=O)cc(OC(=O)c3ccc(F)cc3)c(O)c12

>  <score_type>  (36) 
oracle

>  <origin>  (36) 
adg

>  <m_score__min__energy>  (36) 
-11.44

>  <m_primary>  (36) 
energy

$$$$
36:0
     RDKit          3D

 41 43  0  0  1  0  0  0  0  0999 V2000
   63.8260   32.6900   48.4690 C   0  0  0  0  0  0  0  0  0  0  0  0
   63.2760   33.4400   47.4030 O   0  0  0  0  0  0  0  0  0  0  0  0
   61.9410   33.7910   47.4190 C   0  0  0  0  0  0  0  0  0  0  0  0
   61.3780   34.1040   48.6560 C   0  0  0  0  0  0  0  0  0  0  0  0
   60.0660   34.4600   48.7550 C   0  0  0  0  0  0  0  0  0  0  0  0
   59.3090   34.5000   47.5960 C   0  0  0  0  0  0  0  0  0  0  0  0
   59.8580   34.1900   46.3510 C   0  0  0  0  0  0  0  0  0  0  0  0
   59.0070   34.2650   45.2650 O   0  0  0  0  0  0  0  0  0  0  0  0
   57.7660   33.5800   45.2340 C   0  0  0  0  0  0  0  0  0  0  0  0
   58.0090   32.1390   45.5680 C   0  0  0  0  0  0  0  0  0  0  0  0
   58.0770   31.0670   44.7030 C   0  0  0  0  0  0  0  0  0  0  0  0
   58.3160   29.9060   45.4090 C   0  0  0  0  0  0  0  0  0  0  0  0
   58.4490   28.5850   44.8240 C   0  0  0  0  0  0  0  0  0  0  0  0
   59.6000   28.2810   44.3630 O   0  0  0  0  0  0  0  0  0  0  0  0
   57.4060   27.6560   44.7420 N   0  0  0  0  0  0  0  0  0  0  0  0
   57.4470   26.5280   45.3660 C   0  0  0  0  0  0  0  0  0  0  0  0
   58.6430   25.8850   45.3660 N   0  0  0  0  0  0  0  0  0  0  0  0
   58.8030   24.6900   45.9910 C   0  0  0  0  0  0  0  0  0  0  0  0
   57.6960   24.1490   46.6300 C   0  0  0  0  0  0  0  0  0  0  0  0
   56.4690   24.7920   46.6390 C   0  0  0  0  0  0  0  0  0  0  0  0
   56.3360   26.0080   45.9940 C   0  0  0  0  0  0  0  0  0  0  0  0
   55.1470   26.7180   45.9540 O   0  0  0  0  0  0  0  0  0  0  0  0
   58.3930   30.2850   46.6990 N   0  0  0  0  0  0  0  0  0  0  0  0
   58.2110   31.6060   46.7980 N   0  0  0  0  0  0  0  0  0  0  0  0
   61.1850   33.8330   46.2680 C   0  0  0  0  0  0  0  0  0  0  0  0
   63.5064   33.1258   49.4271 H   0  0  0  0  0  0  0  0  0  0  0  0
   63.4753   31.6494   48.4044 H   0  0  0  0  0  0  0  0  0  0  0  0
   64.9239   32.7116   48.4044 H   0  0  0  0  0  0  0  0  0  0  0  0
   62.0000   34.0631   49.5623 H   0  0  0  0  0  0  0  0  0  0  0  0
   59.6204   34.7089   49.7294 H   0  0  0  0  0  0  0  0  0  0  0  0
   58.2479   34.7833   47.6584 H   0  0  0  0  0  0  0  0  0  0  0  0
   57.0802   34.0213   45.9721 H   0  0  0  0  0  0  0  0  0  0  0  0
   57.3143   33.6640   44.2346 H   0  0  0  0  0  0  0  0  0  0  0  0
   57.9582   31.1286   43.6112 H   0  0  0  0  0  0  0  0  0  0  0  0
   59.4730   26.2970   44.8830 H   0  0  0  0  0  0  0  0  0  0  0  0
   59.7727   24.1707   45.9908 H   0  0  0  0  0  0  0  0  0  0  0  0
   57.7959   23.1817   47.1441 H   0  0  0  0  0  0  0  0  0  0  0  0
   55.6088   24.3397   47.1542 H   0  0  0  0  0  0  0  0  0  0  0  0
   55.1480   27.5710   45.3750 H   0  0  0  0  0  0  0  0  0  0  0  0
   58.5680   29.6470   47.5100 H   0  0  0  0  0  0  0  0  0  0  0  0
   61.6356   33.5846   45.2958 H   0  0  0  0  0  0  0  0  0  0  0  0
  1  2  1  0
  2  3  1  0
  3  4  2  0
  4  5  1  0
  5  6  2  0
  6  7  1  0
  7  8  1  0
  8  9  1  0
  9 10  1  0
 10 11  1  0
 11 12  2  0
 12 13  1  0
 13 14  2  0
 13 15  1  0
 15 16  2  0
 16 17  1  0
 17 18  1  0
 18 19  2  0
 19 20  1  0
 20 21  2  0
 21 22  1  0
 12 23  1  0
 23 24  1  0
  7 25  2  0
 25  3  1  0
 24 10  2  0
 21 16  1  0
  1 26  1  0
  1 27  1  0
  1 28  1  0
  4 29  1  0
  5 30  1  0
  6 31  1  0
  9 32  1  0
  9 33  1  0
 11 34  1  0
 17 35  1  0
 18 36  1  0
 19 37  1  0
 20 38  1  0
 22 39  1  0
 23 40  1  0
 25 41  1  0
M  END
>  <smiles>  (37) 
COc1cccc(OCc2cc(C(=O)N=c3[nH]cccc3O)[nH]n2)c1

>  <score_type>  (37) 
oracle

>  <origin>  (37) 
adg

>  <m_score__min__energy>  (37) 
-9.1899999999999995

>  <m_primary>  (37) 
energy

$$$$
37:0
     RDKit          3D

 52 54  0  0  0  0  0  0  0  0999 V2000
   58.3830   21.4850   43.7470 C   0  0  0  0  0  0  0  0  0  0  0  0
   56.6240   21.7830   43.8110 S   0  0  0  0  0  0  0  0  0  0  0  0
   55.9230   20.4720   44.0210 O   0  0  0  0  0  0  0  0  0  0  0  0
   56.1470   22.3890   42.5180 O   0  0  0  0  0  0  0  0  0  0  0  0
   56.2330   22.8370   45.1330 N   0  0  0  0  0  0  0  0  0  0  0  0
   56.5530   24.2310   45.2210 C   0  0  0  0  0  0  0  0  0  0  0  0
   55.9700   24.9840   46.2470 C   0  0  0  0  0  0  0  0  0  0  0  0
   56.2490   26.3480   46.3750 C   0  0  0  0  0  0  0  0  0  0  0  0
   57.1300   26.9810   45.4790 C   0  0  0  0  0  0  0  0  0  0  0  0
   57.4410   28.4220   45.6030 C   0  0  0  0  0  0  0  0  0  0  0  0
   58.2820   28.9010   46.6190 C   0  0  0  0  0  0  0  0  0  0  0  0
   58.5260   30.2760   46.7290 C   0  0  0  0  0  0  0  0  0  0  0  0
   59.3530   30.7570   47.7460 O   0  0  0  0  0  0  0  0  0  0  0  0
   57.9320   31.1640   45.8140 C   0  0  0  0  0  0  0  0  0  0  0  0
   58.2010   32.6480   45.8600 C   0  0  0  0  0  0  0  0  0  0  0  0
   59.4760   32.9200   46.5530 N   0  0  0  0  0  0  0  0  0  0  0  0
   59.2470   33.4830   47.9020 C   0  0  0  0  0  0  0  0  0  0  0  0
   60.4990   34.1810   48.4780 C   0  0  0  0  0  0  0  0  0  0  0  0
   61.7500   33.7440   47.8340 N   0  0  0  0  0  0  0  0  0  0  0  0
   62.2950   32.1730   48.3930 S   0  0  0  0  0  0  0  0  0  0  0  0
   63.8900   32.2160   49.1920 C   0  0  0  0  0  0  0  0  0  0  0  0
   61.2930   31.6420   49.3810 O   0  0  0  0  0  0  0  0  0  0  0  0
   62.3650   31.2190   47.2300 O   0  0  0  0  0  0  0  0  0  0  0  0
   61.7400   33.8630   46.3600 C   0  0  0  0  0  0  0  0  0  0  0  0
   60.3260   33.8180   45.7570 C   0  0  0  0  0  0  0  0  0  0  0  0
   57.1110   30.6400   44.8070 C   0  0  0  0  0  0  0  0  0  0  0  0
   56.8790   29.3050   44.7330 N   0  0  0  0  0  0  0  0  0  0  0  0
   57.7270   26.2210   44.4630 C   0  0  0  0  0  0  0  0  0  0  0  0
   57.4310   24.8620   44.3220 C   0  0  0  0  0  0  0  0  0  0  0  0
   58.7809   21.4176   44.7703 H   0  0  0  0  0  0  0  0  0  0  0  0
   58.5759   20.5414   43.2156 H   0  0  0  0  0  0  0  0  0  0  0  0
   58.8760   22.3124   43.2156 H   0  0  0  0  0  0  0  0  0  0  0  0
   55.2863   24.4983   46.9588 H   0  0  0  0  0  0  0  0  0  0  0  0
   55.7771   26.9295   47.1807 H   0  0  0  0  0  0  0  0  0  0  0  0
   58.7480   28.1993   47.3265 H   0  0  0  0  0  0  0  0  0  0  0  0
   60.2340   31.2170   47.5440 H   0  0  0  0  0  0  0  0  0  0  0  0
   58.2566   33.0380   44.8330 H   0  0  0  0  0  0  0  0  0  0  0  0
   57.3850   33.1411   46.4087 H   0  0  0  0  0  0  0  0  0  0  0  0
   58.4306   34.2179   47.8425 H   0  0  0  0  0  0  0  0  0  0  0  0
   58.9950   32.6477   48.5719 H   0  0  0  0  0  0  0  0  0  0  0  0
   60.3919   35.2664   48.3352 H   0  0  0  0  0  0  0  0  0  0  0  0
   60.5654   33.9111   49.5423 H   0  0  0  0  0  0  0  0  0  0  0  0
   63.7535   32.2123   50.2835 H   0  0  0  0  0  0  0  0  0  0  0  0
   64.4740   31.3333   48.8925 H   0  0  0  0  0  0  0  0  0  0  0  0
   64.4256   33.1289   48.8925 H   0  0  0  0  0  0  0  0  0  0  0  0
   62.2075   34.8196   46.0835 H   0  0  0  0  0  0  0  0  0  0  0  0
   62.2933   33.0009   45.9592 H   0  0  0  0  0  0  0  0  0  0  0  0
   59.8941   34.8297   45.7617 H   0  0  0  0  0  0  0  0  0  0  0  0
   60.3824   33.4452   44.7236 H   0  0  0  0  0  0  0  0  0  0  0  0
   56.6510   31.3157   44.0709 H   0  0  0  0  0  0  0  0  0  0  0  0
   58.4352   26.6988   43.7701 H   0  0  0  0  0  0  0  0  0  0  0  0
   57.8867   24.2840   43.5045 H   0  0  0  0  0  0  0  0  0  0  0  0
  1  2  1  0
  2  3  2  0
  2  4  2  0
  2  5  1  0
  5  6  1  0
  6  7  2  0
  7  8  1  0
  8  9  2  0
  9 10  1  0
 10 11  2  0
 11 12  1  0
 12 13  1  0
 12 14  2  0
 14 15  1  0
 15 16  1  0
 16 17  1  0
 17 18  1  0
 18 19  1  0
 19 20  1  0
 20 21  1  0
 20 22  2  0
 20 23  2  0
 19 24  1  0
 24 25  1  0
 14 26  1  0
 26 27  2  0
  9 28  1  0
 28 29  2  0
 29  6  1  0
 27 10  1  0
 25 16  1  0
  1 30  1  0
  1 31  1  0
  1 32  1  0
  7 33  1  0
  8 34  1  0
 11 35  1  0
 13 36  1  0
 15 37  1  0
 15 38  1  0
 17 39  1  0
 17 40  1  0
 18 41  1  0
 18 42  1  0
 21 43  1  0
 21 44  1  0
 21 45  1  0
 24 46  1  0
 24 47  1  0
 25 48  1  0
 25 49  1  0
 26 50  1  0
 28 51  1  0
 29 52  1  0
M  CHG  1   5  -1
M  END
>  <UniqueID>  (38) 
32

>  <SMILES>  (38) 
CS(=O)(=O)[N-]c1ccc(-c2cc(O)c(CN3CCN(S(C)(=O)=O)CC3)cn2)cc1

>  <Energy>  (38) 
63.209880837094765

>  <Genealogy>  (38) 
CS(=O)(=O)[N-]c1ccc(-c2cc(O)c(CN3CCN(S(C)(=O)=O)CC3)cn2)cc1 (protonated)
CS(=O)(=O)[N-]c1ccc(-c2cc(O)c(CN3CCN(S(C)(=O)=O)CC3)cn2)cc1 (3D coordinates assigned)
CS(=O)(=O)[N-]c1ccc(-c2cc(O)c(CN3CCN(S(C)(=O)=O)CC3)cn2)cc1 (nonaromatic ring conformer: 63.209880837094765 kcal/mol)

>  <smiles>  (38) 
CS(=O)(=O)Nc1ccc(-c2cc(O)c(CN3CCN(S(C)(=O)=O)CC3)cn2)cc1

>  <score_type>  (38) 
oracle

>  <origin>  (38) 
adg

>  <m_score__min__energy>  (38) 
-9.7200000000000006

>  <m_primary>  (38) 
energy

$$$$
38:0
     RDKit          3D

 53 55  0  0  0  0  0  0  0  0999 V2000
   58.7240   34.2040   52.5330 C   0  0  0  0  0  0  0  0  0  0  0  0
   59.2500   33.5260   51.3110 C   0  0  0  0  0  0  0  0  0  0  0  0
   58.5090   32.7220   50.6840 O   0  0  0  0  0  0  0  0  0  0  0  0
   60.6170   33.7230   50.9180 N   0  0  0  0  0  0  0  0  0  0  0  0
   61.1780   33.2580   49.6780 C   0  0  0  0  0  0  0  0  0  0  0  0
   62.1020   34.0660   48.9990 C   0  0  0  0  0  0  0  0  0  0  0  0
   62.6500   33.6460   47.7850 C   0  0  0  0  0  0  0  0  0  0  0  0
   62.2670   32.4260   47.2260 C   0  0  0  0  0  0  0  0  0  0  0  0
   61.3230   31.6140   47.8750 C   0  0  0  0  0  0  0  0  0  0  0  0
   60.8850   30.3420   47.2700 C   0  0  0  0  0  0  0  0  0  0  0  0
   60.6980   30.1700   45.9420 N   0  0  0  0  0  0  0  0  0  0  0  0
   60.2990   28.8880   45.8450 C   0  0  0  0  0  0  0  0  0  0  0  0
   60.0020   28.2100   44.5440 C   0  0  0  0  0  0  0  0  0  0  0  0
   58.2630   27.8160   44.3970 S   0  0  0  0  0  0  0  0  0  0  0  0
   58.0890   26.3530   44.6890 O   0  0  0  0  0  0  0  0  0  0  0  0
   57.7980   28.0850   42.9930 O   0  0  0  0  0  0  0  0  0  0  0  0
   57.2840   28.7520   45.5760 C   0  0  0  0  0  0  0  0  0  0  0  0
   56.1900   29.5540   44.9360 C   0  0  0  0  0  0  0  0  0  0  0  0
   55.1500   28.9940   44.4920 O   0  0  0  0  0  0  0  0  0  0  0  0
   56.3660   30.9650   44.7750 N   0  0  0  0  0  0  0  0  0  0  0  0
   57.5810   31.5710   44.2410 C   0  0  0  0  0  0  0  0  0  0  0  0
   58.1170   32.6120   45.1870 C   0  0  0  0  0  0  0  0  0  0  0  0
   57.8860   32.4950   46.5680 C   0  0  0  0  0  0  0  0  0  0  0  0
   58.3640   33.4730   47.4470 C   0  0  0  0  0  0  0  0  0  0  0  0
   59.0770   34.5690   46.9530 C   0  0  0  0  0  0  0  0  0  0  0  0
   59.3280   34.6810   45.5840 C   0  0  0  0  0  0  0  0  0  0  0  0
   58.8510   33.7070   44.7020 C   0  0  0  0  0  0  0  0  0  0  0  0
   60.2690   28.3290   47.1060 C   0  0  0  0  0  0  0  0  0  0  0  0
   59.8990   26.9300   47.4720 C   0  0  0  0  0  0  0  0  0  0  0  0
   60.6310   29.2510   47.9620 O   0  0  0  0  0  0  0  0  0  0  0  0
   60.7800   32.0370   49.1020 C   0  0  0  0  0  0  0  0  0  0  0  0
   59.1151   33.6999   53.4291 H   0  0  0  0  0  0  0  0  0  0  0  0
   59.0443   35.2563   52.5351 H   0  0  0  0  0  0  0  0  0  0  0  0
   57.6251   34.1552   52.5351 H   0  0  0  0  0  0  0  0  0  0  0  0
   61.2630   34.1560   51.6160 H   0  0  0  0  0  0  0  0  0  0  0  0
   62.3967   35.0363   49.4253 H   0  0  0  0  0  0  0  0  0  0  0  0
   63.3860   34.2790   47.2677 H   0  0  0  0  0  0  0  0  0  0  0  0
   62.7068   32.0989   46.2723 H   0  0  0  0  0  0  0  0  0  0  0  0
   60.2889   28.8779   43.7184 H   0  0  0  0  0  0  0  0  0  0  0  0
   60.5748   27.2718   44.5033 H   0  0  0  0  0  0  0  0  0  0  0  0
   56.8295   28.0482   46.2888 H   0  0  0  0  0  0  0  0  0  0  0  0
   57.9623   29.4631   46.0702 H   0  0  0  0  0  0  0  0  0  0  0  0
   58.3410   30.7890   44.0965 H   0  0  0  0  0  0  0  0  0  0  0  0
   57.3429   32.0541   43.2819 H   0  0  0  0  0  0  0  0  0  0  0  0
   57.3276   31.6318   46.9593 H   0  0  0  0  0  0  0  0  0  0  0  0
   58.1786   33.3793   48.5272 H   0  0  0  0  0  0  0  0  0  0  0  0
   59.4408   35.3442   47.6435 H   0  0  0  0  0  0  0  0  0  0  0  0
   59.9019   35.5368   45.1990 H   0  0  0  0  0  0  0  0  0  0  0  0
   59.0512   33.7984   43.6242 H   0  0  0  0  0  0  0  0  0  0  0  0
   59.8731   26.8322   48.5673 H   0  0  0  0  0  0  0  0  0  0  0  0
   58.9073   26.6931   47.0592 H   0  0  0  0  0  0  0  0  0  0  0  0
   60.6439   26.2338   47.0592 H   0  0  0  0  0  0  0  0  0  0  0  0
   60.0380   31.4080   49.6156 H   0  0  0  0  0  0  0  0  0  0  0  0
  1  2  1  0
  2  3  2  0
  2  4  1  0
  4  5  1  0
  5  6  2  0
  6  7  1  0
  7  8  2  0
  8  9  1  0
  9 10  1  0
 10 11  2  0
 11 12  1  0
 12 13  1  0
 13 14  1  0
 14 15  2  0
 14 16  2  0
 14 17  1  0
 17 18  1  0
 18 19  2  0
 18 20  1  0
 20 21  1  0
 21 22  1  0
 22 23  2  0
 23 24  1  0
 24 25  2  0
 25 26  1  0
 26 27  2  0
 12 28  2  0
 28 29  1  0
 28 30  1  0
  9 31  2  0
 31  5  1  0
 30 10  1  0
 27 22  1  0
  1 32  1  0
  1 33  1  0
  1 34  1  0
  4 35  1  0
  6 36  1  0
  7 37  1  0
  8 38  1  0
 13 39  1  0
 13 40  1  0
 17 41  1  0
 17 42  1  0
 21 43  1  0
 21 44  1  0
 23 45  1  0
 24 46  1  0
 25 47  1  0
 26 48  1  0
 27 49  1  0
 29 50  1  0
 29 51  1  0
 29 52  1  0
 31 53  1  0
M  CHG  1  20  -1
M  END
>  <UniqueID>  (39) 
33

>  <SMILES>  (39) 
CC(=O)Nc1cccc(-c2nc(CS(=O)(=O)CC(=O)[N-]Cc3ccccc3)c(C)o2)c1

>  <Energy>  (39) 
69.31585378285027

>  <Genealogy>  (39) 
CC(=O)Nc1cccc(-c2nc(CS(=O)(=O)CC(=O)[N-]Cc3ccccc3)c(C)o2)c1 (protonated)
CC(=O)Nc1cccc(-c2nc(CS(=O)(=O)CC(=O)[N-]Cc3ccccc3)c(C)o2)c1 (3D coordinates assigned)
CC(=O)Nc1cccc(-c2nc(CS(=O)(=O)CC(=O)[N-]Cc3ccccc3)c(C)o2)c1 (optimized conformer: 69.31585378285027 kcal/mol)

>  <smiles>  (39) 
CC(=O)Nc1cccc(-c2nc(CS(=O)(=O)CC(=O)NCc3ccccc3)c(C)o2)c1

>  <score_type>  (39) 
oracle

>  <origin>  (39) 
adg

>  <m_score__min__energy>  (39) 
-11.529999999999999

>  <m_primary>  (39) 
energy

$$$$
39:0
     RDKit          3D

 39 40  0  0  0  0  0  0  0  0999 V2000
   57.6497   28.7636   46.7760 H   0  0  0  0  0  0  0  0  0  0  0  0
   58.3810   29.2450   46.1100 C   0  0  0  0  0  0  0  0  0  0  0  0
   58.6260   30.5600   46.2770 C   0  0  0  0  0  0  0  0  0  0  0  0
   59.9170   30.9960   47.2500 S   0  0  0  0  0  0  0  0  0  0  0  0
   60.1390   32.6580   47.3750 C   0  0  0  0  0  0  0  0  0  0  0  0
   61.1300   33.1470   48.1700 C   0  0  0  0  0  0  0  0  0  0  0  0
   60.8250   34.2180   49.5710 S   0  0  0  0  0  0  0  0  0  0  0  0
   61.8350   33.0560   50.5390 C   0  0  0  0  0  0  0  0  0  0  0  0
   61.2108   32.2238   50.8965 H   0  0  0  0  0  0  0  0  0  0  0  0
   62.2715   33.5591   51.4144 H   0  0  0  0  0  0  0  0  0  0  0  0
   62.9360   32.5250   49.6190 C   0  0  0  0  0  0  0  0  0  0  0  0
   63.1969   31.4951   49.9042 H   0  0  0  0  0  0  0  0  0  0  0  0
   63.8384   33.1485   49.7022 H   0  0  0  0  0  0  0  0  0  0  0  0
   62.4270   32.5470   48.2500 N   0  0  0  0  0  0  0  0  0  0  0  0
   63.3660   32.5380   47.1210 C   0  0  0  0  0  0  0  0  0  0  0  0
   63.0775   31.7418   46.4190 H   0  0  0  0  0  0  0  0  0  0  0  0
   64.3799   32.3598   47.5086 H   0  0  0  0  0  0  0  0  0  0  0  0
   63.3520   33.8780   46.3900 C   0  0  0  0  0  0  0  0  0  0  0  0
   63.3434   34.6965   47.1249 H   0  0  0  0  0  0  0  0  0  0  0  0
   64.2493   33.9609   45.7592 H   0  0  0  0  0  0  0  0  0  0  0  0
   62.4531   33.9422   45.7592 H   0  0  0  0  0  0  0  0  0  0  0  0
   59.2260   33.4640   46.6500 C   0  0  0  0  0  0  0  0  0  0  0  0
   59.4210   34.7120   46.6320 O   0  0  0  0  0  0  0  0  0  0  0  0
   58.1540   32.9530   45.9250 N   0  0  0  0  0  0  0  0  0  0  0  0
   57.2590   33.9370   45.2710 C   0  0  0  0  0  0  0  0  0  0  0  0
   56.7297   34.5189   46.0399 H   0  0  0  0  0  0  0  0  0  0  0  0
   57.8560   34.6155   44.6439 H   0  0  0  0  0  0  0  0  0  0  0  0
   56.5271   33.4068   44.6439 H   0  0  0  0  0  0  0  0  0  0  0  0
   57.8950   31.6100   45.6820 C   0  0  0  0  0  0  0  0  0  0  0  0
   56.9730   31.3080   44.8720 O   0  0  0  0  0  0  0  0  0  0  0  0
   59.0220   28.4390   45.1110 N   0  0  0  0  0  0  0  0  0  0  0  0
   58.1980   27.9170   44.0240 C   0  0  0  0  0  0  0  0  0  0  0  0
   57.3391   27.3729   44.4437 H   0  0  0  0  0  0  0  0  0  0  0  0
   57.8365   28.7512   43.4048 H   0  0  0  0  0  0  0  0  0  0  0  0
   58.7978   27.2338   43.4048 H   0  0  0  0  0  0  0  0  0  0  0  0
   60.4470   28.6440   44.8580 C   0  0  0  0  0  0  0  0  0  0  0  0
   60.9821   28.7210   45.8160 H   0  0  0  0  0  0  0  0  0  0  0  0
   60.8435   27.7936   44.2838 H   0  0  0  0  0  0  0  0  0  0  0  0
   60.5877   29.5716   44.2838 H   0  0  0  0  0  0  0  0  0  0  0  0
  1  2  1  0
  2  3  2  3
  3  4  1  0
  4  5  1  0
  5  6  2  0
  6  7  1  0
  7  8  1  0
  8  9  1  0
  8 10  1  0
  8 11  1  0
 11 12  1  0
 11 13  1  0
 11 14  1  0
 14 15  1  0
 15 16  1  0
 15 17  1  0
 15 18  1  0
 18 19  1  0
 18 20  1  0
 18 21  1  0
  5 22  1  0
 22 23  2  0
 22 24  1  0
 24 25  1  0
 25 26  1  0
 25 27  1  0
 25 28  1  0
 24 29  1  0
 29 30  2  0
  2 31  1  0
 31 32  1  0
 32 33  1  0
 32 34  1  0
 32 35  1  0
 31 36  1  0
 36 37  1  0
 36 38  1  0
 36 39  1  0
 29  3  1  0
 14  6  1  0
M  END
>  <UniqueID>  (40) 
34

>  <SMILES>  (40) 
CCN1CCS/C1=c1/sc(=CN(C)C)c(=O)n(C)c1=O

>  <Energy>  (40) 
73.21298958102486

>  <Genealogy>  (40) 
CCN1CCS/C1=c1/sc(=CN(C)C)c(=O)n(C)c1=O (cis-trans isomerization)
CCN1CCS/C1=c1/sc(=CN(C)C)c(=O)n(C)c1=O (3D coordinates assigned)
CCN1CCS/C1=c1/sc(=CN(C)C)c(=O)n(C)c1=O (nonaromatic ring conformer: 73.21298958102486 kcal/mol)

>  <smiles>  (40) 
CCN1CCSC1=c1sc(=CN(C)C)c(=O)n(C)c1=O

>  <score_type>  (40) 
oracle

>  <origin>  (40) 
adg

>  <m_score__min__energy>  (40) 
-6.5899999999999999

>  <m_primary>  (40) 
energy

$$$$
40:0
     RDKit          3D

 37 39  0  0  0  0  0  0  0  0999 V2000
   57.6440   31.6180   42.0940 O   0  0  0  0  0  0  0  0  0  0  0  0
   57.7540   31.9570   43.3020 C   0  0  0  0  0  0  0  0  0  0  0  0
   58.3600   33.1290   43.6170 N   0  0  0  0  0  0  0  0  0  0  0  0
   58.4880   33.5160   44.9100 C   0  0  0  0  0  0  0  0  0  0  0  0
   59.2210   34.9280   45.2750 S   0  0  0  0  0  0  0  0  0  0  0  0
   58.0000   32.7270   45.8990 N   0  0  0  0  0  0  0  0  0  0  0  0
   57.4010   31.5700   45.6140 N   0  0  0  0  0  0  0  0  0  0  0  0
   57.2690   31.1360   44.3310 C   0  0  0  0  0  0  0  0  0  0  0  0
   56.5620   29.8680   44.0310 C   0  0  0  0  0  0  0  0  0  0  0  0
   56.1470   28.9770   44.9460 C   0  0  0  0  0  0  0  0  0  0  0  0
   56.8660   27.7390   45.3190 C   0  0  0  0  0  0  0  0  0  0  0  0
   58.2480   27.6180   45.1010 C   0  0  0  0  0  0  0  0  0  0  0  0
   58.9130   26.4320   45.4180 C   0  0  0  0  0  0  0  0  0  0  0  0
   58.2110   25.3380   45.9340 C   0  0  0  0  0  0  0  0  0  0  0  0
   58.9300   24.1690   46.2320 O   0  0  0  0  0  0  0  0  0  0  0  0
   59.3470   23.1910   45.2780 C   0  0  0  0  0  0  0  0  0  0  0  0
   58.2370   22.2130   44.9930 C   0  0  0  0  0  0  0  0  0  0  0  0
   57.6720   22.1450   43.7080 C   0  0  0  0  0  0  0  0  0  0  0  0
   56.6490   21.2320   43.4370 C   0  0  0  0  0  0  0  0  0  0  0  0
   56.1870   20.3770   44.4410 C   0  0  0  0  0  0  0  0  0  0  0  0
   55.1950   19.4920   44.1760 F   0  0  0  0  0  0  0  0  0  0  0  0
   56.7520   20.4300   45.7180 C   0  0  0  0  0  0  0  0  0  0  0  0
   57.7770   21.3420   45.9950 C   0  0  0  0  0  0  0  0  0  0  0  0
   56.8210   25.4480   46.1310 C   0  0  0  0  0  0  0  0  0  0  0  0
   56.1520   26.6350   45.8170 C   0  0  0  0  0  0  0  0  0  0  0  0
   54.7770   26.7150   46.0130 O   0  0  0  0  0  0  0  0  0  0  0  0
   56.3612   29.6386   42.9741 H   0  0  0  0  0  0  0  0  0  0  0  0
   55.1964   29.1842   45.4592 H   0  0  0  0  0  0  0  0  0  0  0  0
   58.8104   28.4633   44.6777 H   0  0  0  0  0  0  0  0  0  0  0  0
   59.9991   26.3574   45.2604 H   0  0  0  0  0  0  0  0  0  0  0  0
   59.6304   23.6971   44.3433 H   0  0  0  0  0  0  0  0  0  0  0  0
   60.2048   22.6397   45.6907 H   0  0  0  0  0  0  0  0  0  0  0  0
   58.0360   22.8124   42.9130 H   0  0  0  0  0  0  0  0  0  0  0  0
   56.2065   21.1864   42.4309 H   0  0  0  0  0  0  0  0  0  0  0  0
   56.3906   19.7539   46.5068 H   0  0  0  0  0  0  0  0  0  0  0  0
   58.2236   21.3769   46.9997 H   0  0  0  0  0  0  0  0  0  0  0  0
   56.2575   24.5940   46.5348 H   0  0  0  0  0  0  0  0  0  0  0  0
  1  2  2  0
  2  3  1  0
  3  4  1  0
  4  5  2  0
  4  6  1  0
  6  7  1  0
  7  8  2  0
  8  9  1  0
  9 10  2  3
 10 11  1  0
 11 12  2  0
 12 13  1  0
 13 14  2  0
 14 15  1  0
 15 16  1  0
 16 17  1  0
 17 18  2  0
 18 19  1  0
 19 20  2  0
 20 21  1  0
 20 22  1  0
 22 23  2  0
 14 24  1  0
 24 25  2  0
 25 26  1  0
  8  2  1  0
 25 11  1  0
 23 17  1  0
  9 27  1  0
 10 28  1  0
 12 29  1  0
 13 30  1  0
 16 31  1  0
 16 32  1  0
 18 33  1  0
 19 34  1  0
 22 35  1  0
 23 36  1  0
 24 37  1  0
M  CHG  3   3  -1   6  -1  26  -1
M  END
>  <UniqueID>  (41) 
35

>  <SMILES>  (41) 
O=c1[n-]c(=S)[n-]nc1C=Cc1ccc(OCc2ccc(F)cc2)cc1[O-]

>  <Energy>  (41) 
51.30764614898579

>  <Genealogy>  (41) 
O=c1[n-]c(=S)[n-]nc1C=Cc1ccc(OCc2ccc(F)cc2)cc1[O-] (protonated)
O=c1[n-]c(=S)[n-]nc1C=Cc1ccc(OCc2ccc(F)cc2)cc1[O-] (3D coordinates assigned)
O=c1[n-]c(=S)[n-]nc1C=Cc1ccc(OCc2ccc(F)cc2)cc1[O-] (optimized conformer: 51.30764614898579 kcal/mol)

>  <smiles>  (41) 
O=c1[nH]c(=S)[nH]nc1C=Cc1ccc(OCc2ccc(F)cc2)cc1O

>  <score_type>  (41) 
oracle

>  <origin>  (41) 
adg

>  <m_score__min__energy>  (41) 
-15.44

>  <m_primary>  (41) 
energy

$$$$
41:0
     RDKit          3D

 77 81  0  0  0  0  0  0  0  0999 V2000
   58.4050   34.5220   45.1340 C   0  0  0  0  0  0  0  0  0  0  0  0
   59.7760   34.1480   45.2310 O   0  0  0  0  0  0  0  0  0  0  0  0
   60.4870   34.0420   46.4370 C   0  0  0  0  0  0  0  0  0  0  0  0
   61.8660   33.8300   46.3760 C   0  0  0  0  0  0  0  0  0  0  0  0
   62.6150   33.7080   47.5460 C   0  0  0  0  0  0  0  0  0  0  0  0
   61.9980   33.7860   48.8010 C   0  0  0  0  0  0  0  0  0  0  0  0
   62.8080   33.6850   49.9820 N   0  0  0  0  0  0  0  0  0  0  0  0
   64.2100   33.3780   49.9510 C   0  0  0  0  0  0  0  0  0  0  0  0
   64.8470   33.4180   48.8620 O   0  0  0  0  0  0  0  0  0  0  0  0
   64.9210   32.9860   51.2120 C   0  0  0  0  0  0  0  0  0  0  0  0
   64.7950   31.5110   51.4710 C   0  0  0  0  0  0  0  0  0  0  0  0
   65.8700   30.6990   51.2780 N   0  0  0  0  0  0  0  0  0  0  0  0
   65.8210   29.3780   51.4930 N   0  0  0  0  0  0  0  0  0  0  0  0
   67.0260   28.5880   51.2370 C   0  0  0  0  0  0  0  0  0  0  0  0
   64.6660   28.7720   51.9230 C   0  0  0  0  0  0  0  0  0  0  0  0
   64.6420   27.5270   52.1180 O   0  0  0  0  0  0  0  0  0  0  0  0
   63.5200   29.5630   52.1430 C   0  0  0  0  0  0  0  0  0  0  0  0
   62.2230   29.1580   52.5600 C   0  0  0  0  0  0  0  0  0  0  0  0
   61.7720   27.7250   52.7290 C   0  0  0  0  0  0  0  0  0  0  0  0
   61.2750   27.2110   51.4180 C   0  0  0  0  0  0  0  0  0  0  0  0
   61.8270   26.2080   50.8880 O   0  0  0  0  0  0  0  0  0  0  0  0
   60.2410   27.9110   50.7180 N   0  0  0  0  0  0  0  0  0  0  0  0
   60.4870   28.6600   49.5220 C   0  0  0  0  0  0  0  0  0  0  0  0
   61.2760   29.8150   49.5800 C   0  0  0  0  0  0  0  0  0  0  0  0
   61.5080   30.5650   48.4240 C   0  0  0  0  0  0  0  0  0  0  0  0
   60.9690   30.1550   47.2000 C   0  0  0  0  0  0  0  0  0  0  0  0
   60.2080   28.9790   47.1250 C   0  0  0  0  0  0  0  0  0  0  0  0
   59.5330   28.4380   45.5890 S   0  0  0  0  0  0  0  0  0  0  0  0
   60.5360   28.6850   44.4980 O   0  0  0  0  0  0  0  0  0  0  0  0
   59.2620   26.9590   45.6590 O   0  0  0  0  0  0  0  0  0  0  0  0
   58.0610   29.3110   45.2380 N   0  0  0  0  0  0  0  0  0  0  0  0
   57.4090   28.7560   44.0360 C   0  0  0  0  0  0  0  0  0  0  0  0
   56.2790   29.6800   43.5430 C   0  0  0  0  0  0  0  0  0  0  0  0
   55.9650   30.6510   44.5170 O   0  0  0  0  0  0  0  0  0  0  0  0
   57.0720   31.5140   44.7000 C   0  0  0  0  0  0  0  0  0  0  0  0
   58.3610   30.7390   45.0520 C   0  0  0  0  0  0  0  0  0  0  0  0
   59.9770   28.2300   48.2850 C   0  0  0  0  0  0  0  0  0  0  0  0
   61.3340   30.2430   52.6400 C   0  0  0  0  0  0  0  0  0  0  0  0
   59.8790   30.1810   52.9800 C   0  0  0  0  0  0  0  0  0  0  0  0
   62.1320   31.6640   52.2130 S   0  0  0  0  0  0  0  0  0  0  0  0
   63.6120   30.9260   51.9150 C   0  0  0  0  0  0  0  0  0  0  0  0
   60.6120   34.0350   48.8810 C   0  0  0  0  0  0  0  0  0  0  0  0
   60.0200   34.2010   50.1460 O   0  0  0  0  0  0  0  0  0  0  0  0
   59.3130   33.1860   50.8500 C   0  0  0  0  0  0  0  0  0  0  0  0
   59.8620   34.1450   47.6930 C   0  0  0  0  0  0  0  0  0  0  0  0
   57.9839   34.6369   46.1437 H   0  0  0  0  0  0  0  0  0  0  0  0
   58.3225   35.4755   44.5917 H   0  0  0  0  0  0  0  0  0  0  0  0
   57.8498   33.7425   44.5917 H   0  0  0  0  0  0  0  0  0  0  0  0
   62.3649   33.7588   45.3982 H   0  0  0  0  0  0  0  0  0  0  0  0
   63.7016   33.5489   47.4826 H   0  0  0  0  0  0  0  0  0  0  0  0
   62.3610   33.9080   50.9040 H   0  0  0  0  0  0  0  0  0  0  0  0
   65.9862   33.2441   51.1184 H   0  0  0  0  0  0  0  0  0  0  0  0
   64.4631   33.5276   52.0528 H   0  0  0  0  0  0  0  0  0  0  0  0
   67.4796   28.2906   52.1940 H   0  0  0  0  0  0  0  0  0  0  0  0
   66.7596   27.6887   50.6623 H   0  0  0  0  0  0  0  0  0  0  0  0
   67.7445   29.1909   50.6623 H   0  0  0  0  0  0  0  0  0  0  0  0
   62.6185   27.1101   53.0687 H   0  0  0  0  0  0  0  0  0  0  0  0
   60.9658   27.6760   53.4758 H   0  0  0  0  0  0  0  0  0  0  0  0
   61.7142   30.1328   50.5376 H   0  0  0  0  0  0  0  0  0  0  0  0
   62.1160   31.4802   48.4766 H   0  0  0  0  0  0  0  0  0  0  0  0
   61.1422   30.7557   46.2949 H   0  0  0  0  0  0  0  0  0  0  0  0
   58.1585   28.6474   43.2382 H   0  0  0  0  0  0  0  0  0  0  0  0
   56.9747   27.7786   44.2932 H   0  0  0  0  0  0  0  0  0  0  0  0
   56.6028   30.1854   42.6212 H   0  0  0  0  0  0  0  0  0  0  0  0
   55.3836   29.0705   43.3513 H   0  0  0  0  0  0  0  0  0  0  0  0
   57.2397   32.0777   43.7704 H   0  0  0  0  0  0  0  0  0  0  0  0
   56.8417   32.1871   45.5390 H   0  0  0  0  0  0  0  0  0  0  0  0
   59.0885   30.8539   44.2350 H   0  0  0  0  0  0  0  0  0  0  0  0
   58.7783   31.1425   45.9863 H   0  0  0  0  0  0  0  0  0  0  0  0
   59.3930   27.2996   48.2279 H   0  0  0  0  0  0  0  0  0  0  0  0
   59.7578   30.1758   54.0733 H   0  0  0  0  0  0  0  0  0  0  0  0
   59.3662   31.0581   52.5584 H   0  0  0  0  0  0  0  0  0  0  0  0
   59.4427   29.2634   52.5584 H   0  0  0  0  0  0  0  0  0  0  0  0
   59.4241   33.3454   51.9327 H   0  0  0  0  0  0  0  0  0  0  0  0
   58.2473   33.2274   50.5807 H   0  0  0  0  0  0  0  0  0  0  0  0
   59.7212   32.2007   50.5807 H   0  0  0  0  0  0  0  0  0  0  0  0
   58.7763   34.3132   47.7484 H   0  0  0  0  0  0  0  0  0  0  0  0
  1  2  1  0
  2  3  1  0
  3  4  2  0
  4  5  1  0
  5  6  2  0
  6  7  1  0
  7  8  1  0
  8  9  2  0
  8 10  1  0
 10 11  1  0
 11 12  2  0
 12 13  1  0
 13 14  1  0
 13 15  1  0
 15 16  2  0
 15 17  1  0
 17 18  1  0
 18 19  1  0
 19 20  1  0
 20 21  2  0
 20 22  1  0
 22 23  1  0
 23 24  2  0
 24 25  1  0
 25 26  2  0
 26 27  1  0
 27 28  1  0
 28 29  2  0
 28 30  2  0
 28 31  1  0
 31 32  1  0
 32 33  1  0
 33 34  1  0
 34 35  1  0
 35 36  1  0
 27 37  2  0
 18 38  2  0
 38 39  1  0
 38 40  1  0
 40 41  1  0
  6 42  1  0
 42 43  1  0
 43 44  1  0
 42 45  2  0
 45  3  1  0
 41 11  1  0
 41 17  2  0
 37 23  1  0
 36 31  1  0
  1 46  1  0
  1 47  1  0
  1 48  1  0
  4 49  1  0
  5 50  1  0
  7 51  1  0
 10 52  1  0
 10 53  1  0
 14 54  1  0
 14 55  1  0
 14 56  1  0
 19 57  1  0
 19 58  1  0
 24 59  1  0
 25 60  1  0
 26 61  1  0
 32 62  1  0
 32 63  1  0
 33 64  1  0
 33 65  1  0
 35 66  1  0
 35 67  1  0
 36 68  1  0
 36 69  1  0
 37 70  1  0
 39 71  1  0
 39 72  1  0
 39 73  1  0
 44 74  1  0
 44 75  1  0
 44 76  1  0
 45 77  1  0
M  CHG  1  22  -1
M  END
>  <UniqueID>  (42) 
36

>  <SMILES>  (42) 
COc1ccc(NC(=O)Cc2nn(C)c(=O)c3c(CC(=O)[N-]c4cccc(S(=O)(=O)N5CCOCC5)c4)c(C)sc23)c(OC)c1

>  <Energy>  (42) 
126.53086244930738

>  <Genealogy>  (42) 
COc1ccc(NC(=O)Cc2nn(C)c(=O)c3c(CC(=O)[N-]c4cccc(S(=O)(=O)N5CCOCC5)c4)c(C)sc23)c(OC)c1 (protonated)
COc1ccc(NC(=O)Cc2nn(C)c(=O)c3c(CC(=O)[N-]c4cccc(S(=O)(=O)N5CCOCC5)c4)c(C)sc23)c(OC)c1 (3D coordinates assigned)
COc1ccc(NC(=O)Cc2nn(C)c(=O)c3c(CC(=O)[N-]c4cccc(S(=O)(=O)N5CCOCC5)c4)c(C)sc23)c(OC)c1 (nonaromatic ring conformer: 126.53086244930738 kcal/mol)

>  <smiles>  (42) 
COc1ccc(NC(=O)Cc2nn(C)c(=O)c3c(CC(=O)Nc4cccc(S(=O)(=O)N5CCOCC5)c4)c(C)sc23)c(OC)c1

>  <score_type>  (42) 
oracle

>  <origin>  (42) 
adg

>  <m_score__min__energy>  (42) 
-12.1

>  <m_primary>  (42) 
energy

$$$$
42:0
     RDKit          3D

 48 51  0  0  0  0  0  0  0  0999 V2000
   60.1929   35.6560   47.1316 H   0  0  0  0  0  0  0  0  0  0  0  0
   60.3710   34.5750   47.0330 C   0  0  0  0  0  0  0  0  0  0  0  0
   59.3310   33.8020   46.6760 C   0  0  0  0  0  0  0  0  0  0  0  0
   58.6680   32.9900   47.7160 C   0  0  0  0  0  0  0  0  0  0  0  0
   57.4190   33.0820   47.8760 O   0  0  0  0  0  0  0  0  0  0  0  0
   59.4420   32.0560   48.5550 C   0  0  0  0  0  0  0  0  0  0  0  0
   59.2380   32.0080   49.9450 C   0  0  0  0  0  0  0  0  0  0  0  0
   58.4810   32.6563   50.4106 H   0  0  0  0  0  0  0  0  0  0  0  0
   59.9940   31.1390   50.7380 C   0  0  0  0  0  0  0  0  0  0  0  0
   59.8392   31.1165   51.8268 H   0  0  0  0  0  0  0  0  0  0  0  0
   60.9500   30.2950   50.1500 C   0  0  0  0  0  0  0  0  0  0  0  0
   61.7510   29.3610   51.0080 C   0  0  0  0  0  0  0  0  0  0  0  0
   61.5606   29.5830   52.0684 H   0  0  0  0  0  0  0  0  0  0  0  0
   61.4581   28.3229   50.7924 H   0  0  0  0  0  0  0  0  0  0  0  0
   62.8216   29.4922   50.7924 H   0  0  0  0  0  0  0  0  0  0  0  0
   61.1230   30.3130   48.7560 C   0  0  0  0  0  0  0  0  0  0  0  0
   61.8507   29.6358   48.2851 H   0  0  0  0  0  0  0  0  0  0  0  0
   60.3740   31.1880   47.9660 C   0  0  0  0  0  0  0  0  0  0  0  0
   60.5156   31.1967   46.8752 H   0  0  0  0  0  0  0  0  0  0  0  0
   58.6650   33.7420   45.0280 S   0  0  0  0  0  0  0  0  0  0  0  0
   59.7170   34.2440   44.0780 O   0  0  0  0  0  0  0  0  0  0  0  0
   57.4600   34.6250   44.8710 O   0  0  0  0  0  0  0  0  0  0  0  0
   58.2250   32.0920   44.5920 C   0  0  0  0  0  0  0  0  0  0  0  0
   57.3870   31.8530   43.4930 C   0  0  0  0  0  0  0  0  0  0  0  0
   57.0263   32.6963   42.8857 H   0  0  0  0  0  0  0  0  0  0  0  0
   57.0080   30.5470   43.1660 C   0  0  0  0  0  0  0  0  0  0  0  0
   56.3463   30.3665   42.3061 H   0  0  0  0  0  0  0  0  0  0  0  0
   57.4680   29.4720   43.9290 C   0  0  0  0  0  0  0  0  0  0  0  0
   57.1680   28.4456   43.6710 H   0  0  0  0  0  0  0  0  0  0  0  0
   58.3100   29.7010   45.0210 C   0  0  0  0  0  0  0  0  0  0  0  0
   58.6735   28.8541   45.6216 H   0  0  0  0  0  0  0  0  0  0  0  0
   58.6910   31.0060   45.3510 C   0  0  0  0  0  0  0  0  0  0  0  0
   59.3579   31.1822   46.2079 H   0  0  0  0  0  0  0  0  0  0  0  0
   61.7280   34.0810   47.3010 C   0  0  0  0  0  0  0  0  0  0  0  0
   62.6130   33.5310   46.3800 C   0  0  0  0  0  0  0  0  0  0  0  0
   62.4472   33.4964   45.2931 H   0  0  0  0  0  0  0  0  0  0  0  0
   63.7080   33.0440   47.0110 N   0  0  0  0  0  0  0  0  0  0  0  0
   64.5260   32.5690   46.5670 H   0  0  0  0  0  0  0  0  0  0  0  0
   63.5030   33.2560   48.3220 C   0  0  0  0  0  0  0  0  0  0  0  0
   64.3440   32.9020   49.3790 C   0  0  0  0  0  0  0  0  0  0  0  0
   65.3108   32.4103   49.1956 H   0  0  0  0  0  0  0  0  0  0  0  0
   63.9140   33.1950   50.6870 C   0  0  0  0  0  0  0  0  0  0  0  0
   64.5536   32.9339   51.5430 H   0  0  0  0  0  0  0  0  0  0  0  0
   62.6670   33.8220   50.9090 C   0  0  0  0  0  0  0  0  0  0  0  0
   62.3423   34.0452   51.9360 H   0  0  0  0  0  0  0  0  0  0  0  0
   61.8370   34.1630   49.8220 C   0  0  0  0  0  0  0  0  0  0  0  0
   60.8601   34.6429   49.9810 H   0  0  0  0  0  0  0  0  0  0  0  0
   62.2970   33.8710   48.5370 C   0  0  0  0  0  0  0  0  0  0  0  0
  1  2  1  0
  2  3  2  0
  3  4  1  0
  4  5  2  0
  4  6  1  0
  6  7  2  0
  7  8  1  0
  7  9  1  0
  9 10  1  0
  9 11  2  0
 11 12  1  0
 12 13  1  0
 12 14  1  0
 12 15  1  0
 11 16  1  0
 16 17  1  0
 16 18  2  0
 18 19  1  0
  3 20  1  0
 20 21  2  0
 20 22  2  0
 20 23  1  0
 23 24  2  0
 24 25  1  0
 24 26  1  0
 26 27  1  0
 26 28  2  0
 28 29  1  0
 28 30  1  0
 30 31  1  0
 30 32  2  0
 32 33  1  0
  2 34  1  0
 34 35  2  0
 35 36  1  0
 35 37  1  0
 37 38  1  0
 37 39  1  0
 39 40  2  0
 40 41  1  0
 40 42  1  0
 42 43  1  0
 42 44  2  0
 44 45  1  0
 44 46  1  0
 46 47  1  0
 46 48  2  0
 18  6  1  0
 32 23  1  0
 48 34  1  0
 48 39  1  0
M  END
>  <UniqueID>  (43) 
37

>  <SMILES>  (43) 
Cc1ccc(C(=O)/C(=C/c2c[nH]c3ccccc23)S(=O)(=O)c2ccccc2)cc1

>  <Energy>  (43) 
100.31607461987764

>  <Genealogy>  (43) 
Cc1ccc(C(=O)/C(=C/c2c[nH]c3ccccc23)S(=O)(=O)c2ccccc2)cc1 (cis-trans isomerization)
Cc1ccc(C(=O)/C(=C/c2c[nH]c3ccccc23)S(=O)(=O)c2ccccc2)cc1 (3D coordinates assigned)
Cc1ccc(C(=O)/C(=C/c2c[nH]c3ccccc23)S(=O)(=O)c2ccccc2)cc1 (optimized conformer: 100.31607461987764 kcal/mol)

>  <smiles>  (43) 
Cc1ccc(C(=O)C(=Cc2c[nH]c3ccccc23)S(=O)(=O)c2ccccc2)cc1

>  <score_type>  (43) 
oracle

>  <origin>  (43) 
adg

>  <m_score__min__energy>  (43) 
-9.6099999999999994

>  <m_primary>  (43) 
energy

$$$$
43:0
     RDKit          3D

 45 48  0  0  0  0  0  0  0  0999 V2000
   58.4270   32.4880   43.8390 O   0  0  0  0  0  0  0  0  0  0  0  0
   57.5330   32.5860   44.7250 C   0  0  0  0  0  0  0  0  0  0  0  0
   57.5360   33.7610   45.6510 C   0  0  0  0  0  0  0  0  0  0  0  0
   58.7090   33.6990   46.5300 N   0  0  0  0  0  0  0  0  0  0  0  0
   58.5020   33.5900   47.8460 N   0  0  0  0  0  0  0  0  0  0  0  0
   59.5190   33.5610   48.7440 C   0  0  0  0  0  0  0  0  0  0  0  0
   59.2550   33.4530   49.9710 O   0  0  0  0  0  0  0  0  0  0  0  0
   60.8440   33.6520   48.2930 C   0  0  0  0  0  0  0  0  0  0  0  0
   61.9320   33.6240   49.1850 C   0  0  0  0  0  0  0  0  0  0  0  0
   63.2400   33.7190   48.7030 C   0  0  0  0  0  0  0  0  0  0  0  0
   63.4750   33.8440   47.3330 C   0  0  0  0  0  0  0  0  0  0  0  0
   62.4040   33.8750   46.4360 C   0  0  0  0  0  0  0  0  0  0  0  0
   61.0800   33.7780   46.9070 C   0  0  0  0  0  0  0  0  0  0  0  0
   59.9810   33.8030   46.0290 C   0  0  0  0  0  0  0  0  0  0  0  0
   60.1650   33.9230   44.7840 O   0  0  0  0  0  0  0  0  0  0  0  0
   56.4850   31.6100   44.8370 N   0  0  0  0  0  0  0  0  0  0  0  0
   56.6420   30.3210   44.8680 C   0  0  0  0  0  0  0  0  0  0  0  0
   55.6870   29.4420   45.2510 N   0  0  0  0  0  0  0  0  0  0  0  0
   56.1010   28.1780   45.2110 N   0  0  0  0  0  0  0  0  0  0  0  0
   57.3790   28.0470   44.7880 C   0  0  0  0  0  0  0  0  0  0  0  0
   58.0960   26.7390   44.7180 C   0  0  0  0  0  0  0  0  0  0  0  0
   58.0740   26.0780   46.0570 C   0  0  0  0  0  0  0  0  0  0  0  0
   57.2830   25.1200   46.2670 O   0  0  0  0  0  0  0  0  0  0  0  0
   58.9630   26.5350   47.0850 N   0  0  0  0  0  0  0  0  0  0  0  0
   59.3730   27.8920   47.3040 C   0  0  0  0  0  0  0  0  0  0  0  0
   60.3830   28.4280   46.4940 C   0  0  0  0  0  0  0  0  0  0  0  0
   60.7910   29.7560   46.6570 C   0  0  0  0  0  0  0  0  0  0  0  0
   60.1800   30.5630   47.6200 C   0  0  0  0  0  0  0  0  0  0  0  0
   59.1510   30.0500   48.4160 C   0  0  0  0  0  0  0  0  0  0  0  0
   58.5360   30.8720   49.3580 O   0  0  0  0  0  0  0  0  0  0  0  0
   58.7440   28.7160   48.2560 C   0  0  0  0  0  0  0  0  0  0  0  0
   58.0770   29.5480   44.4580 S   0  0  0  0  0  0  0  0  0  0  0  0
   57.5697   34.6896   45.0623 H   0  0  0  0  0  0  0  0  0  0  0  0
   56.6224   33.7428   46.2633 H   0  0  0  0  0  0  0  0  0  0  0  0
   61.7520   33.5270   50.2658 H   0  0  0  0  0  0  0  0  0  0  0  0
   64.0865   33.6952   49.4050 H   0  0  0  0  0  0  0  0  0  0  0  0
   64.5065   33.9184   46.9582 H   0  0  0  0  0  0  0  0  0  0  0  0
   62.5956   33.9756   45.3575 H   0  0  0  0  0  0  0  0  0  0  0  0
   57.5998   26.0895   43.9819 H   0  0  0  0  0  0  0  0  0  0  0  0
   59.1393   26.9123   44.4155 H   0  0  0  0  0  0  0  0  0  0  0  0
   60.8579   27.8006   45.7253 H   0  0  0  0  0  0  0  0  0  0  0  0
   61.5938   30.1654   46.0263 H   0  0  0  0  0  0  0  0  0  0  0  0
   60.5091   31.6042   47.7524 H   0  0  0  0  0  0  0  0  0  0  0  0
   58.2320   31.8110   49.1220 H   0  0  0  0  0  0  0  0  0  0  0  0
   57.9304   28.3132   48.8771 H   0  0  0  0  0  0  0  0  0  0  0  0
  1  2  2  0
  2  3  1  0
  3  4  1  0
  4  5  1  0
  5  6  1  0
  6  7  2  0
  6  8  1  0
  8  9  2  0
  9 10  1  0
 10 11  2  0
 11 12  1  0
 12 13  2  0
 13 14  1  0
 14 15  2  0
  2 16  1  0
 16 17  2  3
 17 18  1  0
 18 19  1  0
 19 20  2  0
 20 21  1  0
 21 22  1  0
 22 23  2  0
 22 24  1  0
 24 25  1  0
 25 26  2  0
 26 27  1  0
 27 28  2  0
 28 29  1  0
 29 30  1  0
 29 31  2  0
 20 32  1  0
 14  4  1  0
 32 17  1  0
 13  8  1  0
 31 25  1  0
  3 33  1  0
  3 34  1  0
  9 35  1  0
 10 36  1  0
 11 37  1  0
 12 38  1  0
 21 39  1  0
 21 40  1  0
 26 41  1  0
 27 42  1  0
 28 43  1  0
 30 44  1  0
 31 45  1  0
M  CHG  3   5  -1  18  -1  24  -1
M  END
>  <UniqueID>  (44) 
38

>  <SMILES>  (44) 
O=C(Cn1[n-]c(=O)c2ccccc2c1=O)N=c1[n-]nc(CC(=O)[N-]c2cccc(O)c2)s1

>  <Energy>  (44) 
92.03521479774416

>  <Genealogy>  (44) 
O=C(Cn1[n-]c(=O)c2ccccc2c1=O)N=c1[n-]nc(CC(=O)[N-]c2cccc(O)c2)s1 (protonated)
O=C(Cn1[n-]c(=O)c2ccccc2c1=O)N=c1[n-]nc(CC(=O)[N-]c2cccc(O)c2)s1 (3D coordinates assigned)
O=C(Cn1[n-]c(=O)c2ccccc2c1=O)N=c1[n-]nc(CC(=O)[N-]c2cccc(O)c2)s1 (optimized conformer: 92.03521479774416 kcal/mol)

>  <smiles>  (44) 
O=C(Cn1[nH]c(=O)c2ccccc2c1=O)N=c1[nH]nc(CC(=O)Nc2cccc(O)c2)s1

>  <score_type>  (44) 
oracle

>  <origin>  (44) 
adg

>  <m_score__min__energy>  (44) 
-13.949999999999999

>  <m_primary>  (44) 
energy

$$$$
44:0
     RDKit          3D

 42 44  0  0  0  0  0  0  0  0999 V2000
   57.2300   20.8350   45.7950 C   0  0  0  0  0  0  0  0  0  0  0  0
   56.1830   21.7770   45.5900 O   0  0  0  0  0  0  0  0  0  0  0  0
   56.3670   23.1670   45.5380 C   0  0  0  0  0  0  0  0  0  0  0  0
   57.6370   23.6570   45.2150 C   0  0  0  0  0  0  0  0  0  0  0  0
   57.8710   25.0340   45.1520 C   0  0  0  0  0  0  0  0  0  0  0  0
   56.8380   25.9420   45.4200 C   0  0  0  0  0  0  0  0  0  0  0  0
   57.1560   27.6770   45.3460 S   0  0  0  0  0  0  0  0  0  0  0  0
   57.9930   27.9650   44.1330 O   0  0  0  0  0  0  0  0  0  0  0  0
   55.8700   28.4490   45.2520 O   0  0  0  0  0  0  0  0  0  0  0  0
   58.0170   28.1990   46.7590 N   0  0  0  0  0  0  0  0  0  0  0  0
   58.4000   29.5520   47.0450 C   0  0  0  0  0  0  0  0  0  0  0  0
   58.9650   29.9200   48.2700 C   0  0  0  0  0  0  0  0  0  0  0  0
   59.3330   31.2410   48.5070 C   0  0  0  0  0  0  0  0  0  0  0  0
   59.1460   32.2430   47.5240 C   0  0  0  0  0  0  0  0  0  0  0  0
   58.5680   31.8760   46.2750 C   0  0  0  0  0  0  0  0  0  0  0  0
   58.2040   30.5220   46.0630 C   0  0  0  0  0  0  0  0  0  0  0  0
   58.3780   32.8350   45.3020 N   0  0  0  0  0  0  0  0  0  0  0  0
   57.7820   32.4780   43.9970 C   0  0  0  0  0  0  0  0  0  0  0  0
   58.7440   34.1330   45.5470 C   0  0  0  0  0  0  0  0  0  0  0  0
   58.5790   35.0270   44.6710 O   0  0  0  0  0  0  0  0  0  0  0  0
   59.3110   34.4920   46.7730 C   0  0  0  0  0  0  0  0  0  0  0  0
   59.6360   35.6980   46.9610 O   0  0  0  0  0  0  0  0  0  0  0  0
   59.5100   33.5530   47.7520 N   0  0  0  0  0  0  0  0  0  0  0  0
   60.1110   33.9560   49.0410 C   0  0  0  0  0  0  0  0  0  0  0  0
   55.5560   25.4550   45.7310 C   0  0  0  0  0  0  0  0  0  0  0  0
   54.5060   26.3320   45.9760 O   0  0  0  0  0  0  0  0  0  0  0  0
   55.3240   24.0770   45.7940 C   0  0  0  0  0  0  0  0  0  0  0  0
   57.3887   20.6922   46.8741 H   0  0  0  0  0  0  0  0  0  0  0  0
   56.9545   19.8747   45.3347 H   0  0  0  0  0  0  0  0  0  0  0  0
   58.1560   21.2100   45.3347 H   0  0  0  0  0  0  0  0  0  0  0  0
   58.4574   22.9538   45.0091 H   0  0  0  0  0  0  0  0  0  0  0  0
   58.8723   25.4069   44.8904 H   0  0  0  0  0  0  0  0  0  0  0  0
   59.1195   29.1609   49.0509 H   0  0  0  0  0  0  0  0  0  0  0  0
   59.7775   31.5119   49.4761 H   0  0  0  0  0  0  0  0  0  0  0  0
   57.7566   30.2302   45.1014 H   0  0  0  0  0  0  0  0  0  0  0  0
   56.8488   31.9190   44.1607 H   0  0  0  0  0  0  0  0  0  0  0  0
   57.5653   33.3952   43.4297 H   0  0  0  0  0  0  0  0  0  0  0  0
   58.4884   31.8542   43.4297 H   0  0  0  0  0  0  0  0  0  0  0  0
   59.5090   33.5523   49.8684 H   0  0  0  0  0  0  0  0  0  0  0  0
   61.1358   33.5618   49.1069 H   0  0  0  0  0  0  0  0  0  0  0  0
   60.1354   35.0538   49.1069 H   0  0  0  0  0  0  0  0  0  0  0  0
   54.3207   23.7023   46.0450 H   0  0  0  0  0  0  0  0  0  0  0  0
  1  2  1  0
  2  3  1  0
  3  4  2  0
  4  5  1  0
  5  6  2  0
  6  7  1  0
  7  8  2  0
  7  9  2  0
  7 10  1  0
 10 11  1  0
 11 12  2  0
 12 13  1  0
 13 14  2  0
 14 15  1  0
 15 16  2  0
 15 17  1  0
 17 18  1  0
 17 19  1  0
 19 20  2  0
 19 21  1  0
 21 22  2  0
 21 23  1  0
 23 24  1  0
  6 25  1  0
 25 26  1  0
 25 27  2  0
 27  3  1  0
 16 11  1  0
 23 14  1  0
  1 28  1  0
  1 29  1  0
  1 30  1  0
  4 31  1  0
  5 32  1  0
 12 33  1  0
 13 34  1  0
 16 35  1  0
 18 36  1  0
 18 37  1  0
 18 38  1  0
 24 39  1  0
 24 40  1  0
 24 41  1  0
 27 42  1  0
M  CHG  2  10  -1  26  -1
M  END
>  <UniqueID>  (45) 
39

>  <SMILES>  (45) 
COc1ccc(S(=O)(=O)[N-]c2ccc3c(c2)n(C)c(=O)c(=O)n3C)c([O-])c1

>  <Energy>  (45) 
65.42407947752157

>  <Genealogy>  (45) 
COc1ccc(S(=O)(=O)[N-]c2ccc3c(c2)n(C)c(=O)c(=O)n3C)c([O-])c1 (protonated)
COc1ccc(S(=O)(=O)[N-]c2ccc3c(c2)n(C)c(=O)c(=O)n3C)c([O-])c1 (3D coordinates assigned)
COc1ccc(S(=O)(=O)[N-]c2ccc3c(c2)n(C)c(=O)c(=O)n3C)c([O-])c1 (optimized conformer: 65.42407947752157 kcal/mol)

>  <smiles>  (45) 
COc1ccc(S(=O)(=O)Nc2ccc3c(c2)n(C)c(=O)c(=O)n3C)c(O)c1

>  <score_type>  (45) 
oracle

>  <origin>  (45) 
adg

>  <m_score__min__energy>  (45) 
-12.869999999999999

>  <m_primary>  (45) 
energy

$$$$
45:0
     RDKit          3D

 69 73  0  0  0  0  0  0  0  0999 V2000
   57.4120   25.6360   43.7190 C   0  0  0  0  0  0  0  0  0  0  0  0
   57.9620   26.7080   44.6230 C   0  0  0  0  0  0  0  0  0  0  0  0
   58.9510   27.5750   44.1340 C   0  0  0  0  0  0  0  0  0  0  0  0
   59.4710   28.5900   44.9380 C   0  0  0  0  0  0  0  0  0  0  0  0
   59.0140   28.7640   46.2540 C   0  0  0  0  0  0  0  0  0  0  0  0
   59.5620   29.8320   47.1290 C   0  0  0  0  0  0  0  0  0  0  0  0
   59.4070   29.8470   48.4700 N   0  0  0  0  0  0  0  0  0  0  0  0
   60.0350   30.9280   48.9040 N   0  0  0  0  0  0  0  0  0  0  0  0
   60.1250   31.2950   50.3170 C   0  0  0  0  0  0  0  0  0  0  0  0
   59.6310   30.1770   51.1990 C   0  0  0  0  0  0  0  0  0  0  0  0
   60.1710   29.0410   51.1010 O   0  0  0  0  0  0  0  0  0  0  0  0
   58.5060   30.3640   52.0890 N   0  0  0  0  0  0  0  0  0  0  0  0
   57.7050   31.6000   52.0240 C   0  0  0  0  0  0  0  0  0  0  0  0
   56.4640   31.5230   52.9200 C   0  0  0  0  0  0  0  0  0  0  0  0
   55.8270   30.2080   52.7690 N   0  0  0  0  0  0  0  0  0  0  0  0
   54.4410   30.0960   52.3890 C   0  0  0  0  0  0  0  0  0  0  0  0
   53.6090   29.1420   53.0020 C   0  0  0  0  0  0  0  0  0  0  0  0
   52.2650   29.0300   52.6310 C   0  0  0  0  0  0  0  0  0  0  0  0
   51.7400   29.8610   51.6400 C   0  0  0  0  0  0  0  0  0  0  0  0
   52.5600   30.8030   51.0110 C   0  0  0  0  0  0  0  0  0  0  0  0
   53.9050   30.9220   51.3820 C   0  0  0  0  0  0  0  0  0  0  0  0
   56.6380   28.9890   52.9250 C   0  0  0  0  0  0  0  0  0  0  0  0
   58.1320   29.3170   53.0540 C   0  0  0  0  0  0  0  0  0  0  0  0
   60.5890   31.5480   47.8400 C   0  0  0  0  0  0  0  0  0  0  0  0
   61.4030   32.8120   47.8900 C   0  0  0  0  0  0  0  0  0  0  0  0
   60.3750   34.2620   48.3210 S   0  0  0  0  0  0  0  0  0  0  0  0
   59.2250   34.0620   46.9550 C   0  0  0  0  0  0  0  0  0  0  0  0
   59.6210   34.3950   45.6530 C   0  0  0  0  0  0  0  0  0  0  0  0
   58.7310   34.2330   44.5880 C   0  0  0  0  0  0  0  0  0  0  0  0
   57.4490   33.7250   44.8210 C   0  0  0  0  0  0  0  0  0  0  0  0
   57.0560   33.3790   46.1160 C   0  0  0  0  0  0  0  0  0  0  0  0
   57.9420   33.5470   47.1840 C   0  0  0  0  0  0  0  0  0  0  0  0
   60.2860   30.8920   46.7040 N   0  0  0  0  0  0  0  0  0  0  0  0
   58.0200   27.9010   46.7450 C   0  0  0  0  0  0  0  0  0  0  0  0
   57.4780   26.8830   45.9420 C   0  0  0  0  0  0  0  0  0  0  0  0
   56.4280   25.9710   46.5310 C   0  0  0  0  0  0  0  0  0  0  0  0
   55.1470   26.4610   46.2520 O   0  0  0  0  0  0  0  0  0  0  0  0
   56.9940   24.8213   44.3285 H   0  0  0  0  0  0  0  0  0  0  0  0
   56.6211   26.0619   43.0842 H   0  0  0  0  0  0  0  0  0  0  0  0
   58.2193   25.2419   43.0842 H   0  0  0  0  0  0  0  0  0  0  0  0
   59.3206   27.4531   43.1051 H   0  0  0  0  0  0  0  0  0  0  0  0
   60.2460   29.2598   44.5371 H   0  0  0  0  0  0  0  0  0  0  0  0
   61.1742   31.5125   50.5659 H   0  0  0  0  0  0  0  0  0  0  0  0
   59.4960   32.1808   50.4893 H   0  0  0  0  0  0  0  0  0  0  0  0
   58.3281   32.4455   52.3510 H   0  0  0  0  0  0  0  0  0  0  0  0
   57.3685   31.7346   50.9854 H   0  0  0  0  0  0  0  0  0  0  0  0
   56.7607   31.6675   53.9693 H   0  0  0  0  0  0  0  0  0  0  0  0
   55.7526   32.3090   52.6265 H   0  0  0  0  0  0  0  0  0  0  0  0
   54.0181   28.4792   53.7787 H   0  0  0  0  0  0  0  0  0  0  0  0
   51.6205   28.2855   53.1212 H   0  0  0  0  0  0  0  0  0  0  0  0
   50.6814   29.7749   51.3538 H   0  0  0  0  0  0  0  0  0  0  0  0
   52.1479   31.4514   50.2237 H   0  0  0  0  0  0  0  0  0  0  0  0
   54.5462   31.6644   50.8844 H   0  0  0  0  0  0  0  0  0  0  0  0
   56.3103   28.4555   53.8294 H   0  0  0  0  0  0  0  0  0  0  0  0
   56.4986   28.3660   52.0292 H   0  0  0  0  0  0  0  0  0  0  0  0
   58.3397   29.6718   54.0743 H   0  0  0  0  0  0  0  0  0  0  0  0
   58.7187   28.4100   52.8461 H   0  0  0  0  0  0  0  0  0  0  0  0
   62.1930   32.6975   48.6468 H   0  0  0  0  0  0  0  0  0  0  0  0
   61.8343   32.9818   46.8924 H   0  0  0  0  0  0  0  0  0  0  0  0
   60.6332   34.7843   45.4690 H   0  0  0  0  0  0  0  0  0  0  0  0
   59.0384   34.5048   43.5674 H   0  0  0  0  0  0  0  0  0  0  0  0
   56.7485   33.5976   43.9825 H   0  0  0  0  0  0  0  0  0  0  0  0
   56.0490   32.9742   46.2954 H   0  0  0  0  0  0  0  0  0  0  0  0
   57.6322   33.2750   48.2038 H   0  0  0  0  0  0  0  0  0  0  0  0
   60.5710   31.1480   45.7310 H   0  0  0  0  0  0  0  0  0  0  0  0
   57.6594   28.0244   47.7769 H   0  0  0  0  0  0  0  0  0  0  0  0
   56.5348   24.9663   46.0962 H   0  0  0  0  0  0  0  0  0  0  0  0
   56.5642   25.9261   47.6216 H   0  0  0  0  0  0  0  0  0  0  0  0
   54.7500   26.7300   47.1240 H   0  0  0  0  0  0  0  0  0  0  0  0
  1  2  1  0
  2  3  2  0
  3  4  1  0
  4  5  2  0
  5  6  1  0
  6  7  2  0
  7  8  1  0
  8  9  1  0
  9 10  1  0
 10 11  2  0
 10 12  1  0
 12 13  1  0
 13 14  1  0
 14 15  1  0
 15 16  1  0
 16 17  2  0
 17 18  1  0
 18 19  2  0
 19 20  1  0
 20 21  2  0
 15 22  1  0
 22 23  1  0
  8 24  1  0
 24 25  1  0
 25 26  1  0
 26 27  1  0
 27 28  2  0
 28 29  1  0
 29 30  2  0
 30 31  1  0
 31 32  2  0
 24 33  2  0
  5 34  1  0
 34 35  2  0
 35 36  1  0
 36 37  1  0
 35  2  1  0
 33  6  1  0
 23 12  1  0
 32 27  1  0
 21 16  1  0
  1 38  1  0
  1 39  1  0
  1 40  1  0
  3 41  1  0
  4 42  1  0
  9 43  1  0
  9 44  1  0
 13 45  1  0
 13 46  1  0
 14 47  1  0
 14 48  1  0
 17 49  1  0
 18 50  1  0
 19 51  1  0
 20 52  1  0
 21 53  1  0
 22 54  1  0
 22 55  1  0
 23 56  1  0
 23 57  1  0
 25 58  1  0
 25 59  1  0
 28 60  1  0
 29 61  1  0
 30 62  1  0
 31 63  1  0
 32 64  1  0
 33 65  1  0
 34 66  1  0
 36 67  1  0
 36 68  1  0
 37 69  1  0
M  CHG  1  33   1
M  END
>  <UniqueID>  (46) 
40

>  <SMILES>  (46) 
Cc1ccc(-c2nn(CC(=O)N3CCN(c4ccccc4)CC3)c(CSc3ccccc3)[nH+]2)cc1CO

>  <Energy>  (46) 
107.41909194872953

>  <Genealogy>  (46) 
Cc1ccc(-c2nn(CC(=O)N3CCN(c4ccccc4)CC3)c(CSc3ccccc3)[nH+]2)cc1CO (protonated)
Cc1ccc(-c2nn(CC(=O)N3CCN(c4ccccc4)CC3)c(CSc3ccccc3)[nH+]2)cc1CO (3D coordinates assigned)
Cc1ccc(-c2nn(CC(=O)N3CCN(c4ccccc4)CC3)c(CSc3ccccc3)[nH+]2)cc1CO (nonaromatic ring conformer: 107.41909194872953 kcal/mol)

>  <smiles>  (46) 
Cc1ccc(-c2nc(CSc3ccccc3)n(CC(=O)N3CCN(c4ccccc4)CC3)n2)cc1CO

>  <score_type>  (46) 
oracle

>  <origin>  (46) 
adg

>  <m_score__min__energy>  (46) 
-9.3800000000000008

>  <m_primary>  (46) 
energy

$$$$
46:0
     RDKit          3D

 54 56  0  0  0  0  0  0  0  0999 V2000
   58.1200   23.4960   45.0860 C   0  0  0  0  0  0  0  0  0  0  0  0
   58.6120   24.2760   46.1700 O   0  0  0  0  0  0  0  0  0  0  0  0
   58.4330   25.6640   46.2920 C   0  0  0  0  0  0  0  0  0  0  0  0
   59.3490   26.4860   46.9780 C   0  0  0  0  0  0  0  0  0  0  0  0
   59.1160   27.8610   47.0830 C   0  0  0  0  0  0  0  0  0  0  0  0
   57.9800   28.4280   46.4990 C   0  0  0  0  0  0  0  0  0  0  0  0
   57.0750   27.6280   45.7890 C   0  0  0  0  0  0  0  0  0  0  0  0
   55.9010   28.2370   45.2300 N   0  0  0  0  0  0  0  0  0  0  0  0
   55.8690   29.3430   44.3190 C   0  0  0  0  0  0  0  0  0  0  0  0
   55.1460   30.3400   44.5980 O   0  0  0  0  0  0  0  0  0  0  0  0
   56.7120   29.3770   43.0730 C   0  0  0  0  0  0  0  0  0  0  0  0
   57.5770   30.5620   43.0830 N   0  0  0  0  0  0  0  0  0  0  0  0
   57.3650   31.6200   42.0910 C   0  0  0  0  0  0  0  0  0  0  0  0
   58.5110   30.7680   44.1590 C   0  0  0  0  0  0  0  0  0  0  0  0
   59.4270   29.9220   44.3550 O   0  0  0  0  0  0  0  0  0  0  0  0
   58.4200   31.9510   45.0440 C   0  0  0  0  0  0  0  0  0  0  0  0
   57.6470   33.0640   44.6720 C   0  0  0  0  0  0  0  0  0  0  0  0
   57.5760   34.1840   45.5050 C   0  0  0  0  0  0  0  0  0  0  0  0
   58.2810   34.2090   46.7090 C   0  0  0  0  0  0  0  0  0  0  0  0
   59.0650   33.1100   47.0910 C   0  0  0  0  0  0  0  0  0  0  0  0
   59.9750   33.1510   48.6060 S   0  0  0  0  0  0  0  0  0  0  0  0
   59.5410   34.3480   49.4060 O   0  0  0  0  0  0  0  0  0  0  0  0
   59.6500   31.9180   49.4030 O   0  0  0  0  0  0  0  0  0  0  0  0
   61.7030   33.2300   48.3560 N   0  0  0  0  0  0  0  0  0  0  0  0
   62.0470   33.8210   47.0640 C   0  0  0  0  0  0  0  0  0  0  0  0
   63.4200   33.2780   46.6970 C   0  0  0  0  0  0  0  0  0  0  0  0
   63.5940   32.0190   47.5360 C   0  0  0  0  0  0  0  0  0  0  0  0
   62.3230   31.9060   48.3650 C   0  0  0  0  0  0  0  0  0  0  0  0
   59.1430   31.9900   46.2470 C   0  0  0  0  0  0  0  0  0  0  0  0
   57.2960   26.2420   45.7100 C   0  0  0  0  0  0  0  0  0  0  0  0
   57.5718   22.6269   45.4787 H   0  0  0  0  0  0  0  0  0  0  0  0
   57.4443   24.1083   44.4707 H   0  0  0  0  0  0  0  0  0  0  0  0
   58.9636   23.1499   44.4707 H   0  0  0  0  0  0  0  0  0  0  0  0
   60.2490   26.0454   47.4318 H   0  0  0  0  0  0  0  0  0  0  0  0
   59.8290   28.4981   47.6269 H   0  0  0  0  0  0  0  0  0  0  0  0
   57.7954   29.5079   46.5972 H   0  0  0  0  0  0  0  0  0  0  0  0
   57.3353   28.4717   43.0304 H   0  0  0  0  0  0  0  0  0  0  0  0
   56.0532   29.4189   42.1931 H   0  0  0  0  0  0  0  0  0  0  0  0
   57.1741   32.5729   42.6063 H   0  0  0  0  0  0  0  0  0  0  0  0
   58.2616   31.7170   41.4611 H   0  0  0  0  0  0  0  0  0  0  0  0
   56.5003   31.3641   41.4611 H   0  0  0  0  0  0  0  0  0  0  0  0
   57.0951   33.0537   43.7205 H   0  0  0  0  0  0  0  0  0  0  0  0
   56.9626   35.0483   45.2107 H   0  0  0  0  0  0  0  0  0  0  0  0
   58.2219   35.0932   47.3607 H   0  0  0  0  0  0  0  0  0  0  0  0
   61.3071   33.5308   46.3035 H   0  0  0  0  0  0  0  0  0  0  0  0
   62.0529   34.9197   47.1162 H   0  0  0  0  0  0  0  0  0  0  0  0
   63.4640   33.0353   45.6250 H   0  0  0  0  0  0  0  0  0  0  0  0
   64.2157   34.0123   46.8910 H   0  0  0  0  0  0  0  0  0  0  0  0
   63.7102   31.1378   46.8879 H   0  0  0  0  0  0  0  0  0  0  0  0
   64.4919   32.0707   48.1694 H   0  0  0  0  0  0  0  0  0  0  0  0
   61.6432   31.1649   47.9194 H   0  0  0  0  0  0  0  0  0  0  0  0
   62.5450   31.5775   49.3911 H   0  0  0  0  0  0  0  0  0  0  0  0
   59.7758   31.1362   46.5309 H   0  0  0  0  0  0  0  0  0  0  0  0
   56.5691   25.6041   45.1859 H   0  0  0  0  0  0  0  0  0  0  0  0
  1  2  1  0
  2  3  1  0
  3  4  2  0
  4  5  1  0
  5  6  2  0
  6  7  1  0
  7  8  1  0
  8  9  1  0
  9 10  2  0
  9 11  1  0
 11 12  1  0
 12 13  1  0
 12 14  1  0
 14 15  2  0
 14 16  1  0
 16 17  2  0
 17 18  1  0
 18 19  2  0
 19 20  1  0
 20 21  1  0
 21 22  2  0
 21 23  2  0
 21 24  1  0
 24 25  1  0
 25 26  1  0
 26 27  1  0
 27 28  1  0
 20 29  2  0
  7 30  2  0
 30  3  1  0
 29 16  1  0
 28 24  1  0
  1 31  1  0
  1 32  1  0
  1 33  1  0
  4 34  1  0
  5 35  1  0
  6 36  1  0
 11 37  1  0
 11 38  1  0
 13 39  1  0
 13 40  1  0
 13 41  1  0
 17 42  1  0
 18 43  1  0
 19 44  1  0
 25 45  1  0
 25 46  1  0
 26 47  1  0
 26 48  1  0
 27 49  1  0
 27 50  1  0
 28 51  1  0
 28 52  1  0
 29 53  1  0
 30 54  1  0
M  CHG  1   8  -1
M  END
>  <UniqueID>  (47) 
41

>  <SMILES>  (47) 
COc1cccc([N-]C(=O)CN(C)C(=O)c2cccc(S(=O)(=O)N3CCCC3)c2)c1

>  <Energy>  (47) 
63.47626743521142

>  <Genealogy>  (47) 
COc1cccc([N-]C(=O)CN(C)C(=O)c2cccc(S(=O)(=O)N3CCCC3)c2)c1 (protonated)
COc1cccc([N-]C(=O)CN(C)C(=O)c2cccc(S(=O)(=O)N3CCCC3)c2)c1 (3D coordinates assigned)
COc1cccc([N-]C(=O)CN(C)C(=O)c2cccc(S(=O)(=O)N3CCCC3)c2)c1 (nonaromatic ring conformer: 63.47626743521142 kcal/mol)

>  <smiles>  (47) 
COc1cccc(NC(=O)CN(C)C(=O)c2cccc(S(=O)(=O)N3CCCC3)c2)c1

>  <score_type>  (47) 
oracle

>  <origin>  (47) 
adg

>  <m_score__min__energy>  (47) 
-11.91

>  <m_primary>  (47) 
energy

$$$$
47:0
     RDKit          3D

 46 48  0  0  0  0  0  0  0  0999 V2000
   58.0750   32.7140   43.0080 C   0  0  0  0  0  0  0  0  0  0  0  0
   58.3250   33.1070   44.2600 C   0  0  0  0  0  0  0  0  0  0  0  0
   58.9630   34.3680   44.4670 N   0  0  0  0  0  0  0  0  0  0  0  0
   59.2460   34.8650   45.7750 C   0  0  0  0  0  0  0  0  0  0  0  0
   59.7770   36.0010   45.8980 O   0  0  0  0  0  0  0  0  0  0  0  0
   58.9360   34.0730   46.9370 N   0  0  0  0  0  0  0  0  0  0  0  0
   59.2900   34.5640   48.2730 C   0  0  0  0  0  0  0  0  0  0  0  0
   58.4340   32.7330   46.7660 C   0  0  0  0  0  0  0  0  0  0  0  0
   58.4770   31.9240   47.7330 O   0  0  0  0  0  0  0  0  0  0  0  0
   57.9450   32.2850   45.4350 C   0  0  0  0  0  0  0  0  0  0  0  0
   57.2410   31.1990   45.2550 N   0  0  0  0  0  0  0  0  0  0  0  0
   57.7130   29.8750   44.9630 C   0  0  0  0  0  0  0  0  0  0  0  0
   57.3750   29.2860   43.7400 C   0  0  0  0  0  0  0  0  0  0  0  0
   57.7660   27.9750   43.4580 C   0  0  0  0  0  0  0  0  0  0  0  0
   58.4690   27.2320   44.4100 C   0  0  0  0  0  0  0  0  0  0  0  0
   58.7680   27.7910   45.6630 C   0  0  0  0  0  0  0  0  0  0  0  0
   59.4960   27.0130   46.6840 C   0  0  0  0  0  0  0  0  0  0  0  0
   60.6810   27.3320   46.9680 O   0  0  0  0  0  0  0  0  0  0  0  0
   58.8830   25.9330   47.3980 N   0  0  0  0  0  0  0  0  0  0  0  0
   57.4980   25.5060   47.2240 C   0  0  0  0  0  0  0  0  0  0  0  0
   57.2940   24.9260   45.8240 C   0  0  0  0  0  0  0  0  0  0  0  0
   55.9570   24.2340   45.7030 C   0  0  0  0  0  0  0  0  0  0  0  0
   55.9100   22.8400   45.5270 C   0  0  0  0  0  0  0  0  0  0  0  0
   54.6840   22.1860   45.3740 C   0  0  0  0  0  0  0  0  0  0  0  0
   53.4930   22.9170   45.3990 C   0  0  0  0  0  0  0  0  0  0  0  0
   52.2740   22.2660   45.2550 O   0  0  0  0  0  0  0  0  0  0  0  0
   53.5280   24.3040   45.5690 C   0  0  0  0  0  0  0  0  0  0  0  0
   54.7520   24.9660   45.7160 C   0  0  0  0  0  0  0  0  0  0  0  0
   54.7610   26.3490   45.8750 O   0  0  0  0  0  0  0  0  0  0  0  0
   58.3910   29.1160   45.9320 C   0  0  0  0  0  0  0  0  0  0  0  0
   57.5846   31.7470   42.8226 H   0  0  0  0  0  0  0  0  0  0  0  0
   58.3595   33.3574   42.1624 H   0  0  0  0  0  0  0  0  0  0  0  0
   58.8260   33.9205   49.0350 H   0  0  0  0  0  0  0  0  0  0  0  0
   60.3833   34.5446   48.3930 H   0  0  0  0  0  0  0  0  0  0  0  0
   58.9262   35.5951   48.3930 H   0  0  0  0  0  0  0  0  0  0  0  0
   56.7990   29.8576   42.9974 H   0  0  0  0  0  0  0  0  0  0  0  0
   57.5199   27.5264   42.4842 H   0  0  0  0  0  0  0  0  0  0  0  0
   58.7893   26.2058   44.1771 H   0  0  0  0  0  0  0  0  0  0  0  0
   57.2581   24.7376   47.9737 H   0  0  0  0  0  0  0  0  0  0  0  0
   56.8365   26.3756   47.3512 H   0  0  0  0  0  0  0  0  0  0  0  0
   57.3423   25.7421   45.0881 H   0  0  0  0  0  0  0  0  0  0  0  0
   58.0852   24.1848   45.6379 H   0  0  0  0  0  0  0  0  0  0  0  0
   56.8444   22.2599   45.5096 H   0  0  0  0  0  0  0  0  0  0  0  0
   54.6566   21.0953   45.2338 H   0  0  0  0  0  0  0  0  0  0  0  0
   52.5895   24.8774   45.5873 H   0  0  0  0  0  0  0  0  0  0  0  0
   58.6280   29.5635   46.9085 H   0  0  0  0  0  0  0  0  0  0  0  0
  1  2  2  0
  2  3  1  0
  3  4  1  0
  4  5  2  0
  4  6  1  0
  6  7  1  0
  6  8  1  0
  8  9  2  0
  8 10  1  0
 10 11  2  3
 11 12  1  0
 12 13  2  0
 13 14  1  0
 14 15  2  0
 15 16  1  0
 16 17  1  0
 17 18  2  0
 17 19  1  0
 19 20  1  0
 20 21  1  0
 21 22  1  0
 22 23  2  0
 23 24  1  0
 24 25  2  0
 25 26  1  0
 25 27  1  0
 27 28  2  0
 28 29  1  0
 16 30  2  0
 10  2  1  0
 30 12  1  0
 28 22  1  0
  1 31  1  0
  1 32  1  0
  7 33  1  0
  7 34  1  0
  7 35  1  0
 13 36  1  0
 14 37  1  0
 15 38  1  0
 20 39  1  0
 20 40  1  0
 21 41  1  0
 21 42  1  0
 23 43  1  0
 24 44  1  0
 27 45  1  0
 30 46  1  0
M  CHG  4   3  -1  19  -1  26  -1  29  -1
M  END
>  <UniqueID>  (48) 
42

>  <SMILES>  (48) 
C=C1[N-]C(=O)N(C)C(=O)C1=Nc1cccc(C(=O)[N-]CCc2ccc([O-])cc2[O-])c1

>  <Energy>  (48) 
59.2490562739288

>  <Genealogy>  (48) 
C=C1[N-]C(=O)N(C)C(=O)C1=Nc1cccc(C(=O)[N-]CCc2ccc([O-])cc2[O-])c1 (protonated)
C=C1[N-]C(=O)N(C)C(=O)C1=Nc1cccc(C(=O)[N-]CCc2ccc([O-])cc2[O-])c1 (3D coordinates assigned)
C=C1[N-]C(=O)N(C)C(=O)C1=Nc1cccc(C(=O)[N-]CCc2ccc([O-])cc2[O-])c1 (nonaromatic ring conformer: 59.2490562739288 kcal/mol)

>  <smiles>  (48) 
C=C1NC(=O)N(C)C(=O)C1=Nc1cccc(C(=O)NCCc2ccc(O)cc2O)c1

>  <score_type>  (48) 
oracle

>  <origin>  (48) 
adg

>  <m_score__min__energy>  (48) 
-17.390000000000001

>  <m_primary>  (48) 
energy

$$$$
48:0
     RDKit          3D

 61 64  0  0  0  0  0  0  0  0999 V2000
   56.2650   30.6740   44.8590 O   0  0  0  0  0  0  0  0  0  0  0  0
   57.3890   31.2040   45.0680 C   0  0  0  0  0  0  0  0  0  0  0  0
   57.4820   32.6860   45.2340 C   0  0  0  0  0  0  0  0  0  0  0  0
   58.8100   33.0200   45.7330 N   0  0  0  0  0  0  0  0  0  0  0  0
   59.0760   33.3140   47.1100 C   0  0  0  0  0  0  0  0  0  0  0  0
   58.1180   33.3710   47.9300 O   0  0  0  0  0  0  0  0  0  0  0  0
   60.4710   33.4340   47.5980 C   0  0  0  0  0  0  0  0  0  0  0  0
   61.5180   33.1120   46.7130 C   0  0  0  0  0  0  0  0  0  0  0  0
   62.8480   33.3620   47.0550 C   0  0  0  0  0  0  0  0  0  0  0  0
   63.1550   33.9350   48.2890 C   0  0  0  0  0  0  0  0  0  0  0  0
   62.1350   34.2260   49.1960 C   0  0  0  0  0  0  0  0  0  0  0  0
   60.7970   33.9550   48.8780 C   0  0  0  0  0  0  0  0  0  0  0  0
   59.8370   34.1820   49.8650 O   0  0  0  0  0  0  0  0  0  0  0  0
   58.5700   30.3990   45.0750 N   0  0  0  0  0  0  0  0  0  0  0  0
   58.9560   29.6320   46.2230 C   0  0  0  0  0  0  0  0  0  0  0  0
   59.5440   30.2800   47.3200 C   0  0  0  0  0  0  0  0  0  0  0  0
   59.9390   29.5590   48.4500 C   0  0  0  0  0  0  0  0  0  0  0  0
   60.6780   30.4000   49.8150 S   0  0  0  0  0  0  0  0  0  0  0  0
   61.9190   31.1080   49.3440 O   0  0  0  0  0  0  0  0  0  0  0  0
   61.0790   29.3890   50.8550 O   0  0  0  0  0  0  0  0  0  0  0  0
   59.5760   31.5720   50.5000 N   0  0  0  0  0  0  0  0  0  0  0  0
   58.2050   31.0270   50.5470 C   0  0  0  0  0  0  0  0  0  0  0  0
   57.3030   31.8580   51.4800 C   0  0  0  0  0  0  0  0  0  0  0  0
   57.8690   33.1310   51.7170 O   0  0  0  0  0  0  0  0  0  0  0  0
   59.0700   32.9930   52.4580 C   0  0  0  0  0  0  0  0  0  0  0  0
   60.0220   31.9390   51.8530 C   0  0  0  0  0  0  0  0  0  0  0  0
   59.7170   28.1760   48.4950 C   0  0  0  0  0  0  0  0  0  0  0  0
   59.0980   27.5280   47.4220 C   0  0  0  0  0  0  0  0  0  0  0  0
   58.7090   28.2460   46.2810 C   0  0  0  0  0  0  0  0  0  0  0  0
   58.1190   27.5450   45.1720 N   0  0  0  0  0  0  0  0  0  0  0  0
   58.1040   28.1300   43.8290 C   0  0  0  0  0  0  0  0  0  0  0  0
   58.3210   27.0240   42.7930 C   0  0  0  0  0  0  0  0  0  0  0  0
   57.3960   25.9670   42.9850 O   0  0  0  0  0  0  0  0  0  0  0  0
   57.6320   25.3400   44.2330 C   0  0  0  0  0  0  0  0  0  0  0  0
   57.3640   26.3080   45.3900 C   0  0  0  0  0  0  0  0  0  0  0  0
   57.3170   33.1778   44.2640 H   0  0  0  0  0  0  0  0  0  0  0  0
   56.7175   33.0312   45.9456 H   0  0  0  0  0  0  0  0  0  0  0  0
   61.2846   32.6573   45.7390 H   0  0  0  0  0  0  0  0  0  0  0  0
   63.6541   33.1071   46.3512 H   0  0  0  0  0  0  0  0  0  0  0  0
   64.2008   34.1575   48.5473 H   0  0  0  0  0  0  0  0  0  0  0  0
   62.3835   34.6725   50.1701 H   0  0  0  0  0  0  0  0  0  0  0  0
   58.9960   33.6310   49.9570 H   0  0  0  0  0  0  0  0  0  0  0  0
   59.6959   31.3691   47.2901 H   0  0  0  0  0  0  0  0  0  0  0  0
   57.7795   31.0398   49.5327 H   0  0  0  0  0  0  0  0  0  0  0  0
   58.2534   29.9993   50.9362 H   0  0  0  0  0  0  0  0  0  0  0  0
   56.3159   31.9832   51.0109 H   0  0  0  0  0  0  0  0  0  0  0  0
   57.2047   31.3300   52.4400 H   0  0  0  0  0  0  0  0  0  0  0  0
   59.5859   33.9643   52.4771 H   0  0  0  0  0  0  0  0  0  0  0  0
   58.8007   32.6572   53.4703 H   0  0  0  0  0  0  0  0  0  0  0  0
   61.0390   32.3549   51.8005 H   0  0  0  0  0  0  0  0  0  0  0  0
   60.0168   31.0418   52.4894 H   0  0  0  0  0  0  0  0  0  0  0  0
   60.0307   27.5986   49.3772 H   0  0  0  0  0  0  0  0  0  0  0  0
   58.9141   26.4447   47.4727 H   0  0  0  0  0  0  0  0  0  0  0  0
   57.1332   28.6154   43.6504 H   0  0  0  0  0  0  0  0  0  0  0  0
   58.9065   28.8775   43.7437 H   0  0  0  0  0  0  0  0  0  0  0  0
   58.1863   27.4426   41.7847 H   0  0  0  0  0  0  0  0  0  0  0  0
   59.3401   26.6266   42.9091 H   0  0  0  0  0  0  0  0  0  0  0  0
   56.9667   24.4694   44.3303 H   0  0  0  0  0  0  0  0  0  0  0  0
   58.6851   25.0251   44.2747 H   0  0  0  0  0  0  0  0  0  0  0  0
   56.2891   26.5370   45.4359 H   0  0  0  0  0  0  0  0  0  0  0  0
   57.6794   25.8461   46.3372 H   0  0  0  0  0  0  0  0  0  0  0  0
  1  2  2  0
  2  3  1  0
  3  4  1  0
  4  5  1  0
  5  6  2  0
  5  7  1  0
  7  8  2  0
  8  9  1  0
  9 10  2  0
 10 11  1  0
 11 12  2  0
 12 13  1  0
  2 14  1  0
 14 15  1  0
 15 16  2  0
 16 17  1  0
 17 18  1  0
 18 19  2  0
 18 20  2  0
 18 21  1  0
 21 22  1  0
 22 23  1  0
 23 24  1  0
 24 25  1  0
 25 26  1  0
 17 27  2  0
 27 28  1  0
 28 29  2  0
 29 30  1  0
 30 31  1  0
 31 32  1  0
 32 33  1  0
 33 34  1  0
 34 35  1  0
 12  7  1  0
 29 15  1  0
 35 30  1  0
 26 21  1  0
  3 36  1  0
  3 37  1  0
  8 38  1  0
  9 39  1  0
 10 40  1  0
 11 41  1  0
 13 42  1  0
 16 43  1  0
 22 44  1  0
 22 45  1  0
 23 46  1  0
 23 47  1  0
 25 48  1  0
 25 49  1  0
 26 50  1  0
 26 51  1  0
 27 52  1  0
 28 53  1  0
 31 54  1  0
 31 55  1  0
 32 56  1  0
 32 57  1  0
 34 58  1  0
 34 59  1  0
 35 60  1  0
 35 61  1  0
M  CHG  2   4  -1  14  -1
M  END
>  <UniqueID>  (49) 
43

>  <SMILES>  (49) 
O=C(C[N-]C(=O)c1ccccc1O)[N-]c1cc(S(=O)(=O)N2CCOCC2)ccc1N1CCOCC1

>  <Energy>  (49) 
83.11610244633594

>  <Genealogy>  (49) 
O=C(C[N-]C(=O)c1ccccc1O)[N-]c1cc(S(=O)(=O)N2CCOCC2)ccc1N1CCOCC1 (protonated)
O=C(C[N-]C(=O)c1ccccc1O)[N-]c1cc(S(=O)(=O)N2CCOCC2)ccc1N1CCOCC1 (3D coordinates assigned)
O=C(C[N-]C(=O)c1ccccc1O)[N-]c1cc(S(=O)(=O)N2CCOCC2)ccc1N1CCOCC1 (nonaromatic ring conformer: 83.11610244633594 kcal/mol)

>  <smiles>  (49) 
O=C(CNC(=O)c1ccccc1O)Nc1cc(S(=O)(=O)N2CCOCC2)ccc1N1CCOCC1

>  <score_type>  (49) 
oracle

>  <origin>  (49) 
adg

>  <m_score__min__energy>  (49) 
-12.130000000000001

>  <m_primary>  (49) 
energy

$$$$
49:0
     RDKit          3D

 52 54  0  0  0  0  0  0  0  0999 V2000
   61.1540   29.7570   49.1260 C   0  0  0  0  0  0  0  0  0  0  0  0
   60.1670   29.3040   48.0890 C   0  0  0  0  0  0  0  0  0  0  0  0
   59.0800   28.4900   48.4490 C   0  0  0  0  0  0  0  0  0  0  0  0
   58.1410   28.1020   47.4870 C   0  0  0  0  0  0  0  0  0  0  0  0
   58.2740   28.5290   46.1590 C   0  0  0  0  0  0  0  0  0  0  0  0
   57.0720   28.0520   44.9580 S   0  0  0  0  0  0  0  0  0  0  0  0
   56.5150   26.7050   45.3310 O   0  0  0  0  0  0  0  0  0  0  0  0
   57.7110   27.9430   43.6000 O   0  0  0  0  0  0  0  0  0  0  0  0
   55.7770   29.2090   44.9000 N   0  0  0  0  0  0  0  0  0  0  0  0
   55.8830   30.0180   43.6900 C   0  0  0  0  0  0  0  0  0  0  0  0
   56.8990   31.0950   43.9020 C   0  0  0  0  0  0  0  0  0  0  0  0
   57.4560   31.6160   42.8980 O   0  0  0  0  0  0  0  0  0  0  0  0
   57.2770   31.4820   45.2360 N   0  0  0  0  0  0  0  0  0  0  0  0
   58.0930   32.6250   45.5500 C   0  0  0  0  0  0  0  0  0  0  0  0
   58.1370   33.7030   44.6490 C   0  0  0  0  0  0  0  0  0  0  0  0
   58.9260   34.8220   44.9240 C   0  0  0  0  0  0  0  0  0  0  0  0
   59.6880   34.8740   46.0960 C   0  0  0  0  0  0  0  0  0  0  0  0
   59.6750   33.7940   46.9910 C   0  0  0  0  0  0  0  0  0  0  0  0
   60.6050   33.8500   48.4850 S   0  0  0  0  0  0  0  0  0  0  0  0
   60.0100   34.9010   49.3820 O   0  0  0  0  0  0  0  0  0  0  0  0
   60.5320   32.5200   49.1860 O   0  0  0  0  0  0  0  0  0  0  0  0
   62.2670   34.2500   48.0990 N   0  0  0  0  0  0  0  0  0  0  0  0
   62.7140   33.5990   46.8450 C   0  0  0  0  0  0  0  0  0  0  0  0
   63.5560   32.3370   47.0980 C   0  0  0  0  0  0  0  0  0  0  0  0
   63.1180   31.6860   48.2690 O   0  0  0  0  0  0  0  0  0  0  0  0
   63.4400   32.4620   49.4100 C   0  0  0  0  0  0  0  0  0  0  0  0
   63.1720   33.9760   49.2280 C   0  0  0  0  0  0  0  0  0  0  0  0
   58.8870   32.6700   46.7120 C   0  0  0  0  0  0  0  0  0  0  0  0
   59.3450   29.3620   45.8020 C   0  0  0  0  0  0  0  0  0  0  0  0
   60.2850   29.7510   46.7630 C   0  0  0  0  0  0  0  0  0  0  0  0
   60.7441   29.5689   50.1293 H   0  0  0  0  0  0  0  0  0  0  0  0
   62.0951   29.2007   49.0042 H   0  0  0  0  0  0  0  0  0  0  0  0
   61.3458   30.8333   49.0042 H   0  0  0  0  0  0  0  0  0  0  0  0
   58.9667   28.1564   49.4911 H   0  0  0  0  0  0  0  0  0  0  0  0
   57.2955   27.4596   47.7741 H   0  0  0  0  0  0  0  0  0  0  0  0
   56.1929   29.3812   42.8483 H   0  0  0  0  0  0  0  0  0  0  0  0
   54.9069   30.4720   43.4640 H   0  0  0  0  0  0  0  0  0  0  0  0
   57.0130   30.8430   46.0190 H   0  0  0  0  0  0  0  0  0  0  0  0
   57.5464   33.6650   43.7218 H   0  0  0  0  0  0  0  0  0  0  0  0
   58.9483   35.6646   44.2173 H   0  0  0  0  0  0  0  0  0  0  0  0
   60.2979   35.7626   46.3159 H   0  0  0  0  0  0  0  0  0  0  0  0
   61.8266   33.3181   46.2588 H   0  0  0  0  0  0  0  0  0  0  0  0
   63.3477   34.3181   46.3053 H   0  0  0  0  0  0  0  0  0  0  0  0
   63.4527   31.6537   46.2422 H   0  0  0  0  0  0  0  0  0  0  0  0
   64.6097   32.6275   47.2217 H   0  0  0  0  0  0  0  0  0  0  0  0
   62.8371   32.1018   50.2566 H   0  0  0  0  0  0  0  0  0  0  0  0
   64.5198   32.3451   49.5844 H   0  0  0  0  0  0  0  0  0  0  0  0
   62.7173   34.3684   50.1496 H   0  0  0  0  0  0  0  0  0  0  0  0
   64.1339   34.4656   49.0157 H   0  0  0  0  0  0  0  0  0  0  0  0
   58.8885   31.8163   47.4057 H   0  0  0  0  0  0  0  0  0  0  0  0
   59.4462   29.7104   44.7635 H   0  0  0  0  0  0  0  0  0  0  0  0
   61.1192   30.4092   46.4787 H   0  0  0  0  0  0  0  0  0  0  0  0
  1  2  1  0
  2  3  2  0
  3  4  1  0
  4  5  2  0
  5  6  1  0
  6  7  2  0
  6  8  2  0
  6  9  1  0
  9 10  1  0
 10 11  1  0
 11 12  2  0
 11 13  1  0
 13 14  1  0
 14 15  2  0
 15 16  1  0
 16 17  2  0
 17 18  1  0
 18 19  1  0
 19 20  2  0
 19 21  2  0
 19 22  1  0
 22 23  1  0
 23 24  1  0
 24 25  1  0
 25 26  1  0
 26 27  1  0
 18 28  2  0
  5 29  1  0
 29 30  2  0
 30  2  1  0
 28 14  1  0
 27 22  1  0
  1 31  1  0
  1 32  1  0
  1 33  1  0
  3 34  1  0
  4 35  1  0
 10 36  1  0
 10 37  1  0
 13 38  1  0
 15 39  1  0
 16 40  1  0
 17 41  1  0
 23 42  1  0
 23 43  1  0
 24 44  1  0
 24 45  1  0
 26 46  1  0
 26 47  1  0
 27 48  1  0
 27 49  1  0
 28 50  1  0
 29 51  1  0
 30 52  1  0
M  CHG  1   9  -1
M  END
>  <UniqueID>  (50) 
44

>  <SMILES>  (50) 
Cc1ccc(S(=O)(=O)[N-]CC(=O)Nc2cccc(S(=O)(=O)N3CCOCC3)c2)cc1

>  <Energy>  (50) 
63.70341446360862

>  <Genealogy>  (50) 
Cc1ccc(S(=O)(=O)[N-]CC(=O)Nc2cccc(S(=O)(=O)N3CCOCC3)c2)cc1 (protonated)
Cc1ccc(S(=O)(=O)[N-]CC(=O)Nc2cccc(S(=O)(=O)N3CCOCC3)c2)cc1 (3D coordinates assigned)
Cc1ccc(S(=O)(=O)[N-]CC(=O)Nc2cccc(S(=O)(=O)N3CCOCC3)c2)cc1 (nonaromatic ring conformer: 63.70341446360862 kcal/mol)

>  <smiles>  (50) 
Cc1ccc(S(=O)(=O)NCC(=O)Nc2cccc(S(=O)(=O)N3CCOCC3)c2)cc1

>  <score_type>  (50) 
oracle

>  <origin>  (50) 
adg

>  <m_score__min__energy>  (50) 
-11.52

>  <m_primary>  (50) 
energy

$$$$
50:0
     RDKit          3D

 32 33  0  0  0  0  0  0  0  0999 V2000
   58.4877   30.6583   45.2208 H   0  0  0  0  0  0  0  0  0  0  0  0
   57.6510   31.0580   44.6290 C   0  0  0  0  0  0  0  0  0  0  0  0
   57.6750   32.3440   44.2660 C   0  0  0  0  0  0  0  0  0  0  0  0
   58.1497   32.6326   43.3166 H   0  0  0  0  0  0  0  0  0  0  0  0
   59.0440   33.8700   46.5860 C   0  0  0  0  0  0  0  0  0  0  0  0
   60.2830   34.2110   46.0120 C   0  0  0  0  0  0  0  0  0  0  0  0
   60.3123   34.7691   45.0645 H   0  0  0  0  0  0  0  0  0  0  0  0
   61.4760   33.8440   46.6400 C   0  0  0  0  0  0  0  0  0  0  0  0
   62.4410   34.1281   46.1949 H   0  0  0  0  0  0  0  0  0  0  0  0
   61.4450   33.1170   47.8320 C   0  0  0  0  0  0  0  0  0  0  0  0
   62.3853   32.8340   48.3278 H   0  0  0  0  0  0  0  0  0  0  0  0
   60.2210   32.7490   48.3950 C   0  0  0  0  0  0  0  0  0  0  0  0
   60.1995   32.1704   49.3303 H   0  0  0  0  0  0  0  0  0  0  0  0
   59.0220   33.1140   47.7730 C   0  0  0  0  0  0  0  0  0  0  0  0
   57.8120   32.7330   48.3450 O   0  0  0  0  0  0  0  0  0  0  0  0
   57.7740   34.2140   45.9060 C   0  0  0  0  0  0  0  0  0  0  0  0
   57.3779   35.2297   46.0525 H   0  0  0  0  0  0  0  0  0  0  0  0
   57.0710   33.3820   45.1260 C   0  0  0  0  0  0  0  0  0  0  0  0
   55.9752   33.4779   45.1260 H   0  0  0  0  0  0  0  0  0  0  0  0
   56.5410   30.1540   44.2640 C   0  0  0  0  0  0  0  0  0  0  0  0
   55.8850   30.3420   43.2040 O   0  0  0  0  0  0  0  0  0  0  0  0
   56.1220   29.1230   45.1660 N   0  0  0  0  0  0  0  0  0  0  0  0
   56.7950   28.0850   45.5810 C   0  0  0  0  0  0  0  0  0  0  0  0
   58.1490   28.2050   45.6760 N   0  0  0  0  0  0  0  0  0  0  0  0
   58.9490   27.1860   46.0870 C   0  0  0  0  0  0  0  0  0  0  0  0
   60.0378   27.3309   46.1457 H   0  0  0  0  0  0  0  0  0  0  0  0
   58.3900   25.9580   46.4340 C   0  0  0  0  0  0  0  0  0  0  0  0
   59.0333   25.1240   46.7511 H   0  0  0  0  0  0  0  0  0  0  0  0
   57.0080   25.7980   46.3750 C   0  0  0  0  0  0  0  0  0  0  0  0
   56.5558   24.8338   46.6505 H   0  0  0  0  0  0  0  0  0  0  0  0
   56.1930   26.8580   45.9670 C   0  0  0  0  0  0  0  0  0  0  0  0
   54.8140   26.6830   46.0000 O   0  0  0  0  0  0  0  0  0  0  0  0
  1  2  1  0
  2  3  2  0
  3  4  1  0
  3  5  1  0
  5  6  2  0
  6  7  1  0
  6  8  1  0
  8  9  1  0
  8 10  2  0
 10 11  1  0
 10 12  1  0
 12 13  1  0
 12 14  2  0
 14 15  1  0
  2 16  1  0
 16 17  1  0
 16 18  2  0
 18 19  1  0
 18 20  1  0
 20 21  2  0
 20 22  1  0
 22 23  2  3
 23 24  1  0
 24 25  1  0
 25 26  1  0
 25 27  2  0
 27 28  1  0
 27 29  1  0
 29 30  1  0
 29 31  2  0
 31 32  1  0
 14  5  1  0
 31 23  1  0
M  CHG  3  15  -1  24  -1  32  -1
M  END
>  <UniqueID>  (51) 
45

>  <SMILES>  (51) 
O=C(/C=C/C=Cc1ccccc1[O-])N=c1[n-]cccc1[O-]

>  <Energy>  (51) 
50.826078666975164

>  <Genealogy>  (51) 
O=C(C=CC=Cc1ccccc1[O-])N=c1[n-]cccc1[O-] (protonated)
O=C(/C=C/C=Cc1ccccc1[O-])N=c1[n-]cccc1[O-] (cis-trans isomerization)
O=C(/C=C/C=Cc1ccccc1[O-])N=c1[n-]cccc1[O-] (3D coordinates assigned)
O=C(/C=C/C=Cc1ccccc1[O-])N=c1[n-]cccc1[O-] (optimized conformer: 50.826078666975164 kcal/mol)

>  <smiles>  (51) 
O=C(C=CC=Cc1ccccc1O)N=c1[nH]cccc1O

>  <score_type>  (51) 
oracle

>  <origin>  (51) 
adg

>  <m_score__min__energy>  (51) 
-14.630000000000001

>  <m_primary>  (51) 
energy

$$$$
51:0
     RDKit          3D

 35 38  0  0  0  0  0  0  0  0999 V2000
   54.4790   30.6437   43.5626 H   0  0  0  0  0  0  0  0  0  0  0  0
   55.3300   29.9710   43.7450 C   0  0  0  0  0  0  0  0  0  0  0  0
   55.5220   29.3430   44.9380 N   0  0  0  0  0  0  0  0  0  0  0  0
   56.6280   28.5710   44.9280 C   0  0  0  0  0  0  0  0  0  0  0  0
   56.9950   27.8820   45.9690 N   0  0  0  0  0  0  0  0  0  0  0  0
   58.2800   27.8800   46.6100 C   0  0  0  0  0  0  0  0  0  0  0  0
   59.0470   26.8800   46.5470 O   0  0  0  0  0  0  0  0  0  0  0  0
   58.7380   29.1090   47.3250 C   0  0  0  0  0  0  0  0  0  0  0  0
   58.1425   29.2425   48.2402 H   0  0  0  0  0  0  0  0  0  0  0  0
   59.8009   29.0022   47.5872 H   0  0  0  0  0  0  0  0  0  0  0  0
   58.5650   30.3000   46.4430 C   0  0  0  0  0  0  0  0  0  0  0  0
   59.1740   30.4550   45.2520 N   0  0  0  0  0  0  0  0  0  0  0  0
   58.7500   31.6120   44.7670 N   0  0  0  0  0  0  0  0  0  0  0  0
   57.8980   32.1110   45.6820 C   0  0  0  0  0  0  0  0  0  0  0  0
   57.0440   33.6760   45.5080 S   0  0  0  0  0  0  0  0  0  0  0  0
   58.5460   34.6160   45.0720 C   0  0  0  0  0  0  0  0  0  0  0  0
   58.8615   34.3421   44.0544 H   0  0  0  0  0  0  0  0  0  0  0  0
   58.3194   35.6912   45.1230 H   0  0  0  0  0  0  0  0  0  0  0  0
   59.6530   34.3100   46.0290 C   0  0  0  0  0  0  0  0  0  0  0  0
   60.8650   33.8460   45.6240 N   0  0  0  0  0  0  0  0  0  0  0  0
   61.5410   33.7610   46.7780 C   0  0  0  0  0  0  0  0  0  0  0  0
   62.8550   33.3390   46.9660 C   0  0  0  0  0  0  0  0  0  0  0  0
   63.4761   33.0150   46.1179 H   0  0  0  0  0  0  0  0  0  0  0  0
   63.3600   33.3420   48.2810 C   0  0  0  0  0  0  0  0  0  0  0  0
   64.3933   33.0161   48.4712 H   0  0  0  0  0  0  0  0  0  0  0  0
   62.5450   33.7620   49.3580 C   0  0  0  0  0  0  0  0  0  0  0  0
   62.9475   33.7603   50.3817 H   0  0  0  0  0  0  0  0  0  0  0  0
   61.2220   34.1820   49.1270 C   0  0  0  0  0  0  0  0  0  0  0  0
   60.5772   34.5124   49.9547 H   0  0  0  0  0  0  0  0  0  0  0  0
   60.7570   34.1650   47.8140 C   0  0  0  0  0  0  0  0  0  0  0  0
   59.5470   34.5270   47.3670 N   0  0  0  0  0  0  0  0  0  0  0  0
   57.7750   31.3120   46.7120 O   0  0  0  0  0  0  0  0  0  0  0  0
   57.4130   28.6380   43.4340 S   0  0  0  0  0  0  0  0  0  0  0  0
   56.2880   29.7000   42.7740 C   0  0  0  0  0  0  0  0  0  0  0  0
   56.3067   30.1087   41.7529 H   0  0  0  0  0  0  0  0  0  0  0  0
  1  2  1  0
  2  3  1  0
  3  4  1  0
  4  5  2  0
  5  6  1  0
  6  7  2  0
  6  8  1  0
  8  9  1  0
  8 10  1  0
  8 11  1  0
 11 12  2  0
 12 13  1  0
 13 14  2  0
 14 15  1  0
 15 16  1  0
 16 17  1  0
 16 18  1  0
 16 19  1  0
 19 20  2  0
 20 21  1  0
 21 22  2  0
 22 23  1  0
 22 24  1  0
 24 25  1  0
 24 26  2  0
 26 27  1  0
 26 28  1  0
 28 29  1  0
 28 30  2  0
 30 31  1  0
 14 32  1  0
  4 33  1  0
 33 34  1  0
 34 35  1  0
 34  2  2  0
 32 11  1  0
 31 19  1  0
 30 21  1  0
M  CHG  2   3  -1  31  -1
M  END
>  <UniqueID>  (52) 
46

>  <SMILES>  (52) 
O=C(Cc1nnc(SCc2nc3ccccc3[n-]2)o1)/N=c1/[n-]ccs1

>  <Energy>  (52) 
134.4843648604077

>  <Genealogy>  (52) 
O=C(Cc1nnc(SCc2nc3ccccc3[n-]2)o1)N=c1[n-]ccs1 (protonated)
O=C(Cc1nnc(SCc2nc3ccccc3[n-]2)o1)/N=c1/[n-]ccs1 (cis-trans isomerization)
O=C(Cc1nnc(SCc2nc3ccccc3[n-]2)o1)/N=c1/[n-]ccs1 (3D coordinates assigned)
O=C(Cc1nnc(SCc2nc3ccccc3[n-]2)o1)/N=c1/[n-]ccs1 (optimized conformer: 134.4843648604077 kcal/mol)

>  <smiles>  (52) 
O=C(Cc1nnc(SCc2nc3ccccc3[nH]2)o1)N=c1[nH]ccs1

>  <score_type>  (52) 
oracle

>  <origin>  (52) 
adg

>  <m_score__min__energy>  (52) 
-11.75

>  <m_primary>  (52) 
energy

$$$$
52:0
     RDKit          3D

 68 72  0  0  0  0  0  0  0  0999 V2000
   63.0310   32.7040   47.1860 O   0  0  0  0  0  0  0  0  0  0  0  0
   61.8050   32.8280   47.4640 C   0  0  0  0  0  0  0  0  0  0  0  0
   61.1690   34.1950   47.3930 C   0  0  0  0  0  0  0  0  0  0  0  0
   59.7990   34.1520   46.7560 C   0  0  0  0  0  0  0  0  0  0  0  0
   58.7020   33.6010   47.4440 C   0  0  0  0  0  0  0  0  0  0  0  0
   57.4370   33.5690   46.8480 C   0  0  0  0  0  0  0  0  0  0  0  0
   57.2570   34.0720   45.5580 C   0  0  0  0  0  0  0  0  0  0  0  0
   58.3420   34.6000   44.8560 C   0  0  0  0  0  0  0  0  0  0  0  0
   59.6090   34.6340   45.4460 C   0  0  0  0  0  0  0  0  0  0  0  0
   61.0170   31.6430   47.6650 N   0  0  0  0  0  0  0  0  0  0  0  0
   60.8910   30.5870   46.6600 C   0  0  0  0  0  0  0  0  0  0  0  0
   59.8420   29.5630   47.2260 C   0  0  0  0  0  0  0  0  0  0  0  0
   58.5600   29.5070   46.3660 C   0  0  0  0  0  0  0  0  0  0  0  0
   58.7920   28.7980   45.0190 C   0  0  0  0  0  0  0  0  0  0  0  0
   59.4550   27.4870   45.1660 N   0  0  0  0  0  0  0  0  0  0  0  0
   58.5920   26.2840   45.1670 C   0  0  0  0  0  0  0  0  0  0  0  0
   57.0880   26.5910   45.2960 C   0  0  0  0  0  0  0  0  0  0  0  0
   56.6270   26.5910   46.7550 C   0  0  0  0  0  0  0  0  0  0  0  0
   56.4180   25.2200   47.2200 N   0  0  0  0  0  0  0  0  0  0  0  0
   55.1900   24.4600   46.2570 S   0  0  0  0  0  0  0  0  0  0  0  0
   54.3430   25.5150   45.6060 O   0  0  0  0  0  0  0  0  0  0  0  0
   54.3210   23.6110   47.1400 O   0  0  0  0  0  0  0  0  0  0  0  0
   55.9340   23.4360   45.0300 C   0  0  0  0  0  0  0  0  0  0  0  0
   55.5360   23.5570   43.6900 C   0  0  0  0  0  0  0  0  0  0  0  0
   56.1150   22.7470   42.7080 C   0  0  0  0  0  0  0  0  0  0  0  0
   57.0950   21.8140   43.0610 C   0  0  0  0  0  0  0  0  0  0  0  0
   57.5000   21.6940   44.3930 C   0  0  0  0  0  0  0  0  0  0  0  0
   56.9230   22.5050   45.3760 C   0  0  0  0  0  0  0  0  0  0  0  0
   60.6560   27.4600   46.0260 C   0  0  0  0  0  0  0  0  0  0  0  0
   60.4400   28.1470   47.3810 C   0  0  0  0  0  0  0  0  0  0  0  0
   59.5260   30.1420   48.5800 C   0  0  0  0  0  0  0  0  0  0  0  0
   58.6890   29.6130   49.5720 C   0  0  0  0  0  0  0  0  0  0  0  0
   58.5860   30.2870   50.8000 C   0  0  0  0  0  0  0  0  0  0  0  0
   57.5450   29.6490   52.0610 Cl  0  0  0  0  0  0  0  0  0  0  0  0
   59.3330   31.4590   51.0270 C   0  0  0  0  0  0  0  0  0  0  0  0
   60.1700   31.9660   50.0230 C   0  0  0  0  0  0  0  0  0  0  0  0
   60.2180   31.3060   48.7890 C   0  0  0  0  0  0  0  0  0  0  0  0
   61.0735   34.5952   48.4131 H   0  0  0  0  0  0  0  0  0  0  0  0
   61.8117   34.8359   46.7715 H   0  0  0  0  0  0  0  0  0  0  0  0
   58.8401   33.1932   48.4562 H   0  0  0  0  0  0  0  0  0  0  0  0
   56.5823   33.1467   47.3967 H   0  0  0  0  0  0  0  0  0  0  0  0
   56.2596   34.0522   45.0946 H   0  0  0  0  0  0  0  0  0  0  0  0
   58.1999   34.9898   43.8373 H   0  0  0  0  0  0  0  0  0  0  0  0
   60.4630   35.0397   44.8837 H   0  0  0  0  0  0  0  0  0  0  0  0
   60.5368   31.0079   45.7075 H   0  0  0  0  0  0  0  0  0  0  0  0
   61.8590   30.1019   46.4660 H   0  0  0  0  0  0  0  0  0  0  0  0
   57.7834   28.9628   46.9233 H   0  0  0  0  0  0  0  0  0  0  0  0
   58.2510   30.5412   46.1538 H   0  0  0  0  0  0  0  0  0  0  0  0
   57.8184   28.6460   44.5302 H   0  0  0  0  0  0  0  0  0  0  0  0
   59.4559   29.4380   44.4193 H   0  0  0  0  0  0  0  0  0  0  0  0
   58.7544   25.7412   44.2242 H   0  0  0  0  0  0  0  0  0  0  0  0
   58.8726   25.6922   46.0508 H   0  0  0  0  0  0  0  0  0  0  0  0
   56.8889   27.5813   44.8605 H   0  0  0  0  0  0  0  0  0  0  0  0
   56.5333   25.8040   44.7640 H   0  0  0  0  0  0  0  0  0  0  0  0
   57.3946   27.0728   47.3784 H   0  0  0  0  0  0  0  0  0  0  0  0
   55.6790   27.1438   46.8313 H   0  0  0  0  0  0  0  0  0  0  0  0
   54.7660   24.2914   43.4110 H   0  0  0  0  0  0  0  0  0  0  0  0
   55.7998   22.8437   41.6586 H   0  0  0  0  0  0  0  0  0  0  0  0
   57.5475   21.1739   42.2893 H   0  0  0  0  0  0  0  0  0  0  0  0
   58.2729   20.9615   44.6687 H   0  0  0  0  0  0  0  0  0  0  0  0
   57.2463   22.4118   46.4233 H   0  0  0  0  0  0  0  0  0  0  0  0
   60.9349   26.4112   46.2055 H   0  0  0  0  0  0  0  0  0  0  0  0
   61.4490   28.0121   45.5004 H   0  0  0  0  0  0  0  0  0  0  0  0
   59.7519   27.5354   47.9831 H   0  0  0  0  0  0  0  0  0  0  0  0
   61.4199   28.2450   47.8711 H   0  0  0  0  0  0  0  0  0  0  0  0
   58.1232   28.6870   49.3921 H   0  0  0  0  0  0  0  0  0  0  0  0
   59.2596   31.9778   51.9942 H   0  0  0  0  0  0  0  0  0  0  0  0
   60.7776   32.8654   50.2013 H   0  0  0  0  0  0  0  0  0  0  0  0
  1  2  2  0
  2  3  1  0
  3  4  1  0
  4  5  2  0
  5  6  1  0
  6  7  2  0
  7  8  1  0
  8  9  2  0
  2 10  1  0
 10 11  1  0
 11 12  1  0
 12 13  1  0
 13 14  1  0
 14 15  1  0
 15 16  1  0
 16 17  1  0
 17 18  1  0
 18 19  1  0
 19 20  1  0
 20 21  2  0
 20 22  2  0
 20 23  1  0
 23 24  2  0
 24 25  1  0
 25 26  2  0
 26 27  1  0
 27 28  2  0
 15 29  1  0
 29 30  1  0
 12 31  1  0
 31 32  2  0
 32 33  1  0
 33 34  1  0
 33 35  2  0
 35 36  1  0
 36 37  2  0
  9  4  1  0
 37 10  1  0
 30 12  1  0
 37 31  1  0
 28 23  1  0
  3 38  1  0
  3 39  1  0
  5 40  1  0
  6 41  1  0
  7 42  1  0
  8 43  1  0
  9 44  1  0
 11 45  1  0
 11 46  1  0
 13 47  1  0
 13 48  1  0
 14 49  1  0
 14 50  1  0
 16 51  1  0
 16 52  1  0
 17 53  1  0
 17 54  1  0
 18 55  1  0
 18 56  1  0
 24 57  1  0
 25 58  1  0
 26 59  1  0
 27 60  1  0
 28 61  1  0
 29 62  1  0
 29 63  1  0
 30 64  1  0
 30 65  1  0
 32 66  1  0
 35 67  1  0
 36 68  1  0
M  CHG  1  19  -1
M  END
>  <UniqueID>  (53) 
47

>  <SMILES>  (53) 
O=C(Cc1ccccc1)N1CC2(CCN(CCC[N-]S(=O)(=O)c3ccccc3)CC2)c2cc(Cl)ccc21

>  <Energy>  (53) 
96.89022706496775

>  <Genealogy>  (53) 
O=C(Cc1ccccc1)N1CC2(CCN(CCC[N-]S(=O)(=O)c3ccccc3)CC2)c2cc(Cl)ccc21 (protonated)
O=C(Cc1ccccc1)N1CC2(CCN(CCC[N-]S(=O)(=O)c3ccccc3)CC2)c2cc(Cl)ccc21 (3D coordinates assigned)
O=C(Cc1ccccc1)N1CC2(CCN(CCC[N-]S(=O)(=O)c3ccccc3)CC2)c2cc(Cl)ccc21 (nonaromatic ring conformer: 96.89022706496775 kcal/mol)

>  <smiles>  (53) 
O=C(Cc1ccccc1)N1CC2(CCN(CCCNS(=O)(=O)c3ccccc3)CC2)c2cc(Cl)ccc21

>  <score_type>  (53) 
oracle

>  <origin>  (53) 
adg

>  <m_score__min__energy>  (53) 
-12.27

>  <m_primary>  (53) 
energy

$$$$
53:0
     RDKit          3D

 57 60  0  0  0  0  0  0  0  0999 V2000
   59.5747   34.8061   45.1614 H   0  0  0  0  0  0  0  0  0  0  0  0
   58.8880   33.9580   45.0230 C   0  0  0  0  0  0  0  0  0  0  0  0
   58.2590   33.3690   46.1270 C   0  0  0  0  0  0  0  0  0  0  0  0
   58.4880   33.9010   47.5060 C   0  0  0  0  0  0  0  0  0  0  0  0
   58.1661   33.1532   48.2457 H   0  0  0  0  0  0  0  0  0  0  0  0
   59.5581   34.1154   47.6433 H   0  0  0  0  0  0  0  0  0  0  0  0
   57.9082   34.8257   47.6433 H   0  0  0  0  0  0  0  0  0  0  0  0
   57.3950   32.3330   45.9370 N   0  0  0  0  0  0  0  0  0  0  0  0
   57.1270   31.8280   44.6990 C   0  0  0  0  0  0  0  0  0  0  0  0
   56.2960   30.8400   44.5350 N   0  0  0  0  0  0  0  0  0  0  0  0
   56.4890   29.4700   44.9280 C   0  0  0  0  0  0  0  0  0  0  0  0
   55.5330   28.6490   44.8880 O   0  0  0  0  0  0  0  0  0  0  0  0
   57.8060   29.0240   45.4440 C   0  0  0  0  0  0  0  0  0  0  0  0
   58.2810   29.5920   46.6400 C   0  0  0  0  0  0  0  0  0  0  0  0
   57.6556   30.3178   47.1805 H   0  0  0  0  0  0  0  0  0  0  0  0
   59.5370   29.2480   47.1530 C   0  0  0  0  0  0  0  0  0  0  0  0
   60.1260   30.0090   48.6330 S   0  0  0  0  0  0  0  0  0  0  0  0
   60.7190   31.3510   48.3030 O   0  0  0  0  0  0  0  0  0  0  0  0
   61.2110   29.1550   49.2280 O   0  0  0  0  0  0  0  0  0  0  0  0
   58.8440   30.2110   49.8020 N   0  0  0  0  0  0  0  0  0  0  0  0
   58.7040   31.6270   50.1690 C   0  0  0  0  0  0  0  0  0  0  0  0
   59.5537   31.9311   50.7979 H   0  0  0  0  0  0  0  0  0  0  0  0
   58.6880   32.2473   49.2607 H   0  0  0  0  0  0  0  0  0  0  0  0
   57.3960   31.8120   50.9470 C   0  0  0  0  0  0  0  0  0  0  0  0
   57.4643   32.7256   51.5559 H   0  0  0  0  0  0  0  0  0  0  0  0
   56.5663   31.8924   50.2292 H   0  0  0  0  0  0  0  0  0  0  0  0
   57.1480   30.6630   51.8280 N   0  0  0  0  0  0  0  0  0  0  0  0
   55.8320   30.4400   52.3700 C   0  0  0  0  0  0  0  0  0  0  0  0
   54.6880   30.8480   51.6610 C   0  0  0  0  0  0  0  0  0  0  0  0
   54.7972   31.3490   50.6878 H   0  0  0  0  0  0  0  0  0  0  0  0
   53.4120   30.6200   52.1870 C   0  0  0  0  0  0  0  0  0  0  0  0
   52.5217   30.9464   51.6295 H   0  0  0  0  0  0  0  0  0  0  0  0
   53.2670   29.9780   53.4200 C   0  0  0  0  0  0  0  0  0  0  0  0
   52.2629   29.8004   53.8327 H   0  0  0  0  0  0  0  0  0  0  0  0
   54.3960   29.5620   54.1280 C   0  0  0  0  0  0  0  0  0  0  0  0
   54.2806   29.0551   55.0974 H   0  0  0  0  0  0  0  0  0  0  0  0
   55.6740   29.7890   53.6060 C   0  0  0  0  0  0  0  0  0  0  0  0
   56.5604   29.4562   54.1659 H   0  0  0  0  0  0  0  0  0  0  0  0
   58.2770   29.8100   52.2210 C   0  0  0  0  0  0  0  0  0  0  0  0
   58.9335   30.3733   52.9005 H   0  0  0  0  0  0  0  0  0  0  0  0
   57.8808   28.9140   52.7212 H   0  0  0  0  0  0  0  0  0  0  0  0
   59.0910   29.3640   50.9880 C   0  0  0  0  0  0  0  0  0  0  0  0
   60.1613   29.4118   51.2373 H   0  0  0  0  0  0  0  0  0  0  0  0
   58.7763   28.3406   50.7357 H   0  0  0  0  0  0  0  0  0  0  0  0
   60.3260   28.3150   46.4750 C   0  0  0  0  0  0  0  0  0  0  0  0
   61.3161   28.0447   46.8708 H   0  0  0  0  0  0  0  0  0  0  0  0
   59.8640   27.7250   45.2990 C   0  0  0  0  0  0  0  0  0  0  0  0
   60.4953   26.9932   44.7738 H   0  0  0  0  0  0  0  0  0  0  0  0
   58.6020   28.0540   44.7770 C   0  0  0  0  0  0  0  0  0  0  0  0
   58.1380   27.3560   43.5250 C   0  0  0  0  0  0  0  0  0  0  0  0
   57.5480   26.4684   43.7972 H   0  0  0  0  0  0  0  0  0  0  0  0
   57.5157   28.0422   42.9318 H   0  0  0  0  0  0  0  0  0  0  0  0
   59.0116   27.0478   42.9318 H   0  0  0  0  0  0  0  0  0  0  0  0
   57.7510   32.3890   43.5780 C   0  0  0  0  0  0  0  0  0  0  0  0
   57.5468   31.9909   42.5731 H   0  0  0  0  0  0  0  0  0  0  0  0
   58.6340   33.4570   43.7450 C   0  0  0  0  0  0  0  0  0  0  0  0
   59.1294   33.9036   42.8702 H   0  0  0  0  0  0  0  0  0  0  0  0
  1  2  1  0
  2  3  2  0
  3  4  1  0
  4  5  1  0
  4  6  1  0
  4  7  1  0
  3  8  1  0
  8  9  1  0
  9 10  2  0
 10 11  1  0
 11 12  2  0
 11 13  1  0
 13 14  2  0
 14 15  1  0
 14 16  1  0
 16 17  1  0
 17 18  2  0
 17 19  2  0
 17 20  1  0
 20 21  1  0
 21 22  1  0
 21 23  1  0
 21 24  1  0
 24 25  1  0
 24 26  1  0
 24 27  1  0
 27 28  1  0
 28 29  2  0
 29 30  1  0
 29 31  1  0
 31 32  1  0
 31 33  2  0
 33 34  1  0
 33 35  1  0
 35 36  1  0
 35 37  2  0
 37 38  1  0
 27 39  1  0
 39 40  1  0
 39 41  1  0
 39 42  1  0
 42 43  1  0
 42 44  1  0
 16 45  2  0
 45 46  1  0
 45 47  1  0
 47 48  1  0
 47 49  2  0
 49 50  1  0
 50 51  1  0
 50 52  1  0
 50 53  1  0
  9 54  1  0
 54 55  1  0
 54 56  2  0
 56 57  1  0
 56  2  1  0
 49 13  1  0
 42 20  1  0
 37 28  1  0
M  CHG  1   8  -1
M  END
>  <UniqueID>  (54) 
48

>  <SMILES>  (54) 
Cc1ccc/c(=N/C(=O)c2cc(S(=O)(=O)N3CCN(c4ccccc4)CC3)ccc2C)[n-]1

>  <Energy>  (54) 
74.59696353007878

>  <Genealogy>  (54) 
Cc1cccc(=NC(=O)c2cc(S(=O)(=O)N3CCN(c4ccccc4)CC3)ccc2C)[n-]1 (protonated)
Cc1ccc/c(=N/C(=O)c2cc(S(=O)(=O)N3CCN(c4ccccc4)CC3)ccc2C)[n-]1 (cis-trans isomerization)
Cc1ccc/c(=N/C(=O)c2cc(S(=O)(=O)N3CCN(c4ccccc4)CC3)ccc2C)[n-]1 (3D coordinates assigned)
Cc1ccc/c(=N/C(=O)c2cc(S(=O)(=O)N3CCN(c4ccccc4)CC3)ccc2C)[n-]1 (nonaromatic ring conformer: 74.59696353007878 kcal/mol)

>  <smiles>  (54) 
Cc1cccc(=NC(=O)c2cc(S(=O)(=O)N3CCN(c4ccccc4)CC3)ccc2C)[nH]1

>  <score_type>  (54) 
oracle

>  <origin>  (54) 
adg

>  <m_score__min__energy>  (54) 
-11.49

>  <m_primary>  (54) 
energy

$$$$
54:0
     RDKit          3D

 52 55  0  0  0  0  0  0  0  0999 V2000
   54.4940   30.5160   54.0990 O   0  0  0  0  0  0  0  0  0  0  0  0
   53.8650   30.9000   53.0750 C   0  0  0  0  0  0  0  0  0  0  0  0
   52.3720   30.9910   53.1200 C   0  0  0  0  0  0  0  0  0  0  0  0
   51.8290   31.1510   51.7340 C   0  0  0  0  0  0  0  0  0  0  0  0
   52.0510   30.2820   50.7300 N   0  0  0  0  0  0  0  0  0  0  0  0
   51.4000   30.8400   49.6870 C   0  0  0  0  0  0  0  0  0  0  0  0
   51.3810   30.3170   48.5410 O   0  0  0  0  0  0  0  0  0  0  0  0
   50.7750   32.0090   49.9640 N   0  0  0  0  0  0  0  0  0  0  0  0
   51.0610   32.1920   51.2630 C   0  0  0  0  0  0  0  0  0  0  0  0
   50.6290   33.2890   52.0010 O   0  0  0  0  0  0  0  0  0  0  0  0
   54.5670   31.2550   51.8730 N   0  0  0  0  0  0  0  0  0  0  0  0
   55.9840   31.4980   51.8040 C   0  0  0  0  0  0  0  0  0  0  0  0
   56.8660   30.5600   51.2370 C   0  0  0  0  0  0  0  0  0  0  0  0
   58.2410   30.8090   51.2110 C   0  0  0  0  0  0  0  0  0  0  0  0
   58.7610   31.9890   51.7660 C   0  0  0  0  0  0  0  0  0  0  0  0
   60.1810   32.2380   51.7490 N   0  0  0  0  0  0  0  0  0  0  0  0
   60.7130   33.3890   52.4930 C   0  0  0  0  0  0  0  0  0  0  0  0
   62.2300   33.4890   52.3420 C   0  0  0  0  0  0  0  0  0  0  0  0
   62.5720   33.2450   50.9330 N   0  0  0  0  0  0  0  0  0  0  0  0
   63.9110   33.7440   50.5480 C   0  0  0  0  0  0  0  0  0  0  0  0
   65.0560   32.8830   51.0410 C   0  0  0  0  0  0  0  0  0  0  0  0
   65.8930   32.2210   50.1250 C   0  0  0  0  0  0  0  0  0  0  0  0
   66.9590   31.4380   50.5790 C   0  0  0  0  0  0  0  0  0  0  0  0
   67.2030   31.3140   51.9490 C   0  0  0  0  0  0  0  0  0  0  0  0
   66.3850   31.9780   52.8680 C   0  0  0  0  0  0  0  0  0  0  0  0
   65.3200   32.7640   52.4170 C   0  0  0  0  0  0  0  0  0  0  0  0
   62.3230   31.8470   50.5200 C   0  0  0  0  0  0  0  0  0  0  0  0
   61.0970   31.2170   51.2200 C   0  0  0  0  0  0  0  0  0  0  0  0
   57.8820   32.9140   52.3530 C   0  0  0  0  0  0  0  0  0  0  0  0
   56.5070   32.6670   52.3750 C   0  0  0  0  0  0  0  0  0  0  0  0
   51.9640   30.0728   53.5678 H   0  0  0  0  0  0  0  0  0  0  0  0
   52.0804   31.8616   53.7258 H   0  0  0  0  0  0  0  0  0  0  0  0
   54.0220   31.2800   50.9820 H   0  0  0  0  0  0  0  0  0  0  0  0
   56.4712   29.6255   50.8118 H   0  0  0  0  0  0  0  0  0  0  0  0
   58.9204   30.0754   50.7525 H   0  0  0  0  0  0  0  0  0  0  0  0
   60.2522   34.3102   52.1070 H   0  0  0  0  0  0  0  0  0  0  0  0
   60.4764   33.2552   53.5589 H   0  0  0  0  0  0  0  0  0  0  0  0
   62.5676   34.4932   52.6379 H   0  0  0  0  0  0  0  0  0  0  0  0
   62.7242   32.7462   52.9855 H   0  0  0  0  0  0  0  0  0  0  0  0
   63.9605   33.7893   49.4500 H   0  0  0  0  0  0  0  0  0  0  0  0
   64.0298   34.7309   51.0191 H   0  0  0  0  0  0  0  0  0  0  0  0
   65.7081   32.3197   49.0452 H   0  0  0  0  0  0  0  0  0  0  0  0
   67.6062   30.9191   49.8566 H   0  0  0  0  0  0  0  0  0  0  0  0
   68.0389   30.6938   52.3047 H   0  0  0  0  0  0  0  0  0  0  0  0
   66.5793   31.8821   53.9465 H   0  0  0  0  0  0  0  0  0  0  0  0
   64.6848   33.2925   53.1431 H   0  0  0  0  0  0  0  0  0  0  0  0
   62.1538   31.8279   49.4333 H   0  0  0  0  0  0  0  0  0  0  0  0
   63.2051   31.2573   50.8099 H   0  0  0  0  0  0  0  0  0  0  0  0
   60.5540   30.5946   50.4935 H   0  0  0  0  0  0  0  0  0  0  0  0
   61.4604   30.6150   52.0659 H   0  0  0  0  0  0  0  0  0  0  0  0
   58.2785   33.8385   52.7981 H   0  0  0  0  0  0  0  0  0  0  0  0
   55.8293   33.3955   52.8440 H   0  0  0  0  0  0  0  0  0  0  0  0
  1  2  2  0
  2  3  1  0
  3  4  1  0
  4  5  1  0
  5  6  1  0
  6  7  2  0
  6  8  1  0
  8  9  1  0
  9 10  1  0
  2 11  1  0
 11 12  1  0
 12 13  2  0
 13 14  1  0
 14 15  2  0
 15 16  1  0
 16 17  1  0
 17 18  1  0
 18 19  1  0
 19 20  1  0
 20 21  1  0
 21 22  2  0
 22 23  1  0
 23 24  2  0
 24 25  1  0
 25 26  2  0
 19 27  1  0
 27 28  1  0
 15 29  1  0
 29 30  2  0
  9  4  2  0
 30 12  1  0
 28 16  1  0
 26 21  1  0
  3 31  1  0
  3 32  1  0
 11 33  1  0
 13 34  1  0
 14 35  1  0
 17 36  1  0
 17 37  1  0
 18 38  1  0
 18 39  1  0
 20 40  1  0
 20 41  1  0
 22 42  1  0
 23 43  1  0
 24 44  1  0
 25 45  1  0
 26 46  1  0
 27 47  1  0
 27 48  1  0
 28 49  1  0
 28 50  1  0
 29 51  1  0
 30 52  1  0
M  CHG  3   5  -1   8  -1  10  -1
M  END
>  <UniqueID>  (55) 
49

>  <SMILES>  (55) 
O=C(Cc1[n-]c(=O)[n-]c1[O-])Nc1ccc(N2CCN(Cc3ccccc3)CC2)cc1

>  <Energy>  (55) 
98.38497369008246

>  <Genealogy>  (55) 
O=C(Cc1[n-]c(=O)[n-]c1[O-])Nc1ccc(N2CCN(Cc3ccccc3)CC2)cc1 (protonated)
O=C(Cc1[n-]c(=O)[n-]c1[O-])Nc1ccc(N2CCN(Cc3ccccc3)CC2)cc1 (3D coordinates assigned)
O=C(Cc1[n-]c(=O)[n-]c1[O-])Nc1ccc(N2CCN(Cc3ccccc3)CC2)cc1 (nonaromatic ring conformer: 98.38497369008246 kcal/mol)

>  <smiles>  (55) 
O=C(Cc1[nH]c(=O)[nH]c1O)Nc1ccc(N2CCN(Cc3ccccc3)CC2)cc1

>  <score_type>  (55) 
oracle

>  <origin>  (55) 
adg

>  <m_score__min__energy>  (55) 
-16.559999999999999

>  <m_primary>  (55) 
energy

$$$$
55:0
     RDKit          3D

 28 29  0  0  0  0  0  0  0  0999 V2000
   60.2960   24.0230   45.6580 N   0  0  0  0  0  0  0  0  0  0  0  0
   59.5160   24.8080   45.9990 C   0  0  0  0  0  0  0  0  0  0  0  0
   58.5450   25.7850   46.4240 C   0  0  0  0  0  0  0  0  0  0  0  0
   57.5190   25.3710   47.1920 C   0  0  0  0  0  0  0  0  0  0  0  0
   56.3730   24.5820   46.6950 C   0  0  0  0  0  0  0  0  0  0  0  0
   56.2880   23.1960   46.9080 C   0  0  0  0  0  0  0  0  0  0  0  0
   57.2820   22.5220   47.6080 O   0  0  0  0  0  0  0  0  0  0  0  0
   55.2220   22.5020   46.4320 N   0  0  0  0  0  0  0  0  0  0  0  0
   54.2190   23.1300   45.7650 C   0  0  0  0  0  0  0  0  0  0  0  0
   53.2440   22.4660   45.3280 O   0  0  0  0  0  0  0  0  0  0  0  0
   54.2660   24.4730   45.5730 N   0  0  0  0  0  0  0  0  0  0  0  0
   55.3130   25.2110   46.0290 C   0  0  0  0  0  0  0  0  0  0  0  0
   55.3310   26.5870   45.8170 O   0  0  0  0  0  0  0  0  0  0  0  0
   58.7550   27.1990   46.0270 C   0  0  0  0  0  0  0  0  0  0  0  0
   59.9290   27.6210   45.8400 O   0  0  0  0  0  0  0  0  0  0  0  0
   57.6550   28.1230   46.0240 N   0  0  0  0  0  0  0  0  0  0  0  0
   57.5280   29.2560   45.3890 C   0  0  0  0  0  0  0  0  0  0  0  0
   58.6090   30.0850   45.3620 N   0  0  0  0  0  0  0  0  0  0  0  0
   58.5930   31.2930   44.7400 C   0  0  0  0  0  0  0  0  0  0  0  0
   57.4370   31.7310   44.0990 C   0  0  0  0  0  0  0  0  0  0  0  0
   56.3000   30.9260   44.1220 C   0  0  0  0  0  0  0  0  0  0  0  0
   56.3230   29.6920   44.7770 C   0  0  0  0  0  0  0  0  0  0  0  0
   55.1440   28.9590   44.8440 O   0  0  0  0  0  0  0  0  0  0  0  0
   57.5353   25.6377   48.2590 H   0  0  0  0  0  0  0  0  0  0  0  0
   55.9920   27.0050   45.1730 H   0  0  0  0  0  0  0  0  0  0  0  0
   59.4933   31.9250   44.7428 H   0  0  0  0  0  0  0  0  0  0  0  0
   57.4217   32.7011   43.5806 H   0  0  0  0  0  0  0  0  0  0  0  0
   55.3800   31.2635   43.6222 H   0  0  0  0  0  0  0  0  0  0  0  0
  1  2  3  0
  2  3  1  0
  3  4  2  3
  4  5  1  0
  5  6  1  0
  6  7  1  0
  6  8  2  0
  8  9  1  0
  9 10  2  0
  9 11  1  0
 11 12  1  0
 12 13  1  0
  3 14  1  0
 14 15  2  0
 14 16  1  0
 16 17  2  3
 17 18  1  0
 18 19  1  0
 19 20  2  0
 20 21  1  0
 21 22  2  0
 22 23  1  0
 12  5  2  0
 22 17  1  0
  4 24  1  0
 13 25  1  0
 19 26  1  0
 20 27  1  0
 21 28  1  0
M  CHG  4   7  -1  11  -1  18  -1  23  -1
M  END
>  <UniqueID>  (56) 
50

>  <SMILES>  (56) 
N#CC(=Cc1c([O-])nc(=O)[n-]c1O)C(=O)N=c1[n-]cccc1[O-]

>  <Energy>  (56) 
50.00034330041247

>  <Genealogy>  (56) 
N#CC(=Cc1c([O-])nc(=O)[n-]c1O)C(=O)N=c1[n-]cccc1[O-] (protonated)
N#CC(=Cc1c([O-])nc(=O)[n-]c1O)C(=O)N=c1[n-]cccc1[O-] (3D coordinates assigned)
N#CC(=Cc1c([O-])nc(=O)[n-]c1O)C(=O)N=c1[n-]cccc1[O-] (optimized conformer: 50.00034330041247 kcal/mol)

>  <smiles>  (56) 
N#CC(=Cc1c(O)nc(=O)[nH]c1O)C(=O)N=c1[nH]cccc1O

>  <score_type>  (56) 
oracle

>  <origin>  (56) 
adg

>  <m_score__min__energy>  (56) 
-16.289999999999999

>  <m_primary>  (56) 
energy

$$$$
56:0
     RDKit          3D

 34 35  0  0  0  0  0  0  0  0999 V2000
   58.9640   22.6370   45.2990 C   0  0  0  0  0  0  0  0  0  0  0  0
   57.9620   23.7210   45.5130 C   0  0  0  0  0  0  0  0  0  0  0  0
   58.2860   25.0110   45.2330 N   0  0  0  0  0  0  0  0  0  0  0  0
   57.3890   26.0240   45.3820 C   0  0  0  0  0  0  0  0  0  0  0  0
   57.8180   27.4100   45.0700 C   0  0  0  0  0  0  0  0  0  0  0  0
   59.0360   27.7290   45.1490 O   0  0  0  0  0  0  0  0  0  0  0  0
   56.8420   28.4030   44.7100 N   0  0  0  0  0  0  0  0  0  0  0  0
   57.1700   29.6690   44.1100 C   0  0  0  0  0  0  0  0  0  0  0  0
   56.6920   30.0240   42.8370 C   0  0  0  0  0  0  0  0  0  0  0  0
   57.0060   31.2690   42.2890 C   0  0  0  0  0  0  0  0  0  0  0  0
   57.7870   32.1780   43.0080 C   0  0  0  0  0  0  0  0  0  0  0  0
   58.2530   31.8480   44.2920 C   0  0  0  0  0  0  0  0  0  0  0  0
   59.0480   32.7500   45.0750 N   0  0  0  0  0  0  0  0  0  0  0  0
   58.4920   34.2230   45.8010 S   0  0  0  0  0  0  0  0  0  0  0  0
   58.8650   34.2280   47.5420 C   0  0  0  0  0  0  0  0  0  0  0  0
   57.0140   34.3820   45.5800 O   0  0  0  0  0  0  0  0  0  0  0  0
   59.2030   35.3770   45.1540 O   0  0  0  0  0  0  0  0  0  0  0  0
   57.9340   30.5960   44.8360 C   0  0  0  0  0  0  0  0  0  0  0  0
   56.0890   25.7190   45.8310 C   0  0  0  0  0  0  0  0  0  0  0  0
   55.1250   26.7080   46.0040 O   0  0  0  0  0  0  0  0  0  0  0  0
   55.7720   24.3830   46.1010 C   0  0  0  0  0  0  0  0  0  0  0  0
   54.6180   24.0720   46.4980 O   0  0  0  0  0  0  0  0  0  0  0  0
   56.7080   23.4150   45.9330 N   0  0  0  0  0  0  0  0  0  0  0  0
   59.3113   22.2613   46.2728 H   0  0  0  0  0  0  0  0  0  0  0  0
   58.5003   21.8155   44.7332 H   0  0  0  0  0  0  0  0  0  0  0  0
   59.8194   23.0348   44.7332 H   0  0  0  0  0  0  0  0  0  0  0  0
   55.8460   28.2380   44.9800 H   0  0  0  0  0  0  0  0  0  0  0  0
   56.0677   29.3178   42.2699 H   0  0  0  0  0  0  0  0  0  0  0  0
   56.6373   31.5355   41.2875 H   0  0  0  0  0  0  0  0  0  0  0  0
   58.0376   33.1544   42.5676 H   0  0  0  0  0  0  0  0  0  0  0  0
   57.9278   34.2154   48.1178 H   0  0  0  0  0  0  0  0  0  0  0  0
   59.4608   33.3378   47.7919 H   0  0  0  0  0  0  0  0  0  0  0  0
   59.4368   35.1339   47.7919 H   0  0  0  0  0  0  0  0  0  0  0  0
   58.2870   30.3367   45.8450 H   0  0  0  0  0  0  0  0  0  0  0  0
  1  2  1  0
  2  3  2  0
  3  4  1  0
  4  5  1  0
  5  6  2  0
  5  7  1  0
  7  8  1  0
  8  9  2  0
  9 10  1  0
 10 11  2  0
 11 12  1  0
 12 13  1  0
 13 14  1  0
 14 15  1  0
 14 16  2  0
 14 17  2  0
 12 18  2  0
  4 19  2  0
 19 20  1  0
 19 21  1  0
 21 22  2  0
 21 23  1  0
 23  2  1  0
 18  8  1  0
  1 24  1  0
  1 25  1  0
  1 26  1  0
  7 27  1  0
  9 28  1  0
 10 29  1  0
 11 30  1  0
 15 31  1  0
 15 32  1  0
 15 33  1  0
 18 34  1  0
M  CHG  3  13  -1  20  -1  23  -1
M  END
>  <UniqueID>  (57) 
51

>  <SMILES>  (57) 
Cc1nc(C(=O)Nc2cccc([N-]S(C)(=O)=O)c2)c([O-])c(=O)[n-]1

>  <Energy>  (57) 
38.632522890833734

>  <Genealogy>  (57) 
Cc1nc(C(=O)Nc2cccc([N-]S(C)(=O)=O)c2)c([O-])c(=O)[n-]1 (protonated)
Cc1nc(C(=O)Nc2cccc([N-]S(C)(=O)=O)c2)c([O-])c(=O)[n-]1 (3D coordinates assigned)
Cc1nc(C(=O)Nc2cccc([N-]S(C)(=O)=O)c2)c([O-])c(=O)[n-]1 (optimized conformer: 38.632522890833734 kcal/mol)

>  <smiles>  (57) 
Cc1nc(C(=O)Nc2cccc(NS(C)(=O)=O)c2)c(O)c(=O)[nH]1

>  <score_type>  (57) 
oracle

>  <origin>  (57) 
adg

>  <m_score__min__energy>  (57) 
-13.57

>  <m_primary>  (57) 
energy

$$$$
57:0
     RDKit          3D

 33 35  0  0  0  0  0  0  0  0999 V2000
   55.1280   27.4840   45.5460 H   0  0  0  0  0  0  0  0  0  0  0  0
   54.9680   26.5930   46.0010 O   0  0  0  0  0  0  0  0  0  0  0  0
   55.7820   25.4880   45.7530 C   0  0  0  0  0  0  0  0  0  0  0  0
   55.3800   24.5200   44.8210 C   0  0  0  0  0  0  0  0  0  0  0  0
   54.4229   24.6351   44.2912 H   0  0  0  0  0  0  0  0  0  0  0  0
   56.1880   23.4110   44.5620 C   0  0  0  0  0  0  0  0  0  0  0  0
   55.8657   22.6541   43.8318 H   0  0  0  0  0  0  0  0  0  0  0  0
   57.4050   23.2630   45.2300 C   0  0  0  0  0  0  0  0  0  0  0  0
   58.0416   22.3899   45.0240 H   0  0  0  0  0  0  0  0  0  0  0  0
   57.8160   24.2220   46.1600 C   0  0  0  0  0  0  0  0  0  0  0  0
   58.7772   24.1012   46.6811 H   0  0  0  0  0  0  0  0  0  0  0  0
   57.0080   25.3410   46.4340 C   0  0  0  0  0  0  0  0  0  0  0  0
   57.4810   26.3820   47.4190 C   0  0  0  0  0  0  0  0  0  0  0  0
   57.6543   25.9044   48.3947 H   0  0  0  0  0  0  0  0  0  0  0  0
   56.7103   27.1617   47.5091 H   0  0  0  0  0  0  0  0  0  0  0  0
   58.7640   27.0180   46.9430 C   0  0  0  0  0  0  0  0  0  0  0  0
   59.9590   26.9930   47.6320 C   0  0  0  0  0  0  0  0  0  0  0  0
   60.1560   26.3850   48.8640 O   0  0  0  0  0  0  0  0  0  0  0  0
   60.9370   27.6300   46.9660 N   0  0  0  0  0  0  0  0  0  0  0  0
   60.3710   28.0810   45.8270 C   0  0  0  0  0  0  0  0  0  0  0  0
   61.1200   28.6210   44.8610 C   0  0  0  0  0  0  0  0  0  0  0  0
   60.6471   28.9851   43.9370 H   0  0  0  0  0  0  0  0  0  0  0  0
   62.2095   28.7014   44.9898 H   0  0  0  0  0  0  0  0  0  0  0  0
   59.0010   27.7610   45.7850 C   0  0  0  0  0  0  0  0  0  0  0  0
   58.0630   28.0890   44.8690 C   0  0  0  0  0  0  0  0  0  0  0  0
   57.6471   27.2731   44.2597 H   0  0  0  0  0  0  0  0  0  0  0  0
   57.5510   29.4460   44.6180 C   0  0  0  0  0  0  0  0  0  0  0  0
   58.3210   30.5390   44.4610 N   0  0  0  0  0  0  0  0  0  0  0  0
   57.4230   31.5460   44.4040 C   0  0  0  0  0  0  0  0  0  0  0  0
   57.7620   32.7470   44.2430 O   0  0  0  0  0  0  0  0  0  0  0  0
   56.1350   31.1660   44.5440 N   0  0  0  0  0  0  0  0  0  0  0  0
   56.2370   29.8350   44.6930 C   0  0  0  0  0  0  0  0  0  0  0  0
   55.1500   28.9960   44.8990 O   0  0  0  0  0  0  0  0  0  0  0  0
  1  2  1  0
  2  3  1  0
  3  4  2  0
  4  5  1  0
  4  6  1  0
  6  7  1  0
  6  8  2  0
  8  9  1  0
  8 10  1  0
 10 11  1  0
 10 12  2  0
 12 13  1  0
 13 14  1  0
 13 15  1  0
 13 16  1  0
 16 17  2  0
 17 18  1  0
 17 19  1  0
 19 20  1  0
 20 21  2  0
 21 22  1  0
 21 23  1  0
 20 24  1  0
 24 25  2  0
 25 26  1  0
 25 27  1  0
 27 28  1  0
 28 29  1  0
 29 30  2  0
 29 31  1  0
 31 32  1  0
 32 33  1  0
 12  3  1  0
 24 16  1  0
 32 27  2  0
M  CHG  5  18  -1  19  -1  28  -1  31  -1  33  -1
M  END
>  <UniqueID>  (58) 
52

>  <SMILES>  (58) 
C=c1[n-]c([O-])c(Cc2ccccc2O)/c1=C/c1[n-]c(=O)[n-]c1[O-]

>  <Energy>  (58) 
103.51511521552716

>  <Genealogy>  (58) 
C=c1[n-]c([O-])c(Cc2ccccc2O)c1=Cc1[n-]c(=O)[n-]c1[O-] (protonated)
C=c1[n-]c([O-])c(Cc2ccccc2O)/c1=C/c1[n-]c(=O)[n-]c1[O-] (cis-trans isomerization)
C=c1[n-]c([O-])c(Cc2ccccc2O)/c1=C/c1[n-]c(=O)[n-]c1[O-] (3D coordinates assigned)
C=c1[n-]c([O-])c(Cc2ccccc2O)/c1=C/c1[n-]c(=O)[n-]c1[O-] (optimized conformer: 103.51511521552716 kcal/mol)

>  <smiles>  (58) 
C=c1[nH]c(O)c(Cc2ccccc2O)c1=Cc1[nH]c(=O)[nH]c1O

>  <score_type>  (58) 
oracle

>  <origin>  (58) 
adg

>  <m_score__min__energy>  (58) 
-17.170000000000002

>  <m_primary>  (58) 
energy

$$$$
58:0
     RDKit          3D

 54 57  0  0  0  0  0  0  0  0999 V2000
   59.4346   27.2535   48.2354 H   0  0  0  0  0  0  0  0  0  0  0  0
   58.8820   26.6480   47.5020 C   0  0  0  0  0  0  0  0  0  0  0  0
   58.6602   25.5921   47.7160 H   0  0  0  0  0  0  0  0  0  0  0  0
   58.4780   27.1980   46.3450 C   0  0  0  0  0  0  0  0  0  0  0  0
   57.7680   26.5730   45.3070 C   0  0  0  0  0  0  0  0  0  0  0  0
   57.4520   25.2780   45.1010 C   0  0  0  0  0  0  0  0  0  0  0  0
   58.2794   24.5875   44.8805 H   0  0  0  0  0  0  0  0  0  0  0  0
   56.0920   24.7080   45.1460 C   0  0  0  0  0  0  0  0  0  0  0  0
   55.0200   25.4750   45.6210 C   0  0  0  0  0  0  0  0  0  0  0  0
   55.2290   26.7630   46.1030 O   0  0  0  0  0  0  0  0  0  0  0  0
   53.7630   24.9590   45.6210 N   0  0  0  0  0  0  0  0  0  0  0  0
   53.5180   23.7090   45.1530 C   0  0  0  0  0  0  0  0  0  0  0  0
   52.3470   23.2510   45.1670 O   0  0  0  0  0  0  0  0  0  0  0  0
   54.5360   22.9560   44.6620 N   0  0  0  0  0  0  0  0  0  0  0  0
   55.8100   23.4260   44.6380 C   0  0  0  0  0  0  0  0  0  0  0  0
   56.7250   22.7080   44.1550 O   0  0  0  0  0  0  0  0  0  0  0  0
   57.4060   27.5780   44.4250 C   0  0  0  0  0  0  0  0  0  0  0  0
   56.8027   27.4626   43.5125 H   0  0  0  0  0  0  0  0  0  0  0  0
   57.9460   28.7500   44.9090 C   0  0  0  0  0  0  0  0  0  0  0  0
   57.8060   30.0880   44.2470 C   0  0  0  0  0  0  0  0  0  0  0  0
   57.7241   30.8706   45.0156 H   0  0  0  0  0  0  0  0  0  0  0  0
   58.6889   30.2810   43.6198 H   0  0  0  0  0  0  0  0  0  0  0  0
   56.9023   30.0940   43.6198 H   0  0  0  0  0  0  0  0  0  0  0  0
   58.5960   28.5240   46.0730 N   0  0  0  0  0  0  0  0  0  0  0  0
   59.2650   29.5190   46.8670 C   0  0  0  0  0  0  0  0  0  0  0  0
   60.5390   29.9820   46.5100 C   0  0  0  0  0  0  0  0  0  0  0  0
   61.0345   29.5864   45.6111 H   0  0  0  0  0  0  0  0  0  0  0  0
   61.1640   30.9190   47.2720 N   0  0  0  0  0  0  0  0  0  0  0  0
   60.5870   31.4330   48.3950 C   0  0  0  0  0  0  0  0  0  0  0  0
   61.2510   32.3940   49.1640 O   0  0  0  0  0  0  0  0  0  0  0  0
   61.0110   33.7910   49.0250 C   0  0  0  0  0  0  0  0  0  0  0  0
   60.0542   34.0492   49.5024 H   0  0  0  0  0  0  0  0  0  0  0  0
   61.8223   34.3551   49.5083 H   0  0  0  0  0  0  0  0  0  0  0  0
   60.9530   34.1470   47.5350 C   0  0  0  0  0  0  0  0  0  0  0  0
   61.7280   34.8997   47.3280 H   0  0  0  0  0  0  0  0  0  0  0  0
   61.1127   33.2130   46.9764 H   0  0  0  0  0  0  0  0  0  0  0  0
   59.6460   34.6910   47.1000 N   0  0  0  0  0  0  0  0  0  0  0  0
   59.6310   35.2600   45.7360 C   0  0  0  0  0  0  0  0  0  0  0  0
   58.9290   36.1067   45.7179 H   0  0  0  0  0  0  0  0  0  0  0  0
   60.6593   35.5713   45.4999 H   0  0  0  0  0  0  0  0  0  0  0  0
   59.1990   34.2390   44.6550 C   0  0  0  0  0  0  0  0  0  0  0  0
   58.3957   34.6881   44.0526 H   0  0  0  0  0  0  0  0  0  0  0  0
   60.0902   34.0069   44.0534 H   0  0  0  0  0  0  0  0  0  0  0  0
   58.7280   33.0180   45.1910 O   0  0  0  0  0  0  0  0  0  0  0  0
   57.7790   33.2810   46.1990 C   0  0  0  0  0  0  0  0  0  0  0  0
   57.0447   34.0104   45.8263 H   0  0  0  0  0  0  0  0  0  0  0  0
   57.2708   32.3435   46.4690 H   0  0  0  0  0  0  0  0  0  0  0  0
   58.4750   33.8510   47.4410 C   0  0  0  0  0  0  0  0  0  0  0  0
   57.7525   34.4635   48.0003 H   0  0  0  0  0  0  0  0  0  0  0  0
   58.8359   33.0024   48.0407 H   0  0  0  0  0  0  0  0  0  0  0  0
   59.3190   30.9970   48.7850 C   0  0  0  0  0  0  0  0  0  0  0  0
   58.8457   31.4068   49.6894 H   0  0  0  0  0  0  0  0  0  0  0  0
   58.6570   30.0370   48.0180 C   0  0  0  0  0  0  0  0  0  0  0  0
   57.6580   29.6872   48.3172 H   0  0  0  0  0  0  0  0  0  0  0  0
  1  2  1  0
  2  3  1  0
  2  4  2  0
  4  5  1  0
  5  6  2  0
  6  7  1  0
  6  8  1  0
  8  9  2  0
  9 10  1  0
  9 11  1  0
 11 12  1  0
 12 13  2  0
 12 14  1  0
 14 15  1  0
 15 16  2  0
  5 17  1  0
 17 18  1  0
 17 19  2  0
 19 20  1  0
 20 21  1  0
 20 22  1  0
 20 23  1  0
 19 24  1  0
 24 25  1  0
 25 26  2  0
 26 27  1  0
 26 28  1  0
 28 29  2  0
 29 30  1  0
 30 31  1  0
 31 32  1  0
 31 33  1  0
 31 34  1  0
 34 35  1  0
 34 36  1  0
 34 37  1  0
 37 38  1  0
 38 39  1  0
 38 40  1  0
 38 41  1  0
 41 42  1  0
 41 43  1  0
 41 44  1  0
 44 45  1  0
 45 46  1  0
 45 47  1  0
 45 48  1  0
 48 49  1  0
 48 50  1  0
 29 51  1  0
 51 52  1  0
 51 53  2  0
 53 54  1  0
 24  4  1  0
 53 25  1  0
 15  8  1  0
 48 37  1  0
M  CHG  3  10  -1  11  -1  14  -1
M  END
>  <UniqueID>  (59) 
53

>  <SMILES>  (59) 
C=c1/c(=C\c2c([O-])[n-]c(=O)[n-]c2=O)cc(C)n1-c1ccc(OCCN2CCOCC2)nc1

>  <Energy>  (59) 
119.1765927171703

>  <Genealogy>  (59) 
C=c1c(=Cc2c([O-])[n-]c(=O)[n-]c2=O)cc(C)n1-c1ccc(OCCN2CCOCC2)nc1 (protonated)
C=c1/c(=C\c2c([O-])[n-]c(=O)[n-]c2=O)cc(C)n1-c1ccc(OCCN2CCOCC2)nc1 (cis-trans isomerization)
C=c1/c(=C\c2c([O-])[n-]c(=O)[n-]c2=O)cc(C)n1-c1ccc(OCCN2CCOCC2)nc1 (3D coordinates assigned)
C=c1/c(=C\c2c([O-])[n-]c(=O)[n-]c2=O)cc(C)n1-c1ccc(OCCN2CCOCC2)nc1 (nonaromatic ring conformer: 119.1765927171703 kcal/mol)

>  <smiles>  (59) 
C=c1c(=Cc2c(O)[nH]c(=O)[nH]c2=O)cc(C)n1-c1ccc(OCCN2CCOCC2)nc1

>  <score_type>  (59) 
oracle

>  <origin>  (59) 
adg

>  <m_score__min__energy>  (59) 
-15.66

>  <m_primary>  (59) 
energy

$$$$
59:0
     RDKit          3D

 37 38  0  0  0  0  0  0  0  0999 V2000
   55.9650   28.6990   44.6420 N   0  0  0  0  0  0  0  0  0  0  0  0
   56.1290   30.0250   44.1360 C   0  0  0  0  0  0  0  0  0  0  0  0
   55.2660   30.9060   44.3980 O   0  0  0  0  0  0  0  0  0  0  0  0
   57.3080   30.3640   43.2830 C   0  0  0  0  0  0  0  0  0  0  0  0
   58.5310   30.1660   44.0500 N   0  0  0  0  0  0  0  0  0  0  0  0
   59.1000   28.8860   44.3510 C   0  0  0  0  0  0  0  0  0  0  0  0
   58.6800   27.8740   43.7310 O   0  0  0  0  0  0  0  0  0  0  0  0
   60.1580   28.7130   45.4040 C   0  0  0  0  0  0  0  0  0  0  0  0
   59.4470   28.8750   47.0800 S   0  0  0  0  0  0  0  0  0  0  0  0
   58.3980   27.4220   46.9470 C   0  0  0  0  0  0  0  0  0  0  0  0
   57.1080   27.5650   46.5460 N   0  0  0  0  0  0  0  0  0  0  0  0
   56.2770   26.4970   46.4320 C   0  0  0  0  0  0  0  0  0  0  0  0
   54.9670   26.6890   46.0060 O   0  0  0  0  0  0  0  0  0  0  0  0
   56.7570   25.2140   46.7460 C   0  0  0  0  0  0  0  0  0  0  0  0
   55.8980   23.9910   46.5970 C   0  0  0  0  0  0  0  0  0  0  0  0
   56.2540   23.2560   45.3330 C   0  0  0  0  0  0  0  0  0  0  0  0
   55.7480   23.6820   44.0930 C   0  0  0  0  0  0  0  0  0  0  0  0
   56.1110   23.0160   42.9180 C   0  0  0  0  0  0  0  0  0  0  0  0
   56.9840   21.9260   42.9710 C   0  0  0  0  0  0  0  0  0  0  0  0
   57.4980   21.5020   44.2000 C   0  0  0  0  0  0  0  0  0  0  0  0
   57.1380   22.1650   45.3770 C   0  0  0  0  0  0  0  0  0  0  0  0
   58.0500   25.0750   47.1430 N   0  0  0  0  0  0  0  0  0  0  0  0
   58.8800   26.1450   47.2560 C   0  0  0  0  0  0  0  0  0  0  0  0
   60.0700   25.9770   47.6340 O   0  0  0  0  0  0  0  0  0  0  0  0
   55.1420   28.4590   45.2380 H   0  0  0  0  0  0  0  0  0  0  0  0
   56.6630   27.9560   44.4200 H   0  0  0  0  0  0  0  0  0  0  0  0
   57.3202   29.7118   42.3973 H   0  0  0  0  0  0  0  0  0  0  0  0
   57.2406   31.4140   42.9621 H   0  0  0  0  0  0  0  0  0  0  0  0
   60.6095   27.7154   45.2997 H   0  0  0  0  0  0  0  0  0  0  0  0
   60.9184   29.4963   45.2687 H   0  0  0  0  0  0  0  0  0  0  0  0
   56.0574   23.3278   47.4600 H   0  0  0  0  0  0  0  0  0  0  0  0
   54.8427   24.2976   46.5485 H   0  0  0  0  0  0  0  0  0  0  0  0
   55.0641   24.5423   44.0465 H   0  0  0  0  0  0  0  0  0  0  0  0
   55.7087   23.3507   41.9505 H   0  0  0  0  0  0  0  0  0  0  0  0
   57.2666   21.4019   42.0461 H   0  0  0  0  0  0  0  0  0  0  0  0
   58.1868   20.6453   44.2410 H   0  0  0  0  0  0  0  0  0  0  0  0
   57.5485   21.8311   46.3414 H   0  0  0  0  0  0  0  0  0  0  0  0
  1  2  1  0
  2  3  2  0
  2  4  1  0
  4  5  1  0
  5  6  1  0
  6  7  2  0
  6  8  1  0
  8  9  1  0
  9 10  1  0
 10 11  2  0
 11 12  1  0
 12 13  1  0
 12 14  2  0
 14 15  1  0
 15 16  1  0
 16 17  2  0
 17 18  1  0
 18 19  2  0
 19 20  1  0
 20 21  2  0
 14 22  1  0
 22 23  1  0
 23 24  2  0
 23 10  1  0
 21 16  1  0
  1 25  1  0
  1 26  1  0
  4 27  1  0
  4 28  1  0
  8 29  1  0
  8 30  1  0
 15 31  1  0
 15 32  1  0
 17 33  1  0
 18 34  1  0
 19 35  1  0
 20 36  1  0
 21 37  1  0
M  CHG  3   5  -1  13  -1  22  -1
M  END
>  <UniqueID>  (60) 
54

>  <SMILES>  (60) 
NC(=O)C[N-]C(=O)CSc1nc([O-])c(Cc2ccccc2)[n-]c1=O

>  <Energy>  (60) 
29.24251718087061

>  <Genealogy>  (60) 
NC(=O)C[N-]C(=O)CSc1nc([O-])c(Cc2ccccc2)[n-]c1=O (protonated)
NC(=O)C[N-]C(=O)CSc1nc([O-])c(Cc2ccccc2)[n-]c1=O (3D coordinates assigned)
NC(=O)C[N-]C(=O)CSc1nc([O-])c(Cc2ccccc2)[n-]c1=O (optimized conformer: 29.24251718087061 kcal/mol)

>  <smiles>  (60) 
NC(=O)CNC(=O)CSc1nc(O)c(Cc2ccccc2)[nH]c1=O

>  <score_type>  (60) 
oracle

>  <origin>  (60) 
adg

>  <m_score__min__energy>  (60) 
-13.74

>  <m_primary>  (60) 
energy

$$$$
60:0
     RDKit          3D

 52 55  0  0  0  0  0  0  0  0999 V2000
   57.7272   34.9137   45.9197 H   0  0  0  0  0  0  0  0  0  0  0  0
   57.8950   33.8510   46.1490 C   0  0  0  0  0  0  0  0  0  0  0  0
   57.7000   32.9110   45.1870 N   0  0  0  0  0  0  0  0  0  0  0  0
   57.9070   31.5840   45.4100 C   0  0  0  0  0  0  0  0  0  0  0  0
   57.6600   30.7500   44.4360 N   0  0  0  0  0  0  0  0  0  0  0  0
   56.4350   30.0680   44.1340 C   0  0  0  0  0  0  0  0  0  0  0  0
   55.8200   30.3680   43.0770 O   0  0  0  0  0  0  0  0  0  0  0  0
   55.9900   28.9670   44.9390 N   0  0  0  0  0  0  0  0  0  0  0  0
   56.7980   27.9010   45.4590 C   0  0  0  0  0  0  0  0  0  0  0  0
   58.2040   27.9380   45.4030 C   0  0  0  0  0  0  0  0  0  0  0  0
   58.7121   28.8181   44.9821 H   0  0  0  0  0  0  0  0  0  0  0  0
   58.9580   26.8610   45.8800 C   0  0  0  0  0  0  0  0  0  0  0  0
   60.0566   26.8992   45.8404 H   0  0  0  0  0  0  0  0  0  0  0  0
   58.3170   25.7360   46.4070 C   0  0  0  0  0  0  0  0  0  0  0  0
   58.9109   24.8923   46.7883 H   0  0  0  0  0  0  0  0  0  0  0  0
   56.9220   25.6840   46.4490 C   0  0  0  0  0  0  0  0  0  0  0  0
   56.4184   24.7965   46.8597 H   0  0  0  0  0  0  0  0  0  0  0  0
   56.1630   26.7580   45.9700 C   0  0  0  0  0  0  0  0  0  0  0  0
   54.7760   26.6860   46.0070 O   0  0  0  0  0  0  0  0  0  0  0  0
   58.3230   31.1670   46.6910 C   0  0  0  0  0  0  0  0  0  0  0  0
   58.4959   30.1003   46.8964 H   0  0  0  0  0  0  0  0  0  0  0  0
   58.5150   32.1190   47.7010 C   0  0  0  0  0  0  0  0  0  0  0  0
   58.9260   31.6860   49.0490 C   0  0  0  0  0  0  0  0  0  0  0  0
   58.0870   31.9910   50.1320 C   0  0  0  0  0  0  0  0  0  0  0  0
   57.1362   32.5142   49.9523 H   0  0  0  0  0  0  0  0  0  0  0  0
   58.4470   31.6360   51.4430 C   0  0  0  0  0  0  0  0  0  0  0  0
   57.5700   31.9600   52.5950 C   0  0  0  0  0  0  0  0  0  0  0  0
   57.0060   33.0860   52.6520 O   0  0  0  0  0  0  0  0  0  0  0  0
   57.3580   31.0280   53.6600 N   0  0  0  0  0  0  0  0  0  0  0  0
   57.9210   30.1540   53.7450 H   0  0  0  0  0  0  0  0  0  0  0  0
   56.6890   31.2590   54.4260 H   0  0  0  0  0  0  0  0  0  0  0  0
   59.6740   30.9880   51.6580 C   0  0  0  0  0  0  0  0  0  0  0  0
   59.9765   30.7192   52.6809 H   0  0  0  0  0  0  0  0  0  0  0  0
   60.5130   30.6820   50.5860 C   0  0  0  0  0  0  0  0  0  0  0  0
   61.4688   30.1705   50.7728 H   0  0  0  0  0  0  0  0  0  0  0  0
   60.1520   31.0190   49.2720 C   0  0  0  0  0  0  0  0  0  0  0  0
   61.0980   30.6810   48.1380 C   0  0  0  0  0  0  0  0  0  0  0  0
   61.7155   29.8203   48.4346 H   0  0  0  0  0  0  0  0  0  0  0  0
   60.4943   30.4482   47.2484 H   0  0  0  0  0  0  0  0  0  0  0  0
   62.0050   31.8380   47.7980 C   0  0  0  0  0  0  0  0  0  0  0  0
   63.2270   32.0020   48.4740 C   0  0  0  0  0  0  0  0  0  0  0  0
   63.5156   31.2921   49.2631 H   0  0  0  0  0  0  0  0  0  0  0  0
   64.0770   33.0630   48.1480 C   0  0  0  0  0  0  0  0  0  0  0  0
   65.0369   33.1785   48.6727 H   0  0  0  0  0  0  0  0  0  0  0  0
   63.7100   33.9760   47.1580 C   0  0  0  0  0  0  0  0  0  0  0  0
   64.3823   34.8079   46.9010 H   0  0  0  0  0  0  0  0  0  0  0  0
   62.4890   33.8340   46.4930 C   0  0  0  0  0  0  0  0  0  0  0  0
   62.1996   34.5558   45.7150 H   0  0  0  0  0  0  0  0  0  0  0  0
   61.6350   32.7750   46.8160 C   0  0  0  0  0  0  0  0  0  0  0  0
   60.6690   32.6740   46.2997 H   0  0  0  0  0  0  0  0  0  0  0  0
   58.3070   33.4720   47.4250 C   0  0  0  0  0  0  0  0  0  0  0  0
   58.4666   34.2300   48.2060 H   0  0  0  0  0  0  0  0  0  0  0  0
  1  2  1  0
  2  3  1  0
  3  4  1  0
  4  5  2  0
  5  6  1  0
  6  7  2  0
  6  8  1  0
  8  9  1  0
  9 10  2  0
 10 11  1  0
 10 12  1  0
 12 13  1  0
 12 14  2  0
 14 15  1  0
 14 16  1  0
 16 17  1  0
 16 18  2  0
 18 19  1  0
  4 20  1  0
 20 21  1  0
 20 22  2  0
 22 23  1  0
 23 24  2  0
 24 25  1  0
 24 26  1  0
 26 27  1  0
 27 28  2  0
 27 29  1  0
 29 30  1  0
 29 31  1  0
 26 32  2  0
 32 33  1  0
 32 34  1  0
 34 35  1  0
 34 36  2  0
 36 37  1  0
 37 38  1  0
 37 39  1  0
 37 40  1  0
 40 41  2  0
 41 42  1  0
 41 43  1  0
 43 44  1  0
 43 45  2  0
 45 46  1  0
 45 47  1  0
 47 48  1  0
 47 49  2  0
 49 50  1  0
 22 51  1  0
 51 52  1  0
 51  2  2  0
 18  9  1  0
 36 23  1  0
 49 40  1  0
M  CHG  3   3  -1   8  -1  19  -1
M  END
>  <UniqueID>  (61) 
55

>  <SMILES>  (61) 
NC(=O)c1ccc(Cc2ccccc2)c(-c2cc[n-]/c(=N/C(=O)[N-]c3ccccc3[O-])c2)c1

>  <Energy>  (61) 
73.55823311780398

>  <Genealogy>  (61) 
NC(=O)c1ccc(Cc2ccccc2)c(-c2cc[n-]c(=NC(=O)[N-]c3ccccc3[O-])c2)c1 (protonated)
NC(=O)c1ccc(Cc2ccccc2)c(-c2cc[n-]/c(=N/C(=O)[N-]c3ccccc3[O-])c2)c1 (cis-trans isomerization)
NC(=O)c1ccc(Cc2ccccc2)c(-c2cc[n-]/c(=N/C(=O)[N-]c3ccccc3[O-])c2)c1 (3D coordinates assigned)
NC(=O)c1ccc(Cc2ccccc2)c(-c2cc[n-]/c(=N/C(=O)[N-]c3ccccc3[O-])c2)c1 (optimized conformer: 73.55823311780398 kcal/mol)

>  <smiles>  (61) 
NC(=O)c1ccc(Cc2ccccc2)c(-c2cc[nH]c(=NC(=O)Nc3ccccc3O)c2)c1

>  <score_type>  (61) 
oracle

>  <origin>  (61) 
adg

>  <m_score__min__energy>  (61) 
-15.710000000000001

>  <m_primary>  (61) 
energy

$$$$
61:0
     RDKit          3D

 49 52  0  0  0  0  0  0  0  0999 V2000
   59.1110   28.2240   47.1470 C   0  0  0  0  0  0  0  0  0  0  0  0
   58.4800   28.7150   46.0680 C   0  0  0  0  0  0  0  0  0  0  0  0
   57.7930   27.9900   45.0790 C   0  0  0  0  0  0  0  0  0  0  0  0
   57.7190   26.6650   44.8420 C   0  0  0  0  0  0  0  0  0  0  0  0
   57.2740   25.6420   45.8080 C   0  0  0  0  0  0  0  0  0  0  0  0
   55.9790   25.6890   46.3410 C   0  0  0  0  0  0  0  0  0  0  0  0
   55.1140   26.7260   46.0080 O   0  0  0  0  0  0  0  0  0  0  0  0
   55.5620   24.7210   47.1970 N   0  0  0  0  0  0  0  0  0  0  0  0
   56.3760   23.6890   47.5390 C   0  0  0  0  0  0  0  0  0  0  0  0
   55.9690   22.8070   48.3370 O   0  0  0  0  0  0  0  0  0  0  0  0
   57.6250   23.6070   47.0140 N   0  0  0  0  0  0  0  0  0  0  0  0
   58.0890   24.5490   46.1530 C   0  0  0  0  0  0  0  0  0  0  0  0
   59.2460   24.4280   45.6680 O   0  0  0  0  0  0  0  0  0  0  0  0
   57.1440   28.9280   44.2920 C   0  0  0  0  0  0  0  0  0  0  0  0
   57.4940   30.1700   44.7770 C   0  0  0  0  0  0  0  0  0  0  0  0
   57.0190   31.4710   44.2040 C   0  0  0  0  0  0  0  0  0  0  0  0
   58.3020   30.0440   45.8530 N   0  0  0  0  0  0  0  0  0  0  0  0
   58.8450   31.1310   46.6250 C   0  0  0  0  0  0  0  0  0  0  0  0
   58.6840   31.1600   48.0170 C   0  0  0  0  0  0  0  0  0  0  0  0
   59.2100   32.2170   48.7660 C   0  0  0  0  0  0  0  0  0  0  0  0
   59.8960   33.2630   48.1280 C   0  0  0  0  0  0  0  0  0  0  0  0
   60.5000   34.3790   48.9370 C   0  0  0  0  0  0  0  0  0  0  0  0
   61.9410   34.0740   49.2440 C   0  0  0  0  0  0  0  0  0  0  0  0
   62.4070   34.1110   50.5690 C   0  0  0  0  0  0  0  0  0  0  0  0
   63.7360   33.7910   50.8590 C   0  0  0  0  0  0  0  0  0  0  0  0
   64.6110   33.4230   49.8280 C   0  0  0  0  0  0  0  0  0  0  0  0
   65.9790   33.0920   50.1280 C   0  0  0  0  0  0  0  0  0  0  0  0
   67.0800   32.8250   50.3680 N   0  0  0  0  0  0  0  0  0  0  0  0
   64.1490   33.3730   48.5080 C   0  0  0  0  0  0  0  0  0  0  0  0
   62.8190   33.6920   48.2160 C   0  0  0  0  0  0  0  0  0  0  0  0
   60.0650   33.2280   46.7340 C   0  0  0  0  0  0  0  0  0  0  0  0
   59.5380   32.1700   45.9880 C   0  0  0  0  0  0  0  0  0  0  0  0
   59.6136   28.9065   47.8482 H   0  0  0  0  0  0  0  0  0  0  0  0
   59.1252   27.1394   47.3297 H   0  0  0  0  0  0  0  0  0  0  0  0
   58.0160   26.3162   43.8420 H   0  0  0  0  0  0  0  0  0  0  0  0
   56.4768   28.7210   43.4423 H   0  0  0  0  0  0  0  0  0  0  0  0
   56.7668   32.1617   45.0221 H   0  0  0  0  0  0  0  0  0  0  0  0
   57.8145   31.9111   43.5847 H   0  0  0  0  0  0  0  0  0  0  0  0
   56.1271   31.2950   43.5847 H   0  0  0  0  0  0  0  0  0  0  0  0
   58.1414   30.3476   48.5225 H   0  0  0  0  0  0  0  0  0  0  0  0
   59.0860   32.2292   49.8589 H   0  0  0  0  0  0  0  0  0  0  0  0
   60.4405   35.3166   48.3648 H   0  0  0  0  0  0  0  0  0  0  0  0
   59.9446   34.4807   49.8810 H   0  0  0  0  0  0  0  0  0  0  0  0
   61.7222   34.3933   51.3822 H   0  0  0  0  0  0  0  0  0  0  0  0
   64.0958   33.8280   51.8978 H   0  0  0  0  0  0  0  0  0  0  0  0
   64.8338   33.0820   47.6979 H   0  0  0  0  0  0  0  0  0  0  0  0
   62.4591   33.6436   47.1777 H   0  0  0  0  0  0  0  0  0  0  0  0
   60.6138   34.0358   46.2278 H   0  0  0  0  0  0  0  0  0  0  0  0
   59.6676   32.1525   44.8958 H   0  0  0  0  0  0  0  0  0  0  0  0
  1  2  2  0
  2  3  1  0
  3  4  2  3
  4  5  1  0
  5  6  2  0
  6  7  1  0
  6  8  1  0
  8  9  1  0
  9 10  2  0
  9 11  1  0
 11 12  1  0
 12 13  2  0
  3 14  1  0
 14 15  2  0
 15 16  1  0
 15 17  1  0
 17 18  1  0
 18 19  2  0
 19 20  1  0
 20 21  2  0
 21 22  1  0
 22 23  1  0
 23 24  2  0
 24 25  1  0
 25 26  2  0
 26 27  1  0
 27 28  3  0
 26 29  1  0
 29 30  2  0
 21 31  1  0
 31 32  2  0
 17  2  1  0
 32 18  1  0
 12  5  1  0
 30 23  1  0
  1 33  1  0
  1 34  1  0
  4 35  1  0
 14 36  1  0
 16 37  1  0
 16 38  1  0
 16 39  1  0
 19 40  1  0
 20 41  1  0
 22 42  1  0
 22 43  1  0
 24 44  1  0
 25 45  1  0
 29 46  1  0
 30 47  1  0
 31 48  1  0
 32 49  1  0
M  CHG  3   7  -1   8  -1  11  -1
M  END
>  <UniqueID>  (62) 
56

>  <SMILES>  (62) 
C=c1c(=Cc2c([O-])[n-]c(=O)[n-]c2=O)cc(C)n1-c1ccc(Cc2ccc(C#N)cc2)cc1

>  <Energy>  (62) 
100.36683511185235

>  <Genealogy>  (62) 
C=c1c(=Cc2c([O-])[n-]c(=O)[n-]c2=O)cc(C)n1-c1ccc(Cc2ccc(C#N)cc2)cc1 (protonated)
C=c1c(=Cc2c([O-])[n-]c(=O)[n-]c2=O)cc(C)n1-c1ccc(Cc2ccc(C#N)cc2)cc1 (3D coordinates assigned)
C=c1c(=Cc2c([O-])[n-]c(=O)[n-]c2=O)cc(C)n1-c1ccc(Cc2ccc(C#N)cc2)cc1 (optimized conformer: 100.36683511185235 kcal/mol)

>  <smiles>  (62) 
C=c1c(=Cc2c(O)[nH]c(=O)[nH]c2=O)cc(C)n1-c1ccc(Cc2ccc(C#N)cc2)cc1

>  <score_type>  (62) 
oracle

>  <origin>  (62) 
adg

>  <m_score__min__energy>  (62) 
-16.690000000000001

>  <m_primary>  (62) 
energy

$$$$
62:0
     RDKit          3D

 49 52  0  0  0  0  0  0  0  0999 V2000
   55.6066   30.3106   51.0593 H   0  0  0  0  0  0  0  0  0  0  0  0
   54.6000   30.4130   51.4910 C   0  0  0  0  0  0  0  0  0  0  0  0
   53.7377   30.6063   50.8360 H   0  0  0  0  0  0  0  0  0  0  0  0
   54.4240   30.3020   52.8170 C   0  0  0  0  0  0  0  0  0  0  0  0
   53.2140   30.4060   53.5210 C   0  0  0  0  0  0  0  0  0  0  0  0
   52.0020   30.8500   53.1370 C   0  0  0  0  0  0  0  0  0  0  0  0
   51.2596   31.0333   53.9277 H   0  0  0  0  0  0  0  0  0  0  0  0
   51.5860   31.1110   51.7490 C   0  0  0  0  0  0  0  0  0  0  0  0
   51.7710   30.2620   50.7200 N   0  0  0  0  0  0  0  0  0  0  0  0
   51.3660   30.9780   49.6490 C   0  0  0  0  0  0  0  0  0  0  0  0
   51.3730   30.5120   48.4800 O   0  0  0  0  0  0  0  0  0  0  0  0
   50.9630   32.2360   49.9280 N   0  0  0  0  0  0  0  0  0  0  0  0
   51.1230   32.3070   51.2580 C   0  0  0  0  0  0  0  0  0  0  0  0
   50.8560   33.4450   52.0100 O   0  0  0  0  0  0  0  0  0  0  0  0
   53.4730   29.9550   54.8060 C   0  0  0  0  0  0  0  0  0  0  0  0
   52.7430   29.8442   55.6214 H   0  0  0  0  0  0  0  0  0  0  0  0
   54.8210   29.6720   54.8660 C   0  0  0  0  0  0  0  0  0  0  0  0
   55.5320   29.1780   56.0890 C   0  0  0  0  0  0  0  0  0  0  0  0
   55.0108   29.5401   56.9875 H   0  0  0  0  0  0  0  0  0  0  0  0
   55.5411   28.0780   56.0887 H   0  0  0  0  0  0  0  0  0  0  0  0
   56.5660   29.5532   56.0887 H   0  0  0  0  0  0  0  0  0  0  0  0
   55.4010   29.8810   53.6630 N   0  0  0  0  0  0  0  0  0  0  0  0
   56.7860   29.6550   53.3450 C   0  0  0  0  0  0  0  0  0  0  0  0
   57.5290   30.6360   52.6730 C   0  0  0  0  0  0  0  0  0  0  0  0
   57.0527   31.5866   52.3911 H   0  0  0  0  0  0  0  0  0  0  0  0
   58.8720   30.4110   52.3600 C   0  0  0  0  0  0  0  0  0  0  0  0
   59.4454   31.1834   51.8265 H   0  0  0  0  0  0  0  0  0  0  0  0
   59.4950   29.2050   52.7220 C   0  0  0  0  0  0  0  0  0  0  0  0
   60.9130   28.9560   52.3780 C   0  0  0  0  0  0  0  0  0  0  0  0
   61.6090   29.8940   51.9040 O   0  0  0  0  0  0  0  0  0  0  0  0
   61.5120   27.6630   52.5730 N   0  0  0  0  0  0  0  0  0  0  0  0
   60.8620   26.4720   51.9970 C   0  0  0  0  0  0  0  0  0  0  0  0
   59.8925   26.3225   52.4947 H   0  0  0  0  0  0  0  0  0  0  0  0
   60.7370   26.6455   50.9180 H   0  0  0  0  0  0  0  0  0  0  0  0
   61.7090   25.2030   52.1740 C   0  0  0  0  0  0  0  0  0  0  0  0
   61.6351   24.8598   53.2165 H   0  0  0  0  0  0  0  0  0  0  0  0
   61.3337   24.4244   51.4936 H   0  0  0  0  0  0  0  0  0  0  0  0
   63.1490   25.4870   51.8460 C   0  0  0  0  0  0  0  0  0  0  0  0
   63.8060   24.6690   51.2220 O   0  0  0  0  0  0  0  0  0  0  0  0
   63.7930   26.7650   52.3110 C   0  0  0  0  0  0  0  0  0  0  0  0
   64.7016   26.5236   52.8821 H   0  0  0  0  0  0  0  0  0  0  0  0
   64.0441   27.3735   51.4297 H   0  0  0  0  0  0  0  0  0  0  0  0
   62.8380   27.5640   53.2020 C   0  0  0  0  0  0  0  0  0  0  0  0
   62.7412   27.0587   54.1742 H   0  0  0  0  0  0  0  0  0  0  0  0
   63.2434   28.5770   53.3413 H   0  0  0  0  0  0  0  0  0  0  0  0
   58.7440   28.2190   53.3830 C   0  0  0  0  0  0  0  0  0  0  0  0
   59.2159   27.2636   53.6560 H   0  0  0  0  0  0  0  0  0  0  0  0
   57.4000   28.4450   53.6960 C   0  0  0  0  0  0  0  0  0  0  0  0
   56.8220   27.6696   54.2201 H   0  0  0  0  0  0  0  0  0  0  0  0
  1  2  1  0
  2  3  1  0
  2  4  2  0
  4  5  1  0
  5  6  2  0
  6  7  1  0
  6  8  1  0
  8  9  1  0
  9 10  1  0
 10 11  2  0
 10 12  1  0
 12 13  1  0
 13 14  1  0
  5 15  1  0
 15 16  1  0
 15 17  2  0
 17 18  1  0
 18 19  1  0
 18 20  1  0
 18 21  1  0
 17 22  1  0
 22 23  1  0
 23 24  2  0
 24 25  1  0
 24 26  1  0
 26 27  1  0
 26 28  2  0
 28 29  1  0
 29 30  2  0
 29 31  1  0
 31 32  1  0
 32 33  1  0
 32 34  1  0
 32 35  1  0
 35 36  1  0
 35 37  1  0
 35 38  1  0
 38 39  2  0
 38 40  1  0
 40 41  1  0
 40 42  1  0
 40 43  1  0
 43 44  1  0
 43 45  1  0
 28 46  1  0
 46 47  1  0
 46 48  2  0
 48 49  1  0
 22  4  1  0
 48 23  1  0
 13  8  2  0
 43 31  1  0
M  CHG  3   9  -1  12  -1  14  -1
M  END
>  <UniqueID>  (63) 
57

>  <SMILES>  (63) 
C=c1/c(=C\c2[n-]c(=O)[n-]c2[O-])cc(C)n1-c1ccc(C(=O)N2CCC(=O)CC2)cc1

>  <Energy>  (63) 
131.44539638168777

>  <Genealogy>  (63) 
C=c1c(=Cc2[n-]c(=O)[n-]c2[O-])cc(C)n1-c1ccc(C(=O)N2CCC(=O)CC2)cc1 (protonated)
C=c1/c(=C\c2[n-]c(=O)[n-]c2[O-])cc(C)n1-c1ccc(C(=O)N2CCC(=O)CC2)cc1 (cis-trans isomerization)
C=c1/c(=C\c2[n-]c(=O)[n-]c2[O-])cc(C)n1-c1ccc(C(=O)N2CCC(=O)CC2)cc1 (3D coordinates assigned)
C=c1/c(=C\c2[n-]c(=O)[n-]c2[O-])cc(C)n1-c1ccc(C(=O)N2CCC(=O)CC2)cc1 (nonaromatic ring conformer: 131.44539638168777 kcal/mol)

>  <smiles>  (63) 
C=c1c(=Cc2[nH]c(=O)[nH]c2O)cc(C)n1-c1ccc(C(=O)N2CCC(=O)CC2)cc1

>  <score_type>  (63) 
oracle

>  <origin>  (63) 
adg

>  <m_score__min__energy>  (63) 
-16.02

>  <m_primary>  (63) 
energy

$$$$
63:0
     RDKit          3D

 51 54  0  0  0  0  0  0  0  0999 V2000
   59.8950   36.1020   46.3730 N   0  0  0  0  0  0  0  0  0  0  0  0
   59.2940   35.0800   45.5810 C   0  0  0  0  0  0  0  0  0  0  0  0
   58.6820   35.4000   44.5260 O   0  0  0  0  0  0  0  0  0  0  0  0
   59.3880   33.6570   45.9890 C   0  0  0  0  0  0  0  0  0  0  0  0
   60.6090   33.1170   46.4290 C   0  0  0  0  0  0  0  0  0  0  0  0
   60.6950   31.7750   46.8120 C   0  0  0  0  0  0  0  0  0  0  0  0
   59.5630   30.9430   46.7430 C   0  0  0  0  0  0  0  0  0  0  0  0
   59.5990   29.5710   47.1680 N   0  0  0  0  0  0  0  0  0  0  0  0
   59.9550   29.1140   48.3380 C   0  0  0  0  0  0  0  0  0  0  0  0
   60.0810   29.9590   49.3890 N   0  0  0  0  0  0  0  0  0  0  0  0
   60.4630   29.5160   50.6060 C   0  0  0  0  0  0  0  0  0  0  0  0
   60.5620   30.3440   51.5520 O   0  0  0  0  0  0  0  0  0  0  0  0
   60.7330   28.1900   50.8000 N   0  0  0  0  0  0  0  0  0  0  0  0
   61.1760   27.6980   52.1210 C   0  0  0  0  0  0  0  0  0  0  0  0
   62.6330   27.3170   52.0790 C   0  0  0  0  0  0  0  0  0  0  0  0
   63.6310   28.3030   52.1490 C   0  0  0  0  0  0  0  0  0  0  0  0
   64.9820   27.9430   52.1410 C   0  0  0  0  0  0  0  0  0  0  0  0
   65.3490   26.5960   52.0660 C   0  0  0  0  0  0  0  0  0  0  0  0
   66.6910   26.2410   52.0590 O   0  0  0  0  0  0  0  0  0  0  0  0
   64.3620   25.6080   51.9990 C   0  0  0  0  0  0  0  0  0  0  0  0
   63.0100   25.9650   52.0070 C   0  0  0  0  0  0  0  0  0  0  0  0
   60.6240   27.3260   49.7390 C   0  0  0  0  0  0  0  0  0  0  0  0
   60.8750   26.0990   49.9050 O   0  0  0  0  0  0  0  0  0  0  0  0
   60.2430   27.7830   48.5010 N   0  0  0  0  0  0  0  0  0  0  0  0
   60.1000   26.8440   47.3660 C   0  0  0  0  0  0  0  0  0  0  0  0
   58.6530   26.7230   46.9600 C   0  0  0  0  0  0  0  0  0  0  0  0
   58.1040   27.6160   46.0260 C   0  0  0  0  0  0  0  0  0  0  0  0
   56.7700   27.4860   45.6250 C   0  0  0  0  0  0  0  0  0  0  0  0
   55.9760   26.4640   46.1520 C   0  0  0  0  0  0  0  0  0  0  0  0
   54.6510   26.3360   45.7530 O   0  0  0  0  0  0  0  0  0  0  0  0
   56.5150   25.5690   47.0810 C   0  0  0  0  0  0  0  0  0  0  0  0
   57.8480   25.6960   47.4840 C   0  0  0  0  0  0  0  0  0  0  0  0
   58.3400   31.4880   46.3380 C   0  0  0  0  0  0  0  0  0  0  0  0
   58.2520   32.8290   45.9530 C   0  0  0  0  0  0  0  0  0  0  0  0
   59.3230   36.8820   46.7660 H   0  0  0  0  0  0  0  0  0  0  0  0
   61.5039   33.7552   46.4723 H   0  0  0  0  0  0  0  0  0  0  0  0
   61.6525   31.3679   47.1690 H   0  0  0  0  0  0  0  0  0  0  0  0
   61.0301   28.4901   52.8702 H   0  0  0  0  0  0  0  0  0  0  0  0
   60.5831   26.8107   52.3880 H   0  0  0  0  0  0  0  0  0  0  0  0
   63.3481   29.3642   52.2104 H   0  0  0  0  0  0  0  0  0  0  0  0
   65.7577   28.7211   52.1938 H   0  0  0  0  0  0  0  0  0  0  0  0
   64.6495   24.5479   51.9399 H   0  0  0  0  0  0  0  0  0  0  0  0
   62.2375   25.1835   51.9567 H   0  0  0  0  0  0  0  0  0  0  0  0
   60.6856   27.2160   46.5124 H   0  0  0  0  0  0  0  0  0  0  0  0
   60.4669   25.8540   47.6748 H   0  0  0  0  0  0  0  0  0  0  0  0
   58.7255   28.4214   45.6077 H   0  0  0  0  0  0  0  0  0  0  0  0
   56.3454   28.1895   44.8936 H   0  0  0  0  0  0  0  0  0  0  0  0
   55.8900   24.7642   47.4953 H   0  0  0  0  0  0  0  0  0  0  0  0
   58.2688   24.9892   48.2143 H   0  0  0  0  0  0  0  0  0  0  0  0
   57.4398   30.8560   46.3223 H   0  0  0  0  0  0  0  0  0  0  0  0
   57.2874   33.2393   45.6196 H   0  0  0  0  0  0  0  0  0  0  0  0
  1  2  1  0
  2  3  2  0
  2  4  1  0
  4  5  2  0
  5  6  1  0
  6  7  2  0
  7  8  1  0
  8  9  2  3
  9 10  1  0
 10 11  1  0
 11 12  2  0
 11 13  1  0
 13 14  1  0
 14 15  1  0
 15 16  2  0
 16 17  1  0
 17 18  2  0
 18 19  1  0
 18 20  1  0
 20 21  2  0
 13 22  1  0
 22 23  2  0
 22 24  1  0
 24 25  1  0
 25 26  1  0
 26 27  2  0
 27 28  1  0
 28 29  2  0
 29 30  1  0
 29 31  1  0
 31 32  2  0
  7 33  1  0
 33 34  2  0
 34  4  1  0
 24  9  1  0
 32 26  1  0
 21 15  1  0
  1 35  1  0
  5 36  1  0
  6 37  1  0
 14 38  1  0
 14 39  1  0
 16 40  1  0
 17 41  1  0
 20 42  1  0
 21 43  1  0
 25 44  1  0
 25 45  1  0
 27 46  1  0
 28 47  1  0
 31 48  1  0
 32 49  1  0
 33 50  1  0
 34 51  1  0
M  CHG  4   1  -1  10  -1  19  -1  30  -1
M  END
>  <UniqueID>  (64) 
58

>  <SMILES>  (64) 
[NH-]C(=O)c1ccc(N=c2[n-]c(=O)n(Cc3ccc([O-])cc3)c(=O)n2Cc2ccc([O-])cc2)cc1

>  <Energy>  (64) 
68.9103032395919

>  <Genealogy>  (64) 
[NH-]C(=O)c1ccc(N=c2[n-]c(=O)n(Cc3ccc([O-])cc3)c(=O)n2Cc2ccc([O-])cc2)cc1 (protonated)
[NH-]C(=O)c1ccc(N=c2[n-]c(=O)n(Cc3ccc([O-])cc3)c(=O)n2Cc2ccc([O-])cc2)cc1 (3D coordinates assigned)
[NH-]C(=O)c1ccc(N=c2[n-]c(=O)n(Cc3ccc([O-])cc3)c(=O)n2Cc2ccc([O-])cc2)cc1 (optimized conformer: 68.9103032395919 kcal/mol)

>  <smiles>  (64) 
NC(=O)c1ccc(N=c2[nH]c(=O)n(Cc3ccc(O)cc3)c(=O)n2Cc2ccc(O)cc2)cc1

>  <score_type>  (64) 
oracle

>  <origin>  (64) 
adg

>  <m_score__min__energy>  (64) 
-14.380000000000001

>  <m_primary>  (64) 
energy

$$$$
64:0
     RDKit          3D

 51 55  0  0  0  0  0  0  0  0999 V2000
   55.3440   29.7620   44.8440 O   0  0  0  0  0  0  0  0  0  0  0  0
   56.4970   29.2560   44.8640 C   0  0  0  0  0  0  0  0  0  0  0  0
   57.6720   30.0810   44.4140 C   0  0  0  0  0  0  0  0  0  0  0  0
   58.2540   30.8290   45.5340 N   0  0  0  0  0  0  0  0  0  0  0  0
   58.4830   30.3490   46.7820 C   0  0  0  0  0  0  0  0  0  0  0  0
   58.8910   31.3720   47.6240 C   0  0  0  0  0  0  0  0  0  0  0  0
   59.2320   31.2330   49.3800 S   0  0  0  0  0  0  0  0  0  0  0  0
   60.9700   30.7130   49.1590 C   0  0  0  0  0  0  0  0  0  0  0  0
   61.8090   31.8500   48.6410 C   0  0  0  0  0  0  0  0  0  0  0  0
   62.6390   31.6610   47.5220 C   0  0  0  0  0  0  0  0  0  0  0  0
   63.4530   32.7020   47.0630 C   0  0  0  0  0  0  0  0  0  0  0  0
   63.4470   33.9360   47.7200 C   0  0  0  0  0  0  0  0  0  0  0  0
   62.6250   34.1310   48.8360 C   0  0  0  0  0  0  0  0  0  0  0  0
   61.8080   33.0940   49.2960 C   0  0  0  0  0  0  0  0  0  0  0  0
   58.8940   32.5180   46.8620 C   0  0  0  0  0  0  0  0  0  0  0  0
   59.1650   33.8410   47.2070 C   0  0  0  0  0  0  0  0  0  0  0  0
   59.0210   34.8220   46.2120 C   0  0  0  0  0  0  0  0  0  0  0  0
   58.6020   34.4640   44.9120 C   0  0  0  0  0  0  0  0  0  0  0  0
   58.3250   33.1210   44.5940 C   0  0  0  0  0  0  0  0  0  0  0  0
   58.4900   32.1600   45.5970 C   0  0  0  0  0  0  0  0  0  0  0  0
   56.6760   27.8780   45.3470 C   0  0  0  0  0  0  0  0  0  0  0  0
   57.8340   27.3880   45.4400 O   0  0  0  0  0  0  0  0  0  0  0  0
   55.5240   27.0870   45.6620 N   0  0  0  0  0  0  0  0  0  0  0  0
   55.5190   25.6940   46.0010 C   0  0  0  0  0  0  0  0  0  0  0  0
   54.4180   24.9010   45.5890 C   0  0  0  0  0  0  0  0  0  0  0  0
   54.3370   23.5410   45.9390 C   0  0  0  0  0  0  0  0  0  0  0  0
   55.3710   23.0130   46.7080 C   0  0  0  0  0  0  0  0  0  0  0  0
   55.5070   21.7650   47.1730 N   0  0  0  0  0  0  0  0  0  0  0  0
   56.6750   21.8120   47.8600 C   0  0  0  0  0  0  0  0  0  0  0  0
   57.1580   20.8150   48.4610 O   0  0  0  0  0  0  0  0  0  0  0  0
   57.2810   23.0270   47.8560 N   0  0  0  0  0  0  0  0  0  0  0  0
   56.4320   23.7670   47.1170 C   0  0  0  0  0  0  0  0  0  0  0  0
   56.5430   25.1170   46.7930 C   0  0  0  0  0  0  0  0  0  0  0  0
   58.4379   29.4142   43.9911 H   0  0  0  0  0  0  0  0  0  0  0  0
   57.3240   30.8001   43.6578 H   0  0  0  0  0  0  0  0  0  0  0  0
   58.3622   29.2979   47.0830 H   0  0  0  0  0  0  0  0  0  0  0  0
   61.3724   30.3805   50.1273 H   0  0  0  0  0  0  0  0  0  0  0  0
   61.0009   29.8918   48.4277 H   0  0  0  0  0  0  0  0  0  0  0  0
   62.6483   30.6901   47.0051 H   0  0  0  0  0  0  0  0  0  0  0  0
   64.0979   32.5496   46.1850 H   0  0  0  0  0  0  0  0  0  0  0  0
   64.0884   34.7539   47.3598 H   0  0  0  0  0  0  0  0  0  0  0  0
   62.6218   35.1023   49.3522 H   0  0  0  0  0  0  0  0  0  0  0  0
   61.1627   33.2518   50.1727 H   0  0  0  0  0  0  0  0  0  0  0  0
   59.4815   34.1084   48.2260 H   0  0  0  0  0  0  0  0  0  0  0  0
   59.2358   35.8749   46.4469 H   0  0  0  0  0  0  0  0  0  0  0  0
   58.4911   35.2410   44.1413 H   0  0  0  0  0  0  0  0  0  0  0  0
   57.9887   32.8356   43.5863 H   0  0  0  0  0  0  0  0  0  0  0  0
   53.6167   25.3554   44.9878 H   0  0  0  0  0  0  0  0  0  0  0  0
   53.4892   22.9182   45.6175 H   0  0  0  0  0  0  0  0  0  0  0  0
   54.8680   20.9520   47.0460 H   0  0  0  0  0  0  0  0  0  0  0  0
   57.3977   25.7160   47.1405 H   0  0  0  0  0  0  0  0  0  0  0  0
  1  2  2  0
  2  3  1  0
  3  4  1  0
  4  5  1  0
  5  6  2  0
  6  7  1  0
  7  8  1  0
  8  9  1  0
  9 10  2  0
 10 11  1  0
 11 12  2  0
 12 13  1  0
 13 14  2  0
  6 15  1  0
 15 16  2  0
 16 17  1  0
 17 18  2  0
 18 19  1  0
 19 20  2  0
  2 21  1  0
 21 22  2  0
 21 23  1  0
 23 24  1  0
 24 25  2  0
 25 26  1  0
 26 27  2  0
 27 28  1  0
 28 29  1  0
 29 30  2  0
 29 31  1  0
 31 32  1  0
 32 33  2  0
 20  4  1  0
 33 24  1  0
 14  9  1  0
 20 15  1  0
 32 27  1  0
  3 34  1  0
  3 35  1  0
  5 36  1  0
  8 37  1  0
  8 38  1  0
 10 39  1  0
 11 40  1  0
 12 41  1  0
 13 42  1  0
 14 43  1  0
 16 44  1  0
 17 45  1  0
 18 46  1  0
 19 47  1  0
 25 48  1  0
 26 49  1  0
 28 50  1  0
 33 51  1  0
M  CHG  2  23  -1  31  -1
M  END
>  <UniqueID>  (65) 
59

>  <SMILES>  (65) 
O=C(Cn1cc(SCc2ccccc2)c2ccccc21)C(=O)[N-]c1ccc2[nH]c(=O)[n-]c2c1

>  <Energy>  (65) 
125.15845127718727

>  <Genealogy>  (65) 
O=C(Cn1cc(SCc2ccccc2)c2ccccc21)C(=O)[N-]c1ccc2[nH]c(=O)[n-]c2c1 (protonated)
O=C(Cn1cc(SCc2ccccc2)c2ccccc21)C(=O)[N-]c1ccc2[nH]c(=O)[n-]c2c1 (3D coordinates assigned)
O=C(Cn1cc(SCc2ccccc2)c2ccccc21)C(=O)[N-]c1ccc2[nH]c(=O)[n-]c2c1 (optimized conformer: 125.15845127718727 kcal/mol)

>  <smiles>  (65) 
O=C(Cn1cc(SCc2ccccc2)c2ccccc21)C(=O)Nc1ccc2[nH]c(=O)[nH]c2c1

>  <score_type>  (65) 
oracle

>  <origin>  (65) 
adg

>  <m_score__min__energy>  (65) 
-13.31

>  <m_primary>  (65) 
energy

$$$$
65:0
     RDKit          3D

 28 29  0  0  0  0  0  0  0  0999 V2000
   55.1810   27.9740   44.8800 H   0  0  0  0  0  0  0  0  0  0  0  0
   55.1420   28.9850   44.8340 O   0  0  0  0  0  0  0  0  0  0  0  0
   56.2650   29.7650   44.5480 C   0  0  0  0  0  0  0  0  0  0  0  0
   56.1090   31.1440   44.3800 C   0  0  0  0  0  0  0  0  0  0  0  0
   55.1122   31.5996   44.4742 H   0  0  0  0  0  0  0  0  0  0  0  0
   57.2160   31.9430   44.0930 C   0  0  0  0  0  0  0  0  0  0  0  0
   57.0991   33.0289   43.9620 H   0  0  0  0  0  0  0  0  0  0  0  0
   58.4720   31.3500   43.9740 C   0  0  0  0  0  0  0  0  0  0  0  0
   59.3524   31.9689   43.7463 H   0  0  0  0  0  0  0  0  0  0  0  0
   58.6100   30.0080   44.1390 N   0  0  0  0  0  0  0  0  0  0  0  0
   57.5490   29.1990   44.4220 C   0  0  0  0  0  0  0  0  0  0  0  0
   57.7070   27.9140   44.5750 N   0  0  0  0  0  0  0  0  0  0  0  0
   58.3820   27.2460   45.6530 C   0  0  0  0  0  0  0  0  0  0  0  0
   59.6370   27.1180   45.6600 O   0  0  0  0  0  0  0  0  0  0  0  0
   57.5750   26.6470   46.7600 C   0  0  0  0  0  0  0  0  0  0  0  0
   58.2450   26.3556   47.5823 H   0  0  0  0  0  0  0  0  0  0  0  0
   56.8459   27.3894   47.1168 H   0  0  0  0  0  0  0  0  0  0  0  0
   56.8380   25.4310   46.2630 C   0  0  0  0  0  0  0  0  0  0  0  0
   57.5280   24.2160   46.1060 C   0  0  0  0  0  0  0  0  0  0  0  0
   58.5939   24.1539   46.3707 H   0  0  0  0  0  0  0  0  0  0  0  0
   56.8660   23.0860   45.6150 C   0  0  0  0  0  0  0  0  0  0  0  0
   57.4101   22.1367   45.5019 H   0  0  0  0  0  0  0  0  0  0  0  0
   55.5150   23.1610   45.2680 C   0  0  0  0  0  0  0  0  0  0  0  0
   54.9952   22.2703   44.8853 H   0  0  0  0  0  0  0  0  0  0  0  0
   54.8240   24.3670   45.4070 C   0  0  0  0  0  0  0  0  0  0  0  0
   53.7610   24.4240   45.1300 H   0  0  0  0  0  0  0  0  0  0  0  0
   55.4780   25.5030   45.8970 C   0  0  0  0  0  0  0  0  0  0  0  0
   54.7730   26.6960   46.0160 O   0  0  0  0  0  0  0  0  0  0  0  0
  1  2  1  0
  2  3  1  0
  3  4  2  0
  4  5  1  0
  4  6  1  0
  6  7  1  0
  6  8  2  0
  8  9  1  0
  8 10  1  0
 10 11  1  0
 11 12  2  0
 12 13  1  0
 13 14  2  0
 13 15  1  0
 15 16  1  0
 15 17  1  0
 15 18  1  0
 18 19  2  0
 19 20  1  0
 19 21  1  0
 21 22  1  0
 21 23  2  0
 23 24  1  0
 23 25  1  0
 25 26  1  0
 25 27  2  0
 27 28  1  0
 11  3  1  0
 27 18  1  0
M  CHG  2  10  -1  28  -1
M  END
>  <UniqueID>  (66) 
60

>  <SMILES>  (66) 
O=C(Cc1ccccc1[O-])/N=c1\[n-]cccc1O

>  <Energy>  (66) 
31.063123256733803

>  <Genealogy>  (66) 
O=C(Cc1ccccc1[O-])N=c1[n-]cccc1O (protonated)
O=C(Cc1ccccc1[O-])/N=c1\[n-]cccc1O (cis-trans isomerization)
O=C(Cc1ccccc1[O-])/N=c1\[n-]cccc1O (3D coordinates assigned)
O=C(Cc1ccccc1[O-])/N=c1\[n-]cccc1O (optimized conformer: 31.063123256733803 kcal/mol)

>  <smiles>  (66) 
O=C(Cc1ccccc1O)N=c1[nH]cccc1O

>  <score_type>  (66) 
oracle

>  <origin>  (66) 
adg

>  <m_score__min__energy>  (66) 
-11.67

>  <m_primary>  (66) 
energy

$$$$
66:0
     RDKit          3D

 45 48  0  0  0  0  0  0  0  0999 V2000
   60.0030   27.1158   46.1717 H   0  0  0  0  0  0  0  0  0  0  0  0
   58.9130   26.9900   46.0940 C   0  0  0  0  0  0  0  0  0  0  0  0
   58.1330   28.0410   45.7300 N   0  0  0  0  0  0  0  0  0  0  0  0
   56.7800   27.9450   45.6180 C   0  0  0  0  0  0  0  0  0  0  0  0
   56.1290   28.9990   45.2010 N   0  0  0  0  0  0  0  0  0  0  0  0
   56.6580   30.2770   44.8180 C   0  0  0  0  0  0  0  0  0  0  0  0
   55.8810   31.1470   44.3450 O   0  0  0  0  0  0  0  0  0  0  0  0
   58.0400   30.6080   45.0180 N   0  0  0  0  0  0  0  0  0  0  0  0
   58.5620   31.2750   46.1780 C   0  0  0  0  0  0  0  0  0  0  0  0
   58.7690   30.5640   47.3710 C   0  0  0  0  0  0  0  0  0  0  0  0
   58.4438   29.5157   47.4437 H   0  0  0  0  0  0  0  0  0  0  0  0
   59.3820   31.1730   48.4630 C   0  0  0  0  0  0  0  0  0  0  0  0
   59.5369   30.6021   49.3904 H   0  0  0  0  0  0  0  0  0  0  0  0
   59.8010   32.5010   48.3900 C   0  0  0  0  0  0  0  0  0  0  0  0
   60.5070   33.0420   49.4690 O   0  0  0  0  0  0  0  0  0  0  0  0
   61.9060   32.9910   49.5790 C   0  0  0  0  0  0  0  0  0  0  0  0
   62.4840   33.1420   50.8450 C   0  0  0  0  0  0  0  0  0  0  0  0
   61.8413   33.2995   51.7237 H   0  0  0  0  0  0  0  0  0  0  0  0
   63.8730   33.0940   51.0000 C   0  0  0  0  0  0  0  0  0  0  0  0
   64.3175   33.2286   51.9971 H   0  0  0  0  0  0  0  0  0  0  0  0
   64.7020   32.8750   49.8900 C   0  0  0  0  0  0  0  0  0  0  0  0
   66.1940   32.8630   50.0500 C   0  0  0  0  0  0  0  0  0  0  0  0
   66.4480   32.8610   51.1203 H   0  0  0  0  0  0  0  0  0  0  0  0
   66.6066   31.9615   49.5735 H   0  0  0  0  0  0  0  0  0  0  0  0
   66.6211   33.7577   49.5735 H   0  0  0  0  0  0  0  0  0  0  0  0
   64.1280   32.7360   48.6170 C   0  0  0  0  0  0  0  0  0  0  0  0
   64.7728   32.5880   47.7382 H   0  0  0  0  0  0  0  0  0  0  0  0
   62.7400   32.7850   48.4620 C   0  0  0  0  0  0  0  0  0  0  0  0
   62.2963   32.6621   47.4630 H   0  0  0  0  0  0  0  0  0  0  0  0
   59.5290   33.2620   47.2340 C   0  0  0  0  0  0  0  0  0  0  0  0
   59.8850   34.6220   47.1610 C   0  0  0  0  0  0  0  0  0  0  0  0
   60.3674   35.1074   48.0222 H   0  0  0  0  0  0  0  0  0  0  0  0
   59.6300   35.3590   46.0030 C   0  0  0  0  0  0  0  0  0  0  0  0
   59.9129   36.4209   45.9554 H   0  0  0  0  0  0  0  0  0  0  0  0
   59.0180   34.7530   44.9070 C   0  0  0  0  0  0  0  0  0  0  0  0
   58.8212   35.3382   43.9966 H   0  0  0  0  0  0  0  0  0  0  0  0
   58.6540   33.4070   44.9600 C   0  0  0  0  0  0  0  0  0  0  0  0
   58.1722   32.9371   44.0899 H   0  0  0  0  0  0  0  0  0  0  0  0
   58.8990   32.6450   46.1200 C   0  0  0  0  0  0  0  0  0  0  0  0
   56.1540   26.7190   45.9590 C   0  0  0  0  0  0  0  0  0  0  0  0
   54.7720   26.5790   46.0100 O   0  0  0  0  0  0  0  0  0  0  0  0
   56.9480   25.6220   46.3080 C   0  0  0  0  0  0  0  0  0  0  0  0
   56.4776   24.6539   46.5348 H   0  0  0  0  0  0  0  0  0  0  0  0
   58.3340   25.7530   46.3690 C   0  0  0  0  0  0  0  0  0  0  0  0
   58.9635   24.8899   46.6312 H   0  0  0  0  0  0  0  0  0  0  0  0
  1  2  1  0
  2  3  1  0
  3  4  1  0
  4  5  2  0
  5  6  1  0
  6  7  2  0
  6  8  1  0
  8  9  1  0
  9 10  2  0
 10 11  1  0
 10 12  1  0
 12 13  1  0
 12 14  2  0
 14 15  1  0
 15 16  1  0
 16 17  2  0
 17 18  1  0
 17 19  1  0
 19 20  1  0
 19 21  2  0
 21 22  1  0
 22 23  1  0
 22 24  1  0
 22 25  1  0
 21 26  1  0
 26 27  1  0
 26 28  2  0
 28 29  1  0
 14 30  1  0
 30 31  2  0
 31 32  1  0
 31 33  1  0
 33 34  1  0
 33 35  2  0
 35 36  1  0
 35 37  1  0
 37 38  1  0
 37 39  2  0
  4 40  1  0
 40 41  1  0
 40 42  2  0
 42 43  1  0
 42 44  1  0
 44 45  1  0
 44  2  2  0
 39  9  1  0
 28 16  1  0
 39 30  1  0
M  CHG  3   3  -1   8  -1  41  -1
M  END
>  <UniqueID>  (67) 
61

>  <SMILES>  (67) 
Cc1ccc(Oc2ccc([N-]C(=O)/N=c3/[n-]cccc3[O-])c3ccccc23)cc1

>  <Energy>  (67) 
77.09099941011148

>  <Genealogy>  (67) 
Cc1ccc(Oc2ccc([N-]C(=O)N=c3[n-]cccc3[O-])c3ccccc23)cc1 (protonated)
Cc1ccc(Oc2ccc([N-]C(=O)/N=c3/[n-]cccc3[O-])c3ccccc23)cc1 (cis-trans isomerization)
Cc1ccc(Oc2ccc([N-]C(=O)/N=c3/[n-]cccc3[O-])c3ccccc23)cc1 (3D coordinates assigned)
Cc1ccc(Oc2ccc([N-]C(=O)/N=c3/[n-]cccc3[O-])c3ccccc23)cc1 (optimized conformer: 77.09099941011148 kcal/mol)

>  <smiles>  (67) 
Cc1ccc(Oc2ccc(NC(=O)N=c3[nH]cccc3O)c3ccccc23)cc1

>  <score_type>  (67) 
oracle

>  <origin>  (67) 
adg

>  <m_score__min__energy>  (67) 
-15.81

>  <m_primary>  (67) 
energy

$$$$
67:0
     RDKit          3D

 31 32  0  0  0  0  0  0  0  0999 V2000
   59.1600   34.7620   45.2370 C   0  0  0  0  0  0  0  0  0  0  0  0
   58.0910   33.3430   45.1390 S   0  0  0  0  0  0  0  0  0  0  0  0
   56.6750   33.7690   44.8700 O   0  0  0  0  0  0  0  0  0  0  0  0
   58.5550   32.4690   44.0090 O   0  0  0  0  0  0  0  0  0  0  0  0
   58.1670   32.4320   46.6140 N   0  0  0  0  0  0  0  0  0  0  0  0
   58.4470   31.0290   46.7300 C   0  0  0  0  0  0  0  0  0  0  0  0
   59.3590   30.5370   47.6810 C   0  0  0  0  0  0  0  0  0  0  0  0
   59.6160   29.1700   47.7720 C   0  0  0  0  0  0  0  0  0  0  0  0
   58.9670   28.2760   46.9230 C   0  0  0  0  0  0  0  0  0  0  0  0
   58.0480   28.7380   45.9670 C   0  0  0  0  0  0  0  0  0  0  0  0
   57.3430   27.7390   45.0790 C   0  0  0  0  0  0  0  0  0  0  0  0
   57.2060   26.4020   45.7750 C   0  0  0  0  0  0  0  0  0  0  0  0
   55.9560   25.9540   46.2400 C   0  0  0  0  0  0  0  0  0  0  0  0
   54.8100   26.7150   46.0450 O   0  0  0  0  0  0  0  0  0  0  0  0
   55.8570   24.7650   46.8880 N   0  0  0  0  0  0  0  0  0  0  0  0
   56.9490   23.9890   47.1010 C   0  0  0  0  0  0  0  0  0  0  0  0
   56.8320   22.8910   47.7040 O   0  0  0  0  0  0  0  0  0  0  0  0
   58.1670   24.3950   46.6650 N   0  0  0  0  0  0  0  0  0  0  0  0
   58.3220   25.5760   46.0120 C   0  0  0  0  0  0  0  0  0  0  0  0
   59.4710   25.9150   45.6220 O   0  0  0  0  0  0  0  0  0  0  0  0
   57.7900   30.1240   45.8690 C   0  0  0  0  0  0  0  0  0  0  0  0
   56.8860   30.5900   44.9110 O   0  0  0  0  0  0  0  0  0  0  0  0
   59.3459   35.0088   46.2927 H   0  0  0  0  0  0  0  0  0  0  0  0
   60.1148   34.5368   44.7394 H   0  0  0  0  0  0  0  0  0  0  0  0
   58.6801   35.6177   44.7394 H   0  0  0  0  0  0  0  0  0  0  0  0
   59.8729   31.2357   48.3575 H   0  0  0  0  0  0  0  0  0  0  0  0
   60.3338   28.7957   48.5168 H   0  0  0  0  0  0  0  0  0  0  0  0
   59.1763   27.1990   47.0023 H   0  0  0  0  0  0  0  0  0  0  0  0
   56.3415   28.1207   44.8314 H   0  0  0  0  0  0  0  0  0  0  0  0
   57.9376   27.6002   44.1640 H   0  0  0  0  0  0  0  0  0  0  0  0
   56.7310   31.5750   44.7380 H   0  0  0  0  0  0  0  0  0  0  0  0
  1  2  1  0
  2  3  2  0
  2  4  2  0
  2  5  1  0
  5  6  1  0
  6  7  2  0
  7  8  1  0
  8  9  2  0
  9 10  1  0
 10 11  1  0
 11 12  1  0
 12 13  2  0
 13 14  1  0
 13 15  1  0
 15 16  1  0
 16 17  2  0
 16 18  1  0
 18 19  1  0
 19 20  2  0
 10 21  2  0
 21 22  1  0
 21  6  1  0
 19 12  1  0
  1 23  1  0
  1 24  1  0
  1 25  1  0
  7 26  1  0
  8 27  1  0
  9 28  1  0
 11 29  1  0
 11 30  1  0
 22 31  1  0
M  CHG  4   5  -1  14  -1  15  -1  18  -1
M  END
>  <UniqueID>  (68) 
62

>  <SMILES>  (68) 
CS(=O)(=O)[N-]c1cccc(Cc2c([O-])[n-]c(=O)[n-]c2=O)c1O

>  <Energy>  (68) 
34.27894225679176

>  <Genealogy>  (68) 
CS(=O)(=O)[N-]c1cccc(Cc2c([O-])[n-]c(=O)[n-]c2=O)c1O (protonated)
CS(=O)(=O)[N-]c1cccc(Cc2c([O-])[n-]c(=O)[n-]c2=O)c1O (3D coordinates assigned)
CS(=O)(=O)[N-]c1cccc(Cc2c([O-])[n-]c(=O)[n-]c2=O)c1O (optimized conformer: 34.27894225679176 kcal/mol)

>  <smiles>  (68) 
CS(=O)(=O)Nc1cccc(Cc2c(O)[nH]c(=O)[nH]c2=O)c1O

>  <score_type>  (68) 
oracle

>  <origin>  (68) 
adg

>  <m_score__min__energy>  (68) 
-16.100000000000001

>  <m_primary>  (68) 
energy

$$$$
68:0
     RDKit          3D

 54 57  0  0  1  0  0  0  0  0999 V2000
   64.1530   32.7820   49.7880 C   0  0  0  0  0  0  0  0  0  0  0  0
   63.2650   33.1760   48.6380 C   0  0  0  0  0  0  0  0  0  0  0  0
   63.8090   33.3850   47.3930 C   0  0  0  0  0  0  0  0  0  0  0  0
   62.9660   33.7470   46.3670 C   0  0  0  0  0  0  0  0  0  0  0  0
   61.6320   33.8920   46.6030 C   0  0  0  0  0  0  0  0  0  0  0  0
   61.0980   33.6770   47.8700 C   0  0  0  0  0  0  0  0  0  0  0  0
   59.6880   33.8750   47.9510 N   0  0  0  0  0  0  0  0  0  0  0  0
   58.9890   33.5870   46.9040 C   0  0  0  0  0  0  0  0  0  0  0  0
   58.8000   32.2680   46.5910 N   0  0  0  0  0  0  0  0  0  0  0  0
   58.0530   31.9560   45.5080 C   0  0  0  0  0  0  0  0  0  0  0  0
   57.7920   30.5530   45.2630 C   0  0  0  0  0  0  0  0  0  0  0  0
   56.6520   30.1180   44.8740 O   0  0  0  0  0  0  0  0  0  0  0  0
   58.7920   29.5290   45.4440 N   0  0  0  0  0  0  0  0  0  0  0  0
   58.3510   28.2010   45.2150 C   0  0  0  0  0  0  0  0  0  0  0  0
   57.8150   27.3480   46.1090 C   0  0  0  0  0  0  0  0  0  0  0  0
   57.4320   26.0740   45.6740 C   0  0  0  0  0  0  0  0  0  0  0  0
   57.5750   25.6560   44.3820 C   0  0  0  0  0  0  0  0  0  0  0  0
   57.2100   24.3590   43.8470 C   0  0  0  0  0  0  0  0  0  0  0  0
   56.7690   24.3310   42.6550 O   0  0  0  0  0  0  0  0  0  0  0  0
   57.3350   23.1670   44.5970 N   0  0  0  0  0  0  0  0  0  0  0  0
   56.9640   21.8890   44.0130 C   0  0  0  0  0  0  0  0  0  0  0  0
   57.3310   20.8180   45.0310 C   0  0  0  0  0  0  0  0  0  0  0  0
   56.6660   21.0450   46.2230 O   0  0  0  0  0  0  0  0  0  0  0  0
   56.9250   22.2660   46.8010 C   0  0  0  0  0  0  0  0  0  0  0  0
   57.8310   23.1550   45.9610 C   0  0  0  0  0  0  0  0  0  0  0  0
   58.1330   26.5490   43.4520 C   0  0  0  0  0  0  0  0  0  0  0  0
   58.5020   27.7790   43.8790 C   0  0  0  0  0  0  0  0  0  0  0  0
   57.4670   32.8870   44.6910 C   0  0  0  0  0  0  0  0  0  0  0  0
   57.6840   34.2270   45.0400 C   0  0  0  0  0  0  0  0  0  0  0  0
   58.4360   34.5370   46.1340 N   0  0  0  0  0  0  0  0  0  0  0  0
   61.9090   33.3140   48.9130 C   0  0  0  0  0  0  0  0  0  0  0  0
   63.6451   33.0073   50.7374 H   0  0  0  0  0  0  0  0  0  0  0  0
   64.3671   31.7044   49.7335 H   0  0  0  0  0  0  0  0  0  0  0  0
   65.0956   33.3463   49.7335 H   0  0  0  0  0  0  0  0  0  0  0  0
   64.8890   33.2661   47.2213 H   0  0  0  0  0  0  0  0  0  0  0  0
   63.3687   33.9190   45.3579 H   0  0  0  0  0  0  0  0  0  0  0  0
   60.9657   34.1840   45.7779 H   0  0  0  0  0  0  0  0  0  0  0  0
   59.7680   29.7810   45.7280 H   0  0  0  0  0  0  0  0  0  0  0  0
   57.6810   27.6464   47.1592 H   0  0  0  0  0  0  0  0  0  0  0  0
   56.9961   25.3781   46.4060 H   0  0  0  0  0  0  0  0  0  0  0  0
   55.8831   21.8646   43.8104 H   0  0  0  0  0  0  0  0  0  0  0  0
   57.4871   21.7236   43.0596 H   0  0  0  0  0  0  0  0  0  0  0  0
   57.0466   19.8306   44.6384 H   0  0  0  0  0  0  0  0  0  0  0  0
   58.4154   20.8514   45.2125 H   0  0  0  0  0  0  0  0  0  0  0  0
   55.9692   22.7885   46.9542 H   0  0  0  0  0  0  0  0  0  0  0  0
   57.4501   22.0711   47.7477 H   0  0  0  0  0  0  0  0  0  0  0  0
   57.8253   24.1777   46.3661 H   0  0  0  0  0  0  0  0  0  0  0  0
   58.8606   22.7683   45.9824 H   0  0  0  0  0  0  0  0  0  0  0  0
   58.2669   26.2551   42.4005 H   0  0  0  0  0  0  0  0  0  0  0  0
   58.9386   28.4795   43.1519 H   0  0  0  0  0  0  0  0  0  0  0  0
   56.8643   32.6008   43.8164 H   0  0  0  0  0  0  0  0  0  0  0  0
   57.2464   35.0306   44.4295 H   0  0  0  0  0  0  0  0  0  0  0  0
   58.5790   35.5510   46.3560 H   0  0  0  0  0  0  0  0  0  0  0  0
   61.5059   33.1398   49.9215 H   0  0  0  0  0  0  0  0  0  0  0  0
  1  2  1  0
  2  3  2  0
  3  4  1  0
  4  5  2  0
  5  6  1  0
  6  7  1  0
  7  8  2  0
  8  9  1  0
  9 10  2  0
 10 11  1  0
 11 12  2  0
 11 13  1  0
 13 14  1  0
 14 15  2  0
 15 16  1  0
 16 17  2  0
 17 18  1  0
 18 19  2  0
 18 20  1  0
 20 21  1  0
 21 22  1  0
 22 23  1  0
 23 24  1  0
 24 25  1  0
 17 26  1  0
 26 27  2  0
 10 28  1  0
 28 29  2  0
 29 30  1  0
  6 31  2  0
 31  2  1  0
 30  8  1  0
 27 14  1  0
 25 20  1  0
  1 32  1  0
  1 33  1  0
  1 34  1  0
  3 35  1  0
  4 36  1  0
  5 37  1  0
 13 38  1  0
 15 39  1  0
 16 40  1  0
 21 41  1  0
 21 42  1  0
 22 43  1  0
 22 44  1  0
 24 45  1  0
 24 46  1  0
 25 47  1  0
 25 48  1  0
 26 49  1  0
 27 50  1  0
 28 51  1  0
 29 52  1  0
 30 53  1  0
 31 54  1  0
M  END
>  <smiles>  (69) 
Cc1cccc(N=c2nc(C(=O)Nc3ccc(C(=O)N4CCOCC4)cc3)cc[nH]2)c1

>  <score_type>  (69) 
oracle

>  <origin>  (69) 
adg

>  <m_score__min__energy>  (69) 
-9.4199999999999999

>  <m_primary>  (69) 
energy

$$$$
69:0
     RDKit          3D

 46 47  0  0  0  0  0  0  0  0999 V2000
   57.0800   34.0730   44.8610 C   0  0  0  0  0  0  0  0  0  0  0  0
   57.9250   34.2660   45.8750 C   0  0  0  0  0  0  0  0  0  0  0  0
   57.9110   33.3640   47.0770 C   0  0  0  0  0  0  0  0  0  0  0  0
   59.0460   33.6740   47.9480 N   0  0  0  0  0  0  0  0  0  0  0  0
   60.3670   32.6020   47.5920 S   0  0  0  0  0  0  0  0  0  0  0  0
   61.6180   33.0670   48.2860 O   0  0  0  0  0  0  0  0  0  0  0  0
   60.6130   32.5910   46.1090 O   0  0  0  0  0  0  0  0  0  0  0  0
   59.9600   30.9740   48.1580 C   0  0  0  0  0  0  0  0  0  0  0  0
   60.0890   29.8990   47.2610 C   0  0  0  0  0  0  0  0  0  0  0  0
   59.7950   28.5930   47.6600 C   0  0  0  0  0  0  0  0  0  0  0  0
   59.9800   27.2300   46.5030 S   0  0  0  0  0  0  0  0  0  0  0  0
   58.2010   26.9340   46.3510 C   0  0  0  0  0  0  0  0  0  0  0  0
   57.3170   27.8680   45.7610 C   0  0  0  0  0  0  0  0  0  0  0  0
   57.8010   29.1750   45.1520 C   0  0  0  0  0  0  0  0  0  0  0  0
   57.6590   29.2680   43.6800 N   0  0  0  0  0  0  0  0  0  0  0  0
   57.7550   27.9700   42.9900 C   0  0  0  0  0  0  0  0  0  0  0  0
   56.4710   30.0210   43.2520 C   0  0  0  0  0  0  0  0  0  0  0  0
   56.0060   27.5330   45.6220 N   0  0  0  0  0  0  0  0  0  0  0  0
   55.5170   26.3490   46.0670 C   0  0  0  0  0  0  0  0  0  0  0  0
   54.2930   26.0870   45.9410 O   0  0  0  0  0  0  0  0  0  0  0  0
   56.3490   25.4440   46.6370 N   0  0  0  0  0  0  0  0  0  0  0  0
   57.6720   25.7030   46.7770 C   0  0  0  0  0  0  0  0  0  0  0  0
   58.4190   24.8240   47.2810 O   0  0  0  0  0  0  0  0  0  0  0  0
   59.3160   28.3560   48.9490 C   0  0  0  0  0  0  0  0  0  0  0  0
   59.1790   29.4090   49.8530 C   0  0  0  0  0  0  0  0  0  0  0  0
   59.5050   30.7270   49.4800 C   0  0  0  0  0  0  0  0  0  0  0  0
   59.3540   31.8150   50.4750 C   0  0  0  0  0  0  0  0  0  0  0  0
   58.2830   32.4730   50.5590 O   0  0  0  0  0  0  0  0  0  0  0  0
   57.1047   34.7434   43.9892 H   0  0  0  0  0  0  0  0  0  0  0  0
   56.3585   33.2435   44.8966 H   0  0  0  0  0  0  0  0  0  0  0  0
   58.6431   35.0981   45.8307 H   0  0  0  0  0  0  0  0  0  0  0  0
   56.9736   33.5125   47.6332 H   0  0  0  0  0  0  0  0  0  0  0  0
   57.9855   32.3180   46.7448 H   0  0  0  0  0  0  0  0  0  0  0  0
   58.7610   33.4830   48.9370 H   0  0  0  0  0  0  0  0  0  0  0  0
   60.4260   30.0889   46.2313 H   0  0  0  0  0  0  0  0  0  0  0  0
   57.2249   29.9962   45.6034 H   0  0  0  0  0  0  0  0  0  0  0  0
   58.8792   29.2325   45.3620 H   0  0  0  0  0  0  0  0  0  0  0  0
   57.8147   27.1625   43.7346 H   0  0  0  0  0  0  0  0  0  0  0  0
   56.8653   27.8229   42.3601 H   0  0  0  0  0  0  0  0  0  0  0  0
   58.6567   27.9554   42.3601 H   0  0  0  0  0  0  0  0  0  0  0  0
   55.9197   30.3704   44.1374 H   0  0  0  0  0  0  0  0  0  0  0  0
   56.7830   30.8866   42.6492 H   0  0  0  0  0  0  0  0  0  0  0  0
   55.8214   29.3694   42.6492 H   0  0  0  0  0  0  0  0  0  0  0  0
   59.0453   27.3342   49.2534 H   0  0  0  0  0  0  0  0  0  0  0  0
   58.8117   29.2074   50.8701 H   0  0  0  0  0  0  0  0  0  0  0  0
   60.1896   32.0515   51.1502 H   0  0  0  0  0  0  0  0  0  0  0  0
  1  2  2  0
  2  3  1  0
  3  4  1  0
  4  5  1  0
  5  6  2  0
  5  7  2  0
  5  8  1  0
  8  9  2  0
  9 10  1  0
 10 11  1  0
 11 12  1  0
 12 13  2  0
 13 14  1  0
 14 15  1  0
 15 16  1  0
 15 17  1  0
 13 18  1  0
 18 19  1  0
 19 20  2  0
 19 21  1  0
 21 22  1  0
 22 23  2  0
 10 24  2  0
 24 25  1  0
 25 26  2  0
 26 27  1  0
 27 28  2  0
 26  8  1  0
 22 12  1  0
  1 29  1  0
  1 30  1  0
  2 31  1  0
  3 32  1  0
  3 33  1  0
  4 34  1  0
  9 35  1  0
 14 36  1  0
 14 37  1  0
 16 38  1  0
 16 39  1  0
 16 40  1  0
 17 41  1  0
 17 42  1  0
 17 43  1  0
 24 44  1  0
 25 45  1  0
 27 46  1  0
M  CHG  2  18  -1  21  -1
M  END
>  <UniqueID>  (70) 
63

>  <SMILES>  (70) 
C=CCNS(=O)(=O)c1cc(Sc2c(CN(C)C)[n-]c(=O)[n-]c2=O)ccc1C=O

>  <Energy>  (70) 
47.18729909326804

>  <Genealogy>  (70) 
C=CCNS(=O)(=O)c1cc(Sc2c(CN(C)C)[n-]c(=O)[n-]c2=O)ccc1C=O (protonated)
C=CCNS(=O)(=O)c1cc(Sc2c(CN(C)C)[n-]c(=O)[n-]c2=O)ccc1C=O (3D coordinates assigned)
C=CCNS(=O)(=O)c1cc(Sc2c(CN(C)C)[n-]c(=O)[n-]c2=O)ccc1C=O (optimized conformer: 47.18729909326804 kcal/mol)

>  <smiles>  (70) 
C=CCNS(=O)(=O)c1cc(Sc2c(CN(C)C)[nH]c(=O)[nH]c2=O)ccc1C=O

>  <score_type>  (70) 
oracle

>  <origin>  (70) 
adg

>  <m_score__min__energy>  (70) 
-12.32

>  <m_primary>  (70) 
energy

$$$$
70:0
     RDKit          3D

 47 50  0  0  0  0  0  0  0  0999 V2000
   54.4330   22.9740   44.6010 O   0  0  0  0  0  0  0  0  0  0  0  0
   54.6120   23.5860   45.6910 C   0  0  0  0  0  0  0  0  0  0  0  0
   53.5700   23.5920   46.6700 N   0  0  0  0  0  0  0  0  0  0  0  0
   53.3120   22.4720   47.5640 C   0  0  0  0  0  0  0  0  0  0  0  0
   54.6180   21.8740   47.9990 C   0  0  0  0  0  0  0  0  0  0  0  0
   55.4270   22.5450   48.9310 C   0  0  0  0  0  0  0  0  0  0  0  0
   56.6230   21.9690   49.3690 C   0  0  0  0  0  0  0  0  0  0  0  0
   57.0140   20.7140   48.8900 C   0  0  0  0  0  0  0  0  0  0  0  0
   58.1710   20.1550   49.3190 F   0  0  0  0  0  0  0  0  0  0  0  0
   56.2040   20.0330   47.9760 C   0  0  0  0  0  0  0  0  0  0  0  0
   55.0070   20.6080   47.5360 C   0  0  0  0  0  0  0  0  0  0  0  0
   55.8970   24.2950   45.9500 C   0  0  0  0  0  0  0  0  0  0  0  0
   55.9380   25.7060   46.0370 C   0  0  0  0  0  0  0  0  0  0  0  0
   54.7710   26.4530   45.9030 O   0  0  0  0  0  0  0  0  0  0  0  0
   57.1590   26.3620   46.2770 C   0  0  0  0  0  0  0  0  0  0  0  0
   57.2400   27.7640   46.3710 C   0  0  0  0  0  0  0  0  0  0  0  0
   58.4740   28.3890   46.5920 C   0  0  0  0  0  0  0  0  0  0  0  0
   58.5280   29.8140   46.6890 N   0  0  0  0  0  0  0  0  0  0  0  0
   58.1570   30.8690   45.3630 S   0  0  0  0  0  0  0  0  0  0  0  0
   56.6720   30.8530   45.1320 O   0  0  0  0  0  0  0  0  0  0  0  0
   58.8350   30.3590   44.1230 O   0  0  0  0  0  0  0  0  0  0  0  0
   58.6650   32.5240   45.6850 C   0  0  0  0  0  0  0  0  0  0  0  0
   59.2770   32.8520   46.9050 C   0  0  0  0  0  0  0  0  0  0  0  0
   59.7060   34.1610   47.1460 C   0  0  0  0  0  0  0  0  0  0  0  0
   59.5290   35.1470   46.1710 C   0  0  0  0  0  0  0  0  0  0  0  0
   58.9220   34.8240   44.9520 C   0  0  0  0  0  0  0  0  0  0  0  0
   58.4900   33.5170   44.7090 C   0  0  0  0  0  0  0  0  0  0  0  0
   59.6250   27.6090   46.7720 C   0  0  0  0  0  0  0  0  0  0  0  0
   59.5550   26.2170   46.6830 C   0  0  0  0  0  0  0  0  0  0  0  0
   58.3290   25.5910   46.4310 C   0  0  0  0  0  0  0  0  0  0  0  0
   58.2680   24.2390   46.3490 N   0  0  0  0  0  0  0  0  0  0  0  0
   57.1050   23.5790   46.1130 C   0  0  0  0  0  0  0  0  0  0  0  0
   57.1310   22.3210   46.0310 O   0  0  0  0  0  0  0  0  0  0  0  0
   52.7579   22.8258   48.4459 H   0  0  0  0  0  0  0  0  0  0  0  0
   52.7149   21.7116   47.0394 H   0  0  0  0  0  0  0  0  0  0  0  0
   55.1182   23.5274   49.3176 H   0  0  0  0  0  0  0  0  0  0  0  0
   57.2577   22.5033   50.0913 H   0  0  0  0  0  0  0  0  0  0  0  0
   56.5083   19.0441   47.6026 H   0  0  0  0  0  0  0  0  0  0  0  0
   54.3680   20.0652   46.8239 H   0  0  0  0  0  0  0  0  0  0  0  0
   56.3291   28.3724   46.2703 H   0  0  0  0  0  0  0  0  0  0  0  0
   59.4194   32.0776   47.6732 H   0  0  0  0  0  0  0  0  0  0  0  0
   60.1833   34.4151   48.1039 H   0  0  0  0  0  0  0  0  0  0  0  0
   59.8667   36.1764   46.3618 H   0  0  0  0  0  0  0  0  0  0  0  0
   58.7847   35.5996   44.1842 H   0  0  0  0  0  0  0  0  0  0  0  0
   58.0118   33.2663   43.7506 H   0  0  0  0  0  0  0  0  0  0  0  0
   60.5882   28.0959   46.9844 H   0  0  0  0  0  0  0  0  0  0  0  0
   60.4647   25.6119   46.8111 H   0  0  0  0  0  0  0  0  0  0  0  0
  1  2  2  0
  2  3  1  0
  3  4  1  0
  4  5  1  0
  5  6  2  0
  6  7  1  0
  7  8  2  0
  8  9  1  0
  8 10  1  0
 10 11  2  0
  2 12  1  0
 12 13  2  0
 13 14  1  0
 13 15  1  0
 15 16  2  0
 16 17  1  0
 17 18  1  0
 18 19  1  0
 19 20  2  0
 19 21  2  0
 19 22  1  0
 22 23  2  0
 23 24  1  0
 24 25  2  0
 25 26  1  0
 26 27  2  0
 17 28  2  0
 28 29  1  0
 29 30  2  0
 30 31  1  0
 31 32  1  0
 32 33  2  0
 11  5  1  0
 32 12  1  0
 30 15  1  0
 27 22  1  0
  4 34  1  0
  4 35  1  0
  6 36  1  0
  7 37  1  0
 10 38  1  0
 11 39  1  0
 16 40  1  0
 23 41  1  0
 24 42  1  0
 25 43  1  0
 26 44  1  0
 27 45  1  0
 28 46  1  0
 29 47  1  0
M  CHG  4   3  -1  14  -1  18  -1  31  -1
M  END
>  <UniqueID>  (71) 
64

>  <SMILES>  (71) 
O=C([N-]Cc1ccc(F)cc1)c1c([O-])c2cc([N-]S(=O)(=O)c3ccccc3)ccc2[n-]c1=O

>  <Energy>  (71) 
67.23805695099952

>  <Genealogy>  (71) 
O=C([N-]Cc1ccc(F)cc1)c1c([O-])c2cc([N-]S(=O)(=O)c3ccccc3)ccc2[n-]c1=O (protonated)
O=C([N-]Cc1ccc(F)cc1)c1c([O-])c2cc([N-]S(=O)(=O)c3ccccc3)ccc2[n-]c1=O (3D coordinates assigned)
O=C([N-]Cc1ccc(F)cc1)c1c([O-])c2cc([N-]S(=O)(=O)c3ccccc3)ccc2[n-]c1=O (optimized conformer: 67.23805695099952 kcal/mol)

>  <smiles>  (71) 
O=C(NCc1ccc(F)cc1)c1c(O)c2cc(NS(=O)(=O)c3ccccc3)ccc2[nH]c1=O

>  <score_type>  (71) 
oracle

>  <origin>  (71) 
adg

>  <m_score__min__energy>  (71) 
-16.949999999999999

>  <m_primary>  (71) 
energy

$$$$
71:0
     RDKit          3D

 34 36  0  0  0  0  0  0  0  0999 V2000
   60.1940   29.8540   46.5310 C   0  0  0  0  0  0  0  0  0  0  0  0
   59.4090   30.7890   45.9740 C   0  0  0  0  0  0  0  0  0  0  0  0
   58.3600   30.5970   45.0570 C   0  0  0  0  0  0  0  0  0  0  0  0
   57.9490   29.4970   44.3970 C   0  0  0  0  0  0  0  0  0  0  0  0
   57.3880   28.2810   45.0190 C   0  0  0  0  0  0  0  0  0  0  0  0
   56.0080   28.1520   45.2480 C   0  0  0  0  0  0  0  0  0  0  0  0
   55.1260   29.1530   44.8580 O   0  0  0  0  0  0  0  0  0  0  0  0
   55.5250   27.0410   45.8600 N   0  0  0  0  0  0  0  0  0  0  0  0
   56.3570   26.0510   46.2750 C   0  0  0  0  0  0  0  0  0  0  0  0
   55.8860   25.0280   46.8370 O   0  0  0  0  0  0  0  0  0  0  0  0
   57.6970   26.1670   46.0890 N   0  0  0  0  0  0  0  0  0  0  0  0
   58.2300   27.2590   45.4810 C   0  0  0  0  0  0  0  0  0  0  0  0
   59.4790   27.3360   45.3310 O   0  0  0  0  0  0  0  0  0  0  0  0
   57.7480   31.8320   44.9040 C   0  0  0  0  0  0  0  0  0  0  0  0
   58.4610   32.7300   45.6710 C   0  0  0  0  0  0  0  0  0  0  0  0
   58.1380   34.1870   45.8090 C   0  0  0  0  0  0  0  0  0  0  0  0
   59.4600   32.0990   46.3210 N   0  0  0  0  0  0  0  0  0  0  0  0
   60.3760   32.7150   47.2420 C   0  0  0  0  0  0  0  0  0  0  0  0
   61.6150   33.1780   46.7890 C   0  0  0  0  0  0  0  0  0  0  0  0
   62.5040   33.7790   47.6810 C   0  0  0  0  0  0  0  0  0  0  0  0
   62.1410   33.9060   49.0240 C   0  0  0  0  0  0  0  0  0  0  0  0
   60.9350   33.4450   49.4510 N   0  0  0  0  0  0  0  0  0  0  0  0
   60.0500   32.8580   48.6020 C   0  0  0  0  0  0  0  0  0  0  0  0
   58.5230   32.2680   49.2370 Cl  0  0  0  0  0  0  0  0  0  0  0  0
   60.9829   30.1486   47.2387 H   0  0  0  0  0  0  0  0  0  0  0  0
   60.0485   28.7930   46.2799 H   0  0  0  0  0  0  0  0  0  0  0  0
   58.0390   29.5053   43.3007 H   0  0  0  0  0  0  0  0  0  0  0  0
   56.8634   32.0532   44.2888 H   0  0  0  0  0  0  0  0  0  0  0  0
   58.0796   34.4502   46.8754 H   0  0  0  0  0  0  0  0  0  0  0  0
   58.9255   34.7845   45.3264 H   0  0  0  0  0  0  0  0  0  0  0  0
   57.1718   34.3957   45.3264 H   0  0  0  0  0  0  0  0  0  0  0  0
   61.8891   33.0685   45.7293 H   0  0  0  0  0  0  0  0  0  0  0  0
   63.4791   34.1484   47.3308 H   0  0  0  0  0  0  0  0  0  0  0  0
   62.8317   34.3796   49.7372 H   0  0  0  0  0  0  0  0  0  0  0  0
  1  2  2  0
  2  3  1  0
  3  4  2  3
  4  5  1  0
  5  6  2  0
  6  7  1  0
  6  8  1  0
  8  9  1  0
  9 10  2  0
  9 11  1  0
 11 12  1  0
 12 13  2  0
  3 14  1  0
 14 15  2  0
 15 16  1  0
 15 17  1  0
 17 18  1  0
 18 19  2  0
 19 20  1  0
 20 21  2  0
 21 22  1  0
 22 23  2  0
 23 24  1  0
 17  2  1  0
 23 18  1  0
 12  5  1  0
  1 25  1  0
  1 26  1  0
  4 27  1  0
 14 28  1  0
 16 29  1  0
 16 30  1  0
 16 31  1  0
 19 32  1  0
 20 33  1  0
 21 34  1  0
M  CHG  3   7  -1   8  -1  11  -1
M  END
>  <UniqueID>  (72) 
65

>  <SMILES>  (72) 
C=c1c(=Cc2c([O-])[n-]c(=O)[n-]c2=O)cc(C)n1-c1cccnc1Cl

>  <Energy>  (72) 
87.22984827338587

>  <Genealogy>  (72) 
C=c1c(=Cc2c([O-])[n-]c(=O)[n-]c2=O)cc(C)n1-c1cccnc1Cl (protonated)
C=c1c(=Cc2c([O-])[n-]c(=O)[n-]c2=O)cc(C)n1-c1cccnc1Cl (3D coordinates assigned)
C=c1c(=Cc2c([O-])[n-]c(=O)[n-]c2=O)cc(C)n1-c1cccnc1Cl (optimized conformer: 87.22984827338587 kcal/mol)

>  <smiles>  (72) 
C=c1c(=Cc2c(O)[nH]c(=O)[nH]c2=O)cc(C)n1-c1cccnc1Cl

>  <score_type>  (72) 
oracle

>  <origin>  (72) 
adg

>  <m_score__min__energy>  (72) 
-15.210000000000001

>  <m_primary>  (72) 
energy

$$$$
72:0
     RDKit          3D

 76 80  0  0  0  0  0  0  0  0999 V2000
   63.7850   32.8180   46.7380 C   0  0  0  0  0  0  0  0  0  0  0  0
   62.8350   33.7960   47.4220 C   0  0  0  0  0  0  0  0  0  0  0  0
   61.8210   33.0800   48.2830 C   0  0  0  0  0  0  0  0  0  0  0  0
   62.1440   32.0050   49.0370 N   0  0  0  0  0  0  0  0  0  0  0  0
   60.9840   31.6120   49.5920 C   0  0  0  0  0  0  0  0  0  0  0  0
   59.9780   32.4480   49.1680 C   0  0  0  0  0  0  0  0  0  0  0  0
   58.5660   32.3420   49.5720 C   0  0  0  0  0  0  0  0  0  0  0  0
   57.6780   32.6560   48.7320 O   0  0  0  0  0  0  0  0  0  0  0  0
   58.1720   31.8160   50.9050 C   0  0  0  0  0  0  0  0  0  0  0  0
   57.9650   30.4390   51.1130 C   0  0  0  0  0  0  0  0  0  0  0  0
   57.5360   29.9630   52.3570 C   0  0  0  0  0  0  0  0  0  0  0  0
   57.3050   30.8540   53.4150 C   0  0  0  0  0  0  0  0  0  0  0  0
   56.7690   30.3490   54.7240 C   0  0  0  0  0  0  0  0  0  0  0  0
   57.4880   30.9360   55.7730 O   0  0  0  0  0  0  0  0  0  0  0  0
   57.4930   32.2280   53.2100 C   0  0  0  0  0  0  0  0  0  0  0  0
   57.9310   32.7030   51.9710 C   0  0  0  0  0  0  0  0  0  0  0  0
   60.4960   33.3740   48.3310 N   0  0  0  0  0  0  0  0  0  0  0  0
   59.7450   34.2980   47.4690 C   0  0  0  0  0  0  0  0  0  0  0  0
   58.9340   33.5170   46.4670 C   0  0  0  0  0  0  0  0  0  0  0  0
   59.3690   32.2540   46.0300 C   0  0  0  0  0  0  0  0  0  0  0  0
   58.5380   31.4590   45.2380 C   0  0  0  0  0  0  0  0  0  0  0  0
   57.2630   31.9180   44.8650 C   0  0  0  0  0  0  0  0  0  0  0  0
   56.3530   31.0840   44.1380 N   0  0  0  0  0  0  0  0  0  0  0  0
   55.8930   29.8160   44.6050 C   0  0  0  0  0  0  0  0  0  0  0  0
   54.8260   29.3430   44.1310 O   0  0  0  0  0  0  0  0  0  0  0  0
   56.6180   29.1010   45.6150 N   0  0  0  0  0  0  0  0  0  0  0  0
   57.7700   28.2430   45.3420 C   0  0  0  0  0  0  0  0  0  0  0  0
   58.6590   28.1140   46.5500 C   0  0  0  0  0  0  0  0  0  0  0  0
   59.4500   26.9680   46.7240 C   0  0  0  0  0  0  0  0  0  0  0  0
   60.2160   26.8030   47.8850 C   0  0  0  0  0  0  0  0  0  0  0  0
   60.2030   27.7850   48.8940 C   0  0  0  0  0  0  0  0  0  0  0  0
   60.9620   27.5780   50.1470 C   0  0  0  0  0  0  0  0  0  0  0  0
   61.1360   26.4100   50.5910 O   0  0  0  0  0  0  0  0  0  0  0  0
   61.4960   28.7030   50.8610 N   0  0  0  0  0  0  0  0  0  0  0  0
   61.8730   28.6610   52.2730 C   0  0  0  0  0  0  0  0  0  0  0  0
   61.4630   29.9270   52.9740 C   0  0  0  0  0  0  0  0  0  0  0  0
   61.9040   31.1790   52.5150 C   0  0  0  0  0  0  0  0  0  0  0  0
   61.5330   32.3420   53.1930 C   0  0  0  0  0  0  0  0  0  0  0  0
   60.7200   32.2440   54.3250 C   0  0  0  0  0  0  0  0  0  0  0  0
   60.2880   31.0270   54.7520 N   0  0  0  0  0  0  0  0  0  0  0  0
   60.6320   29.8770   54.1070 C   0  0  0  0  0  0  0  0  0  0  0  0
   59.4200   28.9400   48.7120 C   0  0  0  0  0  0  0  0  0  0  0  0
   58.6520   29.1000   47.5510 C   0  0  0  0  0  0  0  0  0  0  0  0
   56.8620   33.2070   45.2330 C   0  0  0  0  0  0  0  0  0  0  0  0
   57.6840   33.9980   46.0430 C   0  0  0  0  0  0  0  0  0  0  0  0
   64.3374   32.2493   47.5006 H   0  0  0  0  0  0  0  0  0  0  0  0
   63.2071   32.1239   46.1101 H   0  0  0  0  0  0  0  0  0  0  0  0
   64.4956   33.3755   46.1101 H   0  0  0  0  0  0  0  0  0  0  0  0
   63.4211   34.4789   48.0546 H   0  0  0  0  0  0  0  0  0  0  0  0
   62.2924   34.3497   46.6416 H   0  0  0  0  0  0  0  0  0  0  0  0
   60.8598   30.7590   50.2753 H   0  0  0  0  0  0  0  0  0  0  0  0
   58.1421   29.7309   50.2901 H   0  0  0  0  0  0  0  0  0  0  0  0
   57.3792   28.8844   52.5058 H   0  0  0  0  0  0  0  0  0  0  0  0
   55.7053   30.6146   54.8131 H   0  0  0  0  0  0  0  0  0  0  0  0
   56.8753   29.2551   54.7697 H   0  0  0  0  0  0  0  0  0  0  0  0
   58.4320   30.9590   55.4790 H   0  0  0  0  0  0  0  0  0  0  0  0
   57.2948   32.9357   54.0285 H   0  0  0  0  0  0  0  0  0  0  0  0
   58.0892   33.7820   51.8271 H   0  0  0  0  0  0  0  0  0  0  0  0
   59.0710   34.9084   48.0879 H   0  0  0  0  0  0  0  0  0  0  0  0
   60.4509   34.9509   46.9348 H   0  0  0  0  0  0  0  0  0  0  0  0
   60.3679   31.8904   46.3130 H   0  0  0  0  0  0  0  0  0  0  0  0
   58.8828   30.4691   44.9045 H   0  0  0  0  0  0  0  0  0  0  0  0
   57.4114   27.2439   45.0535 H   0  0  0  0  0  0  0  0  0  0  0  0
   58.3551   28.6982   44.5293 H   0  0  0  0  0  0  0  0  0  0  0  0
   59.4686   26.1937   45.9429 H   0  0  0  0  0  0  0  0  0  0  0  0
   60.8319   25.9001   48.0094 H   0  0  0  0  0  0  0  0  0  0  0  0
   61.3757   27.8056   52.7536 H   0  0  0  0  0  0  0  0  0  0  0  0
   62.9659   28.5578   52.3428 H   0  0  0  0  0  0  0  0  0  0  0  0
   62.5418   31.2434   51.6211 H   0  0  0  0  0  0  0  0  0  0  0  0
   61.8773   33.3251   52.8395 H   0  0  0  0  0  0  0  0  0  0  0  0
   60.4287   33.1528   54.8720 H   0  0  0  0  0  0  0  0  0  0  0  0
   60.2593   28.9089   54.4730 H   0  0  0  0  0  0  0  0  0  0  0  0
   59.4108   29.7218   49.4857 H   0  0  0  0  0  0  0  0  0  0  0  0
   58.0390   30.0043   47.4223 H   0  0  0  0  0  0  0  0  0  0  0  0
   55.8959   33.6003   44.8838 H   0  0  0  0  0  0  0  0  0  0  0  0
   57.3502   35.0005   46.3491 H   0  0  0  0  0  0  0  0  0  0  0  0
  1  2  1  0
  2  3  1  0
  3  4  2  0
  4  5  1  0
  5  6  2  0
  6  7  1  0
  7  8  2  0
  7  9  1  0
  9 10  2  0
 10 11  1  0
 11 12  2  0
 12 13  1  0
 13 14  1  0
 12 15  1  0
 15 16  2  0
  6 17  1  0
 17 18  1  0
 18 19  1  0
 19 20  2  0
 20 21  1  0
 21 22  2  0
 22 23  1  0
 23 24  1  0
 24 25  2  0
 24 26  1  0
 26 27  1  0
 27 28  1  0
 28 29  2  0
 29 30  1  0
 30 31  2  0
 31 32  1  0
 32 33  2  0
 32 34  1  0
 34 35  1  0
 35 36  1  0
 36 37  2  0
 37 38  1  0
 38 39  2  0
 39 40  1  0
 40 41  2  0
 31 42  1  0
 42 43  2  0
 22 44  1  0
 44 45  2  0
 17  3  1  0
 45 19  1  0
 16  9  1  0
 43 28  1  0
 41 36  1  0
  1 46  1  0
  1 47  1  0
  1 48  1  0
  2 49  1  0
  2 50  1  0
  5 51  1  0
 10 52  1  0
 11 53  1  0
 13 54  1  0
 13 55  1  0
 14 56  1  0
 15 57  1  0
 16 58  1  0
 18 59  1  0
 18 60  1  0
 20 61  1  0
 21 62  1  0
 27 63  1  0
 27 64  1  0
 29 65  1  0
 30 66  1  0
 35 67  1  0
 35 68  1  0
 37 69  1  0
 38 70  1  0
 39 71  1  0
 41 72  1  0
 42 73  1  0
 43 74  1  0
 44 75  1  0
 45 76  1  0
M  CHG  3  23  -1  26  -1  34  -1
M  END
>  <UniqueID>  (73) 
66

>  <SMILES>  (73) 
CCc1ncc(C(=O)c2ccc(CO)cc2)n1Cc1ccc([N-]C(=O)[N-]Cc2ccc(C(=O)[N-]Cc3cccnc3)cc2)cc1

>  <Energy>  (73) 
118.75883963223191

>  <Genealogy>  (73) 
CCc1ncc(C(=O)c2ccc(CO)cc2)n1Cc1ccc([N-]C(=O)[N-]Cc2ccc(C(=O)[N-]Cc3cccnc3)cc2)cc1 (protonated)
CCc1ncc(C(=O)c2ccc(CO)cc2)n1Cc1ccc([N-]C(=O)[N-]Cc2ccc(C(=O)[N-]Cc3cccnc3)cc2)cc1 (3D coordinates assigned)
CCc1ncc(C(=O)c2ccc(CO)cc2)n1Cc1ccc([N-]C(=O)[N-]Cc2ccc(C(=O)[N-]Cc3cccnc3)cc2)cc1 (optimized conformer: 118.75883963223191 kcal/mol)

>  <smiles>  (73) 
CCc1ncc(C(=O)c2ccc(CO)cc2)n1Cc1ccc(NC(=O)NCc2ccc(C(=O)NCc3cccnc3)cc2)cc1

>  <score_type>  (73) 
oracle

>  <origin>  (73) 
adg

>  <m_score__min__energy>  (73) 
-14.93

>  <m_primary>  (73) 
energy

$$$$
73:0
     RDKit          3D

 54 56  0  0  0  0  0  0  0  0999 V2000
   55.1500   26.6440   45.9960 O   0  0  0  0  0  0  0  0  0  0  0  0
   56.3330   26.3510   46.3150 C   0  0  0  0  0  0  0  0  0  0  0  0
   57.4470   27.2950   45.9770 C   0  0  0  0  0  0  0  0  0  0  0  0
   57.1620   28.0540   44.6740 C   0  0  0  0  0  0  0  0  0  0  0  0
   56.4300   29.3530   44.9140 C   0  0  0  0  0  0  0  0  0  0  0  0
   55.1730   29.3350   44.9830 O   0  0  0  0  0  0  0  0  0  0  0  0
   57.1040   30.5930   45.1640 N   0  0  0  0  0  0  0  0  0  0  0  0
   58.5080   30.9060   44.9100 C   0  0  0  0  0  0  0  0  0  0  0  0
   59.2960   30.8450   46.1920 C   0  0  0  0  0  0  0  0  0  0  0  0
   58.9610   29.8910   47.1710 C   0  0  0  0  0  0  0  0  0  0  0  0
   59.6750   29.8250   48.3680 C   0  0  0  0  0  0  0  0  0  0  0  0
   60.7120   30.7260   48.6150 C   0  0  0  0  0  0  0  0  0  0  0  0
   61.0520   31.6910   47.6530 C   0  0  0  0  0  0  0  0  0  0  0  0
   62.3350   32.8510   48.0020 S   0  0  0  0  0  0  0  0  0  0  0  0
   63.1790   33.0570   46.7740 O   0  0  0  0  0  0  0  0  0  0  0  0
   63.2010   32.2970   49.1030 O   0  0  0  0  0  0  0  0  0  0  0  0
   61.6620   34.3680   48.5270 N   0  0  0  0  0  0  0  0  0  0  0  0
   60.2320   34.2420   48.8180 C   0  0  0  0  0  0  0  0  0  0  0  0
   59.4360   34.3370   47.5430 C   0  0  0  0  0  0  0  0  0  0  0  0
   59.9780   34.9960   46.4240 C   0  0  0  0  0  0  0  0  0  0  0  0
   59.2540   35.0600   45.2270 C   0  0  0  0  0  0  0  0  0  0  0  0
   57.9880   34.4760   45.1410 C   0  0  0  0  0  0  0  0  0  0  0  0
   57.4350   33.8320   46.2550 C   0  0  0  0  0  0  0  0  0  0  0  0
   58.1570   33.7610   47.4520 C   0  0  0  0  0  0  0  0  0  0  0  0
   60.3500   31.7420   46.4370 C   0  0  0  0  0  0  0  0  0  0  0  0
   56.5810   25.1980   47.1240 N   0  0  0  0  0  0  0  0  0  0  0  0
   56.2820   23.9560   46.8600 C   0  0  0  0  0  0  0  0  0  0  0  0
   57.2560   23.0230   47.0330 N   0  0  0  0  0  0  0  0  0  0  0  0
   57.0610   21.7020   46.7780 C   0  0  0  0  0  0  0  0  0  0  0  0
   55.8230   21.2570   46.3210 C   0  0  0  0  0  0  0  0  0  0  0  0
   54.7920   22.1780   46.1410 C   0  0  0  0  0  0  0  0  0  0  0  0
   55.0000   23.5360   46.4180 C   0  0  0  0  0  0  0  0  0  0  0  0
   53.9420   24.4320   46.2740 O   0  0  0  0  0  0  0  0  0  0  0  0
   57.5622   28.0204   46.7958 H   0  0  0  0  0  0  0  0  0  0  0  0
   58.3682   26.7092   45.8419 H   0  0  0  0  0  0  0  0  0  0  0  0
   58.1182   28.2738   44.1766 H   0  0  0  0  0  0  0  0  0  0  0  0
   56.5197   27.4172   44.0480 H   0  0  0  0  0  0  0  0  0  0  0  0
   58.9191   30.1771   44.1961 H   0  0  0  0  0  0  0  0  0  0  0  0
   58.5791   31.9217   44.4936 H   0  0  0  0  0  0  0  0  0  0  0  0
   58.1305   29.1925   46.9913 H   0  0  0  0  0  0  0  0  0  0  0  0
   59.4203   29.0618   49.1181 H   0  0  0  0  0  0  0  0  0  0  0  0
   61.2642   30.6801   49.5653 H   0  0  0  0  0  0  0  0  0  0  0  0
   60.0417   33.2690   49.2945 H   0  0  0  0  0  0  0  0  0  0  0  0
   59.9284   35.0547   49.4943 H   0  0  0  0  0  0  0  0  0  0  0  0
   60.9724   35.4618   46.4897 H   0  0  0  0  0  0  0  0  0  0  0  0
   59.6832   35.5712   44.3527 H   0  0  0  0  0  0  0  0  0  0  0  0
   57.4247   34.5220   44.1973 H   0  0  0  0  0  0  0  0  0  0  0  0
   56.4334   33.3821   46.1892 H   0  0  0  0  0  0  0  0  0  0  0  0
   57.7218   33.2525   48.3249 H   0  0  0  0  0  0  0  0  0  0  0  0
   60.6259   32.4857   45.6749 H   0  0  0  0  0  0  0  0  0  0  0  0
   57.8807   20.9849   46.9326 H   0  0  0  0  0  0  0  0  0  0  0  0
   55.6605   20.1908   46.1045 H   0  0  0  0  0  0  0  0  0  0  0  0
   53.8105   21.8372   45.7798 H   0  0  0  0  0  0  0  0  0  0  0  0
   54.0690   25.4320   46.3680 H   0  0  0  0  0  0  0  0  0  0  0  0
  1  2  2  0
  2  3  1  0
  3  4  1  0
  4  5  1  0
  5  6  2  0
  5  7  1  0
  7  8  1  0
  8  9  1  0
  9 10  2  0
 10 11  1  0
 11 12  2  0
 12 13  1  0
 13 14  1  0
 14 15  2  0
 14 16  2  0
 14 17  1  0
 17 18  1  0
 18 19  1  0
 19 20  2  0
 20 21  1  0
 21 22  2  0
 22 23  1  0
 23 24  2  0
 13 25  2  0
  2 26  1  0
 26 27  2  3
 27 28  1  0
 28 29  1  0
 29 30  2  0
 30 31  1  0
 31 32  2  0
 32 33  1  0
 25  9  1  0
 32 27  1  0
 24 19  1  0
  3 34  1  0
  3 35  1  0
  4 36  1  0
  4 37  1  0
  8 38  1  0
  8 39  1  0
 10 40  1  0
 11 41  1  0
 12 42  1  0
 18 43  1  0
 18 44  1  0
 20 45  1  0
 21 46  1  0
 22 47  1  0
 23 48  1  0
 24 49  1  0
 25 50  1  0
 29 51  1  0
 30 52  1  0
 31 53  1  0
 33 54  1  0
M  CHG  3   7  -1  17  -1  28  -1
M  END
>  <UniqueID>  (74) 
67

>  <SMILES>  (74) 
O=C(CCC(=O)[N-]Cc1cccc(S(=O)(=O)[N-]Cc2ccccc2)c1)N=c1[n-]cccc1O

>  <Energy>  (74) 
63.224583566415426

>  <Genealogy>  (74) 
O=C(CCC(=O)[N-]Cc1cccc(S(=O)(=O)[N-]Cc2ccccc2)c1)N=c1[n-]cccc1O (protonated)
O=C(CCC(=O)[N-]Cc1cccc(S(=O)(=O)[N-]Cc2ccccc2)c1)N=c1[n-]cccc1O (3D coordinates assigned)
O=C(CCC(=O)[N-]Cc1cccc(S(=O)(=O)[N-]Cc2ccccc2)c1)N=c1[n-]cccc1O (optimized conformer: 63.224583566415426 kcal/mol)

>  <smiles>  (74) 
O=C(CCC(=O)NCc1cccc(S(=O)(=O)NCc2ccccc2)c1)N=c1[nH]cccc1O

>  <score_type>  (74) 
oracle

>  <origin>  (74) 
adg

>  <m_score__min__energy>  (74) 
-14.52

>  <m_primary>  (74) 
energy

$$$$
74:0
     RDKit          3D

 45 47  0  0  0  0  0  0  0  0999 V2000
   55.0390   26.3430   46.0080 O   0  0  0  0  0  0  0  0  0  0  0  0
   55.9120   25.5010   46.3550 C   0  0  0  0  0  0  0  0  0  0  0  0
   55.5230   24.1730   46.7200 N   0  0  0  0  0  0  0  0  0  0  0  0
   55.3840   23.0830   45.7610 C   0  0  0  0  0  0  0  0  0  0  0  0
   56.7330   22.6720   45.2370 C   0  0  0  0  0  0  0  0  0  0  0  0
   56.8360   21.9110   44.0630 C   0  0  0  0  0  0  0  0  0  0  0  0
   58.0910   21.5200   43.5920 C   0  0  0  0  0  0  0  0  0  0  0  0
   59.2330   21.8810   44.3090 C   0  0  0  0  0  0  0  0  0  0  0  0
   59.1190   22.6070   45.4520 N   0  0  0  0  0  0  0  0  0  0  0  0
   57.9080   23.0070   45.9270 C   0  0  0  0  0  0  0  0  0  0  0  0
   57.2950   25.8740   46.4310 N   0  0  0  0  0  0  0  0  0  0  0  0
   57.8430   27.0520   45.8140 C   0  0  0  0  0  0  0  0  0  0  0  0
   59.2350   27.1800   45.6900 C   0  0  0  0  0  0  0  0  0  0  0  0
   59.7890   28.3040   45.0700 C   0  0  0  0  0  0  0  0  0  0  0  0
   58.9580   29.3010   44.5540 C   0  0  0  0  0  0  0  0  0  0  0  0
   57.5670   29.1730   44.6450 C   0  0  0  0  0  0  0  0  0  0  0  0
   56.5110   30.4060   43.9590 S   0  0  0  0  0  0  0  0  0  0  0  0
   55.0840   29.9350   43.9860 O   0  0  0  0  0  0  0  0  0  0  0  0
   56.9200   30.6670   42.5370 O   0  0  0  0  0  0  0  0  0  0  0  0
   56.6530   31.8770   44.8720 N   0  0  0  0  0  0  0  0  0  0  0  0
   57.6900   32.7280   44.2940 C   0  0  0  0  0  0  0  0  0  0  0  0
   58.3870   33.4710   45.3940 C   0  0  0  0  0  0  0  0  0  0  0  0
   58.3010   33.0300   46.7220 C   0  0  0  0  0  0  0  0  0  0  0  0
   58.9320   33.7510   47.7390 C   0  0  0  0  0  0  0  0  0  0  0  0
   59.6370   34.9120   47.4190 C   0  0  0  0  0  0  0  0  0  0  0  0
   59.6970   35.3380   46.1290 N   0  0  0  0  0  0  0  0  0  0  0  0
   59.0880   34.6570   45.1220 C   0  0  0  0  0  0  0  0  0  0  0  0
   57.0130   28.0510   45.2770 C   0  0  0  0  0  0  0  0  0  0  0  0
   54.9097   22.2227   46.2560 H   0  0  0  0  0  0  0  0  0  0  0  0
   54.7626   23.4241   44.9198 H   0  0  0  0  0  0  0  0  0  0  0  0
   55.9279   21.6223   43.5134 H   0  0  0  0  0  0  0  0  0  0  0  0
   58.1788   20.9336   42.6655 H   0  0  0  0  0  0  0  0  0  0  0  0
   60.2268   21.5773   43.9482 H   0  0  0  0  0  0  0  0  0  0  0  0
   57.8501   23.5949   46.8549 H   0  0  0  0  0  0  0  0  0  0  0  0
   57.9250   25.2760   47.0100 H   0  0  0  0  0  0  0  0  0  0  0  0
   59.8939   26.3916   46.0828 H   0  0  0  0  0  0  0  0  0  0  0  0
   60.8815   28.4033   44.9884 H   0  0  0  0  0  0  0  0  0  0  0  0
   59.3974   30.1885   44.0752 H   0  0  0  0  0  0  0  0  0  0  0  0
   58.4172   32.1055   43.7521 H   0  0  0  0  0  0  0  0  0  0  0  0
   57.2335   33.4445   43.5953 H   0  0  0  0  0  0  0  0  0  0  0  0
   57.7371   32.1169   46.9632 H   0  0  0  0  0  0  0  0  0  0  0  0
   58.8736   33.4067   48.7821 H   0  0  0  0  0  0  0  0  0  0  0  0
   60.1444   35.4828   48.2106 H   0  0  0  0  0  0  0  0  0  0  0  0
   59.1446   35.0363   44.0910 H   0  0  0  0  0  0  0  0  0  0  0  0
   55.9201   27.9517   45.3532 H   0  0  0  0  0  0  0  0  0  0  0  0
  1  2  2  0
  2  3  1  0
  3  4  1  0
  4  5  1  0
  5  6  2  0
  6  7  1  0
  7  8  2  0
  8  9  1  0
  9 10  2  0
  2 11  1  0
 11 12  1  0
 12 13  2  0
 13 14  1  0
 14 15  2  0
 15 16  1  0
 16 17  1  0
 17 18  2  0
 17 19  2  0
 17 20  1  0
 20 21  1  0
 21 22  1  0
 22 23  2  0
 23 24  1  0
 24 25  2  0
 25 26  1  0
 26 27  2  0
 16 28  2  0
 10  5  1  0
 28 12  1  0
 27 22  1  0
  4 29  1  0
  4 30  1  0
  6 31  1  0
  7 32  1  0
  8 33  1  0
 10 34  1  0
 11 35  1  0
 13 36  1  0
 14 37  1  0
 15 38  1  0
 21 39  1  0
 21 40  1  0
 23 41  1  0
 24 42  1  0
 25 43  1  0
 27 44  1  0
 28 45  1  0
M  CHG  2   3  -1  20  -1
M  END
>  <UniqueID>  (75) 
68

>  <SMILES>  (75) 
O=C([N-]Cc1cccnc1)Nc1cccc(S(=O)(=O)[N-]Cc2cccnc2)c1

>  <Energy>  (75) 
44.89475261228265

>  <Genealogy>  (75) 
O=C([N-]Cc1cccnc1)Nc1cccc(S(=O)(=O)[N-]Cc2cccnc2)c1 (protonated)
O=C([N-]Cc1cccnc1)Nc1cccc(S(=O)(=O)[N-]Cc2cccnc2)c1 (3D coordinates assigned)
O=C([N-]Cc1cccnc1)Nc1cccc(S(=O)(=O)[N-]Cc2cccnc2)c1 (optimized conformer: 44.89475261228265 kcal/mol)

>  <smiles>  (75) 
O=C(NCc1cccnc1)Nc1cccc(S(=O)(=O)NCc2cccnc2)c1

>  <score_type>  (75) 
oracle

>  <origin>  (75) 
adg

>  <m_score__min__energy>  (75) 
-12.91

>  <m_primary>  (75) 
energy

$$$$
75:0
     RDKit          3D

 41 43  0  0  0  0  0  0  0  0999 V2000
   56.6780   30.2270   43.0750 C   0  0  0  0  0  0  0  0  0  0  0  0
   56.3710   30.0260   44.5200 C   0  0  0  0  0  0  0  0  0  0  0  0
   55.2870   29.4750   44.8530 O   0  0  0  0  0  0  0  0  0  0  0  0
   57.2400   30.5520   45.4840 O   0  0  0  0  0  0  0  0  0  0  0  0
   57.7700   31.8520   45.4780 C   0  0  0  0  0  0  0  0  0  0  0  0
   57.0420   32.9430   44.9650 C   0  0  0  0  0  0  0  0  0  0  0  0
   57.5920   34.2270   44.9730 C   0  0  0  0  0  0  0  0  0  0  0  0
   58.8640   34.4400   45.5030 C   0  0  0  0  0  0  0  0  0  0  0  0
   59.5880   33.3730   46.0350 C   0  0  0  0  0  0  0  0  0  0  0  0
   59.0520   32.0740   46.0240 C   0  0  0  0  0  0  0  0  0  0  0  0
   59.8250   30.9590   46.6130 C   0  0  0  0  0  0  0  0  0  0  0  0
   60.7630   31.2250   47.4140 O   0  0  0  0  0  0  0  0  0  0  0  0
   59.5350   29.5850   46.2850 N   0  0  0  0  0  0  0  0  0  0  0  0
   59.8130   29.1020   44.8890 C   0  0  0  0  0  0  0  0  0  0  0  0
   59.2250   27.6940   44.7210 C   0  0  2  0  0  0  0  0  0  0  0  0
   58.1390   26.8630   44.0120 C   0  0  0  0  0  0  0  0  0  0  0  0
   57.2270   26.2230   45.0250 N   0  0  0  0  0  0  0  0  0  0  0  0
   57.2210   26.8280   46.4030 C   0  0  0  0  0  0  0  0  0  0  0  0
   58.6530   27.2170   46.9720 C   0  0  1  0  0  0  0  0  0  0  0  0
   59.6900   26.8780   45.9320 C   0  0  0  0  0  0  0  0  0  0  0  0
   58.8310   28.7510   47.3240 C   0  0  0  0  0  0  0  0  0  0  0  0
   57.5945   30.8270   42.9749 H   0  0  0  0  0  0  0  0  0  0  0  0
   56.8250   29.2497   42.5920 H   0  0  0  0  0  0  0  0  0  0  0  0
   55.8411   30.7526   42.5920 H   0  0  0  0  0  0  0  0  0  0  0  0
   56.0337   32.7830   44.5554 H   0  0  0  0  0  0  0  0  0  0  0  0
   57.0206   35.0716   44.5605 H   0  0  0  0  0  0  0  0  0  0  0  0
   59.2972   35.4511   45.5016 H   0  0  0  0  0  0  0  0  0  0  0  0
   60.5846   33.5495   46.4658 H   0  0  0  0  0  0  0  0  0  0  0  0
   59.3478   29.7850   44.1630 H   0  0  0  0  0  0  0  0  0  0  0  0
   60.8987   29.0746   44.7145 H   0  0  0  0  0  0  0  0  0  0  0  0
   59.2688   28.0591   43.6843 H   0  0  0  0  0  0  0  0  0  0  0  0
   57.5489   27.5205   43.3566 H   0  0  0  0  0  0  0  0  0  0  0  0
   58.6229   26.0744   43.4171 H   0  0  0  0  0  0  0  0  0  0  0  0
   57.4840   25.2120   45.1170 H   0  0  0  0  0  0  0  0  0  0  0  0
   56.6066   27.7399   46.3726 H   0  0  0  0  0  0  0  0  0  0  0  0
   56.8223   26.0550   47.0764 H   0  0  0  0  0  0  0  0  0  0  0  0
   58.7672   26.6513   47.9085 H   0  0  0  0  0  0  0  0  0  0  0  0
   60.6946   27.1865   46.2571 H   0  0  0  0  0  0  0  0  0  0  0  0
   59.7712   25.7999   45.7291 H   0  0  0  0  0  0  0  0  0  0  0  0
   57.8301   29.1799   47.4795 H   0  0  0  0  0  0  0  0  0  0  0  0
   59.4739   28.7801   48.2161 H   0  0  0  0  0  0  0  0  0  0  0  0
  1  2  1  0
  2  3  2  0
  2  4  1  0
  4  5  1  0
  5  6  2  0
  6  7  1  0
  7  8  2  0
  8  9  1  0
  9 10  2  0
 10 11  1  0
 11 12  2  0
 11 13  1  0
 13 14  1  0
 14 15  1  0
 15 16  1  0
 16 17  1  0
 17 18  1  0
 18 19  1  0
 19 20  1  0
 19 21  1  0
 10  5  1  0
 21 13  1  0
 20 15  1  0
  1 22  1  0
  1 23  1  0
  1 24  1  0
  6 25  1  0
  7 26  1  0
  8 27  1  0
  9 28  1  0
 14 29  1  0
 14 30  1  0
 15 31  1  6
 16 32  1  0
 16 33  1  0
 17 34  1  0
 18 35  1  0
 18 36  1  0
 19 37  1  1
 20 38  1  0
 20 39  1  0
 21 40  1  0
 21 41  1  0
M  END
>  <UniqueID>  (76) 
69

>  <SMILES>  (76) 
CC(=O)Oc1ccccc1C(=O)N1C[C@H]2CNC[C@@H](C2)C1

>  <Energy>  (76) 
162.6323529332783

>  <Genealogy>  (76) 
CC(=O)Oc1ccccc1C(=O)N1C[C@H]2CNC[C@@H](C2)C1 (chirality)
CC(=O)Oc1ccccc1C(=O)N1C[C@H]2CNC[C@@H](C2)C1 (3D coordinates assigned)
CC(=O)Oc1ccccc1C(=O)N1C[C@H]2CNC[C@@H](C2)C1 (nonaromatic ring conformer: 162.6323529332783 kcal/mol)

>  <smiles>  (76) 
CC(=O)Oc1ccccc1C(=O)N1CC2CNCC(C2)C1

>  <score_type>  (76) 
oracle

>  <origin>  (76) 
adg

>  <m_score__min__energy>  (76) 
-8.6699999999999999

>  <m_primary>  (76) 
energy

$$$$
76:0
     RDKit          3D

 51 54  0  0  0  0  0  0  0  0999 V2000
   58.8100   28.9320   48.8880 O   0  0  0  0  0  0  0  0  0  0  0  0
   59.8880   28.6100   49.3670 C   0  0  0  0  0  0  0  0  0  0  0  0
   60.3890   27.2030   49.1720 C   0  0  0  0  0  0  0  0  0  0  0  0
   60.1880   26.7560   47.7480 C   0  0  0  0  0  0  0  0  0  0  0  0
   61.1740   26.3300   47.0900 O   0  0  0  0  0  0  0  0  0  0  0  0
   58.9050   26.8160   47.1090 N   0  0  0  0  0  0  0  0  0  0  0  0
   58.4240   27.8630   46.2550 C   0  0  0  0  0  0  0  0  0  0  0  0
   59.2880   28.8290   45.7200 C   0  0  0  0  0  0  0  0  0  0  0  0
   58.7870   29.8560   44.9130 C   0  0  0  0  0  0  0  0  0  0  0  0
   57.4050   29.9590   44.6640 C   0  0  0  0  0  0  0  0  0  0  0  0
   56.8220   31.0400   43.7740 C   0  0  2  0  0  0  0  0  0  0  0  0
   57.7680   31.8920   42.9330 C   0  0  0  0  0  0  0  0  0  0  0  0
   57.1070   32.5020   44.1680 C   0  0  2  0  0  0  0  0  0  0  0  0
   58.0600   32.7900   45.3120 C   0  0  0  0  0  0  0  0  0  0  0  0
   57.7300   32.3870   46.6170 C   0  0  0  0  0  0  0  0  0  0  0  0
   58.5800   32.6830   47.6880 C   0  0  0  0  0  0  0  0  0  0  0  0
   59.7450   33.4230   47.4720 C   0  0  0  0  0  0  0  0  0  0  0  0
   60.0530   33.8820   46.1880 C   0  0  0  0  0  0  0  0  0  0  0  0
   59.2090   33.5790   45.1140 C   0  0  0  0  0  0  0  0  0  0  0  0
   56.5480   28.9650   45.1770 C   0  0  0  0  0  0  0  0  0  0  0  0
   55.1920   28.9740   44.8700 O   0  0  0  0  0  0  0  0  0  0  0  0
   57.0540   27.9460   45.9920 C   0  0  0  0  0  0  0  0  0  0  0  0
   60.6710   29.6110   50.1770 C   0  0  0  0  0  0  0  0  0  0  0  0
   61.5310   30.4670   49.2830 C   0  0  0  0  0  0  0  0  0  0  0  0
   61.3020   30.4920   47.8980 C   0  0  0  0  0  0  0  0  0  0  0  0
   62.1150   31.2630   47.0630 C   0  0  0  0  0  0  0  0  0  0  0  0
   63.1690   32.0160   47.6030 C   0  0  0  0  0  0  0  0  0  0  0  0
   63.9820   32.7870   46.7740 O   0  0  0  0  0  0  0  0  0  0  0  0
   63.4060   31.9880   48.9840 C   0  0  0  0  0  0  0  0  0  0  0  0
   64.4510   32.7290   49.5270 O   0  0  0  0  0  0  0  0  0  0  0  0
   62.5940   31.2130   49.8200 C   0  0  0  0  0  0  0  0  0  0  0  0
   61.4614   27.1654   49.4138 H   0  0  0  0  0  0  0  0  0  0  0  0
   59.8231   26.5323   49.8352 H   0  0  0  0  0  0  0  0  0  0  0  0
   60.3654   28.7791   45.9360 H   0  0  0  0  0  0  0  0  0  0  0  0
   59.4777   30.5884   44.4697 H   0  0  0  0  0  0  0  0  0  0  0  0
   55.9257   30.4412   43.5545 H   0  0  0  0  0  0  0  0  0  0  0  0
   58.8473   31.6797   42.9372 H   0  0  0  0  0  0  0  0  0  0  0  0
   57.8237   32.1667   41.8693 H   0  0  0  0  0  0  0  0  0  0  0  0
   56.4580   33.3600   44.3974 H   0  0  0  0  0  0  0  0  0  0  0  0
   56.7962   31.8345   46.7979 H   0  0  0  0  0  0  0  0  0  0  0  0
   58.3309   32.3329   48.7006 H   0  0  0  0  0  0  0  0  0  0  0  0
   60.4198   33.6445   48.3120 H   0  0  0  0  0  0  0  0  0  0  0  0
   60.9598   34.4820   46.0218 H   0  0  0  0  0  0  0  0  0  0  0  0
   59.4446   33.9595   44.1091 H   0  0  0  0  0  0  0  0  0  0  0  0
   56.3683   27.2050   46.4288 H   0  0  0  0  0  0  0  0  0  0  0  0
   59.9707   30.2555   50.7285 H   0  0  0  0  0  0  0  0  0  0  0  0
   61.3221   29.0665   50.8767 H   0  0  0  0  0  0  0  0  0  0  0  0
   60.4790   29.9021   47.4683 H   0  0  0  0  0  0  0  0  0  0  0  0
   61.9283   31.2798   45.9791 H   0  0  0  0  0  0  0  0  0  0  0  0
   64.9040   33.0880   47.0690 H   0  0  0  0  0  0  0  0  0  0  0  0
   62.7888   31.1877   50.9023 H   0  0  0  0  0  0  0  0  0  0  0  0
  1  2  2  0
  2  3  1  0
  3  4  1  0
  4  5  2  0
  4  6  1  0
  6  7  1  0
  7  8  2  0
  8  9  1  0
  9 10  2  0
 10 11  1  0
 11 12  1  0
 12 13  1  0
 13 14  1  0
 14 15  2  0
 15 16  1  0
 16 17  2  0
 17 18  1  0
 18 19  2  0
 10 20  1  0
 20 21  1  0
 20 22  2  0
  2 23  1  0
 23 24  1  0
 24 25  2  0
 25 26  1  0
 26 27  2  0
 27 28  1  0
 27 29  1  0
 29 30  1  0
 29 31  2  0
 22  7  1  0
 31 24  1  0
 13 11  1  0
 19 14  1  0
  3 32  1  0
  3 33  1  0
  8 34  1  0
  9 35  1  0
 11 36  1  6
 12 37  1  0
 12 38  1  0
 13 39  1  6
 15 40  1  0
 16 41  1  0
 17 42  1  0
 18 43  1  0
 19 44  1  0
 22 45  1  0
 23 46  1  0
 23 47  1  0
 25 48  1  0
 26 49  1  0
 28 50  1  0
 31 51  1  0
M  CHG  3   6  -1  21  -1  30  -1
M  END
>  <UniqueID>  (77) 
70

>  <SMILES>  (77) 
O=C(CC(=O)[N-]c1ccc([C@@H]2C[C@@H]2c2ccccc2)c([O-])c1)Cc1ccc(O)c([O-])c1

>  <Energy>  (77) 
326.61412481667713

>  <Genealogy>  (77) 
O=C(CC(=O)[N-]c1ccc(C2CC2c2ccccc2)c([O-])c1)Cc1ccc(O)c([O-])c1 (protonated)
O=C(CC(=O)[N-]c1ccc([C@@H]2C[C@@H]2c2ccccc2)c([O-])c1)Cc1ccc(O)c([O-])c1 (chirality)
O=C(CC(=O)[N-]c1ccc([C@@H]2C[C@@H]2c2ccccc2)c([O-])c1)Cc1ccc(O)c([O-])c1 (3D coordinates assigned)
O=C(CC(=O)[N-]c1ccc([C@@H]2C[C@@H]2c2ccccc2)c([O-])c1)Cc1ccc(O)c([O-])c1 (nonaromatic ring conformer: 326.61412481667713 kcal/mol)

>  <smiles>  (77) 
O=C(CC(=O)Nc1ccc(C2CC2c2ccccc2)c(O)c1)Cc1ccc(O)c(O)c1

>  <score_type>  (77) 
oracle

>  <origin>  (77) 
adg

>  <m_score__min__energy>  (77) 
-16.370000000000001

>  <m_primary>  (77) 
energy

$$$$
77:0
     RDKit          3D

 40 41  0  0  0  0  0  0  0  0999 V2000
   56.5950   24.2500   43.7240 C   0  0  0  0  0  0  0  0  0  0  0  0
   56.4950   24.2810   45.0570 C   0  0  0  0  0  0  0  0  0  0  0  0
   57.4270   23.4420   45.8860 C   0  0  0  0  0  0  0  0  0  0  0  0
   55.3930   25.0180   45.7210 C   0  0  0  0  0  0  0  0  0  0  0  0
   54.3420   24.3990   46.0340 O   0  0  0  0  0  0  0  0  0  0  0  0
   55.4600   26.4280   45.9780 N   0  0  0  0  0  0  0  0  0  0  0  0
   56.6060   27.2720   45.7820 C   0  0  0  0  0  0  0  0  0  0  0  0
   57.8890   26.8660   46.1870 C   0  0  0  0  0  0  0  0  0  0  0  0
   58.9820   27.7160   46.0120 C   0  0  0  0  0  0  0  0  0  0  0  0
   58.8060   28.9770   45.4420 C   0  0  0  0  0  0  0  0  0  0  0  0
   57.5320   29.4000   45.0370 C   0  0  0  0  0  0  0  0  0  0  0  0
   57.3420   31.0110   44.3320 S   0  0  0  0  0  0  0  0  0  0  0  0
   56.1180   30.9940   43.4590 O   0  0  0  0  0  0  0  0  0  0  0  0
   58.5390   31.3470   43.4870 O   0  0  0  0  0  0  0  0  0  0  0  0
   57.1440   32.1960   45.6080 N   0  0  0  0  0  0  0  0  0  0  0  0
   58.1340   32.0490   46.6970 C   0  0  0  0  0  0  0  0  0  0  0  0
   59.5060   32.6580   46.3630 C   0  0  0  0  0  0  0  0  0  0  0  0
   59.3670   34.0990   45.8760 C   0  0  0  0  0  0  0  0  0  0  0  0
   58.3860   34.1800   44.7080 C   0  0  0  0  0  0  0  0  0  0  0  0
   57.0320   33.5770   45.1010 C   0  0  0  0  0  0  0  0  0  0  0  0
   56.4260   28.5500   45.2310 C   0  0  0  0  0  0  0  0  0  0  0  0
   55.1450   28.9650   44.8780 O   0  0  0  0  0  0  0  0  0  0  0  0
   55.9183   24.8598   43.1074 H   0  0  0  0  0  0  0  0  0  0  0  0
   57.3540   23.6147   43.2440 H   0  0  0  0  0  0  0  0  0  0  0  0
   57.2293   23.6200   46.9533 H   0  0  0  0  0  0  0  0  0  0  0  0
   57.2660   22.3785   45.6556 H   0  0  0  0  0  0  0  0  0  0  0  0
   58.4678   23.7135   45.6556 H   0  0  0  0  0  0  0  0  0  0  0  0
   58.0322   25.8754   46.6433 H   0  0  0  0  0  0  0  0  0  0  0  0
   59.9852   27.3906   46.3245 H   0  0  0  0  0  0  0  0  0  0  0  0
   59.6713   29.6431   45.3096 H   0  0  0  0  0  0  0  0  0  0  0  0
   57.7407   32.5477   47.5951 H   0  0  0  0  0  0  0  0  0  0  0  0
   58.2871   30.9709   46.8527 H   0  0  0  0  0  0  0  0  0  0  0  0
   60.1344   32.6434   47.2657 H   0  0  0  0  0  0  0  0  0  0  0  0
   59.9656   32.0620   45.5608 H   0  0  0  0  0  0  0  0  0  0  0  0
   58.9985   34.7256   46.7016 H   0  0  0  0  0  0  0  0  0  0  0  0
   60.3512   34.4552   45.5376 H   0  0  0  0  0  0  0  0  0  0  0  0
   58.2448   35.2339   44.4263 H   0  0  0  0  0  0  0  0  0  0  0  0
   58.7955   33.6122   43.8595 H   0  0  0  0  0  0  0  0  0  0  0  0
   56.5832   34.2037   45.8858 H   0  0  0  0  0  0  0  0  0  0  0  0
   56.4088   33.5465   44.1951 H   0  0  0  0  0  0  0  0  0  0  0  0
  1  2  2  0
  2  3  1  0
  2  4  1  0
  4  5  2  0
  4  6  1  0
  6  7  1  0
  7  8  2  0
  8  9  1  0
  9 10  2  0
 10 11  1  0
 11 12  1  0
 12 13  2  0
 12 14  2  0
 12 15  1  0
 15 16  1  0
 16 17  1  0
 17 18  1  0
 18 19  1  0
 19 20  1  0
 11 21  2  0
 21 22  1  0
 21  7  1  0
 20 15  1  0
  1 23  1  0
  1 24  1  0
  3 25  1  0
  3 26  1  0
  3 27  1  0
  8 28  1  0
  9 29  1  0
 10 30  1  0
 16 31  1  0
 16 32  1  0
 17 33  1  0
 17 34  1  0
 18 35  1  0
 18 36  1  0
 19 37  1  0
 19 38  1  0
 20 39  1  0
 20 40  1  0
M  CHG  2   6  -1  22  -1
M  END
>  <UniqueID>  (78) 
71

>  <SMILES>  (78) 
C=C(C)C(=O)[N-]c1cccc(S(=O)(=O)N2CCCCC2)c1[O-]

>  <Energy>  (78) 
44.91283283803415

>  <Genealogy>  (78) 
C=C(C)C(=O)[N-]c1cccc(S(=O)(=O)N2CCCCC2)c1[O-] (protonated)
C=C(C)C(=O)[N-]c1cccc(S(=O)(=O)N2CCCCC2)c1[O-] (3D coordinates assigned)
C=C(C)C(=O)[N-]c1cccc(S(=O)(=O)N2CCCCC2)c1[O-] (nonaromatic ring conformer: 44.91283283803415 kcal/mol)

>  <smiles>  (78) 
C=C(C)C(=O)Nc1cccc(S(=O)(=O)N2CCCCC2)c1O

>  <score_type>  (78) 
oracle

>  <origin>  (78) 
adg

>  <m_score__min__energy>  (78) 
-14.92

>  <m_primary>  (78) 
energy

$$$$
78:0
     RDKit          3D

 58 62  0  0  0  0  0  0  0  0999 V2000
   59.8340   31.8650   49.0270 O   0  0  0  0  0  0  0  0  0  0  0  0
   58.6340   32.1640   49.2730 C   0  0  0  0  0  0  0  0  0  0  0  0
   57.8240   32.7820   48.2630 N   0  0  0  0  0  0  0  0  0  0  0  0
   58.2970   33.4510   47.0820 C   0  0  0  0  0  0  0  0  0  0  0  0
   59.1950   34.5150   47.2310 C   0  0  0  0  0  0  0  0  0  0  0  0
   59.6680   35.2050   46.1120 C   0  0  0  0  0  0  0  0  0  0  0  0
   59.2250   34.8550   44.8340 C   0  0  0  0  0  0  0  0  0  0  0  0
   58.3120   33.7970   44.6660 C   0  0  0  0  0  0  0  0  0  0  0  0
   57.8480   33.3910   43.4060 O   0  0  0  0  0  0  0  0  0  0  0  0
   58.1170   32.1280   42.7920 C   0  0  0  0  0  0  0  0  0  0  0  0
   57.9590   30.9740   43.7440 C   0  0  0  0  0  0  0  0  0  0  0  0
   56.7330   30.3430   43.9530 C   0  0  0  0  0  0  0  0  0  0  0  0
   56.6460   29.3260   44.9060 C   0  0  0  0  0  0  0  0  0  0  0  0
   55.5380   28.7510   45.0730 O   0  0  0  0  0  0  0  0  0  0  0  0
   57.7550   28.9610   45.6290 N   0  0  0  0  0  0  0  0  0  0  0  0
   57.6770   27.9870   46.5910 C   0  0  0  0  0  0  0  0  0  0  0  0
   58.8080   27.6190   47.3250 C   0  0  0  0  0  0  0  0  0  0  0  0
   60.0240   28.2490   47.0800 C   0  0  0  0  0  0  0  0  0  0  0  0
   60.1000   29.2490   46.1170 C   0  0  0  0  0  0  0  0  0  0  0  0
   58.9580   29.5940   45.3900 C   0  0  0  0  0  0  0  0  0  0  0  0
   59.0370   30.5890   44.4720 N   0  0  0  0  0  0  0  0  0  0  0  0
   57.8430   33.1120   45.7920 C   0  0  0  0  0  0  0  0  0  0  0  0
   58.0910   31.9630   50.6400 C   0  0  0  0  0  0  0  0  0  0  0  0
   58.3460   32.8990   51.6580 C   0  0  0  0  0  0  0  0  0  0  0  0
   57.9070   32.6540   52.9610 C   0  0  0  0  0  0  0  0  0  0  0  0
   57.2010   31.4890   53.2630 C   0  0  0  0  0  0  0  0  0  0  0  0
   56.8840   30.5670   52.2490 C   0  0  0  0  0  0  0  0  0  0  0  0
   56.1750   29.3360   52.4810 N   0  0  0  0  0  0  0  0  0  0  0  0
   54.8070   29.0580   52.8220 C   0  0  0  0  0  0  0  0  0  0  0  0
   54.5440   27.9680   53.3900 O   0  0  0  0  0  0  0  0  0  0  0  0
   53.6900   29.9640   52.5200 C   0  0  0  0  0  0  0  0  0  0  0  0
   53.6240   30.5600   51.2500 C   0  0  0  0  0  0  0  0  0  0  0  0
   52.6070   31.4690   50.9530 C   0  0  0  0  0  0  0  0  0  0  0  0
   51.6530   31.8010   51.9250 C   0  0  0  0  0  0  0  0  0  0  0  0
   50.6480   32.7170   51.6220 O   0  0  0  0  0  0  0  0  0  0  0  0
   51.7110   31.2100   53.1940 C   0  0  0  0  0  0  0  0  0  0  0  0
   52.7300   30.2910   53.5000 C   0  0  0  0  0  0  0  0  0  0  0  0
   52.8000   29.7060   54.7630 O   0  0  0  0  0  0  0  0  0  0  0  0
   57.3360   30.8160   50.9450 C   0  0  0  0  0  0  0  0  0  0  0  0
   59.5305   34.8097   48.2363 H   0  0  0  0  0  0  0  0  0  0  0  0
   60.3903   36.0251   46.2374 H   0  0  0  0  0  0  0  0  0  0  0  0
   59.5909   35.4080   43.9563 H   0  0  0  0  0  0  0  0  0  0  0  0
   57.4200   31.9894   41.9523 H   0  0  0  0  0  0  0  0  0  0  0  0
   59.1638   32.1391   42.4544 H   0  0  0  0  0  0  0  0  0  0  0  0
   55.8464   30.6424   43.3749 H   0  0  0  0  0  0  0  0  0  0  0  0
   56.7151   27.4906   46.7869 H   0  0  0  0  0  0  0  0  0  0  0  0
   58.7370   26.8347   48.0930 H   0  0  0  0  0  0  0  0  0  0  0  0
   60.9212   27.9573   47.6456 H   0  0  0  0  0  0  0  0  0  0  0  0
   61.0530   29.7651   45.9288 H   0  0  0  0  0  0  0  0  0  0  0  0
   57.1116   32.2997   45.6689 H   0  0  0  0  0  0  0  0  0  0  0  0
   58.8921   33.8257   51.4277 H   0  0  0  0  0  0  0  0  0  0  0  0
   58.1194   33.3849   53.7551 H   0  0  0  0  0  0  0  0  0  0  0  0
   56.8907   31.2905   54.2995 H   0  0  0  0  0  0  0  0  0  0  0  0
   54.3759   30.3098   50.4871 H   0  0  0  0  0  0  0  0  0  0  0  0
   52.5541   31.9259   49.9538 H   0  0  0  0  0  0  0  0  0  0  0  0
   50.9571   31.4658   53.9531 H   0  0  0  0  0  0  0  0  0  0  0  0
   53.4420   28.9480   54.9700 H   0  0  0  0  0  0  0  0  0  0  0  0
   57.0954   30.1003   50.1450 H   0  0  0  0  0  0  0  0  0  0  0  0
  1  2  2  0
  2  3  1  0
  3  4  1  0
  4  5  2  0
  5  6  1  0
  6  7  2  0
  7  8  1  0
  8  9  1  0
  9 10  1  0
 10 11  1  0
 11 12  2  0
 12 13  1  0
 13 14  2  0
 13 15  1  0
 15 16  1  0
 16 17  2  0
 17 18  1  0
 18 19  2  0
 19 20  1  0
 20 21  2  0
  8 22  2  0
  2 23  1  0
 23 24  2  0
 24 25  1  0
 25 26  2  0
 26 27  1  0
 27 28  1  0
 28 29  1  0
 29 30  2  0
 29 31  1  0
 31 32  2  0
 32 33  1  0
 33 34  2  0
 34 35  1  0
 34 36  1  0
 36 37  2  0
 37 38  1  0
 27 39  2  0
 22  4  1  0
 39 23  1  0
 21 11  1  0
 37 31  1  0
 20 15  1  0
  5 40  1  0
  6 41  1  0
  7 42  1  0
 10 43  1  0
 10 44  1  0
 12 45  1  0
 16 46  1  0
 17 47  1  0
 18 48  1  0
 19 49  1  0
 22 50  1  0
 24 51  1  0
 25 52  1  0
 26 53  1  0
 32 54  1  0
 33 55  1  0
 36 56  1  0
 38 57  1  0
 39 58  1  0
M  CHG  3   3  -1  28  -1  35  -1
M  END
>  <UniqueID>  (79) 
72

>  <SMILES>  (79) 
O=C([N-]c1cccc(OCc2cc(=O)n3ccccc3n2)c1)c1cccc([N-]C(=O)c2ccc([O-])cc2O)c1

>  <Energy>  (79) 
89.77369957477492

>  <Genealogy>  (79) 
O=C([N-]c1cccc(OCc2cc(=O)n3ccccc3n2)c1)c1cccc([N-]C(=O)c2ccc([O-])cc2O)c1 (protonated)
O=C([N-]c1cccc(OCc2cc(=O)n3ccccc3n2)c1)c1cccc([N-]C(=O)c2ccc([O-])cc2O)c1 (3D coordinates assigned)
O=C([N-]c1cccc(OCc2cc(=O)n3ccccc3n2)c1)c1cccc([N-]C(=O)c2ccc([O-])cc2O)c1 (optimized conformer: 89.77369957477492 kcal/mol)

>  <smiles>  (79) 
O=C(Nc1cccc(OCc2cc(=O)n3ccccc3n2)c1)c1cccc(NC(=O)c2ccc(O)cc2O)c1

>  <score_type>  (79) 
oracle

>  <origin>  (79) 
adg

>  <m_score__min__energy>  (79) 
-16.530000000000001

>  <m_primary>  (79) 
energy

$$$$
79:0
     RDKit          3D

 47 49  0  0  0  0  0  0  0  0999 V2000
   56.6120   22.5020   48.6430 C   0  0  0  0  0  0  0  0  0  0  0  0
   56.8140   23.9270   48.4110 N   0  0  0  0  0  0  0  0  0  0  0  0
   56.3220   24.6560   47.2800 C   0  0  0  0  0  0  0  0  0  0  0  0
   55.1510   24.4290   46.8750 O   0  0  0  0  0  0  0  0  0  0  0  0
   57.1590   25.6190   46.5390 C   0  0  0  0  0  0  0  0  0  0  0  0
   58.5530   25.4530   46.5390 C   0  0  0  0  0  0  0  0  0  0  0  0
   59.3660   26.3150   45.8040 C   0  0  0  0  0  0  0  0  0  0  0  0
   58.8010   27.3520   45.0640 C   0  0  0  0  0  0  0  0  0  0  0  0
   57.4160   27.5390   45.0510 C   0  0  0  0  0  0  0  0  0  0  0  0
   56.8810   28.6190   44.2730 N   0  0  0  0  0  0  0  0  0  0  0  0
   56.4070   29.8700   44.7840 C   0  0  0  0  0  0  0  0  0  0  0  0
   55.1640   30.0410   44.8830 O   0  0  0  0  0  0  0  0  0  0  0  0
   57.3310   30.9800   45.1330 C   0  0  0  0  0  0  0  0  0  0  0  0
   58.2650   30.7840   46.0810 C   0  0  0  0  0  0  0  0  0  0  0  0
   59.2170   31.8680   46.4930 C   0  0  0  0  0  0  0  0  0  0  0  0
   58.6080   33.1930   46.3140 N   0  0  0  0  0  0  0  0  0  0  0  0
   59.7540   34.4340   46.7520 S   0  0  0  0  0  0  0  0  0  0  0  0
   59.9700   35.3550   45.5840 O   0  0  0  0  0  0  0  0  0  0  0  0
   59.1940   35.2480   47.8860 O   0  0  0  0  0  0  0  0  0  0  0  0
   61.3040   33.7450   47.2400 C   0  0  0  0  0  0  0  0  0  0  0  0
   62.4120   33.8320   46.3870 C   0  0  0  0  0  0  0  0  0  0  0  0
   63.6420   33.2870   46.7710 C   0  0  0  0  0  0  0  0  0  0  0  0
   63.7700   32.6570   48.0100 C   0  0  0  0  0  0  0  0  0  0  0  0
   62.6710   32.5680   48.8660 C   0  0  0  0  0  0  0  0  0  0  0  0
   61.4400   33.1110   48.4840 C   0  0  0  0  0  0  0  0  0  0  0  0
   58.2020   33.3620   44.9170 C   0  0  0  0  0  0  0  0  0  0  0  0
   57.0870   32.3690   44.5670 C   0  0  0  0  0  0  0  0  0  0  0  0
   56.5850   26.6400   45.7570 C   0  0  0  0  0  0  0  0  0  0  0  0
   55.2010   26.7220   45.6360 O   0  0  0  0  0  0  0  0  0  0  0  0
   56.5844   22.3070   49.7252 H   0  0  0  0  0  0  0  0  0  0  0  0
   55.6604   22.1879   48.1894 H   0  0  0  0  0  0  0  0  0  0  0  0
   57.4389   21.9358   48.1894 H   0  0  0  0  0  0  0  0  0  0  0  0
   59.0066   24.6381   47.1223 H   0  0  0  0  0  0  0  0  0  0  0  0
   60.4572   26.1760   45.8083 H   0  0  0  0  0  0  0  0  0  0  0  0
   59.4492   28.0276   44.4865 H   0  0  0  0  0  0  0  0  0  0  0  0
   58.3328   29.8002   46.5684 H   0  0  0  0  0  0  0  0  0  0  0  0
   59.4811   31.7326   47.5522 H   0  0  0  0  0  0  0  0  0  0  0  0
   60.1166   31.8054   45.8630 H   0  0  0  0  0  0  0  0  0  0  0  0
   62.3145   34.3308   45.4115 H   0  0  0  0  0  0  0  0  0  0  0  0
   64.5083   33.3550   46.0965 H   0  0  0  0  0  0  0  0  0  0  0  0
   64.7378   32.2303   48.3121 H   0  0  0  0  0  0  0  0  0  0  0  0
   62.7732   32.0704   49.8417 H   0  0  0  0  0  0  0  0  0  0  0  0
   60.5759   33.0407   49.1610 H   0  0  0  0  0  0  0  0  0  0  0  0
   57.8354   34.3881   44.7665 H   0  0  0  0  0  0  0  0  0  0  0  0
   59.0683   33.1740   44.2657 H   0  0  0  0  0  0  0  0  0  0  0  0
   56.1378   32.7507   44.9713 H   0  0  0  0  0  0  0  0  0  0  0  0
   57.0590   32.2779   43.4711 H   0  0  0  0  0  0  0  0  0  0  0  0
  1  2  1  0
  2  3  1  0
  3  4  2  0
  3  5  1  0
  5  6  2  0
  6  7  1  0
  7  8  2  0
  8  9  1  0
  9 10  1  0
 10 11  1  0
 11 12  2  0
 11 13  1  0
 13 14  2  0
 14 15  1  0
 15 16  1  0
 16 17  1  0
 17 18  2  0
 17 19  2  0
 17 20  1  0
 20 21  2  0
 21 22  1  0
 22 23  2  0
 23 24  1  0
 24 25  2  0
 16 26  1  0
 26 27  1  0
  9 28  2  0
 28 29  1  0
 28  5  1  0
 27 13  1  0
 25 20  1  0
  1 30  1  0
  1 31  1  0
  1 32  1  0
  6 33  1  0
  7 34  1  0
  8 35  1  0
 14 36  1  0
 15 37  1  0
 15 38  1  0
 21 39  1  0
 22 40  1  0
 23 41  1  0
 24 42  1  0
 25 43  1  0
 26 44  1  0
 26 45  1  0
 27 46  1  0
 27 47  1  0
M  CHG  3   2  -1  10  -1  29  -1
M  END
>  <UniqueID>  (80) 
73

>  <SMILES>  (80) 
C[N-]C(=O)c1cccc([N-]C(=O)C2=CCN(S(=O)(=O)c3ccccc3)CC2)c1[O-]

>  <Energy>  (80) 
59.760895697453236

>  <Genealogy>  (80) 
C[N-]C(=O)c1cccc([N-]C(=O)C2=CCN(S(=O)(=O)c3ccccc3)CC2)c1[O-] (protonated)
C[N-]C(=O)c1cccc([N-]C(=O)C2=CCN(S(=O)(=O)c3ccccc3)CC2)c1[O-] (3D coordinates assigned)
C[N-]C(=O)c1cccc([N-]C(=O)C2=CCN(S(=O)(=O)c3ccccc3)CC2)c1[O-] (nonaromatic ring conformer: 59.760895697453236 kcal/mol)

>  <smiles>  (80) 
CNC(=O)c1cccc(NC(=O)C2=CCN(S(=O)(=O)c3ccccc3)CC2)c1O

>  <score_type>  (80) 
oracle

>  <origin>  (80) 
adg

>  <m_score__min__energy>  (80) 
-18.02

>  <m_primary>  (80) 
energy

$$$$
80:0
     RDKit          3D

 59 62  0  0  0  0  0  0  0  0999 V2000
   60.4470   30.9790   48.8110 O   0  0  0  0  0  0  0  0  0  0  0  0
   59.4600   31.3880   49.4830 C   0  0  0  0  0  0  0  0  0  0  0  0
   58.6590   32.4720   48.9850 N   0  0  0  0  0  0  0  0  0  0  0  0
   58.5560   32.8200   47.5940 C   0  0  0  0  0  0  0  0  0  0  0  0
   58.9110   34.0990   47.1290 C   0  0  0  0  0  0  0  0  0  0  0  0
   58.8220   34.4030   45.7670 C   0  0  0  0  0  0  0  0  0  0  0  0
   58.3870   33.4370   44.8590 C   0  0  0  0  0  0  0  0  0  0  0  0
   58.0430   32.1540   45.3050 C   0  0  0  0  0  0  0  0  0  0  0  0
   57.4840   30.9340   44.1610 S   0  0  0  0  0  0  0  0  0  0  0  0
   57.4090   31.5510   42.7920 O   0  0  0  0  0  0  0  0  0  0  0  0
   56.0980   30.4970   44.5430 O   0  0  0  0  0  0  0  0  0  0  0  0
   58.5360   29.5330   44.1060 N   0  0  0  0  0  0  0  0  0  0  0  0
   57.7880   28.2630   44.1650 C   0  0  0  0  0  0  0  0  0  0  0  0
   57.4170   27.8420   45.6060 C   0  0  0  0  0  0  0  0  0  0  0  0
   58.0350   28.6380   46.5990 O   0  0  0  0  0  0  0  0  0  0  0  0
   59.4120   28.7480   46.3280 C   0  0  0  0  0  0  0  0  0  0  0  0
   59.6470   29.6120   45.0780 C   0  0  0  0  0  0  0  0  0  0  0  0
   58.1430   31.8470   46.6700 C   0  0  0  0  0  0  0  0  0  0  0  0
   59.1820   30.7840   50.8100 C   0  0  0  0  0  0  0  0  0  0  0  0
   60.1390   29.9490   51.4010 C   0  0  0  0  0  0  0  0  0  0  0  0
   59.9040   29.3890   52.6510 C   0  0  0  0  0  0  0  0  0  0  0  0
   58.7060   29.6550   53.3100 C   0  0  0  0  0  0  0  0  0  0  0  0
   57.7510   30.4460   52.7320 N   0  0  0  0  0  0  0  0  0  0  0  0
   56.5140   30.7270   53.4790 C   0  0  0  0  0  0  0  0  0  0  0  0
   55.4920   29.6580   53.2030 C   0  0  0  0  0  0  0  0  0  0  0  0
   55.7450   28.4790   53.5660 O   0  0  0  0  0  0  0  0  0  0  0  0
   54.2350   29.9470   52.5590 N   0  0  0  0  0  0  0  0  0  0  0  0
   53.9000   31.2090   51.9220 C   0  0  0  0  0  0  0  0  0  0  0  0
   52.5630   30.9780   51.2280 C   0  0  0  0  0  0  0  0  0  0  0  0
   51.9900   29.7010   51.8390 C   0  0  0  0  0  0  0  0  0  0  0  0
   53.1730   28.9620   52.4470 C   0  0  0  0  0  0  0  0  0  0  0  0
   57.9670   31.0110   51.4980 C   0  0  0  0  0  0  0  0  0  0  0  0
   57.0700   31.7210   50.9660 O   0  0  0  0  0  0  0  0  0  0  0  0
   58.2010   33.1000   49.6850 H   0  0  0  0  0  0  0  0  0  0  0  0
   59.2599   34.8630   47.8393 H   0  0  0  0  0  0  0  0  0  0  0  0
   59.0958   35.4069   45.4103 H   0  0  0  0  0  0  0  0  0  0  0  0
   58.3139   33.6835   43.7895 H   0  0  0  0  0  0  0  0  0  0  0  0
   56.8609   28.3758   43.5839 H   0  0  0  0  0  0  0  0  0  0  0  0
   58.4406   27.4793   43.7528 H   0  0  0  0  0  0  0  0  0  0  0  0
   56.3262   27.9224   45.7232 H   0  0  0  0  0  0  0  0  0  0  0  0
   57.7745   26.8112   45.7461 H   0  0  0  0  0  0  0  0  0  0  0  0
   59.9145   29.2128   47.1891 H   0  0  0  0  0  0  0  0  0  0  0  0
   59.8208   27.7428   46.1479 H   0  0  0  0  0  0  0  0  0  0  0  0
   59.7642   30.6595   45.3925 H   0  0  0  0  0  0  0  0  0  0  0  0
   60.5499   29.2307   44.5785 H   0  0  0  0  0  0  0  0  0  0  0  0
   57.8954   30.8340   47.0199 H   0  0  0  0  0  0  0  0  0  0  0  0
   61.0804   29.7357   50.8735 H   0  0  0  0  0  0  0  0  0  0  0  0
   60.6596   28.7396   53.1172 H   0  0  0  0  0  0  0  0  0  0  0  0
   58.5258   29.2244   54.3060 H   0  0  0  0  0  0  0  0  0  0  0  0
   56.7360   30.7493   54.5561 H   0  0  0  0  0  0  0  0  0  0  0  0
   56.1131   31.7006   53.1605 H   0  0  0  0  0  0  0  0  0  0  0  0
   53.8090   32.0062   52.6744 H   0  0  0  0  0  0  0  0  0  0  0  0
   54.6777   31.5240   51.2108 H   0  0  0  0  0  0  0  0  0  0  0  0
   51.8862   31.8260   51.4091 H   0  0  0  0  0  0  0  0  0  0  0  0
   52.6838   30.8858   50.1386 H   0  0  0  0  0  0  0  0  0  0  0  0
   51.2518   29.9468   52.6166 H   0  0  0  0  0  0  0  0  0  0  0  0
   51.4756   29.0879   51.0844 H   0  0  0  0  0  0  0  0  0  0  0  0
   52.9098   28.5670   53.4393 H   0  0  0  0  0  0  0  0  0  0  0  0
   53.4776   28.1044   51.8292 H   0  0  0  0  0  0  0  0  0  0  0  0
  1  2  2  0
  2  3  1  0
  3  4  1  0
  4  5  2  0
  5  6  1  0
  6  7  2  0
  7  8  1  0
  8  9  1  0
  9 10  2  0
  9 11  2  0
  9 12  1  0
 12 13  1  0
 13 14  1  0
 14 15  1  0
 15 16  1  0
 16 17  1  0
  8 18  2  0
  2 19  1  0
 19 20  2  0
 20 21  1  0
 21 22  2  0
 22 23  1  0
 23 24  1  0
 24 25  1  0
 25 26  2  0
 25 27  1  0
 27 28  1  0
 28 29  1  0
 29 30  1  0
 30 31  1  0
 23 32  1  0
 32 33  2  0
 18  4  1  0
 32 19  1  0
 17 12  1  0
 31 27  1  0
  3 34  1  0
  5 35  1  0
  6 36  1  0
  7 37  1  0
 13 38  1  0
 13 39  1  0
 14 40  1  0
 14 41  1  0
 16 42  1  0
 16 43  1  0
 17 44  1  0
 17 45  1  0
 18 46  1  0
 20 47  1  0
 21 48  1  0
 22 49  1  0
 24 50  1  0
 24 51  1  0
 28 52  1  0
 28 53  1  0
 29 54  1  0
 29 55  1  0
 30 56  1  0
 30 57  1  0
 31 58  1  0
 31 59  1  0
M  END
>  <UniqueID>  (81) 
74

>  <SMILES>  (81) 
O=C(Nc1cccc(S(=O)(=O)N2CCOCC2)c1)c1cccn(CC(=O)N2CCCC2)c1=O

>  <Energy>  (81) 
79.84922764429379

>  <Genealogy>  (81) 
O=C(Nc1cccc(S(=O)(=O)N2CCOCC2)c1)c1cccn(CC(=O)N2CCCC2)c1=O (3D coordinates assigned)
O=C(Nc1cccc(S(=O)(=O)N2CCOCC2)c1)c1cccn(CC(=O)N2CCCC2)c1=O (nonaromatic ring conformer: 79.84922764429379 kcal/mol)

>  <smiles>  (81) 
O=C(Nc1cccc(S(=O)(=O)N2CCOCC2)c1)c1cccn(CC(=O)N2CCCC2)c1=O

>  <score_type>  (81) 
oracle

>  <origin>  (81) 
adg

>  <m_score__min__energy>  (81) 
-10.279999999999999

>  <m_primary>  (81) 
energy

$$$$
81:0
     RDKit          3D

 32 34  0  0  0  0  0  0  0  0999 V2000
   61.7900   30.7160   48.9940 O   0  0  0  0  0  0  0  0  0  0  0  0
   61.4630   30.8670   47.7870 C   0  0  0  0  0  0  0  0  0  0  0  0
   61.8920   32.0590   47.1120 N   0  0  0  0  0  0  0  0  0  0  0  0
   61.3890   33.4150   47.3130 C   0  0  0  0  0  0  0  0  0  0  0  0
   60.0170   33.5700   46.7270 C   0  0  0  0  0  0  0  0  0  0  0  0
   58.8880   32.8520   47.1000 C   0  0  0  0  0  0  0  0  0  0  0  0
   57.7540   33.1820   46.3510 C   0  0  0  0  0  0  0  0  0  0  0  0
   57.9880   34.1440   45.3770 C   0  0  0  0  0  0  0  0  0  0  0  0
   59.6090   34.5850   45.4490 S   0  0  0  0  0  0  0  0  0  0  0  0
   60.6330   29.8270   47.1460 C   0  0  0  0  0  0  0  0  0  0  0  0
   60.5330   29.6210   45.7750 C   0  0  0  0  0  0  0  0  0  0  0  0
   59.6380   28.6030   45.4200 C   0  0  0  0  0  0  0  0  0  0  0  0
   59.0040   28.0080   46.5130 C   0  0  0  0  0  0  0  0  0  0  0  0
   58.0140   26.9030   46.4760 C   0  0  0  0  0  0  0  0  0  0  0  0
   56.6720   27.1400   46.1170 C   0  0  0  0  0  0  0  0  0  0  0  0
   55.7490   26.0900   46.0850 C   0  0  0  0  0  0  0  0  0  0  0  0
   54.4280   26.3370   45.7320 O   0  0  0  0  0  0  0  0  0  0  0  0
   56.1510   24.7920   46.4100 C   0  0  0  0  0  0  0  0  0  0  0  0
   57.4780   24.5430   46.7700 C   0  0  0  0  0  0  0  0  0  0  0  0
   57.8770   23.2510   47.0940 O   0  0  0  0  0  0  0  0  0  0  0  0
   58.4040   25.5900   46.8050 C   0  0  0  0  0  0  0  0  0  0  0  0
   59.5720   28.7680   47.9070 S   0  0  0  0  0  0  0  0  0  0  0  0
   61.3459   33.6268   48.3916 H   0  0  0  0  0  0  0  0  0  0  0  0
   62.0675   34.1194   46.8096 H   0  0  0  0  0  0  0  0  0  0  0  0
   58.8860   32.1002   47.9030 H   0  0  0  0  0  0  0  0  0  0  0  0
   56.7686   32.7225   46.5178 H   0  0  0  0  0  0  0  0  0  0  0  0
   57.2408   34.5482   44.6782 H   0  0  0  0  0  0  0  0  0  0  0  0
   61.1038   30.2034   45.0368 H   0  0  0  0  0  0  0  0  0  0  0  0
   59.4523   28.3010   44.3787 H   0  0  0  0  0  0  0  0  0  0  0  0
   56.3479   28.1592   45.8599 H   0  0  0  0  0  0  0  0  0  0  0  0
   55.4238   23.9671   46.3825 H   0  0  0  0  0  0  0  0  0  0  0  0
   59.4462   25.3866   47.0920 H   0  0  0  0  0  0  0  0  0  0  0  0
  1  2  2  0
  2  3  1  0
  3  4  1  0
  4  5  1  0
  5  6  2  0
  6  7  1  0
  7  8  2  0
  8  9  1  0
  2 10  1  0
 10 11  2  0
 11 12  1  0
 12 13  2  0
 13 14  1  0
 14 15  2  0
 15 16  1  0
 16 17  1  0
 16 18  2  0
 18 19  1  0
 19 20  1  0
 19 21  2  0
 13 22  1  0
  9  5  1  0
 22 10  1  0
 21 14  1  0
  4 23  1  0
  4 24  1  0
  6 25  1  0
  7 26  1  0
  8 27  1  0
 11 28  1  0
 12 29  1  0
 15 30  1  0
 18 31  1  0
 21 32  1  0
M  CHG  3   3  -1  17  -1  20  -1
M  END
>  <UniqueID>  (82) 
75

>  <SMILES>  (82) 
O=C([N-]Cc1cccs1)c1ccc(-c2cc([O-])cc([O-])c2)s1

>  <Energy>  (82) 
89.3565040967908

>  <Genealogy>  (82) 
O=C([N-]Cc1cccs1)c1ccc(-c2cc([O-])cc([O-])c2)s1 (protonated)
O=C([N-]Cc1cccs1)c1ccc(-c2cc([O-])cc([O-])c2)s1 (3D coordinates assigned)
O=C([N-]Cc1cccs1)c1ccc(-c2cc([O-])cc([O-])c2)s1 (optimized conformer: 89.3565040967908 kcal/mol)

>  <smiles>  (82) 
O=C(NCc1cccs1)c1ccc(-c2cc(O)cc(O)c2)s1

>  <score_type>  (82) 
oracle

>  <origin>  (82) 
adg

>  <m_score__min__energy>  (82) 
-13.43

>  <m_primary>  (82) 
energy

$$$$
82:0
     RDKit          3D

 51 54  0  0  1  0  0  0  0  0999 V2000
   57.4950   20.0620   45.3830 N   0  0  0  0  0  0  0  0  0  0  0  0
   56.3680   21.1350   44.6590 S   0  0  0  0  0  0  0  0  0  0  0  0
   55.0090   20.8110   45.2460 O   0  0  0  0  0  0  0  0  0  0  0  0
   56.2670   20.8100   43.1740 O   0  0  0  0  0  0  0  0  0  0  0  0
   56.7210   22.8070   44.9080 C   0  0  0  0  0  0  0  0  0  0  0  0
   55.7720   23.7680   45.1450 C   0  0  0  0  0  0  0  0  0  0  0  0
   56.0930   25.1170   45.3340 C   0  0  0  0  0  0  0  0  0  0  0  0
   57.3960   25.5410   45.2920 C   0  0  0  0  0  0  0  0  0  0  0  0
   57.8960   26.8740   45.4130 C   0  0  0  0  0  0  0  0  0  0  0  0
   58.9300   27.2670   45.8290 O   0  0  0  0  0  0  0  0  0  0  0  0
   56.8120   28.0640   44.8560 N   0  0  0  0  0  0  0  0  0  0  0  0
   57.6140   29.1450   45.1400 C   0  0  0  0  0  0  0  0  0  0  0  0
   58.6830   29.4160   45.6150 O   0  0  0  0  0  0  0  0  0  0  0  0
   56.8430   30.3650   44.6740 N   0  0  0  0  0  0  0  0  0  0  0  0
   57.4960   31.5840   44.8510 C   0  0  0  0  0  0  0  0  0  0  0  0
   57.8860   32.2830   43.7500 C   0  0  0  0  0  0  0  0  0  0  0  0
   58.5520   33.4650   43.8940 C   0  0  0  0  0  0  0  0  0  0  0  0
   58.8070   33.9080   45.1560 C   0  0  0  0  0  0  0  0  0  0  0  0
   59.4570   35.0780   45.2810 N   0  0  0  0  0  0  0  0  0  0  0  0
   59.7570   35.6210   46.4710 C   0  0  0  0  0  0  0  0  0  0  0  0
   59.3770   34.9350   47.5630 N   0  0  0  0  0  0  0  0  0  0  0  0
   58.7150   33.7410   47.4860 C   0  0  0  0  0  0  0  0  0  0  0  0
   58.4300   33.1700   48.5370 N   0  0  0  0  0  0  0  0  0  0  0  0
   58.9230   32.0660   49.1820 C   0  0  0  0  0  0  0  0  0  0  0  0
   58.8560   32.0630   50.6030 C   0  0  0  0  0  0  0  0  0  0  0  0
   59.2480   30.9320   51.2830 C   0  0  0  0  0  0  0  0  0  0  0  0
   59.6960   29.8180   50.6490 C   0  0  0  0  0  0  0  0  0  0  0  0
   59.7730   29.7860   49.2770 C   0  0  0  0  0  0  0  0  0  0  0  0
   60.3990   28.2350   48.3510 Br  0  0  0  0  0  0  0  0  0  0  0  0
   59.3930   30.8940   48.5350 C   0  0  0  0  0  0  0  0  0  0  0  0
   58.4170   33.2100   46.2730 C   0  0  0  0  0  0  0  0  0  0  0  0
   57.7540   32.0340   46.1540 C   0  0  0  0  0  0  0  0  0  0  0  0
   58.3740   24.5570   45.0510 C   0  0  0  0  0  0  0  0  0  0  0  0
   58.0380   23.2380   44.8660 C   0  0  0  0  0  0  0  0  0  0  0  0
   58.4600   20.4200   45.2550 H   0  0  0  0  0  0  0  0  0  0  0  0
   57.3700   19.1340   44.9050 H   0  0  0  0  0  0  0  0  0  0  0  0
   54.7151   23.4662   45.1883 H   0  0  0  0  0  0  0  0  0  0  0  0
   55.2901   25.8459   45.5185 H   0  0  0  0  0  0  0  0  0  0  0  0
   56.2730   27.3370   44.6650 H   0  0  0  0  0  0  0  0  0  0  0  0
   55.9030   30.1750   44.2700 H   0  0  0  0  0  0  0  0  0  0  0  0
   57.6643   31.8951   42.7448 H   0  0  0  0  0  0  0  0  0  0  0  0
   58.8738   34.0436   43.0156 H   0  0  0  0  0  0  0  0  0  0  0  0
   60.2882   36.5811   46.5492 H   0  0  0  0  0  0  0  0  0  0  0  0
   59.6090   35.3490   48.4810 H   0  0  0  0  0  0  0  0  0  0  0  0
   58.4975   32.9483   51.1486 H   0  0  0  0  0  0  0  0  0  0  0  0
   59.1963   30.9307   52.3818 H   0  0  0  0  0  0  0  0  0  0  0  0
   59.9984   28.9379   51.2355 H   0  0  0  0  0  0  0  0  0  0  0  0
   59.4564   30.8642   47.4372 H   0  0  0  0  0  0  0  0  0  0  0  0
   57.4339   31.4604   47.0363 H   0  0  0  0  0  0  0  0  0  0  0  0
   59.4330   24.8518   45.0099 H   0  0  0  0  0  0  0  0  0  0  0  0
   58.8356   22.5038   44.6795 H   0  0  0  0  0  0  0  0  0  0  0  0
  1  2  1  0
  2  3  2  0
  2  4  2  0
  2  5  1  0
  5  6  2  0
  6  7  1  0
  7  8  2  0
  8  9  1  0
  9 10  2  0
  9 11  1  0
 11 12  1  0
 12 13  2  0
 12 14  1  0
 14 15  1  0
 15 16  2  0
 16 17  1  0
 17 18  2  0
 18 19  1  0
 19 20  2  0
 20 21  1  0
 21 22  1  0
 22 23  2  0
 23 24  1  0
 24 25  2  0
 25 26  1  0
 26 27  2  0
 27 28  1  0
 28 29  1  0
 28 30  2  0
 22 31  1  0
 31 32  2  0
  8 33  1  0
 33 34  2  0
 34  5  1  0
 32 15  1  0
 31 18  1  0
 30 24  1  0
  1 35  1  0
  1 36  1  0
  6 37  1  0
  7 38  1  0
 11 39  1  0
 14 40  1  0
 16 41  1  0
 17 42  1  0
 20 43  1  0
 21 44  1  0
 25 45  1  0
 26 46  1  0
 27 47  1  0
 30 48  1  0
 32 49  1  0
 33 50  1  0
 34 51  1  0
M  END
>  <smiles>  (83) 
NS(=O)(=O)c1ccc(C(=O)NC(=O)Nc2ccc3nc[nH]c(=Nc4cccc(Br)c4)c3c2)cc1

>  <score_type>  (83) 
oracle

>  <origin>  (83) 
adg

>  <m_score__min__energy>  (83) 
-10.35

>  <m_primary>  (83) 
energy

$$$$
83:0
     RDKit          3D

 60 64  0  0  0  0  0  0  0  0999 V2000
   63.7154   30.4214   51.0095 H   0  0  0  0  0  0  0  0  0  0  0  0
   62.7620   30.2230   51.5210 C   0  0  0  0  0  0  0  0  0  0  0  0
   62.3990   31.1630   52.6020 C   0  0  0  0  0  0  0  0  0  0  0  0
   63.0840   31.1480   53.6620 O   0  0  0  0  0  0  0  0  0  0  0  0
   61.3450   32.0680   52.4730 O   0  0  0  0  0  0  0  0  0  0  0  0
   61.3620   33.1790   51.5820 C   0  0  0  0  0  0  0  0  0  0  0  0
   62.3111   33.1858   51.0259 H   0  0  0  0  0  0  0  0  0  0  0  0
   61.2632   34.1088   52.1613 H   0  0  0  0  0  0  0  0  0  0  0  0
   60.2460   33.0790   50.6370 N   0  0  0  0  0  0  0  0  0  0  0  0
   58.9420   32.9070   50.9530 C   0  0  0  0  0  0  0  0  0  0  0  0
   58.4140   32.8300   52.3520 C   0  0  0  0  0  0  0  0  0  0  0  0
   59.2436   32.9510   53.0642 H   0  0  0  0  0  0  0  0  0  0  0  0
   57.6757   33.6300   52.5098 H   0  0  0  0  0  0  0  0  0  0  0  0
   57.9349   31.8525   52.5098 H   0  0  0  0  0  0  0  0  0  0  0  0
   58.1590   32.7180   49.8710 N   0  0  0  0  0  0  0  0  0  0  0  0
   59.0020   32.7980   48.8230 C   0  0  0  0  0  0  0  0  0  0  0  0
   58.5530   32.6790   47.4190 C   0  0  0  0  0  0  0  0  0  0  0  0
   59.2030   31.7830   46.5550 C   0  0  0  0  0  0  0  0  0  0  0  0
   60.0545   31.1908   46.9213 H   0  0  0  0  0  0  0  0  0  0  0  0
   58.7740   31.6390   45.2310 C   0  0  0  0  0  0  0  0  0  0  0  0
   59.2930   30.9410   44.5576 H   0  0  0  0  0  0  0  0  0  0  0  0
   57.6860   32.3820   44.7640 C   0  0  0  0  0  0  0  0  0  0  0  0
   57.3519   32.2719   43.7218 H   0  0  0  0  0  0  0  0  0  0  0  0
   57.0230   33.2640   45.6200 C   0  0  0  0  0  0  0  0  0  0  0  0
   56.1646   33.8451   45.2519 H   0  0  0  0  0  0  0  0  0  0  0  0
   57.4480   33.4100   46.9440 C   0  0  0  0  0  0  0  0  0  0  0  0
   56.9166   34.0989   47.6171 H   0  0  0  0  0  0  0  0  0  0  0  0
   60.2940   33.0220   49.2880 C   0  0  0  0  0  0  0  0  0  0  0  0
   61.5300   33.0600   48.4780 C   0  0  0  0  0  0  0  0  0  0  0  0
   62.6220   32.2440   48.8180 C   0  0  0  0  0  0  0  0  0  0  0  0
   62.5580   31.5769   49.6903 H   0  0  0  0  0  0  0  0  0  0  0  0
   63.7900   32.2780   48.0500 C   0  0  0  0  0  0  0  0  0  0  0  0
   64.6445   31.6406   48.3212 H   0  0  0  0  0  0  0  0  0  0  0  0
   63.8730   33.1210   46.9380 C   0  0  0  0  0  0  0  0  0  0  0  0
   64.7946   33.1499   46.3381 H   0  0  0  0  0  0  0  0  0  0  0  0
   62.7880   33.9260   46.5880 C   0  0  0  0  0  0  0  0  0  0  0  0
   62.8539   34.5861   45.7106 H   0  0  0  0  0  0  0  0  0  0  0  0
   61.6170   33.8940   47.3520 C   0  0  0  0  0  0  0  0  0  0  0  0
   60.7610   34.5246   47.0696 H   0  0  0  0  0  0  0  0  0  0  0  0
   62.0700   29.1540   51.0850 C   0  0  0  0  0  0  0  0  0  0  0  0
   62.4596   28.1698   51.3843 H   0  0  0  0  0  0  0  0  0  0  0  0
   60.8490   29.1450   50.2520 C   0  0  0  0  0  0  0  0  0  0  0  0
   60.7830   28.8040   48.9870 O   0  0  0  0  0  0  0  0  0  0  0  0
   59.5410   28.9210   48.5830 C   0  0  0  0  0  0  0  0  0  0  0  0
   59.1130   28.6280   47.2050 C   0  0  0  0  0  0  0  0  0  0  0  0
   59.6662   29.1249   46.3944 H   0  0  0  0  0  0  0  0  0  0  0  0
   58.1020   27.8040   46.8430 C   0  0  0  0  0  0  0  0  0  0  0  0
   58.0070   26.3710   47.2500 C   0  0  0  0  0  0  0  0  0  0  0  0
   58.9500   25.7890   47.8460 O   0  0  0  0  0  0  0  0  0  0  0  0
   56.8490   25.6090   46.9090 N   0  0  0  0  0  0  0  0  0  0  0  0
   55.8060   26.1560   46.1050 C   0  0  0  0  0  0  0  0  0  0  0  0
   54.8030   25.4530   45.8180 O   0  0  0  0  0  0  0  0  0  0  0  0
   55.9070   27.4940   45.6140 N   0  0  0  0  0  0  0  0  0  0  0  0
   55.1510   27.8750   45.0020 H   0  0  0  0  0  0  0  0  0  0  0  0
   57.0300   28.3170   45.9460 C   0  0  0  0  0  0  0  0  0  0  0  0
   57.0860   29.4890   45.4800 O   0  0  0  0  0  0  0  0  0  0  0  0
   58.7560   29.4110   49.6120 C   0  0  0  0  0  0  0  0  0  0  0  0
   57.6809   29.6409   49.5759 H   0  0  0  0  0  0  0  0  0  0  0  0
   59.6010   29.5510   50.6910 C   0  0  0  0  0  0  0  0  0  0  0  0
   59.3375   29.9118   51.6962 H   0  0  0  0  0  0  0  0  0  0  0  0
  1  2  1  0
  2  3  1  0
  3  4  2  0
  3  5  1  0
  5  6  1  0
  6  7  1  0
  6  8  1  0
  6  9  1  0
  9 10  1  0
 10 11  1  0
 11 12  1  0
 11 13  1  0
 11 14  1  0
 10 15  2  0
 15 16  1  0
 16 17  1  0
 17 18  2  0
 18 19  1  0
 18 20  1  0
 20 21  1  0
 20 22  2  0
 22 23  1  0
 22 24  1  0
 24 25  1  0
 24 26  2  0
 26 27  1  0
 16 28  2  0
 28 29  1  0
 29 30  2  0
 30 31  1  0
 30 32  1  0
 32 33  1  0
 32 34  2  0
 34 35  1  0
 34 36  1  0
 36 37  1  0
 36 38  2  0
 38 39  1  0
  2 40  2  0
 40 41  1  0
 40 42  1  0
 42 43  1  0
 43 44  1  0
 44 45  1  0
 45 46  1  0
 45 47  2  0
 47 48  1  0
 48 49  2  0
 48 50  1  0
 50 51  1  0
 51 52  2  0
 51 53  1  0
 53 54  1  0
 53 55  1  0
 55 56  2  0
 44 57  2  0
 57 58  1  0
 57 59  1  0
 59 60  1  0
 28  9  1  0
 38 29  1  0
 59 42  2  0
 26 17  1  0
 55 47  1  0
M  CHG  1  50  -1
M  END
>  <UniqueID>  (84) 
76

>  <SMILES>  (84) 
Cc1nc(-c2ccccc2)c(-c2ccccc2)n1COC(=O)/C=C\c1ccc(/C=C2\C(=O)[N-]C(=O)NC2=O)o1

>  <Energy>  (84) 
138.4649874984898

>  <Genealogy>  (84) 
Cc1nc(-c2ccccc2)c(-c2ccccc2)n1COC(=O)C=Cc1ccc(C=C2C(=O)[N-]C(=O)NC2=O)o1 (protonated)
Cc1nc(-c2ccccc2)c(-c2ccccc2)n1COC(=O)/C=C\c1ccc(/C=C2\C(=O)[N-]C(=O)NC2=O)o1 (cis-trans isomerization)
Cc1nc(-c2ccccc2)c(-c2ccccc2)n1COC(=O)/C=C\c1ccc(/C=C2\C(=O)[N-]C(=O)NC2=O)o1 (3D coordinates assigned)
Cc1nc(-c2ccccc2)c(-c2ccccc2)n1COC(=O)/C=C\c1ccc(/C=C2\C(=O)[N-]C(=O)NC2=O)o1 (nonaromatic ring conformer: 138.4649874984898 kcal/mol)

>  <smiles>  (84) 
Cc1nc(-c2ccccc2)c(-c2ccccc2)n1COC(=O)C=Cc1ccc(C=C2C(=O)NC(=O)NC2=O)o1

>  <score_type>  (84) 
oracle

>  <origin>  (84) 
adg

>  <m_score__min__energy>  (84) 
-12.220000000000001

>  <m_primary>  (84) 
energy

$$$$
84:0
     RDKit          3D

 48 50  0  0  0  0  0  0  0  0999 V2000
   58.9710   34.6610   45.7180 C   0  0  0  0  0  0  0  0  0  0  0  0
   59.3180   34.9690   47.1770 C   0  0  0  0  0  0  0  0  0  0  0  0
   59.8240   33.7180   47.9250 C   0  0  2  0  0  0  0  0  0  0  0  0
   59.2910   33.6210   49.2910 N   0  0  0  0  0  0  0  0  0  0  0  0
   58.8770   32.4090   49.9350 C   0  0  0  0  0  0  0  0  0  0  0  0
   59.1660   31.0760   49.7100 C   0  0  0  0  0  0  0  0  0  0  0  0
   59.9880   30.3770   48.7700 N   0  0  0  0  0  0  0  0  0  0  0  0
   59.4790   29.8540   47.5350 C   0  0  0  0  0  0  0  0  0  0  0  0
   59.9080   28.5950   47.1060 C   0  0  0  0  0  0  0  0  0  0  0  0
   59.4030   28.0420   45.9340 C   0  0  0  0  0  0  0  0  0  0  0  0
   58.4820   28.7460   45.1520 C   0  0  0  0  0  0  0  0  0  0  0  0
   57.8630   27.9260   43.7220 Cl  0  0  0  0  0  0  0  0  0  0  0  0
   58.0520   30.0370   45.5510 C   0  0  0  0  0  0  0  0  0  0  0  0
   56.9800   31.0060   44.5090 S   0  0  0  0  0  0  0  0  0  0  0  0
   57.7460   31.2320   42.9180 C   0  0  0  0  0  0  0  0  0  0  0  0
   55.6570   30.3140   44.3430 O   0  0  0  0  0  0  0  0  0  0  0  0
   56.7070   32.3550   45.1150 O   0  0  0  0  0  0  0  0  0  0  0  0
   58.5000   30.5500   46.7980 C   0  0  0  0  0  0  0  0  0  0  0  0
   57.9640   31.7160   47.3550 O   0  0  0  0  0  0  0  0  0  0  0  0
   58.3400   30.7190   50.7600 C   0  0  0  0  0  0  0  0  0  0  0  0
   57.9930   29.6330   51.2920 O   0  0  0  0  0  0  0  0  0  0  0  0
   58.0370   32.0460   50.9760 C   0  0  0  0  0  0  0  0  0  0  0  0
   57.2840   32.6540   51.7820 O   0  0  0  0  0  0  0  0  0  0  0  0
   61.3410   33.6130   47.9400 C   0  0  0  0  0  0  0  0  0  0  0  0
   62.0480   33.4950   46.7290 C   0  0  0  0  0  0  0  0  0  0  0  0
   63.4410   33.3780   46.7290 C   0  0  0  0  0  0  0  0  0  0  0  0
   64.1450   33.3730   47.9360 C   0  0  0  0  0  0  0  0  0  0  0  0
   63.4570   33.4860   49.1450 C   0  0  0  0  0  0  0  0  0  0  0  0
   62.0640   33.6020   49.1510 C   0  0  0  0  0  0  0  0  0  0  0  0
   58.1487   33.9312   45.6829 H   0  0  0  0  0  0  0  0  0  0  0  0
   58.6613   35.5870   45.2114 H   0  0  0  0  0  0  0  0  0  0  0  0
   59.8537   34.2436   45.2114 H   0  0  0  0  0  0  0  0  0  0  0  0
   60.1030   35.7392   47.2008 H   0  0  0  0  0  0  0  0  0  0  0  0
   58.4034   35.3189   47.6781 H   0  0  0  0  0  0  0  0  0  0  0  0
   59.4361   32.8639   47.3504 H   0  0  0  0  0  0  0  0  0  0  0  0
   58.9370   34.5090   49.7150 H   0  0  0  0  0  0  0  0  0  0  0  0
   61.0180   30.3590   48.9410 H   0  0  0  0  0  0  0  0  0  0  0  0
   60.6491   28.0384   47.6985 H   0  0  0  0  0  0  0  0  0  0  0  0
   59.7315   27.0406   45.6190 H   0  0  0  0  0  0  0  0  0  0  0  0
   58.7928   31.5408   43.0556 H   0  0  0  0  0  0  0  0  0  0  0  0
   57.7134   30.2860   42.3577 H   0  0  0  0  0  0  0  0  0  0  0  0
   57.2051   32.0088   42.3577 H   0  0  0  0  0  0  0  0  0  0  0  0
   57.4360   32.4020   46.8330 H   0  0  0  0  0  0  0  0  0  0  0  0
   61.5003   33.4948   45.7751 H   0  0  0  0  0  0  0  0  0  0  0  0
   63.9842   33.2897   45.7766 H   0  0  0  0  0  0  0  0  0  0  0  0
   65.2411   33.2800   47.9333 H   0  0  0  0  0  0  0  0  0  0  0  0
   64.0119   33.4838   50.0948 H   0  0  0  0  0  0  0  0  0  0  0  0
   61.5275   33.6854   50.1077 H   0  0  0  0  0  0  0  0  0  0  0  0
  1  2  1  0
  2  3  1  0
  3  4  1  0
  4  5  1  0
  5  6  2  0
  6  7  1  0
  7  8  1  0
  8  9  2  0
  9 10  1  0
 10 11  2  0
 11 12  1  0
 11 13  1  0
 13 14  1  0
 14 15  1  0
 14 16  2  0
 14 17  2  0
 13 18  2  0
 18 19  1  0
  6 20  1  0
 20 21  2  0
 20 22  1  0
 22 23  2  0
  3 24  1  0
 24 25  2  0
 25 26  1  0
 26 27  2  0
 27 28  1  0
 28 29  2  0
 22  5  1  0
 29 24  1  0
 18  8  1  0
  1 30  1  0
  1 31  1  0
  1 32  1  0
  2 33  1  0
  2 34  1  0
  3 35  1  6
  4 36  1  0
  7 37  1  0
  9 38  1  0
 10 39  1  0
 15 40  1  0
 15 41  1  0
 15 42  1  0
 19 43  1  0
 25 44  1  0
 26 45  1  0
 27 46  1  0
 28 47  1  0
 29 48  1  0
M  END
>  <UniqueID>  (85) 
77

>  <SMILES>  (85) 
CC[C@H](Nc1c(Nc2ccc(Cl)c(S(C)(=O)=O)c2O)c(=O)c1=O)c1ccccc1

>  <Energy>  (85) 
49.619528109231744

>  <Genealogy>  (85) 
CC[C@H](Nc1c(Nc2ccc(Cl)c(S(C)(=O)=O)c2O)c(=O)c1=O)c1ccccc1 (chirality)
CC[C@H](Nc1c(Nc2ccc(Cl)c(S(C)(=O)=O)c2O)c(=O)c1=O)c1ccccc1 (3D coordinates assigned)
CC[C@H](Nc1c(Nc2ccc(Cl)c(S(C)(=O)=O)c2O)c(=O)c1=O)c1ccccc1 (optimized conformer: 49.619528109231744 kcal/mol)

>  <smiles>  (85) 
CCC(Nc1c(Nc2ccc(Cl)c(S(C)(=O)=O)c2O)c(=O)c1=O)c1ccccc1

>  <score_type>  (85) 
oracle

>  <origin>  (85) 
adg

>  <m_score__min__energy>  (85) 
-9.7400000000000002

>  <m_primary>  (85) 
energy

$$$$
85:0
     RDKit          3D

 51 54  0  0  0  0  0  0  0  0999 V2000
   58.0930   26.5510   46.4500 O   0  0  0  0  0  0  0  0  0  0  0  0
   56.8490   26.4140   46.3090 C   0  0  0  0  0  0  0  0  0  0  0  0
   56.1880   25.1260   46.7180 C   0  0  0  0  0  0  0  0  0  0  0  0
   56.2690   24.1110   45.6430 N   0  0  0  0  0  0  0  0  0  0  0  0
   55.1160   23.7380   44.9890 C   0  0  0  0  0  0  0  0  0  0  0  0
   54.0050   24.2550   45.2870 O   0  0  0  0  0  0  0  0  0  0  0  0
   55.1470   22.7960   44.0150 N   0  0  0  0  0  0  0  0  0  0  0  0
   56.2930   22.1820   43.6490 C   0  0  0  0  0  0  0  0  0  0  0  0
   56.2610   21.3090   42.7390 O   0  0  0  0  0  0  0  0  0  0  0  0
   57.4920   22.5170   44.2880 C   0  0  0  0  0  0  0  0  0  0  0  0
   58.7040   21.8890   43.9560 C   0  0  0  0  0  0  0  0  0  0  0  0
   59.8480   22.2160   44.6100 N   0  0  0  0  0  0  0  0  0  0  0  0
   59.8570   23.1460   45.6000 C   0  0  0  0  0  0  0  0  0  0  0  0
   58.6800   23.7990   45.9670 C   0  0  0  0  0  0  0  0  0  0  0  0
   57.4650   23.5010   45.3060 C   0  0  0  0  0  0  0  0  0  0  0  0
   56.1010   27.4370   45.6450 N   0  0  0  0  0  0  0  0  0  0  0  0
   56.6550   28.6940   45.2390 C   0  0  0  0  0  0  0  0  0  0  0  0
   55.8580   29.5920   44.5210 C   0  0  0  0  0  0  0  0  0  0  0  0
   56.3600   30.8440   44.1540 C   0  0  0  0  0  0  0  0  0  0  0  0
   57.6760   31.2050   44.4840 C   0  0  0  0  0  0  0  0  0  0  0  0
   58.2090   32.5630   44.1030 C   0  0  0  0  0  0  0  0  0  0  0  0
   58.0740   33.5420   45.2420 C   0  0  0  0  0  0  0  0  0  0  0  0
   57.0840   34.3240   45.2310 O   0  0  0  0  0  0  0  0  0  0  0  0
   59.0450   33.6300   46.3130 N   0  0  0  0  0  0  0  0  0  0  0  0
   60.2120   32.7360   46.3630 C   0  0  0  0  0  0  0  0  0  0  0  0
   60.7440   32.6250   47.7950 C   0  0  0  0  0  0  0  0  0  0  0  0
   60.9520   33.9040   48.3560 O   0  0  0  0  0  0  0  0  0  0  0  0
   59.7090   34.5580   48.5020 C   0  0  0  0  0  0  0  0  0  0  0  0
   59.0830   34.8490   47.1360 C   0  0  0  0  0  0  0  0  0  0  0  0
   58.4840   30.2940   45.1830 C   0  0  0  0  0  0  0  0  0  0  0  0
   57.9820   29.0420   45.5430 C   0  0  0  0  0  0  0  0  0  0  0  0
   56.6891   24.7363   47.6164 H   0  0  0  0  0  0  0  0  0  0  0  0
   55.1265   25.3312   46.9205 H   0  0  0  0  0  0  0  0  0  0  0  0
   58.7263   21.1282   43.1619 H   0  0  0  0  0  0  0  0  0  0  0  0
   60.7390   21.7380   44.3520 H   0  0  0  0  0  0  0  0  0  0  0  0
   60.7985   23.3859   46.1158 H   0  0  0  0  0  0  0  0  0  0  0  0
   58.6966   24.5478   46.7726 H   0  0  0  0  0  0  0  0  0  0  0  0
   54.8311   29.3115   44.2438 H   0  0  0  0  0  0  0  0  0  0  0  0
   55.7206   31.5500   43.6038 H   0  0  0  0  0  0  0  0  0  0  0  0
   59.2717   32.4689   43.8350 H   0  0  0  0  0  0  0  0  0  0  0  0
   57.6252   32.9391   43.2499 H   0  0  0  0  0  0  0  0  0  0  0  0
   59.9180   31.7372   46.0080 H   0  0  0  0  0  0  0  0  0  0  0  0
   61.0038   33.1496   45.7212 H   0  0  0  0  0  0  0  0  0  0  0  0
   60.0141   32.0769   48.4088 H   0  0  0  0  0  0  0  0  0  0  0  0
   61.7053   32.0907   47.7723 H   0  0  0  0  0  0  0  0  0  0  0  0
   59.0292   33.9151   49.0804 H   0  0  0  0  0  0  0  0  0  0  0  0
   59.8723   35.5119   49.0249 H   0  0  0  0  0  0  0  0  0  0  0  0
   58.0575   35.2200   47.2800 H   0  0  0  0  0  0  0  0  0  0  0  0
   59.6928   35.6057   46.6207 H   0  0  0  0  0  0  0  0  0  0  0  0
   59.5160   30.5677   45.4479 H   0  0  0  0  0  0  0  0  0  0  0  0
   58.6291   28.3237   46.0677 H   0  0  0  0  0  0  0  0  0  0  0  0
  1  2  2  0
  2  3  1  0
  3  4  1  0
  4  5  1  0
  5  6  2  0
  5  7  1  0
  7  8  1  0
  8  9  2  0
  8 10  1  0
 10 11  2  0
 11 12  1  0
 12 13  2  0
 13 14  1  0
 14 15  2  0
  2 16  1  0
 16 17  1  0
 17 18  2  0
 18 19  1  0
 19 20  2  0
 20 21  1  0
 21 22  1  0
 22 23  2  0
 22 24  1  0
 24 25  1  0
 25 26  1  0
 26 27  1  0
 27 28  1  0
 28 29  1  0
 20 30  1  0
 30 31  2  0
 15  4  1  0
 31 17  1  0
 15 10  1  0
 29 24  1  0
  3 32  1  0
  3 33  1  0
 11 34  1  0
 12 35  1  0
 13 36  1  0
 14 37  1  0
 18 38  1  0
 19 39  1  0
 21 40  1  0
 21 41  1  0
 25 42  1  0
 25 43  1  0
 26 44  1  0
 26 45  1  0
 28 46  1  0
 28 47  1  0
 29 48  1  0
 29 49  1  0
 30 50  1  0
 31 51  1  0
M  CHG  3   7  -1  12   1  16  -1
M  END
>  <UniqueID>  (86) 
78

>  <SMILES>  (86) 
O=C(Cn1c(=O)[n-]c(=O)c2c[nH+]ccc21)[N-]c1ccc(CC(=O)N2CCOCC2)cc1

>  <Energy>  (86) 
72.39785163704116

>  <Genealogy>  (86) 
O=C(Cn1c(=O)[n-]c(=O)c2c[nH+]ccc21)[N-]c1ccc(CC(=O)N2CCOCC2)cc1 (protonated)
O=C(Cn1c(=O)[n-]c(=O)c2c[nH+]ccc21)[N-]c1ccc(CC(=O)N2CCOCC2)cc1 (3D coordinates assigned)
O=C(Cn1c(=O)[n-]c(=O)c2c[nH+]ccc21)[N-]c1ccc(CC(=O)N2CCOCC2)cc1 (nonaromatic ring conformer: 72.39785163704116 kcal/mol)

>  <smiles>  (86) 
O=C(Cn1c(=O)[nH]c(=O)c2cnccc21)Nc1ccc(CC(=O)N2CCOCC2)cc1

>  <score_type>  (86) 
oracle

>  <origin>  (86) 
adg

>  <m_score__min__energy>  (86) 
-11.58

>  <m_primary>  (86) 
energy

$$$$
86:0
     RDKit          3D

 45 47  0  0  0  0  0  0  0  0999 V2000
   55.1410   27.9370   44.8880 H   0  0  0  0  0  0  0  0  0  0  0  0
   55.7200   27.5480   45.6220 O   0  0  0  0  0  0  0  0  0  0  0  0
   55.8370   26.1750   45.8430 C   0  0  0  0  0  0  0  0  0  0  0  0
   54.7050   25.4270   45.9090 N   0  0  0  0  0  0  0  0  0  0  0  0
   54.7540   24.0870   46.1210 C   0  0  0  0  0  0  0  0  0  0  0  0
   53.3720   23.2230   46.1960 S   0  0  0  0  0  0  0  0  0  0  0  0
   55.9510   23.4650   46.2620 N   0  0  0  0  0  0  0  0  0  0  0  0
   57.1150   24.1610   46.2040 C   0  0  0  0  0  0  0  0  0  0  0  0
   58.2090   23.5480   46.3250 O   0  0  0  0  0  0  0  0  0  0  0  0
   57.0900   25.5540   46.0080 C   0  0  0  0  0  0  0  0  0  0  0  0
   58.3420   26.3250   45.8960 C   0  0  0  0  0  0  0  0  0  0  0  0
   59.1715   25.8605   45.3426 H   0  0  0  0  0  0  0  0  0  0  0  0
   58.5560   27.5500   46.4140 C   0  0  0  0  0  0  0  0  0  0  0  0
   58.6190   27.7830   47.7800 C   0  0  0  0  0  0  0  0  0  0  0  0
   58.5437   27.0288   48.5771 H   0  0  0  0  0  0  0  0  0  0  0  0
   58.7940   29.1400   47.9480 C   0  0  0  0  0  0  0  0  0  0  0  0
   58.9020   29.8380   49.2690 C   0  0  0  0  0  0  0  0  0  0  0  0
   58.7886   29.1050   50.0813 H   0  0  0  0  0  0  0  0  0  0  0  0
   59.8859   30.3234   49.3479 H   0  0  0  0  0  0  0  0  0  0  0  0
   58.1108   30.5981   49.3479 H   0  0  0  0  0  0  0  0  0  0  0  0
   58.8650   29.7540   46.7500 N   0  0  0  0  0  0  0  0  0  0  0  0
   59.0680   31.1620   46.5490 C   0  0  0  0  0  0  0  0  0  0  0  0
   58.0190   31.9380   46.0430 C   0  0  0  0  0  0  0  0  0  0  0  0
   57.0546   31.4621   45.8115 H   0  0  0  0  0  0  0  0  0  0  0  0
   58.1810   33.3150   45.8270 C   0  0  0  0  0  0  0  0  0  0  0  0
   57.0290   34.1170   45.2790 C   0  0  0  0  0  0  0  0  0  0  0  0
   56.4391   34.5276   46.1117 H   0  0  0  0  0  0  0  0  0  0  0  0
   57.4166   34.9415   44.6626 H   0  0  0  0  0  0  0  0  0  0  0  0
   56.3903   33.4673   44.6626 H   0  0  0  0  0  0  0  0  0  0  0  0
   59.4240   33.9230   46.1200 C   0  0  0  0  0  0  0  0  0  0  0  0
   59.6450   35.3960   45.8950 C   0  0  0  0  0  0  0  0  0  0  0  0
   59.7218   35.9077   46.8657 H   0  0  0  0  0  0  0  0  0  0  0  0
   60.5755   35.5447   45.3275 H   0  0  0  0  0  0  0  0  0  0  0  0
   58.7991   35.8112   45.3275 H   0  0  0  0  0  0  0  0  0  0  0  0
   60.4720   33.1390   46.6330 C   0  0  0  0  0  0  0  0  0  0  0  0
   61.4401   33.6098   46.8590 H   0  0  0  0  0  0  0  0  0  0  0  0
   60.3020   31.7660   46.8610 C   0  0  0  0  0  0  0  0  0  0  0  0
   61.4450   30.9480   47.3960 C   0  0  0  0  0  0  0  0  0  0  0  0
   61.4237   30.9633   48.4957 H   0  0  0  0  0  0  0  0  0  0  0  0
   61.3510   29.9108   47.0418 H   0  0  0  0  0  0  0  0  0  0  0  0
   62.3964   31.3716   47.0418 H   0  0  0  0  0  0  0  0  0  0  0  0
   58.7370   28.8000   45.7940 C   0  0  0  0  0  0  0  0  0  0  0  0
   58.8510   29.0590   44.4820 C   0  0  0  0  0  0  0  0  0  0  0  0
   58.9900   30.0938   44.1357 H   0  0  0  0  0  0  0  0  0  0  0  0
   58.8054   28.2365   43.7530 H   0  0  0  0  0  0  0  0  0  0  0  0
  1  2  1  0
  2  3  1  0
  3  4  1  0
  4  5  1  0
  5  6  2  0
  5  7  1  0
  7  8  1  0
  8  9  2  0
  8 10  1  0
 10 11  1  0
 11 12  1  0
 11 13  2  0
 13 14  1  0
 14 15  1  0
 14 16  2  0
 16 17  1  0
 17 18  1  0
 17 19  1  0
 17 20  1  0
 16 21  1  0
 21 22  1  0
 22 23  2  0
 23 24  1  0
 23 25  1  0
 25 26  1  0
 26 27  1  0
 26 28  1  0
 26 29  1  0
 25 30  2  0
 30 31  1  0
 31 32  1  0
 31 33  1  0
 31 34  1  0
 30 35  1  0
 35 36  1  0
 35 37  2  0
 37 38  1  0
 38 39  1  0
 38 40  1  0
 38 41  1  0
 21 42  1  0
 42 43  2  0
 43 44  1  0
 43 45  1  0
 10  3  2  0
 42 13  1  0
 37 22  1  0
M  CHG  2   4  -1   7  -1
M  END
>  <UniqueID>  (87) 
79

>  <SMILES>  (87) 
C=c1/c(=C\c2c(O)[n-]c(=S)[n-]c2=O)cc(C)n1-c1cc(C)c(C)cc1C

>  <Energy>  (87) 
95.73863274683855

>  <Genealogy>  (87) 
C=c1c(=Cc2c(O)[n-]c(=S)[n-]c2=O)cc(C)n1-c1cc(C)c(C)cc1C (protonated)
C=c1/c(=C\c2c(O)[n-]c(=S)[n-]c2=O)cc(C)n1-c1cc(C)c(C)cc1C (cis-trans isomerization)
C=c1/c(=C\c2c(O)[n-]c(=S)[n-]c2=O)cc(C)n1-c1cc(C)c(C)cc1C (3D coordinates assigned)
C=c1/c(=C\c2c(O)[n-]c(=S)[n-]c2=O)cc(C)n1-c1cc(C)c(C)cc1C (optimized conformer: 95.73863274683855 kcal/mol)

>  <smiles>  (87) 
C=c1c(=Cc2c(O)[nH]c(=S)[nH]c2=O)cc(C)n1-c1cc(C)c(C)cc1C

>  <score_type>  (87) 
oracle

>  <origin>  (87) 
adg

>  <m_score__min__energy>  (87) 
-13.06

>  <m_primary>  (87) 
energy

$$$$
87:0
     RDKit          3D

 54 56  0  0  0  0  0  0  0  0999 V2000
   56.3600   26.2790   46.4170 O   0  0  0  0  0  0  0  0  0  0  0  0
   57.5240   26.0580   45.9780 C   0  0  0  0  0  0  0  0  0  0  0  0
   57.6510   25.3370   44.6660 C   0  0  0  0  0  0  0  0  0  0  0  0
   57.7620   26.2490   43.5730 O   0  0  0  0  0  0  0  0  0  0  0  0
   58.2120   27.5710   43.6810 C   0  0  0  0  0  0  0  0  0  0  0  0
   59.4490   27.8370   43.7370 O   0  0  0  0  0  0  0  0  0  0  0  0
   57.2130   28.6750   43.8090 C   0  0  0  0  0  0  0  0  0  0  0  0
   57.9070   29.9580   43.7850 N   0  0  0  0  0  0  0  0  0  0  0  0
   57.2150   31.2030   44.0320 C   0  0  0  0  0  0  0  0  0  0  0  0
   56.0470   31.2070   44.5230 O   0  0  0  0  0  0  0  0  0  0  0  0
   57.8550   32.5030   43.6470 C   0  0  0  0  0  0  0  0  0  0  0  0
   58.2770   33.2570   44.8760 C   0  0  0  0  0  0  0  0  0  0  0  0
   57.6820   33.1750   46.1220 C   0  0  0  0  0  0  0  0  0  0  0  0
   58.2900   33.9980   47.0810 C   0  0  0  0  0  0  0  0  0  0  0  0
   59.3720   34.7190   46.5920 C   0  0  0  0  0  0  0  0  0  0  0  0
   59.5620   34.3420   44.9640 S   0  0  0  0  0  0  0  0  0  0  0  0
   58.6340   26.5900   46.7210 N   0  0  0  0  0  0  0  0  0  0  0  0
   58.8830   27.8530   47.3700 C   0  0  0  0  0  0  0  0  0  0  0  0
   59.6280   27.8260   48.5650 C   0  0  0  0  0  0  0  0  0  0  0  0
   59.9940   29.0110   49.2090 C   0  0  0  0  0  0  0  0  0  0  0  0
   59.6230   30.2510   48.6640 C   0  0  0  0  0  0  0  0  0  0  0  0
   60.1650   31.7510   49.4280 S   0  0  0  0  0  0  0  0  0  0  0  0
   58.9790   32.6650   49.6030 O   0  0  0  0  0  0  0  0  0  0  0  0
   60.7120   31.4350   50.7960 O   0  0  0  0  0  0  0  0  0  0  0  0
   61.3720   32.5740   48.4600 N   0  0  0  0  0  0  0  0  0  0  0  0
   62.0340   33.6400   49.2360 C   0  0  0  0  0  0  0  0  0  0  0  0
   63.2300   34.2190   48.4450 C   0  0  0  0  0  0  0  0  0  0  0  0
   63.2340   33.7640   47.1000 O   0  0  0  0  0  0  0  0  0  0  0  0
   63.4050   32.3580   47.0610 C   0  0  0  0  0  0  0  0  0  0  0  0
   62.3750   31.6220   47.9390 C   0  0  0  0  0  0  0  0  0  0  0  0
   58.8720   30.2920   47.4760 C   0  0  0  0  0  0  0  0  0  0  0  0
   58.5030   29.1070   46.8370 C   0  0  0  0  0  0  0  0  0  0  0  0
   58.5486   24.7018   44.6933 H   0  0  0  0  0  0  0  0  0  0  0  0
   56.7450   24.7311   44.5176 H   0  0  0  0  0  0  0  0  0  0  0  0
   56.5019   28.6261   42.9712 H   0  0  0  0  0  0  0  0  0  0  0  0
   56.6663   28.5693   44.7577 H   0  0  0  0  0  0  0  0  0  0  0  0
   58.8470   29.9870   43.3250 H   0  0  0  0  0  0  0  0  0  0  0  0
   58.7381   32.3025   43.0225 H   0  0  0  0  0  0  0  0  0  0  0  0
   57.1283   33.1088   43.0859 H   0  0  0  0  0  0  0  0  0  0  0  0
   56.8185   32.5290   46.3389 H   0  0  0  0  0  0  0  0  0  0  0  0
   57.9428   34.0662   48.1225 H   0  0  0  0  0  0  0  0  0  0  0  0
   59.9967   35.4161   47.1698 H   0  0  0  0  0  0  0  0  0  0  0  0
   59.9257   26.8592   48.9971 H   0  0  0  0  0  0  0  0  0  0  0  0
   60.5731   28.9725   50.1434 H   0  0  0  0  0  0  0  0  0  0  0  0
   61.3105   34.4434   49.4387 H   0  0  0  0  0  0  0  0  0  0  0  0
   62.4031   33.2163   50.1816 H   0  0  0  0  0  0  0  0  0  0  0  0
   63.1642   35.3170   48.4506 H   0  0  0  0  0  0  0  0  0  0  0  0
   64.1589   33.8797   48.9267 H   0  0  0  0  0  0  0  0  0  0  0  0
   63.2930   32.0162   46.0215 H   0  0  0  0  0  0  0  0  0  0  0  0
   64.4073   32.1287   47.4520 H   0  0  0  0  0  0  0  0  0  0  0  0
   61.8678   30.8538   47.3368 H   0  0  0  0  0  0  0  0  0  0  0  0
   62.8970   31.1528   48.7860 H   0  0  0  0  0  0  0  0  0  0  0  0
   58.5743   31.2609   47.0488 H   0  0  0  0  0  0  0  0  0  0  0  0
   57.9114   29.1488   45.9106 H   0  0  0  0  0  0  0  0  0  0  0  0
  1  2  2  0
  2  3  1  0
  3  4  1  0
  4  5  1  0
  5  6  2  0
  5  7  1  0
  7  8  1  0
  8  9  1  0
  9 10  2  0
  9 11  1  0
 11 12  1  0
 12 13  2  0
 13 14  1  0
 14 15  2  0
 15 16  1  0
  2 17  1  0
 17 18  1  0
 18 19  2  0
 19 20  1  0
 20 21  2  0
 21 22  1  0
 22 23  2  0
 22 24  2  0
 22 25  1  0
 25 26  1  0
 26 27  1  0
 27 28  1  0
 28 29  1  0
 29 30  1  0
 21 31  1  0
 31 32  2  0
 16 12  1  0
 32 18  1  0
 30 25  1  0
  3 33  1  0
  3 34  1  0
  7 35  1  0
  7 36  1  0
  8 37  1  0
 11 38  1  0
 11 39  1  0
 13 40  1  0
 14 41  1  0
 15 42  1  0
 19 43  1  0
 20 44  1  0
 26 45  1  0
 26 46  1  0
 27 47  1  0
 27 48  1  0
 29 49  1  0
 29 50  1  0
 30 51  1  0
 30 52  1  0
 31 53  1  0
 32 54  1  0
M  CHG  1  17  -1
M  END
>  <UniqueID>  (88) 
80

>  <SMILES>  (88) 
O=C(COC(=O)CNC(=O)Cc1cccs1)[N-]c1ccc(S(=O)(=O)N2CCOCC2)cc1

>  <Energy>  (88) 
85.94698301622292

>  <Genealogy>  (88) 
O=C(COC(=O)CNC(=O)Cc1cccs1)[N-]c1ccc(S(=O)(=O)N2CCOCC2)cc1 (protonated)
O=C(COC(=O)CNC(=O)Cc1cccs1)[N-]c1ccc(S(=O)(=O)N2CCOCC2)cc1 (3D coordinates assigned)
O=C(COC(=O)CNC(=O)Cc1cccs1)[N-]c1ccc(S(=O)(=O)N2CCOCC2)cc1 (nonaromatic ring conformer: 85.94698301622292 kcal/mol)

>  <smiles>  (88) 
O=C(Cc1cccs1)NCC(=O)OCC(=O)Nc1ccc(S(=O)(=O)N2CCOCC2)cc1

>  <score_type>  (88) 
oracle

>  <origin>  (88) 
adg

>  <m_score__min__energy>  (88) 
-10.359999999999999

>  <m_primary>  (88) 
energy

$$$$
88:0
     RDKit          3D

 43 45  0  0  0  0  0  0  0  0999 V2000
   56.3020   22.7460   43.0000 C   0  0  0  0  0  0  0  0  0  0  0  0
   57.3220   22.2270   44.0070 C   0  0  0  0  0  0  0  0  0  0  0  0
   57.4520   23.1800   45.1630 C   0  0  0  0  0  0  0  0  0  0  0  0
   58.5150   24.0330   45.2030 N   0  0  0  0  0  0  0  0  0  0  0  0
   58.5900   24.7040   46.3730 C   0  0  0  0  0  0  0  0  0  0  0  0
   59.4790   25.6120   46.6470 N   0  0  0  0  0  0  0  0  0  0  0  0
   59.2690   27.0180   46.8560 C   0  0  0  0  0  0  0  0  0  0  0  0
   60.0380   27.6250   47.6500 O   0  0  0  0  0  0  0  0  0  0  0  0
   58.1920   27.7800   46.1970 C   0  0  0  0  0  0  0  0  0  0  0  0
   57.0020   27.1360   45.8300 C   0  0  0  0  0  0  0  0  0  0  0  0
   56.0000   27.8560   45.2630 N   0  0  0  0  0  0  0  0  0  0  0  0
   56.1200   29.1930   45.0550 C   0  0  0  0  0  0  0  0  0  0  0  0
   55.1510   29.8520   44.5050 N   0  0  0  0  0  0  0  0  0  0  0  0
   57.3000   29.8450   45.4380 C   0  0  0  0  0  0  0  0  0  0  0  0
   57.4180   31.2260   45.2460 O   0  0  0  0  0  0  0  0  0  0  0  0
   57.9300   31.8220   44.0570 C   0  0  0  0  0  0  0  0  0  0  0  0
   57.7870   33.3390   44.1790 C   0  0  0  0  0  0  0  0  0  0  0  0
   58.7970   34.0080   45.1020 C   0  0  0  0  0  0  0  0  0  0  0  0
   57.3460   33.8670   45.5380 C   0  0  0  0  0  0  0  0  0  0  0  0
   58.3100   29.1220   46.0010 N   0  0  0  0  0  0  0  0  0  0  0  0
   57.3580   24.2770   47.4210 S   0  0  0  0  0  0  0  0  0  0  0  0
   56.6670   23.1910   46.3360 C   0  0  0  0  0  0  0  0  0  0  0  0
   55.5040   22.4740   46.6630 O   0  0  0  0  0  0  0  0  0  0  0  0
   54.1960   23.0020   46.8880 C   0  0  0  0  0  0  0  0  0  0  0  0
   53.7240   23.8230   45.7280 C   0  0  0  0  0  0  0  0  0  0  0  0
   54.0190   25.0450   45.6460 O   0  0  0  0  0  0  0  0  0  0  0  0
   52.9020   23.2550   44.7650 O   0  0  0  0  0  0  0  0  0  0  0  0
   55.4461   23.1815   43.5364 H   0  0  0  0  0  0  0  0  0  0  0  0
   56.7693   23.5160   42.3685 H   0  0  0  0  0  0  0  0  0  0  0  0
   55.9546   21.9150   42.3685 H   0  0  0  0  0  0  0  0  0  0  0  0
   56.9942   21.2460   44.3815 H   0  0  0  0  0  0  0  0  0  0  0  0
   58.2988   22.1356   43.5094 H   0  0  0  0  0  0  0  0  0  0  0  0
   56.8810   26.0560   46.0000 H   0  0  0  0  0  0  0  0  0  0  0  0
   54.7580   30.7120   44.9480 H   0  0  0  0  0  0  0  0  0  0  0  0
   58.9907   31.5572   43.9355 H   0  0  0  0  0  0  0  0  0  0  0  0
   57.3725   31.4585   43.1811 H   0  0  0  0  0  0  0  0  0  0  0  0
   57.4461   33.4897   43.1441 H   0  0  0  0  0  0  0  0  0  0  0  0
   59.5786   33.4070   45.5897 H   0  0  0  0  0  0  0  0  0  0  0  0
   59.5020   34.8469   45.0056 H   0  0  0  0  0  0  0  0  0  0  0  0
   57.0788   33.1640   46.3408 H   0  0  0  0  0  0  0  0  0  0  0  0
   56.5679   34.5617   45.8872 H   0  0  0  0  0  0  0  0  0  0  0  0
   53.4962   22.1675   47.0425 H   0  0  0  0  0  0  0  0  0  0  0  0
   54.2359   23.6517   47.7747 H   0  0  0  0  0  0  0  0  0  0  0  0
  1  2  1  0
  2  3  1  0
  3  4  1  0
  4  5  1  0
  5  6  2  3
  6  7  1  0
  7  8  2  0
  7  9  1  0
  9 10  2  0
 10 11  1  0
 11 12  1  0
 12 13  2  3
 12 14  1  0
 14 15  1  0
 15 16  1  0
 16 17  1  0
 17 18  1  0
 18 19  1  0
 14 20  2  0
  5 21  1  0
 21 22  1  0
 22 23  1  0
 23 24  1  0
 24 25  1  0
 25 26  2  0
 25 27  1  0
 22  3  2  0
 20  9  1  0
 19 17  1  0
  1 28  1  0
  1 29  1  0
  1 30  1  0
  2 31  1  0
  2 32  1  0
 10 33  1  0
 13 34  1  0
 16 35  1  0
 16 36  1  0
 17 37  1  0
 18 38  1  0
 18 39  1  0
 19 40  1  0
 19 41  1  0
 24 42  1  0
 24 43  1  0
M  CHG  3   4  -1  11  -1  27  -1
M  END
>  <UniqueID>  (89) 
81

>  <SMILES>  (89) 
CCc1[n-]c(=NC(=O)c2c[n-]c(=N)c(OCC3CC3)n2)sc1OCC(=O)[O-]

>  <Energy>  (89) 
344.31669241434815

>  <Genealogy>  (89) 
CCc1[n-]c(=NC(=O)c2c[n-]c(=N)c(OCC3CC3)n2)sc1OCC(=O)[O-] (protonated)
CCc1[n-]c(=NC(=O)c2c[n-]c(=N)c(OCC3CC3)n2)sc1OCC(=O)[O-] (3D coordinates assigned)
CCc1[n-]c(=NC(=O)c2c[n-]c(=N)c(OCC3CC3)n2)sc1OCC(=O)[O-] (nonaromatic ring conformer: 344.31669241434815 kcal/mol)

>  <smiles>  (89) 
CCc1[nH]c(=NC(=O)c2c[nH]c(=N)c(OCC3CC3)n2)sc1OCC(=O)O

>  <score_type>  (89) 
oracle

>  <origin>  (89) 
adg

>  <m_score__min__energy>  (89) 
-11.91

>  <m_primary>  (89) 
energy

$$$$
89:0
     RDKit          3D

 51 53  0  0  0  0  0  0  0  0999 V2000
   57.4480   23.8960   43.7620 C   0  0  0  0  0  0  0  0  0  0  0  0
   57.3750   25.3380   44.1930 C   0  0  0  0  0  0  0  0  0  0  0  0
   58.1570   26.2890   43.5190 C   0  0  0  0  0  0  0  0  0  0  0  0
   58.1080   27.6370   43.8790 C   0  0  0  0  0  0  0  0  0  0  0  0
   57.2720   28.0640   44.9160 C   0  0  0  0  0  0  0  0  0  0  0  0
   57.2600   29.4540   45.2810 N   0  0  0  0  0  0  0  0  0  0  0  0
   56.6290   30.4850   44.5000 C   0  0  0  0  0  0  0  0  0  0  0  0
   56.0070   30.1970   43.4440 O   0  0  0  0  0  0  0  0  0  0  0  0
   56.6670   31.8530   44.9230 N   0  0  0  0  0  0  0  0  0  0  0  0
   57.7370   32.4820   45.6410 C   0  0  0  0  0  0  0  0  0  0  0  0
   58.8680   31.7280   45.9720 C   0  0  0  0  0  0  0  0  0  0  0  0
   59.9140   32.3030   46.6980 C   0  0  0  0  0  0  0  0  0  0  0  0
   59.8370   33.6350   47.1220 C   0  0  0  0  0  0  0  0  0  0  0  0
   60.9370   34.1820   47.8640 N   0  0  0  0  0  0  0  0  0  0  0  0
   62.5490   33.5450   47.9070 S   0  0  0  0  0  0  0  0  0  0  0  0
   63.3720   33.8530   46.3590 C   0  0  0  0  0  0  0  0  0  0  0  0
   62.5130   32.0700   48.1960 O   0  0  0  0  0  0  0  0  0  0  0  0
   63.3100   34.2330   49.0040 O   0  0  0  0  0  0  0  0  0  0  0  0
   58.6880   34.3870   46.8160 C   0  0  0  0  0  0  0  0  0  0  0  0
   57.6420   33.8100   46.0890 C   0  0  0  0  0  0  0  0  0  0  0  0
   56.5200   27.1150   45.6250 C   0  0  0  0  0  0  0  0  0  0  0  0
   56.5560   25.7530   45.2730 C   0  0  0  0  0  0  0  0  0  0  0  0
   55.7690   24.7820   46.0710 C   0  0  0  0  0  0  0  0  0  0  0  0
   54.5310   24.4170   45.6430 N   0  0  0  0  0  0  0  0  0  0  0  0
   53.7520   23.5240   46.3130 C   0  0  0  0  0  0  0  0  0  0  0  0
   52.4170   23.2180   45.7440 C   0  0  0  0  0  0  0  0  0  0  0  0
   52.1300   21.8910   45.3070 N   0  0  0  0  0  0  0  0  0  0  0  0
   51.5270   24.1020   45.6340 O   0  0  0  0  0  0  0  0  0  0  0  0
   54.2630   22.9500   47.5060 C   0  0  0  0  0  0  0  0  0  0  0  0
   53.5050   21.9520   48.3300 C   0  0  0  0  0  0  0  0  0  0  0  0
   55.5020   23.3190   47.9310 N   0  0  0  0  0  0  0  0  0  0  0  0
   56.2630   24.2150   47.2540 C   0  0  0  0  0  0  0  0  0  0  0  0
   57.3950   24.5340   47.7070 O   0  0  0  0  0  0  0  0  0  0  0  0
   57.4808   23.2488   44.6509 H   0  0  0  0  0  0  0  0  0  0  0  0
   56.5613   23.6478   43.1602 H   0  0  0  0  0  0  0  0  0  0  0  0
   58.3553   23.7386   43.1602 H   0  0  0  0  0  0  0  0  0  0  0  0
   58.8156   25.9687   42.6982 H   0  0  0  0  0  0  0  0  0  0  0  0
   58.7311   28.3684   43.3435 H   0  0  0  0  0  0  0  0  0  0  0  0
   57.7980   29.7290   46.1320 H   0  0  0  0  0  0  0  0  0  0  0  0
   58.9341   30.6757   45.6586 H   0  0  0  0  0  0  0  0  0  0  0  0
   60.8051   31.7045   46.9384 H   0  0  0  0  0  0  0  0  0  0  0  0
   64.3862   34.2326   46.5521 H   0  0  0  0  0  0  0  0  0  0  0  0
   63.4340   32.9172   45.7841 H   0  0  0  0  0  0  0  0  0  0  0  0
   62.8044   34.5996   45.7841 H   0  0  0  0  0  0  0  0  0  0  0  0
   58.6122   35.4324   47.1498 H   0  0  0  0  0  0  0  0  0  0  0  0
   56.7400   34.3992   45.8668 H   0  0  0  0  0  0  0  0  0  0  0  0
   55.8932   27.4404   46.4683 H   0  0  0  0  0  0  0  0  0  0  0  0
   52.7090   21.0830   45.6280 H   0  0  0  0  0  0  0  0  0  0  0  0
   53.6643   22.1618   49.3980 H   0  0  0  0  0  0  0  0  0  0  0  0
   52.4321   22.0244   48.0982 H   0  0  0  0  0  0  0  0  0  0  0  0
   53.8626   20.9379   48.0982 H   0  0  0  0  0  0  0  0  0  0  0  0
  1  2  1  0
  2  3  2  0
  3  4  1  0
  4  5  2  0
  5  6  1  0
  6  7  1  0
  7  8  2  0
  7  9  1  0
  9 10  1  0
 10 11  2  0
 11 12  1  0
 12 13  2  0
 13 14  1  0
 14 15  1  0
 15 16  1  0
 15 17  2  0
 15 18  2  0
 13 19  1  0
 19 20  2  0
  5 21  1  0
 21 22  2  0
 22 23  1  0
 23 24  2  0
 24 25  1  0
 25 26  1  0
 26 27  1  0
 26 28  2  0
 25 29  2  0
 29 30  1  0
 29 31  1  0
 31 32  1  0
 32 33  2  0
 22  2  1  0
 32 23  1  0
 20 10  1  0
  1 34  1  0
  1 35  1  0
  1 36  1  0
  3 37  1  0
  4 38  1  0
  6 39  1  0
 11 40  1  0
 12 41  1  0
 16 42  1  0
 16 43  1  0
 16 44  1  0
 19 45  1  0
 20 46  1  0
 21 47  1  0
 27 48  1  0
 30 49  1  0
 30 50  1  0
 30 51  1  0
M  CHG  4   9  -1  14  -1  27  -1  31  -1
M  END
>  <UniqueID>  (90) 
82

>  <SMILES>  (90) 
Cc1ccc(NC(=O)[N-]c2ccc([N-]S(C)(=O)=O)cc2)cc1-c1nc(C([NH-])=O)c(C)[n-]c1=O

>  <Energy>  (90) 
70.90701724011289

>  <Genealogy>  (90) 
Cc1ccc(NC(=O)[N-]c2ccc([N-]S(C)(=O)=O)cc2)cc1-c1nc(C([NH-])=O)c(C)[n-]c1=O (protonated)
Cc1ccc(NC(=O)[N-]c2ccc([N-]S(C)(=O)=O)cc2)cc1-c1nc(C([NH-])=O)c(C)[n-]c1=O (3D coordinates assigned)
Cc1ccc(NC(=O)[N-]c2ccc([N-]S(C)(=O)=O)cc2)cc1-c1nc(C([NH-])=O)c(C)[n-]c1=O (optimized conformer: 70.90701724011289 kcal/mol)

>  <smiles>  (90) 
Cc1ccc(NC(=O)Nc2ccc(NS(C)(=O)=O)cc2)cc1-c1nc(C(N)=O)c(C)[nH]c1=O

>  <score_type>  (90) 
oracle

>  <origin>  (90) 
adg

>  <m_score__min__energy>  (90) 
-14.699999999999999

>  <m_primary>  (90) 
energy

$$$$
90:0
     RDKit          3D

 70 74  0  0  0  0  0  0  0  0999 V2000
   62.7710   32.0590   52.1490 C   0  0  0  0  0  0  0  0  0  0  0  0
   63.3380   32.4440   50.8090 C   0  0  0  0  0  0  0  0  0  0  0  0
   64.7030   32.7590   50.7160 C   0  0  0  0  0  0  0  0  0  0  0  0
   65.2690   33.0960   49.4880 C   0  0  0  0  0  0  0  0  0  0  0  0
   64.4830   33.1260   48.3370 C   0  0  0  0  0  0  0  0  0  0  0  0
   63.1130   32.8280   48.4030 C   0  0  0  0  0  0  0  0  0  0  0  0
   62.2780   32.8960   47.1540 C   0  0  0  0  0  0  0  0  0  0  0  0
   62.5260   32.5150   49.6510 C   0  0  0  0  0  0  0  0  0  0  0  0
   61.1230   32.2220   49.7230 N   0  0  0  0  0  0  0  0  0  0  0  0
   60.1980   33.0430   50.4530 C   0  0  0  0  0  0  0  0  0  0  0  0
   60.6020   34.0570   51.0840 O   0  0  0  0  0  0  0  0  0  0  0  0
   58.7380   32.6910   50.4700 C   0  0  0  0  0  0  0  0  0  0  0  0
   58.3180   32.0070   51.7210 N   0  0  0  0  0  0  0  0  0  0  0  0
   57.4550   30.8210   51.5140 C   0  0  0  0  0  0  0  0  0  0  0  0
   58.1720   29.7310   50.7070 C   0  0  0  0  0  0  0  0  0  0  0  0
   59.6140   29.7340   50.9930 N   0  0  0  0  0  0  0  0  0  0  0  0
   60.5760   29.4380   49.9510 C   0  0  0  0  0  0  0  0  0  0  0  0
   61.7810   29.7840   50.0900 O   0  0  0  0  0  0  0  0  0  0  0  0
   60.1680   28.8000   48.6830 C   0  0  0  0  0  0  0  0  0  0  0  0
   59.8090   27.4440   48.6440 C   0  0  0  0  0  0  0  0  0  0  0  0
   59.3710   26.8650   47.4510 C   0  0  0  0  0  0  0  0  0  0  0  0
   59.2890   27.6340   46.2870 C   0  0  0  0  0  0  0  0  0  0  0  0
   59.6540   28.9890   46.3080 C   0  0  0  0  0  0  0  0  0  0  0  0
   59.6100   29.8090   45.0470 C   0  0  0  0  0  0  0  0  0  0  0  0
   58.2320   30.2150   44.7590 N   0  0  0  0  0  0  0  0  0  0  0  0
   57.6020   31.3780   45.0470 C   0  0  0  0  0  0  0  0  0  0  0  0
   58.2490   32.5940   45.5670 C   0  0  0  0  0  0  0  0  0  0  0  0
   58.4320   32.7520   46.9500 C   0  0  0  0  0  0  0  0  0  0  0  0
   59.0550   33.8990   47.4500 C   0  0  0  0  0  0  0  0  0  0  0  0
   59.4810   34.9030   46.5770 C   0  0  0  0  0  0  0  0  0  0  0  0
   59.2790   34.7640   45.2010 C   0  0  0  0  0  0  0  0  0  0  0  0
   58.6610   33.6150   44.6960 C   0  0  0  0  0  0  0  0  0  0  0  0
   56.2680   31.2810   44.8490 N   0  0  0  0  0  0  0  0  0  0  0  0
   56.0650   30.0620   44.4430 O   0  0  0  0  0  0  0  0  0  0  0  0
   57.2070   29.4220   44.3950 C   0  0  0  0  0  0  0  0  0  0  0  0
   57.3210   28.2090   44.0780 O   0  0  0  0  0  0  0  0  0  0  0  0
   60.1090   29.5630   47.5060 C   0  0  0  0  0  0  0  0  0  0  0  0
   60.0470   30.2390   52.3040 C   0  0  0  0  0  0  0  0  0  0  0  0
   59.4970   31.6650   52.5570 C   0  0  0  0  0  0  0  0  0  0  0  0
   63.3967   32.4839   52.9477 H   0  0  0  0  0  0  0  0  0  0  0  0
   61.7464   32.4489   52.2393 H   0  0  0  0  0  0  0  0  0  0  0  0
   62.7555   30.9628   52.2393 H   0  0  0  0  0  0  0  0  0  0  0  0
   65.3304   32.7396   51.6193 H   0  0  0  0  0  0  0  0  0  0  0  0
   66.3400   33.3393   49.4266 H   0  0  0  0  0  0  0  0  0  0  0  0
   64.9397   33.3850   47.3704 H   0  0  0  0  0  0  0  0  0  0  0  0
   61.2160   32.9825   47.4272 H   0  0  0  0  0  0  0  0  0  0  0  0
   62.5765   33.7728   46.5606 H   0  0  0  0  0  0  0  0  0  0  0  0
   62.4307   31.9824   46.5606 H   0  0  0  0  0  0  0  0  0  0  0  0
   60.7510   31.4550   49.1200 H   0  0  0  0  0  0  0  0  0  0  0  0
   58.1534   33.6167   50.3639 H   0  0  0  0  0  0  0  0  0  0  0  0
   58.5589   31.9934   49.6386 H   0  0  0  0  0  0  0  0  0  0  0  0
   57.1721   30.4106   52.4946 H   0  0  0  0  0  0  0  0  0  0  0  0
   56.5667   31.1381   50.9480 H   0  0  0  0  0  0  0  0  0  0  0  0
   57.7532   28.7497   50.9746 H   0  0  0  0  0  0  0  0  0  0  0  0
   58.0244   29.9306   49.6354 H   0  0  0  0  0  0  0  0  0  0  0  0
   59.8729   26.8343   49.5573 H   0  0  0  0  0  0  0  0  0  0  0  0
   59.0900   25.8017   47.4275 H   0  0  0  0  0  0  0  0  0  0  0  0
   58.9371   27.1756   45.3510 H   0  0  0  0  0  0  0  0  0  0  0  0
   60.2346   30.7055   45.1739 H   0  0  0  0  0  0  0  0  0  0  0  0
   59.9897   29.2041   44.2104 H   0  0  0  0  0  0  0  0  0  0  0  0
   58.0841   31.9709   47.6420 H   0  0  0  0  0  0  0  0  0  0  0  0
   59.2102   34.0113   48.5332 H   0  0  0  0  0  0  0  0  0  0  0  0
   59.9752   35.8027   46.9724 H   0  0  0  0  0  0  0  0  0  0  0  0
   59.6062   35.5588   44.5145 H   0  0  0  0  0  0  0  0  0  0  0  0
   58.4974   33.5113   43.6132 H   0  0  0  0  0  0  0  0  0  0  0  0
   60.4213   30.6176   47.5224 H   0  0  0  0  0  0  0  0  0  0  0  0
   59.6755   29.5651   53.0900 H   0  0  0  0  0  0  0  0  0  0  0  0
   61.1462   30.2787   52.3195 H   0  0  0  0  0  0  0  0  0  0  0  0
   59.2067   31.7426   53.6152 H   0  0  0  0  0  0  0  0  0  0  0  0
   60.2971   32.3705   52.2885 H   0  0  0  0  0  0  0  0  0  0  0  0
  1  2  1  0
  2  3  2  0
  3  4  1  0
  4  5  2  0
  5  6  1  0
  6  7  1  0
  6  8  2  0
  8  9  1  0
  9 10  1  0
 10 11  2  0
 10 12  1  0
 12 13  1  0
 13 14  1  0
 14 15  1  0
 15 16  1  0
 16 17  1  0
 17 18  2  0
 17 19  1  0
 19 20  2  0
 20 21  1  0
 21 22  2  0
 22 23  1  0
 23 24  1  0
 24 25  1  0
 25 26  1  0
 26 27  1  0
 27 28  2  0
 28 29  1  0
 29 30  2  0
 30 31  1  0
 31 32  2  0
 26 33  2  0
 33 34  1  0
 34 35  1  0
 35 36  2  0
 23 37  2  0
 16 38  1  0
 38 39  1  0
  8  2  1  0
 39 13  1  0
 37 19  1  0
 35 25  1  0
 32 27  1  0
  1 40  1  0
  1 41  1  0
  1 42  1  0
  3 43  1  0
  4 44  1  0
  5 45  1  0
  7 46  1  0
  7 47  1  0
  7 48  1  0
  9 49  1  0
 12 50  1  0
 12 51  1  0
 14 52  1  0
 14 53  1  0
 15 54  1  0
 15 55  1  0
 20 56  1  0
 21 57  1  0
 22 58  1  0
 24 59  1  0
 24 60  1  0
 28 61  1  0
 29 62  1  0
 30 63  1  0
 31 64  1  0
 32 65  1  0
 37 66  1  0
 38 67  1  0
 38 68  1  0
 39 69  1  0
 39 70  1  0
M  END
>  <UniqueID>  (91) 
83

>  <SMILES>  (91) 
Cc1cccc(C)c1NC(=O)CN1CCN(C(=O)c2cccc(Cn3c(-c4ccccc4)noc3=O)c2)CC1

>  <Energy>  (91) 
134.10241152141163

>  <Genealogy>  (91) 
Cc1cccc(C)c1NC(=O)CN1CCN(C(=O)c2cccc(Cn3c(-c4ccccc4)noc3=O)c2)CC1 (3D coordinates assigned)
Cc1cccc(C)c1NC(=O)CN1CCN(C(=O)c2cccc(Cn3c(-c4ccccc4)noc3=O)c2)CC1 (nonaromatic ring conformer: 134.10241152141163 kcal/mol)

>  <smiles>  (91) 
Cc1cccc(C)c1NC(=O)CN1CCN(C(=O)c2cccc(Cn3c(-c4ccccc4)noc3=O)c2)CC1

>  <score_type>  (91) 
oracle

>  <origin>  (91) 
adg

>  <m_score__min__energy>  (91) 
-10.23

>  <m_primary>  (91) 
energy

$$$$
91:0
     RDKit          3D

 43 45  0  0  0  0  0  0  0  0999 V2000
   56.2700   29.6280   42.7750 C   0  0  0  0  0  0  0  0  0  0  0  0
   56.0300   29.9850   44.2110 C   0  0  0  0  0  0  0  0  0  0  0  0
   55.1670   29.3430   44.8650 O   0  0  0  0  0  0  0  0  0  0  0  0
   56.7300   31.0580   44.8580 N   0  0  0  0  0  0  0  0  0  0  0  0
   57.6660   31.9540   44.2440 C   0  0  0  0  0  0  0  0  0  0  0  0
   57.7900   31.9360   42.9910 O   0  0  0  0  0  0  0  0  0  0  0  0
   58.4790   32.9020   45.0250 C   0  0  0  0  0  0  0  0  0  0  0  0
   58.3050   34.5710   44.9260 S   0  0  0  0  0  0  0  0  0  0  0  0
   59.5190   34.9620   46.0160 C   0  0  0  0  0  0  0  0  0  0  0  0
   60.0670   33.7810   46.5040 C   0  0  0  0  0  0  0  0  0  0  0  0
   61.1730   33.7860   47.4800 C   0  0  0  0  0  0  0  0  0  0  0  0
   62.4820   33.4770   47.0830 C   0  0  0  0  0  0  0  0  0  0  0  0
   63.5090   33.4950   48.0280 C   0  0  0  0  0  0  0  0  0  0  0  0
   63.2370   33.8050   49.3240 N   0  0  0  0  0  0  0  0  0  0  0  0
   61.9760   34.0970   49.7380 C   0  0  0  0  0  0  0  0  0  0  0  0
   60.9200   34.0870   48.8250 C   0  0  0  0  0  0  0  0  0  0  0  0
   59.4870   32.6120   45.9560 C   0  0  0  0  0  0  0  0  0  0  0  0
   59.9040   31.2190   46.3520 C   0  0  0  0  0  0  0  0  0  0  0  0
   59.0530   30.7480   47.4420 N   0  0  0  0  0  0  0  0  0  0  0  0
   59.3130   29.0530   47.7100 S   0  0  0  0  0  0  0  0  0  0  0  0
   58.5150   28.5900   48.8980 O   0  0  0  0  0  0  0  0  0  0  0  0
   60.7690   28.8240   48.0020 O   0  0  0  0  0  0  0  0  0  0  0  0
   58.8560   28.1320   46.2810 C   0  0  0  0  0  0  0  0  0  0  0  0
   57.9550   27.0630   46.3860 C   0  0  0  0  0  0  0  0  0  0  0  0
   57.5720   26.3510   45.2440 C   0  0  0  0  0  0  0  0  0  0  0  0
   58.0870   26.7050   43.9930 C   0  0  0  0  0  0  0  0  0  0  0  0
   57.7130   26.0170   42.8870 F   0  0  0  0  0  0  0  0  0  0  0  0
   58.9850   27.7720   43.8830 C   0  0  0  0  0  0  0  0  0  0  0  0
   59.3680   28.4850   45.0230 C   0  0  0  0  0  0  0  0  0  0  0  0
   56.8830   28.7162   42.7214 H   0  0  0  0  0  0  0  0  0  0  0  0
   55.3062   29.4518   42.2749 H   0  0  0  0  0  0  0  0  0  0  0  0
   56.7969   30.4540   42.2749 H   0  0  0  0  0  0  0  0  0  0  0  0
   59.8287   35.9795   46.2968 H   0  0  0  0  0  0  0  0  0  0  0  0
   62.6977   33.2224   46.0348 H   0  0  0  0  0  0  0  0  0  0  0  0
   64.5394   33.2582   47.7243 H   0  0  0  0  0  0  0  0  0  0  0  0
   61.7872   34.3415   50.7937 H   0  0  0  0  0  0  0  0  0  0  0  0
   59.8967   34.3138   49.1590 H   0  0  0  0  0  0  0  0  0  0  0  0
   59.8002   30.5456   45.4884 H   0  0  0  0  0  0  0  0  0  0  0  0
   60.9527   31.2303   46.6838 H   0  0  0  0  0  0  0  0  0  0  0  0
   57.5480   26.7832   47.3689 H   0  0  0  0  0  0  0  0  0  0  0  0
   56.8654   25.5124   45.3303 H   0  0  0  0  0  0  0  0  0  0  0  0
   59.3901   28.0502   42.8989 H   0  0  0  0  0  0  0  0  0  0  0  0
   60.0726   29.3250   44.9336 H   0  0  0  0  0  0  0  0  0  0  0  0
  1  2  1  0
  2  3  2  0
  2  4  1  0
  4  5  1  0
  5  6  2  0
  5  7  1  0
  7  8  1  0
  8  9  1  0
  9 10  2  0
 10 11  1  0
 11 12  2  0
 12 13  1  0
 13 14  2  0
 14 15  1  0
 15 16  2  0
 10 17  1  0
 17 18  1  0
 18 19  1  0
 19 20  1  0
 20 21  2  0
 20 22  2  0
 20 23  1  0
 23 24  2  0
 24 25  1  0
 25 26  2  0
 26 27  1  0
 26 28  1  0
 28 29  2  0
 17  7  2  0
 29 23  1  0
 16 11  1  0
  1 30  1  0
  1 31  1  0
  1 32  1  0
  9 33  1  0
 12 34  1  0
 13 35  1  0
 15 36  1  0
 16 37  1  0
 18 38  1  0
 18 39  1  0
 24 40  1  0
 25 41  1  0
 28 42  1  0
 29 43  1  0
M  CHG  2   4  -1  19  -1
M  END
>  <UniqueID>  (92) 
84

>  <SMILES>  (92) 
CC(=O)[N-]C(=O)c1scc(-c2ccncc2)c1C[N-]S(=O)(=O)c1ccc(F)cc1

>  <Energy>  (92) 
80.07832038929493

>  <Genealogy>  (92) 
CC(=O)[N-]C(=O)c1scc(-c2ccncc2)c1C[N-]S(=O)(=O)c1ccc(F)cc1 (protonated)
CC(=O)[N-]C(=O)c1scc(-c2ccncc2)c1C[N-]S(=O)(=O)c1ccc(F)cc1 (3D coordinates assigned)
CC(=O)[N-]C(=O)c1scc(-c2ccncc2)c1C[N-]S(=O)(=O)c1ccc(F)cc1 (optimized conformer: 80.07832038929493 kcal/mol)

>  <smiles>  (92) 
CC(=O)NC(=O)c1scc(-c2ccncc2)c1CNS(=O)(=O)c1ccc(F)cc1

>  <score_type>  (92) 
oracle

>  <origin>  (92) 
adg

>  <m_score__min__energy>  (92) 
-11.92

>  <m_primary>  (92) 
energy

$$$$
92:0
     RDKit          3D

 30 31  0  0  0  0  0  0  0  0999 V2000
   58.0660   33.3940   46.8570 C   0  0  0  0  0  0  0  0  0  0  0  0
   58.1510   31.9480   46.4610 C   0  0  0  0  0  0  0  0  0  0  0  0
   58.7190   31.0150   47.3320 C   0  0  0  0  0  0  0  0  0  0  0  0
   58.8390   29.6650   46.9650 C   0  0  0  0  0  0  0  0  0  0  0  0
   59.4430   28.7020   47.9550 C   0  0  0  0  0  0  0  0  0  0  0  0
   58.3690   29.2360   45.6930 C   0  0  0  0  0  0  0  0  0  0  0  0
   58.4930   27.7770   45.2850 C   0  0  0  0  0  0  0  0  0  0  0  0
   57.2900   26.9920   45.7200 C   0  0  0  0  0  0  0  0  0  0  0  0
   57.3330   25.7370   46.2030 N   0  0  0  0  0  0  0  0  0  0  0  0
   56.0320   25.4350   46.4020 C   0  0  0  0  0  0  0  0  0  0  0  0
   55.6560   24.3260   46.8620 O   0  0  0  0  0  0  0  0  0  0  0  0
   55.1640   26.4140   46.0660 N   0  0  0  0  0  0  0  0  0  0  0  0
   55.9770   27.3900   45.6320 C   0  0  0  0  0  0  0  0  0  0  0  0
   55.5270   28.6170   45.1600 O   0  0  0  0  0  0  0  0  0  0  0  0
   57.8360   30.2000   44.7930 C   0  0  0  0  0  0  0  0  0  0  0  0
   57.3430   29.8220   43.4180 C   0  0  0  0  0  0  0  0  0  0  0  0
   57.7300   31.5410   45.1940 C   0  0  0  0  0  0  0  0  0  0  0  0
   58.0613   33.4741   47.9541 H   0  0  0  0  0  0  0  0  0  0  0  0
   58.9338   33.9363   46.4535 H   0  0  0  0  0  0  0  0  0  0  0  0
   57.1406   33.8309   46.4535 H   0  0  0  0  0  0  0  0  0  0  0  0
   59.0772   31.3426   48.3191 H   0  0  0  0  0  0  0  0  0  0  0  0
   59.2280   29.0448   48.9779 H   0  0  0  0  0  0  0  0  0  0  0  0
   59.0100   27.7020   47.8048 H   0  0  0  0  0  0  0  0  0  0  0  0
   60.5317   28.6565   47.8048 H   0  0  0  0  0  0  0  0  0  0  0  0
   58.5855   27.7163   44.1906 H   0  0  0  0  0  0  0  0  0  0  0  0
   59.3832   27.3518   45.7715 H   0  0  0  0  0  0  0  0  0  0  0  0
   56.4732   29.1551   43.5109 H   0  0  0  0  0  0  0  0  0  0  0  0
   57.0517   30.7304   42.8703 H   0  0  0  0  0  0  0  0  0  0  0  0
   58.1447   29.3049   42.8703 H   0  0  0  0  0  0  0  0  0  0  0  0
   57.3087   32.2824   44.4991 H   0  0  0  0  0  0  0  0  0  0  0  0
  1  2  1  0
  2  3  2  0
  3  4  1  0
  4  5  1  0
  4  6  2  0
  6  7  1  0
  7  8  1  0
  8  9  1  0
  9 10  1  0
 10 11  2  0
 10 12  1  0
 12 13  1  0
 13 14  1  0
  6 15  1  0
 15 16  1  0
 15 17  2  0
 17  2  1  0
 13  8  2  0
  1 18  1  0
  1 19  1  0
  1 20  1  0
  3 21  1  0
  5 22  1  0
  5 23  1  0
  5 24  1  0
  7 25  1  0
  7 26  1  0
 16 27  1  0
 16 28  1  0
 16 29  1  0
 17 30  1  0
M  CHG  3   9  -1  12  -1  14  -1
M  END
>  <UniqueID>  (93) 
85

>  <SMILES>  (93) 
Cc1cc(C)c(Cc2[n-]c(=O)[n-]c2[O-])c(C)c1

>  <Energy>  (93) 
60.379319958032944

>  <Genealogy>  (93) 
Cc1cc(C)c(Cc2[n-]c(=O)[n-]c2[O-])c(C)c1 (protonated)
Cc1cc(C)c(Cc2[n-]c(=O)[n-]c2[O-])c(C)c1 (3D coordinates assigned)
Cc1cc(C)c(Cc2[n-]c(=O)[n-]c2[O-])c(C)c1 (optimized conformer: 60.379319958032944 kcal/mol)

>  <smiles>  (93) 
Cc1cc(C)c(Cc2[nH]c(=O)[nH]c2O)c(C)c1

>  <score_type>  (93) 
oracle

>  <origin>  (93) 
adg

>  <m_score__min__energy>  (93) 
-14.789999999999999

>  <m_primary>  (93) 
energy

$$$$
