0:0
     RDKit          3D

 55 58  0  0  0  0  0  0  0  0999 V2000
   60.7520   26.7330   48.5680 C   0  0  0  0  0  0  0  0  0  0  0  0
   60.0940   26.3300   47.3710 O   0  0  0  0  0  0  0  0  0  0  0  0
   59.0930   27.0740   46.7280 C   0  0  0  0  0  0  0  0  0  0  0  0
   57.8670   26.4480   46.4680 C   0  0  0  0  0  0  0  0  0  0  0  0
   56.8380   27.1380   45.8220 C   0  0  0  0  0  0  0  0  0  0  0  0
   57.0250   28.4650   45.4250 C   0  0  0  0  0  0  0  0  0  0  0  0
   56.0210   29.1420   44.8090 N   0  0  0  0  0  0  0  0  0  0  0  0
   56.1670   30.4330   44.4090 C   0  0  0  0  0  0  0  0  0  0  0  0
   57.3850   31.1040   44.6100 C   0  0  0  0  0  0  0  0  0  0  0  0
   57.5740   32.4750   44.2270 N   0  0  0  0  0  0  0  0  0  0  0  0
   57.5260   33.6170   45.0940 C   0  0  0  0  0  0  0  0  0  0  0  0
   56.7000   34.5330   44.8390 O   0  0  0  0  0  0  0  0  0  0  0  0
   58.3790   33.7280   46.3000 C   0  0  0  0  0  0  0  0  0  0  0  0
   59.5100   34.5580   46.2830 C   0  0  0  0  0  0  0  0  0  0  0  0
   60.3360   34.6490   47.4040 C   0  0  0  0  0  0  0  0  0  0  0  0
   60.0360   33.9320   48.5730 C   0  0  0  0  0  0  0  0  0  0  0  0
   60.9400   34.0450   49.7690 C   0  0  0  0  0  0  0  0  0  0  0  0
   58.8860   33.1140   48.6060 C   0  0  0  0  0  0  0  0  0  0  0  0
   58.5590   32.3610   49.7810 N   0  0  0  0  0  0  0  0  0  0  0  0
   58.7540   30.6400   49.8330 S   0  0  0  0  0  0  0  0  0  0  0  0
   58.4980   30.0370   48.4790 O   0  0  0  0  0  0  0  0  0  0  0  0
   57.7810   30.0640   50.8210 O   0  0  0  0  0  0  0  0  0  0  0  0
   60.4170   30.2520   50.3450 C   0  0  0  0  0  0  0  0  0  0  0  0
   61.4160   30.8340   49.3850 C   0  0  0  0  0  0  0  0  0  0  0  0
   61.1590   30.8230   48.0030 C   0  0  0  0  0  0  0  0  0  0  0  0
   62.0970   31.3480   47.1090 C   0  0  0  0  0  0  0  0  0  0  0  0
   63.2900   31.8950   47.5870 C   0  0  0  0  0  0  0  0  0  0  0  0
   63.5390   31.9400   48.9610 C   0  0  0  0  0  0  0  0  0  0  0  0
   62.6050   31.4140   49.8600 C   0  0  0  0  0  0  0  0  0  0  0  0
   58.0710   33.0140   47.4690 C   0  0  0  0  0  0  0  0  0  0  0  0
   58.4240   30.4340   45.2630 C   0  0  0  0  0  0  0  0  0  0  0  0
   58.2550   29.1060   45.6770 C   0  0  0  0  0  0  0  0  0  0  0  0
   59.2830   28.4130   46.3360 C   0  0  0  0  0  0  0  0  0  0  0  0
   60.1781   26.3815   49.4381 H   0  0  0  0  0  0  0  0  0  0  0  0
   61.7622   26.2985   48.5952 H   0  0  0  0  0  0  0  0  0  0  0  0
   60.8240   27.8303   48.5952 H   0  0  0  0  0  0  0  0  0  0  0  0
   57.7130   25.4031   46.7754 H   0  0  0  0  0  0  0  0  0  0  0  0
   55.8791   26.6360   45.6255 H   0  0  0  0  0  0  0  0  0  0  0  0
   55.3278   30.9547   43.9258 H   0  0  0  0  0  0  0  0  0  0  0  0
   59.7471   35.1405   45.3805 H   0  0  0  0  0  0  0  0  0  0  0  0
   61.2304   35.2885   47.3714 H   0  0  0  0  0  0  0  0  0  0  0  0
   60.3418   33.9702   50.6891 H   0  0  0  0  0  0  0  0  0  0  0  0
   61.6812   33.2325   49.7465 H   0  0  0  0  0  0  0  0  0  0  0  0
   61.4584   35.0149   49.7465 H   0  0  0  0  0  0  0  0  0  0  0  0
   57.9270   32.7870   50.4970 H   0  0  0  0  0  0  0  0  0  0  0  0
   60.5933   30.6696   51.3473 H   0  0  0  0  0  0  0  0  0  0  0  0
   60.5367   29.1587   50.3615 H   0  0  0  0  0  0  0  0  0  0  0  0
   60.2170   30.4000   47.6238 H   0  0  0  0  0  0  0  0  0  0  0  0
   61.8952   31.3303   46.0278 H   0  0  0  0  0  0  0  0  0  0  0  0
   64.0345   32.2909   46.8806 H   0  0  0  0  0  0  0  0  0  0  0  0
   64.4702   32.3894   49.3363 H   0  0  0  0  0  0  0  0  0  0  0  0
   62.8016   31.4544   50.9415 H   0  0  0  0  0  0  0  0  0  0  0  0
   57.1804   32.3689   47.4934 H   0  0  0  0  0  0  0  0  0  0  0  0
   59.3765   30.9507   45.4522 H   0  0  0  0  0  0  0  0  0  0  0  0
   60.2380   28.9167   46.5463 H   0  0  0  0  0  0  0  0  0  0  0  0
  1  2  1  0
  2  3  1  0
  3  4  2  0
  4  5  1  0
  5  6  2  0
  6  7  1  0
  7  8  2  0
  8  9  1  0
  9 10  1  0
 10 11  1  0
 11 12  2  0
 11 13  1  0
 13 14  2  0
 14 15  1  0
 15 16  2  0
 16 17  1  0
 16 18  1  0
 18 19  1  0
 19 20  1  0
 20 21  2  0
 20 22  2  0
 20 23  1  0
 23 24  1  0
 24 25  2  0
 25 26  1  0
 26 27  2  0
 27 28  1  0
 28 29  2  0
 18 30  2  0
  9 31  2  0
 31 32  1  0
 32 33  2  0
 33  3  1  0
 32  6  1  0
 30 13  1  0
 29 24  1  0
  1 34  1  0
  1 35  1  0
  1 36  1  0
  4 37  1  0
  5 38  1  0
  8 39  1  0
 14 40  1  0
 15 41  1  0
 17 42  1  0
 17 43  1  0
 17 44  1  0
 19 45  1  0
 23 46  1  0
 23 47  1  0
 25 48  1  0
 26 49  1  0
 27 50  1  0
 28 51  1  0
 29 52  1  0
 30 53  1  0
 31 54  1  0
 33 55  1  0
M  CHG  1  10  -1
M  END
>  <UniqueID>  (1) 
1

>  <SMILES>  (1) 
COc1ccc2ncc([N-]C(=O)c3ccc(C)c(NS(=O)(=O)Cc4ccccc4)c3)cc2c1

>  <Energy>  (1) 
65.52609728833902

>  <Genealogy>  (1) 
COc1ccc2ncc([N-]C(=O)c3ccc(C)c(NS(=O)(=O)Cc4ccccc4)c3)cc2c1 (protonated)
COc1ccc2ncc([N-]C(=O)c3ccc(C)c(NS(=O)(=O)Cc4ccccc4)c3)cc2c1 (3D coordinates assigned)
COc1ccc2ncc([N-]C(=O)c3ccc(C)c(NS(=O)(=O)Cc4ccccc4)c3)cc2c1 (optimized conformer: 65.52609728833902 kcal/mol)

>  <smiles>  (1) 
COc1ccc2ncc(NC(=O)c3ccc(C)c(NS(=O)(=O)Cc4ccccc4)c3)cc2c1

>  <score_type>  (1) 
oracle

>  <origin>  (1) 
adg

>  <m_score__min__energy>  (1) 
-11.140000000000001

>  <m_primary>  (1) 
energy

$$$$
1:0
     RDKit          3D

 71 74  0  0  0  0  0  0  0  0999 V2000
   63.5210   30.9240   50.2760 C   0  0  0  0  0  0  0  0  0  0  0  0
   63.5500   32.3230   49.7370 C   0  0  0  0  0  0  0  0  0  0  0  0
   64.5720   33.0290   49.9540 O   0  0  0  0  0  0  0  0  0  0  0  0
   62.4350   32.8680   48.9980 N   0  0  0  0  0  0  0  0  0  0  0  0
   62.5650   34.1670   48.3180 C   0  0  0  0  0  0  0  0  0  0  0  0
   61.8440   34.1450   46.9650 C   0  0  0  0  0  0  0  0  0  0  0  0
   60.5170   33.5180   47.0600 N   0  0  0  0  0  0  0  0  0  0  0  0
   59.6230   33.6140   45.9370 C   0  0  0  0  0  0  0  0  0  0  0  0
   59.5080   34.7170   45.3380 O   0  0  0  0  0  0  0  0  0  0  0  0
   58.8450   32.4440   45.4580 C   0  0  0  0  0  0  0  0  0  0  0  0
   59.2160   31.1440   45.8450 C   0  0  0  0  0  0  0  0  0  0  0  0
   58.4830   30.0370   45.4090 C   0  0  0  0  0  0  0  0  0  0  0  0
   57.3640   30.2080   44.5790 C   0  0  0  0  0  0  0  0  0  0  0  0
   56.5860   29.0060   44.1170 C   0  0  0  0  0  0  0  0  0  0  0  0
   55.9240   28.3690   45.2510 N   0  0  0  0  0  0  0  0  0  0  0  0
   56.2430   27.0770   45.7840 C   0  0  0  0  0  0  0  0  0  0  0  0
   55.3230   26.2270   45.9080 O   0  0  0  0  0  0  0  0  0  0  0  0
   57.6210   26.7340   46.2740 C   0  0  0  0  0  0  0  0  0  0  0  0
   58.1290   27.8070   47.1250 N   0  0  0  0  0  0  0  0  0  0  0  0
   59.4160   27.7260   47.7530 C   0  0  0  0  0  0  0  0  0  0  0  0
   60.3310   27.0520   47.2040 O   0  0  0  0  0  0  0  0  0  0  0  0
   59.6770   28.3960   49.0490 C   0  0  0  0  0  0  0  0  0  0  0  0
   60.7420   27.9830   49.8720 C   0  0  0  0  0  0  0  0  0  0  0  0
   61.0290   28.6680   51.0560 C   0  0  0  0  0  0  0  0  0  0  0  0
   60.2670   29.7800   51.4330 C   0  0  0  0  0  0  0  0  0  0  0  0
   60.6630   30.6730   52.9080 S   0  0  0  0  0  0  0  0  0  0  0  0
   60.3460   29.8140   54.0990 O   0  0  0  0  0  0  0  0  0  0  0  0
   62.1360   30.9640   52.9230 O   0  0  0  0  0  0  0  0  0  0  0  0
   59.7840   32.1780   53.0410 N   0  0  0  0  0  0  0  0  0  0  0  0
   58.3350   31.9830   52.9740 C   0  0  0  0  0  0  0  0  0  0  0  0
   57.7440   33.2560   52.3810 C   0  0  0  0  0  0  0  0  0  0  0  0
   58.9250   34.0380   51.8280 C   0  0  0  0  0  0  0  0  0  0  0  0
   60.1110   33.1010   51.9570 C   0  0  0  0  0  0  0  0  0  0  0  0
   59.1890   30.1800   50.6330 C   0  0  0  0  0  0  0  0  0  0  0  0
   58.9000   29.4980   49.4460 C   0  0  0  0  0  0  0  0  0  0  0  0
   56.9880   31.5030   44.1950 C   0  0  0  0  0  0  0  0  0  0  0  0
   57.7120   32.6120   44.6440 C   0  0  0  0  0  0  0  0  0  0  0  0
   60.0350   33.0140   48.3510 C   0  0  0  0  0  0  0  0  0  0  0  0
   61.1300   32.1840   49.0300 C   0  0  0  0  0  0  0  0  0  0  0  0
   63.5216   30.9546   51.3756 H   0  0  0  0  0  0  0  0  0  0  0  0
   62.6121   30.4142   49.9239 H   0  0  0  0  0  0  0  0  0  0  0  0
   64.4080   30.3769   49.9239 H   0  0  0  0  0  0  0  0  0  0  0  0
   62.1229   34.9513   48.9500 H   0  0  0  0  0  0  0  0  0  0  0  0
   63.6322   34.3713   48.1468 H   0  0  0  0  0  0  0  0  0  0  0  0
   61.7240   35.1790   46.6093 H   0  0  0  0  0  0  0  0  0  0  0  0
   62.4514   33.5524   46.2650 H   0  0  0  0  0  0  0  0  0  0  0  0
   60.0903   30.9973   46.4962 H   0  0  0  0  0  0  0  0  0  0  0  0
   58.7848   29.0254   45.7181 H   0  0  0  0  0  0  0  0  0  0  0  0
   55.8286   29.3226   43.3848 H   0  0  0  0  0  0  0  0  0  0  0  0
   57.2775   28.2866   43.6541 H   0  0  0  0  0  0  0  0  0  0  0  0
   57.5801   25.7989   46.8519 H   0  0  0  0  0  0  0  0  0  0  0  0
   58.2911   26.6094   45.4106 H   0  0  0  0  0  0  0  0  0  0  0  0
   57.5220   28.6390   47.2980 H   0  0  0  0  0  0  0  0  0  0  0  0
   61.3524   27.1153   49.5812 H   0  0  0  0  0  0  0  0  0  0  0  0
   61.8585   28.3313   51.6953 H   0  0  0  0  0  0  0  0  0  0  0  0
   58.0985   31.1215   52.3322 H   0  0  0  0  0  0  0  0  0  0  0  0
   57.9181   31.7832   53.9721 H   0  0  0  0  0  0  0  0  0  0  0  0
   57.0352   33.0113   51.5762 H   0  0  0  0  0  0  0  0  0  0  0  0
   57.1895   33.8356   53.1337 H   0  0  0  0  0  0  0  0  0  0  0  0
   58.7541   34.3026   50.7741 H   0  0  0  0  0  0  0  0  0  0  0  0
   59.0842   34.9830   52.3680 H   0  0  0  0  0  0  0  0  0  0  0  0
   60.2643   32.5482   51.0184 H   0  0  0  0  0  0  0  0  0  0  0  0
   61.0383   33.6541   52.1670 H   0  0  0  0  0  0  0  0  0  0  0  0
   58.5670   31.0340   50.9393 H   0  0  0  0  0  0  0  0  0  0  0  0
   58.0583   29.8267   48.8187 H   0  0  0  0  0  0  0  0  0  0  0  0
   56.1186   31.6475   43.5368 H   0  0  0  0  0  0  0  0  0  0  0  0
   57.3918   33.6246   44.3575 H   0  0  0  0  0  0  0  0  0  0  0  0
   59.7679   33.8632   48.9971 H   0  0  0  0  0  0  0  0  0  0  0  0
   59.1515   32.3802   48.1847 H   0  0  0  0  0  0  0  0  0  0  0  0
   60.8455   32.0088   50.0780 H   0  0  0  0  0  0  0  0  0  0  0  0
   61.2282   31.2349   48.4827 H   0  0  0  0  0  0  0  0  0  0  0  0
  1  2  1  0
  2  3  2  0
  2  4  1  0
  4  5  1  0
  5  6  1  0
  6  7  1  0
  7  8  1  0
  8  9  2  0
  8 10  1  0
 10 11  2  0
 11 12  1  0
 12 13  2  0
 13 14  1  0
 14 15  1  0
 15 16  1  0
 16 17  2  0
 16 18  1  0
 18 19  1  0
 19 20  1  0
 20 21  2  0
 20 22  1  0
 22 23  2  0
 23 24  1  0
 24 25  2  0
 25 26  1  0
 26 27  2  0
 26 28  2  0
 26 29  1  0
 29 30  1  0
 30 31  1  0
 31 32  1  0
 32 33  1  0
 25 34  1  0
 34 35  2  0
 13 36  1  0
 36 37  2  0
  7 38  1  0
 38 39  1  0
 39  4  1  0
 37 10  1  0
 35 22  1  0
 33 29  1  0
  1 40  1  0
  1 41  1  0
  1 42  1  0
  5 43  1  0
  5 44  1  0
  6 45  1  0
  6 46  1  0
 11 47  1  0
 12 48  1  0
 14 49  1  0
 14 50  1  0
 18 51  1  0
 18 52  1  0
 19 53  1  0
 23 54  1  0
 24 55  1  0
 30 56  1  0
 30 57  1  0
 31 58  1  0
 31 59  1  0
 32 60  1  0
 32 61  1  0
 33 62  1  0
 33 63  1  0
 34 64  1  0
 35 65  1  0
 36 66  1  0
 37 67  1  0
 38 68  1  0
 38 69  1  0
 39 70  1  0
 39 71  1  0
M  CHG  1  15  -1
M  END
>  <UniqueID>  (2) 
2

>  <SMILES>  (2) 
CC(=O)N1CCN(C(=O)c2ccc(C[N-]C(=O)CNC(=O)c3ccc(S(=O)(=O)N4CCCC4)cc3)cc2)CC1

>  <Energy>  (2) 
76.40429306773581

>  <Genealogy>  (2) 
CC(=O)N1CCN(C(=O)c2ccc(C[N-]C(=O)CNC(=O)c3ccc(S(=O)(=O)N4CCCC4)cc3)cc2)CC1 (protonated)
CC(=O)N1CCN(C(=O)c2ccc(C[N-]C(=O)CNC(=O)c3ccc(S(=O)(=O)N4CCCC4)cc3)cc2)CC1 (3D coordinates assigned)
CC(=O)N1CCN(C(=O)c2ccc(C[N-]C(=O)CNC(=O)c3ccc(S(=O)(=O)N4CCCC4)cc3)cc2)CC1 (nonaromatic ring conformer: 76.40429306773581 kcal/mol)

>  <smiles>  (2) 
CC(=O)N1CCN(C(=O)c2ccc(CNC(=O)CNC(=O)c3ccc(S(=O)(=O)N4CCCC4)cc3)cc2)CC1

>  <score_type>  (2) 
oracle

>  <origin>  (2) 
adg

>  <m_score__min__energy>  (2) 
-11.32

>  <m_primary>  (2) 
energy

$$$$
2:0
     RDKit          3D

 45 47  0  0  0  0  0  0  0  0999 V2000
   64.4200   33.0890   47.8120 N   0  0  0  0  0  0  0  0  0  0  0  0
   62.7450   32.8850   47.4440 S   0  0  0  0  0  0  0  0  0  0  0  0
   61.9190   33.3250   48.6210 O   0  0  0  0  0  0  0  0  0  0  0  0
   62.3970   33.7240   46.2460 O   0  0  0  0  0  0  0  0  0  0  0  0
   62.4400   31.2100   47.1010 N   0  0  0  0  0  0  0  0  0  0  0  0
   61.5220   30.6610   48.0950 C   0  0  0  0  0  0  0  0  0  0  0  0
   60.3810   29.9870   47.3920 C   0  0  0  0  0  0  0  0  0  0  0  0
   60.4710   29.6850   46.0240 C   0  0  0  0  0  0  0  0  0  0  0  0
   59.4240   29.0220   45.3770 C   0  0  0  0  0  0  0  0  0  0  0  0
   58.2830   28.6320   46.0950 C   0  0  0  0  0  0  0  0  0  0  0  0
   57.1710   27.9340   45.4230 C   0  0  0  0  0  0  0  0  0  0  0  0
   57.3650   26.7760   44.9660 O   0  0  0  0  0  0  0  0  0  0  0  0
   55.8820   28.5360   45.2440 N   0  0  0  0  0  0  0  0  0  0  0  0
   55.5860   29.7170   44.4320 C   0  0  0  0  0  0  0  0  0  0  0  0
   56.7930   30.1360   43.5820 C   0  0  0  0  0  0  0  0  0  0  0  0
   57.4670   31.3610   44.1390 C   0  0  0  0  0  0  0  0  0  0  0  0
   58.0300   32.3260   43.2690 C   0  0  0  0  0  0  0  0  0  0  0  0
   58.6340   33.4840   43.7860 C   0  0  0  0  0  0  0  0  0  0  0  0
   58.6550   33.6560   45.1680 C   0  0  0  0  0  0  0  0  0  0  0  0
   58.1100   32.7360   46.0150 C   0  0  0  0  0  0  0  0  0  0  0  0
   57.5040   31.5750   45.5340 C   0  0  0  0  0  0  0  0  0  0  0  0
   58.2750   33.1840   47.4220 C   0  0  0  0  0  0  0  0  0  0  0  0
   59.0170   34.5340   47.2630 C   0  0  0  0  0  0  0  0  0  0  0  0
   59.1940   34.7180   45.8580 O   0  0  0  0  0  0  0  0  0  0  0  0
   58.1890   28.9410   47.4600 C   0  0  0  0  0  0  0  0  0  0  0  0
   59.2360   29.6020   48.1070 C   0  0  0  0  0  0  0  0  0  0  0  0
   64.7230   32.2380   48.3390 H   0  0  0  0  0  0  0  0  0  0  0  0
   64.9360   33.0800   46.9040 H   0  0  0  0  0  0  0  0  0  0  0  0
   62.0526   29.9288   48.7214 H   0  0  0  0  0  0  0  0  0  0  0  0
   61.1375   31.4718   48.7313 H   0  0  0  0  0  0  0  0  0  0  0  0
   61.3699   29.9715   45.4583 H   0  0  0  0  0  0  0  0  0  0  0  0
   59.4948   28.8052   44.3009 H   0  0  0  0  0  0  0  0  0  0  0  0
   54.7417   29.4889   43.7648 H   0  0  0  0  0  0  0  0  0  0  0  0
   55.3383   30.5470   45.1100 H   0  0  0  0  0  0  0  0  0  0  0  0
   57.5180   29.3090   43.5600 H   0  0  0  0  0  0  0  0  0  0  0  0
   56.4342   30.3723   42.5694 H   0  0  0  0  0  0  0  0  0  0  0  0
   57.9941   32.1677   42.1810 H   0  0  0  0  0  0  0  0  0  0  0  0
   59.0788   34.2353   43.1169 H   0  0  0  0  0  0  0  0  0  0  0  0
   57.0645   30.8422   46.2267 H   0  0  0  0  0  0  0  0  0  0  0  0
   57.2997   33.3224   47.9114 H   0  0  0  0  0  0  0  0  0  0  0  0
   58.8143   32.4602   48.0508 H   0  0  0  0  0  0  0  0  0  0  0  0
   58.4157   35.3534   47.6838 H   0  0  0  0  0  0  0  0  0  0  0  0
   59.9796   34.5319   47.7953 H   0  0  0  0  0  0  0  0  0  0  0  0
   57.2867   28.6616   48.0237 H   0  0  0  0  0  0  0  0  0  0  0  0
   59.1628   29.8219   49.1823 H   0  0  0  0  0  0  0  0  0  0  0  0
  1  2  1  0
  2  3  2  0
  2  4  2  0
  2  5  1  0
  5  6  1  0
  6  7  1  0
  7  8  2  0
  8  9  1  0
  9 10  2  0
 10 11  1  0
 11 12  2  0
 11 13  1  0
 13 14  1  0
 14 15  1  0
 15 16  1  0
 16 17  2  0
 17 18  1  0
 18 19  2  0
 19 20  1  0
 20 21  2  0
 20 22  1  0
 22 23  1  0
 23 24  1  0
 10 25  1  0
 25 26  2  0
 26  7  1  0
 21 16  1  0
 24 19  1  0
  1 27  1  0
  1 28  1  0
  6 29  1  0
  6 30  1  0
  8 31  1  0
  9 32  1  0
 14 33  1  0
 14 34  1  0
 15 35  1  0
 15 36  1  0
 17 37  1  0
 18 38  1  0
 21 39  1  0
 22 40  1  0
 22 41  1  0
 23 42  1  0
 23 43  1  0
 25 44  1  0
 26 45  1  0
M  CHG  2   5  -1  13  -1
M  END
>  <UniqueID>  (3) 
3

>  <SMILES>  (3) 
NS(=O)(=O)[N-]Cc1ccc(C(=O)[N-]CCc2ccc3c(c2)CCO3)cc1

>  <Energy>  (3) 
57.42853688626978

>  <Genealogy>  (3) 
NS(=O)(=O)[N-]Cc1ccc(C(=O)[N-]CCc2ccc3c(c2)CCO3)cc1 (protonated)
NS(=O)(=O)[N-]Cc1ccc(C(=O)[N-]CCc2ccc3c(c2)CCO3)cc1 (3D coordinates assigned)
NS(=O)(=O)[N-]Cc1ccc(C(=O)[N-]CCc2ccc3c(c2)CCO3)cc1 (nonaromatic ring conformer: 57.42853688626978 kcal/mol)

>  <smiles>  (3) 
NS(=O)(=O)NCc1ccc(C(=O)NCCc2ccc3c(c2)CCO3)cc1

>  <score_type>  (3) 
oracle

>  <origin>  (3) 
adg

>  <m_score__min__energy>  (3) 
-11.49

>  <m_primary>  (3) 
energy

$$$$
3:0
     RDKit          3D

 59 62  0  0  0  0  0  0  0  0999 V2000
   55.3420   20.5850   50.6420 C   0  0  0  0  0  0  0  0  0  0  0  0
   55.7020   19.9760   49.4050 O   0  0  0  0  0  0  0  0  0  0  0  0
   56.2280   20.6670   48.3040 C   0  0  0  0  0  0  0  0  0  0  0  0
   57.1000   20.0630   47.3750 C   0  0  0  0  0  0  0  0  0  0  0  0
   57.5930   20.7980   46.2930 C   0  0  0  0  0  0  0  0  0  0  0  0
   57.2210   22.1390   46.1180 C   0  0  0  0  0  0  0  0  0  0  0  0
   57.8390   23.0630   44.7450 S   0  0  0  0  0  0  0  0  0  0  0  0
   57.1740   22.5920   43.4800 O   0  0  0  0  0  0  0  0  0  0  0  0
   59.3190   22.8140   44.6130 O   0  0  0  0  0  0  0  0  0  0  0  0
   57.5520   24.7750   44.9400 N   0  0  0  0  0  0  0  0  0  0  0  0
   58.4650   25.3430   45.9430 C   0  0  0  0  0  0  0  0  0  0  0  0
   58.3910   26.8720   45.8630 C   0  0  0  0  0  0  0  0  0  0  0  0
   57.0020   27.3230   45.6810 N   0  0  0  0  0  0  0  0  0  0  0  0
   56.7070   28.6470   45.1700 C   0  0  0  0  0  0  0  0  0  0  0  0
   55.5150   28.9520   44.8750 O   0  0  0  0  0  0  0  0  0  0  0  0
   57.7420   29.6280   44.9640 N   0  0  0  0  0  0  0  0  0  0  0  0
   58.6510   29.9960   46.0600 C   0  0  0  0  0  0  0  0  0  0  0  0
   58.9980   31.4870   45.9940 C   0  0  0  0  0  0  0  0  0  0  0  0
   57.7820   32.2350   45.6030 N   0  0  0  0  0  0  0  0  0  0  0  0
   57.7790   33.6990   45.8750 C   0  0  0  0  0  0  0  0  0  0  0  0
   58.6080   34.5780   44.9270 C   0  0  0  0  0  0  0  0  0  0  0  0
   59.5290   34.9440   46.0900 C   0  0  0  0  0  0  0  0  0  0  0  0
   58.6780   34.1050   47.0410 C   0  0  0  0  0  0  0  0  0  0  0  0
   57.4080   31.9620   44.1960 C   0  0  0  0  0  0  0  0  0  0  0  0
   57.6850   30.4990   43.7820 C   0  0  0  0  0  0  0  0  0  0  0  0
   55.9170   26.3800   45.9990 C   0  0  0  0  0  0  0  0  0  0  0  0
   56.1300   25.0350   45.2720 C   0  0  0  0  0  0  0  0  0  0  0  0
   56.3580   22.7410   47.0440 C   0  0  0  0  0  0  0  0  0  0  0  0
   55.8680   22.0090   48.1280 C   0  0  0  0  0  0  0  0  0  0  0  0
   55.7075   19.9667   51.4752 H   0  0  0  0  0  0  0  0  0  0  0  0
   55.7935   21.5862   50.7029 H   0  0  0  0  0  0  0  0  0  0  0  0
   54.2471   20.6722   50.7029 H   0  0  0  0  0  0  0  0  0  0  0  0
   57.3931   19.0104   47.5021 H   0  0  0  0  0  0  0  0  0  0  0  0
   58.2766   20.3220   45.5747 H   0  0  0  0  0  0  0  0  0  0  0  0
   58.1653   25.0097   46.9475 H   0  0  0  0  0  0  0  0  0  0  0  0
   59.4938   25.0063   45.7475 H   0  0  0  0  0  0  0  0  0  0  0  0
   58.7895   27.3008   46.7943 H   0  0  0  0  0  0  0  0  0  0  0  0
   58.9848   27.2074   44.9999 H   0  0  0  0  0  0  0  0  0  0  0  0
   58.1634   29.7804   47.0221 H   0  0  0  0  0  0  0  0  0  0  0  0
   59.5777   29.4112   45.9641 H   0  0  0  0  0  0  0  0  0  0  0  0
   59.3447   31.8313   46.9795 H   0  0  0  0  0  0  0  0  0  0  0  0
   59.7976   31.6558   45.2577 H   0  0  0  0  0  0  0  0  0  0  0  0
   56.6885   33.8389   45.9102 H   0  0  0  0  0  0  0  0  0  0  0  0
   59.1039   34.0237   44.1165 H   0  0  0  0  0  0  0  0  0  0  0  0
   58.1262   35.3627   44.3253 H   0  0  0  0  0  0  0  0  0  0  0  0
   60.5611   34.5814   45.9749 H   0  0  0  0  0  0  0  0  0  0  0  0
   59.7381   35.9993   46.3194 H   0  0  0  0  0  0  0  0  0  0  0  0
   59.2175   33.2665   47.5057 H   0  0  0  0  0  0  0  0  0  0  0  0
   58.2464   34.5552   47.9471 H   0  0  0  0  0  0  0  0  0  0  0  0
   56.3345   32.1667   44.0705 H   0  0  0  0  0  0  0  0  0  0  0  0
   58.0219   32.6121   43.5553 H   0  0  0  0  0  0  0  0  0  0  0  0
   56.8801   30.1531   43.1168 H   0  0  0  0  0  0  0  0  0  0  0  0
   58.6537   30.4552   43.2627 H   0  0  0  0  0  0  0  0  0  0  0  0
   55.8984   26.2043   47.0847 H   0  0  0  0  0  0  0  0  0  0  0  0
   54.9630   26.8142   45.6654 H   0  0  0  0  0  0  0  0  0  0  0  0
   55.7676   24.2243   45.9212 H   0  0  0  0  0  0  0  0  0  0  0  0
   55.5738   25.0814   44.3241 H   0  0  0  0  0  0  0  0  0  0  0  0
   56.0656   23.7937   46.9166 H   0  0  0  0  0  0  0  0  0  0  0  0
   55.1929   22.4912   48.8503 H   0  0  0  0  0  0  0  0  0  0  0  0
  1  2  1  0
  2  3  1  0
  3  4  2  0
  4  5  1  0
  5  6  2  0
  6  7  1  0
  7  8  2  0
  7  9  2  0
  7 10  1  0
 10 11  1  0
 11 12  1  0
 12 13  1  0
 13 14  1  0
 14 15  2  0
 14 16  1  0
 16 17  1  0
 17 18  1  0
 18 19  1  0
 19 20  1  0
 20 21  1  0
 21 22  1  0
 22 23  1  0
 19 24  1  0
 24 25  1  0
 13 26  1  0
 26 27  1  0
  6 28  1  0
 28 29  2  0
 29  3  1  0
 27 10  1  0
 25 16  1  0
 23 20  1  0
  1 30  1  0
  1 31  1  0
  1 32  1  0
  4 33  1  0
  5 34  1  0
 11 35  1  0
 11 36  1  0
 12 37  1  0
 12 38  1  0
 17 39  1  0
 17 40  1  0
 18 41  1  0
 18 42  1  0
 20 43  1  0
 21 44  1  0
 21 45  1  0
 22 46  1  0
 22 47  1  0
 23 48  1  0
 23 49  1  0
 24 50  1  0
 24 51  1  0
 25 52  1  0
 25 53  1  0
 26 54  1  0
 26 55  1  0
 27 56  1  0
 27 57  1  0
 28 58  1  0
 29 59  1  0
M  END
>  <UniqueID>  (4) 
4

>  <SMILES>  (4) 
COc1ccc(S(=O)(=O)N2CCN(C(=O)N3CCN(C4CCC4)CC3)CC2)cc1

>  <Energy>  (4) 
140.37800551624824

>  <Genealogy>  (4) 
COc1ccc(S(=O)(=O)N2CCN(C(=O)N3CCN(C4CCC4)CC3)CC2)cc1 (3D coordinates assigned)
COc1ccc(S(=O)(=O)N2CCN(C(=O)N3CCN(C4CCC4)CC3)CC2)cc1 (nonaromatic ring conformer: 140.37800551624824 kcal/mol)

>  <smiles>  (4) 
COc1ccc(S(=O)(=O)N2CCN(C(=O)N3CCN(C4CCC4)CC3)CC2)cc1

>  <score_type>  (4) 
oracle

>  <origin>  (4) 
adg

>  <m_score__min__energy>  (4) 
-8.1999999999999993

>  <m_primary>  (4) 
energy

$$$$
4:0
     RDKit          3D

 47 50  0  0  0  0  0  0  0  0999 V2000
   58.4320   29.8130   50.3750 C   0  0  0  0  0  0  0  0  0  0  0  0
   59.7630   29.9450   50.9930 N   0  0  0  0  0  0  0  0  0  0  0  0
   59.9810   31.3200   51.4900 C   0  0  0  0  0  0  0  0  0  0  0  0
   60.0770   32.2660   50.3320 C   0  0  0  0  0  0  0  0  0  0  0  0
   59.1620   32.3090   49.3390 N   0  0  0  0  0  0  0  0  0  0  0  0
   59.6550   33.2250   48.4830 C   0  0  0  0  0  0  0  0  0  0  0  0
   58.9770   33.6070   47.2200 C   0  0  0  0  0  0  0  0  0  0  0  0
   59.6280   34.4610   46.3090 C   0  0  0  0  0  0  0  0  0  0  0  0
   59.0130   34.8130   45.1040 C   0  0  0  0  0  0  0  0  0  0  0  0
   57.7400   34.3290   44.7970 C   0  0  0  0  0  0  0  0  0  0  0  0
   57.0790   33.4870   45.6950 C   0  0  0  0  0  0  0  0  0  0  0  0
   57.6920   33.1240   46.9000 C   0  0  0  0  0  0  0  0  0  0  0  0
   60.8530   33.7090   48.9780 C   0  0  0  0  0  0  0  0  0  0  0  0
   61.1280   33.0970   50.1440 N   0  0  0  0  0  0  0  0  0  0  0  0
   60.8260   29.5150   50.0530 C   0  0  0  0  0  0  0  0  0  0  0  0
   60.3230   28.3640   49.2460 C   0  0  0  0  0  0  0  0  0  0  0  0
   59.3740   28.4750   48.2980 N   0  0  0  0  0  0  0  0  0  0  0  0
   59.2840   27.1980   47.8700 C   0  0  0  0  0  0  0  0  0  0  0  0
   58.3090   26.7430   46.8310 C   0  0  0  0  0  0  0  0  0  0  0  0
   57.8620   27.9150   45.9940 C   0  0  0  0  0  0  0  0  0  0  0  0
   58.7890   28.9060   45.6210 C   0  0  0  0  0  0  0  0  0  0  0  0
   58.3790   30.0120   44.8700 C   0  0  0  0  0  0  0  0  0  0  0  0
   57.0390   30.1520   44.5030 C   0  0  0  0  0  0  0  0  0  0  0  0
   56.1030   29.1800   44.8790 C   0  0  0  0  0  0  0  0  0  0  0  0
   54.7690   29.3290   44.5130 O   0  0  0  0  0  0  0  0  0  0  0  0
   56.5100   28.0620   45.6220 C   0  0  0  0  0  0  0  0  0  0  0  0
   55.5690   27.1020   45.9910 O   0  0  0  0  0  0  0  0  0  0  0  0
   60.1210   26.3690   48.5240 N   0  0  0  0  0  0  0  0  0  0  0  0
   60.7520   27.1320   49.3650 O   0  0  0  0  0  0  0  0  0  0  0  0
   57.6679   29.7372   51.1627 H   0  0  0  0  0  0  0  0  0  0  0  0
   58.2286   30.6954   49.7505 H   0  0  0  0  0  0  0  0  0  0  0  0
   58.4058   28.9079   49.7505 H   0  0  0  0  0  0  0  0  0  0  0  0
   59.1388   31.6141   52.1336 H   0  0  0  0  0  0  0  0  0  0  0  0
   60.9166   31.3547   52.0674 H   0  0  0  0  0  0  0  0  0  0  0  0
   60.6274   34.8539   46.5472 H   0  0  0  0  0  0  0  0  0  0  0  0
   59.5339   35.4736   44.3953 H   0  0  0  0  0  0  0  0  0  0  0  0
   57.2579   34.6102   43.8491 H   0  0  0  0  0  0  0  0  0  0  0  0
   56.0746   33.1085   45.4545 H   0  0  0  0  0  0  0  0  0  0  0  0
   57.1679   32.4580   47.6012 H   0  0  0  0  0  0  0  0  0  0  0  0
   61.4805   34.4725   48.4951 H   0  0  0  0  0  0  0  0  0  0  0  0
   61.0866   30.3486   49.3843 H   0  0  0  0  0  0  0  0  0  0  0  0
   61.7207   29.2117   50.6165 H   0  0  0  0  0  0  0  0  0  0  0  0
   58.7897   25.9951   46.1832 H   0  0  0  0  0  0  0  0  0  0  0  0
   57.4334   26.2993   47.3275 H   0  0  0  0  0  0  0  0  0  0  0  0
   59.8426   28.8100   45.9221 H   0  0  0  0  0  0  0  0  0  0  0  0
   59.1134   30.7731   44.5678 H   0  0  0  0  0  0  0  0  0  0  0  0
   56.7181   31.0265   43.9180 H   0  0  0  0  0  0  0  0  0  0  0  0
  1  2  1  0
  2  3  1  0
  3  4  1  0
  4  5  2  0
  5  6  1  0
  6  7  1  0
  7  8  2  0
  8  9  1  0
  9 10  2  0
 10 11  1  0
 11 12  2  0
  6 13  2  0
 13 14  1  0
  2 15  1  0
 15 16  1  0
 16 17  2  0
 17 18  1  0
 18 19  1  0
 19 20  1  0
 20 21  2  0
 21 22  1  0
 22 23  2  0
 23 24  1  0
 24 25  1  0
 24 26  2  0
 26 27  1  0
 18 28  2  0
 28 29  1  0
 14  4  1  0
 29 16  1  0
 12  7  1  0
 26 20  1  0
  1 30  1  0
  1 31  1  0
  1 32  1  0
  3 33  1  0
  3 34  1  0
  8 35  1  0
  9 36  1  0
 10 37  1  0
 11 38  1  0
 12 39  1  0
 13 40  1  0
 15 41  1  0
 15 42  1  0
 19 43  1  0
 19 44  1  0
 21 45  1  0
 22 46  1  0
 23 47  1  0
M  CHG  3  14  -1  25  -1  27  -1
M  END
>  <UniqueID>  (5) 
5

>  <SMILES>  (5) 
CN(Cc1nc(-c2ccccc2)c[n-]1)Cc1nc(Cc2cccc([O-])c2[O-])no1

>  <Energy>  (5) 
110.29318325360974

>  <Genealogy>  (5) 
CN(Cc1nc(-c2ccccc2)c[n-]1)Cc1nc(Cc2cccc([O-])c2[O-])no1 (protonated)
CN(Cc1nc(-c2ccccc2)c[n-]1)Cc1nc(Cc2cccc([O-])c2[O-])no1 (3D coordinates assigned)
CN(Cc1nc(-c2ccccc2)c[n-]1)Cc1nc(Cc2cccc([O-])c2[O-])no1 (optimized conformer: 110.29318325360974 kcal/mol)

>  <smiles>  (5) 
CN(Cc1nc(-c2ccccc2)c[nH]1)Cc1nc(Cc2cccc(O)c2O)no1

>  <score_type>  (5) 
oracle

>  <origin>  (5) 
adg

>  <m_score__min__energy>  (5) 
-18.510000000000002

>  <m_primary>  (5) 
energy

$$$$
5:0
     RDKit          3D

 38 40  0  0  0  0  0  0  0  0999 V2000
   61.1640   29.6880   49.5090 C   0  0  0  0  0  0  0  0  0  0  0  0
   60.3100   29.5530   48.4960 C   0  0  0  0  0  0  0  0  0  0  0  0
   59.6030   30.6580   47.8540 C   0  0  0  0  0  0  0  0  0  0  0  0
   58.8650   30.1990   46.8450 C   0  0  0  0  0  0  0  0  0  0  0  0
   58.0940   31.0850   45.9490 C   0  0  0  0  0  0  0  0  0  0  0  0
   57.2570   30.5730   45.1570 O   0  0  0  0  0  0  0  0  0  0  0  0
   58.2730   32.5130   45.9680 N   0  0  0  0  0  0  0  0  0  0  0  0
   58.0900   33.2700   44.7240 C   0  0  0  0  0  0  0  0  0  0  0  0
   58.4800   34.7370   44.9150 C   0  0  0  0  0  0  0  0  0  0  0  0
   59.6760   34.8100   45.7570 N   0  0  0  0  0  0  0  0  0  0  0  0
   59.3810   34.4110   47.1450 C   0  0  0  0  0  0  0  0  0  0  0  0
   58.3810   33.2370   47.2440 C   0  0  0  0  0  0  0  0  0  0  0  0
   59.0140   28.7330   46.7230 C   0  0  0  0  0  0  0  0  0  0  0  0
   58.4110   27.9800   45.7850 C   0  0  0  0  0  0  0  0  0  0  0  0
   57.2330   27.1280   46.0180 C   0  0  0  0  0  0  0  0  0  0  0  0
   57.2770   25.8690   46.4930 N   0  0  0  0  0  0  0  0  0  0  0  0
   55.9950   25.4550   46.3980 C   0  0  0  0  0  0  0  0  0  0  0  0
   55.6230   24.3100   46.7660 O   0  0  0  0  0  0  0  0  0  0  0  0
   55.1450   26.3600   45.8670 N   0  0  0  0  0  0  0  0  0  0  0  0
   55.9490   27.4070   45.6190 C   0  0  0  0  0  0  0  0  0  0  0  0
   55.5190   28.5910   45.0340 O   0  0  0  0  0  0  0  0  0  0  0  0
   59.8970   28.3130   47.8310 C   0  0  0  0  0  0  0  0  0  0  0  0
   60.0400   27.0840   48.3410 C   0  0  0  0  0  0  0  0  0  0  0  0
   61.6554   28.8013   49.9360 H   0  0  0  0  0  0  0  0  0  0  0  0
   61.3780   30.6862   49.9187 H   0  0  0  0  0  0  0  0  0  0  0  0
   59.6701   31.7128   48.1587 H   0  0  0  0  0  0  0  0  0  0  0  0
   58.7208   32.8291   43.9380 H   0  0  0  0  0  0  0  0  0  0  0  0
   57.0292   33.2230   44.4369 H   0  0  0  0  0  0  0  0  0  0  0  0
   58.6905   35.1925   43.9361 H   0  0  0  0  0  0  0  0  0  0  0  0
   57.6539   35.2799   45.3974 H   0  0  0  0  0  0  0  0  0  0  0  0
   60.0080   35.8020   45.7680 H   0  0  0  0  0  0  0  0  0  0  0  0
   60.3217   34.1101   47.6293 H   0  0  0  0  0  0  0  0  0  0  0  0
   58.9177   35.2764   47.6414 H   0  0  0  0  0  0  0  0  0  0  0  0
   58.7238   32.5399   48.0228 H   0  0  0  0  0  0  0  0  0  0  0  0
   57.3911   33.6464   47.4939 H   0  0  0  0  0  0  0  0  0  0  0  0
   58.8294   28.0026   44.7679 H   0  0  0  0  0  0  0  0  0  0  0  0
   60.7391   26.9115   49.1726 H   0  0  0  0  0  0  0  0  0  0  0  0
   59.4585   26.2463   47.9286 H   0  0  0  0  0  0  0  0  0  0  0  0
  1  2  2  0
  2  3  1  0
  3  4  2  0
  4  5  1  0
  5  6  2  0
  5  7  1  0
  7  8  1  0
  8  9  1  0
  9 10  1  0
 10 11  1  0
 11 12  1  0
  4 13  1  0
 13 14  2  3
 14 15  1  0
 15 16  1  0
 16 17  1  0
 17 18  2  0
 17 19  1  0
 19 20  1  0
 20 21  1  0
 13 22  1  0
 22 23  2  0
 22  2  1  0
 12  7  1  0
 20 15  2  0
  1 24  1  0
  1 25  1  0
  3 26  1  0
  8 27  1  0
  8 28  1  0
  9 29  1  0
  9 30  1  0
 10 31  1  0
 11 32  1  0
 11 33  1  0
 12 34  1  0
 12 35  1  0
 14 36  1  0
 23 37  1  0
 23 38  1  0
M  CHG  3  16  -1  19  -1  21  -1
M  END
>  <UniqueID>  (6) 
6

>  <SMILES>  (6) 
C=C1C=C(C(=O)N2CCNCC2)C(=Cc2[n-]c(=O)[n-]c2[O-])C1=C

>  <Energy>  (6) 
105.6296744731802

>  <Genealogy>  (6) 
C=C1C=C(C(=O)N2CCNCC2)C(=Cc2[n-]c(=O)[n-]c2[O-])C1=C (protonated)
C=C1C=C(C(=O)N2CCNCC2)C(=Cc2[n-]c(=O)[n-]c2[O-])C1=C (3D coordinates assigned)
C=C1C=C(C(=O)N2CCNCC2)C(=Cc2[n-]c(=O)[n-]c2[O-])C1=C (nonaromatic ring conformer: 105.6296744731802 kcal/mol)

>  <smiles>  (6) 
C=C1C=C(C(=O)N2CCNCC2)C(=Cc2[nH]c(=O)[nH]c2O)C1=C

>  <score_type>  (6) 
oracle

>  <origin>  (6) 
adg

>  <m_score__min__energy>  (6) 
-15.99

>  <m_primary>  (6) 
energy

$$$$
6:0
     RDKit          3D

 59 62  0  0  0  0  0  0  0  0999 V2000
   55.6946   31.5268   43.6400 H   0  0  0  0  0  0  0  0  0  0  0  0
   56.3890   30.7680   44.0300 C   0  0  0  0  0  0  0  0  0  0  0  0
   56.0760   29.5030   44.4730 C   0  0  0  0  0  0  0  0  0  0  0  0
   54.7930   28.9710   44.4960 O   0  0  0  0  0  0  0  0  0  0  0  0
   57.1630   28.8280   44.8890 N   0  0  0  0  0  0  0  0  0  0  0  0
   58.1890   29.6820   44.7050 C   0  0  0  0  0  0  0  0  0  0  0  0
   59.5820   29.3510   45.0210 C   0  0  0  0  0  0  0  0  0  0  0  0
   60.2820   28.7190   44.1860 O   0  0  0  0  0  0  0  0  0  0  0  0
   60.1620   29.8310   46.2400 N   0  0  0  0  0  0  0  0  0  0  0  0
   59.7730   29.5970   47.4630 C   0  0  0  0  0  0  0  0  0  0  0  0
   59.7530   30.5610   48.4440 C   0  0  0  0  0  0  0  0  0  0  0  0
   59.9720   31.6343   48.3433 H   0  0  0  0  0  0  0  0  0  0  0  0
   59.3940   29.8690   49.5860 C   0  0  0  0  0  0  0  0  0  0  0  0
   59.3160   30.4480   50.9720 C   0  0  2  0  0  0  0  0  0  0  0  0
   59.1663   31.5339   50.8801 H   0  0  0  0  0  0  0  0  0  0  0  0
   60.6280   30.1990   51.7220 C   0  0  0  0  0  0  0  0  0  0  0  0
   60.7817   29.1158   51.8360 H   0  0  0  0  0  0  0  0  0  0  0  0
   61.4584   30.6372   51.1489 H   0  0  0  0  0  0  0  0  0  0  0  0
   60.5760   30.8540   53.1120 C   0  0  0  0  0  0  0  0  0  0  0  0
   61.4189   30.4708   53.7060 H   0  0  0  0  0  0  0  0  0  0  0  0
   60.6277   31.9411   52.9520 H   0  0  0  0  0  0  0  0  0  0  0  0
   59.3150   30.5900   53.8640 N   0  0  1  0  0  0  0  0  0  0  0  0
   59.5890   30.2010   54.7960 H   0  0  0  0  0  0  0  0  0  0  0  0
   58.4470   32.0730   54.2090 S   0  0  0  0  0  0  0  0  0  0  0  0
   57.0510   31.9690   53.6560 O   0  0  0  0  0  0  0  0  0  0  0  0
   58.3570   32.2760   55.6960 O   0  0  0  0  0  0  0  0  0  0  0  0
   59.2680   33.4340   53.4770 N   0  0  0  0  0  0  0  0  0  0  0  0
   58.5760   33.8250   52.2430 C   0  0  0  0  0  0  0  0  0  0  0  0
   57.6440   34.3516   52.4963 H   0  0  0  0  0  0  0  0  0  0  0  0
   59.2245   34.4902   51.6539 H   0  0  0  0  0  0  0  0  0  0  0  0
   58.3409   32.9263   51.6539 H   0  0  0  0  0  0  0  0  0  0  0  0
   59.2880   34.5620   54.4180 C   0  0  0  0  0  0  0  0  0  0  0  0
   59.2812   34.1794   55.4493 H   0  0  0  0  0  0  0  0  0  0  0  0
   60.1969   35.1597   54.2546 H   0  0  0  0  0  0  0  0  0  0  0  0
   58.4009   35.1915   54.2546 H   0  0  0  0  0  0  0  0  0  0  0  0
   58.4270   29.5870   53.2350 C   0  0  0  0  0  0  0  0  0  0  0  0
   58.9201   28.6050   53.2851 H   0  0  0  0  0  0  0  0  0  0  0  0
   57.4760   29.6043   53.7875 H   0  0  0  0  0  0  0  0  0  0  0  0
   58.1010   29.8950   51.7600 C   0  0  0  0  0  0  0  0  0  0  0  0
   57.7619   28.9676   51.2753 H   0  0  0  0  0  0  0  0  0  0  0  0
   57.3227   30.6723   51.7512 H   0  0  0  0  0  0  0  0  0  0  0  0
   59.1900   28.5690   49.2900 N   0  0  0  0  0  0  0  0  0  0  0  0
   59.4050   28.4010   47.9950 N   0  0  0  0  0  0  0  0  0  0  0  0
   59.0080   27.1960   47.3230 C   0  0  0  0  0  0  0  0  0  0  0  0
   59.9710   26.3340   46.7710 C   0  0  0  0  0  0  0  0  0  0  0  0
   61.0407   26.5649   46.8827 H   0  0  0  0  0  0  0  0  0  0  0  0
   59.5760   25.1850   46.0810 C   0  0  0  0  0  0  0  0  0  0  0  0
   60.3366   24.4998   45.6785 H   0  0  0  0  0  0  0  0  0  0  0  0
   58.2150   24.9010   45.8990 C   0  0  0  0  0  0  0  0  0  0  0  0
   57.7930   23.6550   45.1780 C   0  0  0  0  0  0  0  0  0  0  0  0
   57.5300   22.8784   45.9112 H   0  0  0  0  0  0  0  0  0  0  0  0
   56.9191   23.8746   44.5470 H   0  0  0  0  0  0  0  0  0  0  0  0
   58.6205   23.2984   44.5470 H   0  0  0  0  0  0  0  0  0  0  0  0
   57.2520   25.7670   46.4410 C   0  0  0  0  0  0  0  0  0  0  0  0
   56.1823   25.5415   46.3192 H   0  0  0  0  0  0  0  0  0  0  0  0
   57.6470   26.9150   47.1350 C   0  0  0  0  0  0  0  0  0  0  0  0
   56.8862   27.6012   47.5355 H   0  0  0  0  0  0  0  0  0  0  0  0
   57.7520   30.8850   44.1770 C   0  0  0  0  0  0  0  0  0  0  0  0
   58.3706   31.7591   43.9254 H   0  0  0  0  0  0  0  0  0  0  0  0
  1  2  1  0
  2  3  2  0
  3  4  1  0
  3  5  1  0
  5  6  1  0
  6  7  1  0
  7  8  2  0
  7  9  1  0
  9 10  2  0
 10 11  1  0
 11 12  1  0
 11 13  2  0
 13 14  1  0
 14 15  1  6
 14 16  1  0
 16 17  1  0
 16 18  1  0
 16 19  1  0
 19 20  1  0
 19 21  1  0
 19 22  1  0
 22 23  1  1
 22 24  1  0
 24 25  2  0
 24 26  2  0
 24 27  1  0
 27 28  1  0
 28 29  1  0
 28 30  1  0
 28 31  1  0
 27 32  1  0
 32 33  1  0
 32 34  1  0
 32 35  1  0
 22 36  1  0
 36 37  1  0
 36 38  1  0
 36 39  1  0
 39 40  1  0
 39 41  1  0
 13 42  1  0
 42 43  1  0
 43 44  1  0
 44 45  2  0
 45 46  1  0
 45 47  1  0
 47 48  1  0
 47 49  2  0
 49 50  1  0
 50 51  1  0
 50 52  1  0
 50 53  1  0
 49 54  1  0
 54 55  1  0
 54 56  2  0
 56 57  1  0
  6 58  2  0
 58 59  1  0
 58  2  1  0
 43 10  1  0
 56 44  1  0
 39 14  1  0
M  CHG  4   4  -1   5  -1  22   1  42  -1
M  END
>  <UniqueID>  (7) 
7

>  <SMILES>  (7) 
Cc1ccc(-n2[n-]c(C3CC[NH+](S(=O)(=O)N(C)C)CC3)c/c2=N/C(=O)c2ccc([O-])[n-]2)cc1

>  <Energy>  (7) 
135.69297463431874

>  <Genealogy>  (7) 
Cc1ccc(-n2[n-]c(C3CC[NH+](S(=O)(=O)N(C)C)CC3)cc2=NC(=O)c2ccc([O-])[n-]2)cc1 (protonated)
Cc1ccc(-n2[n-]c(C3CC[NH+](S(=O)(=O)N(C)C)CC3)c/c2=N/C(=O)c2ccc([O-])[n-]2)cc1 (cis-trans isomerization)
Cc1ccc(-n2[n-]c(C3CC[NH+](S(=O)(=O)N(C)C)CC3)c/c2=N/C(=O)c2ccc([O-])[n-]2)cc1 (3D coordinates assigned)
Cc1ccc(-n2[n-]c(C3CC[NH+](S(=O)(=O)N(C)C)CC3)c/c2=N/C(=O)c2ccc([O-])[n-]2)cc1 (nonaromatic ring conformer: 135.69297463431874 kcal/mol)

>  <smiles>  (7) 
Cc1ccc(-n2[nH]c(C3CCN(S(=O)(=O)N(C)C)CC3)cc2=NC(=O)c2ccc(O)[nH]2)cc1

>  <score_type>  (7) 
oracle

>  <origin>  (7) 
adg

>  <m_score__min__energy>  (7) 
-13.81

>  <m_primary>  (7) 
energy

$$$$
7:0
     RDKit          3D

 51 53  0  0  0  0  0  0  0  0999 V2000
   58.9130   26.4150   47.3980 C   0  0  0  0  0  0  0  0  0  0  0  0
   57.6270   25.8900   47.0640 O   0  0  0  0  0  0  0  0  0  0  0  0
   57.4120   24.8670   46.1190 C   0  0  0  0  0  0  0  0  0  0  0  0
   57.0400   23.5630   46.5010 C   0  0  0  0  0  0  0  0  0  0  0  0
   56.7970   22.5840   45.5340 C   0  0  0  0  0  0  0  0  0  0  0  0
   56.9270   22.8880   44.1760 C   0  0  0  0  0  0  0  0  0  0  0  0
   56.6840   21.6300   42.9650 Cl  0  0  0  0  0  0  0  0  0  0  0  0
   57.3140   24.1710   43.7850 C   0  0  0  0  0  0  0  0  0  0  0  0
   57.5390   25.1730   44.7510 C   0  0  0  0  0  0  0  0  0  0  0  0
   58.0400   26.4620   44.3570 N   0  0  0  0  0  0  0  0  0  0  0  0
   57.3780   27.7050   44.6390 C   0  0  0  0  0  0  0  0  0  0  0  0
   56.3930   27.7390   45.4270 O   0  0  0  0  0  0  0  0  0  0  0  0
   57.8540   28.9100   44.0280 N   0  0  0  0  0  0  0  0  0  0  0  0
   57.8630   30.1790   44.7010 C   0  0  0  0  0  0  0  0  0  0  0  0
   57.4150   30.2790   45.8740 O   0  0  0  0  0  0  0  0  0  0  0  0
   58.4840   31.3110   44.0780 N   0  0  0  0  0  0  0  0  0  0  0  0
   58.6950   32.5400   44.7800 C   0  0  0  0  0  0  0  0  0  0  0  0
   58.3610   33.7640   44.1810 C   0  0  0  0  0  0  0  0  0  0  0  0
   58.5680   34.9570   44.8740 C   0  0  0  0  0  0  0  0  0  0  0  0
   59.1510   34.9410   46.1470 C   0  0  0  0  0  0  0  0  0  0  0  0
   59.4940   33.7250   46.7490 C   0  0  0  0  0  0  0  0  0  0  0  0
   60.1430   33.7160   48.0730 C   0  0  0  0  0  0  0  0  0  0  0  0
   59.4630   34.0300   49.0910 O   0  0  0  0  0  0  0  0  0  0  0  0
   61.5380   33.3880   48.2140 N   0  0  0  0  0  0  0  0  0  0  0  0
   62.2530   33.8540   49.4070 C   0  0  0  0  0  0  0  0  0  0  0  0
   63.7690   33.8360   49.1710 C   0  0  0  0  0  0  0  0  0  0  0  0
   64.1860   32.5730   48.6840 O   0  0  0  0  0  0  0  0  0  0  0  0
   63.6180   32.3430   47.4060 C   0  0  0  0  0  0  0  0  0  0  0  0
   62.0890   32.2270   47.4980 C   0  0  0  0  0  0  0  0  0  0  0  0
   59.2550   32.5230   46.0660 C   0  0  0  0  0  0  0  0  0  0  0  0
   59.0186   26.4581   48.4921 H   0  0  0  0  0  0  0  0  0  0  0  0
   59.6948   25.7640   46.9795 H   0  0  0  0  0  0  0  0  0  0  0  0
   59.0158   27.4271   46.9795 H   0  0  0  0  0  0  0  0  0  0  0  0
   56.9402   23.3138   47.5677 H   0  0  0  0  0  0  0  0  0  0  0  0
   56.5023   21.5702   45.8427 H   0  0  0  0  0  0  0  0  0  0  0  0
   57.4441   24.4015   42.7173 H   0  0  0  0  0  0  0  0  0  0  0  0
   59.0270   26.5130   44.0060 H   0  0  0  0  0  0  0  0  0  0  0  0
   58.3560   28.8260   43.1160 H   0  0  0  0  0  0  0  0  0  0  0  0
   58.9310   31.1980   43.1410 H   0  0  0  0  0  0  0  0  0  0  0  0
   57.9365   33.7830   43.1664 H   0  0  0  0  0  0  0  0  0  0  0  0
   58.2722   35.9137   44.4187 H   0  0  0  0  0  0  0  0  0  0  0  0
   59.3400   35.8870   46.6755 H   0  0  0  0  0  0  0  0  0  0  0  0
   61.9358   34.8812   49.6401 H   0  0  0  0  0  0  0  0  0  0  0  0
   62.0172   33.1827   50.2459 H   0  0  0  0  0  0  0  0  0  0  0  0
   64.0288   34.6105   48.4344 H   0  0  0  0  0  0  0  0  0  0  0  0
   64.2775   34.0315   50.1266 H   0  0  0  0  0  0  0  0  0  0  0  0
   63.8762   33.1805   46.7412 H   0  0  0  0  0  0  0  0  0  0  0  0
   64.0186   31.3989   47.0083 H   0  0  0  0  0  0  0  0  0  0  0  0
   61.6649   32.1898   46.4837 H   0  0  0  0  0  0  0  0  0  0  0  0
   61.8290   31.3089   48.0453 H   0  0  0  0  0  0  0  0  0  0  0  0
   59.5078   31.5635   46.5408 H   0  0  0  0  0  0  0  0  0  0  0  0
  1  2  1  0
  2  3  1  0
  3  4  2  0
  4  5  1  0
  5  6  2  0
  6  7  1  0
  6  8  1  0
  8  9  2  0
  9 10  1  0
 10 11  1  0
 11 12  2  0
 11 13  1  0
 13 14  1  0
 14 15  2  0
 14 16  1  0
 16 17  1  0
 17 18  2  0
 18 19  1  0
 19 20  2  0
 20 21  1  0
 21 22  1  0
 22 23  2  0
 22 24  1  0
 24 25  1  0
 25 26  1  0
 26 27  1  0
 27 28  1  0
 28 29  1  0
 21 30  2  0
  9  3  1  0
 30 17  1  0
 29 24  1  0
  1 31  1  0
  1 32  1  0
  1 33  1  0
  4 34  1  0
  5 35  1  0
  8 36  1  0
 10 37  1  0
 13 38  1  0
 16 39  1  0
 18 40  1  0
 19 41  1  0
 20 42  1  0
 25 43  1  0
 25 44  1  0
 26 45  1  0
 26 46  1  0
 28 47  1  0
 28 48  1  0
 29 49  1  0
 29 50  1  0
 30 51  1  0
M  END
>  <UniqueID>  (8) 
8

>  <SMILES>  (8) 
COc1ccc(Cl)cc1NC(=O)NC(=O)Nc1cccc(C(=O)N2CCOCC2)c1

>  <Energy>  (8) 
71.39285285441662

>  <Genealogy>  (8) 
COc1ccc(Cl)cc1NC(=O)NC(=O)Nc1cccc(C(=O)N2CCOCC2)c1 (3D coordinates assigned)
COc1ccc(Cl)cc1NC(=O)NC(=O)Nc1cccc(C(=O)N2CCOCC2)c1 (nonaromatic ring conformer: 71.39285285441662 kcal/mol)

>  <smiles>  (8) 
COc1ccc(Cl)cc1NC(=O)NC(=O)Nc1cccc(C(=O)N2CCOCC2)c1

>  <score_type>  (8) 
oracle

>  <origin>  (8) 
adg

>  <m_score__min__energy>  (8) 
-8.8100000000000005

>  <m_primary>  (8) 
energy

$$$$
8:0
     RDKit          3D

 44 45  0  0  0  0  0  0  0  0999 V2000
   56.2540   23.3660   43.0060 C   0  0  0  0  0  0  0  0  0  0  0  0
   55.9980   21.9640   43.3770 N   0  0  0  0  0  0  0  0  0  0  0  0
   57.0270   21.1010   42.7670 C   0  0  0  0  0  0  0  0  0  0  0  0
   55.9940   21.8200   44.8480 C   0  0  0  0  0  0  0  0  0  0  0  0
   57.3910   21.5890   45.3590 C   0  0  0  0  0  0  0  0  0  0  0  0
   57.9820   22.3510   46.2350 N   0  0  0  0  0  0  0  0  0  0  0  0
   57.3930   23.3090   47.1340 C   0  0  0  0  0  0  0  0  0  0  0  0
   56.9100   22.9450   48.2410 O   0  0  0  0  0  0  0  0  0  0  0  0
   57.3570   24.7430   46.7580 C   0  0  0  0  0  0  0  0  0  0  0  0
   56.2690   25.2660   46.0340 C   0  0  0  0  0  0  0  0  0  0  0  0
   56.2360   26.6170   45.6770 C   0  0  0  0  0  0  0  0  0  0  0  0
   57.3000   27.4660   46.0210 C   0  0  0  0  0  0  0  0  0  0  0  0
   57.2820   28.8620   45.6930 N   0  0  0  0  0  0  0  0  0  0  0  0
   56.3920   29.5070   44.7730 C   0  0  0  0  0  0  0  0  0  0  0  0
   55.1560   29.2820   44.8650 O   0  0  0  0  0  0  0  0  0  0  0  0
   56.8870   30.4870   43.7430 C   0  0  0  0  0  0  0  0  0  0  0  0
   57.5880   31.6410   44.4060 C   0  0  0  0  0  0  0  0  0  0  0  0
   58.0420   32.7310   43.6460 C   0  0  0  0  0  0  0  0  0  0  0  0
   58.6670   33.8130   44.2700 C   0  0  0  0  0  0  0  0  0  0  0  0
   58.8380   33.8250   45.6580 C   0  0  0  0  0  0  0  0  0  0  0  0
   59.6280   35.2060   46.4080 Cl  0  0  0  0  0  0  0  0  0  0  0  0
   58.3750   32.7450   46.4290 C   0  0  0  0  0  0  0  0  0  0  0  0
   58.5610   32.7240   48.1770 Cl  0  0  0  0  0  0  0  0  0  0  0  0
   57.7490   31.6610   45.8010 C   0  0  0  0  0  0  0  0  0  0  0  0
   58.3690   26.9580   46.7650 C   0  0  0  0  0  0  0  0  0  0  0  0
   58.4040   25.6070   47.1240 C   0  0  0  0  0  0  0  0  0  0  0  0
   56.3647   23.9721   43.9173 H   0  0  0  0  0  0  0  0  0  0  0  0
   57.1778   23.4252   42.4118 H   0  0  0  0  0  0  0  0  0  0  0  0
   55.4107   23.7479   42.4118 H   0  0  0  0  0  0  0  0  0  0  0  0
   57.6114   20.6109   43.5596 H   0  0  0  0  0  0  0  0  0  0  0  0
   56.5413   20.3361   42.1432 H   0  0  0  0  0  0  0  0  0  0  0  0
   57.6956   21.7124   42.1432 H   0  0  0  0  0  0  0  0  0  0  0  0
   55.5902   22.7377   45.3005 H   0  0  0  0  0  0  0  0  0  0  0  0
   55.3687   20.9566   45.1192 H   0  0  0  0  0  0  0  0  0  0  0  0
   57.9469   20.7237   44.9688 H   0  0  0  0  0  0  0  0  0  0  0  0
   55.4375   24.6057   45.7467 H   0  0  0  0  0  0  0  0  0  0  0  0
   55.3730   27.0166   45.1243 H   0  0  0  0  0  0  0  0  0  0  0  0
   57.5892   29.9774   43.0668 H   0  0  0  0  0  0  0  0  0  0  0  0
   56.0262   30.8722   43.1767 H   0  0  0  0  0  0  0  0  0  0  0  0
   57.9048   32.7327   42.5546 H   0  0  0  0  0  0  0  0  0  0  0  0
   59.0265   34.6598   43.6669 H   0  0  0  0  0  0  0  0  0  0  0  0
   57.3806   30.8187   46.4050 H   0  0  0  0  0  0  0  0  0  0  0  0
   59.1882   27.6256   47.0701 H   0  0  0  0  0  0  0  0  0  0  0  0
   59.2578   25.2170   47.6975 H   0  0  0  0  0  0  0  0  0  0  0  0
  1  2  1  0
  2  3  1  0
  2  4  1  0
  4  5  1  0
  5  6  2  3
  6  7  1  0
  7  8  2  0
  7  9  1  0
  9 10  2  0
 10 11  1  0
 11 12  2  0
 12 13  1  0
 13 14  1  0
 14 15  2  0
 14 16  1  0
 16 17  1  0
 17 18  2  0
 18 19  1  0
 19 20  2  0
 20 21  1  0
 20 22  1  0
 22 23  1  0
 22 24  2  0
 12 25  1  0
 25 26  2  0
 26  9  1  0
 24 17  1  0
  1 27  1  0
  1 28  1  0
  1 29  1  0
  3 30  1  0
  3 31  1  0
  3 32  1  0
  4 33  1  0
  4 34  1  0
  5 35  1  0
 10 36  1  0
 11 37  1  0
 16 38  1  0
 16 39  1  0
 18 40  1  0
 19 41  1  0
 24 42  1  0
 25 43  1  0
 26 44  1  0
M  CHG  1  13  -1
M  END
>  <UniqueID>  (9) 
9

>  <SMILES>  (9) 
CN(C)CC=NC(=O)c1ccc([N-]C(=O)Cc2ccc(Cl)c(Cl)c2)cc1

>  <Energy>  (9) 
52.14151501488884

>  <Genealogy>  (9) 
CN(C)CC=NC(=O)c1ccc([N-]C(=O)Cc2ccc(Cl)c(Cl)c2)cc1 (protonated)
CN(C)CC=NC(=O)c1ccc([N-]C(=O)Cc2ccc(Cl)c(Cl)c2)cc1 (3D coordinates assigned)
CN(C)CC=NC(=O)c1ccc([N-]C(=O)Cc2ccc(Cl)c(Cl)c2)cc1 (optimized conformer: 52.14151501488884 kcal/mol)

>  <smiles>  (9) 
CN(C)CC=NC(=O)c1ccc(NC(=O)Cc2ccc(Cl)c(Cl)c2)cc1

>  <score_type>  (9) 
oracle

>  <origin>  (9) 
adg

>  <m_score__min__energy>  (9) 
-10.09

>  <m_primary>  (9) 
energy

$$$$
9:0
     RDKit          3D

 43 45  0  0  0  0  0  0  0  0999 V2000
   61.1640   33.2630   46.7070 O   0  0  0  0  0  0  0  0  0  0  0  0
   61.2010   32.0180   46.9200 C   0  0  0  0  0  0  0  0  0  0  0  0
   62.3370   31.4470   47.7340 C   0  0  0  0  0  0  0  0  0  0  0  0
   62.8050   32.4150   48.7910 C   0  0  0  0  0  0  0  0  0  0  0  0
   61.8760   33.1030   49.5880 C   0  0  0  0  0  0  0  0  0  0  0  0
   62.3150   33.9770   50.5880 C   0  0  0  0  0  0  0  0  0  0  0  0
   63.6840   34.1620   50.8050 C   0  0  0  0  0  0  0  0  0  0  0  0
   64.1190   35.0300   51.7990 O   0  0  0  0  0  0  0  0  0  0  0  0
   64.6150   33.4710   50.0240 C   0  0  0  0  0  0  0  0  0  0  0  0
   64.1790   32.5960   49.0230 C   0  0  0  0  0  0  0  0  0  0  0  0
   60.2020   31.1620   46.3220 N   0  0  0  0  0  0  0  0  0  0  0  0
   60.4790   29.7290   46.1270 C   0  0  0  0  0  0  0  0  0  0  0  0
   59.4520   29.0710   45.2020 C   0  0  0  0  0  0  0  0  0  0  0  0
   58.0910   29.4400   45.6160 N   0  0  0  0  0  0  0  0  0  0  0  0
   57.0150   28.4870   45.5200 C   0  0  0  0  0  0  0  0  0  0  0  0
   55.8900   28.8610   45.0890 O   0  0  0  0  0  0  0  0  0  0  0  0
   57.1920   27.0730   45.9160 C   0  0  0  0  0  0  0  0  0  0  0  0
   58.4890   26.5410   46.0240 C   0  0  0  0  0  0  0  0  0  0  0  0
   58.6790   25.2090   46.4020 C   0  0  0  0  0  0  0  0  0  0  0  0
   57.5760   24.3910   46.6660 C   0  0  0  0  0  0  0  0  0  0  0  0
   57.7680   23.0690   47.0450 O   0  0  0  0  0  0  0  0  0  0  0  0
   56.2830   24.9050   46.5430 C   0  0  0  0  0  0  0  0  0  0  0  0
   56.0850   26.2360   46.1590 C   0  0  0  0  0  0  0  0  0  0  0  0
   54.7860   26.7090   46.0000 O   0  0  0  0  0  0  0  0  0  0  0  0
   57.7800   30.8400   45.9380 C   0  0  0  0  0  0  0  0  0  0  0  0
   58.9910   31.7590   45.7380 C   0  0  0  0  0  0  0  0  0  0  0  0
   61.9962   30.5223   48.2227 H   0  0  0  0  0  0  0  0  0  0  0  0
   63.1789   31.2458   47.0553 H   0  0  0  0  0  0  0  0  0  0  0  0
   60.7984   32.9540   49.4253 H   0  0  0  0  0  0  0  0  0  0  0  0
   61.5827   34.5192   51.2042 H   0  0  0  0  0  0  0  0  0  0  0  0
   65.6917   33.6154   50.1966 H   0  0  0  0  0  0  0  0  0  0  0  0
   64.9143   32.0479   48.4156 H   0  0  0  0  0  0  0  0  0  0  0  0
   61.4798   29.6170   45.6844 H   0  0  0  0  0  0  0  0  0  0  0  0
   60.4220   29.2337   47.1075 H   0  0  0  0  0  0  0  0  0  0  0  0
   59.6227   29.4095   44.1694 H   0  0  0  0  0  0  0  0  0  0  0  0
   59.5626   27.9781   45.2603 H   0  0  0  0  0  0  0  0  0  0  0  0
   59.3601   27.1775   45.8095 H   0  0  0  0  0  0  0  0  0  0  0  0
   59.6976   24.8035   46.4920 H   0  0  0  0  0  0  0  0  0  0  0  0
   55.4160   24.2602   46.7490 H   0  0  0  0  0  0  0  0  0  0  0  0
   56.9635   31.1815   45.2848 H   0  0  0  0  0  0  0  0  0  0  0  0
   57.4889   30.8879   46.9977 H   0  0  0  0  0  0  0  0  0  0  0  0
   59.1501   31.9167   44.6610 H   0  0  0  0  0  0  0  0  0  0  0  0
   58.7930   32.7174   46.2402 H   0  0  0  0  0  0  0  0  0  0  0  0
  1  2  2  0
  2  3  1  0
  3  4  1  0
  4  5  2  0
  5  6  1  0
  6  7  2  0
  7  8  1  0
  7  9  1  0
  9 10  2  0
  2 11  1  0
 11 12  1  0
 12 13  1  0
 13 14  1  0
 14 15  1  0
 15 16  2  0
 15 17  1  0
 17 18  2  0
 18 19  1  0
 19 20  2  0
 20 21  1  0
 20 22  1  0
 22 23  2  0
 23 24  1  0
 14 25  1  0
 25 26  1  0
 10  4  1  0
 26 11  1  0
 23 17  1  0
  3 27  1  0
  3 28  1  0
  5 29  1  0
  6 30  1  0
  9 31  1  0
 10 32  1  0
 12 33  1  0
 12 34  1  0
 13 35  1  0
 13 36  1  0
 18 37  1  0
 19 38  1  0
 22 39  1  0
 25 40  1  0
 25 41  1  0
 26 42  1  0
 26 43  1  0
M  CHG  3   8  -1  21  -1  24  -1
M  END
>  <UniqueID>  (10) 
10

>  <SMILES>  (10) 
O=C(Cc1ccc([O-])cc1)N1CCN(C(=O)c2ccc([O-])cc2[O-])CC1

>  <Energy>  (10) 
51.84035515772399

>  <Genealogy>  (10) 
O=C(Cc1ccc([O-])cc1)N1CCN(C(=O)c2ccc([O-])cc2[O-])CC1 (protonated)
O=C(Cc1ccc([O-])cc1)N1CCN(C(=O)c2ccc([O-])cc2[O-])CC1 (3D coordinates assigned)
O=C(Cc1ccc([O-])cc1)N1CCN(C(=O)c2ccc([O-])cc2[O-])CC1 (nonaromatic ring conformer: 51.84035515772399 kcal/mol)

>  <smiles>  (10) 
O=C(Cc1ccc(O)cc1)N1CCN(C(=O)c2ccc(O)cc2O)CC1

>  <score_type>  (10) 
oracle

>  <origin>  (10) 
adg

>  <m_score__min__energy>  (10) 
-14.1

>  <m_primary>  (10) 
energy

$$$$
10:0
     RDKit          3D

 51 53  0  0  0  0  0  0  0  0999 V2000
   57.9250   32.5010   42.3720 C   0  0  0  0  0  0  0  0  0  0  0  0
   57.9600   32.6160   43.8720 C   0  0  0  0  0  0  0  0  0  0  0  0
   57.7390   33.8750   44.4590 C   0  0  0  0  0  0  0  0  0  0  0  0
   57.7190   34.0210   45.8460 C   0  0  0  0  0  0  0  0  0  0  0  0
   57.9150   32.9140   46.6690 C   0  0  0  0  0  0  0  0  0  0  0  0
   58.1320   31.6560   46.1060 C   0  0  0  0  0  0  0  0  0  0  0  0
   58.1550   31.4850   44.7100 C   0  0  0  0  0  0  0  0  0  0  0  0
   58.4320   30.0980   44.1640 C   0  0  0  0  0  0  0  0  0  0  0  0
   57.1960   29.4880   43.4880 C   0  0  0  0  0  0  0  0  0  0  0  0
   56.0350   29.3680   44.4290 C   0  0  0  0  0  0  0  0  0  0  0  0
   55.1810   30.2930   44.4940 O   0  0  0  0  0  0  0  0  0  0  0  0
   55.9050   28.2010   45.2470 N   0  0  0  0  0  0  0  0  0  0  0  0
   56.9200   27.1580   45.3310 C   0  0  0  0  0  0  0  0  0  0  0  0
   58.0540   27.6080   46.2100 C   0  0  0  0  0  0  0  0  0  0  0  0
   57.8760   28.6930   47.0790 C   0  0  0  0  0  0  0  0  0  0  0  0
   58.9140   29.1030   47.9190 C   0  0  0  0  0  0  0  0  0  0  0  0
   60.1400   28.4290   47.9160 C   0  0  0  0  0  0  0  0  0  0  0  0
   61.1460   28.8850   48.7830 O   0  0  0  0  0  0  0  0  0  0  0  0
   60.9730   29.8660   49.8060 C   0  0  0  0  0  0  0  0  0  0  0  0
   60.9750   31.2540   49.2220 C   0  0  0  0  0  0  0  0  0  0  0  0
   59.9650   32.1690   49.5570 C   0  0  0  0  0  0  0  0  0  0  0  0
   59.9910   33.4670   49.0390 C   0  0  0  0  0  0  0  0  0  0  0  0
   61.0240   33.8610   48.1840 C   0  0  0  0  0  0  0  0  0  0  0  0
   62.0350   32.9570   47.8460 C   0  0  0  0  0  0  0  0  0  0  0  0
   63.3210   33.4460   46.7570 Cl  0  0  0  0  0  0  0  0  0  0  0  0
   62.0180   31.6600   48.3720 C   0  0  0  0  0  0  0  0  0  0  0  0
   60.3180   27.3310   47.0530 C   0  0  0  0  0  0  0  0  0  0  0  0
   59.2810   26.9250   46.2060 C   0  0  0  0  0  0  0  0  0  0  0  0
   57.6155   31.4840   42.0894 H   0  0  0  0  0  0  0  0  0  0  0  0
   57.2077   33.2290   41.9651 H   0  0  0  0  0  0  0  0  0  0  0  0
   58.9262   32.7060   41.9651 H   0  0  0  0  0  0  0  0  0  0  0  0
   57.5802   34.7541   43.8172 H   0  0  0  0  0  0  0  0  0  0  0  0
   57.5481   35.0123   46.2911 H   0  0  0  0  0  0  0  0  0  0  0  0
   57.8987   33.0318   47.7625 H   0  0  0  0  0  0  0  0  0  0  0  0
   58.2871   30.7869   46.7622 H   0  0  0  0  0  0  0  0  0  0  0  0
   59.2448   30.1629   43.4256 H   0  0  0  0  0  0  0  0  0  0  0  0
   58.7116   29.4504   45.0081 H   0  0  0  0  0  0  0  0  0  0  0  0
   56.9022   30.1285   42.6434 H   0  0  0  0  0  0  0  0  0  0  0  0
   57.4620   28.4755   43.1502 H   0  0  0  0  0  0  0  0  0  0  0  0
   56.4712   26.2473   45.7543 H   0  0  0  0  0  0  0  0  0  0  0  0
   57.3073   26.9514   44.3224 H   0  0  0  0  0  0  0  0  0  0  0  0
   56.9133   29.2248   47.0997 H   0  0  0  0  0  0  0  0  0  0  0  0
   58.7662   29.9631   48.5886 H   0  0  0  0  0  0  0  0  0  0  0  0
   60.0140   29.6905   50.3154 H   0  0  0  0  0  0  0  0  0  0  0  0
   61.8064   29.7824   50.5191 H   0  0  0  0  0  0  0  0  0  0  0  0
   59.1500   31.8636   50.2296 H   0  0  0  0  0  0  0  0  0  0  0  0
   59.1967   34.1800   49.3049 H   0  0  0  0  0  0  0  0  0  0  0  0
   61.0414   34.8828   47.7770 H   0  0  0  0  0  0  0  0  0  0  0  0
   62.8242   30.9557   48.1191 H   0  0  0  0  0  0  0  0  0  0  0  0
   61.2759   26.7903   47.0446 H   0  0  0  0  0  0  0  0  0  0  0  0
   59.4275   26.0667   45.5338 H   0  0  0  0  0  0  0  0  0  0  0  0
  1  2  1  0
  2  3  2  0
  3  4  1  0
  4  5  2  0
  5  6  1  0
  6  7  2  0
  7  8  1  0
  8  9  1  0
  9 10  1  0
 10 11  2  0
 10 12  1  0
 12 13  1  0
 13 14  1  0
 14 15  2  0
 15 16  1  0
 16 17  2  0
 17 18  1  0
 18 19  1  0
 19 20  1  0
 20 21  2  0
 21 22  1  0
 22 23  2  0
 23 24  1  0
 24 25  1  0
 24 26  2  0
 17 27  1  0
 27 28  2  0
  7  2  1  0
 28 14  1  0
 26 20  1  0
  1 29  1  0
  1 30  1  0
  1 31  1  0
  3 32  1  0
  4 33  1  0
  5 34  1  0
  6 35  1  0
  8 36  1  0
  8 37  1  0
  9 38  1  0
  9 39  1  0
 13 40  1  0
 13 41  1  0
 15 42  1  0
 16 43  1  0
 19 44  1  0
 19 45  1  0
 21 46  1  0
 22 47  1  0
 23 48  1  0
 26 49  1  0
 27 50  1  0
 28 51  1  0
M  CHG  1  12  -1
M  END
>  <UniqueID>  (11) 
11

>  <SMILES>  (11) 
Cc1ccccc1CCC(=O)[N-]Cc1ccc(OCc2cccc(Cl)c2)cc1

>  <Energy>  (11) 
42.845772312787254

>  <Genealogy>  (11) 
Cc1ccccc1CCC(=O)[N-]Cc1ccc(OCc2cccc(Cl)c2)cc1 (protonated)
Cc1ccccc1CCC(=O)[N-]Cc1ccc(OCc2cccc(Cl)c2)cc1 (3D coordinates assigned)
Cc1ccccc1CCC(=O)[N-]Cc1ccc(OCc2cccc(Cl)c2)cc1 (optimized conformer: 42.845772312787254 kcal/mol)

>  <smiles>  (11) 
Cc1ccccc1CCC(=O)NCc1ccc(OCc2cccc(Cl)c2)cc1

>  <score_type>  (11) 
oracle

>  <origin>  (11) 
adg

>  <m_score__min__energy>  (11) 
-11.26

>  <m_primary>  (11) 
energy

$$$$
11:0
     RDKit          3D

 44 46  0  0  0  0  0  0  0  0999 V2000
   59.9030   34.2800   45.4080 C   0  0  0  0  0  0  0  0  0  0  0  0
   58.4190   33.9720   45.6310 C   0  0  0  0  0  0  0  0  0  0  0  0
   58.1090   33.8120   47.1230 C   0  0  0  0  0  0  0  0  0  0  0  0
   58.0200   32.7400   44.8680 C   0  0  0  0  0  0  0  0  0  0  0  0
   57.0320   31.8330   45.2140 C   0  0  0  0  0  0  0  0  0  0  0  0
   57.0940   30.8790   44.2150 C   0  0  0  0  0  0  0  0  0  0  0  0
   56.2680   29.6630   44.0840 C   0  0  0  0  0  0  0  0  0  0  0  0
   55.8410   29.3350   42.9460 O   0  0  0  0  0  0  0  0  0  0  0  0
   55.9000   28.8580   45.2130 N   0  0  0  0  0  0  0  0  0  0  0  0
   56.5680   27.6740   45.6710 C   0  0  0  0  0  0  0  0  0  0  0  0
   55.8180   26.4970   45.7890 C   0  0  0  0  0  0  0  0  0  0  0  0
   56.4060   25.3260   46.2730 C   0  0  0  0  0  0  0  0  0  0  0  0
   57.7540   25.3180   46.6290 C   0  0  0  0  0  0  0  0  0  0  0  0
   58.5240   26.4740   46.4830 C   0  0  0  0  0  0  0  0  0  0  0  0
   57.9470   27.6590   45.9930 C   0  0  0  0  0  0  0  0  0  0  0  0
   58.7830   28.8090   45.7630 N   0  0  0  0  0  0  0  0  0  0  0  0
   59.6820   28.8550   44.6090 C   0  0  0  0  0  0  0  0  0  0  0  0
   61.1250   28.9780   45.1130 C   0  0  0  0  0  0  0  0  0  0  0  0
   61.2600   30.0810   45.9920 O   0  0  0  0  0  0  0  0  0  0  0  0
   60.4750   29.8780   47.1540 C   0  0  0  0  0  0  0  0  0  0  0  0
   58.9860   29.8220   46.8000 C   0  0  0  0  0  0  0  0  0  0  0  0
   58.0500   31.2380   43.3370 N   0  0  0  0  0  0  0  0  0  0  0  0
   58.5890   32.3440   43.7530 O   0  0  0  0  0  0  0  0  0  0  0  0
   60.4060   34.3844   46.3807 H   0  0  0  0  0  0  0  0  0  0  0  0
   60.3668   33.4590   44.8416 H   0  0  0  0  0  0  0  0  0  0  0  0
   60.0018   35.2178   44.8416 H   0  0  0  0  0  0  0  0  0  0  0  0
   57.8304   34.8215   45.2544 H   0  0  0  0  0  0  0  0  0  0  0  0
   58.9322   34.2369   47.7162 H   0  0  0  0  0  0  0  0  0  0  0  0
   57.1742   34.3402   47.3620 H   0  0  0  0  0  0  0  0  0  0  0  0
   57.9981   32.7440   47.3620 H   0  0  0  0  0  0  0  0  0  0  0  0
   56.3559   31.8643   46.0811 H   0  0  0  0  0  0  0  0  0  0  0  0
   54.7572   26.4947   45.4981 H   0  0  0  0  0  0  0  0  0  0  0  0
   55.8054   24.4099   46.3733 H   0  0  0  0  0  0  0  0  0  0  0  0
   58.2118   24.3997   47.0255 H   0  0  0  0  0  0  0  0  0  0  0  0
   59.5901   26.4574   46.7534 H   0  0  0  0  0  0  0  0  0  0  0  0
   59.5736   27.9332   44.0187 H   0  0  0  0  0  0  0  0  0  0  0  0
   59.4324   29.7180   43.9743 H   0  0  0  0  0  0  0  0  0  0  0  0
   61.4002   28.0562   45.6465 H   0  0  0  0  0  0  0  0  0  0  0  0
   61.7876   29.1334   44.2488 H   0  0  0  0  0  0  0  0  0  0  0  0
   60.7693   28.9296   47.6272 H   0  0  0  0  0  0  0  0  0  0  0  0
   60.6425   30.7178   47.8444 H   0  0  0  0  0  0  0  0  0  0  0  0
   58.4035   29.5566   47.6946 H   0  0  0  0  0  0  0  0  0  0  0  0
   58.6532   30.8038   46.4322 H   0  0  0  0  0  0  0  0  0  0  0  0
   58.3370   30.7240   42.4740 H   0  0  0  0  0  0  0  0  0  0  0  0
  1  2  1  0
  2  3  1  0
  2  4  1  0
  4  5  2  0
  5  6  1  0
  6  7  1  0
  7  8  2  0
  7  9  1  0
  9 10  1  0
 10 11  2  0
 11 12  1  0
 12 13  2  0
 13 14  1  0
 14 15  2  0
 15 16  1  0
 16 17  1  0
 17 18  1  0
 18 19  1  0
 19 20  1  0
 20 21  1  0
  6 22  2  0
 22 23  1  0
 23  4  1  0
 15 10  1  0
 21 16  1  0
  1 24  1  0
  1 25  1  0
  1 26  1  0
  2 27  1  0
  3 28  1  0
  3 29  1  0
  3 30  1  0
  5 31  1  0
 11 32  1  0
 12 33  1  0
 13 34  1  0
 14 35  1  0
 17 36  1  0
 17 37  1  0
 18 38  1  0
 18 39  1  0
 20 40  1  0
 20 41  1  0
 21 42  1  0
 21 43  1  0
 22 44  1  0
M  CHG  2   9  -1  22   1
M  END
>  <UniqueID>  (12) 
12

>  <SMILES>  (12) 
CC(C)c1cc(C(=O)[N-]c2ccccc2N2CCOCC2)[nH+]o1

>  <Energy>  (12) 
81.31331501043297

>  <Genealogy>  (12) 
CC(C)c1cc(C(=O)[N-]c2ccccc2N2CCOCC2)[nH+]o1 (protonated)
CC(C)c1cc(C(=O)[N-]c2ccccc2N2CCOCC2)[nH+]o1 (3D coordinates assigned)
CC(C)c1cc(C(=O)[N-]c2ccccc2N2CCOCC2)[nH+]o1 (nonaromatic ring conformer: 81.31331501043297 kcal/mol)

>  <smiles>  (12) 
CC(C)c1cc(C(=O)Nc2ccccc2N2CCOCC2)no1

>  <score_type>  (12) 
oracle

>  <origin>  (12) 
adg

>  <m_score__min__energy>  (12) 
-7.7400000000000002

>  <m_primary>  (12) 
energy

$$$$
12:0
     RDKit          3D

 62 65  0  0  0  0  0  0  0  0999 V2000
   59.1467   30.8815   47.8463 H   0  0  0  0  0  0  0  0  0  0  0  0
   58.7540   30.0520   47.2400 C   0  0  0  0  0  0  0  0  0  0  0  0
   57.7570   30.2810   46.3440 N   0  0  0  0  0  0  0  0  0  0  0  0
   57.2400   29.2980   45.5570 C   0  0  0  0  0  0  0  0  0  0  0  0
   56.2830   29.6120   44.7280 N   0  0  0  0  0  0  0  0  0  0  0  0
   56.2610   30.6750   43.7190 C   0  0  0  0  0  0  0  0  0  0  0  0
   55.8167   30.2811   42.7930 H   0  0  0  0  0  0  0  0  0  0  0  0
   55.6656   31.5131   44.1102 H   0  0  0  0  0  0  0  0  0  0  0  0
   57.6750   31.1850   43.4170 C   0  0  0  0  0  0  0  0  0  0  0  0
   58.3544   30.8196   44.2011 H   0  0  0  0  0  0  0  0  0  0  0  0
   57.9556   30.8079   42.4225 H   0  0  0  0  0  0  0  0  0  0  0  0
   57.7620   32.7150   43.3690 C   0  0  0  0  0  0  0  0  0  0  0  0
   58.4931   33.0123   42.6028 H   0  0  0  0  0  0  0  0  0  0  0  0
   56.7695   33.1205   43.1232 H   0  0  0  0  0  0  0  0  0  0  0  0
   58.1940   33.2600   44.7040 C   0  0  0  0  0  0  0  0  0  0  0  0
   57.3820   33.0870   45.8370 C   0  0  0  0  0  0  0  0  0  0  0  0
   56.4371   32.5300   45.7539 H   0  0  0  0  0  0  0  0  0  0  0  0
   57.7700   33.6200   47.0700 C   0  0  0  0  0  0  0  0  0  0  0  0
   57.1345   33.4743   47.9560 H   0  0  0  0  0  0  0  0  0  0  0  0
   58.9650   34.3380   47.1780 C   0  0  0  0  0  0  0  0  0  0  0  0
   59.2707   34.7541   48.1493 H   0  0  0  0  0  0  0  0  0  0  0  0
   59.7710   34.5270   46.0520 C   0  0  0  0  0  0  0  0  0  0  0  0
   60.7090   35.0953   46.1371 H   0  0  0  0  0  0  0  0  0  0  0  0
   59.3870   33.9950   44.8180 C   0  0  0  0  0  0  0  0  0  0  0  0
   60.0206   34.1520   43.9326 H   0  0  0  0  0  0  0  0  0  0  0  0
   57.7570   27.9910   45.6740 C   0  0  0  0  0  0  0  0  0  0  0  0
   57.3558   27.1789   45.0498 H   0  0  0  0  0  0  0  0  0  0  0  0
   58.7810   27.7350   46.5870 C   0  0  0  0  0  0  0  0  0  0  0  0
   59.1960   26.7200   46.6733 H   0  0  0  0  0  0  0  0  0  0  0  0
   59.2830   28.7640   47.3940 C   0  0  0  0  0  0  0  0  0  0  0  0
   60.3770   28.5130   48.3560 C   0  0  0  0  0  0  0  0  0  0  0  0
   60.6730   27.3230   48.6530 O   0  0  0  0  0  0  0  0  0  0  0  0
   61.1150   29.5960   48.9560 N   0  0  0  0  0  0  0  0  0  0  0  0
   61.6780   29.4210   50.2980 C   0  0  0  0  0  0  0  0  0  0  0  0
   62.6725   28.9580   50.2161 H   0  0  0  0  0  0  0  0  0  0  0  0
   61.0074   28.7758   50.8846 H   0  0  0  0  0  0  0  0  0  0  0  0
   61.8080   30.7740   51.0040 C   0  0  0  0  0  0  0  0  0  0  0  0
   62.3928   30.6398   51.9260 H   0  0  0  0  0  0  0  0  0  0  0  0
   60.7957   31.1416   51.2280 H   0  0  0  0  0  0  0  0  0  0  0  0
   62.4800   31.7720   50.1540 N   0  0  0  0  0  0  0  0  0  0  0  0
   63.0360   32.9700   50.7380 C   0  0  0  0  0  0  0  0  0  0  0  0
   63.9570   33.5870   50.1340 O   0  0  0  0  0  0  0  0  0  0  0  0
   62.5910   33.4670   52.0910 C   0  0  0  0  0  0  0  0  0  0  0  0
   63.0114   32.8128   52.8690 H   0  0  0  0  0  0  0  0  0  0  0  0
   62.9482   34.4999   52.2160 H   0  0  0  0  0  0  0  0  0  0  0  0
   61.0890   33.4660   52.2080 C   0  0  0  0  0  0  0  0  0  0  0  0
   60.2840   33.5410   51.0590 C   0  0  0  0  0  0  0  0  0  0  0  0
   60.7518   33.6260   50.0671 H   0  0  0  0  0  0  0  0  0  0  0  0
   58.8910   33.5080   51.1710 C   0  0  0  0  0  0  0  0  0  0  0  0
   58.2659   33.5727   50.2682 H   0  0  0  0  0  0  0  0  0  0  0  0
   58.2910   33.3930   52.4280 C   0  0  0  0  0  0  0  0  0  0  0  0
   57.1946   33.3718   52.5146 H   0  0  0  0  0  0  0  0  0  0  0  0
   59.0850   33.3050   53.5750 C   0  0  0  0  0  0  0  0  0  0  0  0
   58.6124   33.2104   54.5638 H   0  0  0  0  0  0  0  0  0  0  0  0
   60.4790   33.3370   53.4680 C   0  0  0  0  0  0  0  0  0  0  0  0
   61.1002   33.2610   54.3726 H   0  0  0  0  0  0  0  0  0  0  0  0
   62.7270   31.4750   48.7360 C   0  0  0  0  0  0  0  0  0  0  0  0
   63.6248   30.8453   48.6496 H   0  0  0  0  0  0  0  0  0  0  0  0
   62.8729   32.4219   48.1955 H   0  0  0  0  0  0  0  0  0  0  0  0
   61.5330   30.7360   48.1240 C   0  0  0  0  0  0  0  0  0  0  0  0
   61.8154   30.3657   47.1275 H   0  0  0  0  0  0  0  0  0  0  0  0
   60.6905   31.4401   48.0581 H   0  0  0  0  0  0  0  0  0  0  0  0
  1  2  1  0
  2  3  1  0
  3  4  1  0
  4  5  2  0
  5  6  1  0
  6  7  1  0
  6  8  1  0
  6  9  1  0
  9 10  1  0
  9 11  1  0
  9 12  1  0
 12 13  1  0
 12 14  1  0
 12 15  1  0
 15 16  2  0
 16 17  1  0
 16 18  1  0
 18 19  1  0
 18 20  2  0
 20 21  1  0
 20 22  1  0
 22 23  1  0
 22 24  2  0
 24 25  1  0
  4 26  1  0
 26 27  1  0
 26 28  2  0
 28 29  1  0
 28 30  1  0
 30 31  1  0
 31 32  2  0
 31 33  1  0
 33 34  1  0
 34 35  1  0
 34 36  1  0
 34 37  1  0
 37 38  1  0
 37 39  1  0
 37 40  1  0
 40 41  1  0
 41 42  2  0
 41 43  1  0
 43 44  1  0
 43 45  1  0
 43 46  1  0
 46 47  2  0
 47 48  1  0
 47 49  1  0
 49 50  1  0
 49 51  2  0
 51 52  1  0
 51 53  1  0
 53 54  1  0
 53 55  2  0
 55 56  1  0
 40 57  1  0
 57 58  1  0
 57 59  1  0
 57 60  1  0
 60 61  1  0
 60 62  1  0
 30  2  2  0
 60 33  1  0
 24 15  1  0
 55 46  1  0
M  CHG  1   3  -1
M  END
>  <UniqueID>  (13) 
13

>  <SMILES>  (13) 
O=C(Cc1ccccc1)N1CCN(C(=O)c2cc/c(=N\CCCc3ccccc3)[n-]c2)CC1

>  <Energy>  (13) 
70.58171418274847

>  <Genealogy>  (13) 
O=C(Cc1ccccc1)N1CCN(C(=O)c2ccc(=NCCCc3ccccc3)[n-]c2)CC1 (protonated)
O=C(Cc1ccccc1)N1CCN(C(=O)c2cc/c(=N\CCCc3ccccc3)[n-]c2)CC1 (cis-trans isomerization)
O=C(Cc1ccccc1)N1CCN(C(=O)c2cc/c(=N\CCCc3ccccc3)[n-]c2)CC1 (3D coordinates assigned)
O=C(Cc1ccccc1)N1CCN(C(=O)c2cc/c(=N\CCCc3ccccc3)[n-]c2)CC1 (nonaromatic ring conformer: 70.58171418274847 kcal/mol)

>  <smiles>  (13) 
O=C(Cc1ccccc1)N1CCN(C(=O)c2ccc(=NCCCc3ccccc3)[nH]c2)CC1

>  <score_type>  (13) 
oracle

>  <origin>  (13) 
adg

>  <m_score__min__energy>  (13) 
-10.65

>  <m_primary>  (13) 
energy

$$$$
13:0
     RDKit          3D

 38 40  0  0  0  0  0  0  0  0999 V2000
   58.8210   33.7530   46.8810 C   0  0  0  0  0  0  0  0  0  0  0  0
   58.2230   34.0630   45.6270 O   0  0  0  0  0  0  0  0  0  0  0  0
   57.8890   33.1110   44.6520 C   0  0  0  0  0  0  0  0  0  0  0  0
   58.4920   33.0890   43.3790 C   0  0  0  0  0  0  0  0  0  0  0  0
   58.1280   32.1150   42.4470 C   0  0  0  0  0  0  0  0  0  0  0  0
   57.1650   31.1570   42.7690 C   0  0  0  0  0  0  0  0  0  0  0  0
   56.5510   31.1700   44.0310 C   0  0  0  0  0  0  0  0  0  0  0  0
   55.5490   30.1060   44.3890 C   0  0  0  0  0  0  0  0  0  0  0  0
   56.2380   28.8650   44.7350 N   0  0  0  0  0  0  0  0  0  0  0  0
   57.2710   28.8150   45.7290 C   0  0  0  0  0  0  0  0  0  0  0  0
   57.4870   29.8090   46.4740 O   0  0  0  0  0  0  0  0  0  0  0  0
   58.0620   27.5850   45.9110 C   0  0  0  0  0  0  0  0  0  0  0  0
   59.4540   27.7310   46.0070 C   0  0  0  0  0  0  0  0  0  0  0  0
   60.2850   26.6160   46.0880 C   0  0  0  0  0  0  0  0  0  0  0  0
   59.7430   25.3350   46.0710 C   0  0  0  0  0  0  0  0  0  0  0  0
   58.3510   25.1500   46.0000 C   0  0  0  0  0  0  0  0  0  0  0  0
   57.7970   23.8540   45.9990 C   0  0  0  0  0  0  0  0  0  0  0  0
   58.5360   22.8330   46.0320 O   0  0  0  0  0  0  0  0  0  0  0  0
   56.4520   23.6890   45.9640 N   0  0  0  0  0  0  0  0  0  0  0  0
   55.5980   24.7420   45.9410 C   0  0  0  0  0  0  0  0  0  0  0  0
   56.0840   26.0500   45.9450 C   0  0  0  0  0  0  0  0  0  0  0  0
   55.1600   27.0880   45.9830 O   0  0  0  0  0  0  0  0  0  0  0  0
   57.4850   26.2810   45.9400 C   0  0  0  0  0  0  0  0  0  0  0  0
   56.9220   32.1480   44.9680 C   0  0  0  0  0  0  0  0  0  0  0  0
   58.1639   34.0936   47.6948 H   0  0  0  0  0  0  0  0  0  0  0  0
   58.9672   32.6655   46.9586 H   0  0  0  0  0  0  0  0  0  0  0  0
   59.7940   34.2603   46.9586 H   0  0  0  0  0  0  0  0  0  0  0  0
   59.2514   33.8409   43.1186 H   0  0  0  0  0  0  0  0  0  0  0  0
   58.6022   32.1025   41.4545 H   0  0  0  0  0  0  0  0  0  0  0  0
   56.8866   30.3898   42.0315 H   0  0  0  0  0  0  0  0  0  0  0  0
   54.9519   30.4429   45.2492 H   0  0  0  0  0  0  0  0  0  0  0  0
   54.8917   29.9248   43.5258 H   0  0  0  0  0  0  0  0  0  0  0  0
   56.0140   28.0030   44.1900 H   0  0  0  0  0  0  0  0  0  0  0  0
   59.8948   28.7388   46.0185 H   0  0  0  0  0  0  0  0  0  0  0  0
   61.3742   26.7490   46.1657 H   0  0  0  0  0  0  0  0  0  0  0  0
   60.4085   24.4601   46.1134 H   0  0  0  0  0  0  0  0  0  0  0  0
   54.5128   24.5636   45.9190 H   0  0  0  0  0  0  0  0  0  0  0  0
   56.4482   32.1580   45.9607 H   0  0  0  0  0  0  0  0  0  0  0  0
  1  2  1  0
  2  3  1  0
  3  4  2  0
  4  5  1  0
  5  6  2  0
  6  7  1  0
  7  8  1  0
  8  9  1  0
  9 10  1  0
 10 11  2  0
 10 12  1  0
 12 13  2  0
 13 14  1  0
 14 15  2  0
 15 16  1  0
 16 17  1  0
 17 18  2  0
 17 19  1  0
 19 20  1  0
 20 21  2  0
 21 22  1  0
 21 23  1  0
  7 24  2  0
 24  3  1  0
 23 12  1  0
 23 16  2  0
  1 25  1  0
  1 26  1  0
  1 27  1  0
  4 28  1  0
  5 29  1  0
  6 30  1  0
  8 31  1  0
  8 32  1  0
  9 33  1  0
 13 34  1  0
 14 35  1  0
 15 36  1  0
 20 37  1  0
 24 38  1  0
M  CHG  2  19  -1  22  -1
M  END
>  <UniqueID>  (14) 
14

>  <SMILES>  (14) 
COc1cccc(CNC(=O)c2cccc3c(=O)[n-]cc([O-])c23)c1

>  <Energy>  (14) 
53.27745610084434

>  <Genealogy>  (14) 
COc1cccc(CNC(=O)c2cccc3c(=O)[n-]cc([O-])c23)c1 (protonated)
COc1cccc(CNC(=O)c2cccc3c(=O)[n-]cc([O-])c23)c1 (3D coordinates assigned)
COc1cccc(CNC(=O)c2cccc3c(=O)[n-]cc([O-])c23)c1 (optimized conformer: 53.27745610084434 kcal/mol)

>  <smiles>  (14) 
COc1cccc(CNC(=O)c2cccc3c(=O)[nH]cc(O)c23)c1

>  <score_type>  (14) 
oracle

>  <origin>  (14) 
adg

>  <m_score__min__energy>  (14) 
-12.5

>  <m_primary>  (14) 
energy

$$$$
14:0
     RDKit          3D

 66 69  0  0  0  0  0  0  0  0999 V2000
   58.9720   32.0020   49.7220 N   0  0  0  0  0  0  0  0  0  0  0  0
   59.3360   33.2320   48.5650 S   0  0  0  0  0  0  0  0  0  0  0  0
   58.3040   33.2050   47.4720 O   0  0  0  0  0  0  0  0  0  0  0  0
   59.2860   34.5620   49.2640 O   0  0  0  0  0  0  0  0  0  0  0  0
   60.9330   32.9260   47.8620 C   0  0  0  0  0  0  0  0  0  0  0  0
   61.7430   34.0340   47.5670 C   0  0  0  0  0  0  0  0  0  0  0  0
   63.0230   33.8620   47.0360 C   0  0  0  0  0  0  0  0  0  0  0  0
   63.5160   32.5790   46.8060 C   0  0  0  0  0  0  0  0  0  0  0  0
   62.7300   31.4650   47.1010 C   0  0  0  0  0  0  0  0  0  0  0  0
   61.4340   31.6220   47.6190 C   0  0  0  0  0  0  0  0  0  0  0  0
   60.6490   30.4060   47.9230 C   0  0  0  0  0  0  0  0  0  0  0  0
   61.0790   29.5750   48.9710 C   0  0  0  0  0  0  0  0  0  0  0  0
   60.3520   28.4270   49.3160 C   0  0  0  0  0  0  0  0  0  0  0  0
   60.7670   27.5670   50.4390 C   0  0  0  0  0  0  0  0  0  0  0  0
   60.8810   26.3270   50.2330 O   0  0  0  0  0  0  0  0  0  0  0  0
   60.9320   28.0920   51.7750 N   0  0  0  0  0  0  0  0  0  0  0  0
   60.6620   27.2350   52.9390 C   0  0  0  0  0  0  0  0  0  0  0  0
   59.6580   27.9040   53.9010 C   0  0  0  0  0  0  0  0  0  0  0  0
   59.8080   29.4510   53.9870 C   0  0  0  0  0  0  0  0  0  0  0  0
   58.6720   30.2220   53.3180 C   0  0  0  0  0  0  0  0  0  0  0  0
   57.5980   29.5690   52.6770 C   0  0  0  0  0  0  0  0  0  0  0  0
   56.6270   30.3030   51.9940 C   0  0  0  0  0  0  0  0  0  0  0  0
   56.7130   31.6930   51.9310 C   0  0  0  0  0  0  0  0  0  0  0  0
   57.7810   32.3620   52.5430 C   0  0  0  0  0  0  0  0  0  0  0  0
   57.8590   33.8640   52.4960 C   0  0  0  0  0  0  0  0  0  0  0  0
   59.0940   34.2760   51.8390 N   0  0  0  0  0  0  0  0  0  0  0  0
   58.7520   31.6240   53.2390 C   0  0  0  0  0  0  0  0  0  0  0  0
   61.1700   29.9210   53.4460 C   0  0  0  0  0  0  0  0  0  0  0  0
   61.3610   29.4840   51.9890 C   0  0  0  0  0  0  0  0  0  0  0  0
   59.2130   28.0870   48.5810 C   0  0  0  0  0  0  0  0  0  0  0  0
   58.7860   28.8930   47.5260 C   0  0  0  0  0  0  0  0  0  0  0  0
   59.4960   30.0540   47.1760 C   0  0  0  0  0  0  0  0  0  0  0  0
   58.9790   30.9040   46.0320 C   0  0  0  0  0  0  0  0  0  0  0  0
   58.3670   30.0620   44.9030 C   0  0  0  0  0  0  0  0  0  0  0  0
   56.8710   30.1530   44.8710 C   0  0  0  0  0  0  0  0  0  0  0  0
   56.3050   31.2380   44.5720 O   0  0  0  0  0  0  0  0  0  0  0  0
   56.1000   29.0460   45.2010 O   0  0  0  0  0  0  0  0  0  0  0  0
   59.0860   32.4290   50.6690 H   0  0  0  0  0  0  0  0  0  0  0  0
   61.3650   35.0495   47.7563 H   0  0  0  0  0  0  0  0  0  0  0  0
   63.6424   34.7396   46.7992 H   0  0  0  0  0  0  0  0  0  0  0  0
   64.5260   32.4446   46.3914 H   0  0  0  0  0  0  0  0  0  0  0  0
   63.1287   30.4548   46.9264 H   0  0  0  0  0  0  0  0  0  0  0  0
   61.9946   29.8274   49.5260 H   0  0  0  0  0  0  0  0  0  0  0  0
   60.2440   26.2787   52.5917 H   0  0  0  0  0  0  0  0  0  0  0  0
   61.6065   27.0711   53.4786 H   0  0  0  0  0  0  0  0  0  0  0  0
   58.6395   27.6727   53.5557 H   0  0  0  0  0  0  0  0  0  0  0  0
   59.8617   27.5054   54.9058 H   0  0  0  0  0  0  0  0  0  0  0  0
   59.7511   29.6843   55.0605 H   0  0  0  0  0  0  0  0  0  0  0  0
   57.5253   28.4721   52.7159 H   0  0  0  0  0  0  0  0  0  0  0  0
   55.7909   29.7828   51.5037 H   0  0  0  0  0  0  0  0  0  0  0  0
   55.9397   32.2665   51.3989 H   0  0  0  0  0  0  0  0  0  0  0  0
   56.9985   34.2566   51.9344 H   0  0  0  0  0  0  0  0  0  0  0  0
   57.8449   34.2599   53.5222 H   0  0  0  0  0  0  0  0  0  0  0  0
   58.8910   35.1480   51.2990 H   0  0  0  0  0  0  0  0  0  0  0  0
   59.3500   33.5450   51.1370 H   0  0  0  0  0  0  0  0  0  0  0  0
   59.5856   32.1489   53.7285 H   0  0  0  0  0  0  0  0  0  0  0  0
   61.2205   31.0184   53.5023 H   0  0  0  0  0  0  0  0  0  0  0  0
   61.9654   29.4677   54.0557 H   0  0  0  0  0  0  0  0  0  0  0  0
   60.7675   30.1435   51.3387 H   0  0  0  0  0  0  0  0  0  0  0  0
   62.4324   29.5523   51.7492 H   0  0  0  0  0  0  0  0  0  0  0  0
   58.6495   27.1775   48.8363 H   0  0  0  0  0  0  0  0  0  0  0  0
   57.8832   28.6168   46.9615 H   0  0  0  0  0  0  0  0  0  0  0  0
   58.2088   31.5868   46.4200 H   0  0  0  0  0  0  0  0  0  0  0  0
   59.8337   31.4547   45.6123 H   0  0  0  0  0  0  0  0  0  0  0  0
   58.7636   30.4188   43.9410 H   0  0  0  0  0  0  0  0  0  0  0  0
   58.6360   29.0109   45.0839 H   0  0  0  0  0  0  0  0  0  0  0  0
  1  2  1  0
  2  3  2  0
  2  4  2  0
  2  5  1  0
  5  6  2  0
  6  7  1  0
  7  8  2  0
  8  9  1  0
  9 10  2  0
 10 11  1  0
 11 12  2  0
 12 13  1  0
 13 14  1  0
 14 15  2  0
 14 16  1  0
 16 17  1  0
 17 18  1  0
 18 19  1  0
 19 20  1  0
 20 21  2  0
 21 22  1  0
 22 23  2  0
 23 24  1  0
 24 25  1  0
 25 26  1  0
 24 27  2  0
 19 28  1  0
 28 29  1  0
 13 30  2  0
 30 31  1  0
 31 32  2  0
 32 33  1  0
 33 34  1  0
 34 35  1  0
 35 36  2  0
 35 37  1  0
 10  5  1  0
 32 11  1  0
 29 16  1  0
 27 20  1  0
  1 38  1  0
  6 39  1  0
  7 40  1  0
  8 41  1  0
  9 42  1  0
 12 43  1  0
 17 44  1  0
 17 45  1  0
 18 46  1  0
 18 47  1  0
 19 48  1  0
 21 49  1  0
 22 50  1  0
 23 51  1  0
 25 52  1  0
 25 53  1  0
 26 54  1  0
 26 55  1  0
 27 56  1  0
 28 57  1  0
 28 58  1  0
 29 59  1  0
 29 60  1  0
 30 61  1  0
 31 62  1  0
 33 63  1  0
 33 64  1  0
 34 65  1  0
 34 66  1  0
M  CHG  2   1  -1  37  -1
M  END
>  <UniqueID>  (15) 
15

>  <SMILES>  (15) 
[NH-]S(=O)(=O)c1ccccc1-c1cc(C(=O)N2CCC(c3cccc(CN)c3)CC2)ccc1CCC(=O)[O-]

>  <Energy>  (15) 
82.03591657741131

>  <Genealogy>  (15) 
[NH-]S(=O)(=O)c1ccccc1-c1cc(C(=O)N2CCC(c3cccc(CN)c3)CC2)ccc1CCC(=O)[O-] (protonated)
[NH-]S(=O)(=O)c1ccccc1-c1cc(C(=O)N2CCC(c3cccc(CN)c3)CC2)ccc1CCC(=O)[O-] (3D coordinates assigned)
[NH-]S(=O)(=O)c1ccccc1-c1cc(C(=O)N2CCC(c3cccc(CN)c3)CC2)ccc1CCC(=O)[O-] (nonaromatic ring conformer: 82.03591657741131 kcal/mol)

>  <smiles>  (15) 
NCc1cccc(C2CCN(C(=O)c3ccc(CCC(=O)O)c(-c4ccccc4S(N)(=O)=O)c3)CC2)c1

>  <score_type>  (15) 
oracle

>  <origin>  (15) 
adg

>  <m_score__min__energy>  (15) 
-11.49

>  <m_primary>  (15) 
energy

$$$$
15:0
     RDKit          3D

 53 55  0  0  0  0  0  0  0  0999 V2000
   56.5500   29.4880   42.6270 C   0  0  0  0  0  0  0  0  0  0  0  0
   57.3980   30.6460   42.9490 N   0  0  0  0  0  0  0  0  0  0  0  0
   57.3200   31.6610   41.8860 C   0  0  0  0  0  0  0  0  0  0  0  0
   56.9940   31.2180   44.2170 C   0  0  0  0  0  0  0  0  0  0  0  0
   55.9840   30.7570   44.8200 O   0  0  0  0  0  0  0  0  0  0  0  0
   57.7500   32.3330   44.8320 C   0  0  0  0  0  0  0  0  0  0  0  0
   58.1490   33.4660   44.1210 C   0  0  0  0  0  0  0  0  0  0  0  0
   58.9740   34.4770   45.1810 S   0  0  0  0  0  0  0  0  0  0  0  0
   58.8020   33.4340   46.4880 C   0  0  0  0  0  0  0  0  0  0  0  0
   59.2820   33.7230   47.8780 C   0  0  0  0  0  0  0  0  0  0  0  0
   58.9540   32.5780   48.8450 C   0  0  0  0  0  0  0  0  0  0  0  0
   60.1750   31.7990   49.1630 N   0  0  0  0  0  0  0  0  0  0  0  0
   59.9090   30.3600   49.3680 C   0  0  0  0  0  0  0  0  0  0  0  0
   59.5590   29.6210   48.0570 C   0  0  0  0  0  0  0  0  0  0  0  0
   60.1420   30.3080   46.7990 C   0  0  0  0  0  0  0  0  0  0  0  0
   60.3130   29.3110   45.6320 C   0  0  0  0  0  0  0  0  0  0  0  0
   59.3540   28.1520   45.7460 C   0  0  0  0  0  0  0  0  0  0  0  0
   57.9900   28.3340   45.4630 C   0  0  0  0  0  0  0  0  0  0  0  0
   57.0920   27.2700   45.6060 C   0  0  0  0  0  0  0  0  0  0  0  0
   57.5490   26.0210   46.0360 C   0  0  0  0  0  0  0  0  0  0  0  0
   58.9040   25.8340   46.3230 C   0  0  0  0  0  0  0  0  0  0  0  0
   59.8050   26.8950   46.1820 C   0  0  0  0  0  0  0  0  0  0  0  0
   61.4800   30.9800   47.1390 C   0  0  0  0  0  0  0  0  0  0  0  0
   61.3180   32.0460   48.2460 C   0  0  0  0  0  0  0  0  0  0  0  0
   58.1050   32.3280   46.1450 N   0  0  0  0  0  0  0  0  0  0  0  0
   56.2045   29.0162   43.5587 H   0  0  0  0  0  0  0  0  0  0  0  0
   55.6811   29.8216   42.0408 H   0  0  0  0  0  0  0  0  0  0  0  0
   57.1303   28.7603   42.0408 H   0  0  0  0  0  0  0  0  0  0  0  0
   58.3900   30.3140   42.9950 H   0  0  0  0  0  0  0  0  0  0  0  0
   57.2432   32.6607   42.3385 H   0  0  0  0  0  0  0  0  0  0  0  0
   58.2248   31.6093   41.2625 H   0  0  0  0  0  0  0  0  0  0  0  0
   56.4338   31.4716   41.2625 H   0  0  0  0  0  0  0  0  0  0  0  0
   57.9575   33.6625   43.0558 H   0  0  0  0  0  0  0  0  0  0  0  0
   60.3722   33.8681   47.8550 H   0  0  0  0  0  0  0  0  0  0  0  0
   58.7694   34.6285   48.2348 H   0  0  0  0  0  0  0  0  0  0  0  0
   58.5398   32.9966   49.7741 H   0  0  0  0  0  0  0  0  0  0  0  0
   58.2207   31.9103   48.3691 H   0  0  0  0  0  0  0  0  0  0  0  0
   60.8059   29.8958   49.8040 H   0  0  0  0  0  0  0  0  0  0  0  0
   59.0393   30.2768   50.0364 H   0  0  0  0  0  0  0  0  0  0  0  0
   59.9589   28.5979   48.1143 H   0  0  0  0  0  0  0  0  0  0  0  0
   58.4635   29.6299   47.9578 H   0  0  0  0  0  0  0  0  0  0  0  0
   59.4277   31.0771   46.4701 H   0  0  0  0  0  0  0  0  0  0  0  0
   60.1268   29.8363   44.6836 H   0  0  0  0  0  0  0  0  0  0  0  0
   61.3382   28.9137   45.6666 H   0  0  0  0  0  0  0  0  0  0  0  0
   57.6264   29.3165   45.1277 H   0  0  0  0  0  0  0  0  0  0  0  0
   56.0256   27.4168   45.3798 H   0  0  0  0  0  0  0  0  0  0  0  0
   56.8424   25.1855   46.1485 H   0  0  0  0  0  0  0  0  0  0  0  0
   59.2628   24.8505   46.6605 H   0  0  0  0  0  0  0  0  0  0  0  0
   60.8698   26.7445   46.4132 H   0  0  0  0  0  0  0  0  0  0  0  0
   62.1874   30.2117   47.4845 H   0  0  0  0  0  0  0  0  0  0  0  0
   61.8532   31.4799   46.2330 H   0  0  0  0  0  0  0  0  0  0  0  0
   62.2416   32.0672   48.8430 H   0  0  0  0  0  0  0  0  0  0  0  0
   61.1177   33.0017   47.7395 H   0  0  0  0  0  0  0  0  0  0  0  0
  1  2  1  0
  2  3  1  0
  2  4  1  0
  4  5  2  0
  4  6  1  0
  6  7  2  0
  7  8  1  0
  8  9  1  0
  9 10  1  0
 10 11  1  0
 11 12  1  0
 12 13  1  0
 13 14  1  0
 14 15  1  0
 15 16  1  0
 16 17  1  0
 17 18  2  0
 18 19  1  0
 19 20  2  0
 20 21  1  0
 21 22  2  0
 15 23  1  0
 23 24  1  0
  9 25  2  0
 25  6  1  0
 24 12  1  0
 22 17  1  0
  1 26  1  0
  1 27  1  0
  1 28  1  0
  2 29  1  0
  3 30  1  0
  3 31  1  0
  3 32  1  0
  7 33  1  0
 10 34  1  0
 10 35  1  0
 11 36  1  0
 11 37  1  0
 13 38  1  0
 13 39  1  0
 14 40  1  0
 14 41  1  0
 15 42  1  0
 16 43  1  0
 16 44  1  0
 18 45  1  0
 19 46  1  0
 20 47  1  0
 21 48  1  0
 22 49  1  0
 23 50  1  0
 23 51  1  0
 24 52  1  0
 24 53  1  0
M  CHG  1   2   1
M  END
>  <UniqueID>  (16) 
16

>  <SMILES>  (16) 
C[NH+](C)C(=O)c1csc(CCN2CCC(Cc3ccccc3)CC2)n1

>  <Energy>  (16) 
88.93224674180445

>  <Genealogy>  (16) 
C[NH+](C)C(=O)c1csc(CCN2CCC(Cc3ccccc3)CC2)n1 (protonated)
C[NH+](C)C(=O)c1csc(CCN2CCC(Cc3ccccc3)CC2)n1 (3D coordinates assigned)
C[NH+](C)C(=O)c1csc(CCN2CCC(Cc3ccccc3)CC2)n1 (nonaromatic ring conformer: 88.93224674180445 kcal/mol)

>  <smiles>  (16) 
CN(C)C(=O)c1csc(CCN2CCC(Cc3ccccc3)CC2)n1

>  <score_type>  (16) 
oracle

>  <origin>  (16) 
adg

>  <m_score__min__energy>  (16) 
-7.71

>  <m_primary>  (16) 
energy

$$$$
16:0
     RDKit          3D

 42 44  0  0  0  0  0  0  0  0999 V2000
   60.2780   25.7890   46.6580 O   0  0  0  0  0  0  0  0  0  0  0  0
   59.9670   26.9920   46.8710 C   0  0  0  0  0  0  0  0  0  0  0  0
   60.8020   27.8030   47.7020 N   0  0  0  0  0  0  0  0  0  0  0  0
   60.8190   27.7000   49.1540 C   0  0  0  0  0  0  0  0  0  0  0  0
   60.4350   29.0390   49.7840 C   0  0  0  0  0  0  0  0  0  0  0  0
   61.1650   30.1820   49.1270 C   0  0  0  0  0  0  0  0  0  0  0  0
   60.7000   30.7130   47.9130 C   0  0  0  0  0  0  0  0  0  0  0  0
   61.3540   31.7990   47.3220 C   0  0  0  0  0  0  0  0  0  0  0  0
   62.4720   32.3670   47.9430 C   0  0  0  0  0  0  0  0  0  0  0  0
   63.2880   33.7320   47.2030 Cl  0  0  0  0  0  0  0  0  0  0  0  0
   62.9330   31.8500   49.1580 C   0  0  0  0  0  0  0  0  0  0  0  0
   62.2820   30.7640   49.7500 C   0  0  0  0  0  0  0  0  0  0  0  0
   58.7270   27.5670   46.2880 C   0  0  0  0  0  0  0  0  0  0  0  0
   58.7550   28.8970   45.8330 C   0  0  0  0  0  0  0  0  0  0  0  0
   57.6050   29.5060   45.3290 C   0  0  0  0  0  0  0  0  0  0  0  0
   57.6600   30.8260   44.8980 O   0  0  0  0  0  0  0  0  0  0  0  0
   56.4040   28.7970   45.2620 C   0  0  0  0  0  0  0  0  0  0  0  0
   55.2680   29.4310   44.7580 O   0  0  0  0  0  0  0  0  0  0  0  0
   56.3560   27.4620   45.6910 C   0  0  0  0  0  0  0  0  0  0  0  0
   55.1620   26.7520   45.5940 O   0  0  0  0  0  0  0  0  0  0  0  0
   57.5120   26.8340   46.2020 C   0  0  0  0  0  0  0  0  0  0  0  0
   57.4400   25.4010   46.5710 C   0  0  0  0  0  0  0  0  0  0  0  0
   57.7660   24.4100   45.6320 C   0  0  0  0  0  0  0  0  0  0  0  0
   57.7010   23.0580   45.9850 C   0  0  0  0  0  0  0  0  0  0  0  0
   57.3160   22.6890   47.2770 C   0  0  0  0  0  0  0  0  0  0  0  0
   57.2520   21.3460   47.6260 O   0  0  0  0  0  0  0  0  0  0  0  0
   56.9940   23.6720   48.2190 C   0  0  0  0  0  0  0  0  0  0  0  0
   57.0580   25.0240   47.8700 C   0  0  0  0  0  0  0  0  0  0  0  0
   60.1008   26.9299   49.4719 H   0  0  0  0  0  0  0  0  0  0  0  0
   61.8328   27.4271   49.4821 H   0  0  0  0  0  0  0  0  0  0  0  0
   59.3518   29.1919   49.6686 H   0  0  0  0  0  0  0  0  0  0  0  0
   60.7132   29.0149   50.8480 H   0  0  0  0  0  0  0  0  0  0  0  0
   59.8179   30.2731   47.4248 H   0  0  0  0  0  0  0  0  0  0  0  0
   60.9891   32.2071   46.3679 H   0  0  0  0  0  0  0  0  0  0  0  0
   63.8093   32.2988   49.6485 H   0  0  0  0  0  0  0  0  0  0  0  0
   62.6456   30.3632   50.7077 H   0  0  0  0  0  0  0  0  0  0  0  0
   59.6960   29.4651   45.8749 H   0  0  0  0  0  0  0  0  0  0  0  0
   54.3730   28.9620   44.6930 H   0  0  0  0  0  0  0  0  0  0  0  0
   58.0735   24.6973   44.6157 H   0  0  0  0  0  0  0  0  0  0  0  0
   57.9532   22.2843   45.2449 H   0  0  0  0  0  0  0  0  0  0  0  0
   56.6902   23.3806   49.2353 H   0  0  0  0  0  0  0  0  0  0  0  0
   56.8087   25.7950   48.6140 H   0  0  0  0  0  0  0  0  0  0  0  0
  1  2  2  0
  2  3  1  0
  3  4  1  0
  4  5  1  0
  5  6  1  0
  6  7  2  0
  7  8  1  0
  8  9  2  0
  9 10  1  0
  9 11  1  0
 11 12  2  0
  2 13  1  0
 13 14  2  0
 14 15  1  0
 15 16  1  0
 15 17  2  0
 17 18  1  0
 17 19  1  0
 19 20  1  0
 19 21  2  0
 21 22  1  0
 22 23  2  0
 23 24  1  0
 24 25  2  0
 25 26  1  0
 25 27  1  0
 27 28  2  0
 12  6  1  0
 21 13  1  0
 28 22  1  0
  4 29  1  0
  4 30  1  0
  5 31  1  0
  5 32  1  0
  7 33  1  0
  8 34  1  0
 11 35  1  0
 12 36  1  0
 14 37  1  0
 18 38  1  0
 23 39  1  0
 24 40  1  0
 27 41  1  0
 28 42  1  0
M  CHG  4   3  -1  16  -1  20  -1  26  -1
M  END
>  <UniqueID>  (17) 
17

>  <SMILES>  (17) 
O=C([N-]CCc1ccc(Cl)cc1)c1cc([O-])c(O)c([O-])c1-c1ccc([O-])cc1

>  <Energy>  (17) 
51.983086638291226

>  <Genealogy>  (17) 
O=C([N-]CCc1ccc(Cl)cc1)c1cc([O-])c(O)c([O-])c1-c1ccc([O-])cc1 (protonated)
O=C([N-]CCc1ccc(Cl)cc1)c1cc([O-])c(O)c([O-])c1-c1ccc([O-])cc1 (3D coordinates assigned)
O=C([N-]CCc1ccc(Cl)cc1)c1cc([O-])c(O)c([O-])c1-c1ccc([O-])cc1 (optimized conformer: 51.983086638291226 kcal/mol)

>  <smiles>  (17) 
O=C(NCCc1ccc(Cl)cc1)c1cc(O)c(O)c(O)c1-c1ccc(O)cc1

>  <score_type>  (17) 
oracle

>  <origin>  (17) 
adg

>  <m_score__min__energy>  (17) 
-14.970000000000001

>  <m_primary>  (17) 
energy

$$$$
17:0
     RDKit          3D

 58 61  0  0  0  0  0  0  0  0999 V2000
   57.8703   31.4451   52.0985 H   0  0  0  0  0  0  0  0  0  0  0  0
   56.8920   31.6030   51.6210 C   0  0  0  0  0  0  0  0  0  0  0  0
   56.8167   32.2169   50.7114 H   0  0  0  0  0  0  0  0  0  0  0  0
   55.7970   31.0500   52.1450 C   0  0  0  0  0  0  0  0  0  0  0  0
   55.7530   30.2300   53.2600 C   0  0  0  0  0  0  0  0  0  0  0  0
   56.9110   29.8020   54.0740 C   0  0  0  0  0  0  0  0  0  0  0  0
   56.6770   29.1350   55.1190 O   0  0  0  0  0  0  0  0  0  0  0  0
   58.2780   30.1760   53.7620 N   0  0  0  0  0  0  0  0  0  0  0  0
   58.2830   31.2150   53.6270 H   0  0  0  0  0  0  0  0  0  0  0  0
   58.7780   29.5580   52.5120 C   0  0  0  0  0  0  0  0  0  0  0  0
   58.7437   28.4631   52.6121 H   0  0  0  0  0  0  0  0  0  0  0  0
   58.1414   29.8861   51.6771 H   0  0  0  0  0  0  0  0  0  0  0  0
   60.2210   29.9920   52.2300 C   0  0  0  0  0  0  0  0  0  0  0  0
   60.5805   29.4951   51.3169 H   0  0  0  0  0  0  0  0  0  0  0  0
   60.2533   31.0831   52.0938 H   0  0  0  0  0  0  0  0  0  0  0  0
   61.0830   29.6160   53.3640 N   0  0  0  0  0  0  0  0  0  0  0  0
   62.4900   29.9610   53.0770 C   0  0  0  0  0  0  0  0  0  0  0  0
   62.7081   30.9601   53.4821 H   0  0  0  0  0  0  0  0  0  0  0  0
   63.1442   29.2117   53.5467 H   0  0  0  0  0  0  0  0  0  0  0  0
   62.7370   29.9630   51.5930 C   0  0  0  0  0  0  0  0  0  0  0  0
   62.5190   28.9070   50.9410 O   0  0  0  0  0  0  0  0  0  0  0  0
   63.2070   31.1450   50.9110 N   0  0  0  0  0  0  0  0  0  0  0  0
   63.0090   31.2680   49.4620 C   0  0  0  0  0  0  0  0  0  0  0  0
   63.8547   30.8005   48.9364 H   0  0  0  0  0  0  0  0  0  0  0  0
   62.0734   30.7639   49.1782 H   0  0  0  0  0  0  0  0  0  0  0  0
   62.9250   32.7480   49.0760 C   0  0  0  0  0  0  0  0  0  0  0  0
   62.9026   32.8333   47.9795 H   0  0  0  0  0  0  0  0  0  0  0  0
   62.0100   33.1735   49.5138 H   0  0  0  0  0  0  0  0  0  0  0  0
   64.0380   33.4640   49.5730 O   0  0  0  0  0  0  0  0  0  0  0  0
   64.0080   33.4620   50.9900 C   0  0  0  0  0  0  0  0  0  0  0  0
   64.8221   34.0977   51.3685 H   0  0  0  0  0  0  0  0  0  0  0  0
   63.0331   33.8487   51.3217 H   0  0  0  0  0  0  0  0  0  0  0  0
   64.1840   32.0420   51.5380 C   0  0  0  0  0  0  0  0  0  0  0  0
   65.2013   31.6876   51.3152 H   0  0  0  0  0  0  0  0  0  0  0  0
   64.0253   32.0495   52.6265 H   0  0  0  0  0  0  0  0  0  0  0  0
   60.6070   30.2790   54.5960 C   0  0  0  0  0  0  0  0  0  0  0  0
   61.2549   29.9933   55.4378 H   0  0  0  0  0  0  0  0  0  0  0  0
   60.6389   31.3696   54.4562 H   0  0  0  0  0  0  0  0  0  0  0  0
   59.1660   29.8500   54.8950 C   0  0  0  0  0  0  0  0  0  0  0  0
   59.1419   28.7646   55.0718 H   0  0  0  0  0  0  0  0  0  0  0  0
   58.8143   30.3902   55.7863 H   0  0  0  0  0  0  0  0  0  0  0  0
   54.4230   29.8750   53.4350 C   0  0  0  0  0  0  0  0  0  0  0  0
   53.8840   28.9750   54.5100 C   0  0  0  0  0  0  0  0  0  0  0  0
   54.1338   29.3921   55.4967 H   0  0  0  0  0  0  0  0  0  0  0  0
   52.7912   28.8984   54.4103 H   0  0  0  0  0  0  0  0  0  0  0  0
   54.3323   27.9754   54.4103 H   0  0  0  0  0  0  0  0  0  0  0  0
   53.7160   30.4760   52.3940 C   0  0  0  0  0  0  0  0  0  0  0  0
   52.3980   30.3220   52.1590 C   0  0  0  0  0  0  0  0  0  0  0  0
   51.7935   29.8439   52.9439 H   0  0  0  0  0  0  0  0  0  0  0  0
   51.7050   30.7470   50.9270 C   0  0  0  0  0  0  0  0  0  0  0  0
   51.6220   30.0330   49.7890 N   0  0  0  0  0  0  0  0  0  0  0  0
   50.9550   30.8540   48.9510 C   0  0  0  0  0  0  0  0  0  0  0  0
   50.6810   30.5330   47.7630 O   0  0  0  0  0  0  0  0  0  0  0  0
   50.6200   32.0530   49.4790 N   0  0  0  0  0  0  0  0  0  0  0  0
   51.1110   31.9700   50.7250 C   0  0  0  0  0  0  0  0  0  0  0  0
   51.0140   32.9940   51.6620 O   0  0  0  0  0  0  0  0  0  0  0  0
   54.5640   31.1960   51.6200 N   0  0  0  0  0  0  0  0  0  0  0  0
   54.3490   31.7190   50.7430 H   0  0  0  0  0  0  0  0  0  0  0  0
  1  2  1  0
  2  3  1  0
  2  4  2  0
  4  5  1  0
  5  6  1  0
  6  7  2  0
  6  8  1  0
  8  9  1  0
  8 10  1  0
 10 11  1  0
 10 12  1  0
 10 13  1  0
 13 14  1  0
 13 15  1  0
 13 16  1  0
 16 17  1  0
 17 18  1  0
 17 19  1  0
 17 20  1  0
 20 21  2  0
 20 22  1  0
 22 23  1  0
 23 24  1  0
 23 25  1  0
 23 26  1  0
 26 27  1  0
 26 28  1  0
 26 29  1  0
 29 30  1  0
 30 31  1  0
 30 32  1  0
 30 33  1  0
 33 34  1  0
 33 35  1  0
 16 36  1  0
 36 37  1  0
 36 38  1  0
 36 39  1  0
 39 40  1  0
 39 41  1  0
  5 42  2  0
 42 43  1  0
 43 44  1  0
 43 45  1  0
 43 46  1  0
 42 47  1  0
 47 48  2  0
 48 49  1  0
 48 50  1  0
 50 51  1  0
 51 52  1  0
 52 53  2  0
 52 54  1  0
 54 55  1  0
 55 56  1  0
 47 57  1  0
 57 58  1  0
 57  4  1  0
 39  8  1  0
 55 50  2  0
 33 22  1  0
M  CHG  4   8   1  51  -1  54  -1  56  -1
M  END
>  <UniqueID>  (18) 
18

>  <SMILES>  (18) 
C=c1[nH]/c(=C\c2[n-]c(=O)[n-]c2[O-])c(C)c1C(=O)[NH+]1CCN(CC(=O)N2CCOCC2)CC1

>  <Energy>  (18) 
132.00350132592405

>  <Genealogy>  (18) 
C=c1[nH]c(=Cc2[n-]c(=O)[n-]c2[O-])c(C)c1C(=O)[NH+]1CCN(CC(=O)N2CCOCC2)CC1 (protonated)
C=c1[nH]/c(=C\c2[n-]c(=O)[n-]c2[O-])c(C)c1C(=O)[NH+]1CCN(CC(=O)N2CCOCC2)CC1 (cis-trans isomerization)
C=c1[nH]/c(=C\c2[n-]c(=O)[n-]c2[O-])c(C)c1C(=O)[NH+]1CCN(CC(=O)N2CCOCC2)CC1 (3D coordinates assigned)
C=c1[nH]/c(=C\c2[n-]c(=O)[n-]c2[O-])c(C)c1C(=O)[NH+]1CCN(CC(=O)N2CCOCC2)CC1 (nonaromatic ring conformer: 132.00350132592405 kcal/mol)

>  <smiles>  (18) 
C=c1[nH]c(=Cc2[nH]c(=O)[nH]c2O)c(C)c1C(=O)N1CCN(CC(=O)N2CCOCC2)CC1

>  <score_type>  (18) 
oracle

>  <origin>  (18) 
adg

>  <m_score__min__energy>  (18) 
-15.67

>  <m_primary>  (18) 
energy

$$$$
18:0
     RDKit          3D

 38 41  0  0  0  0  0  0  0  0999 V2000
   57.6380   24.4090   45.8300 C   0  0  0  0  0  0  0  0  0  0  0  0
   57.7050   25.6920   45.4930 C   0  0  0  0  0  0  0  0  0  0  0  0
   58.8070   26.3030   44.9140 O   0  0  0  0  0  0  0  0  0  0  0  0
   58.4890   27.6490   44.7120 C   0  0  0  0  0  0  0  0  0  0  0  0
   57.2490   27.9300   45.1250 C   0  0  0  0  0  0  0  0  0  0  0  0
   56.5950   29.2520   45.0710 C   0  0  0  0  0  0  0  0  0  0  0  0
   55.3520   29.3250   44.8750 O   0  0  0  0  0  0  0  0  0  0  0  0
   57.3470   30.4570   45.2780 N   0  0  0  0  0  0  0  0  0  0  0  0
   57.0320   31.5980   44.4060 C   0  0  0  0  0  0  0  0  0  0  0  0
   58.1560   32.6320   44.4240 C   0  0  0  0  0  0  0  0  0  0  0  0
   58.4690   32.9830   45.8100 N   0  0  0  0  0  0  0  0  0  0  0  0
   58.6070   34.3890   46.2060 C   0  0  0  0  0  0  0  0  0  0  0  0
   59.2720   35.2620   45.1510 C   0  0  0  0  0  0  0  0  0  0  0  0
   60.0470   34.8510   46.3890 C   0  0  0  0  0  0  0  0  0  0  0  0
   58.7390   31.9000   46.7220 C   0  0  0  0  0  0  0  0  0  0  0  0
   59.5510   32.0810   47.8570 C   0  0  0  0  0  0  0  0  0  0  0  0
   59.8280   31.0050   48.7020 C   0  0  0  0  0  0  0  0  0  0  0  0
   59.3110   29.7420   48.4200 C   0  0  0  0  0  0  0  0  0  0  0  0
   58.5060   29.5490   47.2950 C   0  0  0  0  0  0  0  0  0  0  0  0
   58.1950   30.6280   46.4430 C   0  0  0  0  0  0  0  0  0  0  0  0
   56.6770   26.6990   45.6510 C   0  0  0  0  0  0  0  0  0  0  0  0
   55.5250   26.5400   46.1380 O   0  0  0  0  0  0  0  0  0  0  0  0
   56.7211   24.0073   46.2859 H   0  0  0  0  0  0  0  0  0  0  0  0
   58.4994   23.7482   45.6532 H   0  0  0  0  0  0  0  0  0  0  0  0
   59.1744   28.3860   44.2681 H   0  0  0  0  0  0  0  0  0  0  0  0
   56.8938   31.2358   43.3766 H   0  0  0  0  0  0  0  0  0  0  0  0
   56.1125   32.0758   44.7751 H   0  0  0  0  0  0  0  0  0  0  0  0
   59.0501   32.2111   43.9408 H   0  0  0  0  0  0  0  0  0  0  0  0
   57.8366   33.5326   43.8792 H   0  0  0  0  0  0  0  0  0  0  0  0
   57.6878   34.4472   46.8074 H   0  0  0  0  0  0  0  0  0  0  0  0
   59.5350   34.8362   44.1714 H   0  0  0  0  0  0  0  0  0  0  0  0
   59.0283   36.2206   44.6696 H   0  0  0  0  0  0  0  0  0  0  0  0
   60.8713   34.1273   46.3065 H   0  0  0  0  0  0  0  0  0  0  0  0
   60.5970   35.3882   47.1757 H   0  0  0  0  0  0  0  0  0  0  0  0
   59.9689   33.0740   48.0791 H   0  0  0  0  0  0  0  0  0  0  0  0
   60.4559   31.1544   49.5927 H   0  0  0  0  0  0  0  0  0  0  0  0
   59.5373   28.8953   49.0847 H   0  0  0  0  0  0  0  0  0  0  0  0
   58.1115   28.5467   47.0721 H   0  0  0  0  0  0  0  0  0  0  0  0
  1  2  2  0
  2  3  1  0
  3  4  1  0
  4  5  2  0
  5  6  1  0
  6  7  2  0
  6  8  1  0
  8  9  1  0
  9 10  1  0
 10 11  1  0
 11 12  1  0
 12 13  1  0
 13 14  1  0
 11 15  1  0
 15 16  2  0
 16 17  1  0
 17 18  2  0
 18 19  1  0
 19 20  2  0
  5 21  1  0
 21 22  2  0
 21  2  1  0
 20  8  1  0
 14 12  1  0
 20 15  1  0
  1 23  1  0
  1 24  1  0
  4 25  1  0
  9 26  1  0
  9 27  1  0
 10 28  1  0
 10 29  1  0
 12 30  1  0
 13 31  1  0
 13 32  1  0
 14 33  1  0
 14 34  1  0
 16 35  1  0
 17 36  1  0
 18 37  1  0
 19 38  1  0
M  END
>  <UniqueID>  (19) 
19

>  <SMILES>  (19) 
C=C1OC=C(C(=O)N2CCN(C3CC3)c3ccccc32)C1=O

>  <Energy>  (19) 
339.2559404438011

>  <Genealogy>  (19) 
C=C1OC=C(C(=O)N2CCN(C3CC3)c3ccccc32)C1=O (3D coordinates assigned)
C=C1OC=C(C(=O)N2CCN(C3CC3)c3ccccc32)C1=O (nonaromatic ring conformer: 339.2559404438011 kcal/mol)

>  <smiles>  (19) 
C=C1OC=C(C(=O)N2CCN(C3CC3)c3ccccc32)C1=O

>  <score_type>  (19) 
oracle

>  <origin>  (19) 
adg

>  <m_score__min__energy>  (19) 
-7.8600000000000003

>  <m_primary>  (19) 
energy

$$$$
19:0
     RDKit          3D

 42 44  0  0  0  0  0  0  0  0999 V2000
   56.7500   21.9290   42.8190 C   0  0  0  0  0  0  0  0  0  0  0  0
   56.3120   22.7050   43.8160 C   0  0  0  0  0  0  0  0  0  0  0  0
   55.4950   22.2520   44.7870 N   0  0  0  0  0  0  0  0  0  0  0  0
   55.2560   23.2810   45.6220 C   0  0  0  0  0  0  0  0  0  0  0  0
   54.3930   23.1570   46.8400 C   0  0  0  0  0  0  0  0  0  0  0  0
   55.9100   24.4240   45.1780 C   0  0  0  0  0  0  0  0  0  0  0  0
   55.9010   25.7580   45.8200 C   0  0  0  0  0  0  0  0  0  0  0  0
   54.8000   26.3350   46.0220 O   0  0  0  0  0  0  0  0  0  0  0  0
   57.1110   26.4410   46.1680 N   0  0  0  0  0  0  0  0  0  0  0  0
   57.3570   27.8480   46.0350 C   0  0  0  0  0  0  0  0  0  0  0  0
   56.7480   28.6150   45.0300 C   0  0  0  0  0  0  0  0  0  0  0  0
   57.0100   29.9840   44.9290 C   0  0  0  0  0  0  0  0  0  0  0  0
   57.9010   30.6140   45.8210 C   0  0  0  0  0  0  0  0  0  0  0  0
   58.1680   32.0320   45.7210 N   0  0  0  0  0  0  0  0  0  0  0  0
   58.9020   32.7930   46.7220 C   0  0  0  0  0  0  0  0  0  0  0  0
   58.7880   34.2520   46.3030 C   0  0  0  0  0  0  0  0  0  0  0  0
   58.3690   34.2300   44.8380 C   0  0  0  0  0  0  0  0  0  0  0  0
   57.7310   32.8660   44.6110 C   0  0  0  0  0  0  0  0  0  0  0  0
   58.5280   29.8290   46.8080 C   0  0  0  0  0  0  0  0  0  0  0  0
   58.2640   28.4610   46.9060 C   0  0  0  0  0  0  0  0  0  0  0  0
   56.5980   24.0540   44.0240 C   0  0  0  0  0  0  0  0  0  0  0  0
   57.3490   24.8540   43.2570 C   0  0  0  0  0  0  0  0  0  0  0  0
   57.4162   22.3460   42.0494 H   0  0  0  0  0  0  0  0  0  0  0  0
   56.4441   20.8736   42.7684 H   0  0  0  0  0  0  0  0  0  0  0  0
   55.1190   21.2800   44.8850 H   0  0  0  0  0  0  0  0  0  0  0  0
   55.0165   23.2466   47.7418 H   0  0  0  0  0  0  0  0  0  0  0  0
   53.6366   23.9557   46.8363 H   0  0  0  0  0  0  0  0  0  0  0  0
   53.8921   22.1777   46.8363 H   0  0  0  0  0  0  0  0  0  0  0  0
   56.0604   28.1359   44.3175 H   0  0  0  0  0  0  0  0  0  0  0  0
   56.5155   30.5762   44.1449 H   0  0  0  0  0  0  0  0  0  0  0  0
   58.4574   32.6448   47.7172 H   0  0  0  0  0  0  0  0  0  0  0  0
   59.9521   32.4714   46.7840 H   0  0  0  0  0  0  0  0  0  0  0  0
   58.0297   34.7673   46.9109 H   0  0  0  0  0  0  0  0  0  0  0  0
   59.7368   34.7901   46.4454 H   0  0  0  0  0  0  0  0  0  0  0  0
   57.6432   35.0312   44.6348 H   0  0  0  0  0  0  0  0  0  0  0  0
   59.2264   34.3931   44.1685 H   0  0  0  0  0  0  0  0  0  0  0  0
   56.6344   32.9525   44.6059 H   0  0  0  0  0  0  0  0  0  0  0  0
   58.0276   32.4374   43.6423 H   0  0  0  0  0  0  0  0  0  0  0  0
   59.2334   30.2985   47.5094 H   0  0  0  0  0  0  0  0  0  0  0  0
   58.7734   27.8607   47.6743 H   0  0  0  0  0  0  0  0  0  0  0  0
   57.8482   24.4497   42.3641 H   0  0  0  0  0  0  0  0  0  0  0  0
   57.4669   25.9156   43.5197 H   0  0  0  0  0  0  0  0  0  0  0  0
  1  2  2  0
  2  3  1  0
  3  4  1  0
  4  5  1  0
  4  6  2  0
  6  7  1  0
  7  8  2  0
  7  9  1  0
  9 10  1  0
 10 11  2  0
 11 12  1  0
 12 13  2  0
 13 14  1  0
 14 15  1  0
 15 16  1  0
 16 17  1  0
 17 18  1  0
 13 19  1  0
 19 20  2  0
  6 21  1  0
 21 22  2  0
 21  2  1  0
 20 10  1  0
 18 14  1  0
  1 23  1  0
  1 24  1  0
  3 25  1  0
  5 26  1  0
  5 27  1  0
  5 28  1  0
 11 29  1  0
 12 30  1  0
 15 31  1  0
 15 32  1  0
 16 33  1  0
 16 34  1  0
 17 35  1  0
 17 36  1  0
 18 37  1  0
 18 38  1  0
 19 39  1  0
 20 40  1  0
 22 41  1  0
 22 42  1  0
M  CHG  1   9  -1
M  END
>  <UniqueID>  (20) 
20

>  <SMILES>  (20) 
C=c1[nH]c(C)c(C(=O)[N-]c2ccc(N3CCCC3)cc2)c1=C

>  <Energy>  (20) 
78.88278660453109

>  <Genealogy>  (20) 
C=c1[nH]c(C)c(C(=O)[N-]c2ccc(N3CCCC3)cc2)c1=C (protonated)
C=c1[nH]c(C)c(C(=O)[N-]c2ccc(N3CCCC3)cc2)c1=C (3D coordinates assigned)
C=c1[nH]c(C)c(C(=O)[N-]c2ccc(N3CCCC3)cc2)c1=C (nonaromatic ring conformer: 78.88278660453109 kcal/mol)

>  <smiles>  (20) 
C=c1[nH]c(C)c(C(=O)Nc2ccc(N3CCCC3)cc2)c1=C

>  <score_type>  (20) 
oracle

>  <origin>  (20) 
adg

>  <m_score__min__energy>  (20) 
-9.0299999999999994

>  <m_primary>  (20) 
energy

$$$$
20:0
     RDKit          3D

 52 54  0  0  0  0  0  0  0  0999 V2000
   56.4040   29.9270   42.6160 C   0  0  0  0  0  0  0  0  0  0  0  0
   56.5800   30.0940   44.3770 S   0  0  0  0  0  0  0  0  0  0  0  0
   58.0450   30.1100   44.7140 O   0  0  0  0  0  0  0  0  0  0  0  0
   55.9360   31.3760   44.8240 O   0  0  0  0  0  0  0  0  0  0  0  0
   55.8100   28.7430   45.1410 N   0  0  0  0  0  0  0  0  0  0  0  0
   56.4760   27.5850   45.6660 C   0  0  0  0  0  0  0  0  0  0  0  0
   57.8730   27.6120   45.7400 C   0  0  0  0  0  0  0  0  0  0  0  0
   58.5870   26.5360   46.2920 C   0  0  0  0  0  0  0  0  0  0  0  0
   60.0810   26.6370   46.4900 C   0  0  0  0  0  0  0  0  0  0  0  0
   60.4470   27.4080   47.6960 N   0  0  0  0  0  0  0  0  0  0  0  0
   59.9920   28.8170   47.6870 C   0  0  0  0  0  0  0  0  0  0  0  0
   61.1430   29.7890   47.9960 C   0  0  0  0  0  0  0  0  0  0  0  0
   60.6570   31.2520   47.9170 C   0  0  0  0  0  0  0  0  0  0  0  0
   59.2790   31.4670   48.4340 N   0  0  0  0  0  0  0  0  0  0  0  0
   58.2850   31.7240   47.3680 C   0  0  0  0  0  0  0  0  0  0  0  0
   58.6310   32.9850   46.6170 C   0  0  0  0  0  0  0  0  0  0  0  0
   59.1960   34.0850   47.2840 C   0  0  0  0  0  0  0  0  0  0  0  0
   59.5150   35.2480   46.5760 C   0  0  0  0  0  0  0  0  0  0  0  0
   59.2690   35.3230   45.2030 C   0  0  0  0  0  0  0  0  0  0  0  0
   58.7050   34.2330   44.5340 C   0  0  0  0  0  0  0  0  0  0  0  0
   58.3870   33.0670   45.2370 C   0  0  0  0  0  0  0  0  0  0  0  0
   58.8380   30.4080   49.3640 C   0  0  0  0  0  0  0  0  0  0  0  0
   58.8520   29.0070   48.7190 C   0  0  0  0  0  0  0  0  0  0  0  0
   57.8880   25.4060   46.7370 C   0  0  0  0  0  0  0  0  0  0  0  0
   56.4970   25.3520   46.6290 C   0  0  0  0  0  0  0  0  0  0  0  0
   55.7860   26.4310   46.0940 C   0  0  0  0  0  0  0  0  0  0  0  0
   54.4050   26.3260   45.9750 O   0  0  0  0  0  0  0  0  0  0  0  0
   55.6224   29.1854   42.3943 H   0  0  0  0  0  0  0  0  0  0  0  0
   56.1221   30.8977   42.1820 H   0  0  0  0  0  0  0  0  0  0  0  0
   57.3585   29.5946   42.1820 H   0  0  0  0  0  0  0  0  0  0  0  0
   58.4195   28.4880   45.3606 H   0  0  0  0  0  0  0  0  0  0  0  0
   60.4927   25.6213   46.5836 H   0  0  0  0  0  0  0  0  0  0  0  0
   60.4958   27.1663   45.6195 H   0  0  0  0  0  0  0  0  0  0  0  0
   60.0140   26.9230   48.5180 H   0  0  0  0  0  0  0  0  0  0  0  0
   59.6217   29.0449   46.6766 H   0  0  0  0  0  0  0  0  0  0  0  0
   61.5228   29.5888   49.0087 H   0  0  0  0  0  0  0  0  0  0  0  0
   61.9407   29.6405   47.2532 H   0  0  0  0  0  0  0  0  0  0  0  0
   61.3467   31.8765   48.5039 H   0  0  0  0  0  0  0  0  0  0  0  0
   60.6394   31.5214   46.8506 H   0  0  0  0  0  0  0  0  0  0  0  0
   58.2777   30.8759   46.6676 H   0  0  0  0  0  0  0  0  0  0  0  0
   57.2930   31.8443   47.8278 H   0  0  0  0  0  0  0  0  0  0  0  0
   59.3879   34.0312   48.3658 H   0  0  0  0  0  0  0  0  0  0  0  0
   59.9606   36.1056   47.1014 H   0  0  0  0  0  0  0  0  0  0  0  0
   59.5190   36.2395   44.6485 H   0  0  0  0  0  0  0  0  0  0  0  0
   58.5111   34.2926   43.4529 H   0  0  0  0  0  0  0  0  0  0  0  0
   57.9441   32.2110   44.7069 H   0  0  0  0  0  0  0  0  0  0  0  0
   59.5104   30.4015   50.2346 H   0  0  0  0  0  0  0  0  0  0  0  0
   57.8004   30.6305   49.6536 H   0  0  0  0  0  0  0  0  0  0  0  0
   58.9736   28.2577   49.5151 H   0  0  0  0  0  0  0  0  0  0  0  0
   57.9012   28.8883   48.1787 H   0  0  0  0  0  0  0  0  0  0  0  0
   58.4371   24.5584   47.1730 H   0  0  0  0  0  0  0  0  0  0  0  0
   55.9570   24.4552   46.9668 H   0  0  0  0  0  0  0  0  0  0  0  0
  1  2  1  0
  2  3  2  0
  2  4  2  0
  2  5  1  0
  5  6  1  0
  6  7  2  0
  7  8  1  0
  8  9  1  0
  9 10  1  0
 10 11  1  0
 11 12  1  0
 12 13  1  0
 13 14  1  0
 14 15  1  0
 15 16  1  0
 16 17  2  0
 17 18  1  0
 18 19  2  0
 19 20  1  0
 20 21  2  0
 14 22  1  0
 22 23  1  0
  8 24  2  0
 24 25  1  0
 25 26  2  0
 26 27  1  0
 26  6  1  0
 23 11  1  0
 21 16  1  0
  1 28  1  0
  1 29  1  0
  1 30  1  0
  7 31  1  0
  9 32  1  0
  9 33  1  0
 10 34  1  0
 11 35  1  0
 12 36  1  0
 12 37  1  0
 13 38  1  0
 13 39  1  0
 15 40  1  0
 15 41  1  0
 17 42  1  0
 18 43  1  0
 19 44  1  0
 20 45  1  0
 21 46  1  0
 22 47  1  0
 22 48  1  0
 23 49  1  0
 23 50  1  0
 24 51  1  0
 25 52  1  0
M  CHG  2   5  -1  27  -1
M  END
>  <UniqueID>  (21) 
21

>  <SMILES>  (21) 
CS(=O)(=O)[N-]c1cc(CNC2CCN(Cc3ccccc3)CC2)ccc1[O-]

>  <Energy>  (21) 
64.90547334495889

>  <Genealogy>  (21) 
CS(=O)(=O)[N-]c1cc(CNC2CCN(Cc3ccccc3)CC2)ccc1[O-] (protonated)
CS(=O)(=O)[N-]c1cc(CNC2CCN(Cc3ccccc3)CC2)ccc1[O-] (3D coordinates assigned)
CS(=O)(=O)[N-]c1cc(CNC2CCN(Cc3ccccc3)CC2)ccc1[O-] (nonaromatic ring conformer: 64.90547334495889 kcal/mol)

>  <smiles>  (21) 
CS(=O)(=O)Nc1cc(CNC2CCN(Cc3ccccc3)CC2)ccc1O

>  <score_type>  (21) 
oracle

>  <origin>  (21) 
adg

>  <m_score__min__energy>  (21) 
-14.94

>  <m_primary>  (21) 
energy

$$$$
21:0
     RDKit          3D

 65 68  0  0  0  0  0  0  0  0999 V2000
   58.2550   25.0060   45.0950 C   0  0  0  0  0  0  0  0  0  0  0  0
   58.7270   25.9810   46.2000 C   0  0  0  0  0  0  0  0  0  0  0  0
   58.1220   25.5500   47.5540 C   0  0  0  0  0  0  0  0  0  0  0  0
   60.2690   25.8570   46.3100 C   0  0  0  0  0  0  0  0  0  0  0  0
   58.2600   27.4130   45.8550 C   0  0  0  0  0  0  0  0  0  0  0  0
   59.1910   28.4750   45.8740 C   0  0  0  0  0  0  0  0  0  0  0  0
   58.8010   29.7840   45.5810 C   0  0  0  0  0  0  0  0  0  0  0  0
   57.4640   30.0720   45.2690 C   0  0  0  0  0  0  0  0  0  0  0  0
   57.0400   31.3740   44.9640 O   0  0  0  0  0  0  0  0  0  0  0  0
   57.7130   32.5470   45.3370 C   0  0  0  0  0  0  0  0  0  0  0  0
   57.7980   33.6570   44.4780 C   0  0  0  0  0  0  0  0  0  0  0  0
   58.4730   34.8110   44.8810 C   0  0  0  0  0  0  0  0  0  0  0  0
   59.0840   34.8600   46.1360 C   0  0  0  0  0  0  0  0  0  0  0  0
   59.0310   33.7490   46.9890 C   0  0  0  0  0  0  0  0  0  0  0  0
   59.8020   33.8340   48.6090 S   0  0  0  0  0  0  0  0  0  0  0  0
   61.4150   33.3220   47.9950 C   0  0  0  0  0  0  0  0  0  0  0  0
   62.1260   34.2140   47.2490 N   0  0  0  0  0  0  0  0  0  0  0  0
   63.3680   33.9350   46.7740 C   0  0  0  0  0  0  0  0  0  0  0  0
   63.9640   32.7060   47.0620 C   0  0  0  0  0  0  0  0  0  0  0  0
   63.2780   31.7810   47.8480 C   0  0  0  0  0  0  0  0  0  0  0  0
   61.9890   32.0720   48.3270 C   0  0  0  0  0  0  0  0  0  0  0  0
   61.3060   31.0950   49.1990 C   0  0  0  0  0  0  0  0  0  0  0  0
   61.6290   31.0020   50.4120 O   0  0  0  0  0  0  0  0  0  0  0  0
   60.2800   30.2490   48.6620 N   0  0  0  0  0  0  0  0  0  0  0  0
   59.4420   29.3860   49.4920 C   0  0  0  0  0  0  0  0  0  0  0  0
   58.4080   30.2050   50.2000 C   0  0  0  0  0  0  0  0  0  0  0  0
   58.1600   31.3790   49.8090 O   0  0  0  0  0  0  0  0  0  0  0  0
   57.7540   29.6760   51.3590 N   0  0  0  0  0  0  0  0  0  0  0  0
   57.4180   30.4870   52.5260 C   0  0  0  0  0  0  0  0  0  0  0  0
   58.4380   31.5960   52.7510 C   0  0  0  0  0  0  0  0  0  0  0  0
   57.3700   32.6370   52.4400 C   0  0  0  0  0  0  0  0  0  0  0  0
   56.3500   31.5310   52.2160 C   0  0  0  0  0  0  0  0  0  0  0  0
   58.3490   32.5940   46.5840 C   0  0  0  0  0  0  0  0  0  0  0  0
   56.5380   29.0320   45.2100 C   0  0  0  0  0  0  0  0  0  0  0  0
   56.9220   27.7200   45.5060 C   0  0  0  0  0  0  0  0  0  0  0  0
   57.8205   24.1084   45.5592 H   0  0  0  0  0  0  0  0  0  0  0  0
   57.4961   25.4996   44.4702 H   0  0  0  0  0  0  0  0  0  0  0  0
   59.1129   24.7169   44.4702 H   0  0  0  0  0  0  0  0  0  0  0  0
   58.7189   25.9752   48.3743 H   0  0  0  0  0  0  0  0  0  0  0  0
   57.0870   25.9154   47.6261 H   0  0  0  0  0  0  0  0  0  0  0  0
   58.1292   24.4524   47.6261 H   0  0  0  0  0  0  0  0  0  0  0  0
   60.5602   25.8336   47.3705 H   0  0  0  0  0  0  0  0  0  0  0  0
   60.5982   24.9295   45.8188 H   0  0  0  0  0  0  0  0  0  0  0  0
   60.7422   26.7200   45.8188 H   0  0  0  0  0  0  0  0  0  0  0  0
   60.2420   28.2676   46.1240 H   0  0  0  0  0  0  0  0  0  0  0  0
   59.5461   30.5931   45.5950 H   0  0  0  0  0  0  0  0  0  0  0  0
   57.3303   33.6160   43.4832 H   0  0  0  0  0  0  0  0  0  0  0  0
   58.5235   35.6813   44.2102 H   0  0  0  0  0  0  0  0  0  0  0  0
   59.6081   35.7727   46.4558 H   0  0  0  0  0  0  0  0  0  0  0  0
   63.9033   34.6768   46.1631 H   0  0  0  0  0  0  0  0  0  0  0  0
   64.9652   32.4696   46.6726 H   0  0  0  0  0  0  0  0  0  0  0  0
   63.7484   30.8177   48.0947 H   0  0  0  0  0  0  0  0  0  0  0  0
   60.0930   30.2720   47.6350 H   0  0  0  0  0  0  0  0  0  0  0  0
   58.9431   28.6407   48.8551 H   0  0  0  0  0  0  0  0  0  0  0  0
   60.0725   28.8779   50.2365 H   0  0  0  0  0  0  0  0  0  0  0  0
   57.2391   29.7185   53.2924 H   0  0  0  0  0  0  0  0  0  0  0  0
   58.8287   31.6458   53.7781 H   0  0  0  0  0  0  0  0  0  0  0  0
   59.3924   31.5954   52.2041 H   0  0  0  0  0  0  0  0  0  0  0  0
   57.1326   33.3017   53.2837 H   0  0  0  0  0  0  0  0  0  0  0  0
   57.5446   33.3966   51.6637 H   0  0  0  0  0  0  0  0  0  0  0  0
   55.5117   31.5417   52.9282 H   0  0  0  0  0  0  0  0  0  0  0  0
   55.7778   31.4818   51.2778 H   0  0  0  0  0  0  0  0  0  0  0  0
   58.3129   31.7188   47.2494 H   0  0  0  0  0  0  0  0  0  0  0  0
   55.4962   29.2448   44.9282 H   0  0  0  0  0  0  0  0  0  0  0  0
   56.1738   26.9146   45.4672 H   0  0  0  0  0  0  0  0  0  0  0  0
  1  2  1  0
  2  3  1  0
  2  4  1  0
  2  5  1  0
  5  6  2  0
  6  7  1  0
  7  8  2  0
  8  9  1  0
  9 10  1  0
 10 11  2  0
 11 12  1  0
 12 13  2  0
 13 14  1  0
 14 15  1  0
 15 16  1  0
 16 17  2  0
 17 18  1  0
 18 19  2  0
 19 20  1  0
 20 21  2  0
 21 22  1  0
 22 23  2  0
 22 24  1  0
 24 25  1  0
 25 26  1  0
 26 27  2  0
 26 28  1  0
 28 29  1  0
 29 30  1  0
 30 31  1  0
 31 32  1  0
 14 33  2  0
  8 34  1  0
 34 35  2  0
 35  5  1  0
 33 10  1  0
 21 16  1  0
 32 29  1  0
  1 36  1  0
  1 37  1  0
  1 38  1  0
  3 39  1  0
  3 40  1  0
  3 41  1  0
  4 42  1  0
  4 43  1  0
  4 44  1  0
  6 45  1  0
  7 46  1  0
 11 47  1  0
 12 48  1  0
 13 49  1  0
 18 50  1  0
 19 51  1  0
 20 52  1  0
 24 53  1  0
 25 54  1  0
 25 55  1  0
 29 56  1  0
 30 57  1  0
 30 58  1  0
 31 59  1  0
 31 60  1  0
 32 61  1  0
 32 62  1  0
 33 63  1  0
 34 64  1  0
 35 65  1  0
M  CHG  1  28  -1
M  END
>  <UniqueID>  (22) 
22

>  <SMILES>  (22) 
CC(C)(C)c1ccc(Oc2cccc(Sc3ncccc3C(=O)NCC(=O)[N-]C3CCC3)c2)cc1

>  <Energy>  (22) 
133.79698493038623

>  <Genealogy>  (22) 
CC(C)(C)c1ccc(Oc2cccc(Sc3ncccc3C(=O)NCC(=O)[N-]C3CCC3)c2)cc1 (protonated)
CC(C)(C)c1ccc(Oc2cccc(Sc3ncccc3C(=O)NCC(=O)[N-]C3CCC3)c2)cc1 (3D coordinates assigned)
CC(C)(C)c1ccc(Oc2cccc(Sc3ncccc3C(=O)NCC(=O)[N-]C3CCC3)c2)cc1 (nonaromatic ring conformer: 133.79698493038623 kcal/mol)

>  <smiles>  (22) 
CC(C)(C)c1ccc(Oc2cccc(Sc3ncccc3C(=O)NCC(=O)NC3CCC3)c2)cc1

>  <score_type>  (22) 
oracle

>  <origin>  (22) 
adg

>  <m_score__min__energy>  (22) 
-11.890000000000001

>  <m_primary>  (22) 
energy

$$$$
22:0
     RDKit          3D

 63 67  0  0  0  0  0  0  0  0999 V2000
   60.1794   33.2672   50.9763 H   0  0  0  0  0  0  0  0  0  0  0  0
   59.2840   33.2100   50.3400 C   0  0  0  0  0  0  0  0  0  0  0  0
   58.2839   33.1957   50.7979 H   0  0  0  0  0  0  0  0  0  0  0  0
   59.4110   33.1580   49.0120 C   0  0  0  0  0  0  0  0  0  0  0  0
   58.3400   33.0870   48.1890 N   0  0  0  0  0  0  0  0  0  0  0  0
   58.8600   32.9900   46.9470 C   0  0  0  0  0  0  0  0  0  0  0  0
   58.0830   32.9210   45.8530 C   0  0  0  0  0  0  0  0  0  0  0  0
   57.8285   33.8707   45.3598 H   0  0  0  0  0  0  0  0  0  0  0  0
   57.5400   31.6870   45.2530 C   0  0  0  0  0  0  0  0  0  0  0  0
   56.2780   31.5270   44.7950 N   0  0  0  0  0  0  0  0  0  0  0  0
   56.2830   30.2850   44.2640 C   0  0  0  0  0  0  0  0  0  0  0  0
   55.2600   29.7580   43.7510 O   0  0  0  0  0  0  0  0  0  0  0  0
   57.4810   29.6690   44.3360 N   0  0  0  0  0  0  0  0  0  0  0  0
   57.8150   28.3040   43.9330 C   0  0  0  0  0  0  0  0  0  0  0  0
   56.9519   27.8535   43.4210 H   0  0  0  0  0  0  0  0  0  0  0  0
   58.6796   28.3287   43.2534 H   0  0  0  0  0  0  0  0  0  0  0  0
   58.1610   27.4820   45.1440 C   0  0  0  0  0  0  0  0  0  0  0  0
   57.6650   26.1790   45.2800 C   0  0  0  0  0  0  0  0  0  0  0  0
   57.0489   25.7408   44.4810 H   0  0  0  0  0  0  0  0  0  0  0  0
   57.9500   25.4350   46.4260 C   0  0  0  0  0  0  0  0  0  0  0  0
   57.5696   24.4072   46.5206 H   0  0  0  0  0  0  0  0  0  0  0  0
   58.7170   25.9910   47.4540 C   0  0  0  0  0  0  0  0  0  0  0  0
   58.9395   25.3959   48.3519 H   0  0  0  0  0  0  0  0  0  0  0  0
   59.2070   27.3070   47.3490 C   0  0  0  0  0  0  0  0  0  0  0  0
   60.0170   27.9340   48.4330 C   0  0  0  0  0  0  0  0  0  0  0  0
   60.5170   27.1850   49.3190 O   0  0  0  0  0  0  0  0  0  0  0  0
   60.2270   29.3710   48.5010 N   0  0  0  0  0  0  0  0  0  0  0  0
   60.4470   29.7100   47.5360 H   0  0  0  0  0  0  0  0  0  0  0  0
   61.4100   29.7340   49.3310 C   0  0  0  0  0  0  0  0  0  0  0  0
   62.0923   28.8717   49.3603 H   0  0  0  0  0  0  0  0  0  0  0  0
   61.8724   30.6170   48.8658 H   0  0  0  0  0  0  0  0  0  0  0  0
   61.0510   30.1210   50.7790 C   0  0  0  0  0  0  0  0  0  0  0  0
   61.8898   29.8647   51.4428 H   0  0  0  0  0  0  0  0  0  0  0  0
   60.8547   31.2024   50.8247 H   0  0  0  0  0  0  0  0  0  0  0  0
   59.8490   29.3950   51.2120 N   0  0  0  0  0  0  0  0  0  0  0  0
   59.6150   29.5900   52.6510 C   0  0  0  0  0  0  0  0  0  0  0  0
   60.3361   28.9891   53.2245 H   0  0  0  0  0  0  0  0  0  0  0  0
   59.7419   30.6534   52.9023 H   0  0  0  0  0  0  0  0  0  0  0  0
   58.5920   29.2734   52.9023 H   0  0  0  0  0  0  0  0  0  0  0  0
   58.6670   29.8190   50.4330 C   0  0  0  0  0  0  0  0  0  0  0  0
   57.9008   29.0324   50.4979 H   0  0  0  0  0  0  0  0  0  0  0  0
   58.3086   30.7680   50.8584 H   0  0  0  0  0  0  0  0  0  0  0  0
   58.9990   30.0670   48.9420 C   0  0  0  0  0  0  0  0  0  0  0  0
   58.1560   29.7118   48.3312 H   0  0  0  0  0  0  0  0  0  0  0  0
   59.1694   31.1466   48.8175 H   0  0  0  0  0  0  0  0  0  0  0  0
   58.9250   28.0420   46.1810 C   0  0  0  0  0  0  0  0  0  0  0  0
   59.3082   29.0681   46.0797 H   0  0  0  0  0  0  0  0  0  0  0  0
   58.2720   30.5580   44.9590 C   0  0  0  0  0  0  0  0  0  0  0  0
   59.6150   30.3500   45.2550 O   0  0  0  0  0  0  0  0  0  0  0  0
   60.2440   33.0220   47.0490 C   0  0  0  0  0  0  0  0  0  0  0  0
   61.0710   33.0330   46.0990 O   0  0  0  0  0  0  0  0  0  0  0  0
   60.5920   33.1230   48.3450 N   0  0  0  0  0  0  0  0  0  0  0  0
   61.9300   33.2290   48.8640 C   0  0  0  0  0  0  0  0  0  0  0  0
   62.2110   34.0850   49.9420 C   0  0  0  0  0  0  0  0  0  0  0  0
   61.4006   34.6669   50.4052 H   0  0  0  0  0  0  0  0  0  0  0  0
   63.5160   34.2000   50.4280 C   0  0  0  0  0  0  0  0  0  0  0  0
   63.7291   34.8661   51.2771 H   0  0  0  0  0  0  0  0  0  0  0  0
   64.5510   33.4700   49.8370 C   0  0  0  0  0  0  0  0  0  0  0  0
   65.5773   33.5597   50.2227 H   0  0  0  0  0  0  0  0  0  0  0  0
   64.2820   32.6260   48.7560 C   0  0  0  0  0  0  0  0  0  0  0  0
   65.0975   32.0540   48.2893 H   0  0  0  0  0  0  0  0  0  0  0  0
   62.9770   32.5080   48.2670 C   0  0  0  0  0  0  0  0  0  0  0  0
   62.7699   31.8481   47.4117 H   0  0  0  0  0  0  0  0  0  0  0  0
  1  2  1  0
  2  3  1  0
  2  4  2  0
  4  5  1  0
  5  6  1  0
  6  7  2  0
  7  8  1  0
  7  9  1  0
  9 10  1  0
 10 11  1  0
 11 12  2  0
 11 13  1  0
 13 14  1  0
 14 15  1  0
 14 16  1  0
 14 17  1  0
 17 18  2  0
 18 19  1  0
 18 20  1  0
 20 21  1  0
 20 22  2  0
 22 23  1  0
 22 24  1  0
 24 25  1  0
 25 26  2  0
 25 27  1  0
 27 28  1  0
 27 29  1  0
 29 30  1  0
 29 31  1  0
 29 32  1  0
 32 33  1  0
 32 34  1  0
 32 35  1  0
 35 36  1  0
 36 37  1  0
 36 38  1  0
 36 39  1  0
 35 40  1  0
 40 41  1  0
 40 42  1  0
 40 43  1  0
 43 44  1  0
 43 45  1  0
 24 46  2  0
 46 47  1  0
 13 48  1  0
 48 49  1  0
  6 50  1  0
 50 51  2  0
 50 52  1  0
 52 53  1  0
 53 54  2  0
 54 55  1  0
 54 56  1  0
 56 57  1  0
 56 58  2  0
 58 59  1  0
 58 60  1  0
 60 61  1  0
 60 62  2  0
 62 63  1  0
 52  4  1  0
 62 53  1  0
 48  9  2  0
 46 17  1  0
 43 27  1  0
M  CHG  4   5  -1  10  -1  27   1  49  -1
M  END
>  <UniqueID>  (23) 
23

>  <SMILES>  (23) 
C=c1[n-]/c(=C/c2[n-]c(=O)n(Cc3cccc(C(=O)[NH+]4CCN(C)CC4)c3)c2[O-])c(=O)n1-c1ccccc1

>  <Energy>  (23) 
159.41077600904515

>  <Genealogy>  (23) 
C=c1[n-]c(=Cc2[n-]c(=O)n(Cc3cccc(C(=O)[NH+]4CCN(C)CC4)c3)c2[O-])c(=O)n1-c1ccccc1 (protonated)
C=c1[n-]/c(=C/c2[n-]c(=O)n(Cc3cccc(C(=O)[NH+]4CCN(C)CC4)c3)c2[O-])c(=O)n1-c1ccccc1 (cis-trans isomerization)
C=c1[n-]/c(=C/c2[n-]c(=O)n(Cc3cccc(C(=O)[NH+]4CCN(C)CC4)c3)c2[O-])c(=O)n1-c1ccccc1 (3D coordinates assigned)
C=c1[n-]/c(=C/c2[n-]c(=O)n(Cc3cccc(C(=O)[NH+]4CCN(C)CC4)c3)c2[O-])c(=O)n1-c1ccccc1 (nonaromatic ring conformer: 159.41077600904515 kcal/mol)

>  <smiles>  (23) 
C=c1[nH]c(=Cc2[nH]c(=O)n(Cc3cccc(C(=O)N4CCN(C)CC4)c3)c2O)c(=O)n1-c1ccccc1

>  <score_type>  (23) 
oracle

>  <origin>  (23) 
adg

>  <m_score__min__energy>  (23) 
-14.48

>  <m_primary>  (23) 
energy

$$$$
23:0
     RDKit          3D

 47 49  0  0  0  0  0  0  0  0999 V2000
   57.8230   31.0290   53.4070 C   0  0  0  0  0  0  0  0  0  0  0  0
   57.5050   30.3430   52.1110 C   0  0  0  0  0  0  0  0  0  0  0  0
   56.6840   29.3850   52.1280 O   0  0  0  0  0  0  0  0  0  0  0  0
   58.1270   30.7610   50.8270 C   0  0  0  0  0  0  0  0  0  0  0  0
   58.1400   32.1190   50.4600 C   0  0  0  0  0  0  0  0  0  0  0  0
   58.7210   32.5260   49.2560 C   0  0  0  0  0  0  0  0  0  0  0  0
   59.2880   31.5900   48.3860 C   0  0  0  0  0  0  0  0  0  0  0  0
   59.8660   32.0490   47.1940 O   0  0  0  0  0  0  0  0  0  0  0  0
   59.1650   32.3800   46.0260 C   0  0  0  0  0  0  0  0  0  0  0  0
   59.3500   33.4960   45.4660 O   0  0  0  0  0  0  0  0  0  0  0  0
   58.2530   31.3870   45.4140 C   0  0  0  0  0  0  0  0  0  0  0  0
   57.1260   31.8100   44.6900 C   0  0  0  0  0  0  0  0  0  0  0  0
   56.2670   30.8740   44.1080 C   0  0  0  0  0  0  0  0  0  0  0  0
   56.5150   29.5080   44.2550 C   0  0  0  0  0  0  0  0  0  0  0  0
   57.6160   29.0650   44.9950 C   0  0  0  0  0  0  0  0  0  0  0  0
   57.8270   27.6520   45.1430 N   0  0  0  0  0  0  0  0  0  0  0  0
   57.3180   26.8170   46.1950 C   0  0  0  0  0  0  0  0  0  0  0  0
   57.3790   27.2380   47.3810 O   0  0  0  0  0  0  0  0  0  0  0  0
   56.7650   25.4660   45.9320 C   0  0  0  0  0  0  0  0  0  0  0  0
   57.6200   24.3610   45.7810 C   0  0  0  0  0  0  0  0  0  0  0  0
   59.0000   24.5170   45.8600 O   0  0  0  0  0  0  0  0  0  0  0  0
   57.1220   23.1480   45.5790 O   0  0  0  0  0  0  0  0  0  0  0  0
   55.8190   22.8990   45.5170 C   0  0  0  0  0  0  0  0  0  0  0  0
   55.4330   21.7120   45.3490 O   0  0  0  0  0  0  0  0  0  0  0  0
   54.8850   23.9450   45.6550 C   0  0  0  0  0  0  0  0  0  0  0  0
   53.4240   23.6700   45.6130 C   0  0  0  0  0  0  0  0  0  0  0  0
   52.7210   22.9790   46.7410 C   0  0  0  0  0  0  0  0  0  0  0  0
   52.7500   24.0250   44.6090 O   0  0  0  0  0  0  0  0  0  0  0  0
   55.3810   25.2510   45.8290 C   0  0  0  0  0  0  0  0  0  0  0  0
   54.5090   26.3350   45.8600 O   0  0  0  0  0  0  0  0  0  0  0  0
   58.5020   30.0080   45.5470 C   0  0  0  0  0  0  0  0  0  0  0  0
   59.2970   30.2330   48.7540 C   0  0  0  0  0  0  0  0  0  0  0  0
   58.7180   29.8230   49.9580 C   0  0  0  0  0  0  0  0  0  0  0  0
   57.5240   30.3839   54.2463 H   0  0  0  0  0  0  0  0  0  0  0  0
   58.9039   31.2253   53.4624 H   0  0  0  0  0  0  0  0  0  0  0  0
   57.2742   31.9807   53.4624 H   0  0  0  0  0  0  0  0  0  0  0  0
   57.6884   32.8678   51.1273 H   0  0  0  0  0  0  0  0  0  0  0  0
   58.7323   33.5933   48.9902 H   0  0  0  0  0  0  0  0  0  0  0  0
   56.9184   32.8847   44.5805 H   0  0  0  0  0  0  0  0  0  0  0  0
   55.3934   31.2143   43.5327 H   0  0  0  0  0  0  0  0  0  0  0  0
   55.8408   28.7761   43.7862 H   0  0  0  0  0  0  0  0  0  0  0  0
   53.1059   23.3573   47.6995 H   0  0  0  0  0  0  0  0  0  0  0  0
   51.6409   23.1767   46.6759 H   0  0  0  0  0  0  0  0  0  0  0  0
   52.9001   21.8956   46.6759 H   0  0  0  0  0  0  0  0  0  0  0  0
   59.3968   29.6649   46.0870 H   0  0  0  0  0  0  0  0  0  0  0  0
   59.7626   29.4896   48.0902 H   0  0  0  0  0  0  0  0  0  0  0  0
   58.7238   28.7571   50.2298 H   0  0  0  0  0  0  0  0  0  0  0  0
  1  2  1  0
  2  3  2  0
  2  4  1  0
  4  5  2  0
  5  6  1  0
  6  7  2  0
  7  8  1  0
  8  9  1  0
  9 10  2  0
  9 11  1  0
 11 12  2  0
 12 13  1  0
 13 14  2  0
 14 15  1  0
 15 16  1  0
 16 17  1  0
 17 18  2  0
 17 19  1  0
 19 20  2  0
 20 21  1  0
 20 22  1  0
 22 23  1  0
 23 24  2  0
 23 25  1  0
 25 26  1  0
 26 27  1  0
 26 28  2  0
 25 29  2  0
 29 30  1  0
 15 31  2  0
  7 32  1  0
 32 33  2  0
 33  4  1  0
 31 11  1  0
 29 19  1  0
  1 34  1  0
  1 35  1  0
  1 36  1  0
  5 37  1  0
  6 38  1  0
 12 39  1  0
 13 40  1  0
 14 41  1  0
 27 42  1  0
 27 43  1  0
 27 44  1  0
 31 45  1  0
 32 46  1  0
 33 47  1  0
M  CHG  3  16  -1  21  -1  30  -1
M  END
>  <UniqueID>  (24) 
24

>  <SMILES>  (24) 
CC(=O)c1ccc(OC(=O)c2cccc([N-]C(=O)c3c([O-])oc(=O)c(C(C)=O)c3[O-])c2)cc1

>  <Energy>  (24) 
69.977966576936

>  <Genealogy>  (24) 
CC(=O)c1ccc(OC(=O)c2cccc([N-]C(=O)c3c([O-])oc(=O)c(C(C)=O)c3[O-])c2)cc1 (protonated)
CC(=O)c1ccc(OC(=O)c2cccc([N-]C(=O)c3c([O-])oc(=O)c(C(C)=O)c3[O-])c2)cc1 (3D coordinates assigned)
CC(=O)c1ccc(OC(=O)c2cccc([N-]C(=O)c3c([O-])oc(=O)c(C(C)=O)c3[O-])c2)cc1 (optimized conformer: 69.977966576936 kcal/mol)

>  <smiles>  (24) 
CC(=O)c1ccc(OC(=O)c2cccc(NC(=O)c3c(O)oc(=O)c(C(C)=O)c3O)c2)cc1

>  <score_type>  (24) 
oracle

>  <origin>  (24) 
adg

>  <m_score__min__energy>  (24) 
-15.789999999999999

>  <m_primary>  (24) 
energy

$$$$
24:0
     RDKit          3D

 50 53  0  0  0  0  0  0  0  0999 V2000
   60.4970   33.8460   51.2570 N   0  0  0  0  0  0  0  0  0  0  0  0
   61.9740   33.6360   50.3820 S   0  0  0  0  0  0  0  0  0  0  0  0
   63.0570   33.1940   51.3280 O   0  0  0  0  0  0  0  0  0  0  0  0
   62.3800   34.9440   49.7640 O   0  0  0  0  0  0  0  0  0  0  0  0
   61.7520   32.4210   49.1250 C   0  0  0  0  0  0  0  0  0  0  0  0
   62.7260   32.2480   48.1320 C   0  0  0  0  0  0  0  0  0  0  0  0
   62.5400   31.2960   47.1250 C   0  0  0  0  0  0  0  0  0  0  0  0
   61.3790   30.4990   47.1060 C   0  0  0  0  0  0  0  0  0  0  0  0
   61.1500   29.5420   46.1060 O   0  0  0  0  0  0  0  0  0  0  0  0
   60.0240   28.7100   46.0180 C   0  0  0  0  0  0  0  0  0  0  0  0
   59.9690   27.4600   46.6570 C   0  0  0  0  0  0  0  0  0  0  0  0
   58.8220   26.6640   46.5600 C   0  0  0  0  0  0  0  0  0  0  0  0
   57.7030   27.1110   45.8320 C   0  0  0  0  0  0  0  0  0  0  0  0
   56.4800   26.2820   45.7160 C   0  0  0  0  0  0  0  0  0  0  0  0
   56.3470   25.0850   45.0330 C   0  0  0  0  0  0  0  0  0  0  0  0
   55.0270   24.7360   45.2280 C   0  0  0  0  0  0  0  0  0  0  0  0
   54.3620   23.5420   44.6950 C   0  0  0  0  0  0  0  0  0  0  0  0
   54.1580   23.4390   43.4560 O   0  0  0  0  0  0  0  0  0  0  0  0
   53.9540   22.4990   45.5820 N   0  0  0  0  0  0  0  0  0  0  0  0
   54.8470   21.4310   46.0130 C   0  0  0  0  0  0  0  0  0  0  0  0
   56.2060   21.6320   45.4060 C   0  0  0  0  0  0  0  0  0  0  0  0
   57.2420   22.1880   46.1740 C   0  0  0  0  0  0  0  0  0  0  0  0
   58.5140   22.3710   45.6180 C   0  0  0  0  0  0  0  0  0  0  0  0
   58.7580   22.0050   44.2900 C   0  0  0  0  0  0  0  0  0  0  0  0
   59.9930   22.1770   43.7530 F   0  0  0  0  0  0  0  0  0  0  0  0
   57.7290   21.4540   43.5170 C   0  0  0  0  0  0  0  0  0  0  0  0
   56.4580   21.2660   44.0720 C   0  0  0  0  0  0  0  0  0  0  0  0
   54.4140   25.6670   45.9820 N   0  0  0  0  0  0  0  0  0  0  0  0
   55.2970   26.6070   46.2780 N   0  0  0  0  0  0  0  0  0  0  0  0
   57.7570   28.3750   45.2150 C   0  0  0  0  0  0  0  0  0  0  0  0
   58.9060   29.1660   45.3130 C   0  0  0  0  0  0  0  0  0  0  0  0
   60.3980   30.6950   48.0840 C   0  0  0  0  0  0  0  0  0  0  0  0
   60.5820   31.6490   49.0900 C   0  0  0  0  0  0  0  0  0  0  0  0
   60.7520   34.1750   52.2160 H   0  0  0  0  0  0  0  0  0  0  0  0
   60.0730   32.8980   51.3680 H   0  0  0  0  0  0  0  0  0  0  0  0
   63.6384   32.8623   48.1450 H   0  0  0  0  0  0  0  0  0  0  0  0
   63.3041   31.1689   46.3439 H   0  0  0  0  0  0  0  0  0  0  0  0
   60.8332   27.1046   47.2374 H   0  0  0  0  0  0  0  0  0  0  0  0
   58.7946   25.6825   47.0559 H   0  0  0  0  0  0  0  0  0  0  0  0
   57.1157   24.5391   44.4664 H   0  0  0  0  0  0  0  0  0  0  0  0
   54.9307   21.4446   47.1097 H   0  0  0  0  0  0  0  0  0  0  0  0
   54.4413   20.4624   45.6856 H   0  0  0  0  0  0  0  0  0  0  0  0
   57.0533   22.4811   47.2173 H   0  0  0  0  0  0  0  0  0  0  0  0
   59.3224   22.8031   46.2261 H   0  0  0  0  0  0  0  0  0  0  0  0
   57.9197   21.1684   42.4720 H   0  0  0  0  0  0  0  0  0  0  0  0
   55.6530   20.8302   43.4621 H   0  0  0  0  0  0  0  0  0  0  0  0
   56.8877   28.7438   44.6508 H   0  0  0  0  0  0  0  0  0  0  0  0
   58.9304   30.1548   44.8316 H   0  0  0  0  0  0  0  0  0  0  0  0
   59.4763   30.0951   48.0616 H   0  0  0  0  0  0  0  0  0  0  0  0
   59.8063   31.7942   49.8563 H   0  0  0  0  0  0  0  0  0  0  0  0
  1  2  1  0
  2  3  2  0
  2  4  2  0
  2  5  1  0
  5  6  2  0
  6  7  1  0
  7  8  2  0
  8  9  1  0
  9 10  1  0
 10 11  2  0
 11 12  1  0
 12 13  2  0
 13 14  1  0
 14 15  1  0
 15 16  2  0
 16 17  1  0
 17 18  2  0
 17 19  1  0
 19 20  1  0
 20 21  1  0
 21 22  2  0
 22 23  1  0
 23 24  2  0
 24 25  1  0
 24 26  1  0
 26 27  2  0
 16 28  1  0
 28 29  1  0
 13 30  1  0
 30 31  2  0
  8 32  1  0
 32 33  2  0
 33  5  1  0
 31 10  1  0
 29 14  2  0
 27 21  1  0
  1 34  1  0
  1 35  1  0
  6 36  1  0
  7 37  1  0
 11 38  1  0
 12 39  1  0
 15 40  1  0
 20 41  1  0
 20 42  1  0
 22 43  1  0
 23 44  1  0
 26 45  1  0
 27 46  1  0
 30 47  1  0
 31 48  1  0
 32 49  1  0
 33 50  1  0
M  CHG  2  19  -1  28  -1
M  END
>  <UniqueID>  (25) 
25

>  <SMILES>  (25) 
NS(=O)(=O)c1ccc(Oc2ccc(-c3cc(C(=O)[N-]Cc4ccc(F)cc4)[n-]n3)cc2)cc1

>  <Energy>  (25) 
87.12020543618736

>  <Genealogy>  (25) 
NS(=O)(=O)c1ccc(Oc2ccc(-c3cc(C(=O)[N-]Cc4ccc(F)cc4)[n-]n3)cc2)cc1 (protonated)
NS(=O)(=O)c1ccc(Oc2ccc(-c3cc(C(=O)[N-]Cc4ccc(F)cc4)[n-]n3)cc2)cc1 (3D coordinates assigned)
NS(=O)(=O)c1ccc(Oc2ccc(-c3cc(C(=O)[N-]Cc4ccc(F)cc4)[n-]n3)cc2)cc1 (optimized conformer: 87.12020543618736 kcal/mol)

>  <smiles>  (25) 
NS(=O)(=O)c1ccc(Oc2ccc(-c3cc(C(=O)NCc4ccc(F)cc4)[nH]n3)cc2)cc1

>  <score_type>  (25) 
oracle

>  <origin>  (25) 
adg

>  <m_score__min__energy>  (25) 
-12.19

>  <m_primary>  (25) 
energy

$$$$
25:0
     RDKit          3D

 49 51  0  0  0  0  0  0  0  0999 V2000
   62.4100   33.7990   46.6790 C   0  0  0  0  0  0  0  0  0  0  0  0
   61.5770   33.0500   47.7180 C   0  0  0  0  0  0  0  0  0  0  0  0
   60.2980   33.7310   47.9570 N   0  0  0  0  0  0  0  0  0  0  0  0
   59.6690   33.6310   49.2770 C   0  0  0  0  0  0  0  0  0  0  0  0
   59.5760   34.3850   46.8910 C   0  0  0  0  0  0  0  0  0  0  0  0
   59.6080   35.6430   46.8040 O   0  0  0  0  0  0  0  0  0  0  0  0
   58.8330   33.6370   45.9130 N   0  0  0  0  0  0  0  0  0  0  0  0
   58.3980   34.1090   44.7290 C   0  0  0  0  0  0  0  0  0  0  0  0
   57.7790   33.0840   44.0460 C   0  0  0  0  0  0  0  0  0  0  0  0
   57.8870   31.9930   44.8920 C   0  0  0  0  0  0  0  0  0  0  0  0
   57.4040   30.6260   44.6360 C   0  0  0  0  0  0  0  0  0  0  0  0
   56.1790   30.3730   44.7960 O   0  0  0  0  0  0  0  0  0  0  0  0
   58.2990   29.6030   44.1690 N   0  0  0  0  0  0  0  0  0  0  0  0
   57.9910   28.1980   44.1930 C   0  0  0  0  0  0  0  0  0  0  0  0
   58.0410   27.4620   43.0050 C   0  0  0  0  0  0  0  0  0  0  0  0
   57.7670   26.0920   43.0020 C   0  0  0  0  0  0  0  0  0  0  0  0
   57.4490   25.4080   44.1980 C   0  0  0  0  0  0  0  0  0  0  0  0
   57.1600   23.9750   44.1980 N   0  0  0  0  0  0  0  0  0  0  0  0
   56.6400   23.3420   42.9680 C   0  0  0  0  0  0  0  0  0  0  0  0
   56.4530   21.8270   43.0880 C   0  0  0  0  0  0  0  0  0  0  0  0
   55.9730   21.4770   44.3640 O   0  0  0  0  0  0  0  0  0  0  0  0
   56.9940   21.7170   45.3030 C   0  0  0  0  0  0  0  0  0  0  0  0
   57.2510   23.2170   45.4650 C   0  0  0  0  0  0  0  0  0  0  0  0
   57.4200   26.1620   45.3940 C   0  0  0  0  0  0  0  0  0  0  0  0
   57.6940   27.5330   45.3910 C   0  0  0  0  0  0  0  0  0  0  0  0
   58.5410   32.3510   46.0150 N   0  0  0  0  0  0  0  0  0  0  0  0
   63.1343   34.4503   47.1900 H   0  0  0  0  0  0  0  0  0  0  0  0
   62.9482   33.0751   46.0495 H   0  0  0  0  0  0  0  0  0  0  0  0
   61.7472   34.4108   46.0495 H   0  0  0  0  0  0  0  0  0  0  0  0
   61.3795   32.0309   47.3541 H   0  0  0  0  0  0  0  0  0  0  0  0
   62.1398   33.0194   48.6626 H   0  0  0  0  0  0  0  0  0  0  0  0
   60.4341   33.7526   50.0579 H   0  0  0  0  0  0  0  0  0  0  0  0
   58.9094   34.4197   49.3819 H   0  0  0  0  0  0  0  0  0  0  0  0
   59.1914   32.6457   49.3819 H   0  0  0  0  0  0  0  0  0  0  0  0
   58.5169   35.1409   44.3671 H   0  0  0  0  0  0  0  0  0  0  0  0
   57.3062   33.1237   43.0536 H   0  0  0  0  0  0  0  0  0  0  0  0
   59.1810   29.8980   43.6940 H   0  0  0  0  0  0  0  0  0  0  0  0
   58.2989   27.9672   42.0625 H   0  0  0  0  0  0  0  0  0  0  0  0
   57.7992   25.5361   42.0533 H   0  0  0  0  0  0  0  0  0  0  0  0
   55.6661   23.7944   42.7295 H   0  0  0  0  0  0  0  0  0  0  0  0
   57.3863   23.5125   42.1781 H   0  0  0  0  0  0  0  0  0  0  0  0
   55.7315   21.4924   42.3281 H   0  0  0  0  0  0  0  0  0  0  0  0
   57.4277   21.3406   42.9349 H   0  0  0  0  0  0  0  0  0  0  0  0
   56.6949   21.2966   46.2745 H   0  0  0  0  0  0  0  0  0  0  0  0
   57.9182   21.2406   44.9441 H   0  0  0  0  0  0  0  0  0  0  0  0
   56.5078   23.6231   46.1670 H   0  0  0  0  0  0  0  0  0  0  0  0
   58.2812   23.3291   45.8340 H   0  0  0  0  0  0  0  0  0  0  0  0
   57.1777   25.6612   46.3430 H   0  0  0  0  0  0  0  0  0  0  0  0
   57.6764   28.0947   46.3366 H   0  0  0  0  0  0  0  0  0  0  0  0
  1  2  1  0
  2  3  1  0
  3  4  1  0
  3  5  1  0
  5  6  2  0
  5  7  1  0
  7  8  1  0
  8  9  2  0
  9 10  1  0
 10 11  1  0
 11 12  2  0
 11 13  1  0
 13 14  1  0
 14 15  2  0
 15 16  1  0
 16 17  2  0
 17 18  1  0
 18 19  1  0
 19 20  1  0
 20 21  1  0
 21 22  1  0
 22 23  1  0
 17 24  1  0
 24 25  2  0
 10 26  2  0
 26  7  1  0
 25 14  1  0
 23 18  1  0
  1 27  1  0
  1 28  1  0
  1 29  1  0
  2 30  1  0
  2 31  1  0
  4 32  1  0
  4 33  1  0
  4 34  1  0
  8 35  1  0
  9 36  1  0
 13 37  1  0
 15 38  1  0
 16 39  1  0
 19 40  1  0
 19 41  1  0
 20 42  1  0
 20 43  1  0
 22 44  1  0
 22 45  1  0
 23 46  1  0
 23 47  1  0
 24 48  1  0
 25 49  1  0
M  END
>  <UniqueID>  (26) 
26

>  <SMILES>  (26) 
CCN(C)C(=O)n1ccc(C(=O)Nc2ccc(N3CCOCC3)cc2)n1

>  <Energy>  (26) 
88.88899428742904

>  <Genealogy>  (26) 
CCN(C)C(=O)n1ccc(C(=O)Nc2ccc(N3CCOCC3)cc2)n1 (3D coordinates assigned)
CCN(C)C(=O)n1ccc(C(=O)Nc2ccc(N3CCOCC3)cc2)n1 (nonaromatic ring conformer: 88.88899428742904 kcal/mol)

>  <smiles>  (26) 
CCN(C)C(=O)n1ccc(C(=O)Nc2ccc(N3CCOCC3)cc2)n1

>  <score_type>  (26) 
oracle

>  <origin>  (26) 
adg

>  <m_score__min__energy>  (26) 
-8.0399999999999991

>  <m_primary>  (26) 
energy

$$$$
26:0
     RDKit          3D

 62 65  0  0  0  0  0  0  0  0999 V2000
   60.8120   28.1790   45.5050 C   0  0  0  0  0  0  0  0  0  0  0  0
   59.5710   27.3720   45.6150 C   0  0  0  0  0  0  0  0  0  0  0  0
   59.6510   26.0490   46.0110 C   0  0  0  0  0  0  0  0  0  0  0  0
   58.5180   25.2940   46.1170 C   0  0  0  0  0  0  0  0  0  0  0  0
   57.2810   25.8490   45.8290 C   0  0  0  0  0  0  0  0  0  0  0  0
   55.8870   24.8060   45.9980 S   0  0  0  0  0  0  0  0  0  0  0  0
   55.7670   24.3530   47.4030 O   0  0  0  0  0  0  0  0  0  0  0  0
   54.6800   25.6000   45.6240 O   0  0  0  0  0  0  0  0  0  0  0  0
   56.0490   23.4980   44.9080 N   0  0  0  0  0  0  0  0  0  0  0  0
   56.8970   22.4480   45.3880 C   0  0  0  0  0  0  0  0  0  0  0  0
   56.6750   21.2430   44.4970 C   0  0  0  0  0  0  0  0  0  0  0  0
   56.7030   21.5240   43.0410 C   0  0  0  0  0  0  0  0  0  0  0  0
   56.1340   22.8600   42.6360 C   0  0  0  0  0  0  0  0  0  0  0  0
   56.5910   23.9110   43.6260 C   0  0  0  0  0  0  0  0  0  0  0  0
   57.1800   27.1730   45.4310 C   0  0  0  0  0  0  0  0  0  0  0  0
   58.3450   27.9380   45.3250 C   0  0  0  0  0  0  0  0  0  0  0  0
   58.2830   29.2940   44.9180 N   0  0  0  0  0  0  0  0  0  0  0  0
   58.4280   30.2840   45.9280 C   0  0  0  0  0  0  0  0  0  0  0  0
   58.6000   29.9080   47.1190 O   0  0  0  0  0  0  0  0  0  0  0  0
   58.3880   31.7160   45.6620 C   0  0  0  0  0  0  0  0  0  0  0  0
   57.8420   32.1410   44.4770 C   0  0  0  0  0  0  0  0  0  0  0  0
   57.7460   33.4720   44.1120 C   0  0  0  0  0  0  0  0  0  0  0  0
   58.2350   34.4040   45.0060 C   0  0  0  0  0  0  0  0  0  0  0  0
   58.7880   33.9880   46.2050 C   0  0  0  0  0  0  0  0  0  0  0  0
   59.2860   35.0800   47.1040 C   0  0  0  0  0  0  0  0  0  0  0  0
   60.4600   34.5220   47.8290 C   0  0  0  0  0  0  0  0  0  0  0  0
   61.5180   34.0900   47.0260 C   0  0  0  0  0  0  0  0  0  0  0  0
   62.6470   33.5600   47.6070 C   0  0  0  0  0  0  0  0  0  0  0  0
   63.7610   33.1070   46.7330 C   0  0  0  0  0  0  0  0  0  0  0  0
   62.6880   33.4740   48.9860 C   0  0  0  0  0  0  0  0  0  0  0  0
   63.7130   32.9910   49.5380 O   0  0  0  0  0  0  0  0  0  0  0  0
   61.6380   33.9050   49.7300 N   0  0  0  0  0  0  0  0  0  0  0  0
   60.5430   34.4200   49.1550 N   0  0  0  0  0  0  0  0  0  0  0  0
   58.8730   32.6550   46.5480 C   0  0  0  0  0  0  0  0  0  0  0  0
   61.1830   28.4202   46.5121 H   0  0  0  0  0  0  0  0  0  0  0  0
   61.5760   27.6044   44.9607 H   0  0  0  0  0  0  0  0  0  0  0  0
   60.5967   29.1103   44.9607 H   0  0  0  0  0  0  0  0  0  0  0  0
   60.6302   25.6038   46.2412 H   0  0  0  0  0  0  0  0  0  0  0  0
   58.5873   24.2423   46.4319 H   0  0  0  0  0  0  0  0  0  0  0  0
   57.9498   22.7630   45.3389 H   0  0  0  0  0  0  0  0  0  0  0  0
   56.6606   22.2058   46.4346 H   0  0  0  0  0  0  0  0  0  0  0  0
   57.4619   20.5066   44.7172 H   0  0  0  0  0  0  0  0  0  0  0  0
   55.6608   20.8798   44.7197 H   0  0  0  0  0  0  0  0  0  0  0  0
   57.7501   21.4841   42.7064 H   0  0  0  0  0  0  0  0  0  0  0  0
   56.0631   20.7633   42.5701 H   0  0  0  0  0  0  0  0  0  0  0  0
   56.4900   23.1225   41.6288 H   0  0  0  0  0  0  0  0  0  0  0  0
   55.0352   22.8092   42.6286 H   0  0  0  0  0  0  0  0  0  0  0  0
   57.6896   23.9485   43.6672 H   0  0  0  0  0  0  0  0  0  0  0  0
   56.2465   24.9163   43.3420 H   0  0  0  0  0  0  0  0  0  0  0  0
   56.1988   27.6145   45.2023 H   0  0  0  0  0  0  0  0  0  0  0  0
   58.1380   29.5970   43.9300 H   0  0  0  0  0  0  0  0  0  0  0  0
   57.4596   31.3817   43.7789 H   0  0  0  0  0  0  0  0  0  0  0  0
   57.3002   33.7743   43.1529 H   0  0  0  0  0  0  0  0  0  0  0  0
   58.1851   35.4762   44.7656 H   0  0  0  0  0  0  0  0  0  0  0  0
   59.5864   35.9554   46.5095 H   0  0  0  0  0  0  0  0  0  0  0  0
   58.5038   35.4094   47.8038 H   0  0  0  0  0  0  0  0  0  0  0  0
   61.4488   34.1733   45.9313 H   0  0  0  0  0  0  0  0  0  0  0  0
   64.6006   32.7656   47.3564 H   0  0  0  0  0  0  0  0  0  0  0  0
   63.4150   32.2781   46.0980 H   0  0  0  0  0  0  0  0  0  0  0  0
   64.0917   33.9421   46.0980 H   0  0  0  0  0  0  0  0  0  0  0  0
   61.7360   33.8110   50.7640 H   0  0  0  0  0  0  0  0  0  0  0  0
   59.3174   32.3478   47.5062 H   0  0  0  0  0  0  0  0  0  0  0  0
  1  2  1  0
  2  3  2  0
  3  4  1  0
  4  5  2  0
  5  6  1  0
  6  7  2  0
  6  8  2  0
  6  9  1  0
  9 10  1  0
 10 11  1  0
 11 12  1  0
 12 13  1  0
 13 14  1  0
  5 15  1  0
 15 16  2  0
 16 17  1  0
 17 18  1  0
 18 19  2  0
 18 20  1  0
 20 21  2  0
 21 22  1  0
 22 23  2  0
 23 24  1  0
 24 25  1  0
 25 26  1  0
 26 27  1  0
 27 28  2  0
 28 29  1  0
 28 30  1  0
 30 31  2  0
 30 32  1  0
 32 33  1  0
 24 34  2  0
 16  2  1  0
 34 20  1  0
 14  9  1  0
 33 26  2  0
  1 35  1  0
  1 36  1  0
  1 37  1  0
  3 38  1  0
  4 39  1  0
 10 40  1  0
 10 41  1  0
 11 42  1  0
 11 43  1  0
 12 44  1  0
 12 45  1  0
 13 46  1  0
 13 47  1  0
 14 48  1  0
 14 49  1  0
 15 50  1  0
 17 51  1  0
 21 52  1  0
 22 53  1  0
 23 54  1  0
 25 55  1  0
 25 56  1  0
 27 57  1  0
 29 58  1  0
 29 59  1  0
 29 60  1  0
 32 61  1  0
 34 62  1  0
M  END
>  <smiles>  (27) 
Cc1ccc(S(=O)(=O)N2CCCCC2)cc1NC(=O)c1cccc(Cc2cc(C)c(=O)[nH]n2)c1

>  <score_type>  (27) 
oracle

>  <origin>  (27) 
adg

>  <m_score__min__energy>  (27) 
-11.300000000000001

>  <m_primary>  (27) 
energy

$$$$
27:0
     RDKit          3D

 56 58  0  0  0  0  0  0  0  0999 V2000
   59.7830   27.0050   46.6280 C   0  0  0  0  0  0  0  0  0  0  0  0
   59.5050   28.3560   46.1110 N   0  0  0  0  0  0  0  0  0  0  0  0
   58.1330   28.8060   46.4200 C   0  0  0  0  0  0  0  0  0  0  0  0
   57.0740   28.1720   45.4960 C   0  0  0  0  0  0  0  0  0  0  0  0
   57.3940   28.3290   44.0570 N   0  0  0  0  0  0  0  0  0  0  0  0
   57.2060   29.7160   43.5500 C   0  0  0  0  0  0  0  0  0  0  0  0
   57.9350   30.7670   44.4120 C   0  0  0  0  0  0  0  0  0  0  0  0
   58.1440   32.0760   43.6180 C   0  0  0  0  0  0  0  0  0  0  0  0
   58.0410   33.3060   44.4360 N   0  0  0  0  0  0  0  0  0  0  0  0
   57.0180   33.2530   45.5060 C   0  0  0  0  0  0  0  0  0  0  0  0
   57.6570   33.1600   46.8970 C   0  0  0  0  0  0  0  0  0  0  0  0
   58.5210   34.3280   47.1750 N   0  0  0  0  0  0  0  0  0  0  0  0
   59.6820   33.9270   48.4180 S   0  0  0  0  0  0  0  0  0  0  0  0
   59.6380   34.9600   49.5100 O   0  0  0  0  0  0  0  0  0  0  0  0
   61.0650   33.9130   47.8270 O   0  0  0  0  0  0  0  0  0  0  0  0
   59.3000   32.3450   49.1120 C   0  0  0  0  0  0  0  0  0  0  0  0
   58.4360   32.2660   50.2170 C   0  0  0  0  0  0  0  0  0  0  0  0
   58.1340   31.0290   50.7940 C   0  0  0  0  0  0  0  0  0  0  0  0
   56.9600   30.9380   52.2970 Br  0  0  0  0  0  0  0  0  0  0  0  0
   58.6930   29.8600   50.2730 C   0  0  0  0  0  0  0  0  0  0  0  0
   59.5570   29.9270   49.1780 C   0  0  0  0  0  0  0  0  0  0  0  0
   59.8660   31.1610   48.5930 C   0  0  0  0  0  0  0  0  0  0  0  0
   61.0750   31.1690   47.1020 Br  0  0  0  0  0  0  0  0  0  0  0  0
   59.1940   34.8820   45.9760 C   0  0  0  0  0  0  0  0  0  0  0  0
   59.3540   33.8430   44.8570 C   0  0  0  0  0  0  0  0  0  0  0  0
   58.7570   27.8270   43.7780 C   0  0  0  0  0  0  0  0  0  0  0  0
   59.8190   28.4880   44.6750 C   0  0  0  0  0  0  0  0  0  0  0  0
   59.7788   27.0252   47.7278 H   0  0  0  0  0  0  0  0  0  0  0  0
   59.0092   26.3094   46.2711 H   0  0  0  0  0  0  0  0  0  0  0  0
   60.7686   26.6715   46.2711 H   0  0  0  0  0  0  0  0  0  0  0  0
   57.8999   28.5343   47.4601 H   0  0  0  0  0  0  0  0  0  0  0  0
   58.0987   29.8945   46.2651 H   0  0  0  0  0  0  0  0  0  0  0  0
   57.0062   27.0983   45.7251 H   0  0  0  0  0  0  0  0  0  0  0  0
   56.1221   28.6915   45.6805 H   0  0  0  0  0  0  0  0  0  0  0  0
   56.7400   27.7060   43.5250 H   0  0  0  0  0  0  0  0  0  0  0  0
   57.5956   29.7714   42.5228 H   0  0  0  0  0  0  0  0  0  0  0  0
   56.1301   29.9417   43.5888 H   0  0  0  0  0  0  0  0  0  0  0  0
   57.3326   30.9802   45.3074 H   0  0  0  0  0  0  0  0  0  0  0  0
   58.9186   30.3673   44.6996 H   0  0  0  0  0  0  0  0  0  0  0  0
   59.1451   32.0473   43.1631 H   0  0  0  0  0  0  0  0  0  0  0  0
   57.3375   32.1247   42.8716 H   0  0  0  0  0  0  0  0  0  0  0  0
   56.4027   34.1635   45.4564 H   0  0  0  0  0  0  0  0  0  0  0  0
   56.4042   32.3537   45.3496 H   0  0  0  0  0  0  0  0  0  0  0  0
   56.8604   33.1162   47.6543 H   0  0  0  0  0  0  0  0  0  0  0  0
   58.2796   32.2538   46.9313 H   0  0  0  0  0  0  0  0  0  0  0  0
   57.9939   33.1842   50.6312 H   0  0  0  0  0  0  0  0  0  0  0  0
   58.4527   28.8865   50.7252 H   0  0  0  0  0  0  0  0  0  0  0  0
   59.9977   29.0043   48.7724 H   0  0  0  0  0  0  0  0  0  0  0  0
   58.5968   35.7229   45.5935 H   0  0  0  0  0  0  0  0  0  0  0  0
   60.2013   35.2047   46.2781 H   0  0  0  0  0  0  0  0  0  0  0  0
   59.8415   34.3180   43.9929 H   0  0  0  0  0  0  0  0  0  0  0  0
   59.9655   33.0115   45.2375 H   0  0  0  0  0  0  0  0  0  0  0  0
   58.7757   26.7406   43.9497 H   0  0  0  0  0  0  0  0  0  0  0  0
   58.9987   28.0734   42.7335 H   0  0  0  0  0  0  0  0  0  0  0  0
   60.7913   28.0115   44.4809 H   0  0  0  0  0  0  0  0  0  0  0  0
   59.8402   29.5611   44.4340 H   0  0  0  0  0  0  0  0  0  0  0  0
  1  2  1  0
  2  3  1  0
  3  4  1  0
  4  5  1  0
  5  6  1  0
  6  7  1  0
  7  8  1  0
  8  9  1  0
  9 10  1  0
 10 11  1  0
 11 12  1  0
 12 13  1  0
 13 14  2  0
 13 15  2  0
 13 16  1  0
 16 17  2  0
 17 18  1  0
 18 19  1  0
 18 20  2  0
 20 21  1  0
 21 22  2  0
 22 23  1  0
 12 24  1  0
 24 25  1  0
  5 26  1  0
 26 27  1  0
 27  2  1  0
 25  9  1  0
 22 16  1  0
  1 28  1  0
  1 29  1  0
  1 30  1  0
  3 31  1  0
  3 32  1  0
  4 33  1  0
  4 34  1  0
  5 35  1  0
  6 36  1  0
  6 37  1  0
  7 38  1  0
  7 39  1  0
  8 40  1  0
  8 41  1  0
 10 42  1  0
 10 43  1  0
 11 44  1  0
 11 45  1  0
 17 46  1  0
 20 47  1  0
 21 48  1  0
 24 49  1  0
 24 50  1  0
 25 51  1  0
 25 52  1  0
 26 53  1  0
 26 54  1  0
 27 55  1  0
 27 56  1  0
M  CHG  1   5   1
M  END
>  <UniqueID>  (28) 
27

>  <SMILES>  (28) 
CN1CC[NH+](CCCN2CCN(S(=O)(=O)c3cc(Br)ccc3Br)CC2)CC1

>  <Energy>  (28) 
75.69832142083831

>  <Genealogy>  (28) 
CN1CC[NH+](CCCN2CCN(S(=O)(=O)c3cc(Br)ccc3Br)CC2)CC1 (protonated)
CN1CC[NH+](CCCN2CCN(S(=O)(=O)c3cc(Br)ccc3Br)CC2)CC1 (3D coordinates assigned)
CN1CC[NH+](CCCN2CCN(S(=O)(=O)c3cc(Br)ccc3Br)CC2)CC1 (nonaromatic ring conformer: 75.69832142083831 kcal/mol)

>  <smiles>  (28) 
CN1CCN(CCCN2CCN(S(=O)(=O)c3cc(Br)ccc3Br)CC2)CC1

>  <score_type>  (28) 
oracle

>  <origin>  (28) 
adg

>  <m_score__min__energy>  (28) 
-7.7800000000000002

>  <m_primary>  (28) 
energy

$$$$
28:0
     RDKit          3D

 77 82  0  0  0  0  0  0  0  0999 V2000
   61.3480   33.5060   52.1950 C   0  0  0  0  0  0  0  0  0  0  0  0
   62.0270   33.2910   50.8960 N   0  0  0  0  0  0  0  0  0  0  0  0
   63.2750   32.7230   50.8740 C   0  0  0  0  0  0  0  0  0  0  0  0
   63.8370   32.3600   51.9440 O   0  0  0  0  0  0  0  0  0  0  0  0
   63.9440   32.5230   49.6610 C   0  0  0  0  0  0  0  0  0  0  0  0
   65.0940   31.9940   49.6840 O   0  0  0  0  0  0  0  0  0  0  0  0
   63.3690   32.8910   48.4750 N   0  0  0  0  0  0  0  0  0  0  0  0
   64.0980   32.6720   47.2080 C   0  0  0  0  0  0  0  0  0  0  0  0
   62.1080   33.4610   48.4760 C   0  0  0  0  0  0  0  0  0  0  0  0
   61.4810   33.8720   47.2730 C   0  0  0  0  0  0  0  0  0  0  0  0
   60.1960   34.4240   47.2770 C   0  0  0  0  0  0  0  0  0  0  0  0
   59.4380   34.9310   45.7660 S   0  0  0  0  0  0  0  0  0  0  0  0
   60.0850   34.2170   44.6100 O   0  0  0  0  0  0  0  0  0  0  0  0
   59.6600   36.4090   45.5900 O   0  0  0  0  0  0  0  0  0  0  0  0
   57.7190   34.5910   45.8300 N   0  0  0  0  0  0  0  0  0  0  0  0
   57.3920   33.5740   46.8500 C   0  0  0  0  0  0  0  0  0  0  0  0
   57.7720   32.1810   46.4240 C   0  0  0  0  0  0  0  0  0  0  0  0
   57.9050   31.2840   47.3070 O   0  0  0  0  0  0  0  0  0  0  0  0
   57.9050   31.8540   45.0280 N   0  0  0  0  0  0  0  0  0  0  0  0
   58.2660   30.4930   44.6110 C   0  0  0  0  0  0  0  0  0  0  0  0
   58.8980   29.7490   45.7590 C   0  0  0  0  0  0  0  0  0  0  0  0
   58.2410   28.6560   46.3410 C   0  0  0  0  0  0  0  0  0  0  0  0
   58.8380   27.9430   47.3830 C   0  0  0  0  0  0  0  0  0  0  0  0
   60.1180   28.2940   47.8380 C   0  0  0  0  0  0  0  0  0  0  0  0
   60.7520   27.5150   48.9190 C   0  0  0  0  0  0  0  0  0  0  0  0
   61.1270   26.3360   48.6710 O   0  0  0  0  0  0  0  0  0  0  0  0
   60.9680   28.0750   50.2340 N   0  0  0  0  0  0  0  0  0  0  0  0
   61.0380   27.1790   51.4020 C   0  0  0  0  0  0  0  0  0  0  0  0
   61.6130   27.8990   52.6340 C   0  0  0  0  0  0  0  0  0  0  0  0
   62.7510   28.7340   52.2310 N   0  0  0  0  0  0  0  0  0  0  0  0
   63.9210   28.8310   53.0610 C   0  0  0  0  0  0  0  0  0  0  0  0
   64.1080   29.8800   53.7380 O   0  0  0  0  0  0  0  0  0  0  0  0
   65.0280   27.8090   53.0160 C   0  0  0  0  0  0  0  0  0  0  0  0
   64.7240   26.6620   52.0670 C   0  0  0  0  0  0  0  0  0  0  0  0
   65.8390   27.6370   51.7410 C   0  0  0  0  0  0  0  0  0  0  0  0
   62.5850   29.7000   51.1350 C   0  0  0  0  0  0  0  0  0  0  0  0
   61.2470   29.5100   50.4080 C   0  0  0  0  0  0  0  0  0  0  0  0
   60.7740   29.3960   47.2630 C   0  0  0  0  0  0  0  0  0  0  0  0
   60.1650   30.1220   46.2350 C   0  0  0  0  0  0  0  0  0  0  0  0
   57.6430   32.8850   44.0540 C   0  0  0  0  0  0  0  0  0  0  0  0
   57.7610   32.6500   42.8210 O   0  0  0  0  0  0  0  0  0  0  0  0
   57.1770   34.2370   44.5060 C   0  0  0  0  0  0  0  0  0  0  0  0
   59.5040   34.5530   48.4770 C   0  0  0  0  0  0  0  0  0  0  0  0
   60.0980   34.1700   49.6770 C   0  0  0  0  0  0  0  0  0  0  0  0
   61.4150   33.6400   49.7090 C   0  0  0  0  0  0  0  0  0  0  0  0
   62.0469   33.2847   53.0151 H   0  0  0  0  0  0  0  0  0  0  0  0
   61.0176   34.5527   52.2672 H   0  0  0  0  0  0  0  0  0  0  0  0
   60.4753   32.8402   52.2672 H   0  0  0  0  0  0  0  0  0  0  0  0
   65.1302   32.3619   47.4278 H   0  0  0  0  0  0  0  0  0  0  0  0
   63.5947   31.8854   46.6266 H   0  0  0  0  0  0  0  0  0  0  0  0
   64.1115   33.6057   46.6266 H   0  0  0  0  0  0  0  0  0  0  0  0
   62.0151   33.7546   46.3185 H   0  0  0  0  0  0  0  0  0  0  0  0
   57.9323   33.8184   47.7765 H   0  0  0  0  0  0  0  0  0  0  0  0
   56.3022   33.5905   46.9983 H   0  0  0  0  0  0  0  0  0  0  0  0
   57.3602   29.9597   44.2867 H   0  0  0  0  0  0  0  0  0  0  0  0
   58.9848   30.5502   43.7803 H   0  0  0  0  0  0  0  0  0  0  0  0
   57.2478   28.3576   45.9743 H   0  0  0  0  0  0  0  0  0  0  0  0
   58.3024   27.1027   47.8489 H   0  0  0  0  0  0  0  0  0  0  0  0
   60.0252   26.8206   51.6383 H   0  0  0  0  0  0  0  0  0  0  0  0
   61.7033   26.3394   51.1523 H   0  0  0  0  0  0  0  0  0  0  0  0
   60.8348   28.5333   53.0834 H   0  0  0  0  0  0  0  0  0  0  0  0
   61.9500   27.1527   53.3685 H   0  0  0  0  0  0  0  0  0  0  0  0
   65.3222   27.9483   54.0667 H   0  0  0  0  0  0  0  0  0  0  0  0
   64.9648   25.6290   52.3583 H   0  0  0  0  0  0  0  0  0  0  0  0
   63.8257   26.3050   51.5420 H   0  0  0  0  0  0  0  0  0  0  0  0
   66.8882   27.3111   51.7964 H   0  0  0  0  0  0  0  0  0  0  0  0
   66.0838   28.2796   50.8824 H   0  0  0  0  0  0  0  0  0  0  0  0
   62.6243   30.7185   51.5486 H   0  0  0  0  0  0  0  0  0  0  0  0
   63.3954   29.5374   50.4092 H   0  0  0  0  0  0  0  0  0  0  0  0
   60.4419   29.9684   51.0010 H   0  0  0  0  0  0  0  0  0  0  0  0
   61.3017   29.9897   49.4196 H   0  0  0  0  0  0  0  0  0  0  0  0
   61.7712   29.6887   47.6235 H   0  0  0  0  0  0  0  0  0  0  0  0
   60.6809   30.9893   45.7972 H   0  0  0  0  0  0  0  0  0  0  0  0
   57.5061   34.9895   43.7743 H   0  0  0  0  0  0  0  0  0  0  0  0
   56.0800   34.2114   44.5826 H   0  0  0  0  0  0  0  0  0  0  0  0
   58.4820   34.9598   48.4780 H   0  0  0  0  0  0  0  0  0  0  0  0
   59.5370   34.2800   50.6168 H   0  0  0  0  0  0  0  0  0  0  0  0
  1  2  1  0
  2  3  1  0
  3  4  2  0
  3  5  1  0
  5  6  2  0
  5  7  1  0
  7  8  1  0
  7  9  1  0
  9 10  2  0
 10 11  1  0
 11 12  1  0
 12 13  2  0
 12 14  2  0
 12 15  1  0
 15 16  1  0
 16 17  1  0
 17 18  2  0
 17 19  1  0
 19 20  1  0
 20 21  1  0
 21 22  2  0
 22 23  1  0
 23 24  2  0
 24 25  1  0
 25 26  2  0
 25 27  1  0
 27 28  1  0
 28 29  1  0
 29 30  1  0
 30 31  1  0
 31 32  2  0
 31 33  1  0
 33 34  1  0
 34 35  1  0
 30 36  1  0
 36 37  1  0
 24 38  1  0
 38 39  2  0
 19 40  1  0
 40 41  2  0
 40 42  1  0
 11 43  2  0
 43 44  1  0
 44 45  2  0
 45  2  1  0
 45  9  1  0
 42 15  1  0
 39 21  1  0
 37 27  1  0
 35 33  1  0
  1 46  1  0
  1 47  1  0
  1 48  1  0
  8 49  1  0
  8 50  1  0
  8 51  1  0
 10 52  1  0
 16 53  1  0
 16 54  1  0
 20 55  1  0
 20 56  1  0
 22 57  1  0
 23 58  1  0
 28 59  1  0
 28 60  1  0
 29 61  1  0
 29 62  1  0
 33 63  1  0
 34 64  1  0
 34 65  1  0
 35 66  1  0
 35 67  1  0
 36 68  1  0
 36 69  1  0
 37 70  1  0
 37 71  1  0
 38 72  1  0
 39 73  1  0
 42 74  1  0
 42 75  1  0
 43 76  1  0
 44 77  1  0
M  END
>  <UniqueID>  (29) 
28

>  <SMILES>  (29) 
Cn1c(=O)c(=O)n(C)c2cc(S(=O)(=O)N3CC(=O)N(Cc4ccc(C(=O)N5CCN(C(=O)C6CC6)CC5)cc4)C(=O)C3)ccc21

>  <Energy>  (29) 
379.38851705616804

>  <Genealogy>  (29) 
Cn1c(=O)c(=O)n(C)c2cc(S(=O)(=O)N3CC(=O)N(Cc4ccc(C(=O)N5CCN(C(=O)C6CC6)CC5)cc4)C(=O)C3)ccc21 (3D coordinates assigned)
Cn1c(=O)c(=O)n(C)c2cc(S(=O)(=O)N3CC(=O)N(Cc4ccc(C(=O)N5CCN(C(=O)C6CC6)CC5)cc4)C(=O)C3)ccc21 (nonaromatic ring conformer: 379.38851705616804 kcal/mol)

>  <smiles>  (29) 
Cn1c(=O)c(=O)n(C)c2cc(S(=O)(=O)N3CC(=O)N(Cc4ccc(C(=O)N5CCN(C(=O)C6CC6)CC5)cc4)C(=O)C3)ccc21

>  <score_type>  (29) 
oracle

>  <origin>  (29) 
adg

>  <m_score__min__energy>  (29) 
-10.17

>  <m_primary>  (29) 
energy

$$$$
29:0
     RDKit          3D

 60 64  0  0  0  0  0  0  0  0999 V2000
   59.3330   25.8960   45.9440 C   0  0  0  0  0  0  0  0  0  0  0  0
   58.6290   27.0340   46.0050 C   0  0  0  0  0  0  0  0  0  0  0  0
   57.7630   27.4890   45.0280 C   0  0  0  0  0  0  0  0  0  0  0  0
   57.2420   28.6780   45.5160 C   0  0  0  0  0  0  0  0  0  0  0  0
   56.2470   29.5420   44.8510 C   0  0  0  0  0  0  0  0  0  0  0  0
   55.1490   29.0420   44.4990 O   0  0  0  0  0  0  0  0  0  0  0  0
   56.5210   30.9140   44.5240 N   0  0  0  0  0  0  0  0  0  0  0  0
   57.5150   31.7430   45.1520 C   0  0  0  0  0  0  0  0  0  0  0  0
   57.2150   33.0910   45.3940 C   0  0  0  0  0  0  0  0  0  0  0  0
   58.1660   33.9340   45.9780 C   0  0  0  0  0  0  0  0  0  0  0  0
   59.4230   33.4310   46.3490 C   0  0  0  0  0  0  0  0  0  0  0  0
   60.4740   34.3470   46.9300 C   0  0  0  0  0  0  0  0  0  0  0  0
   61.5460   33.5750   47.5690 N   0  0  0  0  0  0  0  0  0  0  0  0
   62.8560   33.4890   47.2040 C   0  0  0  0  0  0  0  0  0  0  0  0
   63.4580   34.2040   46.0310 C   0  0  0  0  0  0  0  0  0  0  0  0
   63.5740   32.6830   48.0260 N   0  0  0  0  0  0  0  0  0  0  0  0
   62.6800   32.2600   48.9370 C   0  0  0  0  0  0  0  0  0  0  0  0
   62.8950   31.4150   50.0200 C   0  0  0  0  0  0  0  0  0  0  0  0
   61.7950   31.1200   50.8470 C   0  0  0  0  0  0  0  0  0  0  0  0
   60.5130   31.6680   50.5750 C   0  0  0  0  0  0  0  0  0  0  0  0
   59.3950   31.3450   51.4230 N   0  0  0  0  0  0  0  0  0  0  0  0
   58.2170   32.2190   51.4560 C   0  0  0  0  0  0  0  0  0  0  0  0
   57.0380   31.5130   52.1440 C   0  0  0  0  0  0  0  0  0  0  0  0
   56.9630   30.1060   51.7200 N   0  0  0  0  0  0  0  0  0  0  0  0
   58.1490   29.3220   52.1250 C   0  0  0  0  0  0  0  0  0  0  0  0
   59.4320   30.1620   52.2930 C   0  0  0  0  0  0  0  0  0  0  0  0
   60.3360   32.5160   49.4560 C   0  0  0  0  0  0  0  0  0  0  0  0
   61.4530   32.7920   48.6630 C   0  0  0  0  0  0  0  0  0  0  0  0
   59.7130   32.0730   46.1280 C   0  0  0  0  0  0  0  0  0  0  0  0
   58.7650   31.2350   45.5390 C   0  0  0  0  0  0  0  0  0  0  0  0
   57.7470   28.9350   46.7070 O   0  0  0  0  0  0  0  0  0  0  0  0
   58.5830   27.9730   47.0330 C   0  0  0  0  0  0  0  0  0  0  0  0
   59.2560   27.9550   48.1870 C   0  0  0  0  0  0  0  0  0  0  0  0
   59.9991   25.6162   46.7735 H   0  0  0  0  0  0  0  0  0  0  0  0
   59.2451   25.2413   45.0644 H   0  0  0  0  0  0  0  0  0  0  0  0
   57.5350   27.0085   44.0651 H   0  0  0  0  0  0  0  0  0  0  0  0
   56.2256   33.4880   45.1229 H   0  0  0  0  0  0  0  0  0  0  0  0
   57.9282   34.9946   46.1472 H   0  0  0  0  0  0  0  0  0  0  0  0
   60.9031   34.9600   46.1237 H   0  0  0  0  0  0  0  0  0  0  0  0
   60.0013   34.9873   47.6893 H   0  0  0  0  0  0  0  0  0  0  0  0
   64.1276   34.9992   46.3905 H   0  0  0  0  0  0  0  0  0  0  0  0
   64.0310   33.4901   45.4211 H   0  0  0  0  0  0  0  0  0  0  0  0
   62.6569   34.6470   45.4211 H   0  0  0  0  0  0  0  0  0  0  0  0
   64.5910   32.4480   47.9680 H   0  0  0  0  0  0  0  0  0  0  0  0
   63.8898   30.9919   50.2233 H   0  0  0  0  0  0  0  0  0  0  0  0
   61.9297   30.4571   51.7144 H   0  0  0  0  0  0  0  0  0  0  0  0
   58.4629   33.1362   52.0113 H   0  0  0  0  0  0  0  0  0  0  0  0
   57.9291   32.4648   50.4232 H   0  0  0  0  0  0  0  0  0  0  0  0
   57.1765   31.5558   53.2344 H   0  0  0  0  0  0  0  0  0  0  0  0
   56.1042   32.0208   51.8607 H   0  0  0  0  0  0  0  0  0  0  0  0
   56.8830   30.0780   50.6760 H   0  0  0  0  0  0  0  0  0  0  0  0
   57.9283   28.8327   53.0851 H   0  0  0  0  0  0  0  0  0  0  0  0
   58.3447   28.6023   51.3165 H   0  0  0  0  0  0  0  0  0  0  0  0
   59.5166   30.4866   53.3406 H   0  0  0  0  0  0  0  0  0  0  0  0
   60.2984   29.5444   52.0139 H   0  0  0  0  0  0  0  0  0  0  0  0
   59.3510   32.9440   49.2181 H   0  0  0  0  0  0  0  0  0  0  0  0
   60.6931   31.6686   46.4211 H   0  0  0  0  0  0  0  0  0  0  0  0
   58.9983   30.1722   45.3774 H   0  0  0  0  0  0  0  0  0  0  0  0
   59.9434   27.1257   48.4099 H   0  0  0  0  0  0  0  0  0  0  0  0
   59.1227   28.7695   48.9142 H   0  0  0  0  0  0  0  0  0  0  0  0
  1  2  2  0
  2  3  1  0
  3  4  2  0
  4  5  1  0
  5  6  2  0
  5  7  1  0
  7  8  1  0
  8  9  2  0
  9 10  1  0
 10 11  2  0
 11 12  1  0
 12 13  1  0
 13 14  1  0
 14 15  1  0
 14 16  2  0
 16 17  1  0
 17 18  2  0
 18 19  1  0
 19 20  2  0
 20 21  1  0
 21 22  1  0
 22 23  1  0
 23 24  1  0
 24 25  1  0
 25 26  1  0
 20 27  1  0
 27 28  2  0
 11 29  1  0
 29 30  2  0
  4 31  1  0
 31 32  1  0
 32 33  2  0
 32  2  1  0
 30  8  1  0
 28 13  1  0
 28 17  1  0
 26 21  1  0
  1 34  1  0
  1 35  1  0
  3 36  1  0
  9 37  1  0
 10 38  1  0
 12 39  1  0
 12 40  1  0
 15 41  1  0
 15 42  1  0
 15 43  1  0
 16 44  1  0
 18 45  1  0
 19 46  1  0
 22 47  1  0
 22 48  1  0
 23 49  1  0
 23 50  1  0
 24 51  1  0
 25 52  1  0
 25 53  1  0
 26 54  1  0
 26 55  1  0
 27 56  1  0
 29 57  1  0
 30 58  1  0
 33 59  1  0
 33 60  1  0
M  CHG  2   7  -1  16   1
M  END
>  <UniqueID>  (30) 
29

>  <SMILES>  (30) 
C=c1cc(C(=O)[N-]c2ccc(Cn3c(C)[nH+]c4ccc(N5CCNCC5)cc43)cc2)oc1=C

>  <Energy>  (30) 
142.35726411845954

>  <Genealogy>  (30) 
C=c1cc(C(=O)[N-]c2ccc(Cn3c(C)[nH+]c4ccc(N5CCNCC5)cc43)cc2)oc1=C (protonated)
C=c1cc(C(=O)[N-]c2ccc(Cn3c(C)[nH+]c4ccc(N5CCNCC5)cc43)cc2)oc1=C (3D coordinates assigned)
C=c1cc(C(=O)[N-]c2ccc(Cn3c(C)[nH+]c4ccc(N5CCNCC5)cc43)cc2)oc1=C (nonaromatic ring conformer: 142.35726411845954 kcal/mol)

>  <smiles>  (30) 
C=c1cc(C(=O)Nc2ccc(Cn3c(C)nc4ccc(N5CCNCC5)cc43)cc2)oc1=C

>  <score_type>  (30) 
oracle

>  <origin>  (30) 
adg

>  <m_score__min__energy>  (30) 
-10.48

>  <m_primary>  (30) 
energy

$$$$
30:0
     RDKit          3D

 44 45  0  0  0  0  0  0  0  0999 V2000
   58.6900   32.8530   47.8860 C   0  0  0  0  0  0  0  0  0  0  0  0
   58.4610   32.7040   46.4110 C   0  0  0  0  0  0  0  0  0  0  0  0
   58.8710   33.7090   45.5280 C   0  0  0  0  0  0  0  0  0  0  0  0
   58.6440   33.5780   44.1590 C   0  0  0  0  0  0  0  0  0  0  0  0
   57.9980   32.4430   43.6430 C   0  0  0  0  0  0  0  0  0  0  0  0
   57.7880   32.3370   42.1560 C   0  0  0  0  0  0  0  0  0  0  0  0
   57.5470   31.4380   44.5350 C   0  0  0  0  0  0  0  0  0  0  0  0
   56.7280   29.9740   43.9570 S   0  0  0  0  0  0  0  0  0  0  0  0
   55.9520   30.3060   42.7130 O   0  0  0  0  0  0  0  0  0  0  0  0
   55.7580   29.4750   44.9920 O   0  0  0  0  0  0  0  0  0  0  0  0
   57.9000   28.7370   43.5920 N   0  0  0  0  0  0  0  0  0  0  0  0
   57.7640   27.5810   44.4870 C   0  0  0  0  0  0  0  0  0  0  0  0
   58.5890   27.7530   45.7290 C   0  0  0  0  0  0  0  0  0  0  0  0
   58.4310   26.9510   46.6880 O   0  0  0  0  0  0  0  0  0  0  0  0
   59.5590   28.8100   45.8080 N   0  0  0  0  0  0  0  0  0  0  0  0
   60.1930   29.2190   47.0290 C   0  0  0  0  0  0  0  0  0  0  0  0
   60.0190   28.5610   48.0920 O   0  0  0  0  0  0  0  0  0  0  0  0
   61.0050   30.4000   47.0430 N   0  0  0  0  0  0  0  0  0  0  0  0
   61.5960   30.9310   48.2690 C   0  0  0  0  0  0  0  0  0  0  0  0
   62.4030   32.1520   47.9640 C   0  0  0  0  0  0  0  0  0  0  0  0
   63.2220   32.8230   48.8510 C   0  0  0  0  0  0  0  0  0  0  0  0
   63.7710   33.8630   48.1320 C   0  0  0  0  0  0  0  0  0  0  0  0
   63.2550   33.7600   46.8550 C   0  0  0  0  0  0  0  0  0  0  0  0
   62.4440   32.7300   46.7860 O   0  0  0  0  0  0  0  0  0  0  0  0
   57.7810   31.5840   45.9130 C   0  0  0  0  0  0  0  0  0  0  0  0
   57.8912   32.3333   48.4354 H   0  0  0  0  0  0  0  0  0  0  0  0
   59.6632   32.4147   48.1521 H   0  0  0  0  0  0  0  0  0  0  0  0
   58.6835   33.9203   48.1521 H   0  0  0  0  0  0  0  0  0  0  0  0
   59.3748   34.6066   45.9160 H   0  0  0  0  0  0  0  0  0  0  0  0
   58.9748   34.3732   43.4747 H   0  0  0  0  0  0  0  0  0  0  0  0
   56.8224   31.8496   41.9559 H   0  0  0  0  0  0  0  0  0  0  0  0
   57.7894   33.3438   41.7128 H   0  0  0  0  0  0  0  0  0  0  0  0
   58.5988   31.7402   41.7128 H   0  0  0  0  0  0  0  0  0  0  0  0
   57.6940   28.4060   42.6200 H   0  0  0  0  0  0  0  0  0  0  0  0
   56.7072   27.4703   44.7713 H   0  0  0  0  0  0  0  0  0  0  0  0
   58.1196   26.6863   43.9550 H   0  0  0  0  0  0  0  0  0  0  0  0
   59.7450   29.3720   44.9480 H   0  0  0  0  0  0  0  0  0  0  0  0
   61.1290   30.9390   46.1570 H   0  0  0  0  0  0  0  0  0  0  0  0
   60.7945   31.1919   48.9758 H   0  0  0  0  0  0  0  0  0  0  0  0
   62.2522   30.1674   48.7121 H   0  0  0  0  0  0  0  0  0  0  0  0
   63.3989   32.5788   49.9088 H   0  0  0  0  0  0  0  0  0  0  0  0
   64.4772   34.6215   48.5007 H   0  0  0  0  0  0  0  0  0  0  0  0
   63.4884   34.4387   46.0214 H   0  0  0  0  0  0  0  0  0  0  0  0
   57.4262   30.8099   46.6093 H   0  0  0  0  0  0  0  0  0  0  0  0
  1  2  1  0
  2  3  2  0
  3  4  1  0
  4  5  2  0
  5  6  1  0
  5  7  1  0
  7  8  1  0
  8  9  2  0
  8 10  2  0
  8 11  1  0
 11 12  1  0
 12 13  1  0
 13 14  2  0
 13 15  1  0
 15 16  1  0
 16 17  2  0
 16 18  1  0
 18 19  1  0
 19 20  1  0
 20 21  2  0
 21 22  1  0
 22 23  2  0
 23 24  1  0
  7 25  2  0
 25  2  1  0
 24 20  1  0
  1 26  1  0
  1 27  1  0
  1 28  1  0
  3 29  1  0
  4 30  1  0
  6 31  1  0
  6 32  1  0
  6 33  1  0
 11 34  1  0
 12 35  1  0
 12 36  1  0
 15 37  1  0
 18 38  1  0
 19 39  1  0
 19 40  1  0
 21 41  1  0
 22 42  1  0
 23 43  1  0
 25 44  1  0
M  END
>  <UniqueID>  (31) 
30

>  <SMILES>  (31) 
Cc1ccc(C)c(S(=O)(=O)NCC(=O)NC(=O)NCc2ccco2)c1

>  <Energy>  (31) 
59.87192792173119

>  <Genealogy>  (31) 
Cc1ccc(C)c(S(=O)(=O)NCC(=O)NC(=O)NCc2ccco2)c1 (3D coordinates assigned)
Cc1ccc(C)c(S(=O)(=O)NCC(=O)NC(=O)NCc2ccco2)c1 (optimized conformer: 59.87192792173119 kcal/mol)

>  <smiles>  (31) 
Cc1ccc(C)c(S(=O)(=O)NCC(=O)NC(=O)NCc2ccco2)c1

>  <score_type>  (31) 
oracle

>  <origin>  (31) 
adg

>  <m_score__min__energy>  (31) 
-8.8800000000000008

>  <m_primary>  (31) 
energy

$$$$
31:0
     RDKit          3D

 65 69  0  0  0  0  0  0  0  0999 V2000
   57.0180   24.4620   43.3420 C   0  0  0  0  0  0  0  0  0  0  0  0
   57.2850   24.7680   44.7860 C   0  0  0  0  0  0  0  0  0  0  0  0
   57.0300   23.8740   45.6390 O   0  0  0  0  0  0  0  0  0  0  0  0
   57.8240   26.0410   45.2140 N   0  0  0  0  0  0  0  0  0  0  0  0
   58.0150   26.2910   46.6560 C   0  0  0  0  0  0  0  0  0  0  0  0
   59.2070   27.2220   46.8970 C   0  0  0  0  0  0  0  0  0  0  0  0
   59.0920   28.3910   46.0220 N   0  0  0  0  0  0  0  0  0  0  0  0
   58.6880   29.6670   46.5520 C   0  0  0  0  0  0  0  0  0  0  0  0
   57.7530   30.3050   45.9890 O   0  0  0  0  0  0  0  0  0  0  0  0
   59.3540   30.2530   47.7380 C   0  0  0  0  0  0  0  0  0  0  0  0
   60.7560   30.2500   47.8380 C   0  0  0  0  0  0  0  0  0  0  0  0
   61.3880   30.7990   48.9570 C   0  0  0  0  0  0  0  0  0  0  0  0
   60.6290   31.3550   50.0000 C   0  0  0  0  0  0  0  0  0  0  0  0
   61.3140   31.9470   51.2060 C   0  0  0  0  0  0  0  0  0  0  0  0
   62.7780   31.7540   51.1280 N   0  0  0  0  0  0  0  0  0  0  0  0
   63.6090   32.7280   50.6170 C   0  0  0  0  0  0  0  0  0  0  0  0
   62.9990   34.3240   50.0440 S   0  0  0  0  0  0  0  0  0  0  0  0
   63.0600   33.8480   48.2870 C   0  0  0  0  0  0  0  0  0  0  0  0
   61.6720   33.8810   47.7180 C   0  0  0  0  0  0  0  0  0  0  0  0
   60.5860   34.2630   48.5220 C   0  0  0  0  0  0  0  0  0  0  0  0
   59.2890   34.2580   48.0020 C   0  0  0  0  0  0  0  0  0  0  0  0
   59.0630   33.8590   46.6800 C   0  0  0  0  0  0  0  0  0  0  0  0
   57.4350   33.8520   46.0290 Cl  0  0  0  0  0  0  0  0  0  0  0  0
   60.1390   33.4600   45.8790 C   0  0  0  0  0  0  0  0  0  0  0  0
   61.4380   33.4680   46.3960 C   0  0  0  0  0  0  0  0  0  0  0  0
   64.9470   32.5140   50.5360 N   0  0  0  0  0  0  0  0  0  0  0  0
   65.5110   31.3560   50.9480 C   0  0  0  0  0  0  0  0  0  0  0  0
   66.8970   31.1750   50.8490 C   0  0  0  0  0  0  0  0  0  0  0  0
   67.4780   29.9780   51.2780 C   0  0  0  0  0  0  0  0  0  0  0  0
   66.6790   28.9600   51.8060 C   0  0  0  0  0  0  0  0  0  0  0  0
   65.2950   29.1340   51.9070 C   0  0  0  0  0  0  0  0  0  0  0  0
   64.7010   30.3380   51.4780 C   0  0  0  0  0  0  0  0  0  0  0  0
   63.3160   30.5630   51.5580 C   0  0  0  0  0  0  0  0  0  0  0  0
   62.5660   29.6610   52.0300 O   0  0  0  0  0  0  0  0  0  0  0  0
   59.2290   31.3460   49.9080 C   0  0  0  0  0  0  0  0  0  0  0  0
   58.5950   30.7970   48.7900 C   0  0  0  0  0  0  0  0  0  0  0  0
   59.0070   28.1210   44.5870 C   0  0  0  0  0  0  0  0  0  0  0  0
   57.8100   27.2080   44.3100 C   0  0  0  0  0  0  0  0  0  0  0  0
   56.2964   23.6349   43.2698 H   0  0  0  0  0  0  0  0  0  0  0  0
   56.6042   25.3538   42.8486 H   0  0  0  0  0  0  0  0  0  0  0  0
   57.9577   24.1728   42.8486 H   0  0  0  0  0  0  0  0  0  0  0  0
   57.1060   26.7570   47.0641 H   0  0  0  0  0  0  0  0  0  0  0  0
   58.2126   25.3311   47.1556 H   0  0  0  0  0  0  0  0  0  0  0  0
   59.2121   27.5482   47.9475 H   0  0  0  0  0  0  0  0  0  0  0  0
   60.1429   26.6874   46.6771 H   0  0  0  0  0  0  0  0  0  0  0  0
   61.3601   29.8123   47.0296 H   0  0  0  0  0  0  0  0  0  0  0  0
   62.4861   30.7957   49.0214 H   0  0  0  0  0  0  0  0  0  0  0  0
   61.0945   33.0239   51.2526 H   0  0  0  0  0  0  0  0  0  0  0  0
   60.9398   31.4397   52.1075 H   0  0  0  0  0  0  0  0  0  0  0  0
   63.7000   34.5535   47.7368 H   0  0  0  0  0  0  0  0  0  0  0  0
   63.4735   32.8330   48.1934 H   0  0  0  0  0  0  0  0  0  0  0  0
   60.7569   34.5673   49.5652 H   0  0  0  0  0  0  0  0  0  0  0  0
   58.4435   34.5685   48.6335 H   0  0  0  0  0  0  0  0  0  0  0  0
   59.9625   33.1397   44.8416 H   0  0  0  0  0  0  0  0  0  0  0  0
   62.2806   33.1494   45.7646 H   0  0  0  0  0  0  0  0  0  0  0  0
   67.5279   31.9747   50.4337 H   0  0  0  0  0  0  0  0  0  0  0  0
   68.5661   29.8371   51.1999 H   0  0  0  0  0  0  0  0  0  0  0  0
   67.1398   28.0197   52.1429 H   0  0  0  0  0  0  0  0  0  0  0  0
   64.6692   28.3301   52.3218 H   0  0  0  0  0  0  0  0  0  0  0  0
   58.6258   31.7743   50.7220 H   0  0  0  0  0  0  0  0  0  0  0  0
   57.4965   30.7903   48.7324 H   0  0  0  0  0  0  0  0  0  0  0  0
   58.8795   29.0682   44.0425 H   0  0  0  0  0  0  0  0  0  0  0  0
   59.9307   27.6269   44.2514 H   0  0  0  0  0  0  0  0  0  0  0  0
   56.8800   27.7745   44.4659 H   0  0  0  0  0  0  0  0  0  0  0  0
   57.8699   26.8515   43.2711 H   0  0  0  0  0  0  0  0  0  0  0  0
  1  2  1  0
  2  3  2  0
  2  4  1  0
  4  5  1  0
  5  6  1  0
  6  7  1  0
  7  8  1  0
  8  9  2  0
  8 10  1  0
 10 11  2  0
 11 12  1  0
 12 13  2  0
 13 14  1  0
 14 15  1  0
 15 16  1  0
 16 17  1  0
 17 18  1  0
 18 19  1  0
 19 20  2  0
 20 21  1  0
 21 22  2  0
 22 23  1  0
 22 24  1  0
 24 25  2  0
 16 26  2  0
 26 27  1  0
 27 28  2  0
 28 29  1  0
 29 30  2  0
 30 31  1  0
 31 32  2  0
 32 33  1  0
 33 34  2  0
 13 35  1  0
 35 36  2  0
  7 37  1  0
 37 38  1  0
 38  4  1  0
 36 10  1  0
 33 15  1  0
 25 19  1  0
 32 27  1  0
  1 39  1  0
  1 40  1  0
  1 41  1  0
  5 42  1  0
  5 43  1  0
  6 44  1  0
  6 45  1  0
 11 46  1  0
 12 47  1  0
 14 48  1  0
 14 49  1  0
 18 50  1  0
 18 51  1  0
 20 52  1  0
 21 53  1  0
 24 54  1  0
 25 55  1  0
 28 56  1  0
 29 57  1  0
 30 58  1  0
 31 59  1  0
 35 60  1  0
 36 61  1  0
 37 62  1  0
 37 63  1  0
 38 64  1  0
 38 65  1  0
M  END
>  <UniqueID>  (32) 
31

>  <SMILES>  (32) 
CC(=O)N1CCN(C(=O)c2ccc(Cn3c(SCc4ccc(Cl)cc4)nc4ccccc4c3=O)cc2)CC1

>  <Energy>  (32) 
78.64588678531683

>  <Genealogy>  (32) 
CC(=O)N1CCN(C(=O)c2ccc(Cn3c(SCc4ccc(Cl)cc4)nc4ccccc4c3=O)cc2)CC1 (3D coordinates assigned)
CC(=O)N1CCN(C(=O)c2ccc(Cn3c(SCc4ccc(Cl)cc4)nc4ccccc4c3=O)cc2)CC1 (nonaromatic ring conformer: 78.64588678531683 kcal/mol)

>  <smiles>  (32) 
CC(=O)N1CCN(C(=O)c2ccc(Cn3c(SCc4ccc(Cl)cc4)nc4ccccc4c3=O)cc2)CC1

>  <score_type>  (32) 
oracle

>  <origin>  (32) 
adg

>  <m_score__min__energy>  (32) 
-9.8399999999999999

>  <m_primary>  (32) 
energy

$$$$
32:0
     RDKit          3D

 65 69  0  0  0  0  0  0  0  0999 V2000
   56.4070   24.7480   44.5210 N   0  0  0  0  0  0  0  0  0  0  0  0
   55.8760   25.6330   45.9080 S   0  0  0  0  0  0  0  0  0  0  0  0
   54.3880   25.8440   45.8300 O   0  0  0  0  0  0  0  0  0  0  0  0
   56.2030   24.8630   47.1560 O   0  0  0  0  0  0  0  0  0  0  0  0
   56.6990   27.1820   45.9400 C   0  0  0  0  0  0  0  0  0  0  0  0
   57.8560   27.3150   46.6330 N   0  0  0  0  0  0  0  0  0  0  0  0
   58.5230   28.4950   46.6170 C   0  0  0  0  0  0  0  0  0  0  0  0
   60.0810   28.6270   47.4860 S   0  0  0  0  0  0  0  0  0  0  0  0
   59.4740   29.8630   48.6420 C   0  0  0  0  0  0  0  0  0  0  0  0
   58.6050   29.5280   49.5980 C   0  0  0  0  0  0  0  0  0  0  0  0
   58.1400   30.5320   50.5700 C   0  0  0  0  0  0  0  0  0  0  0  0
   57.3250   30.1820   51.4700 O   0  0  0  0  0  0  0  0  0  0  0  0
   58.6810   31.9110   50.5330 C   0  0  0  0  0  0  0  0  0  0  0  0
   58.2090   33.0690   51.8380 S   0  0  0  0  0  0  0  0  0  0  0  0
   59.6880   32.7570   52.8120 C   0  0  0  0  0  0  0  0  0  0  0  0
   60.1020   31.4420   53.0510 C   0  0  0  0  0  0  0  0  0  0  0  0
   61.2590   31.1950   53.7950 C   0  0  0  0  0  0  0  0  0  0  0  0
   62.0160   32.2620   54.2940 C   0  0  0  0  0  0  0  0  0  0  0  0
   63.1850   32.0150   55.0050 O   0  0  0  0  0  0  0  0  0  0  0  0
   61.5940   33.5760   54.0700 C   0  0  0  0  0  0  0  0  0  0  0  0
   60.4280   33.8250   53.3410 C   0  0  0  0  0  0  0  0  0  0  0  0
   59.5440   32.2610   49.5560 C   0  0  0  0  0  0  0  0  0  0  0  0
   60.2630   33.9130   49.4650 S   0  0  0  0  0  0  0  0  0  0  0  0
   61.9580   33.3420   49.6220 C   0  0  0  0  0  0  0  0  0  0  0  0
   62.3280   32.4810   50.6650 C   0  0  0  0  0  0  0  0  0  0  0  0
   63.6630   32.0820   50.8120 C   0  0  0  0  0  0  0  0  0  0  0  0
   64.6490   32.5540   49.9290 C   0  0  0  0  0  0  0  0  0  0  0  0
   66.0240   32.1650   50.0930 N   0  0  0  0  0  0  0  0  0  0  0  0
   66.9460   32.9290   49.7490 O   0  0  0  0  0  0  0  0  0  0  0  0
   66.3490   30.9640   50.6860 O   0  0  0  0  0  0  0  0  0  0  0  0
   64.2670   33.4220   48.8870 C   0  0  0  0  0  0  0  0  0  0  0  0
   62.9330   33.8100   48.7360 C   0  0  0  0  0  0  0  0  0  0  0  0
   59.9630   31.2530   48.5510 C   0  0  0  0  0  0  0  0  0  0  0  0
   60.7530   31.5810   47.6240 O   0  0  0  0  0  0  0  0  0  0  0  0
   58.0300   29.5470   45.9140 N   0  0  0  0  0  0  0  0  0  0  0  0
   56.8740   29.4180   45.2090 C   0  0  0  0  0  0  0  0  0  0  0  0
   56.4170   30.4430   44.5520 N   0  0  0  0  0  0  0  0  0  0  0  0
   56.9970   31.0920   43.4040 C   0  0  0  0  0  0  0  0  0  0  0  0
   56.3790   31.0250   42.3060 O   0  0  0  0  0  0  0  0  0  0  0  0
   58.2950   31.8640   43.4750 C   0  0  0  0  0  0  0  0  0  0  0  0
   58.3450   32.8140   44.6470 C   0  0  0  0  0  0  0  0  0  0  0  0
   59.1880   33.9360   44.6100 C   0  0  0  0  0  0  0  0  0  0  0  0
   59.2320   34.8210   45.6930 C   0  0  0  0  0  0  0  0  0  0  0  0
   58.4420   34.5890   46.8230 C   0  0  0  0  0  0  0  0  0  0  0  0
   57.6070   33.4690   46.8710 C   0  0  0  0  0  0  0  0  0  0  0  0
   57.5570   32.5830   45.7910 C   0  0  0  0  0  0  0  0  0  0  0  0
   56.2130   28.2270   45.2250 N   0  0  0  0  0  0  0  0  0  0  0  0
   57.4170   24.5290   44.6680 H   0  0  0  0  0  0  0  0  0  0  0  0
   56.3480   25.3870   43.6970 H   0  0  0  0  0  0  0  0  0  0  0  0
   58.2334   28.4945   49.6604 H   0  0  0  0  0  0  0  0  0  0  0  0
   59.5157   30.6009   52.6525 H   0  0  0  0  0  0  0  0  0  0  0  0
   61.5758   30.1596   53.9891 H   0  0  0  0  0  0  0  0  0  0  0  0
   62.1815   34.4162   54.4687 H   0  0  0  0  0  0  0  0  0  0  0  0
   60.0901   34.8596   53.1818 H   0  0  0  0  0  0  0  0  0  0  0  0
   61.5668   32.1172   51.3709 H   0  0  0  0  0  0  0  0  0  0  0  0
   63.9412   31.3944   51.6243 H   0  0  0  0  0  0  0  0  0  0  0  0
   65.0263   33.7980   48.1854 H   0  0  0  0  0  0  0  0  0  0  0  0
   62.6488   34.4865   47.9165 H   0  0  0  0  0  0  0  0  0  0  0  0
   59.1254   31.1484   43.5665 H   0  0  0  0  0  0  0  0  0  0  0  0
   58.3746   32.4648   42.5570 H   0  0  0  0  0  0  0  0  0  0  0  0
   59.8164   34.1202   43.7262 H   0  0  0  0  0  0  0  0  0  0  0  0
   59.8900   35.7017   45.6552 H   0  0  0  0  0  0  0  0  0  0  0  0
   58.4775   35.2866   47.6728 H   0  0  0  0  0  0  0  0  0  0  0  0
   56.9876   33.2844   47.7611 H   0  0  0  0  0  0  0  0  0  0  0  0
   56.8997   31.7021   45.8349 H   0  0  0  0  0  0  0  0  0  0  0  0
  1  2  1  0
  2  3  2  0
  2  4  2  0
  2  5  1  0
  5  6  2  0
  6  7  1  0
  7  8  1  0
  8  9  1  0
  9 10  2  0
 10 11  1  0
 11 12  2  0
 11 13  1  0
 13 14  1  0
 14 15  1  0
 15 16  2  0
 16 17  1  0
 17 18  2  0
 18 19  1  0
 18 20  1  0
 20 21  2  0
 13 22  2  0
 22 23  1  0
 23 24  1  0
 24 25  2  0
 25 26  1  0
 26 27  2  0
 27 28  1  0
 28 29  2  0
 28 30  1  0
 27 31  1  0
 31 32  2  0
 22 33  1  0
 33 34  2  0
  7 35  2  0
 35 36  1  0
 36 37  2  3
 37 38  1  0
 38 39  2  0
 38 40  1  0
 40 41  1  0
 41 42  2  0
 42 43  1  0
 43 44  2  0
 44 45  1  0
 45 46  2  0
 36 47  1  0
 47  5  1  0
 33  9  1  0
 46 41  1  0
 21 15  1  0
 32 24  1  0
  1 48  1  0
  1 49  1  0
 10 50  1  0
 16 51  1  0
 17 52  1  0
 20 53  1  0
 21 54  1  0
 25 55  1  0
 26 56  1  0
 31 57  1  0
 32 58  1  0
 40 59  1  0
 40 60  1  0
 42 61  1  0
 43 62  1  0
 44 63  1  0
 45 64  1  0
 46 65  1  0
M  CHG  4  19  -1  28   1  30  -1  47  -1
M  END
>  <UniqueID>  (33) 
32

>  <SMILES>  (33) 
NS(=O)(=O)c1nc(SC2=CC(=O)C(Sc3ccc([O-])cc3)=C(Sc3ccc([N+](=O)[O-])cc3)C2=O)nc(=NC(=O)Cc2ccccc2)[n-]1

>  <Energy>  (33) 
64.91359048590725

>  <Genealogy>  (33) 
NS(=O)(=O)c1nc(SC2=CC(=O)C(Sc3ccc([O-])cc3)=C(Sc3ccc([N+](=O)[O-])cc3)C2=O)nc(=NC(=O)Cc2ccccc2)[n-]1 (protonated)
NS(=O)(=O)c1nc(SC2=CC(=O)C(Sc3ccc([O-])cc3)=C(Sc3ccc([N+](=O)[O-])cc3)C2=O)nc(=NC(=O)Cc2ccccc2)[n-]1 (3D coordinates assigned)
NS(=O)(=O)c1nc(SC2=CC(=O)C(Sc3ccc([O-])cc3)=C(Sc3ccc([N+](=O)[O-])cc3)C2=O)nc(=NC(=O)Cc2ccccc2)[n-]1 (nonaromatic ring conformer: 64.91359048590725 kcal/mol)

>  <smiles>  (33) 
NS(=O)(=O)c1nc(SC2=CC(=O)C(Sc3ccc(O)cc3)=C(Sc3ccc([N+](=O)[O-])cc3)C2=O)nc(=NC(=O)Cc2ccccc2)[nH]1

>  <score_type>  (33) 
oracle

>  <origin>  (33) 
adg

>  <m_score__min__energy>  (33) 
-13.94

>  <m_primary>  (33) 
energy

$$$$
33:0
     RDKit          3D

 57 60  0  0  0  0  0  0  0  0999 V2000
   59.5550   30.1490   46.4610 O   0  0  0  0  0  0  0  0  0  0  0  0
   58.5410   29.7280   47.0800 C   0  0  0  0  0  0  0  0  0  0  0  0
   57.3850   29.2730   46.3640 N   0  0  0  0  0  0  0  0  0  0  0  0
   57.1540   29.3800   44.9220 C   0  0  2  0  0  0  0  0  0  0  0  0
   58.1910   28.5590   44.1280 C   0  0  0  0  0  0  0  0  0  0  0  0
   58.5070   27.2560   44.8190 C   0  0  0  0  0  0  0  0  0  0  0  0
   59.6330   27.1460   45.6530 C   0  0  0  0  0  0  0  0  0  0  0  0
   59.9430   25.9250   46.2610 C   0  0  0  0  0  0  0  0  0  0  0  0
   59.1360   24.8070   46.0390 C   0  0  0  0  0  0  0  0  0  0  0  0
   58.0180   24.9050   45.2060 C   0  0  0  0  0  0  0  0  0  0  0  0
   57.7040   26.1240   44.5930 C   0  0  0  0  0  0  0  0  0  0  0  0
   57.1250   30.8240   44.4990 C   0  0  0  0  0  0  0  0  0  0  0  0
   57.2160   31.1150   43.2760 O   0  0  0  0  0  0  0  0  0  0  0  0
   57.0580   31.8290   45.4740 O   0  0  0  0  0  0  0  0  0  0  0  0
   57.9450   32.9080   45.6060 C   0  0  0  0  0  0  0  0  0  0  0  0
   58.0120   33.9540   44.6670 C   0  0  0  0  0  0  0  0  0  0  0  0
   58.9080   35.0090   44.8550 C   0  0  0  0  0  0  0  0  0  0  0  0
   59.7240   35.0460   45.9890 C   0  0  0  0  0  0  0  0  0  0  0  0
   59.6310   34.0380   46.9590 C   0  0  0  0  0  0  0  0  0  0  0  0
   60.5070   34.0990   48.1480 C   0  0  0  0  0  0  0  0  0  0  0  0
   61.6770   33.4520   48.2500 C   0  0  0  0  0  0  0  0  0  0  0  0
   62.3290   32.7370   49.7760 S   0  0  0  0  0  0  0  0  0  0  0  0
   63.8800   32.4690   48.9110 C   0  0  0  0  0  0  0  0  0  0  0  0
   64.9010   32.0080   49.4860 O   0  0  0  0  0  0  0  0  0  0  0  0
   63.8940   32.8230   47.5350 N   0  0  0  0  0  0  0  0  0  0  0  0
   62.6520   33.3900   47.1610 C   0  0  0  0  0  0  0  0  0  0  0  0
   62.4360   33.8140   45.9950 O   0  0  0  0  0  0  0  0  0  0  0  0
   58.7550   32.9590   46.7470 C   0  0  0  0  0  0  0  0  0  0  0  0
   58.5250   29.7010   48.4780 O   0  0  0  0  0  0  0  0  0  0  0  0
   59.4760   30.3930   49.2840 C   0  0  0  0  0  0  0  0  0  0  0  0
   58.7820   31.1770   50.3640 C   0  0  0  0  0  0  0  0  0  0  0  0
   57.7750   30.5710   51.1340 C   0  0  0  0  0  0  0  0  0  0  0  0
   57.1390   31.2890   52.1520 C   0  0  0  0  0  0  0  0  0  0  0  0
   57.5070   32.6110   52.4130 C   0  0  0  0  0  0  0  0  0  0  0  0
   58.5120   33.2200   51.6550 C   0  0  0  0  0  0  0  0  0  0  0  0
   59.1490   32.5080   50.6340 C   0  0  0  0  0  0  0  0  0  0  0  0
   56.1683   28.9493   44.6922 H   0  0  0  0  0  0  0  0  0  0  0  0
   57.7877   28.3448   43.1273 H   0  0  0  0  0  0  0  0  0  0  0  0
   59.1178   29.1472   44.0575 H   0  0  0  0  0  0  0  0  0  0  0  0
   60.2729   28.0234   45.8282 H   0  0  0  0  0  0  0  0  0  0  0  0
   60.8238   25.8453   46.9150 H   0  0  0  0  0  0  0  0  0  0  0  0
   59.3805   23.8485   46.5201 H   0  0  0  0  0  0  0  0  0  0  0  0
   57.3839   24.0232   45.0318 H   0  0  0  0  0  0  0  0  0  0  0  0
   56.8270   26.1964   43.9330 H   0  0  0  0  0  0  0  0  0  0  0  0
   57.3574   33.9408   43.7831 H   0  0  0  0  0  0  0  0  0  0  0  0
   58.9716   35.8137   44.1077 H   0  0  0  0  0  0  0  0  0  0  0  0
   60.4418   35.8690   46.1210 H   0  0  0  0  0  0  0  0  0  0  0  0
   60.1794   34.7121   49.0005 H   0  0  0  0  0  0  0  0  0  0  0  0
   64.7180   32.7250   46.9030 H   0  0  0  0  0  0  0  0  0  0  0  0
   58.7054   32.1456   47.4859 H   0  0  0  0  0  0  0  0  0  0  0  0
   60.1567   29.6635   49.7471 H   0  0  0  0  0  0  0  0  0  0  0  0
   60.0415   31.0892   48.6473 H   0  0  0  0  0  0  0  0  0  0  0  0
   57.4858   29.5284   50.9356 H   0  0  0  0  0  0  0  0  0  0  0  0
   56.3474   30.8117   52.7483 H   0  0  0  0  0  0  0  0  0  0  0  0
   57.0061   33.1731   53.2150 H   0  0  0  0  0  0  0  0  0  0  0  0
   58.8019   34.2607   51.8622 H   0  0  0  0  0  0  0  0  0  0  0  0
   59.9395   32.9901   50.0401 H   0  0  0  0  0  0  0  0  0  0  0  0
  1  2  2  0
  2  3  1  0
  3  4  1  0
  4  5  1  0
  5  6  1  0
  6  7  2  0
  7  8  1  0
  8  9  2  0
  9 10  1  0
 10 11  2  0
  4 12  1  0
 12 13  2  0
 12 14  1  0
 14 15  1  0
 15 16  2  0
 16 17  1  0
 17 18  2  0
 18 19  1  0
 19 20  1  0
 20 21  2  3
 21 22  1  0
 22 23  1  0
 23 24  2  0
 23 25  1  0
 25 26  1  0
 26 27  2  0
 19 28  2  0
  2 29  1  0
 29 30  1  0
 30 31  1  0
 31 32  2  0
 32 33  1  0
 33 34  2  0
 34 35  1  0
 35 36  2  0
 11  6  1  0
 28 15  1  0
 36 31  1  0
 26 21  1  0
  4 37  1  1
  5 38  1  0
  5 39  1  0
  7 40  1  0
  8 41  1  0
  9 42  1  0
 10 43  1  0
 11 44  1  0
 16 45  1  0
 17 46  1  0
 18 47  1  0
 20 48  1  0
 25 49  1  0
 28 50  1  0
 30 51  1  0
 30 52  1  0
 32 53  1  0
 33 54  1  0
 34 55  1  0
 35 56  1  0
 36 57  1  0
M  CHG  1   3  -1
M  END
>  <UniqueID>  (34) 
33

>  <SMILES>  (34) 
O=C([N-][C@H](Cc1ccccc1)C(=O)Oc1cccc(C=C2SC(=O)NC2=O)c1)OCc1ccccc1

>  <Energy>  (34) 
84.8149368493069

>  <Genealogy>  (34) 
O=C([N-]C(Cc1ccccc1)C(=O)Oc1cccc(C=C2SC(=O)NC2=O)c1)OCc1ccccc1 (protonated)
O=C([N-][C@H](Cc1ccccc1)C(=O)Oc1cccc(C=C2SC(=O)NC2=O)c1)OCc1ccccc1 (chirality)
O=C([N-][C@H](Cc1ccccc1)C(=O)Oc1cccc(C=C2SC(=O)NC2=O)c1)OCc1ccccc1 (3D coordinates assigned)
O=C([N-][C@H](Cc1ccccc1)C(=O)Oc1cccc(C=C2SC(=O)NC2=O)c1)OCc1ccccc1 (nonaromatic ring conformer: 84.8149368493069 kcal/mol)

>  <smiles>  (34) 
O=C(NC(Cc1ccccc1)C(=O)Oc1cccc(C=C2SC(=O)NC2=O)c1)OCc1ccccc1

>  <score_type>  (34) 
oracle

>  <origin>  (34) 
adg

>  <m_score__min__energy>  (34) 
-12.76

>  <m_primary>  (34) 
energy

$$$$
34:0
     RDKit          3D

 56 60  0  0  0  0  0  0  0  0999 V2000
   49.9260   33.6390   51.9940 H   0  0  0  0  0  0  0  0  0  0  0  0
   50.3920   32.7240   52.1870 N   0  0  0  0  0  0  0  0  0  0  0  0
   51.3330   32.1760   51.2680 C   0  0  0  0  0  0  0  0  0  0  0  0
   51.3970   32.6280   50.0950 O   0  0  0  0  0  0  0  0  0  0  0  0
   52.2230   31.0850   51.6870 C   0  0  0  0  0  0  0  0  0  0  0  0
   51.9340   29.7340   51.7270 C   0  0  0  0  0  0  0  0  0  0  0  0
   50.9717   29.2796   51.4487 H   0  0  0  0  0  0  0  0  0  0  0  0
   53.0180   29.0620   52.1610 N   0  0  0  0  0  0  0  0  0  0  0  0
   53.9750   29.9490   52.3920 N   0  0  0  0  0  0  0  0  0  0  0  0
   55.2900   29.6080   52.8640 C   0  0  0  0  0  0  0  0  0  0  0  0
   56.4250   30.0770   52.1690 C   0  0  0  0  0  0  0  0  0  0  0  0
   56.2270   30.8340   51.0100 O   0  0  0  0  0  0  0  0  0  0  0  0
   55.7850   31.7430   51.0040 H   0  0  0  0  0  0  0  0  0  0  0  0
   57.7240   29.7650   52.6410 C   0  0  0  0  0  0  0  0  0  0  0  0
   58.9500   30.3330   52.0410 C   0  0  0  0  0  0  0  0  0  0  0  0
   59.6560   31.1530   52.6890 O   0  0  0  0  0  0  0  0  0  0  0  0
   59.3220   29.9720   50.7040 N   0  0  0  0  0  0  0  0  0  0  0  0
   59.4010   30.7470   49.6580 C   0  0  0  0  0  0  0  0  0  0  0  0
   59.1950   32.1070   49.7120 C   0  0  0  0  0  0  0  0  0  0  0  0
   58.8894   32.7105   50.5794 H   0  0  0  0  0  0  0  0  0  0  0  0
   59.4610   32.5420   48.4220 C   0  0  0  0  0  0  0  0  0  0  0  0
   59.4600   33.9280   47.8990 C   0  0  0  0  0  0  0  0  0  0  0  0
   59.5530   34.8710   48.7250 O   0  0  0  0  0  0  0  0  0  0  0  0
   59.3770   34.2590   46.5060 N   0  0  0  0  0  0  0  0  0  0  0  0
   58.2390   34.0220   45.6300 C   0  0  0  0  0  0  0  0  0  0  0  0
   58.3333   34.9245   45.0082 H   0  0  0  0  0  0  0  0  0  0  0  0
   57.1110   33.2990   46.3440 C   0  0  0  0  0  0  0  0  0  0  0  0
   57.1947   33.0732   47.4173 H   0  0  0  0  0  0  0  0  0  0  0  0
   56.0309   33.4690   46.4642 H   0  0  0  0  0  0  0  0  0  0  0  0
   57.9770   32.5550   45.3410 C   0  0  0  0  0  0  0  0  0  0  0  0
   58.6876   31.7905   45.6882 H   0  0  0  0  0  0  0  0  0  0  0  0
   57.7835   31.9632   44.4342 H   0  0  0  0  0  0  0  0  0  0  0  0
   59.7870   31.4830   47.6490 N   0  0  0  0  0  0  0  0  0  0  0  0
   59.7440   30.3910   48.3950 N   0  0  0  0  0  0  0  0  0  0  0  0
   59.8330   29.0840   47.8110 C   0  0  0  0  0  0  0  0  0  0  0  0
   59.8620   28.9250   46.4150 C   0  0  0  0  0  0  0  0  0  0  0  0
   59.7971   29.8075   45.7615 H   0  0  0  0  0  0  0  0  0  0  0  0
   59.9730   27.6500   45.8540 C   0  0  0  0  0  0  0  0  0  0  0  0
   59.9770   27.5288   44.7607 H   0  0  0  0  0  0  0  0  0  0  0  0
   60.0790   26.5280   46.6820 C   0  0  0  0  0  0  0  0  0  0  0  0
   60.1592   25.5238   46.2402 H   0  0  0  0  0  0  0  0  0  0  0  0
   60.0830   26.6830   48.0720 C   0  0  0  0  0  0  0  0  0  0  0  0
   60.1768   25.8010   48.7226 H   0  0  0  0  0  0  0  0  0  0  0  0
   59.9680   27.9570   48.6360 C   0  0  0  0  0  0  0  0  0  0  0  0
   59.9834   28.0763   49.7294 H   0  0  0  0  0  0  0  0  0  0  0  0
   57.8600   28.9320   53.7620 C   0  0  0  0  0  0  0  0  0  0  0  0
   58.8646   28.6488   54.1092 H   0  0  0  0  0  0  0  0  0  0  0  0
   56.7390   28.4590   54.4410 C   0  0  0  0  0  0  0  0  0  0  0  0
   56.8678   27.8188   55.3262 H   0  0  0  0  0  0  0  0  0  0  0  0
   55.4510   28.7910   54.0070 C   0  0  0  0  0  0  0  0  0  0  0  0
   54.2610   28.2690   54.7680 C   0  0  0  0  0  0  0  0  0  0  0  0
   54.4512   28.3524   55.8482 H   0  0  0  0  0  0  0  0  0  0  0  0
   53.3705   28.8591   54.5058 H   0  0  0  0  0  0  0  0  0  0  0  0
   54.0921   27.2141   54.5058 H   0  0  0  0  0  0  0  0  0  0  0  0
   53.5300   31.1910   52.1160 C   0  0  0  0  0  0  0  0  0  0  0  0
   54.1061   32.1228   52.2151 H   0  0  0  0  0  0  0  0  0  0  0  0
  1  2  1  0
  2  3  1  0
  3  4  2  0
  3  5  1  0
  5  6  1  0
  6  7  1  0
  6  8  2  0
  8  9  1  0
  9 10  1  0
 10 11  2  0
 11 12  1  0
 12 13  1  0
 11 14  1  0
 14 15  1  0
 15 16  2  0
 15 17  1  0
 17 18  2  0
 18 19  1  0
 19 20  1  0
 19 21  2  0
 21 22  1  0
 22 23  2  0
 22 24  1  0
 24 25  1  0
 25 26  1  0
 25 27  1  0
 27 28  1  0
 27 29  1  0
 27 30  1  0
 30 31  1  0
 30 32  1  0
 21 33  1  0
 33 34  1  0
 34 35  1  0
 35 36  2  0
 36 37  1  0
 36 38  1  0
 38 39  1  0
 38 40  2  0
 40 41  1  0
 40 42  1  0
 42 43  1  0
 42 44  2  0
 44 45  1  0
 14 46  2  0
 46 47  1  0
 46 48  1  0
 48 49  1  0
 48 50  2  0
 50 51  1  0
 51 52  1  0
 51 53  1  0
 51 54  1  0
  9 55  1  0
 55 56  1  0
 55  5  2  0
 50 10  1  0
 34 18  1  0
 44 35  1  0
 30 25  1  0
M  CHG  3   2  -1  24  -1  33  -1
M  END
>  <UniqueID>  (35) 
34

>  <SMILES>  (35) 
Cc1ccc(C(=O)/N=c2/cc(C(=O)[N-]C3CC3)[n-]n2-c2ccccc2)c(O)c1-n1cc(C([NH-])=O)cn1

>  <Energy>  (35) 
414.8446498488869

>  <Genealogy>  (35) 
Cc1ccc(C(=O)N=c2cc(C(=O)[N-]C3CC3)[n-]n2-c2ccccc2)c(O)c1-n1cc(C([NH-])=O)cn1 (protonated)
Cc1ccc(C(=O)/N=c2/cc(C(=O)[N-]C3CC3)[n-]n2-c2ccccc2)c(O)c1-n1cc(C([NH-])=O)cn1 (cis-trans isomerization)
Cc1ccc(C(=O)/N=c2/cc(C(=O)[N-]C3CC3)[n-]n2-c2ccccc2)c(O)c1-n1cc(C([NH-])=O)cn1 (3D coordinates assigned)
Cc1ccc(C(=O)/N=c2/cc(C(=O)[N-]C3CC3)[n-]n2-c2ccccc2)c(O)c1-n1cc(C([NH-])=O)cn1 (nonaromatic ring conformer: 414.8446498488869 kcal/mol)

>  <smiles>  (35) 
Cc1ccc(C(=O)N=c2cc(C(=O)NC3CC3)[nH]n2-c2ccccc2)c(O)c1-n1cc(C(N)=O)cn1

>  <score_type>  (35) 
oracle

>  <origin>  (35) 
adg

>  <m_score__min__energy>  (35) 
-14.119999999999999

>  <m_primary>  (35) 
energy

$$$$
35:0
     RDKit          3D

 57 60  0  0  0  0  0  0  0  0999 V2000
   66.9550   31.9740   50.6960 C   0  0  0  0  0  0  0  0  0  0  0  0
   65.5660   32.1490   50.1660 C   0  0  0  0  0  0  0  0  0  0  0  0
   64.6900   31.2940   50.4580 O   0  0  0  0  0  0  0  0  0  0  0  0
   65.2100   33.2380   49.3020 N   0  0  0  0  0  0  0  0  0  0  0  0
   63.9230   33.4830   48.7170 C   0  0  0  0  0  0  0  0  0  0  0  0
   62.8350   33.9280   49.4860 C   0  0  0  0  0  0  0  0  0  0  0  0
   61.5870   34.1260   48.8910 C   0  0  0  0  0  0  0  0  0  0  0  0
   61.4030   33.8600   47.5270 C   0  0  0  0  0  0  0  0  0  0  0  0
   59.8180   34.0870   46.7820 S   0  0  0  0  0  0  0  0  0  0  0  0
   59.2310   35.3890   47.2500 O   0  0  0  0  0  0  0  0  0  0  0  0
   59.9780   34.1600   45.2880 O   0  0  0  0  0  0  0  0  0  0  0  0
   58.7290   32.7780   47.1820 N   0  0  0  0  0  0  0  0  0  0  0  0
   57.8070   32.4780   46.0600 C   0  0  0  0  0  0  0  0  0  0  0  0
   58.1400   31.1680   45.3340 C   0  0  0  0  0  0  0  0  0  0  0  0
   58.1860   30.0620   46.2980 N   0  0  0  0  0  0  0  0  0  0  0  0
   57.8330   28.7260   45.8810 C   0  0  0  0  0  0  0  0  0  0  0  0
   57.7790   28.4510   44.6520 O   0  0  0  0  0  0  0  0  0  0  0  0
   57.5820   27.6340   46.8880 C   0  0  0  0  0  0  0  0  0  0  0  0
   57.2610   26.3730   46.2190 N   0  0  0  0  0  0  0  0  0  0  0  0
   56.0410   25.9700   45.8020 C   0  0  0  0  0  0  0  0  0  0  0  0
   54.8700   26.6920   45.9960 O   0  0  0  0  0  0  0  0  0  0  0  0
   56.1340   24.7570   45.1480 C   0  0  0  0  0  0  0  0  0  0  0  0
   57.4620   24.4100   45.1530 C   0  0  0  0  0  0  0  0  0  0  0  0
   58.1340   25.4250   45.8100 C   0  0  0  0  0  0  0  0  0  0  0  0
   59.5090   25.4910   46.0210 O   0  0  0  0  0  0  0  0  0  0  0  0
   58.0060   23.1750   44.5110 C   0  0  0  0  0  0  0  0  0  0  0  0
   56.9050   22.3190   43.9160 C   0  0  0  0  0  0  0  0  0  0  0  0
   55.5970   22.6630   43.9120 C   0  0  0  0  0  0  0  0  0  0  0  0
   55.0560   23.9500   44.5010 C   0  0  0  0  0  0  0  0  0  0  0  0
   58.6650   30.3290   47.6620 C   0  0  0  0  0  0  0  0  0  0  0  0
   59.4910   31.6190   47.6930 C   0  0  0  0  0  0  0  0  0  0  0  0
   62.4830   33.3970   46.7650 C   0  0  0  0  0  0  0  0  0  0  0  0
   63.7320   33.1980   47.3600 C   0  0  0  0  0  0  0  0  0  0  0  0
   66.9309   31.9770   51.7957 H   0  0  0  0  0  0  0  0  0  0  0  0
   67.3651   31.0171   50.3409 H   0  0  0  0  0  0  0  0  0  0  0  0
   67.5897   32.7993   50.3409 H   0  0  0  0  0  0  0  0  0  0  0  0
   62.9664   34.1213   50.5609 H   0  0  0  0  0  0  0  0  0  0  0  0
   60.7443   34.4925   49.4957 H   0  0  0  0  0  0  0  0  0  0  0  0
   56.7842   32.4061   46.4584 H   0  0  0  0  0  0  0  0  0  0  0  0
   57.9103   33.2918   45.3271 H   0  0  0  0  0  0  0  0  0  0  0  0
   57.3668   30.9623   44.5791 H   0  0  0  0  0  0  0  0  0  0  0  0
   59.1204   31.2636   44.8445 H   0  0  0  0  0  0  0  0  0  0  0  0
   58.4836   27.4965   47.5029 H   0  0  0  0  0  0  0  0  0  0  0  0
   56.7289   27.9254   47.5183 H   0  0  0  0  0  0  0  0  0  0  0  0
   60.0630   26.2410   45.6260 H   0  0  0  0  0  0  0  0  0  0  0  0
   58.7023   23.4666   43.7109 H   0  0  0  0  0  0  0  0  0  0  0  0
   58.5185   22.5844   45.2847 H   0  0  0  0  0  0  0  0  0  0  0  0
   57.1875   21.3589   43.4594 H   0  0  0  0  0  0  0  0  0  0  0  0
   54.8815   21.9651   43.4526 H   0  0  0  0  0  0  0  0  0  0  0  0
   54.5986   24.5454   43.6971 H   0  0  0  0  0  0  0  0  0  0  0  0
   54.3136   23.6900   45.2699 H   0  0  0  0  0  0  0  0  0  0  0  0
   57.8017   30.4347   48.3355 H   0  0  0  0  0  0  0  0  0  0  0  0
   59.2981   29.4910   47.9892 H   0  0  0  0  0  0  0  0  0  0  0  0
   59.7928   31.8224   48.7311 H   0  0  0  0  0  0  0  0  0  0  0  0
   60.3676   31.4763   47.0439 H   0  0  0  0  0  0  0  0  0  0  0  0
   62.3477   33.1890   45.6934 H   0  0  0  0  0  0  0  0  0  0  0  0
   64.5696   32.8152   46.7584 H   0  0  0  0  0  0  0  0  0  0  0  0
  1  2  1  0
  2  3  2  0
  2  4  1  0
  4  5  1  0
  5  6  2  0
  6  7  1  0
  7  8  2  0
  8  9  1  0
  9 10  2  0
  9 11  2  0
  9 12  1  0
 12 13  1  0
 13 14  1  0
 14 15  1  0
 15 16  1  0
 16 17  2  0
 16 18  1  0
 18 19  1  0
 19 20  1  0
 20 21  1  0
 20 22  2  0
 22 23  1  0
 23 24  2  0
 24 25  1  0
 23 26  1  0
 26 27  1  0
 27 28  2  0
 28 29  1  0
 15 30  1  0
 30 31  1  0
  8 32  1  0
 32 33  2  0
 33  5  1  0
 31 12  1  0
 24 19  1  0
 29 22  1  0
  1 34  1  0
  1 35  1  0
  1 36  1  0
  6 37  1  0
  7 38  1  0
 13 39  1  0
 13 40  1  0
 14 41  1  0
 14 42  1  0
 18 43  1  0
 18 44  1  0
 25 45  1  0
 26 46  1  0
 26 47  1  0
 27 48  1  0
 28 49  1  0
 29 50  1  0
 29 51  1  0
 30 52  1  0
 30 53  1  0
 31 54  1  0
 31 55  1  0
 32 56  1  0
 33 57  1  0
M  CHG  2   4  -1  21  -1
M  END
>  <UniqueID>  (36) 
35

>  <SMILES>  (36) 
CC(=O)[N-]c1ccc(S(=O)(=O)N2CCN(C(=O)Cn3c([O-])c4c(c3O)CC=CC4)CC2)cc1

>  <Energy>  (36) 
98.81873035931676

>  <Genealogy>  (36) 
CC(=O)[N-]c1ccc(S(=O)(=O)N2CCN(C(=O)Cn3c([O-])c4c(c3O)CC=CC4)CC2)cc1 (protonated)
CC(=O)[N-]c1ccc(S(=O)(=O)N2CCN(C(=O)Cn3c([O-])c4c(c3O)CC=CC4)CC2)cc1 (3D coordinates assigned)
CC(=O)[N-]c1ccc(S(=O)(=O)N2CCN(C(=O)Cn3c([O-])c4c(c3O)CC=CC4)CC2)cc1 (nonaromatic ring conformer: 98.81873035931676 kcal/mol)

>  <smiles>  (36) 
CC(=O)Nc1ccc(S(=O)(=O)N2CCN(C(=O)Cn3c(O)c4c(c3O)CC=CC4)CC2)cc1

>  <score_type>  (36) 
oracle

>  <origin>  (36) 
adg

>  <m_score__min__energy>  (36) 
-13.19

>  <m_primary>  (36) 
energy

$$$$
36:0
     RDKit          3D

 43 45  0  0  0  0  0  0  0  0999 V2000
   65.1080   32.9650   49.4060 C   0  0  0  0  0  0  0  0  0  0  0  0
   63.6220   32.7830   49.5550 C   0  0  0  0  0  0  0  0  0  0  0  0
   62.7470   33.6930   48.9380 C   0  0  0  0  0  0  0  0  0  0  0  0
   61.3550   33.5500   49.0590 C   0  0  0  0  0  0  0  0  0  0  0  0
   60.4410   34.5320   48.3600 C   0  0  0  0  0  0  0  0  0  0  0  0
   60.2820   34.1870   46.9310 N   0  0  0  0  0  0  0  0  0  0  0  0
   60.6310   32.7650   46.6730 C   0  0  0  0  0  0  0  0  0  0  0  0
   59.4040   31.8640   46.4760 C   0  0  0  0  0  0  0  0  0  0  0  0
   58.5620   32.3910   45.3960 N   0  0  0  0  0  0  0  0  0  0  0  0
   57.7340   31.5080   44.6060 C   0  0  0  0  0  0  0  0  0  0  0  0
   57.6270   31.6790   43.2120 C   0  0  0  0  0  0  0  0  0  0  0  0
   56.8280   30.8220   42.4510 C   0  0  0  0  0  0  0  0  0  0  0  0
   56.1240   29.7860   43.0690 C   0  0  0  0  0  0  0  0  0  0  0  0
   56.2200   29.6030   44.4510 C   0  0  0  0  0  0  0  0  0  0  0  0
   55.5200   28.5720   45.0640 O   0  0  0  0  0  0  0  0  0  0  0  0
   57.0210   30.4570   45.2170 C   0  0  0  0  0  0  0  0  0  0  0  0
   58.5550   33.8390   45.1470 C   0  0  0  0  0  0  0  0  0  0  0  0
   58.9470   34.5920   46.4220 C   0  0  0  0  0  0  0  0  0  0  0  0
   60.8350   32.4700   49.8000 C   0  0  0  0  0  0  0  0  0  0  0  0
   59.1010   32.2170   49.9730 Cl  0  0  0  0  0  0  0  0  0  0  0  0
   61.7040   31.5650   50.4160 C   0  0  0  0  0  0  0  0  0  0  0  0
   63.0900   31.7100   50.3020 C   0  0  0  0  0  0  0  0  0  0  0  0
   63.9070   30.7750   50.9400 O   0  0  0  0  0  0  0  0  0  0  0  0
   65.5721   33.0218   50.4017 H   0  0  0  0  0  0  0  0  0  0  0  0
   65.5284   32.1116   48.8537 H   0  0  0  0  0  0  0  0  0  0  0  0
   65.3100   33.8946   48.8537 H   0  0  0  0  0  0  0  0  0  0  0  0
   63.1577   34.5286   48.3523 H   0  0  0  0  0  0  0  0  0  0  0  0
   59.4544   34.5131   48.8461 H   0  0  0  0  0  0  0  0  0  0  0  0
   60.8872   35.5350   48.4297 H   0  0  0  0  0  0  0  0  0  0  0  0
   61.2490   32.7167   45.7643 H   0  0  0  0  0  0  0  0  0  0  0  0
   61.1672   32.3955   47.5595 H   0  0  0  0  0  0  0  0  0  0  0  0
   59.7362   30.8481   46.2161 H   0  0  0  0  0  0  0  0  0  0  0  0
   58.8211   31.8391   47.4086 H   0  0  0  0  0  0  0  0  0  0  0  0
   58.1770   32.4939   42.7185 H   0  0  0  0  0  0  0  0  0  0  0  0
   56.7532   30.9635   41.3627 H   0  0  0  0  0  0  0  0  0  0  0  0
   55.4939   29.1141   42.4677 H   0  0  0  0  0  0  0  0  0  0  0  0
   57.0948   30.3070   46.3042 H   0  0  0  0  0  0  0  0  0  0  0  0
   59.2744   34.0748   44.3490 H   0  0  0  0  0  0  0  0  0  0  0  0
   57.5444   34.1479   44.8416 H   0  0  0  0  0  0  0  0  0  0  0  0
   58.9641   35.6701   46.2044 H   0  0  0  0  0  0  0  0  0  0  0  0
   58.2049   34.3488   47.1967 H   0  0  0  0  0  0  0  0  0  0  0  0
   61.2920   30.7276   50.9982 H   0  0  0  0  0  0  0  0  0  0  0  0
   63.5710   29.8760   51.2620 H   0  0  0  0  0  0  0  0  0  0  0  0
  1  2  1  0
  2  3  2  0
  3  4  1  0
  4  5  1  0
  5  6  1  0
  6  7  1  0
  7  8  1  0
  8  9  1  0
  9 10  1  0
 10 11  2  0
 11 12  1  0
 12 13  2  0
 13 14  1  0
 14 15  1  0
 14 16  2  0
  9 17  1  0
 17 18  1  0
  4 19  2  0
 19 20  1  0
 19 21  1  0
 21 22  2  0
 22 23  1  0
 22  2  1  0
 18  6  1  0
 16 10  1  0
  1 24  1  0
  1 25  1  0
  1 26  1  0
  3 27  1  0
  5 28  1  0
  5 29  1  0
  7 30  1  0
  7 31  1  0
  8 32  1  0
  8 33  1  0
 11 34  1  0
 12 35  1  0
 13 36  1  0
 16 37  1  0
 17 38  1  0
 17 39  1  0
 18 40  1  0
 18 41  1  0
 21 42  1  0
 23 43  1  0
M  CHG  1  15  -1
M  END
>  <UniqueID>  (37) 
36

>  <SMILES>  (37) 
Cc1cc(CN2CCN(c3cccc([O-])c3)CC2)c(Cl)cc1O

>  <Energy>  (37) 
56.27209714165404

>  <Genealogy>  (37) 
Cc1cc(CN2CCN(c3cccc([O-])c3)CC2)c(Cl)cc1O (protonated)
Cc1cc(CN2CCN(c3cccc([O-])c3)CC2)c(Cl)cc1O (3D coordinates assigned)
Cc1cc(CN2CCN(c3cccc([O-])c3)CC2)c(Cl)cc1O (nonaromatic ring conformer: 56.27209714165404 kcal/mol)

>  <smiles>  (37) 
Cc1cc(CN2CCN(c3cccc(O)c3)CC2)c(Cl)cc1O

>  <score_type>  (37) 
oracle

>  <origin>  (37) 
adg

>  <m_score__min__energy>  (37) 
-10.74

>  <m_primary>  (37) 
energy

$$$$
37:0
     RDKit          3D

 51 53  0  0  0  0  0  0  0  0999 V2000
   57.0940   33.2750   45.6340 C   0  0  0  0  0  0  0  0  0  0  0  0
   58.1740   33.4080   46.6160 N   0  0  0  0  0  0  0  0  0  0  0  0
   59.0400   34.5950   46.5550 C   0  0  0  0  0  0  0  0  0  0  0  0
   60.4180   34.2710   45.9570 C   0  0  0  0  0  0  0  0  0  0  0  0
   61.4270   33.8910   47.0110 C   0  0  0  0  0  0  0  0  0  0  0  0
   62.7740   33.6940   46.6620 C   0  0  0  0  0  0  0  0  0  0  0  0
   63.6920   33.3450   47.6540 C   0  0  0  0  0  0  0  0  0  0  0  0
   63.2670   33.1980   48.9750 C   0  0  0  0  0  0  0  0  0  0  0  0
   61.9200   33.3900   49.2870 C   0  0  0  0  0  0  0  0  0  0  0  0
   61.0330   33.7330   48.3130 N   0  0  0  0  0  0  0  0  0  0  0  0
   58.4470   32.3650   47.5720 C   0  0  0  0  0  0  0  0  0  0  0  0
   58.2930   32.6050   48.8040 O   0  0  0  0  0  0  0  0  0  0  0  0
   58.8880   31.0100   47.1520 C   0  0  0  0  0  0  0  0  0  0  0  0
   60.1010   30.4650   47.6110 C   0  0  0  0  0  0  0  0  0  0  0  0
   60.5180   29.2000   47.1890 C   0  0  0  0  0  0  0  0  0  0  0  0
   59.7320   28.4630   46.3050 C   0  0  0  0  0  0  0  0  0  0  0  0
   58.5140   28.9880   45.8370 C   0  0  0  0  0  0  0  0  0  0  0  0
   57.7060   28.2270   44.8240 C   0  0  0  0  0  0  0  0  0  0  0  0
   56.2650   28.2620   45.2260 C   0  0  0  0  0  0  0  0  0  0  0  0
   55.5910   29.3170   45.0600 O   0  0  0  0  0  0  0  0  0  0  0  0
   55.6400   27.0690   45.7160 N   0  0  0  0  0  0  0  0  0  0  0  0
   56.3340   26.0920   46.5450 C   0  0  0  0  0  0  0  0  0  0  0  0
   56.7660   24.9350   45.6960 C   0  0  0  0  0  0  0  0  0  0  0  0
   56.0820   24.4150   44.6010 C   0  0  0  0  0  0  0  0  0  0  0  0
   56.7950   23.4120   43.9340 C   0  0  0  0  0  0  0  0  0  0  0  0
   58.0400   23.1470   44.4920 C   0  0  0  0  0  0  0  0  0  0  0  0
   58.2610   24.1740   45.8090 S   0  0  0  0  0  0  0  0  0  0  0  0
   58.1070   30.2650   46.2510 C   0  0  0  0  0  0  0  0  0  0  0  0
   56.1342   33.1568   46.1583 H   0  0  0  0  0  0  0  0  0  0  0  0
   57.0589   34.1756   45.0034 H   0  0  0  0  0  0  0  0  0  0  0  0
   57.2784   32.3928   45.0034 H   0  0  0  0  0  0  0  0  0  0  0  0
   58.5526   35.3587   45.9311 H   0  0  0  0  0  0  0  0  0  0  0  0
   59.1918   34.9584   47.5821 H   0  0  0  0  0  0  0  0  0  0  0  0
   60.3094   33.4325   45.2533 H   0  0  0  0  0  0  0  0  0  0  0  0
   60.7856   35.1763   45.4517 H   0  0  0  0  0  0  0  0  0  0  0  0
   63.1013   33.8135   45.6186 H   0  0  0  0  0  0  0  0  0  0  0  0
   64.7491   33.1861   47.3947 H   0  0  0  0  0  0  0  0  0  0  0  0
   63.9870   32.9332   49.7634 H   0  0  0  0  0  0  0  0  0  0  0  0
   61.5741   33.2637   50.3235 H   0  0  0  0  0  0  0  0  0  0  0  0
   60.0310   33.8750   48.5820 H   0  0  0  0  0  0  0  0  0  0  0  0
   60.7272   31.0403   48.3088 H   0  0  0  0  0  0  0  0  0  0  0  0
   61.4686   28.7849   47.5552 H   0  0  0  0  0  0  0  0  0  0  0  0
   60.0649   27.4687   45.9726 H   0  0  0  0  0  0  0  0  0  0  0  0
   57.8242   28.6911   43.8337 H   0  0  0  0  0  0  0  0  0  0  0  0
   58.0541   27.1846   44.7775 H   0  0  0  0  0  0  0  0  0  0  0  0
   57.2174   26.5609   47.0030 H   0  0  0  0  0  0  0  0  0  0  0  0
   55.6577   25.7349   47.3356 H   0  0  0  0  0  0  0  0  0  0  0  0
   55.0834   24.7572   44.2915 H   0  0  0  0  0  0  0  0  0  0  0  0
   56.4065   22.8832   43.0512 H   0  0  0  0  0  0  0  0  0  0  0  0
   58.7587   22.3948   44.1346 H   0  0  0  0  0  0  0  0  0  0  0  0
   57.1671   30.6879   45.8667 H   0  0  0  0  0  0  0  0  0  0  0  0
  1  2  1  0
  2  3  1  0
  3  4  1  0
  4  5  1  0
  5  6  2  0
  6  7  1  0
  7  8  2  0
  8  9  1  0
  9 10  2  0
  2 11  1  0
 11 12  2  0
 11 13  1  0
 13 14  2  0
 14 15  1  0
 15 16  2  0
 16 17  1  0
 17 18  1  0
 18 19  1  0
 19 20  2  0
 19 21  1  0
 21 22  1  0
 22 23  1  0
 23 24  2  0
 24 25  1  0
 25 26  2  0
 26 27  1  0
 17 28  2  0
 10  5  1  0
 28 13  1  0
 27 23  1  0
  1 29  1  0
  1 30  1  0
  1 31  1  0
  3 32  1  0
  3 33  1  0
  4 34  1  0
  4 35  1  0
  6 36  1  0
  7 37  1  0
  8 38  1  0
  9 39  1  0
 10 40  1  0
 14 41  1  0
 15 42  1  0
 16 43  1  0
 18 44  1  0
 18 45  1  0
 22 46  1  0
 22 47  1  0
 24 48  1  0
 25 49  1  0
 26 50  1  0
 28 51  1  0
M  CHG  2  10   1  21  -1
M  END
>  <UniqueID>  (38) 
37

>  <SMILES>  (38) 
CN(CCc1cccc[nH+]1)C(=O)c1cccc(CC(=O)[N-]Cc2cccs2)c1

>  <Energy>  (38) 
70.85439532356524

>  <Genealogy>  (38) 
CN(CCc1cccc[nH+]1)C(=O)c1cccc(CC(=O)[N-]Cc2cccs2)c1 (protonated)
CN(CCc1cccc[nH+]1)C(=O)c1cccc(CC(=O)[N-]Cc2cccs2)c1 (3D coordinates assigned)
CN(CCc1cccc[nH+]1)C(=O)c1cccc(CC(=O)[N-]Cc2cccs2)c1 (optimized conformer: 70.85439532356524 kcal/mol)

>  <smiles>  (38) 
CN(CCc1ccccn1)C(=O)c1cccc(CC(=O)NCc2cccs2)c1

>  <score_type>  (38) 
oracle

>  <origin>  (38) 
adg

>  <m_score__min__energy>  (38) 
-8.7100000000000009

>  <m_primary>  (38) 
energy

$$$$
38:0
     RDKit          3D

 60 63  0  0  0  0  0  0  0  0999 V2000
   55.6420   26.7250   45.8550 O   0  0  0  0  0  0  0  0  0  0  0  0
   56.4560   27.6270   45.5230 C   0  0  0  0  0  0  0  0  0  0  0  0
   57.9490   27.3800   45.6500 C   0  0  0  0  0  0  0  0  0  0  0  0
   58.7210   28.4930   46.2510 N   0  0  0  0  0  0  0  0  0  0  0  0
   59.0060   28.3050   47.6870 C   0  0  0  0  0  0  0  0  0  0  0  0
   59.5520   29.6050   48.2810 C   0  0  0  0  0  0  0  0  0  0  0  0
   60.6900   30.0760   47.4840 N   0  0  0  0  0  0  0  0  0  0  0  0
   61.7840   30.7660   48.1150 C   0  0  0  0  0  0  0  0  0  0  0  0
   61.9390   30.7150   49.5110 C   0  0  0  0  0  0  0  0  0  0  0  0
   63.0000   31.3830   50.1290 C   0  0  0  0  0  0  0  0  0  0  0  0
   63.9150   32.1080   49.3600 C   0  0  0  0  0  0  0  0  0  0  0  0
   64.9720   32.7680   49.9750 O   0  0  0  0  0  0  0  0  0  0  0  0
   63.7670   32.1670   47.9710 C   0  0  0  0  0  0  0  0  0  0  0  0
   62.7070   31.5010   47.3500 C   0  0  0  0  0  0  0  0  0  0  0  0
   60.5240   30.1520   46.0270 C   0  0  0  0  0  0  0  0  0  0  0  0
   59.9390   28.8430   45.4960 C   0  0  0  0  0  0  0  0  0  0  0  0
   55.9350   28.9300   45.2280 N   0  0  0  0  0  0  0  0  0  0  0  0
   56.5270   29.9170   44.3750 C   0  0  0  0  0  0  0  0  0  0  0  0
   56.4590   29.8100   42.9770 C   0  0  0  0  0  0  0  0  0  0  0  0
   57.0150   30.8030   42.1680 C   0  0  0  0  0  0  0  0  0  0  0  0
   57.6190   31.9220   42.7470 C   0  0  0  0  0  0  0  0  0  0  0  0
   57.6550   32.0600   44.1400 C   0  0  0  0  0  0  0  0  0  0  0  0
   58.4060   33.4840   44.8540 S   0  0  0  0  0  0  0  0  0  0  0  0
   59.2110   34.1840   43.7950 O   0  0  0  0  0  0  0  0  0  0  0  0
   57.3500   34.4310   45.3590 O   0  0  0  0  0  0  0  0  0  0  0  0
   59.4460   32.9970   46.1710 N   0  0  0  0  0  0  0  0  0  0  0  0
   58.6840   32.2570   47.2100 C   0  0  0  0  0  0  0  0  0  0  0  0
   58.3570   33.1150   48.4400 C   0  0  0  0  0  0  0  0  0  0  0  0
   59.6390   33.6600   49.0930 C   0  0  0  0  0  0  0  0  0  0  0  0
   60.7640   33.9120   48.0740 C   0  0  0  0  0  0  0  0  0  0  0  0
   60.1950   34.1700   46.6760 C   0  0  0  0  0  0  0  0  0  0  0  0
   57.1010   31.0570   44.9500 C   0  0  0  0  0  0  0  0  0  0  0  0
   58.0948   26.4872   46.2758 H   0  0  0  0  0  0  0  0  0  0  0  0
   58.3286   27.2625   44.6243 H   0  0  0  0  0  0  0  0  0  0  0  0
   58.0794   28.0254   48.2098 H   0  0  0  0  0  0  0  0  0  0  0  0
   59.7543   27.5078   47.8077 H   0  0  0  0  0  0  0  0  0  0  0  0
   58.7611   30.3695   48.2756 H   0  0  0  0  0  0  0  0  0  0  0  0
   59.8831   29.4215   49.3138 H   0  0  0  0  0  0  0  0  0  0  0  0
   61.2214   30.1463   50.1206 H   0  0  0  0  0  0  0  0  0  0  0  0
   63.1151   31.3381   51.2220 H   0  0  0  0  0  0  0  0  0  0  0  0
   64.4862   32.7386   47.3660 H   0  0  0  0  0  0  0  0  0  0  0  0
   62.5940   31.5520   46.2570 H   0  0  0  0  0  0  0  0  0  0  0  0
   59.8438   30.9807   45.7810 H   0  0  0  0  0  0  0  0  0  0  0  0
   61.5057   30.3228   45.5612 H   0  0  0  0  0  0  0  0  0  0  0  0
   59.6867   28.9617   44.4319 H   0  0  0  0  0  0  0  0  0  0  0  0
   60.6816   28.0404   45.6155 H   0  0  0  0  0  0  0  0  0  0  0  0
   55.9660   28.9408   42.5172 H   0  0  0  0  0  0  0  0  0  0  0  0
   56.9774   30.7042   41.0731 H   0  0  0  0  0  0  0  0  0  0  0  0
   58.0673   32.6963   42.1071 H   0  0  0  0  0  0  0  0  0  0  0  0
   57.7405   31.9043   46.7679 H   0  0  0  0  0  0  0  0  0  0  0  0
   59.3158   31.4230   47.5495 H   0  0  0  0  0  0  0  0  0  0  0  0
   57.7245   33.9601   48.1305 H   0  0  0  0  0  0  0  0  0  0  0  0
   57.8314   32.4866   49.1741 H   0  0  0  0  0  0  0  0  0  0  0  0
   59.4014   34.6087   49.5966 H   0  0  0  0  0  0  0  0  0  0  0  0
   59.9983   32.9009   49.8034 H   0  0  0  0  0  0  0  0  0  0  0  0
   61.3467   34.7891   48.3920 H   0  0  0  0  0  0  0  0  0  0  0  0
   61.4029   33.0176   48.0312 H   0  0  0  0  0  0  0  0  0  0  0  0
   59.5172   35.0353   46.7199 H   0  0  0  0  0  0  0  0  0  0  0  0
   61.0341   34.3648   45.9920 H   0  0  0  0  0  0  0  0  0  0  0  0
   57.1179   31.1673   46.0443 H   0  0  0  0  0  0  0  0  0  0  0  0
  1  2  2  0
  2  3  1  0
  3  4  1  0
  4  5  1  0
  5  6  1  0
  6  7  1  0
  7  8  1  0
  8  9  2  0
  9 10  1  0
 10 11  2  0
 11 12  1  0
 11 13  1  0
 13 14  2  0
  7 15  1  0
 15 16  1  0
  2 17  1  0
 17 18  1  0
 18 19  2  0
 19 20  1  0
 20 21  2  0
 21 22  1  0
 22 23  1  0
 23 24  2  0
 23 25  2  0
 23 26  1  0
 26 27  1  0
 27 28  1  0
 28 29  1  0
 29 30  1  0
 30 31  1  0
 22 32  2  0
 16  4  1  0
 32 18  1  0
 14  8  1  0
 31 26  1  0
  3 33  1  0
  3 34  1  0
  5 35  1  0
  5 36  1  0
  6 37  1  0
  6 38  1  0
  9 39  1  0
 10 40  1  0
 13 41  1  0
 14 42  1  0
 15 43  1  0
 15 44  1  0
 16 45  1  0
 16 46  1  0
 19 47  1  0
 20 48  1  0
 21 49  1  0
 27 50  1  0
 27 51  1  0
 28 52  1  0
 28 53  1  0
 29 54  1  0
 29 55  1  0
 30 56  1  0
 30 57  1  0
 31 58  1  0
 31 59  1  0
 32 60  1  0
M  CHG  2  12  -1  17  -1
M  END
>  <UniqueID>  (39) 
38

>  <SMILES>  (39) 
O=C(CN1CCN(c2ccc([O-])cc2)CC1)[N-]c1cccc(S(=O)(=O)N2CCCCC2)c1

>  <Energy>  (39) 
81.66702330313176

>  <Genealogy>  (39) 
O=C(CN1CCN(c2ccc([O-])cc2)CC1)[N-]c1cccc(S(=O)(=O)N2CCCCC2)c1 (protonated)
O=C(CN1CCN(c2ccc([O-])cc2)CC1)[N-]c1cccc(S(=O)(=O)N2CCCCC2)c1 (3D coordinates assigned)
O=C(CN1CCN(c2ccc([O-])cc2)CC1)[N-]c1cccc(S(=O)(=O)N2CCCCC2)c1 (nonaromatic ring conformer: 81.66702330313176 kcal/mol)

>  <smiles>  (39) 
O=C(CN1CCN(c2ccc(O)cc2)CC1)Nc1cccc(S(=O)(=O)N2CCCCC2)c1

>  <score_type>  (39) 
oracle

>  <origin>  (39) 
adg

>  <m_score__min__energy>  (39) 
-13.039999999999999

>  <m_primary>  (39) 
energy

$$$$
39:0
     RDKit          3D

 52 54  0  0  0  0  0  0  0  0999 V2000
   59.9450   34.6000   47.7170 C   0  0  0  0  0  0  0  0  0  0  0  0
   59.1230   33.8260   46.7610 C   0  0  0  0  0  0  0  0  0  0  0  0
   58.9380   32.4780   47.0010 C   0  0  0  0  0  0  0  0  0  0  0  0
   58.1710   31.6970   46.1310 C   0  0  0  0  0  0  0  0  0  0  0  0
   57.5790   32.2690   45.0000 C   0  0  0  0  0  0  0  0  0  0  0  0
   56.7960   31.3690   44.1410 C   0  0  0  0  0  0  0  0  0  0  0  0
   57.5250   30.2180   43.6620 N   0  0  0  0  0  0  0  0  0  0  0  0
   57.2620   28.8840   44.0400 C   0  0  0  0  0  0  0  0  0  0  0  0
   56.3390   28.6300   44.8480 O   0  0  0  0  0  0  0  0  0  0  0  0
   58.0400   27.8410   43.5110 N   0  0  0  0  0  0  0  0  0  0  0  0
   57.8680   26.4650   43.8170 C   0  0  0  0  0  0  0  0  0  0  0  0
   57.4430   25.4440   42.9950 C   0  0  0  0  0  0  0  0  0  0  0  0
   57.4210   24.2780   43.6960 N   0  0  0  0  0  0  0  0  0  0  0  0
   57.8230   24.5470   44.9390 N   0  0  0  0  0  0  0  0  0  0  0  0
   57.9240   23.5470   45.9680 C   0  0  0  0  0  0  0  0  0  0  0  0
   56.8080   23.8130   46.9740 C   0  0  0  0  0  0  0  0  0  0  0  0
   55.5130   23.7380   46.2850 C   0  0  0  0  0  0  0  0  0  0  0  0
   54.9030   22.5140   46.0660 C   0  0  0  0  0  0  0  0  0  0  0  0
   55.5020   21.2290   46.5010 C   0  0  0  0  0  0  0  0  0  0  0  0
   53.7020   22.4260   45.4290 N   0  0  0  0  0  0  0  0  0  0  0  0
   53.0670   23.5340   44.9890 C   0  0  0  0  0  0  0  0  0  0  0  0
   51.9380   23.3730   44.3980 N   0  0  0  0  0  0  0  0  0  0  0  0
   53.6560   24.7060   45.2010 N   0  0  0  0  0  0  0  0  0  0  0  0
   54.8360   24.8500   45.8220 C   0  0  0  0  0  0  0  0  0  0  0  0
   55.3680   26.0030   46.0050 N   0  0  0  0  0  0  0  0  0  0  0  0
   58.1010   25.8680   45.0390 C   0  0  0  0  0  0  0  0  0  0  0  0
   57.7660   33.6120   44.7650 C   0  0  0  0  0  0  0  0  0  0  0  0
   58.5280   34.3560   45.6440 C   0  0  0  0  0  0  0  0  0  0  0  0
   59.6608   34.3324   48.7454 H   0  0  0  0  0  0  0  0  0  0  0  0
   61.0084   34.3677   47.5582 H   0  0  0  0  0  0  0  0  0  0  0  0
   59.7770   35.6754   47.5582 H   0  0  0  0  0  0  0  0  0  0  0  0
   59.3989   32.0144   47.8857 H   0  0  0  0  0  0  0  0  0  0  0  0
   58.0322   30.6255   46.3374 H   0  0  0  0  0  0  0  0  0  0  0  0
   55.9290   31.0122   44.7163 H   0  0  0  0  0  0  0  0  0  0  0  0
   56.5106   31.9519   43.2529 H   0  0  0  0  0  0  0  0  0  0  0  0
   58.3090   30.4250   42.9750 H   0  0  0  0  0  0  0  0  0  0  0  0
   58.8090   28.1060   42.8340 H   0  0  0  0  0  0  0  0  0  0  0  0
   57.1647   25.5544   41.9365 H   0  0  0  0  0  0  0  0  0  0  0  0
   57.8052   22.5445   45.5310 H   0  0  0  0  0  0  0  0  0  0  0  0
   58.9077   23.5922   46.4582 H   0  0  0  0  0  0  0  0  0  0  0  0
   56.8445   23.0579   47.7731 H   0  0  0  0  0  0  0  0  0  0  0  0
   56.9364   24.8127   47.4147 H   0  0  0  0  0  0  0  0  0  0  0  0
   55.5216   21.1870   47.6000 H   0  0  0  0  0  0  0  0  0  0  0  0
   54.9003   20.3940   46.1128 H   0  0  0  0  0  0  0  0  0  0  0  0
   56.5284   21.1529   46.1128 H   0  0  0  0  0  0  0  0  0  0  0  0
   53.2530   21.4870   45.2720 H   0  0  0  0  0  0  0  0  0  0  0  0
   51.2980   24.1130   44.0940 H   0  0  0  0  0  0  0  0  0  0  0  0
   53.1610   25.5690   44.8580 H   0  0  0  0  0  0  0  0  0  0  0  0
   55.7940   26.5280   45.2350 H   0  0  0  0  0  0  0  0  0  0  0  0
   58.4545   26.3812   45.9454 H   0  0  0  0  0  0  0  0  0  0  0  0
   57.3120   34.0891   43.8839 H   0  0  0  0  0  0  0  0  0  0  0  0
   58.6649   35.4279   45.4383 H   0  0  0  0  0  0  0  0  0  0  0  0
  1  2  1  0
  2  3  2  0
  3  4  1  0
  4  5  2  0
  5  6  1  0
  6  7  1  0
  7  8  1  0
  8  9  2  0
  8 10  1  0
 10 11  1  0
 11 12  1  0
 12 13  2  0
 13 14  1  0
 14 15  1  0
 15 16  1  0
 16 17  1  0
 17 18  2  0
 18 19  1  0
 18 20  1  0
 20 21  1  0
 21 22  2  3
 21 23  1  0
 23 24  1  0
 24 25  2  3
 14 26  1  0
  5 27  1  0
 27 28  2  0
 28  2  1  0
 26 11  2  0
 24 17  1  0
  1 29  1  0
  1 30  1  0
  1 31  1  0
  3 32  1  0
  4 33  1  0
  6 34  1  0
  6 35  1  0
  7 36  1  0
 10 37  1  0
 12 38  1  0
 15 39  1  0
 15 40  1  0
 16 41  1  0
 16 42  1  0
 19 43  1  0
 19 44  1  0
 19 45  1  0
 20 46  1  0
 22 47  1  0
 23 48  1  0
 25 49  1  0
 26 50  1  0
 27 51  1  0
 28 52  1  0
M  END
>  <smiles>  (40) 
Cc1ccc(CNC(=O)Nc2cnn(CCc3c(C)[nH]c(=N)[nH]c3=N)c2)cc1

>  <score_type>  (40) 
oracle

>  <origin>  (40) 
adg

>  <m_score__min__energy>  (40) 
-8.8399999999999999

>  <m_primary>  (40) 
energy

$$$$
40:0
     RDKit          3D

 41 45  0  0  0  0  0  0  0  0999 V2000
   58.3180   24.0990   44.6750 H   0  0  0  0  0  0  0  0  0  0  0  0
   57.9030   24.3310   45.5680 O   0  0  0  0  0  0  0  0  0  0  0  0
   56.6320   24.8910   45.6700 C   0  0  0  0  0  0  0  0  0  0  0  0
   55.5040   24.1870   45.4770 N   0  0  0  0  0  0  0  0  0  0  0  0
   54.5380   25.1080   45.6730 C   0  0  0  0  0  0  0  0  0  0  0  0
   53.3130   24.8350   45.5800 O   0  0  0  0  0  0  0  0  0  0  0  0
   54.9880   26.3420   45.9760 N   0  0  0  0  0  0  0  0  0  0  0  0
   56.3270   26.2030   45.9790 C   0  0  0  0  0  0  0  0  0  0  0  0
   57.2970   27.2930   46.2300 C   0  0  0  0  0  0  0  0  0  0  0  0
   58.1540   27.0690   46.8822 H   0  0  0  0  0  0  0  0  0  0  0  0
   57.2120   28.5350   45.7230 C   0  0  0  0  0  0  0  0  0  0  0  0
   56.2270   29.1180   44.9210 C   0  0  0  0  0  0  0  0  0  0  0  0
   55.3211   28.6083   44.5612 H   0  0  0  0  0  0  0  0  0  0  0  0
   56.5550   30.4050   44.6530 N   0  0  0  0  0  0  0  0  0  0  0  0
   57.7070   30.6500   45.2590 N   0  0  0  0  0  0  0  0  0  0  0  0
   58.4400   31.8000   45.2780 C   0  0  0  0  0  0  0  0  0  0  0  0
   58.0800   32.8890   44.6590 N   0  0  0  0  0  0  0  0  0  0  0  0
   57.9210   34.2140   45.2510 C   0  0  0  0  0  0  0  0  0  0  0  0
   57.1104   34.5734   44.6001 H   0  0  0  0  0  0  0  0  0  0  0  0
   58.2030   34.2190   46.7420 C   0  0  0  0  0  0  0  0  0  0  0  0
   57.6262   34.8767   47.4089 H   0  0  0  0  0  0  0  0  0  0  0  0
   58.2392   33.4523   47.5300 H   0  0  0  0  0  0  0  0  0  0  0  0
   59.2130   34.8150   45.7720 C   0  0  0  0  0  0  0  0  0  0  0  0
   59.3666   35.9037   45.7375 H   0  0  0  0  0  0  0  0  0  0  0  0
   60.2824   34.6580   45.5678 H   0  0  0  0  0  0  0  0  0  0  0  0
   59.6070   31.7960   45.9790 N   0  0  0  0  0  0  0  0  0  0  0  0
   60.0250   30.6780   46.6490 C   0  0  0  0  0  0  0  0  0  0  0  0
   61.2370   30.6690   47.3520 O   0  0  0  0  0  0  0  0  0  0  0  0
   61.9750   31.8070   47.7070 C   0  0  0  0  0  0  0  0  0  0  0  0
   63.2680   32.0490   47.2070 C   0  0  0  0  0  0  0  0  0  0  0  0
   63.7345   31.3265   46.5212 H   0  0  0  0  0  0  0  0  0  0  0  0
   63.9620   33.2050   47.5790 C   0  0  0  0  0  0  0  0  0  0  0  0
   64.9758   33.3857   47.1922 H   0  0  0  0  0  0  0  0  0  0  0  0
   63.3690   34.1300   48.4410 C   0  0  0  0  0  0  0  0  0  0  0  0
   63.9190   35.0348   48.7390 H   0  0  0  0  0  0  0  0  0  0  0  0
   62.0780   33.9070   48.9250 C   0  0  0  0  0  0  0  0  0  0  0  0
   61.6088   34.6399   49.5979 H   0  0  0  0  0  0  0  0  0  0  0  0
   61.3810   32.7510   48.5540 C   0  0  0  0  0  0  0  0  0  0  0  0
   60.3609   32.5832   48.9299 H   0  0  0  0  0  0  0  0  0  0  0  0
   59.2780   29.5390   46.6060 N   0  0  0  0  0  0  0  0  0  0  0  0
   58.1200   29.5550   45.9040 C   0  0  0  0  0  0  0  0  0  0  0  0
  1  2  1  0
  2  3  1  0
  3  4  1  0
  4  5  1  0
  5  6  2  0
  5  7  1  0
  7  8  1  0
  8  9  1  0
  9 10  1  0
  9 11  2  0
 11 12  1  0
 12 13  1  0
 12 14  2  0
 14 15  1  0
 15 16  1  0
 16 17  2  3
 17 18  1  0
 18 19  1  0
 18 20  1  0
 20 21  1  0
 20 22  1  0
 20 23  1  0
 23 24  1  0
 23 25  1  0
 16 26  1  0
 26 27  2  0
 27 28  1  0
 28 29  1  0
 29 30  2  0
 30 31  1  0
 30 32  1  0
 32 33  1  0
 32 34  2  0
 34 35  1  0
 34 36  1  0
 36 37  1  0
 36 38  2  0
 38 39  1  0
 27 40  1  0
 40 41  2  0
  8  3  2  0
 41 11  1  0
 41 15  1  0
 23 18  1  0
 38 29  1  0
M  CHG  2   4  -1   7  -1
M  END
>  <UniqueID>  (41) 
39

>  <SMILES>  (41) 
O=c1[n-]c(O)c(/C=c2\cnn3c(=NC4CC4)nc(Oc4ccccc4)nc23)[n-]1

>  <Energy>  (41) 
389.0108508080305

>  <Genealogy>  (41) 
O=c1[n-]c(O)c(C=c2cnn3c(=NC4CC4)nc(Oc4ccccc4)nc23)[n-]1 (protonated)
O=c1[n-]c(O)c(/C=c2\cnn3c(=NC4CC4)nc(Oc4ccccc4)nc23)[n-]1 (cis-trans isomerization)
O=c1[n-]c(O)c(/C=c2\cnn3c(=NC4CC4)nc(Oc4ccccc4)nc23)[n-]1 (3D coordinates assigned)
O=c1[n-]c(O)c(/C=c2\cnn3c(=NC4CC4)nc(Oc4ccccc4)nc23)[n-]1 (nonaromatic ring conformer: 389.0108508080305 kcal/mol)

>  <smiles>  (41) 
O=c1[nH]c(O)c(C=c2cnn3c(=NC4CC4)nc(Oc4ccccc4)nc23)[nH]1

>  <score_type>  (41) 
oracle

>  <origin>  (41) 
adg

>  <m_score__min__energy>  (41) 
-13.550000000000001

>  <m_primary>  (41) 
energy

$$$$
41:0
     RDKit          3D

 55 58  0  0  0  0  0  0  0  0999 V2000
   63.5764   34.8091   46.8087 H   0  0  0  0  0  0  0  0  0  0  0  0
   63.3870   33.9730   47.4980 C   0  0  0  0  0  0  0  0  0  0  0  0
   63.5190   32.6560   47.0520 C   0  0  0  0  0  0  0  0  0  0  0  0
   63.8153   32.4560   46.0117 H   0  0  0  0  0  0  0  0  0  0  0  0
   63.2750   31.5900   47.9260 C   0  0  0  0  0  0  0  0  0  0  0  0
   63.3897   30.5543   47.5737 H   0  0  0  0  0  0  0  0  0  0  0  0
   62.8840   31.8400   49.2520 C   0  0  0  0  0  0  0  0  0  0  0  0
   62.6550   30.6980   50.2000 C   0  0  0  0  0  0  0  0  0  0  0  0
   62.9855   30.9862   51.2088 H   0  0  0  0  0  0  0  0  0  0  0  0
   63.2279   29.8208   49.8648 H   0  0  0  0  0  0  0  0  0  0  0  0
   61.2330   30.3710   50.2280 N   0  0  0  0  0  0  0  0  0  0  0  0
   60.5940   29.8240   49.2390 C   0  0  0  0  0  0  0  0  0  0  0  0
   60.3060   30.4940   48.1050 N   0  0  0  0  0  0  0  0  0  0  0  0
   59.6470   29.7530   47.2160 N   0  0  0  0  0  0  0  0  0  0  0  0
   59.3960   28.4890   47.6340 C   0  0  0  0  0  0  0  0  0  0  0  0
   58.7060   27.4660   46.8090 C   0  0  0  0  0  0  0  0  0  0  0  0
   58.7880   26.1100   47.1850 C   0  0  0  0  0  0  0  0  0  0  0  0
   59.3211   25.8321   48.1062 H   0  0  0  0  0  0  0  0  0  0  0  0
   58.2000   25.1160   46.4010 C   0  0  0  0  0  0  0  0  0  0  0  0
   58.2728   24.0616   46.7058 H   0  0  0  0  0  0  0  0  0  0  0  0
   57.5210   25.4570   45.2330 C   0  0  0  0  0  0  0  0  0  0  0  0
   57.0656   24.6708   44.6129 H   0  0  0  0  0  0  0  0  0  0  0  0
   57.4180   26.7940   44.8490 C   0  0  0  0  0  0  0  0  0  0  0  0
   56.8720   27.0572   43.9311 H   0  0  0  0  0  0  0  0  0  0  0  0
   58.0060   27.8080   45.6250 C   0  0  0  0  0  0  0  0  0  0  0  0
   57.7990   29.1820   45.2590 N   0  0  0  0  0  0  0  0  0  0  0  0
   58.6400   29.7960   45.1800 H   0  0  0  0  0  0  0  0  0  0  0  0
   56.5020   29.7200   44.9490 C   0  0  0  0  0  0  0  0  0  0  0  0
   55.5070   28.9530   44.8540 O   0  0  0  0  0  0  0  0  0  0  0  0
   56.3170   31.1190   44.7160 N   0  0  0  0  0  0  0  0  0  0  0  0
   57.4070   32.0850   44.6290 C   0  0  0  0  0  0  0  0  0  0  0  0
   58.2773   31.7018   45.1820 H   0  0  0  0  0  0  0  0  0  0  0  0
   57.6705   32.2349   43.5716 H   0  0  0  0  0  0  0  0  0  0  0  0
   56.9750   33.4240   45.2310 C   0  0  0  0  0  0  0  0  0  0  0  0
   56.8923   34.1680   44.4250 H   0  0  0  0  0  0  0  0  0  0  0  0
   56.0067   33.2799   45.7326 H   0  0  0  0  0  0  0  0  0  0  0  0
   57.9480   33.9080   46.2330 N   0  0  0  0  0  0  0  0  0  0  0  0
   59.2120   34.2960   45.5740 C   0  0  0  0  0  0  0  0  0  0  0  0
   59.5413   33.4765   44.9182 H   0  0  0  0  0  0  0  0  0  0  0  0
   59.0345   35.2114   44.9905 H   0  0  0  0  0  0  0  0  0  0  0  0
   60.3150   34.5840   46.6120 C   0  0  0  0  0  0  0  0  0  0  0  0
   61.0539   33.7696   46.5864 H   0  0  0  0  0  0  0  0  0  0  0  0
   60.7891   35.5442   46.3607 H   0  0  0  0  0  0  0  0  0  0  0  0
   59.7760   34.6770   47.9140 O   0  0  0  0  0  0  0  0  0  0  0  0
   59.2350   33.4250   48.2960 C   0  0  0  0  0  0  0  0  0  0  0  0
   60.0564   32.7000   48.3946 H   0  0  0  0  0  0  0  0  0  0  0  0
   58.7054   33.5643   49.2500 H   0  0  0  0  0  0  0  0  0  0  0  0
   58.2190   32.8870   47.2660 C   0  0  0  0  0  0  0  0  0  0  0  0
   58.6301   31.9861   46.7870 H   0  0  0  0  0  0  0  0  0  0  0  0
   57.2795   32.6428   47.7834 H   0  0  0  0  0  0  0  0  0  0  0  0
   60.0260   28.2350   49.1830 S   0  0  0  0  0  0  0  0  0  0  0  0
   62.7680   33.1660   49.6980 C   0  0  0  0  0  0  0  0  0  0  0  0
   62.4828   33.3708   50.7405 H   0  0  0  0  0  0  0  0  0  0  0  0
   63.0140   34.2280   48.8210 C   0  0  0  0  0  0  0  0  0  0  0  0
   62.9138   35.2653   49.1730 H   0  0  0  0  0  0  0  0  0  0  0  0
  1  2  1  0
  2  3  2  0
  3  4  1  0
  3  5  1  0
  5  6  1  0
  5  7  2  0
  7  8  1  0
  8  9  1  0
  8 10  1  0
  8 11  1  0
 11 12  2  0
 12 13  1  0
 13 14  1  0
 14 15  2  0
 15 16  1  0
 16 17  2  0
 17 18  1  0
 17 19  1  0
 19 20  1  0
 19 21  2  0
 21 22  1  0
 21 23  1  0
 23 24  1  0
 23 25  2  0
 25 26  1  0
 26 27  1  0
 26 28  1  0
 28 29  2  0
 28 30  1  0
 30 31  1  0
 31 32  1  0
 31 33  1  0
 31 34  1  0
 34 35  1  0
 34 36  1  0
 34 37  1  0
 37 38  1  0
 38 39  1  0
 38 40  1  0
 38 41  1  0
 41 42  1  0
 41 43  1  0
 41 44  1  0
 44 45  1  0
 45 46  1  0
 45 47  1  0
 45 48  1  0
 48 49  1  0
 48 50  1  0
 15 51  1  0
  7 52  1  0
 52 53  1  0
 52 54  2  0
 54 55  1  0
 54  2  1  0
 51 12  1  0
 25 16  1  0
 48 37  1  0
M  CHG  2  13  -1  30  -1
M  END
>  <UniqueID>  (42) 
40

>  <SMILES>  (42) 
O=C([N-]CCN1CCOCC1)Nc1ccccc1-c1n[n-]/c(=N/Cc2ccccc2)s1

>  <Energy>  (42) 
105.26629912953436

>  <Genealogy>  (42) 
O=C([N-]CCN1CCOCC1)Nc1ccccc1-c1n[n-]c(=NCc2ccccc2)s1 (protonated)
O=C([N-]CCN1CCOCC1)Nc1ccccc1-c1n[n-]/c(=N/Cc2ccccc2)s1 (cis-trans isomerization)
O=C([N-]CCN1CCOCC1)Nc1ccccc1-c1n[n-]/c(=N/Cc2ccccc2)s1 (3D coordinates assigned)
O=C([N-]CCN1CCOCC1)Nc1ccccc1-c1n[n-]/c(=N/Cc2ccccc2)s1 (nonaromatic ring conformer: 105.26629912953436 kcal/mol)

>  <smiles>  (42) 
O=C(NCCN1CCOCC1)Nc1ccccc1-c1n[nH]c(=NCc2ccccc2)s1

>  <score_type>  (42) 
oracle

>  <origin>  (42) 
adg

>  <m_score__min__energy>  (42) 
-14.18

>  <m_primary>  (42) 
energy

$$$$
42:0
     RDKit          3D

 61 64  0  0  0  0  0  0  0  0999 V2000
   58.7000   30.4680   45.1450 O   0  0  0  0  0  0  0  0  0  0  0  0
   57.4680   30.4750   44.8820 C   0  0  0  0  0  0  0  0  0  0  0  0
   56.8350   29.2850   44.2350 C   0  0  0  0  0  0  0  0  0  0  0  0
   56.0310   28.5630   45.2150 N   0  0  0  0  0  0  0  0  0  0  0  0
   56.8050   27.0750   45.6710 S   0  0  0  0  0  0  0  0  0  0  0  0
   57.3260   26.3350   44.4710 O   0  0  0  0  0  0  0  0  0  0  0  0
   55.7950   26.2150   46.3780 O   0  0  0  0  0  0  0  0  0  0  0  0
   58.1370   27.4340   46.7610 C   0  0  0  0  0  0  0  0  0  0  0  0
   59.1940   26.5180   46.9080 C   0  0  0  0  0  0  0  0  0  0  0  0
   60.2380   26.7910   47.7930 C   0  0  0  0  0  0  0  0  0  0  0  0
   60.2430   27.9670   48.5410 C   0  0  0  0  0  0  0  0  0  0  0  0
   59.2070   28.9030   48.3830 C   0  0  0  0  0  0  0  0  0  0  0  0
   59.2280   30.1650   49.1490 C   0  0  0  0  0  0  0  0  0  0  0  0
   58.6880   30.1910   50.2860 O   0  0  0  0  0  0  0  0  0  0  0  0
   59.8870   31.3440   48.6430 N   0  0  0  0  0  0  0  0  0  0  0  0
   61.0640   31.2020   47.7700 C   0  0  0  0  0  0  0  0  0  0  0  0
   61.9930   32.4220   47.8640 C   0  0  0  0  0  0  0  0  0  0  0  0
   62.0920   32.8630   49.2610 N   0  0  0  0  0  0  0  0  0  0  0  0
   63.3740   33.1090   49.8440 C   0  0  0  0  0  0  0  0  0  0  0  0
   63.5020   33.9920   50.9210 C   0  0  0  0  0  0  0  0  0  0  0  0
   64.7590   34.2360   51.4810 C   0  0  0  0  0  0  0  0  0  0  0  0
   65.8890   33.6140   50.9600 C   0  0  0  0  0  0  0  0  0  0  0  0
   65.7710   32.7250   49.8920 C   0  0  0  0  0  0  0  0  0  0  0  0
   64.5140   32.4670   49.3400 C   0  0  0  0  0  0  0  0  0  0  0  0
   60.8690   33.0710   50.0550 C   0  0  0  0  0  0  0  0  0  0  0  0
   59.6310   32.6480   49.2650 C   0  0  0  0  0  0  0  0  0  0  0  0
   58.1540   28.6260   47.4950 C   0  0  0  0  0  0  0  0  0  0  0  0
   56.6530   31.6070   45.2170 N   0  0  0  0  0  0  0  0  0  0  0  0
   57.0920   33.0060   45.2470 C   0  0  0  0  0  0  0  0  0  0  0  0
   58.1750   33.2910   44.2070 C   0  0  0  0  0  0  0  0  0  0  0  0
   59.1240   34.2700   44.8690 C   0  0  0  0  0  0  0  0  0  0  0  0
   59.0630   33.9530   46.3540 C   0  0  0  0  0  0  0  0  0  0  0  0
   57.6600   33.4170   46.6090 C   0  0  0  0  0  0  0  0  0  0  0  0
   56.1912   29.6178   43.4075 H   0  0  0  0  0  0  0  0  0  0  0  0
   57.6206   28.6200   43.8469 H   0  0  0  0  0  0  0  0  0  0  0  0
   59.1979   25.5853   46.3248 H   0  0  0  0  0  0  0  0  0  0  0  0
   61.0636   26.0722   47.9011 H   0  0  0  0  0  0  0  0  0  0  0  0
   61.0572   28.1622   49.2544 H   0  0  0  0  0  0  0  0  0  0  0  0
   61.6238   30.3039   48.0700 H   0  0  0  0  0  0  0  0  0  0  0  0
   60.7119   31.1189   46.7312 H   0  0  0  0  0  0  0  0  0  0  0  0
   62.9928   32.1494   47.4950 H   0  0  0  0  0  0  0  0  0  0  0  0
   61.5834   33.2394   47.2524 H   0  0  0  0  0  0  0  0  0  0  0  0
   62.6123   34.4950   51.3278 H   0  0  0  0  0  0  0  0  0  0  0  0
   64.8551   34.9216   52.3358 H   0  0  0  0  0  0  0  0  0  0  0  0
   66.8787   33.8240   51.3918 H   0  0  0  0  0  0  0  0  0  0  0  0
   66.6646   32.2287   49.4857 H   0  0  0  0  0  0  0  0  0  0  0  0
   64.4181   31.7566   48.5057 H   0  0  0  0  0  0  0  0  0  0  0  0
   60.9309   32.4729   50.9761 H   0  0  0  0  0  0  0  0  0  0  0  0
   60.7839   34.1404   50.2981 H   0  0  0  0  0  0  0  0  0  0  0  0
   58.7686   32.5706   49.9435 H   0  0  0  0  0  0  0  0  0  0  0  0
   59.4114   33.3950   48.4880 H   0  0  0  0  0  0  0  0  0  0  0  0
   57.3361   29.3518   47.3755 H   0  0  0  0  0  0  0  0  0  0  0  0
   56.1840   33.5870   45.0280 H   0  0  0  0  0  0  0  0  0  0  0  0
   58.7038   32.3645   43.9388 H   0  0  0  0  0  0  0  0  0  0  0  0
   57.7511   33.6985   43.2773 H   0  0  0  0  0  0  0  0  0  0  0  0
   60.1466   34.1316   44.4880 H   0  0  0  0  0  0  0  0  0  0  0  0
   58.8437   35.3134   44.6625 H   0  0  0  0  0  0  0  0  0  0  0  0
   59.8157   33.1943   46.6146 H   0  0  0  0  0  0  0  0  0  0  0  0
   59.2730   34.8426   46.9659 H   0  0  0  0  0  0  0  0  0  0  0  0
   57.7028   32.5466   47.2803 H   0  0  0  0  0  0  0  0  0  0  0  0
   57.0267   34.1778   47.0887 H   0  0  0  0  0  0  0  0  0  0  0  0
  1  2  2  0
  2  3  1  0
  3  4  1  0
  4  5  1  0
  5  6  2  0
  5  7  2  0
  5  8  1  0
  8  9  2  0
  9 10  1  0
 10 11  2  0
 11 12  1  0
 12 13  1  0
 13 14  2  0
 13 15  1  0
 15 16  1  0
 16 17  1  0
 17 18  1  0
 18 19  1  0
 19 20  2  0
 20 21  1  0
 21 22  2  0
 22 23  1  0
 23 24  2  0
 18 25  1  0
 25 26  1  0
 12 27  2  0
  2 28  1  0
 28 29  1  0
 29 30  1  0
 30 31  1  0
 31 32  1  0
 32 33  1  0
 27  8  1  0
 33 29  1  0
 26 15  1  0
 24 19  1  0
  3 34  1  0
  3 35  1  0
  9 36  1  0
 10 37  1  0
 11 38  1  0
 16 39  1  0
 16 40  1  0
 17 41  1  0
 17 42  1  0
 20 43  1  0
 21 44  1  0
 22 45  1  0
 23 46  1  0
 24 47  1  0
 25 48  1  0
 25 49  1  0
 26 50  1  0
 26 51  1  0
 27 52  1  0
 29 53  1  0
 30 54  1  0
 30 55  1  0
 31 56  1  0
 31 57  1  0
 32 58  1  0
 32 59  1  0
 33 60  1  0
 33 61  1  0
M  CHG  2   4  -1  28  -1
M  END
>  <UniqueID>  (43) 
41

>  <SMILES>  (43) 
O=C(C[N-]S(=O)(=O)c1cccc(C(=O)N2CCN(c3ccccc3)CC2)c1)[N-]C1CCCC1

>  <Energy>  (43) 
72.46914247724541

>  <Genealogy>  (43) 
O=C(C[N-]S(=O)(=O)c1cccc(C(=O)N2CCN(c3ccccc3)CC2)c1)[N-]C1CCCC1 (protonated)
O=C(C[N-]S(=O)(=O)c1cccc(C(=O)N2CCN(c3ccccc3)CC2)c1)[N-]C1CCCC1 (3D coordinates assigned)
O=C(C[N-]S(=O)(=O)c1cccc(C(=O)N2CCN(c3ccccc3)CC2)c1)[N-]C1CCCC1 (nonaromatic ring conformer: 72.46914247724541 kcal/mol)

>  <smiles>  (43) 
O=C(CNS(=O)(=O)c1cccc(C(=O)N2CCN(c3ccccc3)CC2)c1)NC1CCCC1

>  <score_type>  (43) 
oracle

>  <origin>  (43) 
adg

>  <m_score__min__energy>  (43) 
-13.6

>  <m_primary>  (43) 
energy

$$$$
43:0
     RDKit          3D

 56 59  0  0  0  0  0  0  0  0999 V2000
   57.0280   30.8190   43.2660 C   0  0  0  0  0  0  0  0  0  0  0  0
   56.0590   29.8610   43.9130 C   0  0  0  0  0  0  0  0  0  0  0  0
   56.2830   29.6170   45.2530 O   0  0  0  0  0  0  0  0  0  0  0  0
   57.4020   29.1390   45.8890 C   0  0  0  0  0  0  0  0  0  0  0  0
   57.6780   27.7620   46.0030 C   0  0  0  0  0  0  0  0  0  0  0  0
   56.7010   26.7990   45.4190 C   0  0  0  0  0  0  0  0  0  0  0  0
   56.8570   25.4180   45.8660 C   0  0  0  0  0  0  0  0  0  0  0  0
   56.6700   25.1870   47.2070 N   0  0  0  0  0  0  0  0  0  0  0  0
   56.7510   24.0000   47.7610 N   0  0  0  0  0  0  0  0  0  0  0  0
   57.0270   22.8900   47.0540 C   0  0  0  0  0  0  0  0  0  0  0  0
   57.0930   21.7770   47.6260 O   0  0  0  0  0  0  0  0  0  0  0  0
   57.2260   23.0610   45.6970 C   0  0  0  0  0  0  0  0  0  0  0  0
   57.1400   24.3310   45.1070 C   0  0  0  0  0  0  0  0  0  0  0  0
   57.3890   24.4110   43.6760 C   0  0  0  0  0  0  0  0  0  0  0  0
   56.5420   23.2880   43.0530 C   0  0  0  0  0  0  0  0  0  0  0  0
   57.0950   21.9430   43.4560 C   0  0  0  0  0  0  0  0  0  0  0  0
   57.5270   21.8630   44.8930 C   0  0  0  0  0  0  0  0  0  0  0  0
   58.8220   27.3720   46.6580 C   0  0  0  0  0  0  0  0  0  0  0  0
   59.7280   28.2520   47.2150 C   0  0  0  0  0  0  0  0  0  0  0  0
   59.4610   29.5860   47.1020 C   0  0  0  0  0  0  0  0  0  0  0  0
   58.3070   30.0250   46.4430 C   0  0  0  0  0  0  0  0  0  0  0  0
   58.1610   31.4430   46.3680 N   0  0  0  0  0  0  0  0  0  0  0  0
   58.6910   32.5220   47.5790 S   0  0  0  0  0  0  0  0  0  0  0  0
   58.4020   31.9060   48.9370 O   0  0  0  0  0  0  0  0  0  0  0  0
   57.9320   33.8370   47.5260 O   0  0  0  0  0  0  0  0  0  0  0  0
   60.3990   32.8660   47.5170 C   0  0  0  0  0  0  0  0  0  0  0  0
   61.3070   32.4140   48.4450 C   0  0  0  0  0  0  0  0  0  0  0  0
   62.6530   32.7290   48.3270 C   0  0  0  0  0  0  0  0  0  0  0  0
   63.0880   33.5050   47.2700 C   0  0  0  0  0  0  0  0  0  0  0  0
   62.1810   33.9650   46.3320 C   0  0  0  0  0  0  0  0  0  0  0  0
   60.8380   33.6510   46.4470 C   0  0  0  0  0  0  0  0  0  0  0  0
   59.5980   34.2980   45.1340 Br  0  0  0  0  0  0  0  0  0  0  0  0
   57.5799   31.3646   44.0456 H   0  0  0  0  0  0  0  0  0  0  0  0
   57.7368   30.2568   42.6403 H   0  0  0  0  0  0  0  0  0  0  0  0
   56.4739   31.5342   42.6403 H   0  0  0  0  0  0  0  0  0  0  0  0
   55.0463   30.2773   43.8071 H   0  0  0  0  0  0  0  0  0  0  0  0
   56.1925   28.8973   43.3998 H   0  0  0  0  0  0  0  0  0  0  0  0
   55.6885   27.1333   45.6892 H   0  0  0  0  0  0  0  0  0  0  0  0
   56.8830   26.7946   44.3342 H   0  0  0  0  0  0  0  0  0  0  0  0
   56.5900   23.9370   48.7900 H   0  0  0  0  0  0  0  0  0  0  0  0
   57.0774   25.3908   43.2849 H   0  0  0  0  0  0  0  0  0  0  0  0
   58.4572   24.2986   43.4388 H   0  0  0  0  0  0  0  0  0  0  0  0
   55.5038   23.3759   43.4057 H   0  0  0  0  0  0  0  0  0  0  0  0
   56.5716   23.3779   41.9571 H   0  0  0  0  0  0  0  0  0  0  0  0
   56.3165   21.1845   43.2866 H   0  0  0  0  0  0  0  0  0  0  0  0
   57.9936   21.7733   42.8447 H   0  0  0  0  0  0  0  0  0  0  0  0
   57.0190   21.0040   45.3556 H   0  0  0  0  0  0  0  0  0  0  0  0
   58.6226   21.7651   44.8818 H   0  0  0  0  0  0  0  0  0  0  0  0
   59.0276   26.2948   46.7433 H   0  0  0  0  0  0  0  0  0  0  0  0
   60.6307   27.8921   47.7303 H   0  0  0  0  0  0  0  0  0  0  0  0
   60.1576   30.3209   47.5318 H   0  0  0  0  0  0  0  0  0  0  0  0
   57.7130   31.8130   45.5100 H   0  0  0  0  0  0  0  0  0  0  0  0
   60.9633   31.7972   49.2885 H   0  0  0  0  0  0  0  0  0  0  0  0
   63.3724   32.3616   49.0736 H   0  0  0  0  0  0  0  0  0  0  0  0
   64.1545   33.7569   47.1743 H   0  0  0  0  0  0  0  0  0  0  0  0
   62.5288   34.5830   45.4911 H   0  0  0  0  0  0  0  0  0  0  0  0
  1  2  1  0
  2  3  1  0
  3  4  1  0
  4  5  2  0
  5  6  1  0
  6  7  1  0
  7  8  2  0
  8  9  1  0
  9 10  1  0
 10 11  2  0
 10 12  1  0
 12 13  2  0
 13 14  1  0
 14 15  1  0
 15 16  1  0
 16 17  1  0
  5 18  1  0
 18 19  2  0
 19 20  1  0
 20 21  2  0
 21 22  1  0
 22 23  1  0
 23 24  2  0
 23 25  2  0
 23 26  1  0
 26 27  2  0
 27 28  1  0
 28 29  2  0
 29 30  1  0
 30 31  2  0
 31 32  1  0
 21  4  1  0
 31 26  1  0
 13  7  1  0
 17 12  1  0
  1 33  1  0
  1 34  1  0
  1 35  1  0
  2 36  1  0
  2 37  1  0
  6 38  1  0
  6 39  1  0
  9 40  1  0
 14 41  1  0
 14 42  1  0
 15 43  1  0
 15 44  1  0
 16 45  1  0
 16 46  1  0
 17 47  1  0
 17 48  1  0
 18 49  1  0
 19 50  1  0
 20 51  1  0
 22 52  1  0
 27 53  1  0
 28 54  1  0
 29 55  1  0
 30 56  1  0
M  END
>  <smiles>  (44) 
CCOc1c(Cc2n[nH]c(=O)c3c2CCCC3)cccc1NS(=O)(=O)c1ccccc1Br

>  <score_type>  (44) 
oracle

>  <origin>  (44) 
adg

>  <m_score__min__energy>  (44) 
-10.800000000000001

>  <m_primary>  (44) 
energy

$$$$
44:0
     RDKit          3D

 59 62  0  0  0  0  0  0  0  0999 V2000
   54.5867   29.1932   55.8008 H   0  0  0  0  0  0  0  0  0  0  0  0
   53.9920   29.6410   54.9910 C   0  0  0  0  0  0  0  0  0  0  0  0
   52.9099   29.7898   55.1208 H   0  0  0  0  0  0  0  0  0  0  0  0
   54.5870   30.0060   53.8440 C   0  0  0  0  0  0  0  0  0  0  0  0
   53.9540   30.5840   52.7380 C   0  0  0  0  0  0  0  0  0  0  0  0
   52.6620   30.9520   52.6350 C   0  0  0  0  0  0  0  0  0  0  0  0
   52.0996   31.1268   53.5640 H   0  0  0  0  0  0  0  0  0  0  0  0
   51.9550   31.1350   51.3530 C   0  0  0  0  0  0  0  0  0  0  0  0
   52.0260   30.2550   50.3390 N   0  0  0  0  0  0  0  0  0  0  0  0
   51.3160   30.8490   49.3570 C   0  0  0  0  0  0  0  0  0  0  0  0
   51.1400   30.3160   48.2300 O   0  0  0  0  0  0  0  0  0  0  0  0
   50.8180   32.0630   49.6710 N   0  0  0  0  0  0  0  0  0  0  0  0
   51.2410   32.2360   50.9340 C   0  0  0  0  0  0  0  0  0  0  0  0
   51.0190   33.3970   51.6660 O   0  0  0  0  0  0  0  0  0  0  0  0
   54.9370   30.7610   51.7760 C   0  0  0  0  0  0  0  0  0  0  0  0
   54.8059   31.2031   50.7773 H   0  0  0  0  0  0  0  0  0  0  0  0
   56.1120   30.2750   52.3140 C   0  0  0  0  0  0  0  0  0  0  0  0
   57.4400   30.3190   51.6050 C   0  0  0  0  0  0  0  0  0  0  0  0
   58.0587   29.4784   51.9523 H   0  0  0  0  0  0  0  0  0  0  0  0
   57.2562   30.2486   50.5227 H   0  0  0  0  0  0  0  0  0  0  0  0
   58.1680   31.6080   51.8780 C   0  0  0  0  0  0  0  0  0  0  0  0
   57.7050   32.4120   52.7340 O   0  0  0  0  0  0  0  0  0  0  0  0
   59.3950   31.9340   51.1930 N   0  0  0  0  0  0  0  0  0  0  0  0
   59.7490   33.2970   50.8710 C   0  0  0  0  0  0  0  0  0  0  0  0
   58.9820   34.2560   51.1580 O   0  0  0  0  0  0  0  0  0  0  0  0
   61.0340   33.5720   50.1540 C   0  0  0  0  0  0  0  0  0  0  0  0
   61.8592   33.6070   50.8805 H   0  0  0  0  0  0  0  0  0  0  0  0
   60.9639   34.5380   49.6325 H   0  0  0  0  0  0  0  0  0  0  0  0
   61.2860   32.5070   49.1790 N   0  0  0  0  0  0  0  0  0  0  0  0
   61.5930   32.8440   47.7820 C   0  0  0  0  0  0  0  0  0  0  0  0
   62.6843   32.8422   47.6438 H   0  0  0  0  0  0  0  0  0  0  0  0
   61.1188   32.0953   47.1304 H   0  0  0  0  0  0  0  0  0  0  0  0
   61.0430   34.2300   47.4120 C   0  0  0  0  0  0  0  0  0  0  0  0
   60.9640   34.8371   48.3259 H   0  0  0  0  0  0  0  0  0  0  0  0
   61.7337   34.6898   46.6898 H   0  0  0  0  0  0  0  0  0  0  0  0
   59.6830   34.1400   46.7670 C   0  0  0  0  0  0  0  0  0  0  0  0
   58.6410   33.4380   47.3990 C   0  0  0  0  0  0  0  0  0  0  0  0
   58.8019   32.9974   48.3940 H   0  0  0  0  0  0  0  0  0  0  0  0
   57.4020   33.2980   46.7680 C   0  0  0  0  0  0  0  0  0  0  0  0
   56.5919   32.7442   47.2649 H   0  0  0  0  0  0  0  0  0  0  0  0
   57.1910   33.8610   45.5060 C   0  0  0  0  0  0  0  0  0  0  0  0
   56.2153   33.7492   45.0106 H   0  0  0  0  0  0  0  0  0  0  0  0
   58.2190   34.5660   44.8730 C   0  0  0  0  0  0  0  0  0  0  0  0
   58.0501   35.0125   43.8820 H   0  0  0  0  0  0  0  0  0  0  0  0
   59.4620   34.7040   45.4990 C   0  0  0  0  0  0  0  0  0  0  0  0
   60.2699   35.2563   44.9968 H   0  0  0  0  0  0  0  0  0  0  0  0
   61.0580   31.1420   49.5790 C   0  0  0  0  0  0  0  0  0  0  0  0
   61.4700   30.1860   48.8690 O   0  0  0  0  0  0  0  0  0  0  0  0
   60.3390   30.8530   50.8660 C   0  0  0  0  0  0  0  0  0  0  0  0
   61.0758   30.7603   51.6775 H   0  0  0  0  0  0  0  0  0  0  0  0
   59.7748   29.9157   50.7512 H   0  0  0  0  0  0  0  0  0  0  0  0
   55.9100   29.8390   53.5810 N   0  0  0  0  0  0  0  0  0  0  0  0
   56.9290   29.2500   54.4660 C   0  0  0  0  0  0  0  0  0  0  0  0
   57.8449   29.8573   54.4186 H   0  0  0  0  0  0  0  0  0  0  0  0
   56.5403   29.2317   55.4949 H   0  0  0  0  0  0  0  0  0  0  0  0
   57.2490   27.8240   54.0330 C   0  0  0  0  0  0  0  0  0  0  0  0
   57.3905   27.1935   54.9232 H   0  0  0  0  0  0  0  0  0  0  0  0
   56.4174   27.4280   53.4317 H   0  0  0  0  0  0  0  0  0  0  0  0
   58.1701   27.8214   53.4317 H   0  0  0  0  0  0  0  0  0  0  0  0
  1  2  1  0
  2  3  1  0
  2  4  2  0
  4  5  1  0
  5  6  2  0
  6  7  1  0
  6  8  1  0
  8  9  1  0
  9 10  1  0
 10 11  2  0
 10 12  1  0
 12 13  1  0
 13 14  1  0
  5 15  1  0
 15 16  1  0
 15 17  2  0
 17 18  1  0
 18 19  1  0
 18 20  1  0
 18 21  1  0
 21 22  2  0
 21 23  1  0
 23 24  1  0
 24 25  2  0
 24 26  1  0
 26 27  1  0
 26 28  1  0
 26 29  1  0
 29 30  1  0
 30 31  1  0
 30 32  1  0
 30 33  1  0
 33 34  1  0
 33 35  1  0
 33 36  1  0
 36 37  2  0
 37 38  1  0
 37 39  1  0
 39 40  1  0
 39 41  2  0
 41 42  1  0
 41 43  1  0
 43 44  1  0
 43 45  2  0
 45 46  1  0
 29 47  1  0
 47 48  2  0
 47 49  1  0
 49 50  1  0
 49 51  1  0
 17 52  1  0
 52 53  1  0
 53 54  1  0
 53 55  1  0
 53 56  1  0
 56 57  1  0
 56 58  1  0
 56 59  1  0
 52  4  1  0
 13  8  2  0
 49 23  1  0
 45 36  1  0
M  CHG  3   9  -1  12  -1  14  -1
M  END
>  <UniqueID>  (45) 
42

>  <SMILES>  (45) 
C=c1/c(=C/c2[n-]c(=O)[n-]c2[O-])cc(CC(=O)N2CC(=O)N(CCc3ccccc3)CC2=O)n1CC

>  <Energy>  (45) 
123.51103908212968

>  <Genealogy>  (45) 
C=c1c(=Cc2[n-]c(=O)[n-]c2[O-])cc(CC(=O)N2CC(=O)N(CCc3ccccc3)CC2=O)n1CC (protonated)
C=c1/c(=C/c2[n-]c(=O)[n-]c2[O-])cc(CC(=O)N2CC(=O)N(CCc3ccccc3)CC2=O)n1CC (cis-trans isomerization)
C=c1/c(=C/c2[n-]c(=O)[n-]c2[O-])cc(CC(=O)N2CC(=O)N(CCc3ccccc3)CC2=O)n1CC (3D coordinates assigned)
C=c1/c(=C/c2[n-]c(=O)[n-]c2[O-])cc(CC(=O)N2CC(=O)N(CCc3ccccc3)CC2=O)n1CC (nonaromatic ring conformer: 123.51103908212968 kcal/mol)

>  <smiles>  (45) 
C=c1c(=Cc2[nH]c(=O)[nH]c2O)cc(CC(=O)N2CC(=O)N(CCc3ccccc3)CC2=O)n1CC

>  <score_type>  (45) 
oracle

>  <origin>  (45) 
adg

>  <m_score__min__energy>  (45) 
-18.969999999999999

>  <m_primary>  (45) 
energy

$$$$
45:0
     RDKit          3D

 40 42  0  0  0  0  0  0  0  0999 V2000
   54.7880   26.3330   46.0180 N   0  0  0  0  0  0  0  0  0  0  0  0
   56.4430   25.8380   46.0240 S   0  0  0  0  0  0  0  0  0  0  0  0
   56.6140   24.6380   45.1350 O   0  0  0  0  0  0  0  0  0  0  0  0
   56.8500   25.4660   47.4220 O   0  0  0  0  0  0  0  0  0  0  0  0
   57.4470   27.1580   45.4370 C   0  0  0  0  0  0  0  0  0  0  0  0
   58.8180   26.9660   45.2240 C   0  0  0  0  0  0  0  0  0  0  0  0
   59.6130   28.0210   44.7740 C   0  0  0  0  0  0  0  0  0  0  0  0
   59.0480   29.2800   44.5490 C   0  0  0  0  0  0  0  0  0  0  0  0
   57.6780   29.4940   44.7820 C   0  0  0  0  0  0  0  0  0  0  0  0
   57.0710   30.8280   44.5770 C   0  0  0  0  0  0  0  0  0  0  0  0
   56.5810   31.1160   43.4520 O   0  0  0  0  0  0  0  0  0  0  0  0
   57.0390   31.8220   45.6110 N   0  0  0  0  0  0  0  0  0  0  0  0
   57.9800   32.8890   45.8080 C   0  0  0  0  0  0  0  0  0  0  0  0
   58.1070   33.8420   44.7910 C   0  0  0  0  0  0  0  0  0  0  0  0
   59.0600   34.8590   44.8820 C   0  0  0  0  0  0  0  0  0  0  0  0
   59.8900   34.9380   45.9990 C   0  0  0  0  0  0  0  0  0  0  0  0
   59.7530   34.0190   47.0400 C   0  0  0  0  0  0  0  0  0  0  0  0
   58.7820   33.0050   46.9750 C   0  0  0  0  0  0  0  0  0  0  0  0
   58.6160   32.1230   48.1460 C   0  0  0  0  0  0  0  0  0  0  0  0
   57.7840   32.4260   49.0420 O   0  0  0  0  0  0  0  0  0  0  0  0
   59.3520   30.9040   48.2590 N   0  0  0  0  0  0  0  0  0  0  0  0
   60.1660   30.0220   47.4030 C   0  0  0  0  0  0  0  0  0  0  0  0
   60.3600   28.9480   48.4220 C   0  0  0  0  0  0  0  0  0  0  0  0
   59.5310   29.8510   49.2730 C   0  0  0  0  0  0  0  0  0  0  0  0
   56.8810   28.4210   45.2120 C   0  0  0  0  0  0  0  0  0  0  0  0
   54.6930   27.0920   46.7290 H   0  0  0  0  0  0  0  0  0  0  0  0
   59.2694   25.9807   45.4120 H   0  0  0  0  0  0  0  0  0  0  0  0
   60.6867   27.8617   44.5959 H   0  0  0  0  0  0  0  0  0  0  0  0
   59.6779   30.1065   44.1882 H   0  0  0  0  0  0  0  0  0  0  0  0
   57.4494   33.7895   43.9108 H   0  0  0  0  0  0  0  0  0  0  0  0
   59.1555   35.5975   44.0723 H   0  0  0  0  0  0  0  0  0  0  0  0
   60.6546   35.7265   46.0600 H   0  0  0  0  0  0  0  0  0  0  0  0
   60.4106   34.0888   47.9190 H   0  0  0  0  0  0  0  0  0  0  0  0
   59.6205   29.6710   46.5146 H   0  0  0  0  0  0  0  0  0  0  0  0
   61.0714   30.4560   46.9538 H   0  0  0  0  0  0  0  0  0  0  0  0
   59.9066   27.9756   48.1793 H   0  0  0  0  0  0  0  0  0  0  0  0
   61.3427   28.5537   48.7199 H   0  0  0  0  0  0  0  0  0  0  0  0
   58.5800   29.3906   49.5790 H   0  0  0  0  0  0  0  0  0  0  0  0
   59.9559   30.1556   50.2408 H   0  0  0  0  0  0  0  0  0  0  0  0
   55.8035   28.5725   45.3737 H   0  0  0  0  0  0  0  0  0  0  0  0
  1  2  1  0
  2  3  2  0
  2  4  2  0
  2  5  1  0
  5  6  2  0
  6  7  1  0
  7  8  2  0
  8  9  1  0
  9 10  1  0
 10 11  2  0
 10 12  1  0
 12 13  1  0
 13 14  2  0
 14 15  1  0
 15 16  2  0
 16 17  1  0
 17 18  2  0
 18 19  1  0
 19 20  2  0
 19 21  1  0
 21 22  1  0
 22 23  1  0
 23 24  1  0
  9 25  2  0
 25  5  1  0
 18 13  1  0
 24 21  1  0
  1 26  1  0
  6 27  1  0
  7 28  1  0
  8 29  1  0
 14 30  1  0
 15 31  1  0
 16 32  1  0
 17 33  1  0
 22 34  1  0
 22 35  1  0
 23 36  1  0
 23 37  1  0
 24 38  1  0
 24 39  1  0
 25 40  1  0
M  CHG  2   1  -1  12  -1
M  END
>  <UniqueID>  (46) 
43

>  <SMILES>  (46) 
[NH-]S(=O)(=O)c1cccc(C(=O)[N-]c2ccccc2C(=O)N2CCC2)c1

>  <Energy>  (46) 
96.60864579005434

>  <Genealogy>  (46) 
[NH-]S(=O)(=O)c1cccc(C(=O)[N-]c2ccccc2C(=O)N2CCC2)c1 (protonated)
[NH-]S(=O)(=O)c1cccc(C(=O)[N-]c2ccccc2C(=O)N2CCC2)c1 (3D coordinates assigned)
[NH-]S(=O)(=O)c1cccc(C(=O)[N-]c2ccccc2C(=O)N2CCC2)c1 (nonaromatic ring conformer: 96.60864579005434 kcal/mol)

>  <smiles>  (46) 
NS(=O)(=O)c1cccc(C(=O)Nc2ccccc2C(=O)N2CCC2)c1

>  <score_type>  (46) 
oracle

>  <origin>  (46) 
adg

>  <m_score__min__energy>  (46) 
-12.720000000000001

>  <m_primary>  (46) 
energy

$$$$
46:0
     RDKit          3D

 57 60  0  0  0  0  0  0  0  0999 V2000
   55.1297   26.3582   47.1029 H   0  0  0  0  0  0  0  0  0  0  0  0
   55.9240   26.0550   46.4050 C   0  0  0  0  0  0  0  0  0  0  0  0
   57.0870   26.7570   46.3530 N   0  0  0  0  0  0  0  0  0  0  0  0
   58.0980   26.4180   45.4990 C   0  0  0  0  0  0  0  0  0  0  0  0
   59.2100   27.0970   45.4610 N   0  0  0  0  0  0  0  0  0  0  0  0
   59.8120   27.8330   46.5380 C   0  0  0  0  0  0  0  0  0  0  0  0
   60.7720   28.6250   46.3280 O   0  0  0  0  0  0  0  0  0  0  0  0
   59.3130   27.6530   47.8670 N   0  0  0  0  0  0  0  0  0  0  0  0
   58.4840   27.0310   48.0120 H   0  0  0  0  0  0  0  0  0  0  0  0
   59.9240   28.2890   49.0320 C   0  0  0  0  0  0  0  0  0  0  0  0
   59.2967   28.1057   49.9168 H   0  0  0  0  0  0  0  0  0  0  0  0
   60.9267   27.8645   49.1881 H   0  0  0  0  0  0  0  0  0  0  0  0
   60.0480   29.7730   48.8090 C   0  0  0  0  0  0  0  0  0  0  0  0
   58.9110   30.5930   48.8930 C   0  0  0  0  0  0  0  0  0  0  0  0
   57.9257   30.1435   49.0858 H   0  0  0  0  0  0  0  0  0  0  0  0
   59.0240   31.9770   48.7330 C   0  0  0  0  0  0  0  0  0  0  0  0
   58.1268   32.6104   48.7952 H   0  0  0  0  0  0  0  0  0  0  0  0
   60.2790   32.5630   48.4930 C   0  0  0  0  0  0  0  0  0  0  0  0
   60.3970   34.0610   48.3390 C   0  0  0  0  0  0  0  0  0  0  0  0
   60.0839   34.5438   49.2765 H   0  0  0  0  0  0  0  0  0  0  0  0
   61.4441   34.3057   48.1074 H   0  0  0  0  0  0  0  0  0  0  0  0
   59.5290   34.5640   47.2130 C   0  0  0  0  0  0  0  0  0  0  0  0
   59.3230   35.8070   47.1250 O   0  0  0  0  0  0  0  0  0  0  0  0
   58.9170   33.6700   46.2560 N   0  0  0  0  0  0  0  0  0  0  0  0
   59.6470   32.4960   45.7450 C   0  0  0  0  0  0  0  0  0  0  0  0
   60.1608   32.7668   44.8108 H   0  0  0  0  0  0  0  0  0  0  0  0
   60.3801   32.1749   46.4996 H   0  0  0  0  0  0  0  0  0  0  0  0
   58.6780   31.3440   45.4720 C   0  0  0  0  0  0  0  0  0  0  0  0
   59.1997   30.5497   44.9180 H   0  0  0  0  0  0  0  0  0  0  0  0
   58.3074   30.9430   46.4269 H   0  0  0  0  0  0  0  0  0  0  0  0
   57.5500   31.8320   44.6780 N   0  0  0  0  0  0  0  0  0  0  0  0
   57.4910   31.5380   43.2780 C   0  0  0  0  0  0  0  0  0  0  0  0
   58.1120   32.2680   42.4590 O   0  0  0  0  0  0  0  0  0  0  0  0
   56.6370   30.4170   42.7620 C   0  0  0  0  0  0  0  0  0  0  0  0
   56.4846   30.8458   41.7605 H   0  0  0  0  0  0  0  0  0  0  0  0
   55.7170   29.7340   43.7630 C   0  0  0  0  0  0  0  0  0  0  0  0
   55.6127   30.1403   44.7799 H   0  0  0  0  0  0  0  0  0  0  0  0
   54.6565   29.4421   43.7703 H   0  0  0  0  0  0  0  0  0  0  0  0
   57.0120   29.0610   43.3440 C   0  0  0  0  0  0  0  0  0  0  0  0
   57.8455   28.9802   44.0572 H   0  0  0  0  0  0  0  0  0  0  0  0
   57.2776   28.0804   42.9223 H   0  0  0  0  0  0  0  0  0  0  0  0
   56.7960   32.9660   45.2140 C   0  0  0  0  0  0  0  0  0  0  0  0
   56.0362   33.2791   44.4828 H   0  0  0  0  0  0  0  0  0  0  0  0
   56.3035   32.6675   46.1512 H   0  0  0  0  0  0  0  0  0  0  0  0
   57.7500   34.1320   45.4890 C   0  0  0  0  0  0  0  0  0  0  0  0
   58.0897   34.5557   44.5324 H   0  0  0  0  0  0  0  0  0  0  0  0
   57.2188   34.8972   46.0740 H   0  0  0  0  0  0  0  0  0  0  0  0
   61.4130   31.7370   48.3860 C   0  0  0  0  0  0  0  0  0  0  0  0
   62.3957   32.1825   48.1721 H   0  0  0  0  0  0  0  0  0  0  0  0
   61.2980   30.3530   48.5500 C   0  0  0  0  0  0  0  0  0  0  0  0
   62.1921   29.7166   48.4755 H   0  0  0  0  0  0  0  0  0  0  0  0
   57.9410   25.3140   44.6510 C   0  0  0  0  0  0  0  0  0  0  0  0
   58.7470   25.0283   43.9591 H   0  0  0  0  0  0  0  0  0  0  0  0
   56.7550   24.5790   44.6900 C   0  0  0  0  0  0  0  0  0  0  0  0
   56.6225   23.7110   44.0274 H   0  0  0  0  0  0  0  0  0  0  0  0
   55.7370   24.9480   45.5720 C   0  0  0  0  0  0  0  0  0  0  0  0
   54.2380   24.0350   45.6320 Cl  0  0  0  0  0  0  0  0  0  0  0  0
  1  2  1  0
  2  3  1  0
  3  4  1  0
  4  5  2  0
  5  6  1  0
  6  7  2  0
  6  8  1  0
  8  9  1  0
  8 10  1  0
 10 11  1  0
 10 12  1  0
 10 13  1  0
 13 14  2  0
 14 15  1  0
 14 16  1  0
 16 17  1  0
 16 18  2  0
 18 19  1  0
 19 20  1  0
 19 21  1  0
 19 22  1  0
 22 23  2  0
 22 24  1  0
 24 25  1  0
 25 26  1  0
 25 27  1  0
 25 28  1  0
 28 29  1  0
 28 30  1  0
 28 31  1  0
 31 32  1  0
 32 33  2  0
 32 34  1  0
 34 35  1  0
 34 36  1  0
 36 37  1  0
 36 38  1  0
 36 39  1  0
 39 40  1  0
 39 41  1  0
 31 42  1  0
 42 43  1  0
 42 44  1  0
 42 45  1  0
 45 46  1  0
 45 47  1  0
 18 48  1  0
 48 49  1  0
 48 50  2  0
 50 51  1  0
  4 52  1  0
 52 53  1  0
 52 54  2  0
 54 55  1  0
 54 56  1  0
 56 57  1  0
 56  2  2  0
 50 13  1  0
 45 24  1  0
 39 34  1  0
M  CHG  1   3  -1
M  END
>  <UniqueID>  (47) 
44

>  <SMILES>  (47) 
O=C(/N=c1/ccc(Cl)c[n-]1)NCc1ccc(CC(=O)N2CCN(C(=O)C3CC3)CC2)cc1

>  <Energy>  (47) 
328.90284328112665

>  <Genealogy>  (47) 
O=C(N=c1ccc(Cl)c[n-]1)NCc1ccc(CC(=O)N2CCN(C(=O)C3CC3)CC2)cc1 (protonated)
O=C(/N=c1/ccc(Cl)c[n-]1)NCc1ccc(CC(=O)N2CCN(C(=O)C3CC3)CC2)cc1 (cis-trans isomerization)
O=C(/N=c1/ccc(Cl)c[n-]1)NCc1ccc(CC(=O)N2CCN(C(=O)C3CC3)CC2)cc1 (3D coordinates assigned)
O=C(/N=c1/ccc(Cl)c[n-]1)NCc1ccc(CC(=O)N2CCN(C(=O)C3CC3)CC2)cc1 (nonaromatic ring conformer: 328.90284328112665 kcal/mol)

>  <smiles>  (47) 
O=C(N=c1ccc(Cl)c[nH]1)NCc1ccc(CC(=O)N2CCN(C(=O)C3CC3)CC2)cc1

>  <score_type>  (47) 
oracle

>  <origin>  (47) 
adg

>  <m_score__min__energy>  (47) 
-11.69

>  <m_primary>  (47) 
energy

$$$$
47:0
     RDKit          3D

 47 49  0  0  1  0  0  0  0  0999 V2000
   58.0170   32.7050   52.1210 C   0  0  0  0  0  0  0  0  0  0  0  0
   58.9590   31.9940   50.7840 S   0  0  0  0  0  0  0  0  0  0  0  0
   58.7650   30.5060   50.8830 O   0  0  0  0  0  0  0  0  0  0  0  0
   58.2930   32.4150   49.5010 O   0  0  0  0  0  0  0  0  0  0  0  0
   60.6040   32.4000   50.8670 N   0  0  0  0  0  0  0  0  0  0  0  0
   61.3950   32.6290   49.7350 C   0  0  0  0  0  0  0  0  0  0  0  0
   62.7180   32.1900   49.6830 C   0  0  0  0  0  0  0  0  0  0  0  0
   63.4630   32.4380   48.5420 C   0  0  0  0  0  0  0  0  0  0  0  0
   57.1500   29.7080   44.2570 C   0  0  0  0  0  0  0  0  0  0  0  0
   57.9840   30.0110   45.3380 C   0  0  0  0  0  0  0  0  0  0  0  0
   61.0220   34.2550   46.3770 N   0  0  0  0  0  0  0  0  0  0  0  0
   59.8370   33.8800   45.9730 C   0  0  0  0  0  0  0  0  0  0  0  0
   59.1140   34.7550   45.2500 N   0  0  0  0  0  0  0  0  0  0  0  0
   57.8670   34.4500   44.7860 C   0  0  0  0  0  0  0  0  0  0  0  0
   57.3960   33.1940   45.1030 C   0  0  0  0  0  0  0  0  0  0  0  0
   58.1520   32.3100   45.8460 C   0  0  0  0  0  0  0  0  0  0  0  0
   57.6410   31.1650   46.0950 N   0  0  0  0  0  0  0  0  0  0  0  0
   61.5800   33.5600   47.5010 C   0  0  0  0  0  0  0  0  0  0  0  0
   62.8940   33.1070   47.4880 C   0  0  0  0  0  0  0  0  0  0  0  0
   57.3830   28.6160   43.4540 C   0  0  0  0  0  0  0  0  0  0  0  0
   58.4750   27.8030   43.7320 C   0  0  0  0  0  0  0  0  0  0  0  0
   59.2930   28.1180   44.8070 C   0  0  0  0  0  0  0  0  0  0  0  0
   59.0650   29.2130   45.6200 C   0  0  0  0  0  0  0  0  0  0  0  0
   60.0990   29.6110   46.9780 S   0  0  0  0  0  0  0  0  0  0  0  0
   59.1210   30.3890   48.1700 N   0  0  0  0  0  0  0  0  0  0  0  0
   60.6130   28.3370   47.5960 O   0  0  0  0  0  0  0  0  0  0  0  0
   61.2060   30.5170   46.5400 O   0  0  0  0  0  0  0  0  0  0  0  0
   59.3850   32.6450   46.2900 N   0  0  0  0  0  0  0  0  0  0  0  0
   60.8530   33.3030   48.6450 C   0  0  0  0  0  0  0  0  0  0  0  0
   58.4439   32.3828   53.0822 H   0  0  0  0  0  0  0  0  0  0  0  0
   58.0541   33.8023   52.0527 H   0  0  0  0  0  0  0  0  0  0  0  0
   56.9720   32.3685   52.0527 H   0  0  0  0  0  0  0  0  0  0  0  0
   61.0710   32.4870   51.8080 H   0  0  0  0  0  0  0  0  0  0  0  0
   63.1628   31.6551   50.5351 H   0  0  0  0  0  0  0  0  0  0  0  0
   64.5079   32.0995   48.4811 H   0  0  0  0  0  0  0  0  0  0  0  0
   56.2883   30.3577   44.0442 H   0  0  0  0  0  0  0  0  0  0  0  0
   59.4470   35.7130   44.9950 H   0  0  0  0  0  0  0  0  0  0  0  0
   57.2739   35.1634   44.1949 H   0  0  0  0  0  0  0  0  0  0  0  0
   56.3972   32.8899   44.7568 H   0  0  0  0  0  0  0  0  0  0  0  0
   63.5051   33.2932   46.5925 H   0  0  0  0  0  0  0  0  0  0  0  0
   56.7175   28.3905   42.6077 H   0  0  0  0  0  0  0  0  0  0  0  0
   58.6877   26.9221   43.1084 H   0  0  0  0  0  0  0  0  0  0  0  0
   60.1568   27.4715   45.0211 H   0  0  0  0  0  0  0  0  0  0  0  0
   59.6990   30.8060   48.9340 H   0  0  0  0  0  0  0  0  0  0  0  0
   58.5650   31.1680   47.7440 H   0  0  0  0  0  0  0  0  0  0  0  0
   59.9290   31.9650   46.8440 H   0  0  0  0  0  0  0  0  0  0  0  0
   59.8081   33.6429   48.6973 H   0  0  0  0  0  0  0  0  0  0  0  0
  1  2  1  0
  2  3  2  0
  2  4  2  0
  2  5  1  0
  5  6  1  0
  6  7  2  0
  7  8  1  0
  8  9  2  0
  9 10  1  0
 10 11  1  0
 11 12  2  0
 12 13  1  0
 13 14  1  0
 14 15  2  0
 15 16  1  0
 16 17  2  0
 17 18  1  0
 18 19  2  0
 19 20  1  0
 20 21  2  0
 21 22  1  0
 22 23  2  0
 23 24  1  0
 24 25  1  0
 24 26  2  0
 24 27  2  0
 16 28  1  0
 10 29  2  0
 29  6  1  0
 28 12  1  0
 23 18  1  0
  1 30  1  0
  1 31  1  0
  1 32  1  0
  5 33  1  0
  7 34  1  0
  8 35  1  0
  9 36  1  0
 13 37  1  0
 14 38  1  0
 15 39  1  0
 19 40  1  0
 20 41  1  0
 21 42  1  0
 22 43  1  0
 25 44  1  0
 25 45  1  0
 28 46  1  0
 29 47  1  0
M  END
>  <smiles>  (48) 
CS(=O)(=O)Nc1cccc(N=c2[nH]ccc(=Nc3ccccc3S(N)(=O)=O)[nH]2)c1

>  <score_type>  (48) 
oracle

>  <origin>  (48) 
adg

>  <m_score__min__energy>  (48) 
-8.9499999999999993

>  <m_primary>  (48) 
energy

$$$$
48:0
     RDKit          3D

 41 44  0  0  0  0  0  0  0  0999 V2000
   63.2821   34.6765   46.3315 H   0  0  0  0  0  0  0  0  0  0  0  0
   63.0240   33.8550   47.0160 C   0  0  0  0  0  0  0  0  0  0  0  0
   63.7900   33.6360   48.1580 C   0  0  0  0  0  0  0  0  0  0  0  0
   64.6478   34.2896   48.3747 H   0  0  0  0  0  0  0  0  0  0  0  0
   63.4750   32.5900   49.0310 C   0  0  0  0  0  0  0  0  0  0  0  0
   64.4600   32.4030   50.4800 Cl  0  0  0  0  0  0  0  0  0  0  0  0
   62.3880   31.7300   48.7460 C   0  0  0  0  0  0  0  0  0  0  0  0
   62.0440   30.5970   49.6840 C   0  0  0  0  0  0  0  0  0  0  0  0
   62.1476   30.9382   50.7246 H   0  0  0  0  0  0  0  0  0  0  0  0
   61.0075   30.2748   49.5052 H   0  0  0  0  0  0  0  0  0  0  0  0
   62.7264   29.7529   49.5052 H   0  0  0  0  0  0  0  0  0  0  0  0
   61.6020   31.9710   47.5930 C   0  0  0  0  0  0  0  0  0  0  0  0
   60.4300   31.1800   47.3290 N   0  0  0  0  0  0  0  0  0  0  0  0
   59.5510   31.4460   47.8230 H   0  0  0  0  0  0  0  0  0  0  0  0
   60.4300   30.0460   46.4430 C   0  0  0  0  0  0  0  0  0  0  0  0
   61.4900   29.7210   45.8390 O   0  0  0  0  0  0  0  0  0  0  0  0
   59.2050   29.2410   46.2280 C   0  0  0  0  0  0  0  0  0  0  0  0
   58.1190   29.7950   45.5010 C   0  0  0  0  0  0  0  0  0  0  0  0
   58.1953   30.8195   45.1079 H   0  0  0  0  0  0  0  0  0  0  0  0
   56.9480   29.0520   45.2770 C   0  0  0  0  0  0  0  0  0  0  0  0
   56.1063   29.4889   44.7196 H   0  0  0  0  0  0  0  0  0  0  0  0
   56.8710   27.7520   45.7730 C   0  0  0  0  0  0  0  0  0  0  0  0
   55.7980   26.9350   45.6180 N   0  0  0  0  0  0  0  0  0  0  0  0
   56.0180   25.7270   46.1920 C   0  0  0  0  0  0  0  0  0  0  0  0
   55.1060   24.7990   46.1920 N   0  0  0  0  0  0  0  0  0  0  0  0
   54.7940   23.8580   45.1510 C   0  0  0  0  0  0  0  0  0  0  0  0
   53.8110   23.0880   45.3110 O   0  0  0  0  0  0  0  0  0  0  0  0
   55.5700   23.7800   43.8640 C   0  0  0  0  0  0  0  0  0  0  0  0
   54.9004   24.4310   43.2827 H   0  0  0  0  0  0  0  0  0  0  0  0
   57.0760   23.6560   44.0430 C   0  0  0  0  0  0  0  0  0  0  0  0
   57.7564   24.1440   43.3296 H   0  0  0  0  0  0  0  0  0  0  0  0
   57.7814   23.8665   44.8604 H   0  0  0  0  0  0  0  0  0  0  0  0
   56.2640   22.4490   43.6120 C   0  0  0  0  0  0  0  0  0  0  0  0
   56.3559   22.0624   42.5863 H   0  0  0  0  0  0  0  0  0  0  0  0
   56.1374   21.4229   43.9877 H   0  0  0  0  0  0  0  0  0  0  0  0
   57.5490   25.6400   46.9280 S   0  0  0  0  0  0  0  0  0  0  0  0
   57.9340   27.2080   46.4720 C   0  0  0  0  0  0  0  0  0  0  0  0
   59.1070   27.9180   46.7120 C   0  0  0  0  0  0  0  0  0  0  0  0
   59.9389   27.4588   47.2662 H   0  0  0  0  0  0  0  0  0  0  0  0
   61.9310   33.0360   46.7380 C   0  0  0  0  0  0  0  0  0  0  0  0
   61.3213   33.2250   45.8422 H   0  0  0  0  0  0  0  0  0  0  0  0
  1  2  1  0
  2  3  2  0
  3  4  1  0
  3  5  1  0
  5  6  1  0
  5  7  2  0
  7  8  1  0
  8  9  1  0
  8 10  1  0
  8 11  1  0
  7 12  1  0
 12 13  1  0
 13 14  1  0
 13 15  1  0
 15 16  2  0
 15 17  1  0
 17 18  2  0
 18 19  1  0
 18 20  1  0
 20 21  1  0
 20 22  2  0
 22 23  1  0
 23 24  1  0
 24 25  2  0
 25 26  1  0
 26 27  2  0
 26 28  1  0
 28 29  1  0
 28 30  1  0
 30 31  1  0
 30 32  1  0
 30 33  1  0
 33 34  1  0
 33 35  1  0
 24 36  1  0
 36 37  1  0
 37 38  2  0
 38 39  1  0
 12 40  2  0
 40 41  1  0
 40  2  1  0
 38 17  1  0
 37 22  1  0
 33 28  1  0
M  CHG  1  23  -1
M  END
>  <UniqueID>  (49) 
45

>  <SMILES>  (49) 
Cc1c(Cl)cccc1NC(=O)c1ccc2[n-]/c(=N/C(=O)C3CC3)sc2c1

>  <Energy>  (49) 
356.78145806001

>  <Genealogy>  (49) 
Cc1c(Cl)cccc1NC(=O)c1ccc2[n-]c(=NC(=O)C3CC3)sc2c1 (protonated)
Cc1c(Cl)cccc1NC(=O)c1ccc2[n-]/c(=N/C(=O)C3CC3)sc2c1 (cis-trans isomerization)
Cc1c(Cl)cccc1NC(=O)c1ccc2[n-]/c(=N/C(=O)C3CC3)sc2c1 (3D coordinates assigned)
Cc1c(Cl)cccc1NC(=O)c1ccc2[n-]/c(=N/C(=O)C3CC3)sc2c1 (nonaromatic ring conformer: 356.78145806001 kcal/mol)

>  <smiles>  (49) 
Cc1c(Cl)cccc1NC(=O)c1ccc2[nH]c(=NC(=O)C3CC3)sc2c1

>  <score_type>  (49) 
oracle

>  <origin>  (49) 
adg

>  <m_score__min__energy>  (49) 
-9.8499999999999996

>  <m_primary>  (49) 
energy

$$$$
49:0
     RDKit          3D

 43 45  0  0  0  0  0  0  0  0999 V2000
   58.1200   27.0670   42.6290 C   0  0  0  0  0  0  0  0  0  0  0  0
   58.1480   27.2210   43.9520 C   0  0  0  0  0  0  0  0  0  0  0  0
   59.1640   28.0680   44.6390 C   0  0  0  0  0  0  0  0  0  0  0  0
   58.4830   28.8890   45.5980 N   0  0  0  0  0  0  0  0  0  0  0  0
   58.8730   28.7530   46.9710 C   0  0  0  0  0  0  0  0  0  0  0  0
   58.4930   27.7000   47.5880 O   0  0  0  0  0  0  0  0  0  0  0  0
   59.6580   29.7250   47.6830 C   0  0  0  0  0  0  0  0  0  0  0  0
   60.8780   30.2650   47.3060 C   0  0  0  0  0  0  0  0  0  0  0  0
   61.2950   31.1620   48.2610 C   0  0  0  0  0  0  0  0  0  0  0  0
   62.4950   31.9820   48.3370 C   0  0  0  0  0  0  0  0  0  0  0  0
   63.4460   31.8010   49.3270 C   0  0  0  0  0  0  0  0  0  0  0  0
   64.4730   32.7230   49.1410 C   0  0  0  0  0  0  0  0  0  0  0  0
   64.1110   33.4410   48.0370 C   0  0  0  0  0  0  0  0  0  0  0  0
   62.9120   32.9890   47.5530 N   0  0  0  0  0  0  0  0  0  0  0  0
   62.2220   33.5140   46.3950 C   0  0  0  0  0  0  0  0  0  0  0  0
   60.3310   31.1530   49.2000 N   0  0  0  0  0  0  0  0  0  0  0  0
   59.3640   30.2990   48.8500 N   0  0  0  0  0  0  0  0  0  0  0  0
   57.4510   29.8210   45.2900 C   0  0  0  0  0  0  0  0  0  0  0  0
   56.2410   29.4750   45.2290 O   0  0  0  0  0  0  0  0  0  0  0  0
   57.8150   31.2190   45.0400 C   0  0  0  0  0  0  0  0  0  0  0  0
   58.2000   32.0570   46.0640 C   0  0  0  0  0  0  0  0  0  0  0  0
   58.5380   33.3890   45.7900 C   0  0  0  0  0  0  0  0  0  0  0  0
   59.0750   34.5770   47.1980 Br  0  0  0  0  0  0  0  0  0  0  0  0
   58.4980   33.8950   44.5160 C   0  0  0  0  0  0  0  0  0  0  0  0
   58.1110   33.0470   43.4930 C   0  0  0  0  0  0  0  0  0  0  0  0
   57.7720   31.7200   43.7580 C   0  0  0  0  0  0  0  0  0  0  0  0
   57.3910   30.8860   42.7600 F   0  0  0  0  0  0  0  0  0  0  0  0
   57.3510   26.4316   42.1654 H   0  0  0  0  0  0  0  0  0  0  0  0
   58.8659   27.5753   42.0002 H   0  0  0  0  0  0  0  0  0  0  0  0
   57.3922   26.7031   44.5608 H   0  0  0  0  0  0  0  0  0  0  0  0
   59.8988   27.4286   45.1501 H   0  0  0  0  0  0  0  0  0  0  0  0
   59.6950   28.6955   43.9081 H   0  0  0  0  0  0  0  0  0  0  0  0
   61.4269   30.0148   46.3861 H   0  0  0  0  0  0  0  0  0  0  0  0
   63.3981   31.0508   50.1300 H   0  0  0  0  0  0  0  0  0  0  0  0
   65.3798   32.8463   49.7513 H   0  0  0  0  0  0  0  0  0  0  0  0
   64.6972   34.2629   47.6000 H   0  0  0  0  0  0  0  0  0  0  0  0
   61.3864   34.1498   46.7231 H   0  0  0  0  0  0  0  0  0  0  0  0
   62.9213   34.1105   45.7907 H   0  0  0  0  0  0  0  0  0  0  0  0
   61.8336   32.6810   45.7907 H   0  0  0  0  0  0  0  0  0  0  0  0
   60.2590   31.6910   50.0930 H   0  0  0  0  0  0  0  0  0  0  0  0
   58.2420   31.6802   47.0966 H   0  0  0  0  0  0  0  0  0  0  0  0
   58.7653   34.9426   44.3134 H   0  0  0  0  0  0  0  0  0  0  0  0
   58.0703   33.4233   42.4602 H   0  0  0  0  0  0  0  0  0  0  0  0
  1  2  2  0
  2  3  1  0
  3  4  1  0
  4  5  1  0
  5  6  2  0
  5  7  1  0
  7  8  1  0
  8  9  2  0
  9 10  1  0
 10 11  2  0
 11 12  1  0
 12 13  2  0
 13 14  1  0
 14 15  1  0
  9 16  1  0
 16 17  1  0
  4 18  1  0
 18 19  2  0
 18 20  1  0
 20 21  2  0
 21 22  1  0
 22 23  1  0
 22 24  2  0
 24 25  1  0
 25 26  2  0
 26 27  1  0
 17  7  2  0
 26 20  1  0
 14 10  1  0
  1 28  1  0
  1 29  1  0
  2 30  1  0
  3 31  1  0
  3 32  1  0
  8 33  1  0
 11 34  1  0
 12 35  1  0
 13 36  1  0
 15 37  1  0
 15 38  1  0
 15 39  1  0
 16 40  1  0
 21 41  1  0
 24 42  1  0
 25 43  1  0
M  END
>  <smiles>  (50) 
C=CCN(C(=O)c1cc(-c2cccn2C)[nH]n1)C(=O)c1cc(Br)ccc1F

>  <score_type>  (50) 
oracle

>  <origin>  (50) 
adg

>  <m_score__min__energy>  (50) 
-8.4299999999999997

>  <m_primary>  (50) 
energy

$$$$
50:0
     RDKit          3D

 67 71  0  0  1  0  0  0  0  0999 V2000
   57.3200   31.6100   52.9410 N   0  0  0  0  0  0  0  0  0  0  0  0
   57.6790   30.1690   52.0210 S   0  0  0  0  0  0  0  0  0  0  0  0
   56.5320   29.2350   52.2770 O   0  0  0  0  0  0  0  0  0  0  0  0
   57.7720   30.4710   50.5760 O   0  0  0  0  0  0  0  0  0  0  0  0
   59.1620   29.4940   52.6540 C   0  0  0  0  0  0  0  0  0  0  0  0
   59.2530   28.1140   52.8590 C   0  0  0  0  0  0  0  0  0  0  0  0
   60.4320   27.6000   53.3650 C   0  0  0  0  0  0  0  0  0  0  0  0
   61.5190   28.3990   53.6740 C   0  0  0  0  0  0  0  0  0  0  0  0
   61.4220   29.7810   53.4670 C   0  0  0  0  0  0  0  0  0  0  0  0
   60.2360   30.3350   52.9540 C   0  0  0  0  0  0  0  0  0  0  0  0
   61.2130   31.3890   48.3890 N   0  0  0  0  0  0  0  0  0  0  0  0
   60.7030   32.0370   49.3530 C   0  0  0  0  0  0  0  0  0  0  0  0
   60.6800   31.5760   50.6180 N   0  0  0  0  0  0  0  0  0  0  0  0
   60.1380   32.2720   51.6420 C   0  0  0  0  0  0  0  0  0  0  0  0
   60.1710   31.7380   52.7980 N   0  0  0  0  0  0  0  0  0  0  0  0
   60.5990   30.2000   47.8890 C   0  0  0  0  0  0  0  0  0  0  0  0
   60.3470   30.0130   46.5410 C   0  0  0  0  0  0  0  0  0  0  0  0
   59.7500   28.8500   46.0950 C   0  0  0  0  0  0  0  0  0  0  0  0
   59.3800   27.8290   46.9570 C   0  0  0  0  0  0  0  0  0  0  0  0
   58.7660   26.6360   46.4790 N   0  0  0  0  0  0  0  0  0  0  0  0
   57.3310   26.5230   46.4750 C   0  0  0  0  0  0  0  0  0  0  0  0
   56.8520   25.1010   46.3750 C   0  0  0  0  0  0  0  0  0  0  0  0
   57.6270   24.4310   45.3350 N   0  0  0  0  0  0  0  0  0  0  0  0
   56.9780   23.2000   44.9250 C   0  0  0  0  0  0  0  0  0  0  0  0
   57.8910   22.3010   44.1270 C   0  0  0  0  0  0  0  0  0  0  0  0
   57.0570   21.1350   43.6240 C   0  0  0  0  0  0  0  0  0  0  0  0
   56.0700   21.5870   42.7720 O   0  0  0  0  0  0  0  0  0  0  0  0
   55.9370   22.9550   42.7160 C   0  0  0  0  0  0  0  0  0  0  0  0
   55.7680   23.5270   44.1130 C   0  0  0  0  0  0  0  0  0  0  0  0
   58.9340   24.2360   45.8890 C   0  0  0  0  0  0  0  0  0  0  0  0
   59.6100   25.5790   46.0140 C   0  0  0  0  0  0  0  0  0  0  0  0
   59.6390   28.0350   48.2950 C   0  0  0  0  0  0  0  0  0  0  0  0
   60.2360   29.1930   48.7630 C   0  0  0  0  0  0  0  0  0  0  0  0
   60.1650   33.2560   49.0540 N   0  0  0  0  0  0  0  0  0  0  0  0
   59.6180   33.9710   50.0550 C   0  0  0  0  0  0  0  0  0  0  0  0
   59.5950   33.4950   51.3460 C   0  0  0  0  0  0  0  0  0  0  0  0
   58.8840   34.4610   52.5820 Cl  0  0  0  0  0  0  0  0  0  0  0  0
   58.1750   31.9840   53.4160 H   0  0  0  0  0  0  0  0  0  0  0  0
   56.9680   32.3680   52.3250 H   0  0  0  0  0  0  0  0  0  0  0  0
   58.4061   27.4528   52.6231 H   0  0  0  0  0  0  0  0  0  0  0  0
   60.5093   26.5149   53.5283 H   0  0  0  0  0  0  0  0  0  0  0  0
   62.4428   27.9566   54.0751 H   0  0  0  0  0  0  0  0  0  0  0  0
   62.2747   30.4335   53.7061 H   0  0  0  0  0  0  0  0  0  0  0  0
   61.1030   30.6330   50.8110 H   0  0  0  0  0  0  0  0  0  0  0  0
   60.6241   30.7960   45.8198 H   0  0  0  0  0  0  0  0  0  0  0  0
   59.5615   28.7296   45.0180 H   0  0  0  0  0  0  0  0  0  0  0  0
   56.9428   26.9585   47.4076 H   0  0  0  0  0  0  0  0  0  0  0  0
   56.9622   27.0568   45.5867 H   0  0  0  0  0  0  0  0  0  0  0  0
   57.0001   24.5896   47.3376 H   0  0  0  0  0  0  0  0  0  0  0  0
   55.7809   25.0774   46.1256 H   0  0  0  0  0  0  0  0  0  0  0  0
   56.6982   22.6543   45.8382 H   0  0  0  0  0  0  0  0  0  0  0  0
   58.3140   22.8551   43.2761 H   0  0  0  0  0  0  0  0  0  0  0  0
   58.7233   21.9420   44.7502 H   0  0  0  0  0  0  0  0  0  0  0  0
   57.7066   20.4293   43.0855 H   0  0  0  0  0  0  0  0  0  0  0  0
   56.5874   20.6330   44.4828 H   0  0  0  0  0  0  0  0  0  0  0  0
   56.8359   23.3881   42.2531 H   0  0  0  0  0  0  0  0  0  0  0  0
   55.0477   23.2034   42.1182 H   0  0  0  0  0  0  0  0  0  0  0  0
   55.6494   24.6189   44.0520 H   0  0  0  0  0  0  0  0  0  0  0  0
   54.8756   23.0915   44.5862 H   0  0  0  0  0  0  0  0  0  0  0  0
   58.8497   23.7699   46.8818 H   0  0  0  0  0  0  0  0  0  0  0  0
   59.5247   23.5778   45.2349 H   0  0  0  0  0  0  0  0  0  0  0  0
   60.4482   25.4756   46.7188 H   0  0  0  0  0  0  0  0  0  0  0  0
   59.9274   25.8608   44.9992 H   0  0  0  0  0  0  0  0  0  0  0  0
   59.3617   27.2520   49.0161 H   0  0  0  0  0  0  0  0  0  0  0  0
   60.4231   29.3127   49.8403 H   0  0  0  0  0  0  0  0  0  0  0  0
   60.1810   33.6090   48.0930 H   0  0  0  0  0  0  0  0  0  0  0  0
   59.1803   34.9562   49.8364 H   0  0  0  0  0  0  0  0  0  0  0  0
  1  2  1  0
  2  3  2  0
  2  4  2  0
  2  5  1  0
  5  6  2  0
  6  7  1  0
  7  8  2  0
  8  9  1  0
  9 10  2  0
 10 11  1  0
 11 12  2  0
 12 13  1  0
 13 14  1  0
 14 15  2  0
 15 16  1  0
 16 17  2  0
 17 18  1  0
 18 19  2  0
 19 20  1  0
 20 21  1  0
 21 22  1  0
 22 23  1  0
 23 24  1  0
 24 25  1  0
 25 26  1  0
 26 27  1  0
 27 28  1  0
 28 29  1  0
 23 30  1  0
 30 31  1  0
 19 32  1  0
 32 33  2  0
 14 34  1  0
 34 35  1  0
 35 36  2  0
 36 37  1  0
 10  5  1  0
 36 12  1  0
 33 16  1  0
 31 20  1  0
 29 24  1  0
  1 38  1  0
  1 39  1  0
  6 40  1  0
  7 41  1  0
  8 42  1  0
  9 43  1  0
 13 44  1  0
 17 45  1  0
 18 46  1  0
 21 47  1  0
 21 48  1  0
 22 49  1  0
 22 50  1  0
 24 51  1  0
 25 52  1  0
 25 53  1  0
 26 54  1  0
 26 55  1  0
 28 56  1  0
 28 57  1  0
 29 58  1  0
 29 59  1  0
 30 60  1  0
 30 61  1  0
 31 62  1  0
 31 63  1  0
 32 64  1  0
 33 65  1  0
 34 66  1  0
 35 67  1  0
M  END
>  <smiles>  (51) 
NS(=O)(=O)c1ccccc1N=c1[nH]c(=Nc2ccc(N3CCN(C4CCOCC4)CC3)cc2)[nH]cc1Cl

>  <score_type>  (51) 
oracle

>  <origin>  (51) 
adg

>  <m_score__min__energy>  (51) 
-10.449999999999999

>  <m_primary>  (51) 
energy

$$$$
51:0
     RDKit          3D

 71 75  0  0  0  0  0  0  0  0999 V2000
   55.7710   26.6490   46.3590 O   0  0  0  0  0  0  0  0  0  0  0  0
   56.6410   26.1010   45.6240 C   0  0  0  0  0  0  0  0  0  0  0  0
   57.9860   26.7640   45.4450 C   0  0  0  0  0  0  0  0  0  0  0  0
   58.1650   27.9640   46.3320 C   0  0  0  0  0  0  0  0  0  0  0  0
   58.5640   27.8730   47.6160 N   0  0  0  0  0  0  0  0  0  0  0  0
   58.7010   29.1640   47.9930 C   0  0  0  0  0  0  0  0  0  0  0  0
   59.1490   29.5680   49.3340 C   0  0  0  0  0  0  0  0  0  0  0  0
   59.8640   28.7660   49.9970 O   0  0  0  0  0  0  0  0  0  0  0  0
   58.7760   30.8410   49.9040 N   0  0  0  0  0  0  0  0  0  0  0  0
   58.6760   32.0480   49.0730 C   0  0  0  0  0  0  0  0  0  0  0  0
   59.7970   33.0400   49.4460 C   0  0  0  0  0  0  0  0  0  0  0  0
   60.6370   32.5220   50.5480 N   0  0  0  0  0  0  0  0  0  0  0  0
   61.7300   33.4630   50.8950 C   0  0  0  0  0  0  0  0  0  0  0  0
   62.9520   33.2640   49.9670 C   0  0  0  0  0  0  0  0  0  0  0  0
   62.8690   34.1720   48.7070 C   0  0  0  0  0  0  0  0  0  0  0  0
   63.7490   33.6330   47.5760 C   0  0  0  0  0  0  0  0  0  0  0  0
   63.2770   32.2380   47.1120 C   0  0  0  0  0  0  0  0  0  0  0  0
   62.6260   31.4030   48.2360 C   0  0  0  0  0  0  0  0  0  0  0  0
   63.1910   31.7700   49.6150 C   0  0  0  0  0  0  0  0  0  0  0  0
   59.7970   32.1790   51.7160 C   0  0  0  0  0  0  0  0  0  0  0  0
   58.8050   31.0520   51.3580 C   0  0  0  0  0  0  0  0  0  0  0  0
   58.4010   30.0130   47.0340 O   0  0  0  0  0  0  0  0  0  0  0  0
   58.0530   29.3050   45.9880 C   0  0  0  0  0  0  0  0  0  0  0  0
   57.6580   29.9040   44.6980 C   0  0  0  0  0  0  0  0  0  0  0  0
   56.6800   29.3070   43.8820 C   0  0  0  0  0  0  0  0  0  0  0  0
   56.3110   29.9060   42.6740 C   0  0  0  0  0  0  0  0  0  0  0  0
   56.9160   31.0970   42.2670 C   0  0  0  0  0  0  0  0  0  0  0  0
   57.8710   31.7070   43.0830 C   0  0  0  0  0  0  0  0  0  0  0  0
   58.2310   31.1220   44.3000 C   0  0  0  0  0  0  0  0  0  0  0  0
   56.3320   24.8520   44.9630 N   0  0  0  0  0  0  0  0  0  0  0  0
   57.0410   24.4550   43.7400 C   0  0  0  0  0  0  0  0  0  0  0  0
   56.9510   22.9390   43.5340 C   0  0  0  0  0  0  0  0  0  0  0  0
   55.6120   22.4940   43.6220 O   0  0  0  0  0  0  0  0  0  0  0  0
   55.1320   22.7020   44.9350 C   0  0  0  0  0  0  0  0  0  0  0  0
   55.0500   24.1960   45.2480 C   0  0  0  0  0  0  0  0  0  0  0  0
   58.7729   26.0323   45.6802 H   0  0  0  0  0  0  0  0  0  0  0  0
   58.0495   27.1095   44.4026 H   0  0  0  0  0  0  0  0  0  0  0  0
   58.7736   31.7697   48.0133 H   0  0  0  0  0  0  0  0  0  0  0  0
   57.6999   32.5250   49.2452 H   0  0  0  0  0  0  0  0  0  0  0  0
   60.4311   33.2107   48.5635 H   0  0  0  0  0  0  0  0  0  0  0  0
   59.3297   33.9778   49.7807 H   0  0  0  0  0  0  0  0  0  0  0  0
   61.3630   34.4946   50.7895 H   0  0  0  0  0  0  0  0  0  0  0  0
   62.0429   33.2681   51.9314 H   0  0  0  0  0  0  0  0  0  0  0  0
   63.8405   33.5854   50.5303 H   0  0  0  0  0  0  0  0  0  0  0  0
   61.8254   34.2116   48.3616 H   0  0  0  0  0  0  0  0  0  0  0  0
   63.2268   35.1763   48.9777 H   0  0  0  0  0  0  0  0  0  0  0  0
   63.7033   34.3280   46.7246 H   0  0  0  0  0  0  0  0  0  0  0  0
   64.7791   33.5432   47.9512 H   0  0  0  0  0  0  0  0  0  0  0  0
   62.5409   32.3699   46.3053 H   0  0  0  0  0  0  0  0  0  0  0  0
   64.1694   31.6893   46.7766 H   0  0  0  0  0  0  0  0  0  0  0  0
   61.5415   31.5871   48.2345 H   0  0  0  0  0  0  0  0  0  0  0  0
   62.8457   30.3420   48.0464 H   0  0  0  0  0  0  0  0  0  0  0  0
   62.7026   31.1439   50.3762 H   0  0  0  0  0  0  0  0  0  0  0  0
   64.2771   31.5974   49.5924 H   0  0  0  0  0  0  0  0  0  0  0  0
   60.4434   31.8436   52.5404 H   0  0  0  0  0  0  0  0  0  0  0  0
   59.2278   33.0705   52.0181 H   0  0  0  0  0  0  0  0  0  0  0  0
   59.1188   30.1214   51.8535 H   0  0  0  0  0  0  0  0  0  0  0  0
   57.7991   31.3393   51.6980 H   0  0  0  0  0  0  0  0  0  0  0  0
   56.2042   28.3660   44.1954 H   0  0  0  0  0  0  0  0  0  0  0  0
   55.5418   29.4378   42.0422 H   0  0  0  0  0  0  0  0  0  0  0  0
   56.6407   31.5540   41.3050 H   0  0  0  0  0  0  0  0  0  0  0  0
   58.3409   32.6501   42.7671 H   0  0  0  0  0  0  0  0  0  0  0  0
   58.9671   31.6185   44.9493 H   0  0  0  0  0  0  0  0  0  0  0  0
   56.5875   24.9649   42.8772 H   0  0  0  0  0  0  0  0  0  0  0  0
   58.0996   24.7383   43.8353 H   0  0  0  0  0  0  0  0  0  0  0  0
   57.3492   22.6868   42.5401 H   0  0  0  0  0  0  0  0  0  0  0  0
   57.5374   22.4431   44.3215 H   0  0  0  0  0  0  0  0  0  0  0  0
   54.1300   22.2577   45.0282 H   0  0  0  0  0  0  0  0  0  0  0  0
   55.8259   22.2286   45.6452 H   0  0  0  0  0  0  0  0  0  0  0  0
   54.2640   24.6530   44.6289 H   0  0  0  0  0  0  0  0  0  0  0  0
   54.8144   24.3236   46.3149 H   0  0  0  0  0  0  0  0  0  0  0  0
  1  2  2  0
  2  3  1  0
  3  4  1  0
  4  5  1  0
  5  6  2  0
  6  7  1  0
  7  8  2  0
  7  9  1  0
  9 10  1  0
 10 11  1  0
 11 12  1  0
 12 13  1  0
 13 14  1  0
 14 15  1  0
 15 16  1  0
 16 17  1  0
 17 18  1  0
 18 19  1  0
 12 20  1  0
 20 21  1  0
  6 22  1  0
 22 23  1  0
 23 24  1  0
 24 25  2  0
 25 26  1  0
 26 27  2  0
 27 28  1  0
 28 29  2  0
  2 30  1  0
 30 31  1  0
 31 32  1  0
 32 33  1  0
 33 34  1  0
 34 35  1  0
 23  4  2  0
 29 24  1  0
 35 30  1  0
 21  9  1  0
 19 14  1  0
  3 36  1  0
  3 37  1  0
 10 38  1  0
 10 39  1  0
 11 40  1  0
 11 41  1  0
 13 42  1  0
 13 43  1  0
 14 44  1  0
 15 45  1  0
 15 46  1  0
 16 47  1  0
 16 48  1  0
 17 49  1  0
 17 50  1  0
 18 51  1  0
 18 52  1  0
 19 53  1  0
 19 54  1  0
 20 55  1  0
 20 56  1  0
 21 57  1  0
 21 58  1  0
 25 59  1  0
 26 60  1  0
 27 61  1  0
 28 62  1  0
 29 63  1  0
 31 64  1  0
 31 65  1  0
 32 66  1  0
 32 67  1  0
 34 68  1  0
 34 69  1  0
 35 70  1  0
 35 71  1  0
M  END
>  <UniqueID>  (52) 
46

>  <SMILES>  (52) 
O=C(Cc1nc(C(=O)N2CCN(CC3CCCCC3)CC2)oc1-c1ccccc1)N1CCOCC1

>  <Energy>  (52) 
122.4002586807983

>  <Genealogy>  (52) 
O=C(Cc1nc(C(=O)N2CCN(CC3CCCCC3)CC2)oc1-c1ccccc1)N1CCOCC1 (3D coordinates assigned)
O=C(Cc1nc(C(=O)N2CCN(CC3CCCCC3)CC2)oc1-c1ccccc1)N1CCOCC1 (nonaromatic ring conformer: 122.4002586807983 kcal/mol)

>  <smiles>  (52) 
O=C(Cc1nc(C(=O)N2CCN(CC3CCCCC3)CC2)oc1-c1ccccc1)N1CCOCC1

>  <score_type>  (52) 
oracle

>  <origin>  (52) 
adg

>  <m_score__min__energy>  (52) 
-9.8699999999999992

>  <m_primary>  (52) 
energy

$$$$
52:0
     RDKit          3D

 70 73  0  0  0  0  0  0  0  0999 V2000
   59.5590   26.5510   45.9980 C   0  0  0  0  0  0  0  0  0  0  0  0
   58.1980   26.9050   45.3870 C   0  0  0  0  0  0  0  0  0  0  0  0
   57.0190   26.6110   46.3230 C   0  0  0  0  0  0  0  0  0  0  0  0
   58.1610   28.2390   44.8620 O   0  0  0  0  0  0  0  0  0  0  0  0
   58.3230   29.4690   45.5280 C   0  0  0  0  0  0  0  0  0  0  0  0
   59.0800   29.6220   46.7050 C   0  0  0  0  0  0  0  0  0  0  0  0
   59.1940   30.8730   47.3410 C   0  0  0  0  0  0  0  0  0  0  0  0
   60.0560   31.0200   48.5470 C   0  0  0  0  0  0  0  0  0  0  0  0
   61.1300   30.3580   48.6040 O   0  0  0  0  0  0  0  0  0  0  0  0
   59.6650   31.8560   49.6690 N   0  0  0  0  0  0  0  0  0  0  0  0
   58.3010   31.4970   50.1270 C   0  0  0  0  0  0  0  0  0  0  0  0
   58.2910   30.2490   51.0390 C   0  0  0  0  0  0  0  0  0  0  0  0
   59.3250   30.2570   52.1160 N   0  0  0  0  0  0  0  0  0  0  0  0
   60.1450   29.0050   52.1050 C   0  0  0  0  0  0  0  0  0  0  0  0
   61.5610   29.3120   52.6770 C   0  0  0  0  0  0  0  0  0  0  0  0
   62.7040   28.5490   51.9850 C   0  0  0  0  0  0  0  0  0  0  0  0
   62.3290   27.1660   51.6470 N   0  0  0  0  0  0  0  0  0  0  0  0
   62.1730   26.3240   52.8460 C   0  0  0  0  0  0  0  0  0  0  0  0
   61.1580   27.0830   50.7410 C   0  0  0  0  0  0  0  0  0  0  0  0
   60.2810   28.3560   50.7070 C   0  0  0  0  0  0  0  0  0  0  0  0
   60.0850   31.5290   52.1340 C   0  0  0  0  0  0  0  0  0  0  0  0
   60.6890   31.8360   50.7560 C   0  0  0  0  0  0  0  0  0  0  0  0
   58.5490   31.9940   46.7730 C   0  0  0  0  0  0  0  0  0  0  0  0
   58.6000   33.2680   47.4360 N   0  0  0  0  0  0  0  0  0  0  0  0
   59.6150   34.2630   47.2520 C   0  0  0  0  0  0  0  0  0  0  0  0
   59.2690   35.4180   46.8840 O   0  0  0  0  0  0  0  0  0  0  0  0
   61.0440   33.9860   47.5340 C   0  0  0  0  0  0  0  0  0  0  0  0
   61.9090   33.6010   46.4940 C   0  0  0  0  0  0  0  0  0  0  0  0
   63.2620   33.3630   46.7490 C   0  0  0  0  0  0  0  0  0  0  0  0
   63.7700   33.5150   48.0410 C   0  0  0  0  0  0  0  0  0  0  0  0
   62.9230   33.9070   49.0820 C   0  0  0  0  0  0  0  0  0  0  0  0
   63.5640   34.1140   50.7030 Cl  0  0  0  0  0  0  0  0  0  0  0  0
   61.5690   34.1490   48.8300 C   0  0  0  0  0  0  0  0  0  0  0  0
   57.8030   31.8410   45.5950 C   0  0  0  0  0  0  0  0  0  0  0  0
   57.6940   30.5940   44.9790 C   0  0  0  0  0  0  0  0  0  0  0  0
   56.6630   30.4490   43.3700 Br  0  0  0  0  0  0  0  0  0  0  0  0
   59.4845   26.5704   47.0953 H   0  0  0  0  0  0  0  0  0  0  0  0
   59.8584   25.5451   45.6685 H   0  0  0  0  0  0  0  0  0  0  0  0
   60.3105   27.2836   45.6685 H   0  0  0  0  0  0  0  0  0  0  0  0
   58.0737   26.2275   44.5294 H   0  0  0  0  0  0  0  0  0  0  0  0
   57.3512   26.6938   47.3684 H   0  0  0  0  0  0  0  0  0  0  0  0
   56.2128   27.3356   46.1360 H   0  0  0  0  0  0  0  0  0  0  0  0
   56.6474   25.5927   46.1360 H   0  0  0  0  0  0  0  0  0  0  0  0
   59.5916   28.7486   47.1355 H   0  0  0  0  0  0  0  0  0  0  0  0
   59.6160   32.8470   49.3340 H   0  0  0  0  0  0  0  0  0  0  0  0
   57.8822   32.3462   50.6869 H   0  0  0  0  0  0  0  0  0  0  0  0
   57.7002   31.2638   49.2356 H   0  0  0  0  0  0  0  0  0  0  0  0
   57.3014   30.1794   51.5142 H   0  0  0  0  0  0  0  0  0  0  0  0
   58.5212   29.3892   50.3927 H   0  0  0  0  0  0  0  0  0  0  0  0
   59.6119   28.2759   52.7329 H   0  0  0  0  0  0  0  0  0  0  0  0
   61.7505   30.3899   52.5668 H   0  0  0  0  0  0  0  0  0  0  0  0
   61.5540   28.9835   53.7268 H   0  0  0  0  0  0  0  0  0  0  0  0
   62.9732   29.0787   51.0593 H   0  0  0  0  0  0  0  0  0  0  0  0
   63.5517   28.5061   52.6847 H   0  0  0  0  0  0  0  0  0  0  0  0
   62.2879   26.9443   53.7471 H   0  0  0  0  0  0  0  0  0  0  0  0
   61.1742   25.8632   52.8430 H   0  0  0  0  0  0  0  0  0  0  0  0
   62.9404   25.5359   52.8430 H   0  0  0  0  0  0  0  0  0  0  0  0
   61.5252   26.8916   49.7219 H   0  0  0  0  0  0  0  0  0  0  0  0
   60.5203   26.2745   51.1279 H   0  0  0  0  0  0  0  0  0  0  0  0
   60.7384   29.0839   50.0207 H   0  0  0  0  0  0  0  0  0  0  0  0
   59.2754   28.0663   50.3681 H   0  0  0  0  0  0  0  0  0  0  0  0
   59.4076   32.3475   52.4190 H   0  0  0  0  0  0  0  0  0  0  0  0
   60.9058   31.4335   52.8600 H   0  0  0  0  0  0  0  0  0  0  0  0
   61.1775   32.8207   50.7974 H   0  0  0  0  0  0  0  0  0  0  0  0
   61.4062   31.0355   50.5219 H   0  0  0  0  0  0  0  0  0  0  0  0
   61.5175   33.4864   45.4724 H   0  0  0  0  0  0  0  0  0  0  0  0
   63.9287   33.0551   45.9301 H   0  0  0  0  0  0  0  0  0  0  0  0
   64.8354   33.3265   48.2394 H   0  0  0  0  0  0  0  0  0  0  0  0
   60.9095   34.4690   49.6502 H   0  0  0  0  0  0  0  0  0  0  0  0
   57.2989   32.7129   45.1525 H   0  0  0  0  0  0  0  0  0  0  0  0
  1  2  1  0
  2  3  1  0
  2  4  1  0
  4  5  1  0
  5  6  2  0
  6  7  1  0
  7  8  1  0
  8  9  2  0
  8 10  1  0
 10 11  1  0
 11 12  1  0
 12 13  1  0
 13 14  1  0
 14 15  1  0
 15 16  1  0
 16 17  1  0
 17 18  1  0
 17 19  1  0
 19 20  1  0
 13 21  1  0
 21 22  1  0
  7 23  2  0
 23 24  1  0
 24 25  1  0
 25 26  2  0
 25 27  1  0
 27 28  2  0
 28 29  1  0
 29 30  2  0
 30 31  1  0
 31 32  1  0
 31 33  2  0
 23 34  1  0
 34 35  2  0
 35 36  1  0
 35  5  1  0
 22 10  1  0
 33 27  1  0
 20 14  1  0
  1 37  1  0
  1 38  1  0
  1 39  1  0
  2 40  1  0
  3 41  1  0
  3 42  1  0
  3 43  1  0
  6 44  1  0
 10 45  1  0
 11 46  1  0
 11 47  1  0
 12 48  1  0
 12 49  1  0
 14 50  1  0
 15 51  1  0
 15 52  1  0
 16 53  1  0
 16 54  1  0
 18 55  1  0
 18 56  1  0
 18 57  1  0
 19 58  1  0
 19 59  1  0
 20 60  1  0
 20 61  1  0
 21 62  1  0
 21 63  1  0
 22 64  1  0
 22 65  1  0
 28 66  1  0
 29 67  1  0
 30 68  1  0
 33 69  1  0
 34 70  1  0
M  CHG  2  10   1  24  -1
M  END
>  <UniqueID>  (53) 
47

>  <SMILES>  (53) 
CC(C)Oc1cc(C(=O)[NH+]2CCN(C3CCN(C)CC3)CC2)c([N-]C(=O)c2cccc(Cl)c2)cc1Br

>  <Energy>  (53) 
116.93068196707739

>  <Genealogy>  (53) 
CC(C)Oc1cc(C(=O)[NH+]2CCN(C3CCN(C)CC3)CC2)c([N-]C(=O)c2cccc(Cl)c2)cc1Br (protonated)
CC(C)Oc1cc(C(=O)[NH+]2CCN(C3CCN(C)CC3)CC2)c([N-]C(=O)c2cccc(Cl)c2)cc1Br (3D coordinates assigned)
CC(C)Oc1cc(C(=O)[NH+]2CCN(C3CCN(C)CC3)CC2)c([N-]C(=O)c2cccc(Cl)c2)cc1Br (nonaromatic ring conformer: 116.93068196707739 kcal/mol)

>  <smiles>  (53) 
CC(C)Oc1cc(C(=O)N2CCN(C3CCN(C)CC3)CC2)c(NC(=O)c2cccc(Cl)c2)cc1Br

>  <score_type>  (53) 
oracle

>  <origin>  (53) 
adg

>  <m_score__min__energy>  (53) 
-10.390000000000001

>  <m_primary>  (53) 
energy

$$$$
53:0
     RDKit          3D

 52 55  0  0  0  0  0  0  0  0999 V2000
   56.8210   25.0350   47.5400 O   0  0  0  0  0  0  0  0  0  0  0  0
   55.8880   25.1610   46.6990 C   0  0  0  0  0  0  0  0  0  0  0  0
   55.7080   26.4060   46.0080 N   0  0  0  0  0  0  0  0  0  0  0  0
   56.7460   27.2060   45.4220 C   0  0  0  0  0  0  0  0  0  0  0  0
   56.6840   28.6100   45.4600 C   0  0  0  0  0  0  0  0  0  0  0  0
   57.6700   29.3860   44.8390 C   0  0  0  0  0  0  0  0  0  0  0  0
   57.5720   31.1450   44.8810 S   0  0  0  0  0  0  0  0  0  0  0  0
   58.5120   31.7090   43.8510 O   0  0  0  0  0  0  0  0  0  0  0  0
   56.1780   31.5640   44.4990 O   0  0  0  0  0  0  0  0  0  0  0  0
   57.9650   31.8210   46.4480 N   0  0  0  0  0  0  0  0  0  0  0  0
   59.3780   31.6410   46.8290 C   0  0  0  0  0  0  0  0  0  0  0  0
   60.2610   32.8190   46.4000 C   0  0  0  0  0  0  0  0  0  0  0  0
   59.7250   34.0400   46.8640 O   0  0  0  0  0  0  0  0  0  0  0  0
   58.4840   34.2650   46.2320 C   0  0  0  0  0  0  0  0  0  0  0  0
   57.4600   33.1950   46.6400 C   0  0  0  0  0  0  0  0  0  0  0  0
   58.7530   28.7550   44.2160 C   0  0  0  0  0  0  0  0  0  0  0  0
   58.8420   27.3640   44.2020 C   0  0  0  0  0  0  0  0  0  0  0  0
   57.8510   26.5770   44.8110 C   0  0  0  0  0  0  0  0  0  0  0  0
   57.9640   25.1440   44.7850 N   0  0  0  0  0  0  0  0  0  0  0  0
   58.9020   24.4000   45.6090 C   0  0  0  0  0  0  0  0  0  0  0  0
   58.9400   22.9980   45.0160 C   0  0  0  0  0  0  0  0  0  0  0  0
   57.6870   22.8800   44.1520 C   0  0  0  0  0  0  0  0  0  0  0  0
   57.2930   24.3090   43.8030 C   0  0  0  0  0  0  0  0  0  0  0  0
   54.9480   24.0420   46.4680 C   0  0  0  0  0  0  0  0  0  0  0  0
   54.9040   22.9410   47.3410 C   0  0  0  0  0  0  0  0  0  0  0  0
   54.0110   21.8930   47.1070 C   0  0  0  0  0  0  0  0  0  0  0  0
   53.1620   21.9520   46.0010 C   0  0  0  0  0  0  0  0  0  0  0  0
   52.3510   21.0150   45.7760 O   0  0  0  0  0  0  0  0  0  0  0  0
   53.2100   23.0210   45.1640 N   0  0  0  0  0  0  0  0  0  0  0  0
   54.0700   24.0540   45.3690 C   0  0  0  0  0  0  0  0  0  0  0  0
   55.8520   29.1040   45.9832 H   0  0  0  0  0  0  0  0  0  0  0  0
   59.4372   31.5367   47.9224 H   0  0  0  0  0  0  0  0  0  0  0  0
   59.7492   30.7426   46.3141 H   0  0  0  0  0  0  0  0  0  0  0  0
   61.2695   32.6853   46.8184 H   0  0  0  0  0  0  0  0  0  0  0  0
   60.3039   32.8467   45.3012 H   0  0  0  0  0  0  0  0  0  0  0  0
   58.1055   35.2558   46.5237 H   0  0  0  0  0  0  0  0  0  0  0  0
   58.6298   34.2153   45.1428 H   0  0  0  0  0  0  0  0  0  0  0  0
   57.2109   33.3332   47.7025 H   0  0  0  0  0  0  0  0  0  0  0  0
   56.5767   33.3175   45.9960 H   0  0  0  0  0  0  0  0  0  0  0  0
   59.5368   29.3591   43.7356 H   0  0  0  0  0  0  0  0  0  0  0  0
   59.6969   26.8779   43.7091 H   0  0  0  0  0  0  0  0  0  0  0  0
   59.8996   24.8618   45.5687 H   0  0  0  0  0  0  0  0  0  0  0  0
   58.5971   24.3883   46.6658 H   0  0  0  0  0  0  0  0  0  0  0  0
   59.8430   22.8658   44.4019 H   0  0  0  0  0  0  0  0  0  0  0  0
   58.9665   22.2266   45.7997 H   0  0  0  0  0  0  0  0  0  0  0  0
   57.9035   22.3075   43.2380 H   0  0  0  0  0  0  0  0  0  0  0  0
   56.8782   22.3522   44.6786 H   0  0  0  0  0  0  0  0  0  0  0  0
   57.6289   24.5638   42.7870 H   0  0  0  0  0  0  0  0  0  0  0  0
   56.2022   24.4495   43.8229 H   0  0  0  0  0  0  0  0  0  0  0  0
   55.5754   22.9048   48.2116 H   0  0  0  0  0  0  0  0  0  0  0  0
   53.9772   21.0296   47.7877 H   0  0  0  0  0  0  0  0  0  0  0  0
   54.0792   24.9043   44.6712 H   0  0  0  0  0  0  0  0  0  0  0  0
  1  2  2  0
  2  3  1  0
  3  4  1  0
  4  5  2  0
  5  6  1  0
  6  7  1  0
  7  8  2  0
  7  9  2  0
  7 10  1  0
 10 11  1  0
 11 12  1  0
 12 13  1  0
 13 14  1  0
 14 15  1  0
  6 16  2  0
 16 17  1  0
 17 18  2  0
 18 19  1  0
 19 20  1  0
 20 21  1  0
 21 22  1  0
 22 23  1  0
  2 24  1  0
 24 25  1  0
 25 26  2  0
 26 27  1  0
 27 28  2  0
 27 29  1  0
 29 30  1  0
 18  4  1  0
 23 19  1  0
 30 24  2  0
 15 10  1  0
  5 31  1  0
 11 32  1  0
 11 33  1  0
 12 34  1  0
 12 35  1  0
 14 36  1  0
 14 37  1  0
 15 38  1  0
 15 39  1  0
 16 40  1  0
 17 41  1  0
 20 42  1  0
 20 43  1  0
 21 44  1  0
 21 45  1  0
 22 46  1  0
 22 47  1  0
 23 48  1  0
 23 49  1  0
 25 50  1  0
 26 51  1  0
 30 52  1  0
M  CHG  2   3  -1  29  -1
M  END
>  <UniqueID>  (54) 
48

>  <SMILES>  (54) 
O=C([N-]c1cc(S(=O)(=O)N2CCOCC2)ccc1N1CCCC1)c1ccc(=O)[n-]c1

>  <Energy>  (54) 
69.19383884265183

>  <Genealogy>  (54) 
O=C([N-]c1cc(S(=O)(=O)N2CCOCC2)ccc1N1CCCC1)c1ccc(=O)[n-]c1 (protonated)
O=C([N-]c1cc(S(=O)(=O)N2CCOCC2)ccc1N1CCCC1)c1ccc(=O)[n-]c1 (3D coordinates assigned)
O=C([N-]c1cc(S(=O)(=O)N2CCOCC2)ccc1N1CCCC1)c1ccc(=O)[n-]c1 (nonaromatic ring conformer: 69.19383884265183 kcal/mol)

>  <smiles>  (54) 
O=C(Nc1cc(S(=O)(=O)N2CCOCC2)ccc1N1CCCC1)c1ccc(=O)[nH]c1

>  <score_type>  (54) 
oracle

>  <origin>  (54) 
adg

>  <m_score__min__energy>  (54) 
-12.27

>  <m_primary>  (54) 
energy

$$$$
54:0
     RDKit          3D

 47 49  0  0  0  0  0  0  0  0999 V2000
   55.1720   29.1320   44.8740 O   0  0  0  0  0  0  0  0  0  0  0  0
   56.3220   29.4660   44.4840 C   0  0  0  0  0  0  0  0  0  0  0  0
   57.4100   28.4470   44.4390 C   0  0  0  0  0  0  0  0  0  0  0  0
   57.5980   27.8890   45.7750 N   0  0  0  0  0  0  0  0  0  0  0  0
   59.2880   27.8640   46.1710 S   0  0  0  0  0  0  0  0  0  0  0  0
   60.0920   28.3520   44.9970 O   0  0  0  0  0  0  0  0  0  0  0  0
   59.7030   26.4530   46.4790 O   0  0  0  0  0  0  0  0  0  0  0  0
   59.5960   28.8740   47.5810 C   0  0  0  0  0  0  0  0  0  0  0  0
   60.7670   29.6390   47.6710 C   0  0  0  0  0  0  0  0  0  0  0  0
   60.9890   30.4520   48.7870 C   0  0  0  0  0  0  0  0  0  0  0  0
   60.0430   30.5060   49.8150 C   0  0  0  0  0  0  0  0  0  0  0  0
   58.8710   29.7530   49.7240 C   0  0  0  0  0  0  0  0  0  0  0  0
   58.6440   28.9410   48.6080 C   0  0  0  0  0  0  0  0  0  0  0  0
   56.6270   30.8340   44.1840 N   0  0  0  0  0  0  0  0  0  0  0  0
   57.4510   31.7180   44.9570 C   0  0  0  0  0  0  0  0  0  0  0  0
   57.9290   31.3720   46.2340 C   0  0  0  0  0  0  0  0  0  0  0  0
   58.7100   32.2730   46.9630 C   0  0  0  0  0  0  0  0  0  0  0  0
   59.0170   33.5340   46.4330 C   0  0  0  0  0  0  0  0  0  0  0  0
   59.9950   34.6770   47.3610 S   0  0  0  0  0  0  0  0  0  0  0  0
   59.4420   34.7740   48.7550 O   0  0  0  0  0  0  0  0  0  0  0  0
   59.8920   36.0360   46.7270 O   0  0  0  0  0  0  0  0  0  0  0  0
   61.6780   34.2160   47.4480 N   0  0  0  0  0  0  0  0  0  0  0  0
   61.9440   32.9670   46.7390 C   0  0  0  0  0  0  0  0  0  0  0  0
   63.1870   32.3690   47.3760 C   0  0  0  0  0  0  0  0  0  0  0  0
   63.2880   33.0200   48.7480 C   0  0  0  0  0  0  0  0  0  0  0  0
   62.1140   33.9860   48.8240 C   0  0  0  0  0  0  0  0  0  0  0  0
   58.5130   33.8930   45.1750 C   0  0  0  0  0  0  0  0  0  0  0  0
   57.7330   32.9910   44.4460 C   0  0  0  0  0  0  0  0  0  0  0  0
   57.1337   27.6439   43.7400 H   0  0  0  0  0  0  0  0  0  0  0  0
   58.3444   28.9176   44.0992 H   0  0  0  0  0  0  0  0  0  0  0  0
   61.5122   29.5998   46.8629 H   0  0  0  0  0  0  0  0  0  0  0  0
   61.9096   31.0501   48.8561 H   0  0  0  0  0  0  0  0  0  0  0  0
   60.2220   31.1414   50.6949 H   0  0  0  0  0  0  0  0  0  0  0  0
   58.1250   29.7983   50.5311 H   0  0  0  0  0  0  0  0  0  0  0  0
   57.7166   28.3538   48.5360 H   0  0  0  0  0  0  0  0  0  0  0  0
   57.6869   30.3875   46.6608 H   0  0  0  0  0  0  0  0  0  0  0  0
   59.0857   31.9913   47.9577 H   0  0  0  0  0  0  0  0  0  0  0  0
   61.0925   32.2792   46.8473 H   0  0  0  0  0  0  0  0  0  0  0  0
   62.0921   33.1426   45.6633 H   0  0  0  0  0  0  0  0  0  0  0  0
   63.0831   31.2783   47.4738 H   0  0  0  0  0  0  0  0  0  0  0  0
   64.0864   32.5499   46.7690 H   0  0  0  0  0  0  0  0  0  0  0  0
   63.2138   32.2609   49.5406 H   0  0  0  0  0  0  0  0  0  0  0  0
   64.2505   33.5339   48.8873 H   0  0  0  0  0  0  0  0  0  0  0  0
   61.2964   33.5453   49.4133 H   0  0  0  0  0  0  0  0  0  0  0  0
   62.4040   34.9278   49.3128 H   0  0  0  0  0  0  0  0  0  0  0  0
   58.7322   34.8880   44.7603 H   0  0  0  0  0  0  0  0  0  0  0  0
   57.3372   33.2836   43.4623 H   0  0  0  0  0  0  0  0  0  0  0  0
  1  2  2  0
  2  3  1  0
  3  4  1  0
  4  5  1  0
  5  6  2  0
  5  7  2  0
  5  8  1  0
  8  9  2  0
  9 10  1  0
 10 11  2  0
 11 12  1  0
 12 13  2  0
  2 14  1  0
 14 15  1  0
 15 16  2  0
 16 17  1  0
 17 18  2  0
 18 19  1  0
 19 20  2  0
 19 21  2  0
 19 22  1  0
 22 23  1  0
 23 24  1  0
 24 25  1  0
 25 26  1  0
 18 27  1  0
 27 28  2  0
 13  8  1  0
 28 15  1  0
 26 22  1  0
  3 29  1  0
  3 30  1  0
  9 31  1  0
 10 32  1  0
 11 33  1  0
 12 34  1  0
 13 35  1  0
 16 36  1  0
 17 37  1  0
 23 38  1  0
 23 39  1  0
 24 40  1  0
 24 41  1  0
 25 42  1  0
 25 43  1  0
 26 44  1  0
 26 45  1  0
 27 46  1  0
 28 47  1  0
M  CHG  2   4  -1  14  -1
M  END
>  <UniqueID>  (55) 
49

>  <SMILES>  (55) 
O=C(C[N-]S(=O)(=O)c1ccccc1)[N-]c1ccc(S(=O)(=O)N2CCCC2)cc1

>  <Energy>  (55) 
49.46594813364594

>  <Genealogy>  (55) 
O=C(C[N-]S(=O)(=O)c1ccccc1)[N-]c1ccc(S(=O)(=O)N2CCCC2)cc1 (protonated)
O=C(C[N-]S(=O)(=O)c1ccccc1)[N-]c1ccc(S(=O)(=O)N2CCCC2)cc1 (3D coordinates assigned)
O=C(C[N-]S(=O)(=O)c1ccccc1)[N-]c1ccc(S(=O)(=O)N2CCCC2)cc1 (nonaromatic ring conformer: 49.46594813364594 kcal/mol)

>  <smiles>  (55) 
O=C(CNS(=O)(=O)c1ccccc1)Nc1ccc(S(=O)(=O)N2CCCC2)cc1

>  <score_type>  (55) 
oracle

>  <origin>  (55) 
adg

>  <m_score__min__energy>  (55) 
-12.779999999999999

>  <m_primary>  (55) 
energy

$$$$
55:0
     RDKit          3D

 52 55  0  0  0  0  0  0  0  0999 V2000
   60.1445   29.9583   48.9040 H   0  0  0  0  0  0  0  0  0  0  0  0
   59.7260   29.3860   48.0630 C   0  0  0  0  0  0  0  0  0  0  0  0
   59.8329   28.2916   48.0351 H   0  0  0  0  0  0  0  0  0  0  0  0
   59.0850   30.0230   47.0710 C   0  0  0  0  0  0  0  0  0  0  0  0
   58.5000   29.4410   45.9380 C   0  0  0  0  0  0  0  0  0  0  0  0
   58.4690   28.1260   45.6320 C   0  0  0  0  0  0  0  0  0  0  0  0
   59.3585   27.7054   45.1401 H   0  0  0  0  0  0  0  0  0  0  0  0
   57.3460   27.2000   45.8990 C   0  0  0  0  0  0  0  0  0  0  0  0
   57.4390   25.9840   46.4690 N   0  0  0  0  0  0  0  0  0  0  0  0
   56.1590   25.5570   46.5180 C   0  0  0  0  0  0  0  0  0  0  0  0
   55.8360   24.4380   46.9920 O   0  0  0  0  0  0  0  0  0  0  0  0
   55.2540   26.4270   46.0230 N   0  0  0  0  0  0  0  0  0  0  0  0
   56.0200   27.4600   45.6390 C   0  0  0  0  0  0  0  0  0  0  0  0
   55.5180   28.6190   45.0580 O   0  0  0  0  0  0  0  0  0  0  0  0
   57.9500   30.4920   45.2080 C   0  0  0  0  0  0  0  0  0  0  0  0
   57.4084   30.4154   44.2536 H   0  0  0  0  0  0  0  0  0  0  0  0
   58.2160   31.6490   45.9140 C   0  0  0  0  0  0  0  0  0  0  0  0
   57.8320   33.0290   45.4780 C   0  0  0  0  0  0  0  0  0  0  0  0
   57.6570   33.6579   46.3634 H   0  0  0  0  0  0  0  0  0  0  0  0
   58.6437   33.4622   44.8752 H   0  0  0  0  0  0  0  0  0  0  0  0
   56.9132   32.9807   44.8752 H   0  0  0  0  0  0  0  0  0  0  0  0
   58.9090   31.3660   47.0350 N   0  0  0  0  0  0  0  0  0  0  0  0
   59.3610   32.3270   48.0030 C   0  0  0  0  0  0  0  0  0  0  0  0
   58.9070   32.2320   49.3250 C   0  0  0  0  0  0  0  0  0  0  0  0
   58.2079   31.4299   49.6039 H   0  0  0  0  0  0  0  0  0  0  0  0
   59.3350   33.1500   50.2980 C   0  0  0  0  0  0  0  0  0  0  0  0
   58.8640   33.0300   51.6960 C   0  0  0  0  0  0  0  0  0  0  0  0
   59.0570   33.9840   52.4990 O   0  0  0  0  0  0  0  0  0  0  0  0
   58.1810   31.8500   52.1530 N   0  0  0  0  0  0  0  0  0  0  0  0
   58.8190   30.5400   51.9740 C   0  0  0  0  0  0  0  0  0  0  0  0
   58.9458   30.3446   50.8989 H   0  0  0  0  0  0  0  0  0  0  0  0
   59.7961   30.5520   52.4791 H   0  0  0  0  0  0  0  0  0  0  0  0
   57.9620   29.4280   52.5890 C   0  0  0  0  0  0  0  0  0  0  0  0
   58.2824   28.4566   52.1845 H   0  0  0  0  0  0  0  0  0  0  0  0
   58.0886   29.4401   53.6816 H   0  0  0  0  0  0  0  0  0  0  0  0
   56.5480   29.6430   52.2690 N   0  0  0  0  0  0  0  0  0  0  0  0
   56.4480   29.7180   51.2290 H   0  0  0  0  0  0  0  0  0  0  0  0
   56.0140   30.8740   52.8870 C   0  0  0  0  0  0  0  0  0  0  0  0
   55.2176   31.2678   52.2384 H   0  0  0  0  0  0  0  0  0  0  0  0
   55.6508   30.5931   53.8866 H   0  0  0  0  0  0  0  0  0  0  0  0
   57.0640   31.9870   53.0940 C   0  0  0  0  0  0  0  0  0  0  0  0
   56.5842   32.9648   52.9402 H   0  0  0  0  0  0  0  0  0  0  0  0
   57.4603   31.9035   54.1167 H   0  0  0  0  0  0  0  0  0  0  0  0
   60.2490   34.1510   49.9350 C   0  0  0  0  0  0  0  0  0  0  0  0
   60.6129   34.8591   50.6940 H   0  0  0  0  0  0  0  0  0  0  0  0
   60.7000   34.2550   48.6180 C   0  0  0  0  0  0  0  0  0  0  0  0
   61.4140   35.0466   48.3469 H   0  0  0  0  0  0  0  0  0  0  0  0
   60.2500   33.3580   47.6370 C   0  0  0  0  0  0  0  0  0  0  0  0
   60.7570   33.4740   46.2260 C   0  0  0  0  0  0  0  0  0  0  0  0
   61.8292   33.7193   46.2407 H   0  0  0  0  0  0  0  0  0  0  0  0
   60.6066   32.5182   45.7026 H   0  0  0  0  0  0  0  0  0  0  0  0
   60.2060   34.2693   45.7026 H   0  0  0  0  0  0  0  0  0  0  0  0
  1  2  1  0
  2  3  1  0
  2  4  2  0
  4  5  1  0
  5  6  2  0
  6  7  1  0
  6  8  1  0
  8  9  1  0
  9 10  1  0
 10 11  2  0
 10 12  1  0
 12 13  1  0
 13 14  1  0
  5 15  1  0
 15 16  1  0
 15 17  2  0
 17 18  1  0
 18 19  1  0
 18 20  1  0
 18 21  1  0
 17 22  1  0
 22 23  1  0
 23 24  2  0
 24 25  1  0
 24 26  1  0
 26 27  1  0
 27 28  2  0
 27 29  1  0
 29 30  1  0
 30 31  1  0
 30 32  1  0
 30 33  1  0
 33 34  1  0
 33 35  1  0
 33 36  1  0
 36 37  1  0
 36 38  1  0
 38 39  1  0
 38 40  1  0
 38 41  1  0
 41 42  1  0
 41 43  1  0
 26 44  2  0
 44 45  1  0
 44 46  1  0
 46 47  1  0
 46 48  2  0
 48 49  1  0
 49 50  1  0
 49 51  1  0
 49 52  1  0
 22  4  1  0
 48 23  1  0
 13  8  2  0
 41 29  1  0
M  CHG  3   9  -1  12  -1  14  -1
M  END
>  <UniqueID>  (56) 
50

>  <SMILES>  (56) 
C=c1/c(=C/c2[n-]c(=O)[n-]c2[O-])cc(C)n1-c1cc(C(=O)N2CCNCC2)ccc1C

>  <Energy>  (56) 
131.73676961646723

>  <Genealogy>  (56) 
C=c1c(=Cc2[n-]c(=O)[n-]c2[O-])cc(C)n1-c1cc(C(=O)N2CCNCC2)ccc1C (protonated)
C=c1/c(=C/c2[n-]c(=O)[n-]c2[O-])cc(C)n1-c1cc(C(=O)N2CCNCC2)ccc1C (cis-trans isomerization)
C=c1/c(=C/c2[n-]c(=O)[n-]c2[O-])cc(C)n1-c1cc(C(=O)N2CCNCC2)ccc1C (3D coordinates assigned)
C=c1/c(=C/c2[n-]c(=O)[n-]c2[O-])cc(C)n1-c1cc(C(=O)N2CCNCC2)ccc1C (nonaromatic ring conformer: 131.73676961646723 kcal/mol)

>  <smiles>  (56) 
C=c1c(=Cc2[nH]c(=O)[nH]c2O)cc(C)n1-c1cc(C(=O)N2CCNCC2)ccc1C

>  <score_type>  (56) 
oracle

>  <origin>  (56) 
adg

>  <m_score__min__energy>  (56) 
-16.600000000000001

>  <m_primary>  (56) 
energy

$$$$
56:0
     RDKit          3D

 62 65  0  0  0  0  0  0  0  0999 V2000
   57.7370   32.3870   41.1150 C   0  0  0  0  0  0  0  0  0  0  0  0
   57.4060   31.5850   42.3280 C   0  0  0  0  0  0  0  0  0  0  0  0
   56.6280   30.6000   42.2310 O   0  0  0  0  0  0  0  0  0  0  0  0
   57.9490   31.9590   43.5970 N   0  0  0  0  0  0  0  0  0  0  0  0
   57.3380   31.6110   44.8760 C   0  0  2  0  0  0  0  0  0  0  0  0
   56.9640   32.8910   45.6480 C   0  0  0  0  0  0  0  0  0  0  0  0
   58.1800   33.5890   46.1900 C   0  0  0  0  0  0  0  0  0  0  0  0
   58.9320   34.5570   45.5320 C   0  0  0  0  0  0  0  0  0  0  0  0
   59.9020   35.0340   46.3450 N   0  0  0  0  0  0  0  0  0  0  0  0
   59.7620   34.3840   47.5120 C   0  0  0  0  0  0  0  0  0  0  0  0
   60.5210   34.5550   48.6670 C   0  0  0  0  0  0  0  0  0  0  0  0
   60.1850   33.7850   49.7950 C   0  0  0  0  0  0  0  0  0  0  0  0
   59.1120   32.8690   49.7420 C   0  0  0  0  0  0  0  0  0  0  0  0
   58.3640   32.7150   48.5610 C   0  0  0  0  0  0  0  0  0  0  0  0
   58.7180   33.4950   47.4600 C   0  0  0  0  0  0  0  0  0  0  0  0
   58.3080   30.7710   45.6590 C   0  0  0  0  0  0  0  0  0  0  0  0
   59.5440   30.8910   45.4450 O   0  0  0  0  0  0  0  0  0  0  0  0
   57.8080   29.7170   46.4930 N   0  0  0  0  0  0  0  0  0  0  0  0
   58.4360   28.7150   47.0490 C   0  0  0  0  0  0  0  0  0  0  0  0
   57.8060   27.3550   46.8920 C   0  0  0  0  0  0  0  0  0  0  0  0
   57.8110   26.9120   45.4500 C   0  0  0  0  0  0  0  0  0  0  0  0
   57.4180   25.6070   45.1030 C   0  0  0  0  0  0  0  0  0  0  0  0
   57.3940   25.2120   43.7610 C   0  0  0  0  0  0  0  0  0  0  0  0
   57.7630   26.1130   42.7580 C   0  0  0  0  0  0  0  0  0  0  0  0
   58.1510   27.4130   43.0940 C   0  0  0  0  0  0  0  0  0  0  0  0
   58.1670   27.8150   44.4330 C   0  0  0  0  0  0  0  0  0  0  0  0
   59.6940   28.8600   47.8440 C   0  0  0  0  0  0  0  0  0  0  0  0
   60.1360   27.9040   48.5330 O   0  0  0  0  0  0  0  0  0  0  0  0
   60.4150   30.1040   47.8420 N   0  0  0  0  0  0  0  0  0  0  0  0
   61.3610   30.4540   48.8970 C   0  0  0  0  0  0  0  0  0  0  0  0
   62.2210   31.5970   48.4460 C   0  0  0  0  0  0  0  0  0  0  0  0
   63.2890   32.0420   49.2390 C   0  0  0  0  0  0  0  0  0  0  0  0
   64.1100   33.0670   48.7660 C   0  0  0  0  0  0  0  0  0  0  0  0
   63.8700   33.6270   47.5110 C   0  0  0  0  0  0  0  0  0  0  0  0
   62.8060   33.1500   46.7430 C   0  0  0  0  0  0  0  0  0  0  0  0
   62.0150   32.1520   47.2200 N   0  0  0  0  0  0  0  0  0  0  0  0
   58.1402   33.3639   41.4201 H   0  0  0  0  0  0  0  0  0  0  0  0
   58.4877   31.8517   40.5151 H   0  0  0  0  0  0  0  0  0  0  0  0
   56.8273   32.5370   40.5151 H   0  0  0  0  0  0  0  0  0  0  0  0
   56.4141   31.0369   44.7122 H   0  0  0  0  0  0  0  0  0  0  0  0
   56.4336   33.5747   44.9689 H   0  0  0  0  0  0  0  0  0  0  0  0
   56.3259   32.6051   46.4972 H   0  0  0  0  0  0  0  0  0  0  0  0
   58.7618   34.8877   44.4968 H   0  0  0  0  0  0  0  0  0  0  0  0
   60.6060   35.7690   46.1120 H   0  0  0  0  0  0  0  0  0  0  0  0
   61.3568   35.2696   48.6962 H   0  0  0  0  0  0  0  0  0  0  0  0
   60.7621   33.8972   50.7247 H   0  0  0  0  0  0  0  0  0  0  0  0
   58.8593   32.2717   50.6305 H   0  0  0  0  0  0  0  0  0  0  0  0
   57.5273   32.0029   48.5073 H   0  0  0  0  0  0  0  0  0  0  0  0
   58.3710   26.6269   47.4925 H   0  0  0  0  0  0  0  0  0  0  0  0
   56.7620   27.4144   47.2334 H   0  0  0  0  0  0  0  0  0  0  0  0
   57.1285   24.8944   45.8894 H   0  0  0  0  0  0  0  0  0  0  0  0
   57.0842   24.1907   43.4947 H   0  0  0  0  0  0  0  0  0  0  0  0
   57.7480   25.7988   41.7039 H   0  0  0  0  0  0  0  0  0  0  0  0
   58.4440   28.1205   42.3043 H   0  0  0  0  0  0  0  0  0  0  0  0
   58.4597   28.8432   44.6921 H   0  0  0  0  0  0  0  0  0  0  0  0
   60.2570   30.8010   47.0840 H   0  0  0  0  0  0  0  0  0  0  0  0
   60.8079   30.7472   49.8015 H   0  0  0  0  0  0  0  0  0  0  0  0
   61.9974   29.5846   49.1187 H   0  0  0  0  0  0  0  0  0  0  0  0
   63.4775   31.5881   50.2231 H   0  0  0  0  0  0  0  0  0  0  0  0
   64.9449   33.4326   49.3818 H   0  0  0  0  0  0  0  0  0  0  0  0
   64.5119   34.4353   47.1307 H   0  0  0  0  0  0  0  0  0  0  0  0
   62.6074   33.5819   45.7510 H   0  0  0  0  0  0  0  0  0  0  0  0
  1  2  1  0
  2  3  2  0
  2  4  1  0
  4  5  1  0
  5  6  1  0
  6  7  1  0
  7  8  2  0
  8  9  1  0
  9 10  1  0
 10 11  2  0
 11 12  1  0
 12 13  2  0
 13 14  1  0
 14 15  2  0
  5 16  1  0
 16 17  2  0
 16 18  1  0
 18 19  2  3
 19 20  1  0
 20 21  1  0
 21 22  2  0
 22 23  1  0
 23 24  2  0
 24 25  1  0
 25 26  2  0
 19 27  1  0
 27 28  2  0
 27 29  1  0
 29 30  1  0
 30 31  1  0
 31 32  2  0
 32 33  1  0
 33 34  2  0
 34 35  1  0
 35 36  2  0
 15  7  1  0
 26 21  1  0
 36 31  1  0
 15 10  1  0
  1 37  1  0
  1 38  1  0
  1 39  1  0
  5 40  1  6
  6 41  1  0
  6 42  1  0
  8 43  1  0
  9 44  1  0
 11 45  1  0
 12 46  1  0
 13 47  1  0
 14 48  1  0
 20 49  1  0
 20 50  1  0
 22 51  1  0
 23 52  1  0
 24 53  1  0
 25 54  1  0
 26 55  1  0
 29 56  1  0
 30 57  1  0
 30 58  1  0
 32 59  1  0
 33 60  1  0
 34 61  1  0
 35 62  1  0
M  CHG  1   4  -1
M  END
>  <UniqueID>  (57) 
51

>  <SMILES>  (57) 
CC(=O)[N-][C@H](Cc1c[nH]c2ccccc12)C(=O)N=C(Cc1ccccc1)C(=O)NCc1ccccn1

>  <Energy>  (57) 
95.72646511459176

>  <Genealogy>  (57) 
CC(=O)[N-]C(Cc1c[nH]c2ccccc12)C(=O)N=C(Cc1ccccc1)C(=O)NCc1ccccn1 (protonated)
CC(=O)[N-][C@H](Cc1c[nH]c2ccccc12)C(=O)N=C(Cc1ccccc1)C(=O)NCc1ccccn1 (chirality)
CC(=O)[N-][C@H](Cc1c[nH]c2ccccc12)C(=O)N=C(Cc1ccccc1)C(=O)NCc1ccccn1 (3D coordinates assigned)
CC(=O)[N-][C@H](Cc1c[nH]c2ccccc12)C(=O)N=C(Cc1ccccc1)C(=O)NCc1ccccn1 (optimized conformer: 95.72646511459176 kcal/mol)

>  <smiles>  (57) 
CC(=O)NC(Cc1c[nH]c2ccccc12)C(=O)N=C(Cc1ccccc1)C(=O)NCc1ccccn1

>  <score_type>  (57) 
oracle

>  <origin>  (57) 
adg

>  <m_score__min__energy>  (57) 
-11.34

>  <m_primary>  (57) 
energy

$$$$
57:0
     RDKit          3D

 47 49  0  0  0  0  0  0  0  0999 V2000
   63.3760   33.8380   47.2530 C   0  0  0  0  0  0  0  0  0  0  0  0
   61.7050   34.0350   46.5650 S   0  0  0  0  0  0  0  0  0  0  0  0
   60.8950   33.4780   48.0660 C   0  0  0  0  0  0  0  0  0  0  0  0
   60.2660   34.2810   48.8500 N   0  0  0  0  0  0  0  0  0  0  0  0
   59.5980   33.5400   49.9110 C   0  0  0  0  0  0  0  0  0  0  0  0
   59.8890   32.0620   49.5980 C   0  0  0  0  0  0  0  0  0  0  0  0
   60.7790   32.1180   48.4500 N   0  0  0  0  0  0  0  0  0  0  0  0
   61.2780   30.9820   47.7340 C   0  0  0  0  0  0  0  0  0  0  0  0
   62.5130   30.8910   47.4970 O   0  0  0  0  0  0  0  0  0  0  0  0
   60.3590   29.9330   47.2450 C   0  0  0  0  0  0  0  0  0  0  0  0
   60.1730   28.7590   47.9810 C   0  0  0  0  0  0  0  0  0  0  0  0
   59.3330   27.7550   47.5040 C   0  0  0  0  0  0  0  0  0  0  0  0
   58.6660   27.8970   46.2760 C   0  0  0  0  0  0  0  0  0  0  0  0
   57.8360   26.7420   45.7730 C   0  0  0  0  0  0  0  0  0  0  0  0
   58.8230   29.0960   45.5290 C   0  0  0  0  0  0  0  0  0  0  0  0
   58.1980   29.2800   44.1560 C   0  0  0  0  0  0  0  0  0  0  0  0
   57.0180   30.6330   44.0690 S   0  0  0  0  0  0  0  0  0  0  0  0
   55.7850   30.2360   44.8300 O   0  0  0  0  0  0  0  0  0  0  0  0
   56.6450   30.8470   42.6290 O   0  0  0  0  0  0  0  0  0  0  0  0
   57.6340   32.1380   44.7580 C   0  0  0  0  0  0  0  0  0  0  0  0
   57.4100   32.4370   46.1100 C   0  0  0  0  0  0  0  0  0  0  0  0
   57.8700   33.6390   46.6550 C   0  0  0  0  0  0  0  0  0  0  0  0
   58.5400   34.5620   45.8500 C   0  0  0  0  0  0  0  0  0  0  0  0
   58.7460   34.2860   44.4950 C   0  0  0  0  0  0  0  0  0  0  0  0
   58.2950   33.0810   43.9470 C   0  0  0  0  0  0  0  0  0  0  0  0
   58.4970   32.8420   42.6270 F   0  0  0  0  0  0  0  0  0  0  0  0
   59.6910   30.0910   46.0220 C   0  0  0  0  0  0  0  0  0  0  0  0
   63.3232   33.8442   48.3517 H   0  0  0  0  0  0  0  0  0  0  0  0
   63.8028   32.8833   46.9118 H   0  0  0  0  0  0  0  0  0  0  0  0
   64.0131   34.6673   46.9118 H   0  0  0  0  0  0  0  0  0  0  0  0
   60.2140   35.3160   48.7180 H   0  0  0  0  0  0  0  0  0  0  0  0
   60.0072   33.8162   50.8940 H   0  0  0  0  0  0  0  0  0  0  0  0
   58.5194   33.7523   49.9515 H   0  0  0  0  0  0  0  0  0  0  0  0
   60.3802   31.5704   50.4507 H   0  0  0  0  0  0  0  0  0  0  0  0
   58.9757   31.4819   49.3996 H   0  0  0  0  0  0  0  0  0  0  0  0
   60.6925   28.6273   48.9416 H   0  0  0  0  0  0  0  0  0  0  0  0
   59.1903   26.8394   48.0967 H   0  0  0  0  0  0  0  0  0  0  0  0
   57.4325   26.1805   46.6285 H   0  0  0  0  0  0  0  0  0  0  0  0
   57.0058   27.1258   45.1619 H   0  0  0  0  0  0  0  0  0  0  0  0
   58.4645   26.0776   45.1619 H   0  0  0  0  0  0  0  0  0  0  0  0
   59.0030   29.4753   43.4323 H   0  0  0  0  0  0  0  0  0  0  0  0
   57.6431   28.3572   43.9312 H   0  0  0  0  0  0  0  0  0  0  0  0
   56.8687   31.7207   46.7456 H   0  0  0  0  0  0  0  0  0  0  0  0
   57.7038   33.8581   47.7201 H   0  0  0  0  0  0  0  0  0  0  0  0
   58.9055   35.5056   46.2814 H   0  0  0  0  0  0  0  0  0  0  0  0
   59.2640   35.0184   43.8584 H   0  0  0  0  0  0  0  0  0  0  0  0
   59.8475   31.0089   45.4364 H   0  0  0  0  0  0  0  0  0  0  0  0
  1  2  1  0
  2  3  1  0
  3  4  2  0
  4  5  1  0
  5  6  1  0
  6  7  1  0
  7  8  1  0
  8  9  2  0
  8 10  1  0
 10 11  2  0
 11 12  1  0
 12 13  2  0
 13 14  1  0
 13 15  1  0
 15 16  1  0
 16 17  1  0
 17 18  2  0
 17 19  2  0
 17 20  1  0
 20 21  2  0
 21 22  1  0
 22 23  2  0
 23 24  1  0
 24 25  2  0
 25 26  1  0
 15 27  2  0
  7  3  1  0
 27 10  1  0
 25 20  1  0
  1 28  1  0
  1 29  1  0
  1 30  1  0
  4 31  1  0
  5 32  1  0
  5 33  1  0
  6 34  1  0
  6 35  1  0
 11 36  1  0
 12 37  1  0
 14 38  1  0
 14 39  1  0
 14 40  1  0
 16 41  1  0
 16 42  1  0
 21 43  1  0
 22 44  1  0
 23 45  1  0
 24 46  1  0
 27 47  1  0
M  CHG  1   4   1
M  END
>  <UniqueID>  (58) 
52

>  <SMILES>  (58) 
CSC1=[NH+]CCN1C(=O)c1ccc(C)c(CS(=O)(=O)c2ccccc2F)c1

>  <Energy>  (58) 
59.34270977352388

>  <Genealogy>  (58) 
CSC1=[NH+]CCN1C(=O)c1ccc(C)c(CS(=O)(=O)c2ccccc2F)c1 (protonated)
CSC1=[NH+]CCN1C(=O)c1ccc(C)c(CS(=O)(=O)c2ccccc2F)c1 (3D coordinates assigned)
CSC1=[NH+]CCN1C(=O)c1ccc(C)c(CS(=O)(=O)c2ccccc2F)c1 (nonaromatic ring conformer: 59.34270977352388 kcal/mol)

>  <smiles>  (58) 
CSC1=NCCN1C(=O)c1ccc(C)c(CS(=O)(=O)c2ccccc2F)c1

>  <score_type>  (58) 
oracle

>  <origin>  (58) 
adg

>  <m_score__min__energy>  (58) 
-7.9199999999999999

>  <m_primary>  (58) 
energy

$$$$
58:0
     RDKit          3D

 36 38  0  0  0  0  0  0  0  0999 V2000
   54.7950   26.3350   46.0080 N   0  0  0  0  0  0  0  0  0  0  0  0
   56.4590   25.8760   46.0690 S   0  0  0  0  0  0  0  0  0  0  0  0
   56.7930   25.3980   47.4550 O   0  0  0  0  0  0  0  0  0  0  0  0
   56.7070   24.7540   45.1000 O   0  0  0  0  0  0  0  0  0  0  0  0
   57.4670   27.2570   45.6520 C   0  0  0  0  0  0  0  0  0  0  0  0
   58.8180   27.2840   46.0190 C   0  0  0  0  0  0  0  0  0  0  0  0
   59.6100   28.3920   45.7060 C   0  0  0  0  0  0  0  0  0  0  0  0
   59.0570   29.4800   45.0250 C   0  0  0  0  0  0  0  0  0  0  0  0
   57.7060   29.4610   44.6440 C   0  0  0  0  0  0  0  0  0  0  0  0
   57.0990   30.6470   43.9520 C   0  0  0  0  0  0  0  0  0  0  0  0
   56.7890   31.6760   44.9390 N   0  0  0  0  0  0  0  0  0  0  0  0
   57.6180   32.6040   45.3100 C   0  0  0  0  0  0  0  0  0  0  0  0
   58.6890   32.3470   46.0860 N   0  0  0  0  0  0  0  0  0  0  0  0
   59.4150   33.4700   46.3490 C   0  0  0  0  0  0  0  0  0  0  0  0
   60.6450   33.4190   47.1840 C   0  0  0  0  0  0  0  0  0  0  0  0
   60.7440   34.2260   48.3330 C   0  0  0  0  0  0  0  0  0  0  0  0
   61.8930   34.1940   49.1290 C   0  0  0  0  0  0  0  0  0  0  0  0
   62.9590   33.3580   48.7890 C   0  0  0  0  0  0  0  0  0  0  0  0
   64.3990   33.3190   49.7900 Cl  0  0  0  0  0  0  0  0  0  0  0  0
   62.8770   32.5560   47.6480 C   0  0  0  0  0  0  0  0  0  0  0  0
   61.7300   32.5850   46.8490 C   0  0  0  0  0  0  0  0  0  0  0  0
   58.9050   34.6360   45.7630 C   0  0  0  0  0  0  0  0  0  0  0  0
   57.5150   34.2350   44.9040 S   0  0  0  0  0  0  0  0  0  0  0  0
   56.9110   28.3520   44.9750 C   0  0  0  0  0  0  0  0  0  0  0  0
   54.6580   27.0830   46.7260 H   0  0  0  0  0  0  0  0  0  0  0  0
   59.2574   26.4301   46.5555 H   0  0  0  0  0  0  0  0  0  0  0  0
   60.6709   28.4079   45.9962 H   0  0  0  0  0  0  0  0  0  0  0  0
   59.6819   30.3534   44.7870 H   0  0  0  0  0  0  0  0  0  0  0  0
   57.8117   31.0471   43.2158 H   0  0  0  0  0  0  0  0  0  0  0  0
   56.1762   30.3405   43.4377 H   0  0  0  0  0  0  0  0  0  0  0  0
   59.9095   34.8881   48.6073 H   0  0  0  0  0  0  0  0  0  0  0  0
   61.9576   34.8287   50.0251 H   0  0  0  0  0  0  0  0  0  0  0  0
   63.7173   31.8998   47.3774 H   0  0  0  0  0  0  0  0  0  0  0  0
   61.6743   31.9515   45.9515 H   0  0  0  0  0  0  0  0  0  0  0  0
   59.3396   35.6428   45.8498 H   0  0  0  0  0  0  0  0  0  0  0  0
   55.8456   28.3421   44.7016 H   0  0  0  0  0  0  0  0  0  0  0  0
  1  2  1  0
  2  3  2  0
  2  4  2  0
  2  5  1  0
  5  6  2  0
  6  7  1  0
  7  8  2  0
  8  9  1  0
  9 10  1  0
 10 11  1  0
 11 12  2  3
 12 13  1  0
 13 14  1  0
 14 15  1  0
 15 16  2  0
 16 17  1  0
 17 18  2  0
 18 19  1  0
 18 20  1  0
 20 21  2  0
 14 22  2  0
 22 23  1  0
  9 24  2  0
 24  5  1  0
 23 12  1  0
 21 15  1  0
  1 25  1  0
  6 26  1  0
  7 27  1  0
  8 28  1  0
 10 29  1  0
 10 30  1  0
 16 31  1  0
 17 32  1  0
 20 33  1  0
 21 34  1  0
 22 35  1  0
 24 36  1  0
M  CHG  2   1  -1  13  -1
M  END
>  <UniqueID>  (59) 
53

>  <SMILES>  (59) 
[NH-]S(=O)(=O)c1cccc(CN=c2[n-]c(-c3ccc(Cl)cc3)cs2)c1

>  <Energy>  (59) 
69.52139038238757

>  <Genealogy>  (59) 
[NH-]S(=O)(=O)c1cccc(CN=c2[n-]c(-c3ccc(Cl)cc3)cs2)c1 (protonated)
[NH-]S(=O)(=O)c1cccc(CN=c2[n-]c(-c3ccc(Cl)cc3)cs2)c1 (3D coordinates assigned)
[NH-]S(=O)(=O)c1cccc(CN=c2[n-]c(-c3ccc(Cl)cc3)cs2)c1 (optimized conformer: 69.52139038238757 kcal/mol)

>  <smiles>  (59) 
NS(=O)(=O)c1cccc(CN=c2[nH]c(-c3ccc(Cl)cc3)cs2)c1

>  <score_type>  (59) 
oracle

>  <origin>  (59) 
adg

>  <m_score__min__energy>  (59) 
-13.58

>  <m_primary>  (59) 
energy

$$$$
59:0
     RDKit          3D

 51 54  0  0  0  0  0  0  0  0999 V2000
   55.3930   30.0910   45.6310 H   0  0  0  0  0  0  0  0  0  0  0  0
   55.5640   29.3690   44.9420 O   0  0  0  0  0  0  0  0  0  0  0  0
   56.2450   28.2050   45.2830 C   0  0  0  0  0  0  0  0  0  0  0  0
   55.5870   27.0940   45.7140 N   0  0  0  0  0  0  0  0  0  0  0  0
   56.4550   26.1170   46.0460 C   0  0  0  0  0  0  0  0  0  0  0  0
   56.0900   24.9920   46.4760 O   0  0  0  0  0  0  0  0  0  0  0  0
   58.0580   26.5740   45.8320 S   0  0  0  0  0  0  0  0  0  0  0  0
   57.6370   28.0960   45.2480 C   0  0  0  0  0  0  0  0  0  0  0  0
   58.6080   29.1500   44.9070 C   0  0  0  0  0  0  0  0  0  0  0  0
   59.3656   28.9275   44.1411 H   0  0  0  0  0  0  0  0  0  0  0  0
   58.6230   30.3710   45.4780 C   0  0  0  0  0  0  0  0  0  0  0  0
   58.8550   30.6390   46.8130 C   0  0  0  0  0  0  0  0  0  0  0  0
   59.0873   29.9038   47.5976 H   0  0  0  0  0  0  0  0  0  0  0  0
   58.7400   32.0030   46.9750 C   0  0  0  0  0  0  0  0  0  0  0  0
   58.8970   32.6770   48.3130 C   0  0  0  0  0  0  0  0  0  0  0  0
   57.9226   33.0747   48.6331 H   0  0  0  0  0  0  0  0  0  0  0  0
   59.2659   31.9377   49.0392 H   0  0  0  0  0  0  0  0  0  0  0  0
   59.8870   33.8060   48.2290 C   0  0  0  0  0  0  0  0  0  0  0  0
   59.5040   34.9870   48.4470 O   0  0  0  0  0  0  0  0  0  0  0  0
   61.2740   33.5590   47.9580 N   0  0  0  0  0  0  0  0  0  0  0  0
   62.3210   33.3660   48.8980 C   0  0  0  0  0  0  0  0  0  0  0  0
   62.2020   33.1430   50.2760 C   0  0  0  0  0  0  0  0  0  0  0  0
   61.2159   33.1410   50.7634 H   0  0  0  0  0  0  0  0  0  0  0  0
   63.3730   32.9220   51.0200 C   0  0  0  0  0  0  0  0  0  0  0  0
   63.3096   32.7631   52.1066 H   0  0  0  0  0  0  0  0  0  0  0  0
   64.6270   32.9030   50.3810 C   0  0  0  0  0  0  0  0  0  0  0  0
   65.5411   32.7405   50.9710 H   0  0  0  0  0  0  0  0  0  0  0  0
   64.7140   33.0910   48.9920 C   0  0  0  0  0  0  0  0  0  0  0  0
   65.6876   33.0616   48.4808 H   0  0  0  0  0  0  0  0  0  0  0  0
   63.5380   33.3160   48.2740 C   0  0  0  0  0  0  0  0  0  0  0  0
   63.3820   33.4730   46.8020 C   0  0  0  0  0  0  0  0  0  0  0  0
   63.7838   32.5991   46.2682 H   0  0  0  0  0  0  0  0  0  0  0  0
   63.9261   34.3416   46.4028 H   0  0  0  0  0  0  0  0  0  0  0  0
   61.8500   33.5810   46.6130 C   0  0  0  0  0  0  0  0  0  0  0  0
   61.4769   32.7304   46.0237 H   0  0  0  0  0  0  0  0  0  0  0  0
   61.5749   34.4986   46.0724 H   0  0  0  0  0  0  0  0  0  0  0  0
   58.4090   32.6040   45.7990 N   0  0  0  0  0  0  0  0  0  0  0  0
   58.1580   34.0570   45.6250 C   0  0  0  0  0  0  0  0  0  0  0  0
   58.1324   34.5047   46.6294 H   0  0  0  0  0  0  0  0  0  0  0  0
   56.7800   34.3430   45.0100 C   0  0  0  0  0  0  0  0  0  0  0  0
   56.0444   34.4957   45.8135 H   0  0  0  0  0  0  0  0  0  0  0  0
   56.8368   35.2485   44.3880 H   0  0  0  0  0  0  0  0  0  0  0  0
   56.4718   33.4897   44.3880 H   0  0  0  0  0  0  0  0  0  0  0  0
   59.3040   34.7430   44.8740 C   0  0  0  0  0  0  0  0  0  0  0  0
   60.0144   35.1682   45.5983 H   0  0  0  0  0  0  0  0  0  0  0  0
   59.8215   34.0060   44.2423 H   0  0  0  0  0  0  0  0  0  0  0  0
   58.8989   35.5472   44.2423 H   0  0  0  0  0  0  0  0  0  0  0  0
   58.3540   31.6030   44.8690 C   0  0  0  0  0  0  0  0  0  0  0  0
   58.1100   31.7740   43.5590 C   0  0  0  0  0  0  0  0  0  0  0  0
   57.9075   32.7805   43.1640 H   0  0  0  0  0  0  0  0  0  0  0  0
   58.1127   30.9075   42.8813 H   0  0  0  0  0  0  0  0  0  0  0  0
  1  2  1  0
  2  3  1  0
  3  4  1  0
  4  5  1  0
  5  6  2  0
  5  7  1  0
  7  8  1  0
  8  9  1  0
  9 10  1  0
  9 11  2  0
 11 12  1  0
 12 13  1  0
 12 14  2  0
 14 15  1  0
 15 16  1  0
 15 17  1  0
 15 18  1  0
 18 19  2  0
 18 20  1  0
 20 21  1  0
 21 22  2  0
 22 23  1  0
 22 24  1  0
 24 25  1  0
 24 26  2  0
 26 27  1  0
 26 28  1  0
 28 29  1  0
 28 30  2  0
 30 31  1  0
 31 32  1  0
 31 33  1  0
 31 34  1  0
 34 35  1  0
 34 36  1  0
 14 37  1  0
 37 38  1  0
 38 39  1  0
 38 40  1  0
 40 41  1  0
 40 42  1  0
 40 43  1  0
 38 44  1  0
 44 45  1  0
 44 46  1  0
 44 47  1  0
 37 48  1  0
 48 49  2  0
 49 50  1  0
 49 51  1  0
  8  3  2  0
 48 11  1  0
 34 20  1  0
 30 21  1  0
M  CHG  1   4  -1
M  END
>  <UniqueID>  (60) 
54

>  <SMILES>  (60) 
C=c1/c(=C/c2sc(=O)[n-]c2O)cc(CC(=O)N2CCc3ccccc32)n1C(C)C

>  <Energy>  (60) 
138.84608742540792

>  <Genealogy>  (60) 
C=c1c(=Cc2sc(=O)[n-]c2O)cc(CC(=O)N2CCc3ccccc32)n1C(C)C (protonated)
C=c1/c(=C/c2sc(=O)[n-]c2O)cc(CC(=O)N2CCc3ccccc32)n1C(C)C (cis-trans isomerization)
C=c1/c(=C/c2sc(=O)[n-]c2O)cc(CC(=O)N2CCc3ccccc32)n1C(C)C (3D coordinates assigned)
C=c1/c(=C/c2sc(=O)[n-]c2O)cc(CC(=O)N2CCc3ccccc32)n1C(C)C (nonaromatic ring conformer: 138.84608742540792 kcal/mol)

>  <smiles>  (60) 
C=c1c(=Cc2sc(=O)[nH]c2O)cc(CC(=O)N2CCc3ccccc32)n1C(C)C

>  <score_type>  (60) 
oracle

>  <origin>  (60) 
adg

>  <m_score__min__energy>  (60) 
-12.970000000000001

>  <m_primary>  (60) 
energy

$$$$
60:0
     RDKit          3D

 68 72  0  0  0  0  0  0  0  0999 V2000
   59.1052   29.9045   47.8095 H   0  0  0  0  0  0  0  0  0  0  0  0
   59.5610   29.3590   48.6490 C   0  0  0  0  0  0  0  0  0  0  0  0
   59.5180   29.8120   49.9280 N   0  0  0  0  0  0  0  0  0  0  0  0
   60.1310   28.9540   50.7750 C   0  0  0  0  0  0  0  0  0  0  0  0
   60.2040   29.1310   52.0600 N   0  0  0  0  0  0  0  0  0  0  0  0
   59.2980   28.5770   53.0260 C   0  0  0  0  0  0  0  0  0  0  0  0
   59.6690   27.6280   53.7740 O   0  0  0  0  0  0  0  0  0  0  0  0
   57.9450   29.0550   53.1000 N   0  0  0  0  0  0  0  0  0  0  0  0
   57.6450   30.4710   52.8560 C   0  0  0  0  0  0  0  0  0  0  0  0
   57.4425   30.9671   53.8166 H   0  0  0  0  0  0  0  0  0  0  0  0
   58.5110   30.9337   52.3601 H   0  0  0  0  0  0  0  0  0  0  0  0
   56.4200   30.6210   51.9450 C   0  0  0  0  0  0  0  0  0  0  0  0
   56.0427   31.6503   52.0357 H   0  0  0  0  0  0  0  0  0  0  0  0
   56.7473   30.3849   50.9217 H   0  0  0  0  0  0  0  0  0  0  0  0
   55.2630   29.6400   52.2930 C   0  0  0  0  0  0  0  0  0  0  0  0
   55.2228   28.9184   51.4638 H   0  0  0  0  0  0  0  0  0  0  0  0
   53.9310   30.3650   52.3780 C   0  0  0  0  0  0  0  0  0  0  0  0
   53.3820   30.9970   51.2450 C   0  0  0  0  0  0  0  0  0  0  0  0
   53.9265   30.9739   50.2895 H   0  0  0  0  0  0  0  0  0  0  0  0
   52.1490   31.6540   51.3260 C   0  0  0  0  0  0  0  0  0  0  0  0
   51.7262   32.1426   50.4357 H   0  0  0  0  0  0  0  0  0  0  0  0
   51.4560   31.6890   52.5370 C   0  0  0  0  0  0  0  0  0  0  0  0
   50.4896   32.2104   52.6023 H   0  0  0  0  0  0  0  0  0  0  0  0
   51.9890   31.0620   53.6670 C   0  0  0  0  0  0  0  0  0  0  0  0
   51.4421   31.0923   54.6209 H   0  0  0  0  0  0  0  0  0  0  0  0
   53.2150   30.3970   53.5870 C   0  0  0  0  0  0  0  0  0  0  0  0
   53.6229   29.8948   54.4766 H   0  0  0  0  0  0  0  0  0  0  0  0
   55.5190   28.8220   53.5780 C   0  0  0  0  0  0  0  0  0  0  0  0
   55.4986   29.4973   54.4461 H   0  0  0  0  0  0  0  0  0  0  0  0
   54.7350   28.0561   53.6720 H   0  0  0  0  0  0  0  0  0  0  0  0
   56.8810   28.1270   53.5140 C   0  0  0  0  0  0  0  0  0  0  0  0
   57.1242   27.7265   54.5092 H   0  0  0  0  0  0  0  0  0  0  0  0
   56.8201   27.3199   52.7691 H   0  0  0  0  0  0  0  0  0  0  0  0
   60.7690   27.6150   49.9850 S   0  0  0  0  0  0  0  0  0  0  0  0
   60.2270   28.1510   48.4860 C   0  0  0  0  0  0  0  0  0  0  0  0
   60.4840   27.3130   46.9280 S   0  0  0  0  0  0  0  0  0  0  0  0
   58.9020   27.8360   46.2680 C   0  0  0  0  0  0  0  0  0  0  0  0
   57.7710   27.0460   46.4990 C   0  0  0  0  0  0  0  0  0  0  0  0
   57.8546   26.1318   47.1050 H   0  0  0  0  0  0  0  0  0  0  0  0
   56.5340   27.4160   45.9610 C   0  0  0  0  0  0  0  0  0  0  0  0
   55.6524   26.7793   46.1266 H   0  0  0  0  0  0  0  0  0  0  0  0
   56.4130   28.5910   45.2140 C   0  0  0  0  0  0  0  0  0  0  0  0
   55.1650   28.9670   44.7320 O   0  0  0  0  0  0  0  0  0  0  0  0
   57.5450   29.3970   44.9870 C   0  0  0  0  0  0  0  0  0  0  0  0
   57.4310   30.6480   44.2170 C   0  0  0  0  0  0  0  0  0  0  0  0
   57.0570   30.5940   43.0130 O   0  0  0  0  0  0  0  0  0  0  0  0
   57.7580   31.9210   44.8110 N   0  0  0  0  0  0  0  0  0  0  0  0
   57.3890   32.2110   46.2020 C   0  0  0  0  0  0  0  0  0  0  0  0
   57.2337   31.2649   46.7413 H   0  0  0  0  0  0  0  0  0  0  0  0
   56.4634   32.8053   46.2107 H   0  0  0  0  0  0  0  0  0  0  0  0
   58.4970   33.0060   46.8880 C   0  0  0  0  0  0  0  0  0  0  0  0
   59.3457   32.3345   47.0851 H   0  0  0  0  0  0  0  0  0  0  0  0
   58.0896   33.4185   47.8228 H   0  0  0  0  0  0  0  0  0  0  0  0
   58.9640   34.1320   46.0600 N   0  0  0  0  0  0  0  0  0  0  0  0
   59.8510   35.1260   46.6250 C   0  0  0  0  0  0  0  0  0  0  0  0
   60.0690   36.2010   46.0030 O   0  0  0  0  0  0  0  0  0  0  0  0
   60.5080   34.9290   47.9580 C   0  0  0  0  0  0  0  0  0  0  0  0
   59.7854   35.1457   48.7585 H   0  0  0  0  0  0  0  0  0  0  0  0
   60.8524   33.8881   48.0468 H   0  0  0  0  0  0  0  0  0  0  0  0
   61.3683   35.6087   48.0468 H   0  0  0  0  0  0  0  0  0  0  0  0
   58.4080   34.3220   44.7080 C   0  0  0  0  0  0  0  0  0  0  0  0
   59.0610   35.0032   44.1428 H   0  0  0  0  0  0  0  0  0  0  0  0
   57.3973   34.7462   44.8007 H   0  0  0  0  0  0  0  0  0  0  0  0
   58.3110   32.9840   43.9610 C   0  0  0  0  0  0  0  0  0  0  0  0
   59.3174   32.6875   43.6303 H   0  0  0  0  0  0  0  0  0  0  0  0
   57.6360   33.1205   43.1033 H   0  0  0  0  0  0  0  0  0  0  0  0
   58.7890   29.0130   45.5190 C   0  0  0  0  0  0  0  0  0  0  0  0
   59.6762   29.6398   45.3459 H   0  0  0  0  0  0  0  0  0  0  0  0
  1  2  1  0
  2  3  1  0
  3  4  1  0
  4  5  2  0
  5  6  1  0
  6  7  2  0
  6  8  1  0
  8  9  1  0
  9 10  1  0
  9 11  1  0
  9 12  1  0
 12 13  1  0
 12 14  1  0
 12 15  1  0
 15 16  1  0
 15 17  1  0
 17 18  2  0
 18 19  1  0
 18 20  1  0
 20 21  1  0
 20 22  2  0
 22 23  1  0
 22 24  1  0
 24 25  1  0
 24 26  2  0
 26 27  1  0
 15 28  1  0
 28 29  1  0
 28 30  1  0
 28 31  1  0
 31 32  1  0
 31 33  1  0
  4 34  1  0
 34 35  1  0
 35 36  1  0
 36 37  1  0
 37 38  2  0
 38 39  1  0
 38 40  1  0
 40 41  1  0
 40 42  2  0
 42 43  1  0
 42 44  1  0
 44 45  1  0
 45 46  2  0
 45 47  1  0
 47 48  1  0
 48 49  1  0
 48 50  1  0
 48 51  1  0
 51 52  1  0
 51 53  1  0
 51 54  1  0
 54 55  1  0
 55 56  2  0
 55 57  1  0
 57 58  1  0
 57 59  1  0
 57 60  1  0
 54 61  1  0
 61 62  1  0
 61 63  1  0
 61 64  1  0
 64 65  1  0
 64 66  1  0
 44 67  2  0
 67 68  1  0
 35  2  2  0
 67 37  1  0
 31  8  1  0
 64 47  1  0
 26 17  1  0
M  CHG  2   3  -1  43  -1
M  END
>  <UniqueID>  (61) 
55

>  <SMILES>  (61) 
CC(=O)N1CCN(C(=O)c2cc(Sc3c[n-]/c(=N\C(=O)N4CCC(c5ccccc5)CC4)s3)ccc2[O-])CC1

>  <Energy>  (61) 
112.87285442079384

>  <Genealogy>  (61) 
CC(=O)N1CCN(C(=O)c2cc(Sc3c[n-]c(=NC(=O)N4CCC(c5ccccc5)CC4)s3)ccc2[O-])CC1 (protonated)
CC(=O)N1CCN(C(=O)c2cc(Sc3c[n-]/c(=N\C(=O)N4CCC(c5ccccc5)CC4)s3)ccc2[O-])CC1 (cis-trans isomerization)
CC(=O)N1CCN(C(=O)c2cc(Sc3c[n-]/c(=N\C(=O)N4CCC(c5ccccc5)CC4)s3)ccc2[O-])CC1 (3D coordinates assigned)
CC(=O)N1CCN(C(=O)c2cc(Sc3c[n-]/c(=N\C(=O)N4CCC(c5ccccc5)CC4)s3)ccc2[O-])CC1 (nonaromatic ring conformer: 112.87285442079384 kcal/mol)

>  <smiles>  (61) 
CC(=O)N1CCN(C(=O)c2cc(Sc3c[nH]c(=NC(=O)N4CCC(c5ccccc5)CC4)s3)ccc2O)CC1

>  <score_type>  (61) 
oracle

>  <origin>  (61) 
adg

>  <m_score__min__energy>  (61) 
-14.199999999999999

>  <m_primary>  (61) 
energy

$$$$
61:0
     RDKit          3D

 38 39  0  0  0  0  0  0  0  0999 V2000
   55.0633   30.6608   43.1316 H   0  0  0  0  0  0  0  0  0  0  0  0
   55.1440   29.7130   43.6840 C   0  0  0  0  0  0  0  0  0  0  0  0
   54.3905   28.9251   43.5374 H   0  0  0  0  0  0  0  0  0  0  0  0
   56.1560   29.5190   44.5320 C   0  0  0  0  0  0  0  0  0  0  0  0
   56.2900   28.3670   45.2300 N   0  0  0  0  0  0  0  0  0  0  0  0
   57.3590   28.5740   46.0260 C   0  0  0  0  0  0  0  0  0  0  0  0
   57.8730   27.6730   46.8770 C   0  0  0  0  0  0  0  0  0  0  0  0
   58.1422   28.0130   47.8879 H   0  0  0  0  0  0  0  0  0  0  0  0
   58.1000   26.2510   46.5400 C   0  0  0  0  0  0  0  0  0  0  0  0
   59.3280   25.6350   46.3460 C   0  0  0  0  0  0  0  0  0  0  0  0
   60.6670   26.2940   46.4020 C   0  0  0  0  0  0  0  0  0  0  0  0
   60.9609   26.4386   47.4521 H   0  0  0  0  0  0  0  0  0  0  0  0
   61.4098   25.6585   45.8976 H   0  0  0  0  0  0  0  0  0  0  0  0
   60.6166   27.2702   45.8976 H   0  0  0  0  0  0  0  0  0  0  0  0
   59.1540   24.3120   46.1450 N   0  0  0  0  0  0  0  0  0  0  0  0
   57.8550   24.0570   46.1970 N   0  0  0  0  0  0  0  0  0  0  0  0
   57.2800   22.7410   46.0890 C   0  0  0  0  0  0  0  0  0  0  0  0
   57.1130   22.0550   47.1360 O   0  0  0  0  0  0  0  0  0  0  0  0
   56.8950   22.1830   44.8130 N   0  0  0  0  0  0  0  0  0  0  0  0
   56.6670   20.7390   44.7090 C   0  0  0  0  0  0  0  0  0  0  0  0
   56.5985   20.3050   45.7175 H   0  0  0  0  0  0  0  0  0  0  0  0
   55.7285   20.5542   44.1657 H   0  0  0  0  0  0  0  0  0  0  0  0
   57.5029   20.2740   44.1657 H   0  0  0  0  0  0  0  0  0  0  0  0
   56.6310   23.0450   43.6560 C   0  0  0  0  0  0  0  0  0  0  0  0
   56.3254   24.0427   44.0042 H   0  0  0  0  0  0  0  0  0  0  0  0
   57.5436   23.1324   43.0480 H   0  0  0  0  0  0  0  0  0  0  0  0
   55.8260   22.6064   43.0480 H   0  0  0  0  0  0  0  0  0  0  0  0
   57.1980   25.2060   46.4570 C   0  0  0  0  0  0  0  0  0  0  0  0
   55.9530   25.2850   46.6420 O   0  0  0  0  0  0  0  0  0  0  0  0
   57.8530   29.8370   45.7870 C   0  0  0  0  0  0  0  0  0  0  0  0
   58.8590   30.3580   46.3410 O   0  0  0  0  0  0  0  0  0  0  0  0
   57.1080   30.4400   44.8420 N   0  0  0  0  0  0  0  0  0  0  0  0
   57.3340   31.7570   44.3060 C   0  0  0  0  0  0  0  0  0  0  0  0
   57.0310   32.7690   44.9940 O   0  0  0  0  0  0  0  0  0  0  0  0
   57.9690   31.9590   42.9660 C   0  0  0  0  0  0  0  0  0  0  0  0
   59.0095   32.2900   43.0995 H   0  0  0  0  0  0  0  0  0  0  0  0
   57.9544   31.0119   42.4068 H   0  0  0  0  0  0  0  0  0  0  0  0
   57.4099   32.7236   42.4068 H   0  0  0  0  0  0  0  0  0  0  0  0
  1  2  1  0
  2  3  1  0
  2  4  2  0
  4  5  1  0
  5  6  1  0
  6  7  2  0
  7  8  1  0
  7  9  1  0
  9 10  2  0
 10 11  1  0
 11 12  1  0
 11 13  1  0
 11 14  1  0
 10 15  1  0
 15 16  1  0
 16 17  1  0
 17 18  2  0
 17 19  1  0
 19 20  1  0
 20 21  1  0
 20 22  1  0
 20 23  1  0
 19 24  1  0
 24 25  1  0
 24 26  1  0
 24 27  1  0
 16 28  1  0
 28 29  2  0
  6 30  1  0
 30 31  2  0
 30 32  1  0
 32 33  1  0
 33 34  2  0
 33 35  1  0
 35 36  1  0
 35 37  1  0
 35 38  1  0
 32  4  1  0
 28  9  1  0
M  CHG  2   5  -1  15  -1
M  END
>  <UniqueID>  (62) 
56

>  <SMILES>  (62) 
C=c1[n-]/c(=C\c2c(C)[n-]n(C(=O)N(C)C)c2=O)c(=O)n1C(C)=O

>  <Energy>  (62) 
110.85765942714306

>  <Genealogy>  (62) 
C=c1[n-]c(=Cc2c(C)[n-]n(C(=O)N(C)C)c2=O)c(=O)n1C(C)=O (protonated)
C=c1[n-]/c(=C\c2c(C)[n-]n(C(=O)N(C)C)c2=O)c(=O)n1C(C)=O (cis-trans isomerization)
C=c1[n-]/c(=C\c2c(C)[n-]n(C(=O)N(C)C)c2=O)c(=O)n1C(C)=O (3D coordinates assigned)
C=c1[n-]/c(=C\c2c(C)[n-]n(C(=O)N(C)C)c2=O)c(=O)n1C(C)=O (optimized conformer: 110.85765942714306 kcal/mol)

>  <smiles>  (62) 
C=c1[nH]c(=Cc2c(C)[nH]n(C(=O)N(C)C)c2=O)c(=O)n1C(C)=O

>  <score_type>  (62) 
oracle

>  <origin>  (62) 
adg

>  <m_score__min__energy>  (62) 
-9.8100000000000005

>  <m_primary>  (62) 
energy

$$$$
62:0
     RDKit          3D

 39 41  0  0  0  0  0  0  0  0999 V2000
   59.5500   27.6230   48.0890 C   0  0  0  0  0  0  0  0  0  0  0  0
   58.9320   28.5920   47.3990 C   0  0  0  0  0  0  0  0  0  0  0  0
   58.9920   29.8430   47.9270 N   0  0  0  0  0  0  0  0  0  0  0  0
   58.5650   30.9560   47.2810 C   0  0  0  0  0  0  0  0  0  0  0  0
   58.7430   32.5310   48.1350 S   0  0  0  0  0  0  0  0  0  0  0  0
   60.4690   32.7280   47.6750 C   0  0  0  0  0  0  0  0  0  0  0  0
   61.4240   31.8830   48.2560 C   0  0  0  0  0  0  0  0  0  0  0  0
   62.7730   32.0010   47.9150 C   0  0  0  0  0  0  0  0  0  0  0  0
   63.1790   32.9750   47.0000 C   0  0  0  0  0  0  0  0  0  0  0  0
   62.2380   33.8400   46.4350 C   0  0  0  0  0  0  0  0  0  0  0  0
   60.8830   33.7270   46.7720 C   0  0  0  0  0  0  0  0  0  0  0  0
   59.6480   34.9710   45.9960 Br  0  0  0  0  0  0  0  0  0  0  0  0
   58.0870   30.8490   45.9610 C   0  0  0  0  0  0  0  0  0  0  0  0
   57.6480   32.0460   45.1440 C   0  0  0  0  0  0  0  0  0  0  0  0
   57.7590   31.7670   43.6450 C   0  0  0  0  0  0  0  0  0  0  0  0
   58.0040   29.5720   45.3870 C   0  0  0  0  0  0  0  0  0  0  0  0
   58.3360   28.4110   46.1120 C   0  0  0  0  0  0  0  0  0  0  0  0
   58.0330   27.2180   45.5390 C   0  0  0  0  0  0  0  0  0  0  0  0
   57.3860   26.0690   46.1950 C   0  0  0  0  0  0  0  0  0  0  0  0
   58.0600   24.9830   46.6110 N   0  0  0  0  0  0  0  0  0  0  0  0
   57.0880   24.1700   47.0760 C   0  0  0  0  0  0  0  0  0  0  0  0
   57.3310   23.0390   47.5720 O   0  0  0  0  0  0  0  0  0  0  0  0
   55.8360   24.6590   46.9600 N   0  0  0  0  0  0  0  0  0  0  0  0
   56.0340   25.8560   46.3870 C   0  0  0  0  0  0  0  0  0  0  0  0
   54.9950   26.7080   46.0220 O   0  0  0  0  0  0  0  0  0  0  0  0
   59.5384   26.5885   47.7152 H   0  0  0  0  0  0  0  0  0  0  0  0
   60.0688   27.8623   49.0290 H   0  0  0  0  0  0  0  0  0  0  0  0
   61.1091   31.1220   48.9852 H   0  0  0  0  0  0  0  0  0  0  0  0
   63.5157   31.3270   48.3669 H   0  0  0  0  0  0  0  0  0  0  0  0
   64.2403   33.0613   46.7239 H   0  0  0  0  0  0  0  0  0  0  0  0
   62.5627   34.6128   45.7227 H   0  0  0  0  0  0  0  0  0  0  0  0
   56.6017   32.2819   45.3879 H   0  0  0  0  0  0  0  0  0  0  0  0
   58.3055   32.8932   45.3889 H   0  0  0  0  0  0  0  0  0  0  0  0
   58.1615   30.7552   43.4892 H   0  0  0  0  0  0  0  0  0  0  0  0
   56.7631   31.8405   43.1836 H   0  0  0  0  0  0  0  0  0  0  0  0
   58.4322   32.5045   43.1836 H   0  0  0  0  0  0  0  0  0  0  0  0
   57.6709   29.4746   44.3432 H   0  0  0  0  0  0  0  0  0  0  0  0
   58.2973   27.0975   44.4781 H   0  0  0  0  0  0  0  0  0  0  0  0
   55.1430   27.4980   45.4060 H   0  0  0  0  0  0  0  0  0  0  0  0
  1  2  2  0
  2  3  1  0
  3  4  2  0
  4  5  1  0
  5  6  1  0
  6  7  2  0
  7  8  1  0
  8  9  2  0
  9 10  1  0
 10 11  2  0
 11 12  1  0
  4 13  1  0
 13 14  1  0
 14 15  1  0
 13 16  2  0
 16 17  1  0
 17 18  2  3
 18 19  1  0
 19 20  1  0
 20 21  1  0
 21 22  2  0
 21 23  1  0
 23 24  1  0
 24 25  1  0
 17  2  1  0
 24 19  2  0
 11  6  1  0
  1 26  1  0
  1 27  1  0
  7 28  1  0
  8 29  1  0
  9 30  1  0
 10 31  1  0
 14 32  1  0
 14 33  1  0
 15 34  1  0
 15 35  1  0
 15 36  1  0
 16 37  1  0
 18 38  1  0
 25 39  1  0
M  CHG  2  20  -1  23  -1
M  END
>  <UniqueID>  (63) 
57

>  <SMILES>  (63) 
C=c1nc(Sc2ccccc2Br)c(CC)cc1=Cc1[n-]c(=O)[n-]c1O

>  <Energy>  (63) 
86.27200513088816

>  <Genealogy>  (63) 
C=c1nc(Sc2ccccc2Br)c(CC)cc1=Cc1[n-]c(=O)[n-]c1O (protonated)
C=c1nc(Sc2ccccc2Br)c(CC)cc1=Cc1[n-]c(=O)[n-]c1O (3D coordinates assigned)
C=c1nc(Sc2ccccc2Br)c(CC)cc1=Cc1[n-]c(=O)[n-]c1O (optimized conformer: 86.27200513088816 kcal/mol)

>  <smiles>  (63) 
C=c1nc(Sc2ccccc2Br)c(CC)cc1=Cc1[nH]c(=O)[nH]c1O

>  <score_type>  (63) 
oracle

>  <origin>  (63) 
adg

>  <m_score__min__energy>  (63) 
-13.699999999999999

>  <m_primary>  (63) 
energy

$$$$
63:0
     RDKit          3D

 55 58  0  0  0  0  0  0  0  0999 V2000
   55.8590   22.9930   47.8750 C   0  0  0  0  0  0  0  0  0  0  0  0
   57.2510   23.2580   47.7190 O   0  0  0  0  0  0  0  0  0  0  0  0
   57.7040   24.3240   46.9620 C   0  0  0  0  0  0  0  0  0  0  0  0
   57.6930   24.1450   45.5790 C   0  0  0  0  0  0  0  0  0  0  0  0
   58.1420   25.1970   44.8040 C   0  0  0  0  0  0  0  0  0  0  0  0
   58.5880   26.3900   45.3600 C   0  0  0  0  0  0  0  0  0  0  0  0
   59.0410   27.4300   44.3940 C   0  0  0  0  0  0  0  0  0  0  0  0
   58.1590   28.6270   44.5250 C   0  0  0  0  0  0  0  0  0  0  0  0
   58.5240   29.7070   45.3110 C   0  0  0  0  0  0  0  0  0  0  0  0
   57.7070   30.8110   45.4300 C   0  0  0  0  0  0  0  0  0  0  0  0
   58.0480   31.9960   46.2580 C   0  0  0  0  0  0  0  0  0  0  0  0
   59.3830   31.7770   46.9040 C   0  0  0  0  0  0  0  0  0  0  0  0
   60.3820   32.8430   46.5400 C   0  0  0  0  0  0  0  0  0  0  0  0
   59.8930   34.1670   46.6390 N   0  0  0  0  0  0  0  0  0  0  0  0
   60.3200   34.9670   47.7210 C   0  0  0  0  0  0  0  0  0  0  0  0
   61.1610   34.1930   48.6800 C   0  0  0  0  0  0  0  0  0  0  0  0
   60.6360   33.6330   49.8250 C   0  0  0  0  0  0  0  0  0  0  0  0
   62.0690   32.8030   50.6450 S   0  0  0  0  0  0  0  0  0  0  0  0
   63.1870   33.3730   49.2460 C   0  0  0  0  0  0  0  0  0  0  0  0
   64.6520   32.9980   49.2890 C   0  0  0  0  0  0  0  0  0  0  0  0
   62.4470   33.9750   48.5320 N   0  0  0  0  0  0  0  0  0  0  0  0
   58.5670   34.3800   46.1530 C   0  0  0  0  0  0  0  0  0  0  0  0
   58.0640   33.2000   45.3480 C   0  0  0  0  0  0  0  0  0  0  0  0
   56.5390   30.8020   44.7530 N   0  0  0  0  0  0  0  0  0  0  0  0
   56.1800   29.7400   43.9810 C   0  0  0  0  0  0  0  0  0  0  0  0
   55.0820   29.7410   43.3500 O   0  0  0  0  0  0  0  0  0  0  0  0
   56.9770   28.6590   43.8630 N   0  0  0  0  0  0  0  0  0  0  0  0
   58.5970   26.5580   46.7190 C   0  0  0  0  0  0  0  0  0  0  0  0
   58.1490   25.5140   47.5260 C   0  0  0  0  0  0  0  0  0  0  0  0
   55.6125   22.9461   48.9460 H   0  0  0  0  0  0  0  0  0  0  0  0
   55.2773   23.7965   47.3997 H   0  0  0  0  0  0  0  0  0  0  0  0
   55.6132   22.0319   47.3997 H   0  0  0  0  0  0  0  0  0  0  0  0
   57.3420   23.2067   45.1247 H   0  0  0  0  0  0  0  0  0  0  0  0
   58.1466   25.0865   43.7096 H   0  0  0  0  0  0  0  0  0  0  0  0
   60.0811   27.7115   44.6150 H   0  0  0  0  0  0  0  0  0  0  0  0
   58.9856   27.0361   43.3684 H   0  0  0  0  0  0  0  0  0  0  0  0
   59.4827   29.6836   45.8499 H   0  0  0  0  0  0  0  0  0  0  0  0
   57.3110   32.1564   47.0587 H   0  0  0  0  0  0  0  0  0  0  0  0
   59.2505   31.7760   47.9960 H   0  0  0  0  0  0  0  0  0  0  0  0
   59.7749   30.8147   46.5430 H   0  0  0  0  0  0  0  0  0  0  0  0
   61.2476   32.7458   47.2118 H   0  0  0  0  0  0  0  0  0  0  0  0
   60.6369   32.6831   45.4820 H   0  0  0  0  0  0  0  0  0  0  0  0
   60.9085   35.8103   47.3306 H   0  0  0  0  0  0  0  0  0  0  0  0
   59.4282   35.3240   48.2570 H   0  0  0  0  0  0  0  0  0  0  0  0
   59.5935   33.6717   50.1738 H   0  0  0  0  0  0  0  0  0  0  0  0
   64.9785   32.9144   50.3361 H   0  0  0  0  0  0  0  0  0  0  0  0
   64.7986   32.0334   48.7811 H   0  0  0  0  0  0  0  0  0  0  0  0
   65.2441   33.7735   48.7811 H   0  0  0  0  0  0  0  0  0  0  0  0
   57.8954   34.5382   47.0097 H   0  0  0  0  0  0  0  0  0  0  0  0
   58.5830   35.2604   45.4937 H   0  0  0  0  0  0  0  0  0  0  0  0
   57.0480   33.4041   44.9791 H   0  0  0  0  0  0  0  0  0  0  0  0
   58.7169   33.0189   44.4814 H   0  0  0  0  0  0  0  0  0  0  0  0
   56.7110   27.8380   43.2720 H   0  0  0  0  0  0  0  0  0  0  0  0
   58.9511   27.4991   47.1651 H   0  0  0  0  0  0  0  0  0  0  0  0
   58.1475   25.6327   48.6196 H   0  0  0  0  0  0  0  0  0  0  0  0
  1  2  1  0
  2  3  1  0
  3  4  2  0
  4  5  1  0
  5  6  2  0
  6  7  1  0
  7  8  1  0
  8  9  2  0
  9 10  1  0
 10 11  1  0
 11 12  1  0
 12 13  1  0
 13 14  1  0
 14 15  1  0
 15 16  1  0
 16 17  2  0
 17 18  1  0
 18 19  1  0
 19 20  1  0
 19 21  2  0
 14 22  1  0
 22 23  1  0
 10 24  2  0
 24 25  1  0
 25 26  2  0
 25 27  1  0
  6 28  1  0
 28 29  2  0
 29  3  1  0
 27  8  1  0
 23 11  1  0
 21 16  1  0
  1 30  1  0
  1 31  1  0
  1 32  1  0
  4 33  1  0
  5 34  1  0
  7 35  1  0
  7 36  1  0
  9 37  1  0
 11 38  1  0
 12 39  1  0
 12 40  1  0
 13 41  1  0
 13 42  1  0
 15 43  1  0
 15 44  1  0
 17 45  1  0
 20 46  1  0
 20 47  1  0
 20 48  1  0
 22 49  1  0
 22 50  1  0
 23 51  1  0
 23 52  1  0
 27 53  1  0
 28 54  1  0
 29 55  1  0
M  END
>  <smiles>  (64) 
COc1ccc(Cc2cc(C3CCN(Cc4csc(C)n4)CC3)nc(=O)[nH]2)cc1

>  <score_type>  (64) 
oracle

>  <origin>  (64) 
adg

>  <m_score__min__energy>  (64) 
-9.3200000000000003

>  <m_primary>  (64) 
energy

$$$$
64:0
     RDKit          3D

 59 63  0  0  0  0  0  0  0  0999 V2000
   51.3410   32.2390   51.1640 N   0  0  0  0  0  0  0  0  0  0  0  0
   51.7370   30.5620   51.2860 S   0  0  0  0  0  0  0  0  0  0  0  0
   51.7570   29.9520   49.9130 O   0  0  0  0  0  0  0  0  0  0  0  0
   50.6980   29.8560   52.1120 O   0  0  0  0  0  0  0  0  0  0  0  0
   53.3190   30.3850   52.0410 C   0  0  0  0  0  0  0  0  0  0  0  0
   53.5140   29.4360   53.0530 C   0  0  0  0  0  0  0  0  0  0  0  0
   54.7700   29.2930   53.6490 C   0  0  0  0  0  0  0  0  0  0  0  0
   55.8380   30.0910   53.2340 C   0  0  0  0  0  0  0  0  0  0  0  0
   55.6580   31.0360   52.2100 C   0  0  0  0  0  0  0  0  0  0  0  0
   56.7990   31.9140   51.7710 C   0  0  0  0  0  0  0  0  0  0  0  0
   57.7920   32.0630   52.8580 N   0  0  0  0  0  0  0  0  0  0  0  0
   58.2990   33.4380   52.9810 C   0  0  0  0  0  0  0  0  0  0  0  0
   59.0850   33.8950   51.7470 C   0  0  0  0  0  0  0  0  0  0  0  0
   59.9530   32.8180   51.1090 C   0  0  0  0  0  0  0  0  0  0  0  0
   60.7050   33.1320   50.0170 C   0  0  0  0  0  0  0  0  0  0  0  0
   60.0880   33.3460   48.6970 C   0  0  0  0  0  0  0  0  0  0  0  0
   59.4800   34.5670   48.3720 C   0  0  0  0  0  0  0  0  0  0  0  0
   58.9230   34.7540   47.1040 C   0  0  0  0  0  0  0  0  0  0  0  0
   58.9820   33.7280   46.1540 C   0  0  0  0  0  0  0  0  0  0  0  0
   58.2910   33.9700   44.5600 Cl  0  0  0  0  0  0  0  0  0  0  0  0
   59.5980   32.5130   46.4730 C   0  0  0  0  0  0  0  0  0  0  0  0
   60.1480   32.3140   47.7490 C   0  0  0  0  0  0  0  0  0  0  0  0
   60.8430   31.0260   48.1070 C   0  0  0  0  0  0  0  0  0  0  0  0
   62.3600   31.2160   48.1660 C   0  0  0  0  0  0  0  0  0  0  0  0
   62.9310   32.1710   49.2150 C   0  0  0  0  0  0  0  0  0  0  0  0
   64.3310   32.1930   49.3200 C   0  0  0  0  0  0  0  0  0  0  0  0
   64.9720   33.0760   50.1860 C   0  0  0  0  0  0  0  0  0  0  0  0
   66.8770   33.0940   50.3120 Br  0  0  0  0  0  0  0  0  0  0  0  0
   64.2100   33.9640   50.9370 C   0  0  0  0  0  0  0  0  0  0  0  0
   62.8550   33.9530   50.8400 N   0  0  0  0  0  0  0  0  0  0  0  0
   62.1880   33.0720   50.0350 C   0  0  0  0  0  0  0  0  0  0  0  0
   59.8210   31.3640   51.5420 C   0  0  0  0  0  0  0  0  0  0  0  0
   58.9230   31.1230   52.7660 C   0  0  0  0  0  0  0  0  0  0  0  0
   54.3940   31.1790   51.6180 C   0  0  0  0  0  0  0  0  0  0  0  0
   50.3290   32.2960   50.9100 H   0  0  0  0  0  0  0  0  0  0  0  0
   52.6765   28.8019   53.3793 H   0  0  0  0  0  0  0  0  0  0  0  0
   54.9175   28.5502   54.4468 H   0  0  0  0  0  0  0  0  0  0  0  0
   56.8233   29.9795   53.7102 H   0  0  0  0  0  0  0  0  0  0  0  0
   57.2871   31.4610   50.8955 H   0  0  0  0  0  0  0  0  0  0  0  0
   56.4027   32.9077   51.5151 H   0  0  0  0  0  0  0  0  0  0  0  0
   57.4446   34.1159   53.1242 H   0  0  0  0  0  0  0  0  0  0  0  0
   58.9873   33.4612   53.8388 H   0  0  0  0  0  0  0  0  0  0  0  0
   58.3650   34.2457   50.9930 H   0  0  0  0  0  0  0  0  0  0  0  0
   59.7711   34.6831   52.0906 H   0  0  0  0  0  0  0  0  0  0  0  0
   59.4415   35.3774   49.1148 H   0  0  0  0  0  0  0  0  0  0  0  0
   58.4377   35.7086   46.8524 H   0  0  0  0  0  0  0  0  0  0  0  0
   59.6515   31.7114   45.7217 H   0  0  0  0  0  0  0  0  0  0  0  0
   60.4851   30.6860   49.0900 H   0  0  0  0  0  0  0  0  0  0  0  0
   60.6145   30.2790   47.3325 H   0  0  0  0  0  0  0  0  0  0  0  0
   62.8052   30.2270   48.3494 H   0  0  0  0  0  0  0  0  0  0  0  0
   62.6121   31.6870   47.2044 H   0  0  0  0  0  0  0  0  0  0  0  0
   64.9308   31.5024   48.7091 H   0  0  0  0  0  0  0  0  0  0  0  0
   64.7057   34.6775   51.6116 H   0  0  0  0  0  0  0  0  0  0  0  0
   62.3210   34.6600   51.3940 H   0  0  0  0  0  0  0  0  0  0  0  0
   59.4053   30.7943   50.6979 H   0  0  0  0  0  0  0  0  0  0  0  0
   60.8304   31.0411   51.8365 H   0  0  0  0  0  0  0  0  0  0  0  0
   58.5222   30.1003   52.7081 H   0  0  0  0  0  0  0  0  0  0  0  0
   59.5455   31.2765   53.6599 H   0  0  0  0  0  0  0  0  0  0  0  0
   54.2457   31.9185   50.8173 H   0  0  0  0  0  0  0  0  0  0  0  0
  1  2  1  0
  2  3  2  0
  2  4  2  0
  2  5  1  0
  5  6  2  0
  6  7  1  0
  7  8  2  0
  8  9  1  0
  9 10  1  0
 10 11  1  0
 11 12  1  0
 12 13  1  0
 13 14  1  0
 14 15  2  3
 15 16  1  0
 16 17  2  0
 17 18  1  0
 18 19  2  0
 19 20  1  0
 19 21  1  0
 21 22  2  0
 22 23  1  0
 23 24  1  0
 24 25  1  0
 25 26  2  0
 26 27  1  0
 27 28  1  0
 27 29  2  0
 29 30  1  0
 30 31  2  0
 14 32  1  0
 32 33  1  0
  9 34  2  0
 34  5  1  0
 33 11  1  0
 31 15  1  0
 22 16  1  0
 31 25  1  0
  1 35  1  0
  6 36  1  0
  7 37  1  0
  8 38  1  0
 10 39  1  0
 10 40  1  0
 12 41  1  0
 12 42  1  0
 13 43  1  0
 13 44  1  0
 17 45  1  0
 18 46  1  0
 21 47  1  0
 23 48  1  0
 23 49  1  0
 24 50  1  0
 24 51  1  0
 26 52  1  0
 29 53  1  0
 30 54  1  0
 32 55  1  0
 32 56  1  0
 33 57  1  0
 33 58  1  0
 34 59  1  0
M  CHG  2   1  -1  30   1
M  END
>  <UniqueID>  (65) 
58

>  <SMILES>  (65) 
[NH-]S(=O)(=O)c1cccc(CN2CCC(=C3c4ccc(Cl)cc4CCc4cc(Br)c[nH+]c43)CC2)c1

>  <Energy>  (65) 
92.24126886174979

>  <Genealogy>  (65) 
[NH-]S(=O)(=O)c1cccc(CN2CCC(=C3c4ccc(Cl)cc4CCc4cc(Br)c[nH+]c43)CC2)c1 (protonated)
[NH-]S(=O)(=O)c1cccc(CN2CCC(=C3c4ccc(Cl)cc4CCc4cc(Br)c[nH+]c43)CC2)c1 (3D coordinates assigned)
[NH-]S(=O)(=O)c1cccc(CN2CCC(=C3c4ccc(Cl)cc4CCc4cc(Br)c[nH+]c43)CC2)c1 (nonaromatic ring conformer: 92.24126886174979 kcal/mol)

>  <smiles>  (65) 
NS(=O)(=O)c1cccc(CN2CCC(=C3c4ccc(Cl)cc4CCc4cc(Br)cnc43)CC2)c1

>  <score_type>  (65) 
oracle

>  <origin>  (65) 
adg

>  <m_score__min__energy>  (65) 
-11.09

>  <m_primary>  (65) 
energy

$$$$
65:0
     RDKit          3D

 56 59  0  0  0  0  0  0  0  0999 V2000
   64.6680   32.2170   46.6770 H   0  0  0  0  0  0  0  0  0  0  0  0
   63.7880   32.6180   46.9810 O   0  0  0  0  0  0  0  0  0  0  0  0
   63.5430   32.9110   48.3220 C   0  0  0  0  0  0  0  0  0  0  0  0
   64.4740   32.5600   49.3110 C   0  0  0  0  0  0  0  0  0  0  0  0
   65.4046   32.0448   49.0308 H   0  0  0  0  0  0  0  0  0  0  0  0
   64.2210   32.8640   50.6530 C   0  0  0  0  0  0  0  0  0  0  0  0
   64.9586   32.5946   51.4233 H   0  0  0  0  0  0  0  0  0  0  0  0
   63.0310   33.5110   51.0220 C   0  0  0  0  0  0  0  0  0  0  0  0
   62.7780   33.8760   52.4610 C   0  0  0  0  0  0  0  0  0  0  0  0
   61.9595   34.6093   52.5098 H   0  0  0  0  0  0  0  0  0  0  0  0
   63.6975   34.3048   52.8860 H   0  0  0  0  0  0  0  0  0  0  0  0
   62.3900   32.6310   53.2720 C   0  0  0  0  0  0  0  0  0  0  0  0
   62.3051   32.9061   54.3337 H   0  0  0  0  0  0  0  0  0  0  0  0
   63.1682   31.8664   53.1314 H   0  0  0  0  0  0  0  0  0  0  0  0
   61.0980   32.0760   52.8120 N   0  0  0  0  0  0  0  0  0  0  0  0
   61.2840   30.8090   52.0530 C   0  0  0  0  0  0  0  0  0  0  0  0
   62.2084   30.3283   52.4058 H   0  0  0  0  0  0  0  0  0  0  0  0
   61.3244   31.0820   50.9882 H   0  0  0  0  0  0  0  0  0  0  0  0
   60.1260   29.8020   52.2080 C   0  0  0  0  0  0  0  0  0  0  0  0
   60.3327   29.1456   53.0662 H   0  0  0  0  0  0  0  0  0  0  0  0
   60.0477   29.2132   51.2822 H   0  0  0  0  0  0  0  0  0  0  0  0
   58.8520   30.4950   52.4300 N   0  0  0  0  0  0  0  0  0  0  0  0
   57.6860   30.1390   51.6630 C   0  0  0  0  0  0  0  0  0  0  0  0
   57.8020   29.8760   50.4360 O   0  0  0  0  0  0  0  0  0  0  0  0
   56.3410   30.1350   52.2700 C   0  0  0  0  0  0  0  0  0  0  0  0
   55.2940   30.9160   51.8220 C   0  0  0  0  0  0  0  0  0  0  0  0
   55.3171   31.6229   50.9795 H   0  0  0  0  0  0  0  0  0  0  0  0
   54.2080   30.6380   52.6380 C   0  0  0  0  0  0  0  0  0  0  0  0
   52.9890   31.2130   52.5720 C   0  0  0  0  0  0  0  0  0  0  0  0
   52.5935   31.6891   53.4814 H   0  0  0  0  0  0  0  0  0  0  0  0
   52.1540   31.2430   51.3570 C   0  0  0  0  0  0  0  0  0  0  0  0
   52.2350   30.3170   50.3830 N   0  0  0  0  0  0  0  0  0  0  0  0
   51.3950   30.7830   49.4350 C   0  0  0  0  0  0  0  0  0  0  0  0
   51.1880   30.1730   48.3530 O   0  0  0  0  0  0  0  0  0  0  0  0
   50.8030   31.9600   49.7330 N   0  0  0  0  0  0  0  0  0  0  0  0
   51.3030   32.2450   50.9460 C   0  0  0  0  0  0  0  0  0  0  0  0
   51.0240   33.4210   51.6360 O   0  0  0  0  0  0  0  0  0  0  0  0
   54.6460   29.6810   53.5600 C   0  0  0  0  0  0  0  0  0  0  0  0
   53.9140   29.1290   54.5390 C   0  0  0  0  0  0  0  0  0  0  0  0
   54.3652   28.3822   55.2088 H   0  0  0  0  0  0  0  0  0  0  0  0
   52.8624   29.4231   54.6721 H   0  0  0  0  0  0  0  0  0  0  0  0
   55.9430   29.3650   53.3140 N   0  0  0  0  0  0  0  0  0  0  0  0
   56.7120   28.2980   53.9630 C   0  0  0  0  0  0  0  0  0  0  0  0
   56.6359   28.4036   55.0553 H   0  0  0  0  0  0  0  0  0  0  0  0
   56.3098   27.3200   53.6602 H   0  0  0  0  0  0  0  0  0  0  0  0
   57.7670   28.3702   53.6602 H   0  0  0  0  0  0  0  0  0  0  0  0
   58.7790   31.5700   53.4290 C   0  0  0  0  0  0  0  0  0  0  0  0
   58.1518   31.2391   54.2699 H   0  0  0  0  0  0  0  0  0  0  0  0
   58.3442   32.4628   52.9558 H   0  0  0  0  0  0  0  0  0  0  0  0
   60.1740   31.9210   53.9510 C   0  0  0  0  0  0  0  0  0  0  0  0
   60.5334   31.1155   54.6083 H   0  0  0  0  0  0  0  0  0  0  0  0
   60.1282   32.8625   54.5180 H   0  0  0  0  0  0  0  0  0  0  0  0
   62.1050   33.8700   50.0250 C   0  0  0  0  0  0  0  0  0  0  0  0
   61.1775   34.3925   50.3018 H   0  0  0  0  0  0  0  0  0  0  0  0
   62.3590   33.5650   48.6820 C   0  0  0  0  0  0  0  0  0  0  0  0
   61.6267   33.8399   47.9086 H   0  0  0  0  0  0  0  0  0  0  0  0
  1  2  1  0
  2  3  1  0
  3  4  2  0
  4  5  1  0
  4  6  1  0
  6  7  1  0
  6  8  2  0
  8  9  1  0
  9 10  1  0
  9 11  1  0
  9 12  1  0
 12 13  1  0
 12 14  1  0
 12 15  1  0
 15 16  1  0
 16 17  1  0
 16 18  1  0
 16 19  1  0
 19 20  1  0
 19 21  1  0
 19 22  1  0
 22 23  1  0
 23 24  2  0
 23 25  1  0
 25 26  2  0
 26 27  1  0
 26 28  1  0
 28 29  2  0
 29 30  1  0
 29 31  1  0
 31 32  1  0
 32 33  1  0
 33 34  2  0
 33 35  1  0
 35 36  1  0
 36 37  1  0
 28 38  1  0
 38 39  2  0
 39 40  1  0
 39 41  1  0
 38 42  1  0
 42 43  1  0
 43 44  1  0
 43 45  1  0
 43 46  1  0
 22 47  1  0
 47 48  1  0
 47 49  1  0
 47 50  1  0
 50 51  1  0
 50 52  1  0
  8 53  1  0
 53 54  1  0
 53 55  2  0
 55 56  1  0
 55  3  1  0
 50 15  1  0
 42 25  1  0
 36 31  2  0
M  CHG  3  32  -1  35  -1  37  -1
M  END
>  <UniqueID>  (66) 
59

>  <SMILES>  (66) 
C=c1/c(=C/c2[n-]c(=O)[n-]c2[O-])cc(C(=O)N2CCN(CCc3ccc(O)cc3)CC2)n1C

>  <Energy>  (66) 
134.53028243695752

>  <Genealogy>  (66) 
C=c1c(=Cc2[n-]c(=O)[n-]c2[O-])cc(C(=O)N2CCN(CCc3ccc(O)cc3)CC2)n1C (protonated)
C=c1/c(=C/c2[n-]c(=O)[n-]c2[O-])cc(C(=O)N2CCN(CCc3ccc(O)cc3)CC2)n1C (cis-trans isomerization)
C=c1/c(=C/c2[n-]c(=O)[n-]c2[O-])cc(C(=O)N2CCN(CCc3ccc(O)cc3)CC2)n1C (3D coordinates assigned)
C=c1/c(=C/c2[n-]c(=O)[n-]c2[O-])cc(C(=O)N2CCN(CCc3ccc(O)cc3)CC2)n1C (nonaromatic ring conformer: 134.53028243695752 kcal/mol)

>  <smiles>  (66) 
C=c1c(=Cc2[nH]c(=O)[nH]c2O)cc(C(=O)N2CCN(CCc3ccc(O)cc3)CC2)n1C

>  <score_type>  (66) 
oracle

>  <origin>  (66) 
adg

>  <m_score__min__energy>  (66) 
-18.02

>  <m_primary>  (66) 
energy

$$$$
66:0
     RDKit          3D

 39 41  0  0  0  0  0  0  0  0999 V2000
   58.8772   29.0482   48.8775 H   0  0  0  0  0  0  0  0  0  0  0  0
   58.5110   28.4920   48.0020 C   0  0  0  0  0  0  0  0  0  0  0  0
   58.2587   27.4253   48.0942 H   0  0  0  0  0  0  0  0  0  0  0  0
   58.3720   29.1150   46.8210 C   0  0  0  0  0  0  0  0  0  0  0  0
   57.9190   28.5370   45.6260 C   0  0  0  0  0  0  0  0  0  0  0  0
   57.7620   27.2470   45.2720 C   0  0  0  0  0  0  0  0  0  0  0  0
   58.0437   26.9685   44.2458 H   0  0  0  0  0  0  0  0  0  0  0  0
   57.2450   26.1780   46.1430 C   0  0  0  0  0  0  0  0  0  0  0  0
   57.9880   25.1850   46.6650 N   0  0  0  0  0  0  0  0  0  0  0  0
   57.0730   24.3930   47.2650 C   0  0  0  0  0  0  0  0  0  0  0  0
   57.3880   23.3460   47.8890 O   0  0  0  0  0  0  0  0  0  0  0  0
   55.7940   24.8050   47.1330 N   0  0  0  0  0  0  0  0  0  0  0  0
   55.9210   25.9280   46.4080 C   0  0  0  0  0  0  0  0  0  0  0  0
   54.8470   26.7060   45.9940 O   0  0  0  0  0  0  0  0  0  0  0  0
   57.6350   29.5870   44.7740 C   0  0  0  0  0  0  0  0  0  0  0  0
   57.2015   29.5125   43.7658 H   0  0  0  0  0  0  0  0  0  0  0  0
   57.9980   30.7460   45.4270 C   0  0  0  0  0  0  0  0  0  0  0  0
   57.7820   32.1230   44.8560 C   0  0  0  0  0  0  0  0  0  0  0  0
   56.8156   32.5124   45.2089 H   0  0  0  0  0  0  0  0  0  0  0  0
   58.6023   32.7758   45.1892 H   0  0  0  0  0  0  0  0  0  0  0  0
   57.7780   32.0820   43.3310 C   0  0  0  0  0  0  0  0  0  0  0  0
   57.6763   31.0403   42.9925 H   0  0  0  0  0  0  0  0  0  0  0  0
   56.9335   32.6753   42.9505 H   0  0  0  0  0  0  0  0  0  0  0  0
   58.7213   32.5008   42.9505 H   0  0  0  0  0  0  0  0  0  0  0  0
   58.4710   30.4650   46.6680 N   0  0  0  0  0  0  0  0  0  0  0  0
   58.9020   31.4450   47.6820 C   0  0  0  0  0  0  0  0  0  0  0  0
   58.2323   32.3167   47.6420 H   0  0  0  0  0  0  0  0  0  0  0  0
   58.8592   30.9585   48.6676 H   0  0  0  0  0  0  0  0  0  0  0  0
   60.3260   31.9090   47.4470 C   0  0  0  0  0  0  0  0  0  0  0  0
   60.6370   33.2040   46.9670 C   0  0  0  0  0  0  0  0  0  0  0  0
   59.6160   34.1720   46.6610 C   0  0  0  0  0  0  0  0  0  0  0  0
   58.7940   34.9450   46.4040 N   0  0  0  0  0  0  0  0  0  0  0  0
   61.9370   33.5670   46.7920 N   0  0  0  0  0  0  0  0  0  0  0  0
   62.9660   32.7280   47.0720 C   0  0  0  0  0  0  0  0  0  0  0  0
   64.0030   33.0564   46.9083 H   0  0  0  0  0  0  0  0  0  0  0  0
   62.7100   31.4500   47.5670 C   0  0  0  0  0  0  0  0  0  0  0  0
   63.5405   30.7680   47.8019 H   0  0  0  0  0  0  0  0  0  0  0  0
   61.3900   31.0460   47.7610 C   0  0  0  0  0  0  0  0  0  0  0  0
   61.1795   30.0440   48.1630 H   0  0  0  0  0  0  0  0  0  0  0  0
  1  2  1  0
  2  3  1  0
  2  4  2  0
  4  5  1  0
  5  6  2  0
  6  7  1  0
  6  8  1  0
  8  9  1  0
  9 10  1  0
 10 11  2  0
 10 12  1  0
 12 13  1  0
 13 14  1  0
  5 15  1  0
 15 16  1  0
 15 17  2  0
 17 18  1  0
 18 19  1  0
 18 20  1  0
 18 21  1  0
 21 22  1  0
 21 23  1  0
 21 24  1  0
 17 25  1  0
 25 26  1  0
 26 27  1  0
 26 28  1  0
 26 29  1  0
 29 30  2  0
 30 31  1  0
 31 32  3  0
 30 33  1  0
 33 34  2  0
 34 35  1  0
 34 36  1  0
 36 37  1  0
 36 38  2  0
 38 39  1  0
 25  4  1  0
 38 29  1  0
 13  8  2  0
M  CHG  3   9  -1  12  -1  14  -1
M  END
>  <UniqueID>  (67) 
60

>  <SMILES>  (67) 
C=c1/c(=C\c2[n-]c(=O)[n-]c2[O-])cc(CC)n1Cc1cccnc1C#N

>  <Energy>  (67) 
108.45556027989872

>  <Genealogy>  (67) 
C=c1c(=Cc2[n-]c(=O)[n-]c2[O-])cc(CC)n1Cc1cccnc1C#N (protonated)
C=c1/c(=C\c2[n-]c(=O)[n-]c2[O-])cc(CC)n1Cc1cccnc1C#N (cis-trans isomerization)
C=c1/c(=C\c2[n-]c(=O)[n-]c2[O-])cc(CC)n1Cc1cccnc1C#N (3D coordinates assigned)
C=c1/c(=C\c2[n-]c(=O)[n-]c2[O-])cc(CC)n1Cc1cccnc1C#N (optimized conformer: 108.45556027989872 kcal/mol)

>  <smiles>  (67) 
C=c1c(=Cc2[nH]c(=O)[nH]c2O)cc(CC)n1Cc1cccnc1C#N

>  <score_type>  (67) 
oracle

>  <origin>  (67) 
adg

>  <m_score__min__energy>  (67) 
-15.41

>  <m_primary>  (67) 
energy

$$$$
67:0
     RDKit          3D

 42 44  0  0  0  0  0  0  0  0999 V2000
   58.8200   30.2890   44.0230 N   0  0  0  0  0  0  0  0  0  0  0  0
   57.8630   31.7270   44.1170 S   0  0  0  0  0  0  0  0  0  0  0  0
   57.7580   32.3670   42.7620 O   0  0  0  0  0  0  0  0  0  0  0  0
   56.4830   31.3280   44.5620 O   0  0  0  0  0  0  0  0  0  0  0  0
   58.5510   32.8770   45.2830 C   0  0  0  0  0  0  0  0  0  0  0  0
   58.8580   34.1730   44.8350 C   0  0  0  0  0  0  0  0  0  0  0  0
   59.2990   35.1520   45.7270 C   0  0  0  0  0  0  0  0  0  0  0  0
   59.4300   34.8540   47.0820 C   0  0  0  0  0  0  0  0  0  0  0  0
   59.1420   33.5700   47.5450 C   0  0  0  0  0  0  0  0  0  0  0  0
   58.7320   32.5610   46.6560 C   0  0  0  0  0  0  0  0  0  0  0  0
   58.5230   31.2020   47.2040 C   0  0  0  0  0  0  0  0  0  0  0  0
   58.7020   31.0140   48.4370 O   0  0  0  0  0  0  0  0  0  0  0  0
   58.0770   30.0990   46.3970 N   0  0  0  0  0  0  0  0  0  0  0  0
   58.5100   28.8680   46.3870 C   0  0  0  0  0  0  0  0  0  0  0  0
   57.6810   27.7610   46.6580 C   0  0  0  0  0  0  0  0  0  0  0  0
   58.2260   26.4670   46.6690 C   0  0  0  0  0  0  0  0  0  0  0  0
   57.4240   25.3110   46.9510 N   0  0  0  0  0  0  0  0  0  0  0  0
   56.3450   24.8220   46.1420 C   0  0  0  0  0  0  0  0  0  0  0  0
   55.1740   25.2490   46.3370 O   0  0  0  0  0  0  0  0  0  0  0  0
   56.5840   23.7800   45.1100 C   0  0  0  0  0  0  0  0  0  0  0  0
   55.7720   23.7400   43.9580 C   0  0  0  0  0  0  0  0  0  0  0  0
   55.9800   22.7700   42.9730 C   0  0  0  0  0  0  0  0  0  0  0  0
   56.9990   21.8290   43.1200 C   0  0  0  0  0  0  0  0  0  0  0  0
   57.8130   21.8560   44.2530 C   0  0  0  0  0  0  0  0  0  0  0  0
   57.6140   22.8220   45.2460 C   0  0  0  0  0  0  0  0  0  0  0  0
   58.4320   22.8110   46.3290 F   0  0  0  0  0  0  0  0  0  0  0  0
   59.5720   26.2920   46.3370 C   0  0  0  0  0  0  0  0  0  0  0  0
   60.3580   27.4040   46.0400 C   0  0  0  0  0  0  0  0  0  0  0  0
   59.8170   28.6490   46.0740 N   0  0  0  0  0  0  0  0  0  0  0  0
   59.5620   30.3460   44.7560 H   0  0  0  0  0  0  0  0  0  0  0  0
   58.2030   29.4810   44.2660 H   0  0  0  0  0  0  0  0  0  0  0  0
   58.7495   34.4191   43.7684 H   0  0  0  0  0  0  0  0  0  0  0  0
   59.5434   36.1598   45.3600 H   0  0  0  0  0  0  0  0  0  0  0  0
   59.7606   35.6314   47.7866 H   0  0  0  0  0  0  0  0  0  0  0  0
   59.2367   33.3445   48.6175 H   0  0  0  0  0  0  0  0  0  0  0  0
   56.6101   27.9102   46.8603 H   0  0  0  0  0  0  0  0  0  0  0  0
   54.9670   24.4792   43.8331 H   0  0  0  0  0  0  0  0  0  0  0  0
   55.3384   22.7488   42.0798 H   0  0  0  0  0  0  0  0  0  0  0  0
   57.1607   21.0666   42.3438 H   0  0  0  0  0  0  0  0  0  0  0  0
   58.6164   21.1132   44.3665 H   0  0  0  0  0  0  0  0  0  0  0  0
   60.0086   25.2827   46.3102 H   0  0  0  0  0  0  0  0  0  0  0  0
   61.4182   27.2729   45.7777 H   0  0  0  0  0  0  0  0  0  0  0  0
  1  2  1  0
  2  3  2  0
  2  4  2  0
  2  5  1  0
  5  6  2  0
  6  7  1  0
  7  8  2  0
  8  9  1  0
  9 10  2  0
 10 11  1  0
 11 12  2  0
 11 13  1  0
 13 14  2  3
 14 15  1  0
 15 16  2  0
 16 17  1  0
 17 18  1  0
 18 19  2  0
 18 20  1  0
 20 21  2  0
 21 22  1  0
 22 23  2  0
 23 24  1  0
 24 25  2  0
 25 26  1  0
 16 27  1  0
 27 28  2  0
 28 29  1  0
 10  5  1  0
 29 14  1  0
 25 20  1  0
  1 30  1  0
  1 31  1  0
  6 32  1  0
  7 33  1  0
  8 34  1  0
  9 35  1  0
 15 36  1  0
 21 37  1  0
 22 38  1  0
 23 39  1  0
 24 40  1  0
 27 41  1  0
 28 42  1  0
M  CHG  2  17  -1  29  -1
M  END
>  <UniqueID>  (68) 
61

>  <SMILES>  (68) 
NS(=O)(=O)c1ccccc1C(=O)N=c1cc([N-]C(=O)c2ccccc2F)cc[n-]1

>  <Energy>  (68) 
64.88955981471281

>  <Genealogy>  (68) 
NS(=O)(=O)c1ccccc1C(=O)N=c1cc([N-]C(=O)c2ccccc2F)cc[n-]1 (protonated)
NS(=O)(=O)c1ccccc1C(=O)N=c1cc([N-]C(=O)c2ccccc2F)cc[n-]1 (3D coordinates assigned)
NS(=O)(=O)c1ccccc1C(=O)N=c1cc([N-]C(=O)c2ccccc2F)cc[n-]1 (optimized conformer: 64.88955981471281 kcal/mol)

>  <smiles>  (68) 
NS(=O)(=O)c1ccccc1C(=O)N=c1cc(NC(=O)c2ccccc2F)cc[nH]1

>  <score_type>  (68) 
oracle

>  <origin>  (68) 
adg

>  <m_score__min__energy>  (68) 
-11.539999999999999

>  <m_primary>  (68) 
energy

$$$$
68:0
     RDKit          3D

 45 47  0  0  0  0  0  0  0  0999 V2000
   57.1520   25.8830   47.0070 O   0  0  0  0  0  0  0  0  0  0  0  0
   56.4970   26.7050   46.3070 C   0  0  0  0  0  0  0  0  0  0  0  0
   55.1340   26.3830   45.9860 N   0  0  0  0  0  0  0  0  0  0  0  0
   54.5850   25.0800   45.6180 C   0  0  0  0  0  0  0  0  0  0  0  0
   55.6790   24.1390   45.2160 C   0  0  0  0  0  0  0  0  0  0  0  0
   56.2700   24.0660   43.9620 C   0  0  0  0  0  0  0  0  0  0  0  0
   57.3060   23.1280   43.8960 C   0  0  0  0  0  0  0  0  0  0  0  0
   57.5450   22.4690   45.0970 C   0  0  0  0  0  0  0  0  0  0  0  0
   56.4670   23.0610   46.2440 S   0  0  0  0  0  0  0  0  0  0  0  0
   57.1730   27.9440   45.8520 C   0  0  0  0  0  0  0  0  0  0  0  0
   58.2350   28.3300   46.4080 O   0  0  0  0  0  0  0  0  0  0  0  0
   56.6250   28.6920   44.7490 N   0  0  0  0  0  0  0  0  0  0  0  0
   57.0710   30.0030   44.3570 C   0  0  0  0  0  0  0  0  0  0  0  0
   56.9630   30.4520   43.0280 C   0  0  0  0  0  0  0  0  0  0  0  0
   57.4060   31.7310   42.6760 C   0  0  0  0  0  0  0  0  0  0  0  0
   57.9720   32.5660   43.6400 C   0  0  0  0  0  0  0  0  0  0  0  0
   58.1230   32.1180   44.9590 C   0  0  0  0  0  0  0  0  0  0  0  0
   58.8470   33.1650   46.1740 S   0  0  0  0  0  0  0  0  0  0  0  0
   58.0540   33.0580   47.4480 O   0  0  0  0  0  0  0  0  0  0  0  0
   58.7980   34.5930   45.6980 O   0  0  0  0  0  0  0  0  0  0  0  0
   60.5000   32.6850   46.4780 N   0  0  0  0  0  0  0  0  0  0  0  0
   61.3240   33.8690   46.7780 C   0  0  0  0  0  0  0  0  0  0  0  0
   62.7080   33.4580   47.3220 C   0  0  0  0  0  0  0  0  0  0  0  0
   62.9330   32.0730   47.1520 O   0  0  0  0  0  0  0  0  0  0  0  0
   61.9980   31.3430   47.9260 C   0  0  0  0  0  0  0  0  0  0  0  0
   60.5390   31.7340   47.6010 C   0  0  0  0  0  0  0  0  0  0  0  0
   57.6750   30.8360   45.3100 C   0  0  0  0  0  0  0  0  0  0  0  0
   54.0452   24.6593   46.4792 H   0  0  0  0  0  0  0  0  0  0  0  0
   53.9013   25.2120   44.7664 H   0  0  0  0  0  0  0  0  0  0  0  0
   55.9557   24.6829   43.1072 H   0  0  0  0  0  0  0  0  0  0  0  0
   57.8790   22.9299   42.9781 H   0  0  0  0  0  0  0  0  0  0  0  0
   58.3073   21.6945   45.2673 H   0  0  0  0  0  0  0  0  0  0  0  0
   55.9350   28.2140   44.1290 H   0  0  0  0  0  0  0  0  0  0  0  0
   56.5278   29.7936   42.2617 H   0  0  0  0  0  0  0  0  0  0  0  0
   57.3080   32.0793   41.6372 H   0  0  0  0  0  0  0  0  0  0  0  0
   58.3006   33.5788   43.3637 H   0  0  0  0  0  0  0  0  0  0  0  0
   61.4594   34.4554   45.8572 H   0  0  0  0  0  0  0  0  0  0  0  0
   60.8104   34.4674   47.5449 H   0  0  0  0  0  0  0  0  0  0  0  0
   63.4863   34.0170   46.7819 H   0  0  0  0  0  0  0  0  0  0  0  0
   62.7418   33.6871   48.3973 H   0  0  0  0  0  0  0  0  0  0  0  0
   62.1308   30.2701   47.7227 H   0  0  0  0  0  0  0  0  0  0  0  0
   62.1819   31.5757   48.9853 H   0  0  0  0  0  0  0  0  0  0  0  0
   59.9734   30.8302   47.3303 H   0  0  0  0  0  0  0  0  0  0  0  0
   60.0915   32.2092   48.4864 H   0  0  0  0  0  0  0  0  0  0  0  0
   57.7987   30.4803   46.3435 H   0  0  0  0  0  0  0  0  0  0  0  0
  1  2  2  0
  2  3  1  0
  3  4  1  0
  4  5  1  0
  5  6  2  0
  6  7  1  0
  7  8  2  0
  8  9  1  0
  2 10  1  0
 10 11  2  0
 10 12  1  0
 12 13  1  0
 13 14  2  0
 14 15  1  0
 15 16  2  0
 16 17  1  0
 17 18  1  0
 18 19  2  0
 18 20  2  0
 18 21  1  0
 21 22  1  0
 22 23  1  0
 23 24  1  0
 24 25  1  0
 25 26  1  0
 17 27  2  0
  9  5  1  0
 27 13  1  0
 26 21  1  0
  4 28  1  0
  4 29  1  0
  6 30  1  0
  7 31  1  0
  8 32  1  0
 12 33  1  0
 14 34  1  0
 15 35  1  0
 16 36  1  0
 22 37  1  0
 22 38  1  0
 23 39  1  0
 23 40  1  0
 25 41  1  0
 25 42  1  0
 26 43  1  0
 26 44  1  0
 27 45  1  0
M  CHG  1   3  -1
M  END
>  <UniqueID>  (69) 
62

>  <SMILES>  (69) 
O=C([N-]Cc1cccs1)C(=O)Nc1cccc(S(=O)(=O)N2CCOCC2)c1

>  <Energy>  (69) 
81.93804040505907

>  <Genealogy>  (69) 
O=C([N-]Cc1cccs1)C(=O)Nc1cccc(S(=O)(=O)N2CCOCC2)c1 (protonated)
O=C([N-]Cc1cccs1)C(=O)Nc1cccc(S(=O)(=O)N2CCOCC2)c1 (3D coordinates assigned)
O=C([N-]Cc1cccs1)C(=O)Nc1cccc(S(=O)(=O)N2CCOCC2)c1 (nonaromatic ring conformer: 81.93804040505907 kcal/mol)

>  <smiles>  (69) 
O=C(NCc1cccs1)C(=O)Nc1cccc(S(=O)(=O)N2CCOCC2)c1

>  <score_type>  (69) 
oracle

>  <origin>  (69) 
adg

>  <m_score__min__energy>  (69) 
-11.029999999999999

>  <m_primary>  (69) 
energy

$$$$
69:0
     RDKit          3D

 48 50  0  0  0  0  0  0  0  0999 V2000
   56.3040   29.7180   43.0590 C   0  0  0  0  0  0  0  0  0  0  0  0
   57.0380   30.9430   43.5180 C   0  0  0  0  0  0  0  0  0  0  0  0
   57.7310   31.7320   42.5910 C   0  0  0  0  0  0  0  0  0  0  0  0
   58.4430   32.8570   43.0160 C   0  0  0  0  0  0  0  0  0  0  0  0
   58.4690   33.2150   44.3730 C   0  0  0  0  0  0  0  0  0  0  0  0
   59.2590   34.4190   44.8150 C   0  0  0  0  0  0  0  0  0  0  0  0
   57.7610   32.4260   45.3070 C   0  0  0  0  0  0  0  0  0  0  0  0
   57.7570   32.7650   46.7410 C   0  0  0  0  0  0  0  0  0  0  0  0
   58.8180   32.5880   47.5460 C   0  0  0  0  0  0  0  0  0  0  0  0
   59.3520   30.9800   48.0640 S   0  0  0  0  0  0  0  0  0  0  0  0
   60.7930   31.0270   48.4930 O   0  0  0  0  0  0  0  0  0  0  0  0
   58.5250   30.5430   49.2410 O   0  0  0  0  0  0  0  0  0  0  0  0
   59.2010   29.8280   46.7420 C   0  0  0  0  0  0  0  0  0  0  0  0
   58.1540   28.8960   46.7480 C   0  0  0  0  0  0  0  0  0  0  0  0
   58.0440   27.9570   45.7180 C   0  0  0  0  0  0  0  0  0  0  0  0
   58.9760   27.9490   44.6760 C   0  0  0  0  0  0  0  0  0  0  0  0
   60.0170   28.8810   44.6620 C   0  0  0  0  0  0  0  0  0  0  0  0
   60.1300   29.8210   45.6900 C   0  0  0  0  0  0  0  0  0  0  0  0
   59.6480   33.9980   48.2020 S   0  0  0  0  0  0  0  0  0  0  0  0
   59.3660   34.1520   49.6700 O   0  0  0  0  0  0  0  0  0  0  0  0
   59.1570   35.2300   47.4940 O   0  0  0  0  0  0  0  0  0  0  0  0
   61.3780   33.7870   47.9620 C   0  0  0  0  0  0  0  0  0  0  0  0
   62.2160   33.6270   49.0740 C   0  0  0  0  0  0  0  0  0  0  0  0
   63.5890   33.4380   48.8980 C   0  0  0  0  0  0  0  0  0  0  0  0
   64.1330   33.4090   47.6100 C   0  0  0  0  0  0  0  0  0  0  0  0
   63.3010   33.5670   46.4970 C   0  0  0  0  0  0  0  0  0  0  0  0
   61.9260   33.7550   46.6700 C   0  0  0  0  0  0  0  0  0  0  0  0
   57.0790   31.2790   44.8770 C   0  0  0  0  0  0  0  0  0  0  0  0
   55.9615   29.1463   43.9341 H   0  0  0  0  0  0  0  0  0  0  0  0
   55.4357   30.0163   42.4531 H   0  0  0  0  0  0  0  0  0  0  0  0
   56.9766   29.0930   42.4531 H   0  0  0  0  0  0  0  0  0  0  0  0
   57.7147   31.4650   41.5240 H   0  0  0  0  0  0  0  0  0  0  0  0
   58.9878   33.4673   42.2806 H   0  0  0  0  0  0  0  0  0  0  0  0
   59.2844   34.4576   45.9140 H   0  0  0  0  0  0  0  0  0  0  0  0
   60.2857   34.3466   44.4269 H   0  0  0  0  0  0  0  0  0  0  0  0
   58.7838   35.3320   44.4269 H   0  0  0  0  0  0  0  0  0  0  0  0
   56.8375   33.1848   47.1750 H   0  0  0  0  0  0  0  0  0  0  0  0
   57.4173   28.9034   47.5649 H   0  0  0  0  0  0  0  0  0  0  0  0
   57.2237   27.2242   45.7275 H   0  0  0  0  0  0  0  0  0  0  0  0
   58.8898   27.2088   43.8669 H   0  0  0  0  0  0  0  0  0  0  0  0
   60.7486   28.8748   43.8406 H   0  0  0  0  0  0  0  0  0  0  0  0
   60.9480   30.5563   45.6746 H   0  0  0  0  0  0  0  0  0  0  0  0
   61.7913   33.6503   50.0885 H   0  0  0  0  0  0  0  0  0  0  0  0
   64.2429   33.3119   49.7735 H   0  0  0  0  0  0  0  0  0  0  0  0
   65.2144   33.2620   47.4724 H   0  0  0  0  0  0  0  0  0  0  0  0
   63.7288   33.5434   45.4839 H   0  0  0  0  0  0  0  0  0  0  0  0
   61.2735   33.8779   45.7930 H   0  0  0  0  0  0  0  0  0  0  0  0
   56.5720   30.6377   45.6130 H   0  0  0  0  0  0  0  0  0  0  0  0
  1  2  1  0
  2  3  2  0
  3  4  1  0
  4  5  2  0
  5  6  1  0
  5  7  1  0
  7  8  1  0
  8  9  2  3
  9 10  1  0
 10 11  2  0
 10 12  2  0
 10 13  1  0
 13 14  2  0
 14 15  1  0
 15 16  2  0
 16 17  1  0
 17 18  2  0
  9 19  1  0
 19 20  2  0
 19 21  2  0
 19 22  1  0
 22 23  2  0
 23 24  1  0
 24 25  2  0
 25 26  1  0
 26 27  2  0
  7 28  2  0
 28  2  1  0
 18 13  1  0
 27 22  1  0
  1 29  1  0
  1 30  1  0
  1 31  1  0
  3 32  1  0
  4 33  1  0
  6 34  1  0
  6 35  1  0
  6 36  1  0
  8 37  1  0
 14 38  1  0
 15 39  1  0
 16 40  1  0
 17 41  1  0
 18 42  1  0
 23 43  1  0
 24 44  1  0
 25 45  1  0
 26 46  1  0
 27 47  1  0
 28 48  1  0
M  END
>  <UniqueID>  (70) 
63

>  <SMILES>  (70) 
Cc1ccc(C)c(C=C(S(=O)(=O)c2ccccc2)S(=O)(=O)c2ccccc2)c1

>  <Energy>  (70) 
57.000778028060665

>  <Genealogy>  (70) 
Cc1ccc(C)c(C=C(S(=O)(=O)c2ccccc2)S(=O)(=O)c2ccccc2)c1 (3D coordinates assigned)
Cc1ccc(C)c(C=C(S(=O)(=O)c2ccccc2)S(=O)(=O)c2ccccc2)c1 (optimized conformer: 57.000778028060665 kcal/mol)

>  <smiles>  (70) 
Cc1ccc(C)c(C=C(S(=O)(=O)c2ccccc2)S(=O)(=O)c2ccccc2)c1

>  <score_type>  (70) 
oracle

>  <origin>  (70) 
adg

>  <m_score__min__energy>  (70) 
-9.3200000000000003

>  <m_primary>  (70) 
energy

$$$$
70:0
     RDKit          3D

 32 33  0  0  0  0  0  0  0  0999 V2000
   59.2262   22.8728   45.5433 H   0  0  0  0  0  0  0  0  0  0  0  0
   58.1850   23.2120   45.6480 C   0  0  0  0  0  0  0  0  0  0  0  0
   57.3706   22.4755   45.7141 H   0  0  0  0  0  0  0  0  0  0  0  0
   57.9090   24.5210   45.6950 C   0  0  0  0  0  0  0  0  0  0  0  0
   56.5870   24.9560   45.8280 C   0  0  0  0  0  0  0  0  0  0  0  0
   55.7705   24.2224   45.8994 H   0  0  0  0  0  0  0  0  0  0  0  0
   56.3050   26.3200   45.8700 C   0  0  0  0  0  0  0  0  0  0  0  0
   54.9760   26.7150   46.0000 O   0  0  0  0  0  0  0  0  0  0  0  0
   57.3450   27.2730   45.7740 C   0  0  0  0  0  0  0  0  0  0  0  0
   57.0330   28.5940   45.8080 C   0  0  0  0  0  0  0  0  0  0  0  0
   56.6179   28.9882   46.7473 H   0  0  0  0  0  0  0  0  0  0  0  0
   57.2030   29.5490   44.6910 C   0  0  0  0  0  0  0  0  0  0  0  0
   56.4680   29.3620   43.5100 C   0  0  0  0  0  0  0  0  0  0  0  0
   55.8009   28.4926   43.4142 H   0  0  0  0  0  0  0  0  0  0  0  0
   56.5770   30.2700   42.4570 C   0  0  0  0  0  0  0  0  0  0  0  0
   56.0148   30.1002   41.5269 H   0  0  0  0  0  0  0  0  0  0  0  0
   57.4000   31.3980   42.5790 C   0  0  0  0  0  0  0  0  0  0  0  0
   57.5440   32.3540   41.4310 C   0  0  0  0  0  0  0  0  0  0  0  0
   57.6973   33.3720   41.8186 H   0  0  0  0  0  0  0  0  0  0  0  0
   58.4082   32.0616   40.8165 H   0  0  0  0  0  0  0  0  0  0  0  0
   56.6320   32.3291   40.8165 H   0  0  0  0  0  0  0  0  0  0  0  0
   58.1370   31.5910   43.7560 C   0  0  0  0  0  0  0  0  0  0  0  0
   58.7991   32.4648   43.8462 H   0  0  0  0  0  0  0  0  0  0  0  0
   58.0390   30.6800   44.8220 C   0  0  0  0  0  0  0  0  0  0  0  0
   58.8290   30.9190   46.0810 C   0  0  0  0  0  0  0  0  0  0  0  0
   58.1912   30.7261   46.9562 H   0  0  0  0  0  0  0  0  0  0  0  0
   59.6966   30.2431   46.1034 H   0  0  0  0  0  0  0  0  0  0  0  0
   59.1764   31.9625   46.1034 H   0  0  0  0  0  0  0  0  0  0  0  0
   58.6770   26.7820   45.6660 C   0  0  0  0  0  0  0  0  0  0  0  0
   59.6640   27.5650   45.6360 O   0  0  0  0  0  0  0  0  0  0  0  0
   58.9140   25.4400   45.6190 N   0  0  0  0  0  0  0  0  0  0  0  0
   59.9060   25.1160   45.5330 H   0  0  0  0  0  0  0  0  0  0  0  0
  1  2  1  0
  2  3  1  0
  2  4  2  0
  4  5  1  0
  5  6  1  0
  5  7  2  0
  7  8  1  0
  7  9  1  0
  9 10  2  0
 10 11  1  0
 10 12  1  0
 12 13  2  0
 13 14  1  0
 13 15  1  0
 15 16  1  0
 15 17  2  0
 17 18  1  0
 18 19  1  0
 18 20  1  0
 18 21  1  0
 17 22  1  0
 22 23  1  0
 22 24  2  0
 24 25  1  0
 25 26  1  0
 25 27  1  0
 25 28  1  0
  9 29  1  0
 29 30  2  0
 29 31  1  0
 31 32  1  0
 31  4  1  0
 24 12  1  0
M  CHG  1   8  -1
M  END
>  <UniqueID>  (71) 
64

>  <SMILES>  (71) 
C=c1cc([O-])/c(=C/c2ccc(C)cc2C)c(=O)[nH]1

>  <Energy>  (71) 
47.911242326319545

>  <Genealogy>  (71) 
C=c1cc([O-])c(=Cc2ccc(C)cc2C)c(=O)[nH]1 (protonated)
C=c1cc([O-])/c(=C/c2ccc(C)cc2C)c(=O)[nH]1 (cis-trans isomerization)
C=c1cc([O-])/c(=C/c2ccc(C)cc2C)c(=O)[nH]1 (3D coordinates assigned)
C=c1cc([O-])/c(=C/c2ccc(C)cc2C)c(=O)[nH]1 (optimized conformer: 47.911242326319545 kcal/mol)

>  <smiles>  (71) 
C=c1cc(O)c(=Cc2ccc(C)cc2C)c(=O)[nH]1

>  <score_type>  (71) 
oracle

>  <origin>  (71) 
adg

>  <m_score__min__energy>  (71) 
-10.369999999999999

>  <m_primary>  (71) 
energy

$$$$
71:0
     RDKit          3D

 40 42  0  0  0  0  0  0  0  0999 V2000
   54.4390   24.3510   45.9540 C   0  0  0  0  0  0  0  0  0  0  0  0
   55.5530   25.2750   45.7960 N   0  0  0  0  0  0  0  0  0  0  0  0
   56.7970   24.9490   45.3880 C   0  0  0  0  0  0  0  0  0  0  0  0
   57.5460   26.1040   45.2970 C   0  0  0  0  0  0  0  0  0  0  0  0
   56.6610   27.1020   45.6530 C   0  0  0  0  0  0  0  0  0  0  0  0
   56.9630   28.3640   45.7190 N   0  0  0  0  0  0  0  0  0  0  0  0
   56.3670   29.4080   44.9340 C   0  0  0  0  0  0  0  0  0  0  0  0
   55.1780   29.2630   44.5460 O   0  0  0  0  0  0  0  0  0  0  0  0
   57.0830   30.6670   44.6140 C   0  0  0  0  0  0  0  0  0  0  0  0
   57.1740   31.1240   43.2890 C   0  0  0  0  0  0  0  0  0  0  0  0
   57.8540   32.3060   42.9960 C   0  0  0  0  0  0  0  0  0  0  0  0
   58.4650   33.0370   44.0170 C   0  0  0  0  0  0  0  0  0  0  0  0
   58.4110   32.5830   45.3460 C   0  0  0  0  0  0  0  0  0  0  0  0
   59.0560   33.3630   46.4290 C   0  0  0  0  0  0  0  0  0  0  0  0
   58.4100   34.2770   47.0100 O   0  0  0  0  0  0  0  0  0  0  0  0
   60.4040   33.0820   46.8430 N   0  0  0  0  0  0  0  0  0  0  0  0
   60.6680   31.9220   47.6980 C   0  0  0  0  0  0  0  0  0  0  0  0
   61.9640   31.2480   47.2540 C   0  0  0  0  0  0  0  0  0  0  0  0
   63.0460   32.2230   47.1380 N   0  0  0  0  0  0  0  0  0  0  0  0
   62.8000   33.5780   46.7440 C   0  0  0  0  0  0  0  0  0  0  0  0
   63.7670   34.3200   46.4250 O   0  0  0  0  0  0  0  0  0  0  0  0
   61.4110   34.1490   46.7780 C   0  0  0  0  0  0  0  0  0  0  0  0
   57.7120   31.3980   45.6360 C   0  0  0  0  0  0  0  0  0  0  0  0
   55.4530   26.5840   45.9550 N   0  0  0  0  0  0  0  0  0  0  0  0
   54.2451   24.1901   47.0248 H   0  0  0  0  0  0  0  0  0  0  0  0
   53.5417   24.7737   45.4783 H   0  0  0  0  0  0  0  0  0  0  0  0
   54.6885   23.3911   45.4783 H   0  0  0  0  0  0  0  0  0  0  0  0
   57.1542   23.9327   45.1653 H   0  0  0  0  0  0  0  0  0  0  0  0
   58.6025   26.2060   45.0080 H   0  0  0  0  0  0  0  0  0  0  0  0
   56.7064   30.5465   42.4779 H   0  0  0  0  0  0  0  0  0  0  0  0
   57.9092   32.6636   41.9572 H   0  0  0  0  0  0  0  0  0  0  0  0
   58.9914   33.9733   43.7798 H   0  0  0  0  0  0  0  0  0  0  0  0
   60.7651   32.2511   48.7431 H   0  0  0  0  0  0  0  0  0  0  0  0
   59.8356   31.2077   47.6148 H   0  0  0  0  0  0  0  0  0  0  0  0
   62.2450   30.4847   47.9946 H   0  0  0  0  0  0  0  0  0  0  0  0
   61.8002   30.7862   46.2692 H   0  0  0  0  0  0  0  0  0  0  0  0
   64.0300   31.8740   47.1530 H   0  0  0  0  0  0  0  0  0  0  0  0
   61.3090   34.7941   47.6631 H   0  0  0  0  0  0  0  0  0  0  0  0
   61.2481   34.7286   45.8574 H   0  0  0  0  0  0  0  0  0  0  0  0
   57.6569   31.0392   46.6744 H   0  0  0  0  0  0  0  0  0  0  0  0
  1  2  1  0
  2  3  1  0
  3  4  2  0
  4  5  1  0
  5  6  2  3
  6  7  1  0
  7  8  2  0
  7  9  1  0
  9 10  2  0
 10 11  1  0
 11 12  2  0
 12 13  1  0
 13 14  1  0
 14 15  2  0
 14 16  1  0
 16 17  1  0
 17 18  1  0
 18 19  1  0
 19 20  1  0
 20 21  2  0
 20 22  1  0
 13 23  2  0
  5 24  1  0
 24  2  1  0
 23  9  1  0
 22 16  1  0
  1 25  1  0
  1 26  1  0
  1 27  1  0
  3 28  1  0
  4 29  1  0
 10 30  1  0
 11 31  1  0
 12 32  1  0
 17 33  1  0
 17 34  1  0
 18 35  1  0
 18 36  1  0
 19 37  1  0
 22 38  1  0
 22 39  1  0
 23 40  1  0
M  CHG  1  24  -1
M  END
>  <UniqueID>  (72) 
65

>  <SMILES>  (72) 
Cn1ccc(=NC(=O)c2cccc(C(=O)N3CCNC(=O)C3)c2)[n-]1

>  <Energy>  (72) 
81.4351062759586

>  <Genealogy>  (72) 
Cn1ccc(=NC(=O)c2cccc(C(=O)N3CCNC(=O)C3)c2)[n-]1 (protonated)
Cn1ccc(=NC(=O)c2cccc(C(=O)N3CCNC(=O)C3)c2)[n-]1 (3D coordinates assigned)
Cn1ccc(=NC(=O)c2cccc(C(=O)N3CCNC(=O)C3)c2)[n-]1 (nonaromatic ring conformer: 81.4351062759586 kcal/mol)

>  <smiles>  (72) 
Cn1ccc(=NC(=O)c2cccc(C(=O)N3CCNC(=O)C3)c2)[nH]1

>  <score_type>  (72) 
oracle

>  <origin>  (72) 
adg

>  <m_score__min__energy>  (72) 
-10.220000000000001

>  <m_primary>  (72) 
energy

$$$$
72:0
     RDKit          3D

 42 44  0  0  0  0  0  0  0  0999 V2000
   59.6210   34.0060   46.1950 C   0  0  0  0  0  0  0  0  0  0  0  0
   58.8390   33.3820   47.3480 C   0  0  0  0  0  0  0  0  0  0  0  0
   59.1510   31.9950   47.4900 O   0  0  0  0  0  0  0  0  0  0  0  0
   58.7340   30.9290   46.6650 C   0  0  0  0  0  0  0  0  0  0  0  0
   57.7480   31.0470   45.6590 C   0  0  0  0  0  0  0  0  0  0  0  0
   57.1700   32.2860   45.4010 O   0  0  0  0  0  0  0  0  0  0  0  0
   57.3690   29.9550   44.9140 N   0  0  0  0  0  0  0  0  0  0  0  0
   56.3030   30.1510   43.8920 C   0  0  0  0  0  0  0  0  0  0  0  0
   56.4230   29.3380   42.6090 C   0  0  0  0  0  0  0  0  0  0  0  0
   56.7050   30.8390   42.5940 C   0  0  0  0  0  0  0  0  0  0  0  0
   57.9760   28.7410   45.1290 C   0  0  0  0  0  0  0  0  0  0  0  0
   58.9820   28.5770   46.0950 C   0  0  0  0  0  0  0  0  0  0  0  0
   59.6130   27.2380   46.2780 C   0  0  0  0  0  0  0  0  0  0  0  0
   60.8510   27.0940   46.0800 O   0  0  0  0  0  0  0  0  0  0  0  0
   58.8310   26.1050   46.6700 N   0  0  0  0  0  0  0  0  0  0  0  0
   57.4260   26.2010   47.0410 C   0  0  0  0  0  0  0  0  0  0  0  0
   56.6390   25.1660   46.2850 C   0  0  0  0  0  0  0  0  0  0  0  0
   57.1760   23.8820   46.0900 C   0  0  0  0  0  0  0  0  0  0  0  0
   56.4400   22.9040   45.4140 C   0  0  0  0  0  0  0  0  0  0  0  0
   55.1600   23.1960   44.9380 C   0  0  0  0  0  0  0  0  0  0  0  0
   54.6100   24.4640   45.1400 C   0  0  0  0  0  0  0  0  0  0  0  0
   55.3410   25.4490   45.8160 C   0  0  0  0  0  0  0  0  0  0  0  0
   54.7700   26.7010   46.0190 O   0  0  0  0  0  0  0  0  0  0  0  0
   59.3570   29.6940   46.8610 C   0  0  0  0  0  0  0  0  0  0  0  0
   60.2590   29.6010   47.7380 O   0  0  0  0  0  0  0  0  0  0  0  0
   60.4211   34.6445   46.5977 H   0  0  0  0  0  0  0  0  0  0  0  0
   60.0629   33.2096   45.5782 H   0  0  0  0  0  0  0  0  0  0  0  0
   58.9425   34.6136   45.5782 H   0  0  0  0  0  0  0  0  0  0  0  0
   59.0956   33.9053   48.2809 H   0  0  0  0  0  0  0  0  0  0  0  0
   57.7644   33.4782   47.1338 H   0  0  0  0  0  0  0  0  0  0  0  0
   55.5149   30.3099   44.6428 H   0  0  0  0  0  0  0  0  0  0  0  0
   57.2488   28.6217   42.4866 H   0  0  0  0  0  0  0  0  0  0  0  0
   55.7571   28.6654   42.0485 H   0  0  0  0  0  0  0  0  0  0  0  0
   57.7340   31.2042   42.4607 H   0  0  0  0  0  0  0  0  0  0  0  0
   56.3264   31.6962   42.0180 H   0  0  0  0  0  0  0  0  0  0  0  0
   57.6653   27.8738   44.5278 H   0  0  0  0  0  0  0  0  0  0  0  0
   57.3189   26.0266   48.1218 H   0  0  0  0  0  0  0  0  0  0  0  0
   57.0478   27.2039   46.7936 H   0  0  0  0  0  0  0  0  0  0  0  0
   58.1803   23.6452   46.4711 H   0  0  0  0  0  0  0  0  0  0  0  0
   56.8696   21.9036   45.2570 H   0  0  0  0  0  0  0  0  0  0  0  0
   54.5841   22.4264   44.4032 H   0  0  0  0  0  0  0  0  0  0  0  0
   53.6000   24.6895   44.7671 H   0  0  0  0  0  0  0  0  0  0  0  0
  1  2  1  0
  2  3  1  0
  3  4  1  0
  4  5  2  0
  5  6  1  0
  5  7  1  0
  7  8  1  0
  8  9  1  0
  9 10  1  0
  7 11  1  0
 11 12  2  0
 12 13  1  0
 13 14  2  0
 13 15  1  0
 15 16  1  0
 16 17  1  0
 17 18  2  0
 18 19  1  0
 19 20  2  0
 20 21  1  0
 21 22  2  0
 22 23  1  0
 12 24  1  0
 24 25  2  0
 24  4  1  0
 10  8  1  0
 22 17  1  0
  1 26  1  0
  1 27  1  0
  1 28  1  0
  2 29  1  0
  2 30  1  0
  8 31  1  0
  9 32  1  0
  9 33  1  0
 10 34  1  0
 10 35  1  0
 11 36  1  0
 16 37  1  0
 16 38  1  0
 18 39  1  0
 19 40  1  0
 20 41  1  0
 21 42  1  0
M  CHG  3   6  -1  15  -1  23  -1
M  END
>  <UniqueID>  (73) 
66

>  <SMILES>  (73) 
CCOc1c([O-])n(C2CC2)cc(C(=O)[N-]Cc2ccccc2[O-])c1=O

>  <Energy>  (73) 
320.9886151850855

>  <Genealogy>  (73) 
CCOc1c([O-])n(C2CC2)cc(C(=O)[N-]Cc2ccccc2[O-])c1=O (protonated)
CCOc1c([O-])n(C2CC2)cc(C(=O)[N-]Cc2ccccc2[O-])c1=O (3D coordinates assigned)
CCOc1c([O-])n(C2CC2)cc(C(=O)[N-]Cc2ccccc2[O-])c1=O (nonaromatic ring conformer: 320.9886151850855 kcal/mol)

>  <smiles>  (73) 
CCOc1c(O)n(C2CC2)cc(C(=O)NCc2ccccc2O)c1=O

>  <score_type>  (73) 
oracle

>  <origin>  (73) 
adg

>  <m_score__min__energy>  (73) 
-12.99

>  <m_primary>  (73) 
energy

$$$$
73:0
     RDKit          3D

 50 53  0  0  0  0  0  0  0  0999 V2000
   56.5620   22.8020   44.8980 C   0  0  0  0  0  0  0  0  0  0  0  0
   56.4450   23.5770   46.4930 S   0  0  0  0  0  0  0  0  0  0  0  0
   54.9930   23.8010   46.8110 O   0  0  0  0  0  0  0  0  0  0  0  0
   57.0610   22.6830   47.5300 O   0  0  0  0  0  0  0  0  0  0  0  0
   57.2860   25.0940   46.4400 N   0  0  0  0  0  0  0  0  0  0  0  0
   56.6620   26.3730   46.2720 C   0  0  0  0  0  0  0  0  0  0  0  0
   55.4310   26.4160   46.0150 O   0  0  0  0  0  0  0  0  0  0  0  0
   57.4130   27.6390   46.3930 C   0  0  0  0  0  0  0  0  0  0  0  0
   57.3900   28.5700   45.3430 C   0  0  0  0  0  0  0  0  0  0  0  0
   58.1070   29.7660   45.4430 C   0  0  0  0  0  0  0  0  0  0  0  0
   58.8740   30.0390   46.5870 C   0  0  0  0  0  0  0  0  0  0  0  0
   59.6210   31.3130   46.7000 C   0  0  0  0  0  0  0  0  0  0  0  0
   60.8250   31.3110   47.2990 C   0  0  0  0  0  0  0  0  0  0  0  0
   61.6320   32.5830   47.5000 C   0  0  0  0  0  0  0  0  0  0  0  0
   63.1440   32.2820   47.3190 C   0  0  0  0  0  0  0  0  0  0  0  0
   63.8210   31.9640   48.6590 C   0  0  0  0  0  0  0  0  0  0  0  0
   63.7360   33.0960   49.6090 N   0  0  0  0  0  0  0  0  0  0  0  0
   62.5270   33.9370   49.4600 C   0  0  0  0  0  0  0  0  0  0  0  0
   61.3340   33.1400   48.9170 C   0  0  0  0  0  0  0  0  0  0  0  0
   61.2640   33.5740   46.5300 O   0  0  0  0  0  0  0  0  0  0  0  0
   59.9720   33.6710   46.0070 C   0  0  0  0  0  0  0  0  0  0  0  0
   59.5560   34.8540   45.3900 C   0  0  0  0  0  0  0  0  0  0  0  0
   58.2510   34.9640   44.9020 C   0  0  0  0  0  0  0  0  0  0  0  0
   57.3630   33.8930   45.0310 C   0  0  0  0  0  0  0  0  0  0  0  0
   57.7820   32.7020   45.6310 C   0  0  0  0  0  0  0  0  0  0  0  0
   59.1020   32.5740   46.1050 C   0  0  0  0  0  0  0  0  0  0  0  0
   58.9080   29.1010   47.6310 C   0  0  0  0  0  0  0  0  0  0  0  0
   58.1920   27.9060   47.5290 C   0  0  0  0  0  0  0  0  0  0  0  0
   56.7251   21.7217   45.0263 H   0  0  0  0  0  0  0  0  0  0  0  0
   55.6286   22.9682   44.3402 H   0  0  0  0  0  0  0  0  0  0  0  0
   57.4047   23.2364   44.3402 H   0  0  0  0  0  0  0  0  0  0  0  0
   56.8046   28.3575   44.4363 H   0  0  0  0  0  0  0  0  0  0  0  0
   58.0701   30.4967   44.6215 H   0  0  0  0  0  0  0  0  0  0  0  0
   61.2397   30.3566   47.6555 H   0  0  0  0  0  0  0  0  0  0  0  0
   63.2582   31.4182   46.6475 H   0  0  0  0  0  0  0  0  0  0  0  0
   63.6244   33.1758   46.8944 H   0  0  0  0  0  0  0  0  0  0  0  0
   63.3282   31.0881   49.1062 H   0  0  0  0  0  0  0  0  0  0  0  0
   64.8851   31.7665   48.4622 H   0  0  0  0  0  0  0  0  0  0  0  0
   63.7650   32.7130   50.5820 H   0  0  0  0  0  0  0  0  0  0  0  0
   64.5790   33.7050   49.4870 H   0  0  0  0  0  0  0  0  0  0  0  0
   62.2592   34.3508   50.4434 H   0  0  0  0  0  0  0  0  0  0  0  0
   62.7566   34.7364   48.7401 H   0  0  0  0  0  0  0  0  0  0  0  0
   61.1240   32.3005   49.5960 H   0  0  0  0  0  0  0  0  0  0  0  0
   60.4655   33.8120   48.8524 H   0  0  0  0  0  0  0  0  0  0  0  0
   60.2548   35.6974   45.2886 H   0  0  0  0  0  0  0  0  0  0  0  0
   57.9227   35.8946   44.4159 H   0  0  0  0  0  0  0  0  0  0  0  0
   56.3319   33.9872   44.6596 H   0  0  0  0  0  0  0  0  0  0  0  0
   57.0787   31.8624   45.7332 H   0  0  0  0  0  0  0  0  0  0  0  0
   59.5014   29.3081   48.5338 H   0  0  0  0  0  0  0  0  0  0  0  0
   58.2392   27.1694   48.3446 H   0  0  0  0  0  0  0  0  0  0  0  0
  1  2  1  0
  2  3  2  0
  2  4  2  0
  2  5  1  0
  5  6  1  0
  6  7  2  0
  6  8  1  0
  8  9  2  0
  9 10  1  0
 10 11  2  0
 11 12  1  0
 12 13  2  0
 13 14  1  0
 14 15  1  0
 15 16  1  0
 16 17  1  0
 17 18  1  0
 18 19  1  0
 14 20  1  0
 20 21  1  0
 21 22  2  0
 22 23  1  0
 23 24  2  0
 24 25  1  0
 25 26  2  0
 11 27  1  0
 27 28  2  0
 28  8  1  0
 26 12  1  0
 19 14  1  0
 26 21  1  0
  1 29  1  0
  1 30  1  0
  1 31  1  0
  9 32  1  0
 10 33  1  0
 13 34  1  0
 15 35  1  0
 15 36  1  0
 16 37  1  0
 16 38  1  0
 17 39  1  0
 17 40  1  0
 18 41  1  0
 18 42  1  0
 19 43  1  0
 19 44  1  0
 22 45  1  0
 23 46  1  0
 24 47  1  0
 25 48  1  0
 27 49  1  0
 28 50  1  0
M  CHG  2   5  -1  17   1
M  END
>  <UniqueID>  (74) 
67

>  <SMILES>  (74) 
CS(=O)(=O)[N-]C(=O)c1ccc(C2=CC3(CC[NH2+]CC3)Oc3ccccc32)cc1

>  <Energy>  (74) 
73.00501552136089

>  <Genealogy>  (74) 
CS(=O)(=O)[N-]C(=O)c1ccc(C2=CC3(CC[NH2+]CC3)Oc3ccccc32)cc1 (protonated)
CS(=O)(=O)[N-]C(=O)c1ccc(C2=CC3(CC[NH2+]CC3)Oc3ccccc32)cc1 (3D coordinates assigned)
CS(=O)(=O)[N-]C(=O)c1ccc(C2=CC3(CC[NH2+]CC3)Oc3ccccc32)cc1 (nonaromatic ring conformer: 73.00501552136089 kcal/mol)

>  <smiles>  (74) 
CS(=O)(=O)NC(=O)c1ccc(C2=CC3(CCNCC3)Oc3ccccc32)cc1

>  <score_type>  (74) 
oracle

>  <origin>  (74) 
adg

>  <m_score__min__energy>  (74) 
-9.9299999999999997

>  <m_primary>  (74) 
energy

$$$$
74:0
     RDKit          3D

 73 77  0  0  0  0  0  0  0  0999 V2000
   57.5980   22.8910   47.0310 O   0  0  0  0  0  0  0  0  0  0  0  0
   57.1490   23.9040   46.4310 C   0  0  0  0  0  0  0  0  0  0  0  0
   58.0770   24.8070   45.8180 N   0  0  0  0  0  0  0  0  0  0  0  0
   57.7590   26.1060   45.2980 C   0  0  0  0  0  0  0  0  0  0  0  0
   58.1360   26.4920   44.0010 C   0  0  0  0  0  0  0  0  0  0  0  0
   57.8300   27.7730   43.5320 C   0  0  0  0  0  0  0  0  0  0  0  0
   57.1240   28.6730   44.3440 C   0  0  0  0  0  0  0  0  0  0  0  0
   56.7790   30.3070   43.7750 S   0  0  0  0  0  0  0  0  0  0  0  0
   55.5670   30.8310   44.4960 O   0  0  0  0  0  0  0  0  0  0  0  0
   56.4650   30.2710   42.3060 O   0  0  0  0  0  0  0  0  0  0  0  0
   58.1400   31.3780   44.0270 N   0  0  0  0  0  0  0  0  0  0  0  0
   57.7570   32.8080   44.0630 C   0  0  0  0  0  0  0  0  0  0  0  0
   58.4830   33.6190   45.1290 C   0  0  0  0  0  0  0  0  0  0  0  0
   58.4300   32.8650   46.4440 C   0  0  0  0  0  0  0  0  0  0  0  0
   59.2960   31.6110   46.3370 C   0  0  1  0  0  0  0  0  0  0  0  0
   59.0930   30.7420   47.5510 C   0  0  0  0  0  0  0  0  0  0  0  0
   58.1640   29.8930   47.5850 O   0  0  0  0  0  0  0  0  0  0  0  0
   59.8870   30.9860   48.7170 N   0  0  0  0  0  0  0  0  0  0  0  0
   59.4760   31.7050   49.8910 C   0  0  0  0  0  0  0  0  0  0  0  0
   58.8990   31.0380   50.9870 C   0  0  0  0  0  0  0  0  0  0  0  0
   58.4960   31.7540   52.1170 C   0  0  0  0  0  0  0  0  0  0  0  0
   58.6440   33.1400   52.1570 C   0  0  0  0  0  0  0  0  0  0  0  0
   59.2290   33.8130   51.0830 C   0  0  0  0  0  0  0  0  0  0  0  0
   59.6790   33.1010   49.9590 C   0  0  0  0  0  0  0  0  0  0  0  0
   60.3260   33.8350   48.8500 C   0  0  0  0  0  0  0  0  0  0  0  0
   59.7760   34.8820   48.4110 O   0  0  0  0  0  0  0  0  0  0  0  0
   61.5750   33.3930   48.2850 N   0  0  0  0  0  0  0  0  0  0  0  0
   61.8170   33.5070   46.8430 C   0  0  0  0  0  0  0  0  0  0  0  0
   63.2940   33.8260   46.5910 C   0  0  0  0  0  0  0  0  0  0  0  0
   64.1300   32.9030   47.2640 O   0  0  0  0  0  0  0  0  0  0  0  0
   63.9720   33.0480   48.6630 C   0  0  0  0  0  0  0  0  0  0  0  0
   62.5550   32.6580   49.0930 C   0  0  0  0  0  0  0  0  0  0  0  0
   59.1440   30.8440   44.9850 C   0  0  0  0  0  0  0  0  0  0  0  0
   56.6860   28.2590   45.6080 C   0  0  0  0  0  0  0  0  0  0  0  0
   57.0010   26.9840   46.0820 C   0  0  0  0  0  0  0  0  0  0  0  0
   55.7310   24.1240   46.3380 N   0  0  0  0  0  0  0  0  0  0  0  0
   54.7640   23.3440   47.0550 C   0  0  0  0  0  0  0  0  0  0  0  0
   54.9800   22.9680   48.3930 C   0  0  0  0  0  0  0  0  0  0  0  0
   54.0400   22.1750   49.0600 C   0  0  0  0  0  0  0  0  0  0  0  0
   52.8860   21.7460   48.3970 C   0  0  0  0  0  0  0  0  0  0  0  0
   52.6730   22.1060   47.0630 C   0  0  0  0  0  0  0  0  0  0  0  0
   53.6120   22.8970   46.3910 C   0  0  0  0  0  0  0  0  0  0  0  0
   58.6735   25.7844   43.3526 H   0  0  0  0  0  0  0  0  0  0  0  0
   58.1441   28.0763   42.5224 H   0  0  0  0  0  0  0  0  0  0  0  0
   57.9799   33.2503   43.0808 H   0  0  0  0  0  0  0  0  0  0  0  0
   56.6860   32.8437   44.3114 H   0  0  0  0  0  0  0  0  0  0  0  0
   59.5314   33.7662   44.8302 H   0  0  0  0  0  0  0  0  0  0  0  0
   57.9992   34.6003   45.2433 H   0  0  0  0  0  0  0  0  0  0  0  0
   58.8100   33.5071   47.2523 H   0  0  0  0  0  0  0  0  0  0  0  0
   57.3910   32.5798   46.6658 H   0  0  0  0  0  0  0  0  0  0  0  0
   60.3468   31.9359   46.3237 H   0  0  0  0  0  0  0  0  0  0  0  0
   58.7644   29.9468   50.9541 H   0  0  0  0  0  0  0  0  0  0  0  0
   58.0611   31.2234   52.9768 H   0  0  0  0  0  0  0  0  0  0  0  0
   58.2992   33.7039   53.0363 H   0  0  0  0  0  0  0  0  0  0  0  0
   59.3382   34.9070   51.1171 H   0  0  0  0  0  0  0  0  0  0  0  0
   61.5594   32.5566   46.3527 H   0  0  0  0  0  0  0  0  0  0  0  0
   61.1944   34.3153   46.4319 H   0  0  0  0  0  0  0  0  0  0  0  0
   63.4950   33.7734   45.5108 H   0  0  0  0  0  0  0  0  0  0  0  0
   63.5062   34.8361   46.9715 H   0  0  0  0  0  0  0  0  0  0  0  0
   64.6964   32.3991   49.1770 H   0  0  0  0  0  0  0  0  0  0  0  0
   64.1445   34.1010   48.9303 H   0  0  0  0  0  0  0  0  0  0  0  0
   62.4127   31.5771   48.9470 H   0  0  0  0  0  0  0  0  0  0  0  0
   62.4138   32.9082   50.1548 H   0  0  0  0  0  0  0  0  0  0  0  0
   60.1229   30.8545   44.4833 H   0  0  0  0  0  0  0  0  0  0  0  0
   58.7806   29.8424   45.2585 H   0  0  0  0  0  0  0  0  0  0  0  0
   56.0903   28.9423   46.2311 H   0  0  0  0  0  0  0  0  0  0  0  0
   56.6520   26.6679   47.0761 H   0  0  0  0  0  0  0  0  0  0  0  0
   55.3800   24.9490   45.8030 H   0  0  0  0  0  0  0  0  0  0  0  0
   55.8897   23.2981   48.9160 H   0  0  0  0  0  0  0  0  0  0  0  0
   54.2091   21.8883   50.1084 H   0  0  0  0  0  0  0  0  0  0  0  0
   52.1464   21.1258   48.9246 H   0  0  0  0  0  0  0  0  0  0  0  0
   51.7661   21.7671   46.5408 H   0  0  0  0  0  0  0  0  0  0  0  0
   53.4460   23.1692   45.3382 H   0  0  0  0  0  0  0  0  0  0  0  0
  1  2  2  0
  2  3  1  0
  3  4  1  0
  4  5  2  0
  5  6  1  0
  6  7  2  0
  7  8  1  0
  8  9  2  0
  8 10  2  0
  8 11  1  0
 11 12  1  0
 12 13  1  0
 13 14  1  0
 14 15  1  0
 15 16  1  0
 16 17  2  0
 16 18  1  0
 18 19  1  0
 19 20  2  0
 20 21  1  0
 21 22  2  0
 22 23  1  0
 23 24  2  0
 24 25  1  0
 25 26  2  0
 25 27  1  0
 27 28  1  0
 28 29  1  0
 29 30  1  0
 30 31  1  0
 31 32  1  0
 15 33  1  0
  7 34  1  0
 34 35  2  0
  2 36  1  0
 36 37  1  0
 37 38  2  0
 38 39  1  0
 39 40  2  0
 40 41  1  0
 41 42  2  0
 35  4  1  0
 42 37  1  0
 33 11  1  0
 24 19  1  0
 32 27  1  0
  5 43  1  0
  6 44  1  0
 12 45  1  0
 12 46  1  0
 13 47  1  0
 13 48  1  0
 14 49  1  0
 14 50  1  0
 15 51  1  1
 20 52  1  0
 21 53  1  0
 22 54  1  0
 23 55  1  0
 28 56  1  0
 28 57  1  0
 29 58  1  0
 29 59  1  0
 31 60  1  0
 31 61  1  0
 32 62  1  0
 32 63  1  0
 33 64  1  0
 33 65  1  0
 34 66  1  0
 35 67  1  0
 36 68  1  0
 38 69  1  0
 39 70  1  0
 40 71  1  0
 41 72  1  0
 42 73  1  0
M  CHG  2   3  -1  18  -1
M  END
>  <UniqueID>  (75) 
68

>  <SMILES>  (75) 
O=C([N-]c1ccc(S(=O)(=O)N2CCC[C@@H](C(=O)[N-]c3ccccc3C(=O)N3CCOCC3)C2)cc1)Nc1ccccc1

>  <Energy>  (75) 
106.44447164149653

>  <Genealogy>  (75) 
O=C([N-]c1ccc(S(=O)(=O)N2CCCC(C(=O)[N-]c3ccccc3C(=O)N3CCOCC3)C2)cc1)Nc1ccccc1 (protonated)
O=C([N-]c1ccc(S(=O)(=O)N2CCC[C@@H](C(=O)[N-]c3ccccc3C(=O)N3CCOCC3)C2)cc1)Nc1ccccc1 (chirality)
O=C([N-]c1ccc(S(=O)(=O)N2CCC[C@@H](C(=O)[N-]c3ccccc3C(=O)N3CCOCC3)C2)cc1)Nc1ccccc1 (3D coordinates assigned)
O=C([N-]c1ccc(S(=O)(=O)N2CCC[C@@H](C(=O)[N-]c3ccccc3C(=O)N3CCOCC3)C2)cc1)Nc1ccccc1 (nonaromatic ring conformer: 106.44447164149653 kcal/mol)

>  <smiles>  (75) 
O=C(Nc1ccccc1)Nc1ccc(S(=O)(=O)N2CCCC(C(=O)Nc3ccccc3C(=O)N3CCOCC3)C2)cc1

>  <score_type>  (75) 
oracle

>  <origin>  (75) 
adg

>  <m_score__min__energy>  (75) 
-14.06

>  <m_primary>  (75) 
energy

$$$$
75:0
     RDKit          3D

 50 53  0  0  0  0  0  0  0  0999 V2000
   52.9410   23.5377   45.0832 H   0  0  0  0  0  0  0  0  0  0  0  0
   53.2770   24.5150   45.4600 C   0  0  0  0  0  0  0  0  0  0  0  0
   52.5385   25.2628   45.7846 H   0  0  0  0  0  0  0  0  0  0  0  0
   54.5740   24.7920   45.5230 C   0  0  0  0  0  0  0  0  0  0  0  0
   55.0590   25.9720   45.9750 N   0  0  0  0  0  0  0  0  0  0  0  0
   56.4200   26.0170   45.9490 C   0  0  0  0  0  0  0  0  0  0  0  0
   57.0670   27.1230   46.3560 C   0  0  0  0  0  0  0  0  0  0  0  0
   57.4516   27.1358   47.3865 H   0  0  0  0  0  0  0  0  0  0  0  0
   57.3010   28.3210   45.5270 C   0  0  0  0  0  0  0  0  0  0  0  0
   56.2230   28.9310   44.8740 C   0  0  0  0  0  0  0  0  0  0  0  0
   55.2161   28.4959   44.9571 H   0  0  0  0  0  0  0  0  0  0  0  0
   56.4190   30.0900   44.1170 C   0  0  0  0  0  0  0  0  0  0  0  0
   55.5686   30.5537   43.5956 H   0  0  0  0  0  0  0  0  0  0  0  0
   57.6990   30.6660   44.0190 C   0  0  0  0  0  0  0  0  0  0  0  0
   57.9560   31.8180   43.2570 O   0  0  0  0  0  0  0  0  0  0  0  0
   57.7550   33.1610   43.7010 C   0  0  0  0  0  0  0  0  0  0  0  0
   58.1571   33.8540   42.9473 H   0  0  0  0  0  0  0  0  0  0  0  0
   56.6767   33.3292   43.8390 H   0  0  0  0  0  0  0  0  0  0  0  0
   58.4530   33.4000   45.0140 C   0  0  0  0  0  0  0  0  0  0  0  0
   59.6120   34.1880   45.0750 C   0  0  0  0  0  0  0  0  0  0  0  0
   60.0127   34.6437   44.1575 H   0  0  0  0  0  0  0  0  0  0  0  0
   60.2600   34.3970   46.2950 C   0  0  0  0  0  0  0  0  0  0  0  0
   61.1661   35.0194   46.3335 H   0  0  0  0  0  0  0  0  0  0  0  0
   59.7610   33.8170   47.4720 C   0  0  0  0  0  0  0  0  0  0  0  0
   60.4490   34.0450   48.7570 C   0  0  0  0  0  0  0  0  0  0  0  0
   59.8280   34.6330   49.6840 O   0  0  0  0  0  0  0  0  0  0  0  0
   61.8100   33.6250   48.9690 N   0  0  0  0  0  0  0  0  0  0  0  0
   62.7910   33.4910   47.9030 C   0  0  0  0  0  0  0  0  0  0  0  0
   62.4882   32.7005   47.2005 H   0  0  0  0  0  0  0  0  0  0  0  0
   62.8880   34.4200   47.3219 H   0  0  0  0  0  0  0  0  0  0  0  0
   64.0980   33.1190   48.5890 C   0  0  0  0  0  0  0  0  0  0  0  0
   64.2993   32.0441   48.4704 H   0  0  0  0  0  0  0  0  0  0  0  0
   64.9501   33.6608   48.1527 H   0  0  0  0  0  0  0  0  0  0  0  0
   63.9130   33.4640   50.0640 C   0  0  0  0  0  0  0  0  0  0  0  0
   64.3535   32.6804   50.6980 H   0  0  0  0  0  0  0  0  0  0  0  0
   64.4108   34.4104   50.3219 H   0  0  0  0  0  0  0  0  0  0  0  0
   62.4080   33.5450   50.2910 C   0  0  0  0  0  0  0  0  0  0  0  0
   62.0517   32.6479   50.8185 H   0  0  0  0  0  0  0  0  0  0  0  0
   62.1389   34.4139   50.9095 H   0  0  0  0  0  0  0  0  0  0  0  0
   58.5790   33.0630   47.4170 C   0  0  0  0  0  0  0  0  0  0  0  0
   58.1611   32.6332   48.3393 H   0  0  0  0  0  0  0  0  0  0  0  0
   57.9300   32.8550   46.1980 C   0  0  0  0  0  0  0  0  0  0  0  0
   57.0045   32.2613   46.1651 H   0  0  0  0  0  0  0  0  0  0  0  0
   58.7660   30.0760   44.7070 C   0  0  0  0  0  0  0  0  0  0  0  0
   59.7671   30.5285   44.6521 H   0  0  0  0  0  0  0  0  0  0  0  0
   58.5700   28.9170   45.4630 C   0  0  0  0  0  0  0  0  0  0  0  0
   59.4134   28.4703   46.0099 H   0  0  0  0  0  0  0  0  0  0  0  0
   57.0030   24.8470   45.4430 C   0  0  0  0  0  0  0  0  0  0  0  0
   58.2320   24.6430   45.2570 O   0  0  0  0  0  0  0  0  0  0  0  0
   55.8010   23.7420   45.0500 S   0  0  0  0  0  0  0  0  0  0  0  0
  1  2  1  0
  2  3  1  0
  2  4  2  0
  4  5  1  0
  5  6  1  0
  6  7  2  0
  7  8  1  0
  7  9  1  0
  9 10  2  0
 10 11  1  0
 10 12  1  0
 12 13  1  0
 12 14  2  0
 14 15  1  0
 15 16  1  0
 16 17  1  0
 16 18  1  0
 16 19  1  0
 19 20  2  0
 20 21  1  0
 20 22  1  0
 22 23  1  0
 22 24  2  0
 24 25  1  0
 25 26  2  0
 25 27  1  0
 27 28  1  0
 28 29  1  0
 28 30  1  0
 28 31  1  0
 31 32  1  0
 31 33  1  0
 31 34  1  0
 34 35  1  0
 34 36  1  0
 34 37  1  0
 37 38  1  0
 37 39  1  0
 24 40  1  0
 40 41  1  0
 40 42  2  0
 42 43  1  0
 14 44  1  0
 44 45  1  0
 44 46  2  0
 46 47  1  0
  6 48  1  0
 48 49  2  0
 48 50  1  0
 50  4  1  0
 46  9  1  0
 42 19  1  0
 37 27  1  0
M  CHG  1   5  -1
M  END
>  <UniqueID>  (76) 
69

>  <SMILES>  (76) 
C=c1[n-]/c(=C/c2ccc(OCc3ccc(C(=O)N4CCCC4)cc3)cc2)c(=O)s1

>  <Energy>  (76) 
96.6602317326095

>  <Genealogy>  (76) 
C=c1[n-]c(=Cc2ccc(OCc3ccc(C(=O)N4CCCC4)cc3)cc2)c(=O)s1 (protonated)
C=c1[n-]/c(=C/c2ccc(OCc3ccc(C(=O)N4CCCC4)cc3)cc2)c(=O)s1 (cis-trans isomerization)
C=c1[n-]/c(=C/c2ccc(OCc3ccc(C(=O)N4CCCC4)cc3)cc2)c(=O)s1 (3D coordinates assigned)
C=c1[n-]/c(=C/c2ccc(OCc3ccc(C(=O)N4CCCC4)cc3)cc2)c(=O)s1 (nonaromatic ring conformer: 96.6602317326095 kcal/mol)

>  <smiles>  (76) 
C=c1[nH]c(=Cc2ccc(OCc3ccc(C(=O)N4CCCC4)cc3)cc2)c(=O)s1

>  <score_type>  (76) 
oracle

>  <origin>  (76) 
adg

>  <m_score__min__energy>  (76) 
-11.34

>  <m_primary>  (76) 
energy

$$$$
76:0
     RDKit          3D

 58 62  0  0  0  0  0  0  0  0999 V2000
   54.7370   26.1430   45.9900 N   0  0  0  0  0  0  0  0  0  0  0  0
   56.3210   25.4710   46.1380 S   0  0  0  0  0  0  0  0  0  0  0  0
   56.3840   24.1610   45.4070 O   0  0  0  0  0  0  0  0  0  0  0  0
   56.6260   25.2380   47.5870 O   0  0  0  0  0  0  0  0  0  0  0  0
   57.4970   26.5800   45.4410 C   0  0  0  0  0  0  0  0  0  0  0  0
   57.8000   26.5470   44.0710 C   0  0  0  0  0  0  0  0  0  0  0  0
   58.6990   27.4660   43.5300 C   0  0  0  0  0  0  0  0  0  0  0  0
   59.3100   28.4120   44.3560 C   0  0  0  0  0  0  0  0  0  0  0  0
   59.0410   28.4330   45.7350 C   0  0  0  0  0  0  0  0  0  0  0  0
   59.6070   29.4280   46.6030 N   0  0  0  0  0  0  0  0  0  0  0  0
   59.8100   29.3220   47.8830 C   0  0  0  0  0  0  0  0  0  0  0  0
   59.3560   30.3030   48.7040 N   0  0  0  0  0  0  0  0  0  0  0  0
   59.5210   30.2450   50.0540 C   0  0  0  0  0  0  0  0  0  0  0  0
   59.0070   31.3490   50.9080 C   0  0  0  0  0  0  0  0  0  0  0  0
   58.0650   31.0730   51.9150 C   0  0  0  0  0  0  0  0  0  0  0  0
   57.5660   32.0970   52.7180 C   0  0  0  0  0  0  0  0  0  0  0  0
   58.0080   33.4030   52.5170 C   0  0  0  0  0  0  0  0  0  0  0  0
   58.9150   33.6680   51.5420 N   0  0  0  0  0  0  0  0  0  0  0  0
   59.4200   32.6960   50.7340 C   0  0  0  0  0  0  0  0  0  0  0  0
   60.4260   33.0880   49.7330 C   0  0  0  0  0  0  0  0  0  0  0  0
   61.7560   33.2880   50.1180 C   0  0  0  0  0  0  0  0  0  0  0  0
   62.7060   33.6790   49.1730 C   0  0  0  0  0  0  0  0  0  0  0  0
   62.3360   33.8650   47.8410 C   0  0  0  0  0  0  0  0  0  0  0  0
   61.0060   33.6410   47.4370 C   0  0  0  0  0  0  0  0  0  0  0  0
   60.5870   33.7600   46.0730 N   0  0  0  0  0  0  0  0  0  0  0  0
   59.0080   34.2160   45.5310 S   0  0  0  0  0  0  0  0  0  0  0  0
   59.1280   35.3970   44.6030 O   0  0  0  0  0  0  0  0  0  0  0  0
   58.1800   34.6190   46.7220 O   0  0  0  0  0  0  0  0  0  0  0  0
   58.2110   32.8690   44.7220 C   0  0  0  0  0  0  0  0  0  0  0  0
   58.1510   32.8330   43.3200 C   0  0  0  0  0  0  0  0  0  0  0  0
   57.5210   31.7660   42.6720 C   0  0  0  0  0  0  0  0  0  0  0  0
   56.9440   30.7340   43.4230 C   0  0  0  0  0  0  0  0  0  0  0  0
   57.0020   30.7660   44.8200 C   0  0  0  0  0  0  0  0  0  0  0  0
   57.6340   31.8300   45.4720 C   0  0  0  0  0  0  0  0  0  0  0  0
   60.0530   33.2710   48.3940 C   0  0  0  0  0  0  0  0  0  0  0  0
   60.1600   29.1290   50.6090 C   0  0  0  0  0  0  0  0  0  0  0  0
   60.6080   28.1200   49.7560 C   0  0  0  0  0  0  0  0  0  0  0  0
   60.4250   28.2320   48.4160 N   0  0  0  0  0  0  0  0  0  0  0  0
   58.1170   27.5300   46.2620 C   0  0  0  0  0  0  0  0  0  0  0  0
   54.7450   27.0700   46.4790 H   0  0  0  0  0  0  0  0  0  0  0  0
   57.3274   25.7947   43.4224 H   0  0  0  0  0  0  0  0  0  0  0  0
   58.9265   27.4457   42.4540 H   0  0  0  0  0  0  0  0  0  0  0  0
   60.0066   29.1457   43.9241 H   0  0  0  0  0  0  0  0  0  0  0  0
   57.7191   30.0404   52.0702 H   0  0  0  0  0  0  0  0  0  0  0  0
   56.8291   31.8759   53.5042 H   0  0  0  0  0  0  0  0  0  0  0  0
   57.6227   34.2181   53.1472 H   0  0  0  0  0  0  0  0  0  0  0  0
   62.0534   33.1370   51.1662 H   0  0  0  0  0  0  0  0  0  0  0  0
   63.7499   33.8410   49.4797 H   0  0  0  0  0  0  0  0  0  0  0  0
   63.0859   34.1878   47.1038 H   0  0  0  0  0  0  0  0  0  0  0  0
   58.6003   33.6455   42.7301 H   0  0  0  0  0  0  0  0  0  0  0  0
   57.4786   31.7371   41.5732 H   0  0  0  0  0  0  0  0  0  0  0  0
   56.4444   29.8970   42.9132 H   0  0  0  0  0  0  0  0  0  0  0  0
   56.5498   29.9530   45.4071 H   0  0  0  0  0  0  0  0  0  0  0  0
   57.6793   31.8534   46.5708 H   0  0  0  0  0  0  0  0  0  0  0  0
   59.0053   33.1230   48.0933 H   0  0  0  0  0  0  0  0  0  0  0  0
   60.3058   29.0496   51.6964 H   0  0  0  0  0  0  0  0  0  0  0  0
   61.1099   27.2330   50.1699 H   0  0  0  0  0  0  0  0  0  0  0  0
   57.8729   27.5647   47.3340 H   0  0  0  0  0  0  0  0  0  0  0  0
  1  2  1  0
  2  3  2  0
  2  4  2  0
  2  5  1  0
  5  6  2  0
  6  7  1  0
  7  8  2  0
  8  9  1  0
  9 10  1  0
 10 11  2  3
 11 12  1  0
 12 13  2  0
 13 14  1  0
 14 15  2  0
 15 16  1  0
 16 17  2  0
 17 18  1  0
 18 19  2  0
 19 20  1  0
 20 21  2  0
 21 22  1  0
 22 23  2  0
 23 24  1  0
 24 25  1  0
 25 26  1  0
 26 27  2  0
 26 28  2  0
 26 29  1  0
 29 30  2  0
 30 31  1  0
 31 32  2  0
 32 33  1  0
 33 34  2  0
 24 35  2  0
 13 36  1  0
 36 37  2  0
 37 38  1  0
  9 39  2  0
 39  5  1  0
 38 11  1  0
 19 14  1  0
 35 20  1  0
 34 29  1  0
  1 40  1  0
  6 41  1  0
  7 42  1  0
  8 43  1  0
 15 44  1  0
 16 45  1  0
 17 46  1  0
 21 47  1  0
 22 48  1  0
 23 49  1  0
 30 50  1  0
 31 51  1  0
 32 52  1  0
 33 53  1  0
 34 54  1  0
 35 55  1  0
 36 56  1  0
 37 57  1  0
 39 58  1  0
M  CHG  3   1  -1  25  -1  38  -1
M  END
>  <UniqueID>  (77) 
70

>  <SMILES>  (77) 
[NH-]S(=O)(=O)c1cccc(N=c2nc(-c3cccnc3-c3cccc([N-]S(=O)(=O)c4ccccc4)c3)cc[n-]2)c1

>  <Energy>  (77) 
85.82572268879154

>  <Genealogy>  (77) 
[NH-]S(=O)(=O)c1cccc(N=c2nc(-c3cccnc3-c3cccc([N-]S(=O)(=O)c4ccccc4)c3)cc[n-]2)c1 (protonated)
[NH-]S(=O)(=O)c1cccc(N=c2nc(-c3cccnc3-c3cccc([N-]S(=O)(=O)c4ccccc4)c3)cc[n-]2)c1 (3D coordinates assigned)
[NH-]S(=O)(=O)c1cccc(N=c2nc(-c3cccnc3-c3cccc([N-]S(=O)(=O)c4ccccc4)c3)cc[n-]2)c1 (optimized conformer: 85.82572268879154 kcal/mol)

>  <smiles>  (77) 
NS(=O)(=O)c1cccc(N=c2nc(-c3cccnc3-c3cccc(NS(=O)(=O)c4ccccc4)c3)cc[nH]2)c1

>  <score_type>  (77) 
oracle

>  <origin>  (77) 
adg

>  <m_score__min__energy>  (77) 
-16.829999999999998

>  <m_primary>  (77) 
energy

$$$$
77:0
     RDKit          3D

 76 80  0  0  0  0  0  0  0  0999 V2000
   55.5240   26.6010   46.2840 C   0  0  0  0  0  0  0  0  0  0  0  0
   56.5800   27.1490   45.6520 C   0  0  0  0  0  0  0  0  0  0  0  0
   56.4260   28.4270   45.0690 C   0  0  0  0  0  0  0  0  0  0  0  0
   55.1470   28.9450   44.8710 O   0  0  0  0  0  0  0  0  0  0  0  0
   57.5490   29.2080   44.7270 C   0  0  0  0  0  0  0  0  0  0  0  0
   57.3330   30.6160   44.1840 C   0  0  0  0  0  0  0  0  0  0  0  0
   57.5910   31.6540   45.2460 C   0  0  0  0  0  0  0  0  0  0  0  0
   57.2020   32.9930   45.0550 C   0  0  0  0  0  0  0  0  0  0  0  0
   57.5050   33.9590   46.0210 C   0  0  0  0  0  0  0  0  0  0  0  0
   58.2050   33.6010   47.1760 C   0  0  0  0  0  0  0  0  0  0  0  0
   58.5930   32.2670   47.3810 C   0  0  0  0  0  0  0  0  0  0  0  0
   59.4300   31.8980   48.5370 C   0  0  0  0  0  0  0  0  0  0  0  0
   59.0060   32.1290   49.7030 O   0  0  0  0  0  0  0  0  0  0  0  0
   60.7390   31.3260   48.3430 N   0  0  0  0  0  0  0  0  0  0  0  0
   61.5180   31.6620   47.1340 C   0  0  0  0  0  0  0  0  0  0  0  0
   63.0240   31.5410   47.3880 C   0  0  0  0  0  0  0  0  0  0  0  0
   63.3270   31.9850   48.7540 N   0  0  0  0  0  0  0  0  0  0  0  0
   64.0730   33.1980   48.9750 C   0  0  0  0  0  0  0  0  0  0  0  0
   63.9630   34.1730   48.1780 O   0  0  0  0  0  0  0  0  0  0  0  0
   64.8960   33.3310   50.1380 N   0  0  0  0  0  0  0  0  0  0  0  0
   66.2350   32.7330   50.1410 C   0  0  0  0  0  0  0  0  0  0  0  0
   66.8450   32.7720   51.5500 C   0  0  0  0  0  0  0  0  0  0  0  0
   66.7760   34.1170   52.1730 N   0  0  0  0  0  0  0  0  0  0  0  0
   67.9540   34.9310   51.8260 C   0  0  0  0  0  0  0  0  0  0  0  0
   65.5180   34.8730   51.9220 C   0  0  0  0  0  0  0  0  0  0  0  0
   64.3960   34.0130   51.3290 C   0  0  0  0  0  0  0  0  0  0  0  0
   62.6450   31.3460   49.8870 C   0  0  0  0  0  0  0  0  0  0  0  0
   61.3960   30.5780   49.4220 C   0  0  0  0  0  0  0  0  0  0  0  0
   58.2440   31.2970   46.4330 C   0  0  0  0  0  0  0  0  0  0  0  0
   58.8440   28.7050   45.0010 C   0  0  0  0  0  0  0  0  0  0  0  0
   60.1010   29.5340   44.8410 C   0  0  0  0  0  0  0  0  0  0  0  0
   61.3450   28.6470   44.8550 C   0  0  0  0  0  0  0  0  0  0  0  0
   58.9870   27.3930   45.4670 C   0  0  0  0  0  0  0  0  0  0  0  0
   57.8780   26.5570   45.6890 C   0  0  0  0  0  0  0  0  0  0  0  0
   58.1280   25.2380   45.8900 C   0  0  0  0  0  0  0  0  0  0  0  0
   57.3530   24.1110   45.3190 C   0  0  0  0  0  0  0  0  0  0  0  0
   56.9300   24.0190   44.0450 N   0  0  0  0  0  0  0  0  0  0  0  0
   56.3490   22.7980   43.9930 C   0  0  0  0  0  0  0  0  0  0  0  0
   55.7950   22.3580   42.9540 O   0  0  0  0  0  0  0  0  0  0  0  0
   56.4010   22.0960   45.1450 N   0  0  0  0  0  0  0  0  0  0  0  0
   57.0490   22.9370   45.9710 C   0  0  0  0  0  0  0  0  0  0  0  0
   57.3770   22.6230   47.2830 O   0  0  0  0  0  0  0  0  0  0  0  0
   55.6151   25.6074   46.7470 H   0  0  0  0  0  0  0  0  0  0  0  0
   54.5706   27.1472   46.3370 H   0  0  0  0  0  0  0  0  0  0  0  0
   58.0202   30.7854   43.3419 H   0  0  0  0  0  0  0  0  0  0  0  0
   56.2873   30.7063   43.8547 H   0  0  0  0  0  0  0  0  0  0  0  0
   56.6580   33.2811   44.1434 H   0  0  0  0  0  0  0  0  0  0  0  0
   57.1914   35.0026   45.8707 H   0  0  0  0  0  0  0  0  0  0  0  0
   58.4528   34.3660   47.9266 H   0  0  0  0  0  0  0  0  0  0  0  0
   61.2353   30.9742   46.3235 H   0  0  0  0  0  0  0  0  0  0  0  0
   61.2961   32.7033   46.8574 H   0  0  0  0  0  0  0  0  0  0  0  0
   63.3333   30.4924   47.2662 H   0  0  0  0  0  0  0  0  0  0  0  0
   63.5689   32.1700   46.6686 H   0  0  0  0  0  0  0  0  0  0  0  0
   66.1640   31.6872   49.8073 H   0  0  0  0  0  0  0  0  0  0  0  0
   66.8802   33.3082   49.4607 H   0  0  0  0  0  0  0  0  0  0  0  0
   66.2995   32.0613   52.1882 H   0  0  0  0  0  0  0  0  0  0  0  0
   67.9083   32.5061   51.4564 H   0  0  0  0  0  0  0  0  0  0  0  0
   68.4481   35.2724   52.7476 H   0  0  0  0  0  0  0  0  0  0  0  0
   68.6573   34.3253   51.2357 H   0  0  0  0  0  0  0  0  0  0  0  0
   67.6361   35.8031   51.2357 H   0  0  0  0  0  0  0  0  0  0  0  0
   65.1676   35.2927   52.8765 H   0  0  0  0  0  0  0  0  0  0  0  0
   65.7517   35.6542   51.1837 H   0  0  0  0  0  0  0  0  0  0  0  0
   64.0711   33.2686   52.0708 H   0  0  0  0  0  0  0  0  0  0  0  0
   63.5421   34.6519   51.0595 H   0  0  0  0  0  0  0  0  0  0  0  0
   63.3379   30.6436   50.3733 H   0  0  0  0  0  0  0  0  0  0  0  0
   62.3301   32.1299   50.5916 H   0  0  0  0  0  0  0  0  0  0  0  0
   61.6918   29.5848   49.0531 H   0  0  0  0  0  0  0  0  0  0  0  0
   60.7001   30.4617   50.2659 H   0  0  0  0  0  0  0  0  0  0  0  0
   58.4858   30.2408   46.6229 H   0  0  0  0  0  0  0  0  0  0  0  0
   60.0558   30.0757   43.8847 H   0  0  0  0  0  0  0  0  0  0  0  0
   60.1645   30.2415   45.6809 H   0  0  0  0  0  0  0  0  0  0  0  0
   61.6358   28.4397   45.8954 H   0  0  0  0  0  0  0  0  0  0  0  0
   61.1260   27.7001   44.3398 H   0  0  0  0  0  0  0  0  0  0  0  0
   62.1688   29.1627   44.3398 H   0  0  0  0  0  0  0  0  0  0  0  0
   59.9967   27.0042   45.6655 H   0  0  0  0  0  0  0  0  0  0  0  0
   58.9822   24.9827   46.5343 H   0  0  0  0  0  0  0  0  0  0  0  0
  1  2  2  0
  2  3  1  0
  3  4  1  0
  3  5  2  0
  5  6  1  0
  6  7  1  0
  7  8  2  0
  8  9  1  0
  9 10  2  0
 10 11  1  0
 11 12  1  0
 12 13  2  0
 12 14  1  0
 14 15  1  0
 15 16  1  0
 16 17  1  0
 17 18  1  0
 18 19  2  0
 18 20  1  0
 20 21  1  0
 21 22  1  0
 22 23  1  0
 23 24  1  0
 23 25  1  0
 25 26  1  0
 17 27  1  0
 27 28  1  0
 11 29  2  0
  5 30  1  0
 30 31  1  0
 31 32  1  0
 30 33  2  0
 33 34  1  0
 34 35  2  3
 35 36  1  0
 36 37  1  0
 37 38  1  0
 38 39  2  0
 38 40  1  0
 40 41  1  0
 41 42  1  0
 34  2  1  0
 41 36  2  0
 29  7  1  0
 28 14  1  0
 26 20  1  0
  1 43  1  0
  1 44  1  0
  6 45  1  0
  6 46  1  0
  8 47  1  0
  9 48  1  0
 10 49  1  0
 15 50  1  0
 15 51  1  0
 16 52  1  0
 16 53  1  0
 21 54  1  0
 21 55  1  0
 22 56  1  0
 22 57  1  0
 24 58  1  0
 24 59  1  0
 24 60  1  0
 25 61  1  0
 25 62  1  0
 26 63  1  0
 26 64  1  0
 27 65  1  0
 27 66  1  0
 28 67  1  0
 28 68  1  0
 29 69  1  0
 31 70  1  0
 31 71  1  0
 32 72  1  0
 32 73  1  0
 32 74  1  0
 33 75  1  0
 35 76  1  0
M  CHG  4   4  -1  37  -1  40  -1  42  -1
M  END
>  <UniqueID>  (78) 
71

>  <SMILES>  (78) 
C=c1c([O-])c(Cc2cccc(C(=O)N3CCN(C(=O)N4CCN(C)CC4)CC3)c2)c(CC)cc1=Cc1[n-]c(=O)[n-]c1[O-]

>  <Energy>  (78) 
151.82881200855655

>  <Genealogy>  (78) 
C=c1c([O-])c(Cc2cccc(C(=O)N3CCN(C(=O)N4CCN(C)CC4)CC3)c2)c(CC)cc1=Cc1[n-]c(=O)[n-]c1[O-] (protonated)
C=c1c([O-])c(Cc2cccc(C(=O)N3CCN(C(=O)N4CCN(C)CC4)CC3)c2)c(CC)cc1=Cc1[n-]c(=O)[n-]c1[O-] (3D coordinates assigned)
C=c1c([O-])c(Cc2cccc(C(=O)N3CCN(C(=O)N4CCN(C)CC4)CC3)c2)c(CC)cc1=Cc1[n-]c(=O)[n-]c1[O-] (nonaromatic ring conformer: 151.82881200855655 kcal/mol)

>  <smiles>  (78) 
C=c1c(O)c(Cc2cccc(C(=O)N3CCN(C(=O)N4CCN(C)CC4)CC3)c2)c(CC)cc1=Cc1[nH]c(=O)[nH]c1O

>  <score_type>  (78) 
oracle

>  <origin>  (78) 
adg

>  <m_score__min__energy>  (78) 
-19.43

>  <m_primary>  (78) 
energy

$$$$
78:0
     RDKit          3D

 66 70  0  0  0  0  0  0  0  0999 V2000
   58.7630   28.5910   48.3830 C   0  0  0  0  0  0  0  0  0  0  0  0
   58.4870   28.1440   47.0020 N   0  0  1  0  0  0  0  0  0  0  0  0
   59.7270   28.0460   46.2480 C   0  0  0  0  0  0  0  0  0  0  0  0
   60.7730   27.7560   46.8110 O   0  0  0  0  0  0  0  0  0  0  0  0
   59.7580   28.3310   44.7670 C   0  0  0  0  0  0  0  0  0  0  0  0
   58.6470   29.2790   44.4050 C   0  0  0  0  0  0  0  0  0  0  0  0
   57.5640   28.8430   43.6270 C   0  0  0  0  0  0  0  0  0  0  0  0
   56.5750   29.7450   43.2290 C   0  0  0  0  0  0  0  0  0  0  0  0
   56.6570   31.0880   43.6060 C   0  0  0  0  0  0  0  0  0  0  0  0
   57.7190   31.5310   44.4130 C   0  0  0  0  0  0  0  0  0  0  0  0
   57.8560   32.9090   44.7820 N   0  0  0  0  0  0  0  0  0  0  0  0
   57.8000   33.4540   46.1090 C   0  0  0  0  0  0  0  0  0  0  0  0
   56.6820   33.8340   46.5470 O   0  0  0  0  0  0  0  0  0  0  0  0
   59.0330   33.5800   46.9870 C   0  0  0  0  0  0  0  0  0  0  0  0
   59.5870   32.2120   47.4600 C   0  0  0  0  0  0  0  0  0  0  0  0
   61.0550   32.3870   47.3940 C   0  0  0  0  0  0  0  0  0  0  0  0
   62.0300   31.5110   47.8780 C   0  0  0  0  0  0  0  0  0  0  0  0
   63.3830   31.8400   47.7000 C   0  0  0  0  0  0  0  0  0  0  0  0
   63.7390   33.0280   47.0350 C   0  0  0  0  0  0  0  0  0  0  0  0
   62.7430   33.8890   46.5470 C   0  0  0  0  0  0  0  0  0  0  0  0
   61.4030   33.5470   46.7460 C   0  0  0  0  0  0  0  0  0  0  0  0
   60.2150   34.3010   46.2850 C   0  0  0  0  0  0  0  0  0  0  0  0
   58.7210   30.6270   44.7870 C   0  0  0  0  0  0  0  0  0  0  0  0
   57.6910   26.8840   46.8930 C   0  0  2  0  0  0  0  0  0  0  0  0
   58.5910   25.6280   46.9020 C   0  0  0  0  0  0  0  0  0  0  0  0
   58.2630   24.8280   45.6470 C   0  0  0  0  0  0  0  0  0  0  0  0
   57.5380   25.7790   44.7150 C   0  0  0  0  0  0  0  0  0  0  0  0
   56.8120   26.7720   45.6210 C   0  0  1  0  0  0  0  0  0  0  0  0
   55.4910   26.2500   45.9860 N   0  0  0  0  0  0  0  0  0  0  0  0
   55.1630   24.9900   46.0050 C   0  0  0  0  0  0  0  0  0  0  0  0
   54.4430   24.4500   44.9330 C   0  0  0  0  0  0  0  0  0  0  0  0
   54.0850   23.1000   44.9590 C   0  0  0  0  0  0  0  0  0  0  0  0
   54.4470   22.3050   46.0480 C   0  0  0  0  0  0  0  0  0  0  0  0
   55.1690   22.8750   47.0990 C   0  0  0  0  0  0  0  0  0  0  0  0
   55.5090   24.1910   47.0550 N   0  0  0  0  0  0  0  0  0  0  0  0
   58.3222   27.8772   49.0944 H   0  0  0  0  0  0  0  0  0  0  0  0
   59.8503   28.6425   48.5413 H   0  0  0  0  0  0  0  0  0  0  0  0
   58.3219   29.5862   48.5413 H   0  0  0  0  0  0  0  0  0  0  0  0
   57.9140   28.9030   46.5630 H   0  0  0  0  0  0  0  0  0  0  0  0
   60.7249   28.7842   44.5029 H   0  0  0  0  0  0  0  0  0  0  0  0
   59.6255   27.3894   44.2140 H   0  0  0  0  0  0  0  0  0  0  0  0
   57.4936   27.7864   43.3293 H   0  0  0  0  0  0  0  0  0  0  0  0
   55.7294   29.3975   42.6173 H   0  0  0  0  0  0  0  0  0  0  0  0
   55.8887   31.8001   43.2704 H   0  0  0  0  0  0  0  0  0  0  0  0
   58.6711   34.1706   47.8415 H   0  0  0  0  0  0  0  0  0  0  0  0
   59.2639   31.9921   48.4882 H   0  0  0  0  0  0  0  0  0  0  0  0
   59.2296   31.3719   46.8465 H   0  0  0  0  0  0  0  0  0  0  0  0
   61.7426   30.5804   48.3893 H   0  0  0  0  0  0  0  0  0  0  0  0
   64.1662   31.1681   48.0809 H   0  0  0  0  0  0  0  0  0  0  0  0
   64.8002   33.2827   46.8972 H   0  0  0  0  0  0  0  0  0  0  0  0
   63.0125   34.8151   46.0181 H   0  0  0  0  0  0  0  0  0  0  0  0
   60.2732   35.3546   46.5957 H   0  0  0  0  0  0  0  0  0  0  0  0
   60.1168   34.3176   45.1895 H   0  0  0  0  0  0  0  0  0  0  0  0
   59.5745   30.9772   45.3861 H   0  0  0  0  0  0  0  0  0  0  0  0
   57.0380   26.9339   47.7768 H   0  0  0  0  0  0  0  0  0  0  0  0
   59.6505   25.9237   46.8940 H   0  0  0  0  0  0  0  0  0  0  0  0
   58.4123   25.0267   47.8056 H   0  0  0  0  0  0  0  0  0  0  0  0
   59.1873   24.4629   45.1754 H   0  0  0  0  0  0  0  0  0  0  0  0
   57.6446   23.9493   45.8826 H   0  0  0  0  0  0  0  0  0  0  0  0
   58.2562   26.3041   44.0681 H   0  0  0  0  0  0  0  0  0  0  0  0
   56.8387   25.2458   44.0543 H   0  0  0  0  0  0  0  0  0  0  0  0
   56.6649   27.7430   45.1256 H   0  0  0  0  0  0  0  0  0  0  0  0
   54.1618   25.0827   44.0782 H   0  0  0  0  0  0  0  0  0  0  0  0
   53.5188   22.6640   44.1228 H   0  0  0  0  0  0  0  0  0  0  0  0
   54.1668   21.2417   46.0780 H   0  0  0  0  0  0  0  0  0  0  0  0
   55.4626   22.2596   47.9622 H   0  0  0  0  0  0  0  0  0  0  0  0
  1  2  1  0
  2  3  1  0
  3  4  2  0
  3  5  1  0
  5  6  1  0
  6  7  2  0
  7  8  1  0
  8  9  2  0
  9 10  1  0
 10 11  1  0
 11 12  1  0
 12 13  2  0
 12 14  1  0
 14 15  1  0
 15 16  1  0
 16 17  2  0
 17 18  1  0
 18 19  2  0
 19 20  1  0
 20 21  2  0
 21 22  1  0
 10 23  2  0
  2 24  1  0
 24 25  1  0
 25 26  1  0
 26 27  1  0
 27 28  1  0
 28 29  1  0
 29 30  2  3
 30 31  1  0
 31 32  2  0
 32 33  1  0
 33 34  2  0
 34 35  1  0
 23  6  1  0
 28 24  1  0
 35 30  1  0
 22 14  1  0
 21 16  1  0
  1 36  1  0
  1 37  1  0
  1 38  1  0
  2 39  1  6
  5 40  1  0
  5 41  1  0
  7 42  1  0
  8 43  1  0
  9 44  1  0
 14 45  1  0
 15 46  1  0
 15 47  1  0
 17 48  1  0
 18 49  1  0
 19 50  1  0
 20 51  1  0
 22 52  1  0
 22 53  1  0
 23 54  1  0
 24 55  1  1
 25 56  1  0
 25 57  1  0
 26 58  1  0
 26 59  1  0
 27 60  1  0
 27 61  1  0
 28 62  1  6
 31 63  1  0
 32 64  1  0
 33 65  1  0
 34 66  1  0
M  CHG  3   2   1  11  -1  35  -1
M  END
>  <UniqueID>  (79) 
72

>  <SMILES>  (79) 
C[N@@H+](C(=O)Cc1cccc([N-]C(=O)C2Cc3ccccc3C2)c1)[C@@H]1CCCC1N=c1cccc[n-]1

>  <Energy>  (79) 
92.96237404915294

>  <Genealogy>  (79) 
C[NH+](C(=O)Cc1cccc([N-]C(=O)C2Cc3ccccc3C2)c1)C1CCCC1N=c1cccc[n-]1 (protonated)
C[N@@H+](C(=O)Cc1cccc([N-]C(=O)C2Cc3ccccc3C2)c1)[C@@H]1CCCC1N=c1cccc[n-]1 (chirality)
C[N@@H+](C(=O)Cc1cccc([N-]C(=O)C2Cc3ccccc3C2)c1)[C@@H]1CCCC1N=c1cccc[n-]1 (3D coordinates assigned)
C[N@@H+](C(=O)Cc1cccc([N-]C(=O)C2Cc3ccccc3C2)c1)[C@@H]1CCCC1N=c1cccc[n-]1 (nonaromatic ring conformer: 92.96237404915294 kcal/mol)

>  <smiles>  (79) 
CN(C(=O)Cc1cccc(NC(=O)C2Cc3ccccc3C2)c1)C1CCCC1N=c1cccc[nH]1

>  <score_type>  (79) 
oracle

>  <origin>  (79) 
adg

>  <m_score__min__energy>  (79) 
-12.57

>  <m_primary>  (79) 
energy

$$$$
79:0
     RDKit          3D

 50 52  0  0  0  0  0  0  0  0999 V2000
   57.3530   21.1100   45.8860 C   0  0  0  0  0  0  0  0  0  0  0  0
   57.3860   22.1210   46.8880 O   0  0  0  0  0  0  0  0  0  0  0  0
   57.4990   23.4950   46.6240 C   0  0  0  0  0  0  0  0  0  0  0  0
   58.6360   23.9510   45.9460 C   0  0  0  0  0  0  0  0  0  0  0  0
   58.7890   25.3090   45.6490 C   0  0  0  0  0  0  0  0  0  0  0  0
   57.7990   26.2310   46.0210 C   0  0  0  0  0  0  0  0  0  0  0  0
   57.9560   27.6680   45.7240 C   0  0  0  0  0  0  0  0  0  0  0  0
   58.2100   28.4630   46.6670 O   0  0  0  0  0  0  0  0  0  0  0  0
   57.7970   28.1950   44.4020 N   0  0  0  0  0  0  0  0  0  0  0  0
   56.6850   29.0330   43.9690 C   0  0  0  0  0  0  0  0  0  0  0  0
   56.8640   30.4150   44.5120 C   0  0  0  0  0  0  0  0  0  0  0  0
   55.8900   31.2160   44.5040 O   0  0  0  0  0  0  0  0  0  0  0  0
   58.1290   30.8030   45.0740 N   0  0  0  0  0  0  0  0  0  0  0  0
   58.4660   32.1460   45.4640 C   0  0  0  0  0  0  0  0  0  0  0  0
   57.9450   33.2220   44.7320 C   0  0  0  0  0  0  0  0  0  0  0  0
   58.2420   34.5360   45.0980 C   0  0  0  0  0  0  0  0  0  0  0  0
   59.0430   34.7900   46.2120 C   0  0  0  0  0  0  0  0  0  0  0  0
   59.5400   33.7280   46.9840 C   0  0  0  0  0  0  0  0  0  0  0  0
   60.3880   33.9870   48.1650 C   0  0  0  0  0  0  0  0  0  0  0  0
   59.8920   34.6010   49.1500 O   0  0  0  0  0  0  0  0  0  0  0  0
   61.7660   33.5730   48.2100 N   0  0  0  0  0  0  0  0  0  0  0  0
   62.6030   33.4150   47.0310 C   0  0  0  0  0  0  0  0  0  0  0  0
   64.0370   33.4160   47.5420 C   0  0  0  0  0  0  0  0  0  0  0  0
   63.9440   33.1380   49.0390 C   0  0  0  0  0  0  0  0  0  0  0  0
   62.5320   33.5380   49.4450 C   0  0  0  0  0  0  0  0  0  0  0  0
   59.2550   32.4060   46.6000 C   0  0  0  0  0  0  0  0  0  0  0  0
   56.6710   25.7810   46.7240 C   0  0  0  0  0  0  0  0  0  0  0  0
   56.5160   24.4230   47.0170 C   0  0  0  0  0  0  0  0  0  0  0  0
   57.3207   20.1202   46.3648 H   0  0  0  0  0  0  0  0  0  0  0  0
   56.4587   21.2437   45.2596 H   0  0  0  0  0  0  0  0  0  0  0  0
   58.2541   21.1851   45.2596 H   0  0  0  0  0  0  0  0  0  0  0  0
   59.4151   23.2354   45.6445 H   0  0  0  0  0  0  0  0  0  0  0  0
   59.6897   25.6559   45.1213 H   0  0  0  0  0  0  0  0  0  0  0  0
   56.6602   29.0708   42.8699 H   0  0  0  0  0  0  0  0  0  0  0  0
   55.7400   28.6112   44.3418 H   0  0  0  0  0  0  0  0  0  0  0  0
   58.8140   30.0430   45.2910 H   0  0  0  0  0  0  0  0  0  0  0  0
   57.2979   33.0297   43.8635 H   0  0  0  0  0  0  0  0  0  0  0  0
   57.8435   35.3735   44.5066 H   0  0  0  0  0  0  0  0  0  0  0  0
   59.2861   35.8271   46.4865 H   0  0  0  0  0  0  0  0  0  0  0  0
   62.3769   32.4652   46.5244 H   0  0  0  0  0  0  0  0  0  0  0  0
   62.4314   34.2190   46.3001 H   0  0  0  0  0  0  0  0  0  0  0  0
   64.6225   32.6304   47.0420 H   0  0  0  0  0  0  0  0  0  0  0  0
   64.5392   34.3732   47.3380 H   0  0  0  0  0  0  0  0  0  0  0  0
   64.1136   32.0703   49.2422 H   0  0  0  0  0  0  0  0  0  0  0  0
   64.7033   33.6985   49.6041 H   0  0  0  0  0  0  0  0  0  0  0  0
   62.1077   32.7978   50.1393 H   0  0  0  0  0  0  0  0  0  0  0  0
   62.5164   34.5090   49.9616 H   0  0  0  0  0  0  0  0  0  0  0  0
   59.6518   31.5682   47.1921 H   0  0  0  0  0  0  0  0  0  0  0  0
   55.9044   26.5010   47.0464 H   0  0  0  0  0  0  0  0  0  0  0  0
   55.6220   24.0779   47.5570 H   0  0  0  0  0  0  0  0  0  0  0  0
  1  2  1  0
  2  3  1  0
  3  4  2  0
  4  5  1  0
  5  6  2  0
  6  7  1  0
  7  8  2  0
  7  9  1  0
  9 10  1  0
 10 11  1  0
 11 12  2  0
 11 13  1  0
 13 14  1  0
 14 15  2  0
 15 16  1  0
 16 17  2  0
 17 18  1  0
 18 19  1  0
 19 20  2  0
 19 21  1  0
 21 22  1  0
 22 23  1  0
 23 24  1  0
 24 25  1  0
 18 26  2  0
  6 27  1  0
 27 28  2  0
 28  3  1  0
 26 14  1  0
 25 21  1  0
  1 29  1  0
  1 30  1  0
  1 31  1  0
  4 32  1  0
  5 33  1  0
 10 34  1  0
 10 35  1  0
 13 36  1  0
 15 37  1  0
 16 38  1  0
 17 39  1  0
 22 40  1  0
 22 41  1  0
 23 42  1  0
 23 43  1  0
 24 44  1  0
 24 45  1  0
 25 46  1  0
 25 47  1  0
 26 48  1  0
 27 49  1  0
 28 50  1  0
M  CHG  1   9  -1
M  END
>  <UniqueID>  (80) 
73

>  <SMILES>  (80) 
COc1ccc(C(=O)[N-]CC(=O)Nc2cccc(C(=O)N3CCCC3)c2)cc1

>  <Energy>  (80) 
60.35320418826575

>  <Genealogy>  (80) 
COc1ccc(C(=O)[N-]CC(=O)Nc2cccc(C(=O)N3CCCC3)c2)cc1 (protonated)
COc1ccc(C(=O)[N-]CC(=O)Nc2cccc(C(=O)N3CCCC3)c2)cc1 (3D coordinates assigned)
COc1ccc(C(=O)[N-]CC(=O)Nc2cccc(C(=O)N3CCCC3)c2)cc1 (nonaromatic ring conformer: 60.35320418826575 kcal/mol)

>  <smiles>  (80) 
COc1ccc(C(=O)NCC(=O)Nc2cccc(C(=O)N3CCCC3)c2)cc1

>  <score_type>  (80) 
oracle

>  <origin>  (80) 
adg

>  <m_score__min__energy>  (80) 
-11.300000000000001

>  <m_primary>  (80) 
energy

$$$$
80:0
     RDKit          3D

 60 62  0  0  0  0  0  0  0  0999 V2000
   57.0980   30.1140   44.9820 C   0  0  0  0  0  0  0  0  0  0  0  0
   57.7240   30.4650   46.2120 O   0  0  0  0  0  0  0  0  0  0  0  0
   58.3650   31.6910   46.4620 C   0  0  0  0  0  0  0  0  0  0  0  0
   57.7710   32.9210   46.1100 C   0  0  0  0  0  0  0  0  0  0  0  0
   58.4370   34.1230   46.3470 C   0  0  0  0  0  0  0  0  0  0  0  0
   59.7030   34.1190   46.9340 C   0  0  0  0  0  0  0  0  0  0  0  0
   60.2990   32.9110   47.2970 C   0  0  0  0  0  0  0  0  0  0  0  0
   59.6420   31.6910   47.0680 C   0  0  0  0  0  0  0  0  0  0  0  0
   60.3250   30.4010   47.4720 C   0  0  0  0  0  0  0  0  0  0  0  0
   59.4980   29.5810   48.3990 N   0  0  1  0  0  0  0  0  0  0  0  0
   59.8970   28.1530   48.2770 C   0  0  0  0  0  0  0  0  0  0  0  0
   58.7860   27.2460   47.6900 C   0  0  0  0  0  0  0  0  0  0  0  0
   58.7270   27.3040   46.1770 C   0  0  0  0  0  0  0  0  0  0  0  0
   59.6500   28.1290   45.5080 C   0  0  0  0  0  0  0  0  0  0  0  0
   59.6760   28.1920   44.1150 C   0  0  0  0  0  0  0  0  0  0  0  0
   58.7680   27.4490   43.3670 C   0  0  0  0  0  0  0  0  0  0  0  0
   57.8300   26.6410   44.0090 C   0  0  0  0  0  0  0  0  0  0  0  0
   57.7940   26.5520   45.4110 C   0  0  0  0  0  0  0  0  0  0  0  0
   56.5210   25.5650   46.1610 S   0  0  0  0  0  0  0  0  0  0  0  0
   54.9800   26.3390   46.0170 N   0  0  0  0  0  0  0  0  0  0  0  0
   56.4360   24.2200   45.4960 O   0  0  0  0  0  0  0  0  0  0  0  0
   56.8300   25.3850   47.6210 O   0  0  0  0  0  0  0  0  0  0  0  0
   59.6320   30.0530   49.8110 C   0  0  0  0  0  0  0  0  0  0  0  0
   58.2580   30.2300   50.5230 C   0  0  0  0  0  0  0  0  0  0  0  0
   57.7850   31.6330   50.5990 N   0  0  0  0  0  0  0  0  0  0  0  0
   58.8120   32.6410   50.2920 C   0  0  0  0  0  0  0  0  0  0  0  0
   59.0730   33.4350   51.5600 C   0  0  0  0  0  0  0  0  0  0  0  0
   57.8170   33.2690   52.3860 C   0  0  0  0  0  0  0  0  0  0  0  0
   57.1780   31.9780   51.8980 C   0  0  0  0  0  0  0  0  0  0  0  0
   56.1555   29.5855   45.1880 H   0  0  0  0  0  0  0  0  0  0  0  0
   56.8882   31.0261   44.4040 H   0  0  0  0  0  0  0  0  0  0  0  0
   57.7667   29.4593   44.4040 H   0  0  0  0  0  0  0  0  0  0  0  0
   56.7743   32.9321   45.6448 H   0  0  0  0  0  0  0  0  0  0  0  0
   57.9633   35.0765   46.0706 H   0  0  0  0  0  0  0  0  0  0  0  0
   60.2307   35.0679   47.1104 H   0  0  0  0  0  0  0  0  0  0  0  0
   61.2934   32.9141   47.7673 H   0  0  0  0  0  0  0  0  0  0  0  0
   60.5281   29.8112   46.5659 H   0  0  0  0  0  0  0  0  0  0  0  0
   61.2528   30.6666   47.9999 H   0  0  0  0  0  0  0  0  0  0  0  0
   58.5090   29.6560   48.0770 H   0  0  0  0  0  0  0  0  0  0  0  0
   60.7777   28.0929   47.6207 H   0  0  0  0  0  0  0  0  0  0  0  0
   60.1069   27.7889   49.2936 H   0  0  0  0  0  0  0  0  0  0  0  0
   58.9807   26.2074   47.9957 H   0  0  0  0  0  0  0  0  0  0  0  0
   57.8214   27.6077   48.0757 H   0  0  0  0  0  0  0  0  0  0  0  0
   60.3607   28.7325   46.0917 H   0  0  0  0  0  0  0  0  0  0  0  0
   60.4148   28.8295   43.6073 H   0  0  0  0  0  0  0  0  0  0  0  0
   58.7900   27.4990   42.2684 H   0  0  0  0  0  0  0  0  0  0  0  0
   57.1087   26.0657   43.4100 H   0  0  0  0  0  0  0  0  0  0  0  0
   55.1500   27.3700   46.0270 H   0  0  0  0  0  0  0  0  0  0  0  0
   60.2262   29.3169   50.3724 H   0  0  0  0  0  0  0  0  0  0  0  0
   60.1202   31.0384   49.7851 H   0  0  0  0  0  0  0  0  0  0  0  0
   57.5074   29.6430   49.9735 H   0  0  0  0  0  0  0  0  0  0  0  0
   58.3946   29.8877   51.5594 H   0  0  0  0  0  0  0  0  0  0  0  0
   59.7372   32.1451   49.9633 H   0  0  0  0  0  0  0  0  0  0  0  0
   58.4705   33.3055   49.4847 H   0  0  0  0  0  0  0  0  0  0  0  0
   59.9452   33.0329   52.0962 H   0  0  0  0  0  0  0  0  0  0  0  0
   59.2947   34.4917   51.3497 H   0  0  0  0  0  0  0  0  0  0  0  0
   58.0667   33.1945   53.4547 H   0  0  0  0  0  0  0  0  0  0  0  0
   57.1387   34.1278   52.2747 H   0  0  0  0  0  0  0  0  0  0  0  0
   57.3639   31.1719   52.6230 H   0  0  0  0  0  0  0  0  0  0  0  0
   56.0908   32.1061   51.7903 H   0  0  0  0  0  0  0  0  0  0  0  0
  1  2  1  0
  2  3  1  0
  3  4  2  0
  4  5  1  0
  5  6  2  0
  6  7  1  0
  7  8  2  0
  8  9  1  0
  9 10  1  0
 10 11  1  0
 11 12  1  0
 12 13  1  0
 13 14  2  0
 14 15  1  0
 15 16  2  0
 16 17  1  0
 17 18  2  0
 18 19  1  0
 19 20  1  0
 19 21  2  0
 19 22  2  0
 10 23  1  0
 23 24  1  0
 24 25  1  0
 25 26  1  0
 26 27  1  0
 27 28  1  0
 28 29  1  0
  8  3  1  0
 18 13  1  0
 29 25  1  0
  1 30  1  0
  1 31  1  0
  1 32  1  0
  4 33  1  0
  5 34  1  0
  6 35  1  0
  7 36  1  0
  9 37  1  0
  9 38  1  0
 10 39  1  6
 11 40  1  0
 11 41  1  0
 12 42  1  0
 12 43  1  0
 14 44  1  0
 15 45  1  0
 16 46  1  0
 17 47  1  0
 20 48  1  0
 23 49  1  0
 23 50  1  0
 24 51  1  0
 24 52  1  0
 26 53  1  0
 26 54  1  0
 27 55  1  0
 27 56  1  0
 28 57  1  0
 28 58  1  0
 29 59  1  0
 29 60  1  0
M  CHG  2  10   1  20  -1
M  END
>  <UniqueID>  (81) 
74

>  <SMILES>  (81) 
COc1ccccc1C[N@@H+](CCc1ccccc1S([NH-])(=O)=O)CCN1CCCC1

>  <Energy>  (81) 
73.25986694040547

>  <Genealogy>  (81) 
COc1ccccc1C[NH+](CCc1ccccc1S([NH-])(=O)=O)CCN1CCCC1 (protonated)
COc1ccccc1C[N@@H+](CCc1ccccc1S([NH-])(=O)=O)CCN1CCCC1 (chirality)
COc1ccccc1C[N@@H+](CCc1ccccc1S([NH-])(=O)=O)CCN1CCCC1 (3D coordinates assigned)
COc1ccccc1C[N@@H+](CCc1ccccc1S([NH-])(=O)=O)CCN1CCCC1 (nonaromatic ring conformer: 73.25986694040547 kcal/mol)

>  <smiles>  (81) 
COc1ccccc1CN(CCc1ccccc1S(N)(=O)=O)CCN1CCCC1

>  <score_type>  (81) 
oracle

>  <origin>  (81) 
adg

>  <m_score__min__energy>  (81) 
-9.9299999999999997

>  <m_primary>  (81) 
energy

$$$$
81:0
     RDKit          3D

 64 67  0  0  1  0  0  0  0  0999 V2000
   58.0010   26.6930   42.9870 N   0  0  0  0  0  0  0  0  0  0  0  0
   57.9940   27.6670   43.8520 C   0  0  0  0  0  0  0  0  0  0  0  0
   58.9410   27.7970   44.8400 C   0  0  0  0  0  0  0  0  0  0  0  0
   58.9470   28.8230   45.7650 C   0  0  0  0  0  0  0  0  0  0  0  0
   60.0140   28.8700   46.7920 C   0  0  0  0  0  0  0  0  0  0  0  0
   60.2230   30.1830   47.3540 N   0  0  0  0  0  0  0  0  0  0  0  0
   61.2240   31.0230   46.7350 C   0  0  0  0  0  0  0  0  0  0  0  0
   61.8620   31.9580   47.7310 C   0  0  2  0  0  0  0  0  0  0  0  0
   62.7710   31.2180   48.7010 C   0  0  0  0  0  0  0  0  0  0  0  0
   63.4560   32.1260   49.6240 C   0  0  0  0  0  0  0  0  0  0  0  0
   64.8010   32.4160   49.3710 C   0  0  0  0  0  0  0  0  0  0  0  0
   65.5370   33.2550   50.1710 C   0  0  0  0  0  0  0  0  0  0  0  0
   64.9160   33.8280   51.2670 C   0  0  0  0  0  0  0  0  0  0  0  0
   63.5950   33.5790   51.5660 C   0  0  0  0  0  0  0  0  0  0  0  0
   62.8840   32.7210   50.7250 C   0  0  0  0  0  0  0  0  0  0  0  0
   60.8080   32.6160   48.4710 N   0  0  0  0  0  0  0  0  0  0  0  0
   60.7880   34.0580   48.6320 C   0  0  0  0  0  0  0  0  0  0  0  0
   59.3990   34.6250   48.4760 C   0  0  0  0  0  0  0  0  0  0  0  0
   58.8660   34.4980   47.0850 C   0  0  0  0  0  0  0  0  0  0  0  0
   59.9690   34.3190   46.0960 C   0  0  0  0  0  0  0  0  0  0  0  0
   59.4120   34.2340   44.6750 C   0  0  0  0  0  0  0  0  0  0  0  0
   58.4860   33.0620   44.6160 C   0  0  0  0  0  0  0  0  0  0  0  0
   57.3340   33.2800   45.5720 C   0  0  0  0  0  0  0  0  0  0  0  0
   57.8050   33.4350   46.9930 C   0  0  0  0  0  0  0  0  0  0  0  0
   59.7420   31.8640   49.0760 C   0  0  0  0  0  0  0  0  0  0  0  0
   59.1000   32.2740   50.0590 O   0  0  0  0  0  0  0  0  0  0  0  0
   59.4440   30.5630   48.4630 C   0  0  0  0  0  0  0  0  0  0  0  0
   58.5190   29.8710   48.9610 O   0  0  0  0  0  0  0  0  0  0  0  0
   57.9600   29.7330   45.6720 N   0  0  0  0  0  0  0  0  0  0  0  0
   57.0200   29.6160   44.7010 C   0  0  0  0  0  0  0  0  0  0  0  0
   56.0770   30.5120   44.6360 N   0  0  0  0  0  0  0  0  0  0  0  0
   57.0300   28.6080   43.8070 N   0  0  0  0  0  0  0  0  0  0  0  0
   57.0590   26.3790   42.6550 H   0  0  0  0  0  0  0  0  0  0  0  0
   59.7387   27.0417   44.8972 H   0  0  0  0  0  0  0  0  0  0  0  0
   59.7418   28.1831   47.6069 H   0  0  0  0  0  0  0  0  0  0  0  0
   60.9514   28.5813   46.2941 H   0  0  0  0  0  0  0  0  0  0  0  0
   62.0041   30.3835   46.2963 H   0  0  0  0  0  0  0  0  0  0  0  0
   60.7309   31.6306   45.9619 H   0  0  0  0  0  0  0  0  0  0  0  0
   62.4811   32.6854   47.1854 H   0  0  0  0  0  0  0  0  0  0  0  0
   62.1638   30.5112   49.2856 H   0  0  0  0  0  0  0  0  0  0  0  0
   63.5387   30.6959   48.1110 H   0  0  0  0  0  0  0  0  0  0  0  0
   65.2871   31.9547   48.4987 H   0  0  0  0  0  0  0  0  0  0  0  0
   66.5929   33.4662   49.9465 H   0  0  0  0  0  0  0  0  0  0  0  0
   65.4937   34.5011   51.9175 H   0  0  0  0  0  0  0  0  0  0  0  0
   63.1148   34.0420   52.4407 H   0  0  0  0  0  0  0  0  0  0  0  0
   61.8277   32.5130   50.9508 H   0  0  0  0  0  0  0  0  0  0  0  0
   61.1632   34.3085   49.6352 H   0  0  0  0  0  0  0  0  0  0  0  0
   61.4237   34.4961   47.8484 H   0  0  0  0  0  0  0  0  0  0  0  0
   58.7237   34.0899   49.1598 H   0  0  0  0  0  0  0  0  0  0  0  0
   59.4552   35.6986   48.7087 H   0  0  0  0  0  0  0  0  0  0  0  0
   58.3682   35.4430   46.8218 H   0  0  0  0  0  0  0  0  0  0  0  0
   60.6570   35.1746   46.1636 H   0  0  0  0  0  0  0  0  0  0  0  0
   60.5002   33.3832   46.3242 H   0  0  0  0  0  0  0  0  0  0  0  0
   58.8640   35.1564   44.4322 H   0  0  0  0  0  0  0  0  0  0  0  0
   60.2294   34.1146   43.9486 H   0  0  0  0  0  0  0  0  0  0  0  0
   58.0975   32.9530   43.5927 H   0  0  0  0  0  0  0  0  0  0  0  0
   59.0309   32.1499   44.9008 H   0  0  0  0  0  0  0  0  0  0  0  0
   56.7933   34.1908   45.2753 H   0  0  0  0  0  0  0  0  0  0  0  0
   56.6799   32.3969   45.5243 H   0  0  0  0  0  0  0  0  0  0  0  0
   56.9526   33.7188   47.6277 H   0  0  0  0  0  0  0  0  0  0  0  0
   58.2298   32.4789   47.3326 H   0  0  0  0  0  0  0  0  0  0  0  0
   57.9230   30.5240   46.3490 H   0  0  0  0  0  0  0  0  0  0  0  0
   56.1490   31.3640   44.0670 H   0  0  0  0  0  0  0  0  0  0  0  0
   56.2720   28.5660   43.0730 H   0  0  0  0  0  0  0  0  0  0  0  0
  1  2  2  3
  2  3  1  0
  3  4  2  0
  4  5  1  0
  5  6  1  0
  6  7  1  0
  7  8  1  0
  8  9  1  0
  9 10  1  0
 10 11  2  0
 11 12  1  0
 12 13  2  0
 13 14  1  0
 14 15  2  0
  8 16  1  0
 16 17  1  0
 17 18  1  0
 18 19  1  0
 19 20  1  0
 20 21  1  0
 21 22  1  0
 22 23  1  0
 23 24  1  0
 16 25  1  0
 25 26  2  0
 25 27  1  0
 27 28  2  0
  4 29  1  0
 29 30  1  0
 30 31  2  3
 30 32  1  0
 32  2  1  0
 27  6  1  0
 15 10  1  0
 24 19  1  0
  1 33  1  0
  3 34  1  0
  5 35  1  0
  5 36  1  0
  7 37  1  0
  7 38  1  0
  8 39  1  6
  9 40  1  0
  9 41  1  0
 11 42  1  0
 12 43  1  0
 13 44  1  0
 14 45  1  0
 15 46  1  0
 17 47  1  0
 17 48  1  0
 18 49  1  0
 18 50  1  0
 19 51  1  0
 20 52  1  0
 20 53  1  0
 21 54  1  0
 21 55  1  0
 22 56  1  0
 22 57  1  0
 23 58  1  0
 23 59  1  0
 24 60  1  0
 24 61  1  0
 29 62  1  0
 31 63  1  0
 32 64  1  0
M  END
>  <smiles>  (82) 
N=c1cc(CN2CC(Cc3ccccc3)N(CCC3CCCCC3)C(=O)C2=O)[nH]c(=N)[nH]1

>  <score_type>  (82) 
oracle

>  <origin>  (82) 
adg

>  <m_score__min__energy>  (82) 
-10.27

>  <m_primary>  (82) 
energy

$$$$
82:0
     RDKit          3D

 40 41  0  0  0  0  0  0  0  0999 V2000
   62.3040   33.7120   49.7480 C   0  0  0  0  0  0  0  0  0  0  0  0
   61.2030   33.5340   48.7380 C   0  0  0  0  0  0  0  0  0  0  0  0
   59.8830   33.3300   49.1700 C   0  0  0  0  0  0  0  0  0  0  0  0
   58.8510   33.1680   48.2430 C   0  0  0  0  0  0  0  0  0  0  0  0
   59.1210   33.2000   46.8660 C   0  0  0  0  0  0  0  0  0  0  0  0
   58.0500   33.0690   45.9100 N   0  0  0  0  0  0  0  0  0  0  0  0
   57.9770   31.7040   45.4610 C   0  0  0  0  0  0  0  0  0  0  0  0
   59.1370   30.9650   45.2230 C   0  0  0  0  0  0  0  0  0  0  0  0
   59.0200   29.6590   44.7480 C   0  0  0  0  0  0  0  0  0  0  0  0
   60.0700   28.9910   44.5430 O   0  0  0  0  0  0  0  0  0  0  0  0
   57.7820   29.1130   44.5090 N   0  0  0  0  0  0  0  0  0  0  0  0
   57.6720   27.7360   43.9820 C   0  0  0  0  0  0  0  0  0  0  0  0
   58.2610   26.7040   44.9610 C   0  0  0  0  0  0  0  0  0  0  0  0
   57.2310   25.7040   45.5150 C   0  0  0  0  0  0  0  0  0  0  0  0
   56.2880   26.3060   46.5640 C   0  0  0  0  0  0  0  0  0  0  0  0
   55.0500   26.6340   45.9910 O   0  0  0  0  0  0  0  0  0  0  0  0
   56.6580   29.8660   44.7500 C   0  0  0  0  0  0  0  0  0  0  0  0
   55.5070   29.3950   44.5460 O   0  0  0  0  0  0  0  0  0  0  0  0
   56.7690   31.1380   45.2130 N   0  0  0  0  0  0  0  0  0  0  0  0
   60.4400   33.4150   46.4310 C   0  0  0  0  0  0  0  0  0  0  0  0
   61.4770   33.5790   47.3560 C   0  0  0  0  0  0  0  0  0  0  0  0
   63.1090   33.8440   46.7500 Cl  0  0  0  0  0  0  0  0  0  0  0  0
   61.8851   33.6443   50.7628 H   0  0  0  0  0  0  0  0  0  0  0  0
   63.0593   32.9243   49.6098 H   0  0  0  0  0  0  0  0  0  0  0  0
   62.7726   34.6976   49.6098 H   0  0  0  0  0  0  0  0  0  0  0  0
   59.6598   33.2975   50.2466 H   0  0  0  0  0  0  0  0  0  0  0  0
   57.8200   33.0143   48.5943 H   0  0  0  0  0  0  0  0  0  0  0  0
   58.2240   33.6960   45.0890 H   0  0  0  0  0  0  0  0  0  0  0  0
   57.1400   33.3610   46.3360 H   0  0  0  0  0  0  0  0  0  0  0  0
   60.1278   31.4058   45.4072 H   0  0  0  0  0  0  0  0  0  0  0  0
   56.6104   27.5023   43.8135 H   0  0  0  0  0  0  0  0  0  0  0  0
   58.2411   27.6815   43.0422 H   0  0  0  0  0  0  0  0  0  0  0  0
   59.0444   26.1377   44.4359 H   0  0  0  0  0  0  0  0  0  0  0  0
   58.6492   27.2688   45.8214 H   0  0  0  0  0  0  0  0  0  0  0  0
   56.6245   25.3303   44.6768 H   0  0  0  0  0  0  0  0  0  0  0  0
   57.7970   24.9036   46.0139 H   0  0  0  0  0  0  0  0  0  0  0  0
   56.1299   25.5737   47.3695 H   0  0  0  0  0  0  0  0  0  0  0  0
   56.7452   27.2228   46.9645 H   0  0  0  0  0  0  0  0  0  0  0  0
   55.1580   27.5230   45.5620 H   0  0  0  0  0  0  0  0  0  0  0  0
   60.6591   33.4547   45.3538 H   0  0  0  0  0  0  0  0  0  0  0  0
  1  2  1  0
  2  3  2  0
  3  4  1  0
  4  5  2  0
  5  6  1  0
  6  7  1  0
  7  8  2  0
  8  9  1  0
  9 10  2  0
  9 11  1  0
 11 12  1  0
 12 13  1  0
 13 14  1  0
 14 15  1  0
 15 16  1  0
 11 17  1  0
 17 18  2  0
 17 19  1  0
  5 20  1  0
 20 21  2  0
 21 22  1  0
 21  2  1  0
 19  7  1  0
  1 23  1  0
  1 24  1  0
  1 25  1  0
  3 26  1  0
  4 27  1  0
  6 28  1  0
  6 29  1  0
  8 30  1  0
 12 31  1  0
 12 32  1  0
 13 33  1  0
 13 34  1  0
 14 35  1  0
 14 36  1  0
 15 37  1  0
 15 38  1  0
 16 39  1  0
 20 40  1  0
M  CHG  2   6   1  19  -1
M  END
>  <UniqueID>  (83) 
75

>  <SMILES>  (83) 
Cc1ccc([NH2+]c2cc(=O)n(CCCCO)c(=O)[n-]2)cc1Cl

>  <Energy>  (83) 
41.570006641081854

>  <Genealogy>  (83) 
Cc1ccc([NH2+]c2cc(=O)n(CCCCO)c(=O)[n-]2)cc1Cl (protonated)
Cc1ccc([NH2+]c2cc(=O)n(CCCCO)c(=O)[n-]2)cc1Cl (3D coordinates assigned)
Cc1ccc([NH2+]c2cc(=O)n(CCCCO)c(=O)[n-]2)cc1Cl (optimized conformer: 41.570006641081854 kcal/mol)

>  <smiles>  (83) 
Cc1ccc(Nc2cc(=O)n(CCCCO)c(=O)[nH]2)cc1Cl

>  <score_type>  (83) 
oracle

>  <origin>  (83) 
adg

>  <m_score__min__energy>  (83) 
-8

>  <m_primary>  (83) 
energy

$$$$
83:0
     RDKit          3D

 46 50  0  0  0  0  0  0  0  0999 V2000
   50.2920   32.3480   50.9010 H   0  0  0  0  0  0  0  0  0  0  0  0
   51.2230   32.2910   51.3730 N   0  0  0  0  0  0  0  0  0  0  0  0
   51.6210   30.6150   51.5000 S   0  0  0  0  0  0  0  0  0  0  0  0
   50.7300   29.9600   52.5190 O   0  0  0  0  0  0  0  0  0  0  0  0
   51.4000   29.9490   50.1700 O   0  0  0  0  0  0  0  0  0  0  0  0
   53.3040   30.4440   51.9880 C   0  0  0  0  0  0  0  0  0  0  0  0
   53.8090   29.1950   52.3740 C   0  0  0  0  0  0  0  0  0  0  0  0
   53.1500   28.3142   52.3787 H   0  0  0  0  0  0  0  0  0  0  0  0
   55.1480   29.0660   52.7530 C   0  0  0  0  0  0  0  0  0  0  0  0
   55.5318   28.0868   53.0752 H   0  0  0  0  0  0  0  0  0  0  0  0
   56.0050   30.1730   52.7260 C   0  0  0  0  0  0  0  0  0  0  0  0
   57.3650   30.0070   53.1580 N   0  0  0  0  0  0  0  0  0  0  0  0
   58.3980   29.7620   52.4030 C   0  0  0  0  0  0  0  0  0  0  0  0
   59.6230   29.5120   52.9440 N   0  0  0  0  0  0  0  0  0  0  0  0
   60.7160   29.2830   52.1700 C   0  0  0  0  0  0  0  0  0  0  0  0
   61.6882   29.0765   52.6414 H   0  0  0  0  0  0  0  0  0  0  0  0
   60.6090   29.3090   50.7800 C   0  0  0  0  0  0  0  0  0  0  0  0
   61.4955   29.1275   50.1545 H   0  0  0  0  0  0  0  0  0  0  0  0
   59.3640   29.5680   50.1810 C   0  0  0  0  0  0  0  0  0  0  0  0
   59.2350   29.6080   48.7030 C   0  0  0  0  0  0  0  0  0  0  0  0
   59.2090   30.7380   47.8640 C   0  0  0  0  0  0  0  0  0  0  0  0
   59.4491   31.7608   48.1901 H   0  0  0  0  0  0  0  0  0  0  0  0
   58.8480   30.3990   46.5970 N   0  0  0  0  0  0  0  0  0  0  0  0
   58.5790   31.0500   45.8270 H   0  0  0  0  0  0  0  0  0  0  0  0
   58.7120   29.0650   46.6350 C   0  0  0  0  0  0  0  0  0  0  0  0
   57.8520   28.1980   46.0040 C   0  0  0  0  0  0  0  0  0  0  0  0
   57.1870   28.3910   44.6980 C   0  0  0  0  0  0  0  0  0  0  0  0
   57.7310   27.9280   43.6600 O   0  0  0  0  0  0  0  0  0  0  0  0
   55.9380   29.0820   44.5600 N   0  0  0  0  0  0  0  0  0  0  0  0
   55.7700   30.3990   43.9610 C   0  0  0  0  0  0  0  0  0  0  0  0
   54.7076   30.5418   44.2078 H   0  0  0  0  0  0  0  0  0  0  0  0
   57.0110   31.2700   44.0390 C   0  0  0  0  0  0  0  0  0  0  0  0
   56.9121   32.3605   44.1436 H   0  0  0  0  0  0  0  0  0  0  0  0
   57.9086   31.2907   44.6745 H   0  0  0  0  0  0  0  0  0  0  0  0
   56.6350   30.5940   42.7290 C   0  0  0  0  0  0  0  0  0  0  0  0
   56.2642   31.1956   41.8860 H   0  0  0  0  0  0  0  0  0  0  0  0
   57.1480   29.9231   42.0242 H   0  0  0  0  0  0  0  0  0  0  0  0
   57.5930   27.1940   46.8830 N   0  0  0  0  0  0  0  0  0  0  0  0
   58.2170   27.4410   48.0370 N   0  0  0  0  0  0  0  0  0  0  0  0
   58.9200   28.5700   47.8490 C   0  0  0  0  0  0  0  0  0  0  0  0
   58.2540   29.8040   51.0100 C   0  0  0  0  0  0  0  0  0  0  0  0
   57.2719   30.0218   50.5651 H   0  0  0  0  0  0  0  0  0  0  0  0
   55.4900   31.4300   52.3600 C   0  0  0  0  0  0  0  0  0  0  0  0
   56.1446   32.3139   52.3705 H   0  0  0  0  0  0  0  0  0  0  0  0
   54.1500   31.5610   51.9830 C   0  0  0  0  0  0  0  0  0  0  0  0
   53.7587   32.5439   51.6816 H   0  0  0  0  0  0  0  0  0  0  0  0
  1  2  1  0
  2  3  1  0
  3  4  2  0
  3  5  2  0
  3  6  1  0
  6  7  2  0
  7  8  1  0
  7  9  1  0
  9 10  1  0
  9 11  2  0
 11 12  1  0
 12 13  2  0
 13 14  1  0
 14 15  1  0
 15 16  1  0
 15 17  2  0
 17 18  1  0
 17 19  1  0
 19 20  1  0
 20 21  2  0
 21 22  1  0
 21 23  1  0
 23 24  1  0
 23 25  1  0
 25 26  2  0
 26 27  1  0
 27 28  2  0
 27 29  1  0
 29 30  1  0
 30 31  1  0
 30 32  1  0
 32 33  1  0
 32 34  1  0
 32 35  1  0
 35 36  1  0
 35 37  1  0
 26 38  1  0
 38 39  1  0
 39 40  2  0
 19 41  2  0
 41 42  1  0
 11 43  1  0
 43 44  1  0
 43 45  2  0
 45 46  1  0
 45  6  1  0
 41 13  1  0
 40 20  1  0
 40 25  1  0
 35 30  1  0
M  CHG  4   2  -1  14  -1  29  -1  38  -1
M  END
>  <UniqueID>  (84) 
76

>  <SMILES>  (84) 
[NH-]S(=O)(=O)c1ccc(/N=c2/cc(-c3c[nH]c4c(C(=O)[N-]C5CC5)[n-]nc34)cc[n-]2)cc1

>  <Energy>  (84) 
415.4818954910837

>  <Genealogy>  (84) 
[NH-]S(=O)(=O)c1ccc(N=c2cc(-c3c[nH]c4c(C(=O)[N-]C5CC5)[n-]nc34)cc[n-]2)cc1 (protonated)
[NH-]S(=O)(=O)c1ccc(/N=c2/cc(-c3c[nH]c4c(C(=O)[N-]C5CC5)[n-]nc34)cc[n-]2)cc1 (cis-trans isomerization)
[NH-]S(=O)(=O)c1ccc(/N=c2/cc(-c3c[nH]c4c(C(=O)[N-]C5CC5)[n-]nc34)cc[n-]2)cc1 (3D coordinates assigned)
[NH-]S(=O)(=O)c1ccc(/N=c2/cc(-c3c[nH]c4c(C(=O)[N-]C5CC5)[n-]nc34)cc[n-]2)cc1 (nonaromatic ring conformer: 415.4818954910837 kcal/mol)

>  <smiles>  (84) 
NS(=O)(=O)c1ccc(N=c2cc(-c3c[nH]c4c(C(=O)NC5CC5)[nH]nc34)cc[nH]2)cc1

>  <score_type>  (84) 
oracle

>  <origin>  (84) 
adg

>  <m_score__min__energy>  (84) 
-14.84

>  <m_primary>  (84) 
energy

$$$$
84:0
     RDKit          3D

 70 75  0  0  0  0  0  0  0  0999 V2000
   55.1440   29.3480   44.8490 N   0  0  0  0  0  0  0  0  0  0  0  0
   56.5740   30.1160   44.2560 S   0  0  0  0  0  0  0  0  0  0  0  0
   56.5180   31.5870   44.5580 O   0  0  0  0  0  0  0  0  0  0  0  0
   56.6580   29.9330   42.7660 O   0  0  0  0  0  0  0  0  0  0  0  0
   57.9860   29.4030   45.0280 C   0  0  0  0  0  0  0  0  0  0  0  0
   58.4460   28.1390   44.6320 C   0  0  0  0  0  0  0  0  0  0  0  0
   59.5630   27.5730   45.2520 C   0  0  0  0  0  0  0  0  0  0  0  0
   60.2240   28.2630   46.2720 C   0  0  0  0  0  0  0  0  0  0  0  0
   59.7680   29.5260   46.6770 C   0  0  0  0  0  0  0  0  0  0  0  0
   60.6130   30.4300   47.9300 S   0  0  0  0  0  0  0  0  0  0  0  0
   60.9430   29.4960   49.0600 O   0  0  0  0  0  0  0  0  0  0  0  0
   61.8900   31.0240   47.4030 O   0  0  0  0  0  0  0  0  0  0  0  0
   59.5870   31.7040   48.5150 N   0  0  0  0  0  0  0  0  0  0  0  0
   59.1420   31.8090   49.8820 C   0  0  0  0  0  0  0  0  0  0  0  0
   58.1620   30.9380   50.3980 C   0  0  0  0  0  0  0  0  0  0  0  0
   57.7730   31.0100   51.7420 C   0  0  0  0  0  0  0  0  0  0  0  0
   56.8000   30.1350   52.2520 C   0  0  0  0  0  0  0  0  0  0  0  0
   56.4160   30.2160   53.5940 C   0  0  0  0  0  0  0  0  0  0  0  0
   57.0040   31.1630   54.4360 C   0  0  0  0  0  0  0  0  0  0  0  0
   57.9760   32.0370   53.9410 C   0  0  0  0  0  0  0  0  0  0  0  0
   58.3660   31.9680   52.5940 C   0  0  0  0  0  0  0  0  0  0  0  0
   59.3270   32.8480   52.0830 C   0  0  0  0  0  0  0  0  0  0  0  0
   59.7000   32.7890   50.7350 C   0  0  0  0  0  0  0  0  0  0  0  0
   60.6400   33.7140   50.2670 O   0  0  0  0  0  0  0  0  0  0  0  0
   61.9400   33.3770   49.8580 C   0  0  0  0  0  0  0  0  0  0  0  0
   62.4240   33.9220   48.6630 C   0  0  0  0  0  0  0  0  0  0  0  0
   63.7140   33.6210   48.2220 C   0  0  0  0  0  0  0  0  0  0  0  0
   64.5330   32.7710   48.9720 C   0  0  0  0  0  0  0  0  0  0  0  0
   64.0620   32.2080   50.1680 C   0  0  0  0  0  0  0  0  0  0  0  0
   64.8980   31.3170   50.9260 N   0  0  0  0  0  0  0  0  0  0  0  0
   64.2990   30.1770   51.6320 C   0  0  0  0  0  0  0  0  0  0  0  0
   65.3810   29.1990   52.0920 C   0  0  0  0  0  0  0  0  0  0  0  0
   66.3890   29.0770   51.0180 N   0  0  0  0  0  0  0  0  0  0  0  0
   67.2910   27.8940   51.0660 C   0  0  0  0  0  0  0  0  0  0  0  0
   66.7780   26.5920   50.4790 C   0  0  0  0  0  0  0  0  0  0  0  0
   67.7130   26.6270   49.4250 O   0  0  0  0  0  0  0  0  0  0  0  0
   68.2680   27.8270   49.9150 C   0  0  0  0  0  0  0  0  0  0  0  0
   67.1790   30.3210   50.8820 C   0  0  0  0  0  0  0  0  0  0  0  0
   66.3330   31.5980   51.0800 C   0  0  0  0  0  0  0  0  0  0  0  0
   62.7620   32.5090   50.6030 C   0  0  0  0  0  0  0  0  0  0  0  0
   58.6460   30.0890   46.0560 C   0  0  0  0  0  0  0  0  0  0  0  0
   55.4390   28.7120   45.6240 H   0  0  0  0  0  0  0  0  0  0  0  0
   57.9264   27.5918   43.8316 H   0  0  0  0  0  0  0  0  0  0  0  0
   59.9228   26.5825   44.9367 H   0  0  0  0  0  0  0  0  0  0  0  0
   61.1032   27.8148   46.7579 H   0  0  0  0  0  0  0  0  0  0  0  0
   59.4150   32.4880   47.8500 H   0  0  0  0  0  0  0  0  0  0  0  0
   57.6964   30.1920   49.7372 H   0  0  0  0  0  0  0  0  0  0  0  0
   56.3388   29.3839   51.5939 H   0  0  0  0  0  0  0  0  0  0  0  0
   55.6492   29.5325   53.9876 H   0  0  0  0  0  0  0  0  0  0  0  0
   56.7011   31.2210   55.4919 H   0  0  0  0  0  0  0  0  0  0  0  0
   58.4364   32.7805   54.6082 H   0  0  0  0  0  0  0  0  0  0  0  0
   59.7929   33.5919   52.7459 H   0  0  0  0  0  0  0  0  0  0  0  0
   61.7846   34.5909   48.0683 H   0  0  0  0  0  0  0  0  0  0  0  0
   64.0872   34.0536   47.2820 H   0  0  0  0  0  0  0  0  0  0  0  0
   65.5508   32.5427   48.6229 H   0  0  0  0  0  0  0  0  0  0  0  0
   63.7475   30.5449   52.5098 H   0  0  0  0  0  0  0  0  0  0  0  0
   63.6171   29.6538   50.9456 H   0  0  0  0  0  0  0  0  0  0  0  0
   65.8584   29.5775   53.0079 H   0  0  0  0  0  0  0  0  0  0  0  0
   64.9354   28.2160   52.3045 H   0  0  0  0  0  0  0  0  0  0  0  0
   67.5588   27.9907   52.1285 H   0  0  0  0  0  0  0  0  0  0  0  0
   66.9036   25.7286   51.1489 H   0  0  0  0  0  0  0  0  0  0  0  0
   65.7081   26.4981   50.2412 H   0  0  0  0  0  0  0  0  0  0  0  0
   69.3157   27.7267   50.2348 H   0  0  0  0  0  0  0  0  0  0  0  0
   68.3522   28.6897   49.2378 H   0  0  0  0  0  0  0  0  0  0  0  0
   67.9806   30.3113   51.6353 H   0  0  0  0  0  0  0  0  0  0  0  0
   67.5785   30.3466   49.8574 H   0  0  0  0  0  0  0  0  0  0  0  0
   66.5141   31.9949   52.0898 H   0  0  0  0  0  0  0  0  0  0  0  0
   66.6273   32.3317   50.3151 H   0  0  0  0  0  0  0  0  0  0  0  0
   62.3817   32.0631   51.5339 H   0  0  0  0  0  0  0  0  0  0  0  0
   58.2808   31.0756   46.3773 H   0  0  0  0  0  0  0  0  0  0  0  0
  1  2  1  0
  2  3  2  0
  2  4  2  0
  2  5  1  0
  5  6  2  0
  6  7  1  0
  7  8  2  0
  8  9  1  0
  9 10  1  0
 10 11  2  0
 10 12  2  0
 10 13  1  0
 13 14  1  0
 14 15  2  0
 15 16  1  0
 16 17  2  0
 17 18  1  0
 18 19  2  0
 19 20  1  0
 20 21  2  0
 21 22  1  0
 22 23  2  0
 23 24  1  0
 24 25  1  0
 25 26  2  0
 26 27  1  0
 27 28  2  0
 28 29  1  0
 29 30  1  0
 30 31  1  0
 31 32  1  0
 32 33  1  0
 33 34  1  0
 34 35  1  0
 35 36  1  0
 36 37  1  0
 33 38  1  0
 38 39  1  0
 29 40  2  0
  9 41  2  0
 41  5  1  0
 23 14  1  0
 40 25  1  0
 21 16  1  0
 39 30  1  0
 37 34  1  0
  1 42  1  0
  6 43  1  0
  7 44  1  0
  8 45  1  0
 13 46  1  0
 15 47  1  0
 17 48  1  0
 18 49  1  0
 19 50  1  0
 20 51  1  0
 22 52  1  0
 26 53  1  0
 27 54  1  0
 28 55  1  0
 31 56  1  0
 31 57  1  0
 32 58  1  0
 32 59  1  0
 34 60  1  0
 35 61  1  0
 35 62  1  0
 37 63  1  0
 37 64  1  0
 38 65  1  0
 38 66  1  0
 39 67  1  0
 39 68  1  0
 40 69  1  0
 41 70  1  0
M  CHG  1   1  -1
M  END
>  <UniqueID>  (85) 
77

>  <SMILES>  (85) 
[NH-]S(=O)(=O)c1cccc(S(=O)(=O)Nc2cc3ccccc3cc2Oc2cccc(N3CCN(C4COC4)CC3)c2)c1

>  <Energy>  (85) 
170.8896931910955

>  <Genealogy>  (85) 
[NH-]S(=O)(=O)c1cccc(S(=O)(=O)Nc2cc3ccccc3cc2Oc2cccc(N3CCN(C4COC4)CC3)c2)c1 (protonated)
[NH-]S(=O)(=O)c1cccc(S(=O)(=O)Nc2cc3ccccc3cc2Oc2cccc(N3CCN(C4COC4)CC3)c2)c1 (3D coordinates assigned)
[NH-]S(=O)(=O)c1cccc(S(=O)(=O)Nc2cc3ccccc3cc2Oc2cccc(N3CCN(C4COC4)CC3)c2)c1 (nonaromatic ring conformer: 170.8896931910955 kcal/mol)

>  <smiles>  (85) 
NS(=O)(=O)c1cccc(S(=O)(=O)Nc2cc3ccccc3cc2Oc2cccc(N3CCN(C4COC4)CC3)c2)c1

>  <score_type>  (85) 
oracle

>  <origin>  (85) 
adg

>  <m_score__min__energy>  (85) 
-14.1

>  <m_primary>  (85) 
energy

$$$$
85:0
     RDKit          3D

 52 55  0  0  0  0  0  0  0  0999 V2000
   60.3060   27.0890   46.0090 C   0  0  0  0  0  0  0  0  0  0  0  0
   59.4240   27.9120   45.4190 C   0  0  0  0  0  0  0  0  0  0  0  0
   58.2420   27.5340   44.7640 C   0  0  0  0  0  0  0  0  0  0  0  0
   57.7860   26.2760   44.5810 C   0  0  0  0  0  0  0  0  0  0  0  0
   57.1830   25.4090   45.6210 C   0  0  0  0  0  0  0  0  0  0  0  0
   57.7210   24.2850   46.1290 N   0  0  0  0  0  0  0  0  0  0  0  0
   56.8090   23.8790   47.0380 C   0  0  0  0  0  0  0  0  0  0  0  0
   56.9620   22.8420   47.7360 O   0  0  0  0  0  0  0  0  0  0  0  0
   55.7230   24.6720   47.1440 N   0  0  0  0  0  0  0  0  0  0  0  0
   55.9760   25.6350   46.2430 C   0  0  0  0  0  0  0  0  0  0  0  0
   55.1200   26.6990   45.9920 O   0  0  0  0  0  0  0  0  0  0  0  0
   57.6360   28.7190   44.3620 C   0  0  0  0  0  0  0  0  0  0  0  0
   58.4450   29.7490   44.7930 C   0  0  0  0  0  0  0  0  0  0  0  0
   58.1300   31.1830   44.6230 C   0  0  0  0  0  0  0  0  0  0  0  0
   58.5030   31.7410   43.5570 O   0  0  0  0  0  0  0  0  0  0  0  0
   57.4780   31.9830   45.6500 N   0  0  0  0  0  0  0  0  0  0  0  0
   57.5390   33.4370   45.3100 C   0  0  0  0  0  0  0  0  0  0  0  0
   58.0990   34.3150   46.4360 C   0  0  0  0  0  0  0  0  0  0  0  0
   59.3140   33.6960   46.9670 N   0  0  0  0  0  0  0  0  0  0  0  0
   60.6020   34.3270   46.8010 C   0  0  0  0  0  0  0  0  0  0  0  0
   60.7400   35.2760   45.9840 O   0  0  0  0  0  0  0  0  0  0  0  0
   61.7910   33.8440   47.5200 C   0  0  0  0  0  0  0  0  0  0  0  0
   63.0020   33.5270   46.9460 C   0  0  0  0  0  0  0  0  0  0  0  0
   63.8130   33.1190   47.9860 C   0  0  0  0  0  0  0  0  0  0  0  0
   63.1570   33.1950   49.1230 O   0  0  0  0  0  0  0  0  0  0  0  0
   61.9440   33.6330   48.8820 C   0  0  0  0  0  0  0  0  0  0  0  0
   60.9400   33.8970   49.9590 C   0  0  0  0  0  0  0  0  0  0  0  0
   59.2230   32.3160   47.4580 C   0  0  0  0  0  0  0  0  0  0  0  0
   57.8910   31.6550   47.0420 C   0  0  0  0  0  0  0  0  0  0  0  0
   59.5530   29.2630   45.3980 N   0  0  0  0  0  0  0  0  0  0  0  0
   60.6530   30.0540   45.9590 C   0  0  0  0  0  0  0  0  0  0  0  0
   61.2030   27.5009   46.4946 H   0  0  0  0  0  0  0  0  0  0  0  0
   60.1315   26.0029   46.0067 H   0  0  0  0  0  0  0  0  0  0  0  0
   57.8698   25.8565   43.5676 H   0  0  0  0  0  0  0  0  0  0  0  0
   56.6917   28.8162   43.8063 H   0  0  0  0  0  0  0  0  0  0  0  0
   56.4660   31.7110   45.6050 H   0  0  0  0  0  0  0  0  0  0  0  0
   58.1797   33.5591   44.4242 H   0  0  0  0  0  0  0  0  0  0  0  0
   56.5050   33.7671   45.1316 H   0  0  0  0  0  0  0  0  0  0  0  0
   58.3369   35.3136   46.0407 H   0  0  0  0  0  0  0  0  0  0  0  0
   57.3516   34.4112   47.2373 H   0  0  0  0  0  0  0  0  0  0  0  0
   63.2678   33.5865   45.8803 H   0  0  0  0  0  0  0  0  0  0  0  0
   64.8541   32.7804   47.8793 H   0  0  0  0  0  0  0  0  0  0  0  0
   61.4160   33.7718   50.9427 H   0  0  0  0  0  0  0  0  0  0  0  0
   60.5612   34.9253   49.8631 H   0  0  0  0  0  0  0  0  0  0  0  0
   60.1044   33.1880   49.8631 H   0  0  0  0  0  0  0  0  0  0  0  0
   60.0572   31.7325   47.0414 H   0  0  0  0  0  0  0  0  0  0  0  0
   59.2702   32.3364   48.5568 H   0  0  0  0  0  0  0  0  0  0  0  0
   58.0024   30.5638   47.1247 H   0  0  0  0  0  0  0  0  0  0  0  0
   57.1113   32.0452   47.7127 H   0  0  0  0  0  0  0  0  0  0  0  0
   60.6059   30.0201   47.0575 H   0  0  0  0  0  0  0  0  0  0  0  0
   61.6135   29.6384   45.6202 H   0  0  0  0  0  0  0  0  0  0  0  0
   60.5648   31.0968   45.6202 H   0  0  0  0  0  0  0  0  0  0  0  0
  1  2  2  0
  2  3  1  0
  3  4  2  3
  4  5  1  0
  5  6  1  0
  6  7  1  0
  7  8  2  0
  7  9  1  0
  9 10  1  0
 10 11  1  0
  3 12  1  0
 12 13  2  0
 13 14  1  0
 14 15  2  0
 14 16  1  0
 16 17  1  0
 17 18  1  0
 18 19  1  0
 19 20  1  0
 20 21  2  0
 20 22  1  0
 22 23  1  0
 23 24  2  0
 24 25  1  0
 25 26  1  0
 26 27  1  0
 19 28  1  0
 28 29  1  0
 13 30  1  0
 30 31  1  0
 30  2  1  0
 10  5  2  0
 29 16  1  0
 26 22  2  0
  1 32  1  0
  1 33  1  0
  4 34  1  0
 12 35  1  0
 16 36  1  0
 17 37  1  0
 17 38  1  0
 18 39  1  0
 18 40  1  0
 23 41  1  0
 24 42  1  0
 27 43  1  0
 27 44  1  0
 27 45  1  0
 28 46  1  0
 28 47  1  0
 29 48  1  0
 29 49  1  0
 31 50  1  0
 31 51  1  0
 31 52  1  0
M  CHG  4   6  -1   9  -1  11  -1  16   1
M  END
>  <UniqueID>  (86) 
78

>  <SMILES>  (86) 
C=c1c(=Cc2[n-]c(=O)[n-]c2[O-])cc(C(=O)[NH+]2CCN(C(=O)c3ccoc3C)CC2)n1C

>  <Energy>  (86) 
166.68802528203923

>  <Genealogy>  (86) 
C=c1c(=Cc2[n-]c(=O)[n-]c2[O-])cc(C(=O)[NH+]2CCN(C(=O)c3ccoc3C)CC2)n1C (protonated)
C=c1c(=Cc2[n-]c(=O)[n-]c2[O-])cc(C(=O)[NH+]2CCN(C(=O)c3ccoc3C)CC2)n1C (3D coordinates assigned)
C=c1c(=Cc2[n-]c(=O)[n-]c2[O-])cc(C(=O)[NH+]2CCN(C(=O)c3ccoc3C)CC2)n1C (nonaromatic ring conformer: 166.68802528203923 kcal/mol)

>  <smiles>  (86) 
C=c1c(=Cc2[nH]c(=O)[nH]c2O)cc(C(=O)N2CCN(C(=O)c3ccoc3C)CC2)n1C

>  <score_type>  (86) 
oracle

>  <origin>  (86) 
adg

>  <m_score__min__energy>  (86) 
-16.489999999999998

>  <m_primary>  (86) 
energy

$$$$
86:0
     RDKit          3D

 57 60  0  0  0  0  0  0  0  0999 V2000
   65.0340   32.4530   49.3940 C   0  0  0  0  0  0  0  0  0  0  0  0
   63.9550   33.0300   48.8320 C   0  0  0  0  0  0  0  0  0  0  0  0
   63.9930   33.2570   47.4820 N   0  0  0  0  0  0  0  0  0  0  0  0
   62.8910   33.6030   46.7730 C   0  0  0  0  0  0  0  0  0  0  0  0
   61.6690   33.7860   47.4100 C   0  0  0  0  0  0  0  0  0  0  0  0
   60.4820   34.1610   46.6170 C   0  0  0  0  0  0  0  0  0  0  0  0
   60.4000   35.3370   46.1740 O   0  0  0  0  0  0  0  0  0  0  0  0
   59.4260   33.2120   46.3430 N   0  0  0  0  0  0  0  0  0  0  0  0
   58.5260   33.4590   45.2050 C   0  0  0  0  0  0  0  0  0  0  0  0
   57.3080   32.5280   45.2200 C   0  0  0  0  0  0  0  0  0  0  0  0
   57.7140   31.1390   45.4750 N   0  0  0  0  0  0  0  0  0  0  0  0
   56.9820   30.0590   44.8610 C   0  0  0  0  0  0  0  0  0  0  0  0
   55.8920   30.2900   44.2710 O   0  0  0  0  0  0  0  0  0  0  0  0
   57.4570   28.6380   44.9650 C   0  0  0  0  0  0  0  0  0  0  0  0
   57.7730   27.9870   43.6240 C   0  0  0  0  0  0  0  0  0  0  0  0
   58.9010   28.4030   44.5530 C   0  0  0  0  0  0  0  0  0  0  0  0
   58.7450   30.8500   46.4850 C   0  0  0  0  0  0  0  0  0  0  0  0
   59.1400   32.1050   47.2670 C   0  0  0  0  0  0  0  0  0  0  0  0
   61.5930   33.6480   48.8000 C   0  0  0  0  0  0  0  0  0  0  0  0
   60.3870   33.9480   49.4290 O   0  0  0  0  0  0  0  0  0  0  0  0
   62.7390   33.2730   49.5530 C   0  0  0  0  0  0  0  0  0  0  0  0
   62.6550   33.2120   50.9130 C   0  0  0  0  0  0  0  0  0  0  0  0
   61.9930   34.2100   51.6400 O   0  0  0  0  0  0  0  0  0  0  0  0
   63.2830   32.1480   51.6520 N   0  0  0  0  0  0  0  0  0  0  0  0
   62.5110   31.0690   52.2620 C   0  0  0  0  0  0  0  0  0  0  0  0
   61.4320   30.6050   51.3250 C   0  0  0  0  0  0  0  0  0  0  0  0
   61.7770   29.9480   50.1320 C   0  0  0  0  0  0  0  0  0  0  0  0
   60.7790   29.4920   49.2660 C   0  0  0  0  0  0  0  0  0  0  0  0
   59.4320   29.6840   49.5880 C   0  0  0  0  0  0  0  0  0  0  0  0
   58.4650   29.2370   48.7530 F   0  0  0  0  0  0  0  0  0  0  0  0
   59.0820   30.3440   50.7670 C   0  0  0  0  0  0  0  0  0  0  0  0
   60.0770   30.8020   51.6350 C   0  0  0  0  0  0  0  0  0  0  0  0
   65.0492   32.2511   50.4752 H   0  0  0  0  0  0  0  0  0  0  0  0
   65.9003   32.1835   48.7719 H   0  0  0  0  0  0  0  0  0  0  0  0
   64.8760   33.0980   46.9420 H   0  0  0  0  0  0  0  0  0  0  0  0
   62.9642   33.7402   45.6840 H   0  0  0  0  0  0  0  0  0  0  0  0
   58.1764   34.5011   45.2490 H   0  0  0  0  0  0  0  0  0  0  0  0
   59.0888   33.2654   44.2799 H   0  0  0  0  0  0  0  0  0  0  0  0
   56.6163   32.8523   46.0115 H   0  0  0  0  0  0  0  0  0  0  0  0
   56.8163   32.5761   44.2372 H   0  0  0  0  0  0  0  0  0  0  0  0
   56.8508   28.3754   45.8445 H   0  0  0  0  0  0  0  0  0  0  0  0
   57.5559   26.9204   43.4654 H   0  0  0  0  0  0  0  0  0  0  0  0
   57.5105   28.1959   42.5764 H   0  0  0  0  0  0  0  0  0  0  0  0
   59.5011   27.6371   45.0660 H   0  0  0  0  0  0  0  0  0  0  0  0
   59.7939   29.0379   44.4549 H   0  0  0  0  0  0  0  0  0  0  0  0
   58.3543   30.1000   47.1885 H   0  0  0  0  0  0  0  0  0  0  0  0
   59.6387   30.4751   45.9647 H   0  0  0  0  0  0  0  0  0  0  0  0
   58.3134   32.3927   47.9333 H   0  0  0  0  0  0  0  0  0  0  0  0
   60.0424   31.8895   47.8580 H   0  0  0  0  0  0  0  0  0  0  0  0
   61.0950   34.5850   51.3610 H   0  0  0  0  0  0  0  0  0  0  0  0
   64.3060   32.1910   51.8610 H   0  0  0  0  0  0  0  0  0  0  0  0
   63.1812   30.2268   52.4890 H   0  0  0  0  0  0  0  0  0  0  0  0
   62.0459   31.4407   53.1870 H   0  0  0  0  0  0  0  0  0  0  0  0
   62.8360   29.7919   49.8786 H   0  0  0  0  0  0  0  0  0  0  0  0
   61.0534   28.9819   48.3309 H   0  0  0  0  0  0  0  0  0  0  0  0
   58.0219   30.5038   51.0132 H   0  0  0  0  0  0  0  0  0  0  0  0
   59.7973   31.3189   52.5648 H   0  0  0  0  0  0  0  0  0  0  0  0
  1  2  2  0
  2  3  1  0
  3  4  2  0
  4  5  1  0
  5  6  1  0
  6  7  2  0
  6  8  1  0
  8  9  1  0
  9 10  1  0
 10 11  1  0
 11 12  1  0
 12 13  2  0
 12 14  1  0
 14 15  1  0
 15 16  1  0
 11 17  1  0
 17 18  1  0
  5 19  2  0
 19 20  1  0
 19 21  1  0
 21 22  2  3
 22 23  1  0
 22 24  1  0
 24 25  1  0
 25 26  1  0
 26 27  2  0
 27 28  1  0
 28 29  2  0
 29 30  1  0
 29 31  1  0
 31 32  2  0
 21  2  1  0
 32 26  1  0
 18  8  1  0
 16 14  1  0
  1 33  1  0
  1 34  1  0
  3 35  1  0
  4 36  1  0
  9 37  1  0
  9 38  1  0
 10 39  1  0
 10 40  1  0
 14 41  1  0
 15 42  1  0
 15 43  1  0
 16 44  1  0
 16 45  1  0
 17 46  1  0
 17 47  1  0
 18 48  1  0
 18 49  1  0
 23 50  1  0
 24 51  1  0
 25 52  1  0
 25 53  1  0
 27 54  1  0
 28 55  1  0
 31 56  1  0
 32 57  1  0
M  CHG  2   3   1  20  -1
M  END
>  <UniqueID>  (87) 
79

>  <SMILES>  (87) 
C=c1[nH+]cc(C(=O)N2CCN(C(=O)C3CC3)CC2)c([O-])c1=C(O)NCc1ccc(F)cc1

>  <Energy>  (87) 
353.8285501897251

>  <Genealogy>  (87) 
C=c1[nH+]cc(C(=O)N2CCN(C(=O)C3CC3)CC2)c([O-])c1=C(O)NCc1ccc(F)cc1 (protonated)
C=c1[nH+]cc(C(=O)N2CCN(C(=O)C3CC3)CC2)c([O-])c1=C(O)NCc1ccc(F)cc1 (3D coordinates assigned)
C=c1[nH+]cc(C(=O)N2CCN(C(=O)C3CC3)CC2)c([O-])c1=C(O)NCc1ccc(F)cc1 (nonaromatic ring conformer: 353.8285501897251 kcal/mol)

>  <smiles>  (87) 
C=c1ncc(C(=O)N2CCN(C(=O)C3CC3)CC2)c(O)c1=C(O)NCc1ccc(F)cc1

>  <score_type>  (87) 
oracle

>  <origin>  (87) 
adg

>  <m_score__min__energy>  (87) 
-11.550000000000001

>  <m_primary>  (87) 
energy

$$$$
87:0
     RDKit          3D

 55 58  0  0  0  0  0  0  0  0999 V2000
   55.8030   30.4840   44.6360 O   0  0  0  0  0  0  0  0  0  0  0  0
   56.9370   29.9330   44.5700 C   0  0  0  0  0  0  0  0  0  0  0  0
   58.0290   30.6180   43.9380 N   0  0  0  0  0  0  0  0  0  0  0  0
   57.9560   32.0260   43.5600 C   0  0  0  0  0  0  0  0  0  0  0  0
   58.4080   32.8850   44.7110 C   0  0  0  0  0  0  0  0  0  0  0  0
   58.8020   34.2080   44.4830 C   0  0  0  0  0  0  0  0  0  0  0  0
   59.2660   34.9920   45.5360 C   0  0  0  0  0  0  0  0  0  0  0  0
   59.3520   34.4610   46.8250 C   0  0  0  0  0  0  0  0  0  0  0  0
   58.9750   33.1240   47.0920 C   0  0  0  0  0  0  0  0  0  0  0  0
   59.0770   32.5640   48.4370 N   0  0  0  0  0  0  0  0  0  0  0  0
   58.8810   31.1120   48.6350 C   0  0  0  0  0  0  0  0  0  0  0  0
   58.9540   30.6760   50.1030 C   0  0  0  0  0  0  0  0  0  0  0  0
   59.9310   31.4070   50.8030 O   0  0  0  0  0  0  0  0  0  0  0  0
   59.4920   32.7390   50.9130 C   0  0  0  0  0  0  0  0  0  0  0  0
   59.5150   33.4340   49.5490 C   0  0  0  0  0  0  0  0  0  0  0  0
   58.5070   32.3450   46.0030 C   0  0  0  0  0  0  0  0  0  0  0  0
   57.1380   28.5920   45.1640 C   0  0  0  0  0  0  0  0  0  0  0  0
   58.4260   28.0660   45.3420 C   0  0  0  0  0  0  0  0  0  0  0  0
   58.5800   26.7850   45.8730 C   0  0  0  0  0  0  0  0  0  0  0  0
   57.4510   26.0260   46.2220 C   0  0  0  0  0  0  0  0  0  0  0  0
   57.5590   24.6980   46.7570 N   0  0  0  0  0  0  0  0  0  0  0  0
   57.0620   23.2480   45.9470 S   0  0  0  0  0  0  0  0  0  0  0  0
   57.7510   23.1660   44.6160 O   0  0  0  0  0  0  0  0  0  0  0  0
   57.4620   22.0550   46.7690 O   0  0  0  0  0  0  0  0  0  0  0  0
   55.3190   23.2810   45.6850 C   0  0  0  0  0  0  0  0  0  0  0  0
   54.4310   22.9060   46.7030 C   0  0  0  0  0  0  0  0  0  0  0  0
   53.0510   22.9440   46.4780 C   0  0  0  0  0  0  0  0  0  0  0  0
   52.5550   23.3540   45.2370 C   0  0  0  0  0  0  0  0  0  0  0  0
   51.2180   23.3870   45.0200 F   0  0  0  0  0  0  0  0  0  0  0  0
   53.4370   23.7250   44.2200 C   0  0  0  0  0  0  0  0  0  0  0  0
   54.8160   23.6920   44.4430 C   0  0  0  0  0  0  0  0  0  0  0  0
   56.1820   26.5900   46.0340 C   0  0  0  0  0  0  0  0  0  0  0  0
   55.1470   25.9420   46.3360 O   0  0  0  0  0  0  0  0  0  0  0  0
   56.0600   27.8400   45.5150 N   0  0  0  0  0  0  0  0  0  0  0  0
   58.9550   30.1400   43.8470 H   0  0  0  0  0  0  0  0  0  0  0  0
   58.6073   32.2057   42.6919 H   0  0  0  0  0  0  0  0  0  0  0  0
   56.9174   32.2803   43.3018 H   0  0  0  0  0  0  0  0  0  0  0  0
   58.7450   34.6301   43.4688 H   0  0  0  0  0  0  0  0  0  0  0  0
   59.5661   36.0341   45.3519 H   0  0  0  0  0  0  0  0  0  0  0  0
   59.7192   35.0934   47.6467 H   0  0  0  0  0  0  0  0  0  0  0  0
   57.8917   30.8378   48.2398 H   0  0  0  0  0  0  0  0  0  0  0  0
   59.6996   30.6016   48.1064 H   0  0  0  0  0  0  0  0  0  0  0  0
   57.9747   30.8419   50.5756 H   0  0  0  0  0  0  0  0  0  0  0  0
   59.2256   29.6106   50.1367 H   0  0  0  0  0  0  0  0  0  0  0  0
   58.4644   32.7487   51.3053 H   0  0  0  0  0  0  0  0  0  0  0  0
   60.1673   33.2774   51.5942 H   0  0  0  0  0  0  0  0  0  0  0  0
   58.8474   34.3072   49.5918 H   0  0  0  0  0  0  0  0  0  0  0  0
   60.5587   33.7166   49.3472 H   0  0  0  0  0  0  0  0  0  0  0  0
   58.2162   31.2980   46.1741 H   0  0  0  0  0  0  0  0  0  0  0  0
   59.3094   28.6599   45.0646 H   0  0  0  0  0  0  0  0  0  0  0  0
   59.5877   26.3687   46.0186 H   0  0  0  0  0  0  0  0  0  0  0  0
   54.8199   22.5816   47.6795 H   0  0  0  0  0  0  0  0  0  0  0  0
   52.3555   22.6510   47.2782 H   0  0  0  0  0  0  0  0  0  0  0  0
   53.0459   24.0435   43.2425 H   0  0  0  0  0  0  0  0  0  0  0  0
   55.5086   23.9893   43.6418 H   0  0  0  0  0  0  0  0  0  0  0  0
  1  2  2  0
  2  3  1  0
  3  4  1  0
  4  5  1  0
  5  6  2  0
  6  7  1  0
  7  8  2  0
  8  9  1  0
  9 10  1  0
 10 11  1  0
 11 12  1  0
 12 13  1  0
 13 14  1  0
 14 15  1  0
  9 16  2  0
  2 17  1  0
 17 18  2  0
 18 19  1  0
 19 20  2  0
 20 21  1  0
 21 22  1  0
 22 23  2  0
 22 24  2  0
 22 25  1  0
 25 26  2  0
 26 27  1  0
 27 28  2  0
 28 29  1  0
 28 30  1  0
 30 31  2  0
 20 32  1  0
 32 33  2  0
 32 34  1  0
 16  5  1  0
 34 17  1  0
 15 10  1  0
 31 25  1  0
  3 35  1  0
  4 36  1  0
  4 37  1  0
  6 38  1  0
  7 39  1  0
  8 40  1  0
 11 41  1  0
 11 42  1  0
 12 43  1  0
 12 44  1  0
 14 45  1  0
 14 46  1  0
 15 47  1  0
 15 48  1  0
 16 49  1  0
 18 50  1  0
 19 51  1  0
 26 52  1  0
 27 53  1  0
 30 54  1  0
 31 55  1  0
M  CHG  2  21  -1  34  -1
M  END
>  <UniqueID>  (88) 
80

>  <SMILES>  (88) 
O=C(NCc1cccc(N2CCOCC2)c1)c1ccc([N-]S(=O)(=O)c2ccc(F)cc2)c(=O)[n-]1

>  <Energy>  (88) 
69.06867201539748

>  <Genealogy>  (88) 
O=C(NCc1cccc(N2CCOCC2)c1)c1ccc([N-]S(=O)(=O)c2ccc(F)cc2)c(=O)[n-]1 (protonated)
O=C(NCc1cccc(N2CCOCC2)c1)c1ccc([N-]S(=O)(=O)c2ccc(F)cc2)c(=O)[n-]1 (3D coordinates assigned)
O=C(NCc1cccc(N2CCOCC2)c1)c1ccc([N-]S(=O)(=O)c2ccc(F)cc2)c(=O)[n-]1 (nonaromatic ring conformer: 69.06867201539748 kcal/mol)

>  <smiles>  (88) 
O=C(NCc1cccc(N2CCOCC2)c1)c1ccc(NS(=O)(=O)c2ccc(F)cc2)c(=O)[nH]1

>  <score_type>  (88) 
oracle

>  <origin>  (88) 
adg

>  <m_score__min__energy>  (88) 
-13.380000000000001

>  <m_primary>  (88) 
energy

$$$$
88:0
     RDKit          3D

 60 63  0  0  0  0  0  0  0  0999 V2000
   56.2630   29.3680   42.3850 C   0  0  0  0  0  0  0  0  0  0  0  0
   56.8400   30.5540   43.1050 C   0  0  0  0  0  0  0  0  0  0  0  0
   57.4240   31.6140   42.3930 C   0  0  0  0  0  0  0  0  0  0  0  0
   57.9540   32.7170   43.0760 C   0  0  0  0  0  0  0  0  0  0  0  0
   57.9310   32.7570   44.4790 C   0  0  0  0  0  0  0  0  0  0  0  0
   58.4380   33.9620   45.2220 C   0  0  0  0  0  0  0  0  0  0  0  0
   59.7540   33.6640   45.7780 N   0  0  0  0  0  0  0  0  0  0  0  0
   59.9070   32.9580   47.0160 C   0  0  0  0  0  0  0  0  0  0  0  0
   59.1700   33.2450   47.9990 O   0  0  0  0  0  0  0  0  0  0  0  0
   60.8810   31.8120   47.0890 C   0  0  1  0  0  0  0  0  0  0  0  0
   62.3230   32.2740   47.3560 C   0  0  0  0  0  0  0  0  0  0  0  0
   62.6250   31.8620   48.8040 C   0  0  1  0  0  0  0  0  0  0  0  0
   62.3180   33.0530   49.7480 C   0  0  0  0  0  0  0  0  0  0  0  0
   62.1130   32.6300   51.2010 C   0  0  0  0  0  0  0  0  0  0  0  0
   61.0020   31.5900   51.2860 C   0  0  0  0  0  0  0  0  0  0  0  0
   61.4100   30.3410   50.5080 C   0  0  0  0  0  0  0  0  0  0  0  0
   61.7180   30.6370   49.0230 C   0  0  1  0  0  0  0  0  0  0  0  0
   60.5510   30.8830   48.1750 N   0  0  0  0  0  0  0  0  0  0  0  0
   59.3710   30.0520   48.1510 C   0  0  0  0  0  0  0  0  0  0  0  0
   58.5540   30.0950   49.1100 O   0  0  0  0  0  0  0  0  0  0  0  0
   59.0690   29.1800   46.9960 C   0  0  0  0  0  0  0  0  0  0  0  0
   59.7030   29.3900   45.7600 C   0  0  0  0  0  0  0  0  0  0  0  0
   59.4410   28.5420   44.6810 C   0  0  0  0  0  0  0  0  0  0  0  0
   58.5350   27.4870   44.8190 C   0  0  0  0  0  0  0  0  0  0  0  0
   57.8810   27.2800   46.0390 C   0  0  0  0  0  0  0  0  0  0  0  0
   56.7980   25.9080   46.2350 S   0  0  0  0  0  0  0  0  0  0  0  0
   55.1680   26.4330   46.0100 N   0  0  0  0  0  0  0  0  0  0  0  0
   56.9530   25.3230   47.6100 O   0  0  0  0  0  0  0  0  0  0  0  0
   57.1210   24.8470   45.2220 O   0  0  0  0  0  0  0  0  0  0  0  0
   58.1370   28.1350   47.1170 C   0  0  0  0  0  0  0  0  0  0  0  0
   57.3450   31.6960   45.1890 C   0  0  0  0  0  0  0  0  0  0  0  0
   56.8050   30.6020   44.5060 C   0  0  0  0  0  0  0  0  0  0  0  0
   55.9048   28.6317   43.1196 H   0  0  0  0  0  0  0  0  0  0  0  0
   55.4233   29.6949   41.7542 H   0  0  0  0  0  0  0  0  0  0  0  0
   57.0385   28.9091   41.7542 H   0  0  0  0  0  0  0  0  0  0  0  0
   57.4657   31.5785   41.2944 H   0  0  0  0  0  0  0  0  0  0  0  0
   58.3895   33.5542   42.5108 H   0  0  0  0  0  0  0  0  0  0  0  0
   58.5148   34.8147   44.5313 H   0  0  0  0  0  0  0  0  0  0  0  0
   57.7417   34.2148   46.0352 H   0  0  0  0  0  0  0  0  0  0  0  0
   60.5810   33.7270   45.1380 H   0  0  0  0  0  0  0  0  0  0  0  0
   60.8060   31.3254   46.1053 H   0  0  0  0  0  0  0  0  0  0  0  0
   63.0195   31.7799   46.6626 H   0  0  0  0  0  0  0  0  0  0  0  0
   62.4380   33.3579   47.2080 H   0  0  0  0  0  0  0  0  0  0  0  0
   63.6747   31.6049   49.0088 H   0  0  0  0  0  0  0  0  0  0  0  0
   63.1599   33.7597   49.7048 H   0  0  0  0  0  0  0  0  0  0  0  0
   61.3781   33.5095   49.4042 H   0  0  0  0  0  0  0  0  0  0  0  0
   63.0469   32.1989   51.5907 H   0  0  0  0  0  0  0  0  0  0  0  0
   61.8323   33.5099   51.7985 H   0  0  0  0  0  0  0  0  0  0  0  0
   60.8283   31.3249   52.3394 H   0  0  0  0  0  0  0  0  0  0  0  0
   60.0792   32.0046   50.8541 H   0  0  0  0  0  0  0  0  0  0  0  0
   62.3093   29.9135   50.9754 H   0  0  0  0  0  0  0  0  0  0  0  0
   60.5631   29.6397   50.5381 H   0  0  0  0  0  0  0  0  0  0  0  0
   62.2135   29.6989   48.7322 H   0  0  0  0  0  0  0  0  0  0  0  0
   60.4086   30.2255   45.6413 H   0  0  0  0  0  0  0  0  0  0  0  0
   59.9497   28.7054   43.7195 H   0  0  0  0  0  0  0  0  0  0  0  0
   58.3357   26.8188   43.9682 H   0  0  0  0  0  0  0  0  0  0  0  0
   55.1710   27.4760   46.0700 H   0  0  0  0  0  0  0  0  0  0  0  0
   57.6038   27.9878   48.0678 H   0  0  0  0  0  0  0  0  0  0  0  0
   57.3108   31.7260   46.2881 H   0  0  0  0  0  0  0  0  0  0  0  0
   56.3503   29.7747   45.0706 H   0  0  0  0  0  0  0  0  0  0  0  0
  1  2  1  0
  2  3  2  0
  3  4  1  0
  4  5  2  0
  5  6  1  0
  6  7  1  0
  7  8  1  0
  8  9  2  0
  8 10  1  0
 10 11  1  0
 11 12  1  0
 12 13  1  0
 13 14  1  0
 14 15  1  0
 15 16  1  0
 16 17  1  0
 17 18  1  0
 18 19  1  0
 19 20  2  0
 19 21  1  0
 21 22  2  0
 22 23  1  0
 23 24  2  0
 24 25  1  0
 25 26  1  0
 26 27  1  0
 26 28  2  0
 26 29  2  0
 25 30  2  0
  5 31  1  0
 31 32  2  0
 32  2  1  0
 18 10  1  0
 30 21  1  0
 17 12  1  0
  1 33  1  0
  1 34  1  0
  1 35  1  0
  3 36  1  0
  4 37  1  0
  6 38  1  0
  6 39  1  0
  7 40  1  0
 10 41  1  6
 11 42  1  0
 11 43  1  0
 12 44  1  6
 13 45  1  0
 13 46  1  0
 14 47  1  0
 14 48  1  0
 15 49  1  0
 15 50  1  0
 16 51  1  0
 16 52  1  0
 17 53  1  6
 22 54  1  0
 23 55  1  0
 24 56  1  0
 27 57  1  0
 30 58  1  0
 31 59  1  0
 32 60  1  0
M  CHG  1  27  -1
M  END
>  <UniqueID>  (89) 
81

>  <SMILES>  (89) 
Cc1ccc(CNC(=O)[C@H]2C[C@H]3CCCCC3N2C(=O)c2cccc(S([NH-])(=O)=O)c2)cc1

>  <Energy>  (89) 
67.45218819832287

>  <Genealogy>  (89) 
Cc1ccc(CNC(=O)C2CC3CCCCC3N2C(=O)c2cccc(S([NH-])(=O)=O)c2)cc1 (protonated)
Cc1ccc(CNC(=O)[C@H]2C[C@H]3CCCCC3N2C(=O)c2cccc(S([NH-])(=O)=O)c2)cc1 (chirality)
Cc1ccc(CNC(=O)[C@H]2C[C@H]3CCCCC3N2C(=O)c2cccc(S([NH-])(=O)=O)c2)cc1 (3D coordinates assigned)
Cc1ccc(CNC(=O)[C@H]2C[C@H]3CCCCC3N2C(=O)c2cccc(S([NH-])(=O)=O)c2)cc1 (nonaromatic ring conformer: 67.45218819832287 kcal/mol)

>  <smiles>  (89) 
Cc1ccc(CNC(=O)C2CC3CCCCC3N2C(=O)c2cccc(S(N)(=O)=O)c2)cc1

>  <score_type>  (89) 
oracle

>  <origin>  (89) 
adg

>  <m_score__min__energy>  (89) 
-13.449999999999999

>  <m_primary>  (89) 
energy

$$$$
