0:0
     RDKit          3D

 24 25  0  0  0  0  0  0  0  0999 V2000
   58.2480   33.0040   43.0360 O   0  0  0  0  0  0  0  0  0  0  0  0
   58.2770   32.5050   44.1950 C   0  0  0  0  0  0  0  0  0  0  0  0
   58.6690   33.3700   45.3340 C   0  0  0  0  0  0  0  0  0  0  0  0
   59.2620   34.6280   45.1190 C   0  0  0  0  0  0  0  0  0  0  0  0
   59.6430   35.4250   46.2030 C   0  0  0  0  0  0  0  0  0  0  0  0
   59.4480   34.9710   47.5100 C   0  0  0  0  0  0  0  0  0  0  0  0
   58.8750   33.7170   47.7350 C   0  0  0  0  0  0  0  0  0  0  0  0
   58.4930   32.9160   46.6550 C   0  0  0  0  0  0  0  0  0  0  0  0
   57.9180   31.0760   44.3670 C   0  0  0  0  0  0  0  0  0  0  0  0
   58.9140   30.0910   44.5010 C   0  0  0  0  0  0  0  0  0  0  0  0
   58.5630   28.7450   44.6450 C   0  0  0  0  0  0  0  0  0  0  0  0
   57.2170   28.3680   44.6460 C   0  0  0  0  0  0  0  0  0  0  0  0
   56.2210   29.3360   44.4970 C   0  0  0  0  0  0  0  0  0  0  0  0
   54.9160   28.9690   44.4930 F   0  0  0  0  0  0  0  0  0  0  0  0
   56.5680   30.6840   44.3530 C   0  0  0  0  0  0  0  0  0  0  0  0
   59.4268   34.9865   44.0922 H   0  0  0  0  0  0  0  0  0  0  0  0
   60.0971   36.4112   46.0264 H   0  0  0  0  0  0  0  0  0  0  0  0
   59.7456   35.6008   48.3614 H   0  0  0  0  0  0  0  0  0  0  0  0
   58.7241   33.3592   48.7642 H   0  0  0  0  0  0  0  0  0  0  0  0
   58.0522   31.9250   46.8383 H   0  0  0  0  0  0  0  0  0  0  0  0
   59.9749   30.3815   44.4924 H   0  0  0  0  0  0  0  0  0  0  0  0
   59.3472   27.9819   44.7576 H   0  0  0  0  0  0  0  0  0  0  0  0
   56.9422   27.3094   44.7641 H   0  0  0  0  0  0  0  0  0  0  0  0
   55.7799   31.4412   44.2281 H   0  0  0  0  0  0  0  0  0  0  0  0
  1  2  2  0
  2  3  1  0
  3  4  2  0
  4  5  1  0
  5  6  2  0
  6  7  1  0
  7  8  2  0
  2  9  1  0
  9 10  2  0
 10 11  1  0
 11 12  2  0
 12 13  1  0
 13 14  1  0
 13 15  2  0
  8  3  1  0
 15  9  1  0
  4 16  1  0
  5 17  1  0
  6 18  1  0
  7 19  1  0
  8 20  1  0
 10 21  1  0
 11 22  1  0
 12 23  1  0
 15 24  1  0
M  END
>  <UniqueID>  (1) 
1

>  <SMILES>  (1) 
O=C(c1ccccc1)c1cccc(F)c1

>  <Energy>  (1) 
31.200050618454835

>  <Genealogy>  (1) 
O=C(c1ccccc1)c1cccc(F)c1 (3D coordinates assigned)
O=C(c1ccccc1)c1cccc(F)c1 (optimized conformer: 31.200050618454835 kcal/mol)

>  <smiles>  (1) 
O=C(c1ccccc1)c1cccc(F)c1

>  <score_type>  (1) 
oracle

>  <origin>  (1) 
adg

>  <m_score__min__energy>  (1) 
-6.0899999999999999

>  <m_primary>  (1) 
energy

$$$$
1:0
     RDKit          3D

 67 72  0  0  0  0  0  0  0  0999 V2000
   50.3700   29.2790   47.8630 C   0  0  0  0  0  0  0  0  0  0  0  0
   51.4480   30.1480   48.1970 O   0  0  0  0  0  0  0  0  0  0  0  0
   51.8190   30.4870   49.5080 C   0  0  0  0  0  0  0  0  0  0  0  0
   52.7760   29.7510   50.2300 C   0  0  0  0  0  0  0  0  0  0  0  0
   53.1320   30.1220   51.5380 C   0  0  0  0  0  0  0  0  0  0  0  0
   54.1520   29.2880   52.3120 C   0  0  1  0  0  0  0  0  0  0  0  0
   55.3720   30.0610   52.8170 C   0  0  0  0  0  0  0  0  0  0  0  0
   55.7330   31.3280   52.2890 C   0  0  0  0  0  0  0  0  0  0  0  0
   56.8770   31.9450   52.7740 C   0  0  0  0  0  0  0  0  0  0  0  0
   57.6740   31.3580   53.6940 C   0  0  0  0  0  0  0  0  0  0  0  0
   57.4100   30.0920   54.1970 C   0  0  0  0  0  0  0  0  0  0  0  0
   56.2560   29.4080   53.7290 C   0  0  0  0  0  0  0  0  0  0  0  0
   55.9390   27.9680   54.1090 C   0  0  1  0  0  0  0  0  0  0  0  0
   56.8840   27.3500   55.1730 C   0  0  0  0  0  0  0  0  0  0  0  0
   57.5610   26.1030   54.6790 C   0  0  0  0  0  0  0  0  0  0  0  0
   56.8700   25.0690   54.4690 O   0  0  0  0  0  0  0  0  0  0  0  0
   58.9840   26.0790   54.4900 N   0  0  0  0  0  0  0  0  0  0  0  0
   59.6920   25.0160   53.8270 C   0  0  0  0  0  0  0  0  0  0  0  0
   59.4200   23.6860   54.1780 C   0  0  0  0  0  0  0  0  0  0  0  0
   60.1180   22.6360   53.5730 C   0  0  0  0  0  0  0  0  0  0  0  0
   61.1070   22.9020   52.6160 C   0  0  0  0  0  0  0  0  0  0  0  0
   61.8610   21.7670   51.9890 C   0  0  0  0  0  0  0  0  0  0  0  0
   61.3990   24.2330   52.2800 C   0  0  0  0  0  0  0  0  0  0  0  0
   60.7010   25.2830   52.8830 C   0  0  0  0  0  0  0  0  0  0  0  0
   54.4450   27.8690   54.5100 C   0  0  1  0  0  0  0  0  0  0  0  0
   54.1050   28.6480   55.8070 C   0  0  0  0  0  0  0  0  0  0  0  0
   52.8480   29.2470   55.5720 O   0  0  0  0  0  0  0  0  0  0  0  0
   52.4680   29.1200   54.2570 C   0  0  0  0  0  0  0  0  0  0  0  0
   51.3240   29.4590   53.8540 O   0  0  0  0  0  0  0  0  0  0  0  0
   53.4720   28.4070   53.4200 C   0  0  1  0  0  0  0  0  0  0  0  0
   58.7350   32.1930   53.9860 O   0  0  0  0  0  0  0  0  0  0  0  0
   58.5950   33.3800   53.1940 C   0  0  0  0  0  0  0  0  0  0  0  0
   57.3980   33.1780   52.4320 O   0  0  0  0  0  0  0  0  0  0  0  0
   52.4950   31.2300   52.1270 C   0  0  0  0  0  0  0  0  0  0  0  0
   51.5390   31.9750   51.4140 C   0  0  0  0  0  0  0  0  0  0  0  0
   50.8960   33.0930   51.9700 O   0  0  0  0  0  0  0  0  0  0  0  0
   50.3750   33.1460   53.2940 C   0  0  0  0  0  0  0  0  0  0  0  0
   51.2090   31.5970   50.1070 C   0  0  0  0  0  0  0  0  0  0  0  0
   50.2630   32.3290   49.3970 O   0  0  0  0  0  0  0  0  0  0  0  0
   49.9032   28.9027   48.7852 H   0  0  0  0  0  0  0  0  0  0  0  0
   49.6235   29.8308   47.2729 H   0  0  0  0  0  0  0  0  0  0  0  0
   50.7508   28.4324   47.2729 H   0  0  0  0  0  0  0  0  0  0  0  0
   53.2514   28.8746   49.7653 H   0  0  0  0  0  0  0  0  0  0  0  0
   54.5783   28.5990   51.5680 H   0  0  0  0  0  0  0  0  0  0  0  0
   55.1198   31.8097   51.5131 H   0  0  0  0  0  0  0  0  0  0  0  0
   58.0773   29.6297   54.9393 H   0  0  0  0  0  0  0  0  0  0  0  0
   56.1266   27.3490   53.2193 H   0  0  0  0  0  0  0  0  0  0  0  0
   57.6541   28.0905   55.4349 H   0  0  0  0  0  0  0  0  0  0  0  0
   56.2743   27.0780   56.0472 H   0  0  0  0  0  0  0  0  0  0  0  0
   59.5490   26.8420   54.9230 H   0  0  0  0  0  0  0  0  0  0  0  0
   58.6521   23.4670   54.9346 H   0  0  0  0  0  0  0  0  0  0  0  0
   59.8897   21.5961   53.8496 H   0  0  0  0  0  0  0  0  0  0  0  0
   62.2852   21.1285   52.7779 H   0  0  0  0  0  0  0  0  0  0  0  0
   61.1773   21.1731   51.3647 H   0  0  0  0  0  0  0  0  0  0  0  0
   62.6735   22.1671   51.3647 H   0  0  0  0  0  0  0  0  0  0  0  0
   62.1814   24.4509   51.5381 H   0  0  0  0  0  0  0  0  0  0  0  0
   60.9415   26.3233   52.6184 H   0  0  0  0  0  0  0  0  0  0  0  0
   54.3031   26.7879   54.6551 H   0  0  0  0  0  0  0  0  0  0  0  0
   54.0486   27.9607   56.6640 H   0  0  0  0  0  0  0  0  0  0  0  0
   54.8745   29.3970   56.0454 H   0  0  0  0  0  0  0  0  0  0  0  0
   53.0366   27.6189   52.7881 H   0  0  0  0  0  0  0  0  0  0  0  0
   58.4980   34.2659   53.8388 H   0  0  0  0  0  0  0  0  0  0  0  0
   59.4703   33.5533   52.5506 H   0  0  0  0  0  0  0  0  0  0  0  0
   52.7481   31.5170   53.1583 H   0  0  0  0  0  0  0  0  0  0  0  0
   51.2003   33.0620   54.0164 H   0  0  0  0  0  0  0  0  0  0  0  0
   49.8520   34.1020   53.4442 H   0  0  0  0  0  0  0  0  0  0  0  0
   49.6702   32.3149   53.4442 H   0  0  0  0  0  0  0  0  0  0  0  0
  1  2  1  0
  2  3  1  0
  3  4  2  0
  4  5  1  0
  5  6  1  0
  6  7  1  0
  7  8  2  0
  8  9  1  0
  9 10  2  0
 10 11  1  0
 11 12  2  0
 12 13  1  0
 13 14  1  0
 14 15  1  0
 15 16  2  0
 15 17  1  0
 17 18  1  0
 18 19  2  0
 19 20  1  0
 20 21  2  0
 21 22  1  0
 21 23  1  0
 23 24  2  0
 13 25  1  0
 25 26  1  0
 26 27  1  0
 27 28  1  0
 28 29  2  0
 28 30  1  0
 10 31  1  0
 31 32  1  0
 32 33  1  0
  5 34  2  0
 34 35  1  0
 35 36  1  0
 36 37  1  0
 35 38  2  0
 38 39  1  0
 38  3  1  0
 30  6  1  0
 12  7  1  0
 24 18  1  0
 30 25  1  0
 33  9  1  0
  1 40  1  0
  1 41  1  0
  1 42  1  0
  4 43  1  0
  6 44  1  6
  8 45  1  0
 11 46  1  0
 13 47  1  6
 14 48  1  0
 14 49  1  0
 17 50  1  0
 19 51  1  0
 20 52  1  0
 22 53  1  0
 22 54  1  0
 22 55  1  0
 23 56  1  0
 24 57  1  0
 25 58  1  1
 26 59  1  0
 26 60  1  0
 30 61  1  6
 32 62  1  0
 32 63  1  0
 34 64  1  0
 37 65  1  0
 37 66  1  0
 37 67  1  0
M  CHG  1  39  -1
M  END
>  <UniqueID>  (2) 
2

>  <SMILES>  (2) 
COc1cc([C@H]2c3cc4c(cc3[C@@H](CC(=O)Nc3ccc(C)cc3)C3COC(=O)C32)OCO4)cc(OC)c1[O-]

>  <Energy>  (2) 
127.03105481952271

>  <Genealogy>  (2) 
COc1cc(C2c3cc4c(cc3C(CC(=O)Nc3ccc(C)cc3)C3COC(=O)C23)OCO4)cc(OC)c1[O-] (protonated)
COc1cc([C@H]2c3cc4c(cc3[C@@H](CC(=O)Nc3ccc(C)cc3)C3COC(=O)C32)OCO4)cc(OC)c1[O-] (chirality)
COc1cc([C@H]2c3cc4c(cc3[C@@H](CC(=O)Nc3ccc(C)cc3)C3COC(=O)C32)OCO4)cc(OC)c1[O-] (3D coordinates assigned)
COc1cc([C@H]2c3cc4c(cc3[C@@H](CC(=O)Nc3ccc(C)cc3)C3COC(=O)C32)OCO4)cc(OC)c1[O-] (nonaromatic ring conformer: 127.03105481952271 kcal/mol)

>  <smiles>  (2) 
COc1cc(C2c3cc4c(cc3C(CC(=O)Nc3ccc(C)cc3)C3COC(=O)C23)OCO4)cc(OC)c1O

>  <score_type>  (2) 
oracle

>  <origin>  (2) 
adg

>  <m_score__min__energy>  (2) 
-11.15

>  <m_primary>  (2) 
energy

$$$$
2:0
     RDKit          3D

 41 43  0  0  0  0  0  0  0  0999 V2000
   55.7260   29.7910   44.9600 N   0  0  0  0  0  0  0  0  0  0  0  0
   56.5790   30.6200   44.4940 C   0  0  0  0  0  0  0  0  0  0  0  0
   56.7650   30.8560   43.1540 C   0  0  0  0  0  0  0  0  0  0  0  0
   57.7080   31.7700   42.7330 C   0  0  0  0  0  0  0  0  0  0  0  0
   58.4380   32.4200   43.6790 N   0  0  0  0  0  0  0  0  0  0  0  0
   58.2620   32.1950   44.9930 C   0  0  0  0  0  0  0  0  0  0  0  0
   59.0550   32.9070   45.9440 N   0  0  0  0  0  0  0  0  0  0  0  0
   60.3080   32.3420   46.3730 C   0  0  0  0  0  0  0  0  0  0  0  0
   61.1260   33.4650   47.0250 C   0  0  0  0  0  0  0  0  0  0  0  0
   60.2860   33.9070   48.1490 N   0  0  0  0  0  0  0  0  0  0  0  0
   60.7070   33.7070   49.4910 C   0  0  0  0  0  0  0  0  0  0  0  0
   61.8140   33.1440   49.6930 O   0  0  0  0  0  0  0  0  0  0  0  0
   59.8090   34.1780   50.5660 C   0  0  0  0  0  0  0  0  0  0  0  0
   58.8940   33.1090   51.0430 C   0  0  0  0  0  0  0  0  0  0  0  0
   58.2000   33.3910   52.2250 C   0  0  0  0  0  0  0  0  0  0  0  0
   57.3180   32.4720   52.7690 C   0  0  0  0  0  0  0  0  0  0  0  0
   57.1660   31.2800   52.0880 C   0  0  0  0  0  0  0  0  0  0  0  0
   56.0490   30.0790   52.7480 Cl  0  0  0  0  0  0  0  0  0  0  0  0
   57.8450   30.9910   50.9210 C   0  0  0  0  0  0  0  0  0  0  0  0
   58.7250   31.9110   50.3810 C   0  0  0  0  0  0  0  0  0  0  0  0
   59.0400   34.5390   47.8030 C   0  0  0  0  0  0  0  0  0  0  0  0
   58.5510   34.1750   46.4380 C   0  0  0  0  0  0  0  0  0  0  0  0
   57.3350   31.3000   45.3720 N   0  0  0  0  0  0  0  0  0  0  0  0
   55.5250   29.7000   45.9950 H   0  0  0  0  0  0  0  0  0  0  0  0
   56.1592   30.3136   42.4132 H   0  0  0  0  0  0  0  0  0  0  0  0
   57.8654   31.9678   41.6624 H   0  0  0  0  0  0  0  0  0  0  0  0
   59.1420   33.1030   43.3280 H   0  0  0  0  0  0  0  0  0  0  0  0
   60.1268   31.5384   47.1020 H   0  0  0  0  0  0  0  0  0  0  0  0
   60.8519   31.9155   45.5173 H   0  0  0  0  0  0  0  0  0  0  0  0
   62.0939   33.0860   47.3850 H   0  0  0  0  0  0  0  0  0  0  0  0
   61.3614   34.2801   46.3249 H   0  0  0  0  0  0  0  0  0  0  0  0
   60.4208   34.5240   51.4122 H   0  0  0  0  0  0  0  0  0  0  0  0
   59.1924   34.9923   50.1577 H   0  0  0  0  0  0  0  0  0  0  0  0
   58.3571   34.3560   52.7291 H   0  0  0  0  0  0  0  0  0  0  0  0
   56.7660   32.6811   53.6972 H   0  0  0  0  0  0  0  0  0  0  0  0
   57.6854   30.0254   50.4189 H   0  0  0  0  0  0  0  0  0  0  0  0
   59.2731   31.6940   49.4523 H   0  0  0  0  0  0  0  0  0  0  0  0
   58.2795   34.2372   48.5382 H   0  0  0  0  0  0  0  0  0  0  0  0
   59.2134   35.6252   47.8079 H   0  0  0  0  0  0  0  0  0  0  0  0
   57.4527   34.1216   46.4679 H   0  0  0  0  0  0  0  0  0  0  0  0
   58.9215   34.9511   45.7522 H   0  0  0  0  0  0  0  0  0  0  0  0
  1  2  2  3
  2  3  1  0
  3  4  2  0
  4  5  1  0
  5  6  1  0
  6  7  1  0
  7  8  1  0
  8  9  1  0
  9 10  1  0
 10 11  1  0
 11 12  2  0
 11 13  1  0
 13 14  1  0
 14 15  2  0
 15 16  1  0
 16 17  2  0
 17 18  1  0
 17 19  1  0
 19 20  2  0
 10 21  1  0
 21 22  1  0
  6 23  2  0
 23  2  1  0
 22  7  1  0
 20 14  1  0
  1 24  1  0
  3 25  1  0
  4 26  1  0
  5 27  1  0
  8 28  1  0
  8 29  1  0
  9 30  1  0
  9 31  1  0
 13 32  1  0
 13 33  1  0
 15 34  1  0
 16 35  1  0
 19 36  1  0
 20 37  1  0
 21 38  1  0
 21 39  1  0
 22 40  1  0
 22 41  1  0
M  END
>  <smiles>  (3) 
N=c1cc[nH]c(N2CCN(C(=O)Cc3ccc(Cl)cc3)CC2)n1

>  <score_type>  (3) 
oracle

>  <origin>  (3) 
adg

>  <m_score__min__energy>  (3) 
-8.0099999999999998

>  <m_primary>  (3) 
energy

$$$$
3:0
     RDKit          3D

 52 55  0  0  0  0  0  0  0  0999 V2000
   60.8278   34.2872   48.4457 H   0  0  0  0  0  0  0  0  0  0  0  0
   60.5840   33.5260   47.6900 C   0  0  0  0  0  0  0  0  0  0  0  0
   61.3910   32.4530   47.6030 C   0  0  0  0  0  0  0  0  0  0  0  0
   60.8930   31.0740   47.7720 C   0  0  0  0  0  0  0  0  0  0  0  0
   61.0410   30.2320   48.8630 C   0  0  0  0  0  0  0  0  0  0  0  0
   61.7580   30.5380   50.1380 C   0  0  0  0  0  0  0  0  0  0  0  0
   61.1201   30.2658   50.9918 H   0  0  0  0  0  0  0  0  0  0  0  0
   62.6934   29.9607   50.1803 H   0  0  0  0  0  0  0  0  0  0  0  0
   61.9883   31.6128   50.1803 H   0  0  0  0  0  0  0  0  0  0  0  0
   60.4130   29.0600   48.6230 N   0  0  0  0  0  0  0  0  0  0  0  0
   59.8810   29.1200   47.4090 N   0  0  0  0  0  0  0  0  0  0  0  0
   59.1330   28.0410   46.8170 C   0  0  0  0  0  0  0  0  0  0  0  0
   59.6610   26.7370   46.7510 C   0  0  0  0  0  0  0  0  0  0  0  0
   60.6655   26.5326   47.1500 H   0  0  0  0  0  0  0  0  0  0  0  0
   58.9150   25.7010   46.1810 C   0  0  0  0  0  0  0  0  0  0  0  0
   59.3389   24.6876   46.1230 H   0  0  0  0  0  0  0  0  0  0  0  0
   57.6330   25.9490   45.6850 C   0  0  0  0  0  0  0  0  0  0  0  0
   57.0507   25.1332   45.2318 H   0  0  0  0  0  0  0  0  0  0  0  0
   57.0910   27.2340   45.7650 C   0  0  0  0  0  0  0  0  0  0  0  0
   56.0782   27.4277   45.3821 H   0  0  0  0  0  0  0  0  0  0  0  0
   57.8340   28.2740   46.3310 C   0  0  0  0  0  0  0  0  0  0  0  0
   57.3993   29.2823   46.3968 H   0  0  0  0  0  0  0  0  0  0  0  0
   60.1480   30.3340   46.8810 C   0  0  0  0  0  0  0  0  0  0  0  0
   59.7270   30.7420   45.7650 O   0  0  0  0  0  0  0  0  0  0  0  0
   63.1280   32.7100   47.4350 S   0  0  0  0  0  0  0  0  0  0  0  0
   63.8050   31.4450   46.9870 O   0  0  0  0  0  0  0  0  0  0  0  0
   63.3700   33.7820   46.4090 O   0  0  0  0  0  0  0  0  0  0  0  0
   63.7960   33.1740   48.9970 C   0  0  0  0  0  0  0  0  0  0  0  0
   65.0630   32.7090   49.3730 C   0  0  0  0  0  0  0  0  0  0  0  0
   65.6393   32.0729   48.6850 H   0  0  0  0  0  0  0  0  0  0  0  0
   65.5980   33.0500   50.6190 C   0  0  0  0  0  0  0  0  0  0  0  0
   66.5982   32.6906   50.9027 H   0  0  0  0  0  0  0  0  0  0  0  0
   64.8640   33.8490   51.5090 C   0  0  0  0  0  0  0  0  0  0  0  0
   65.4530   34.2470   52.8300 C   0  0  0  0  0  0  0  0  0  0  0  0
   64.8403   33.8330   53.6443 H   0  0  0  0  0  0  0  0  0  0  0  0
   66.4782   33.8558   52.9072 H   0  0  0  0  0  0  0  0  0  0  0  0
   65.4725   35.3441   52.9072 H   0  0  0  0  0  0  0  0  0  0  0  0
   63.6010   34.3260   51.1250 C   0  0  0  0  0  0  0  0  0  0  0  0
   63.0295   34.9717   51.8080 H   0  0  0  0  0  0  0  0  0  0  0  0
   63.0650   33.9850   49.8790 C   0  0  0  0  0  0  0  0  0  0  0  0
   62.0694   34.3528   49.5899 H   0  0  0  0  0  0  0  0  0  0  0  0
   59.3930   33.7570   46.8440 C   0  0  0  0  0  0  0  0  0  0  0  0
   58.1320   33.2330   47.1830 C   0  0  0  0  0  0  0  0  0  0  0  0
   58.0147   32.6395   48.1017 H   0  0  0  0  0  0  0  0  0  0  0  0
   57.0280   33.4630   46.3580 C   0  0  0  0  0  0  0  0  0  0  0  0
   56.0422   33.0616   46.6355 H   0  0  0  0  0  0  0  0  0  0  0  0
   57.1740   34.2020   45.1810 C   0  0  0  0  0  0  0  0  0  0  0  0
   56.3029   34.3864   44.5351 H   0  0  0  0  0  0  0  0  0  0  0  0
   58.4290   34.7070   44.8250 C   0  0  0  0  0  0  0  0  0  0  0  0
   58.5453   35.2862   43.8971 H   0  0  0  0  0  0  0  0  0  0  0  0
   59.5360   34.4760   45.6480 C   0  0  0  0  0  0  0  0  0  0  0  0
   60.5244   34.8603   45.3558 H   0  0  0  0  0  0  0  0  0  0  0  0
  1  2  1  0
  2  3  2  0
  3  4  1  0
  4  5  2  0
  5  6  1  0
  6  7  1  0
  6  8  1  0
  6  9  1  0
  5 10  1  0
 10 11  1  0
 11 12  1  0
 12 13  2  0
 13 14  1  0
 13 15  1  0
 15 16  1  0
 15 17  2  0
 17 18  1  0
 17 19  1  0
 19 20  1  0
 19 21  2  0
 21 22  1  0
 11 23  1  0
 23 24  2  0
  3 25  1  0
 25 26  2  0
 25 27  2  0
 25 28  1  0
 28 29  2  0
 29 30  1  0
 29 31  1  0
 31 32  1  0
 31 33  2  0
 33 34  1  0
 34 35  1  0
 34 36  1  0
 34 37  1  0
 33 38  1  0
 38 39  1  0
 38 40  2  0
 40 41  1  0
  2 42  1  0
 42 43  2  0
 43 44  1  0
 43 45  1  0
 45 46  1  0
 45 47  2  0
 47 48  1  0
 47 49  1  0
 49 50  1  0
 49 51  2  0
 51 52  1  0
 23  4  1  0
 40 28  1  0
 51 42  1  0
 21 12  1  0
M  CHG  1  10  -1
M  END
>  <UniqueID>  (4) 
3

>  <SMILES>  (4) 
Cc1ccc(S(=O)(=O)/C(=C/c2ccccc2)c2c(C)[n-]n(-c3ccccc3)c2=O)cc1

>  <Energy>  (4) 
102.18121007944626

>  <Genealogy>  (4) 
Cc1ccc(S(=O)(=O)C(=Cc2ccccc2)c2c(C)[n-]n(-c3ccccc3)c2=O)cc1 (protonated)
Cc1ccc(S(=O)(=O)/C(=C/c2ccccc2)c2c(C)[n-]n(-c3ccccc3)c2=O)cc1 (cis-trans isomerization)
Cc1ccc(S(=O)(=O)/C(=C/c2ccccc2)c2c(C)[n-]n(-c3ccccc3)c2=O)cc1 (3D coordinates assigned)
Cc1ccc(S(=O)(=O)/C(=C/c2ccccc2)c2c(C)[n-]n(-c3ccccc3)c2=O)cc1 (optimized conformer: 102.18121007944626 kcal/mol)

>  <smiles>  (4) 
Cc1ccc(S(=O)(=O)C(=Cc2ccccc2)c2c(C)[nH]n(-c3ccccc3)c2=O)cc1

>  <score_type>  (4) 
oracle

>  <origin>  (4) 
adg

>  <m_score__min__energy>  (4) 
-10.49

>  <m_primary>  (4) 
energy

$$$$
4:0
     RDKit          3D

 39 41  0  0  0  0  0  0  0  0999 V2000
   54.7500   25.4140   45.9710 O   0  0  0  0  0  0  0  0  0  0  0  0
   55.8610   25.1820   45.4500 N   0  0  0  0  0  0  0  0  0  0  0  0
   56.0310   24.0140   44.7450 O   0  0  0  0  0  0  0  0  0  0  0  0
   56.9440   26.1230   45.5790 C   0  0  0  0  0  0  0  0  0  0  0  0
   58.2740   25.6760   45.5780 C   0  0  0  0  0  0  0  0  0  0  0  0
   59.3260   26.5850   45.6980 C   0  0  0  0  0  0  0  0  0  0  0  0
   59.0720   27.9560   45.8050 C   0  0  0  0  0  0  0  0  0  0  0  0
   60.1620   28.8310   45.9060 O   0  0  0  0  0  0  0  0  0  0  0  0
   60.3440   29.7640   46.9390 C   0  0  0  0  0  0  0  0  0  0  0  0
   59.7650   29.5050   48.1880 C   0  0  0  0  0  0  0  0  0  0  0  0
   59.9280   30.4090   49.2430 C   0  0  0  0  0  0  0  0  0  0  0  0
   60.6800   31.5730   49.0590 C   0  0  0  0  0  0  0  0  0  0  0  0
   61.2750   31.8310   47.8210 C   0  0  0  0  0  0  0  0  0  0  0  0
   61.1130   30.9310   46.7640 C   0  0  0  0  0  0  0  0  0  0  0  0
   57.7420   28.4220   45.8410 C   0  0  0  0  0  0  0  0  0  0  0  0
   57.4970   29.8220   46.0470 N   0  0  0  0  0  0  0  0  0  0  0  0
   57.3490   31.0130   44.7970 S   0  0  0  0  0  0  0  0  0  0  0  0
   55.8950   31.2290   44.4910 O   0  0  0  0  0  0  0  0  0  0  0  0
   58.0360   30.5230   43.5530 O   0  0  0  0  0  0  0  0  0  0  0  0
   58.0440   32.5350   45.3480 C   0  0  0  0  0  0  0  0  0  0  0  0
   58.5640   33.4620   44.4310 C   0  0  0  0  0  0  0  0  0  0  0  0
   59.1340   34.6550   44.8890 C   0  0  0  0  0  0  0  0  0  0  0  0
   59.1850   34.9270   46.2600 C   0  0  0  0  0  0  0  0  0  0  0  0
   58.6660   34.0070   47.1740 C   0  0  0  0  0  0  0  0  0  0  0  0
   58.0960   32.8140   46.7200 C   0  0  0  0  0  0  0  0  0  0  0  0
   56.6860   27.4990   45.7200 C   0  0  0  0  0  0  0  0  0  0  0  0
   58.4889   24.6015   45.4819 H   0  0  0  0  0  0  0  0  0  0  0  0
   60.3636   26.2201   45.7085 H   0  0  0  0  0  0  0  0  0  0  0  0
   59.1793   28.5863   48.3399 H   0  0  0  0  0  0  0  0  0  0  0  0
   59.4638   30.2036   50.2189 H   0  0  0  0  0  0  0  0  0  0  0  0
   60.8033   32.2854   49.8880 H   0  0  0  0  0  0  0  0  0  0  0  0
   61.8718   32.7439   47.6782 H   0  0  0  0  0  0  0  0  0  0  0  0
   61.5874   31.1347   45.7927 H   0  0  0  0  0  0  0  0  0  0  0  0
   58.5234   33.2505   43.3523 H   0  0  0  0  0  0  0  0  0  0  0  0
   59.5426   35.3800   44.1697 H   0  0  0  0  0  0  0  0  0  0  0  0
   59.6337   35.8652   46.6184 H   0  0  0  0  0  0  0  0  0  0  0  0
   58.7058   34.2215   48.2522 H   0  0  0  0  0  0  0  0  0  0  0  0
   57.6870   32.0921   47.4422 H   0  0  0  0  0  0  0  0  0  0  0  0
   55.6463   27.8579   45.7359 H   0  0  0  0  0  0  0  0  0  0  0  0
  1  2  2  0
  2  3  1  0
  2  4  1  0
  4  5  2  0
  5  6  1  0
  6  7  2  0
  7  8  1  0
  8  9  1  0
  9 10  2  0
 10 11  1  0
 11 12  2  0
 12 13  1  0
 13 14  2  0
  7 15  1  0
 15 16  1  0
 16 17  1  0
 17 18  2  0
 17 19  2  0
 17 20  1  0
 20 21  2  0
 21 22  1  0
 22 23  2  0
 23 24  1  0
 24 25  2  0
 15 26  2  0
 26  4  1  0
 14  9  1  0
 25 20  1  0
  5 27  1  0
  6 28  1  0
 10 29  1  0
 11 30  1  0
 12 31  1  0
 13 32  1  0
 14 33  1  0
 21 34  1  0
 22 35  1  0
 23 36  1  0
 24 37  1  0
 25 38  1  0
 26 39  1  0
M  CHG  3   2   1   3  -1  16  -1
M  END
>  <UniqueID>  (5) 
4

>  <SMILES>  (5) 
O=[N+]([O-])c1ccc(Oc2ccccc2)c([N-]S(=O)(=O)c2ccccc2)c1

>  <Energy>  (5) 
52.6576618821403

>  <Genealogy>  (5) 
O=[N+]([O-])c1ccc(Oc2ccccc2)c([N-]S(=O)(=O)c2ccccc2)c1 (protonated)
O=[N+]([O-])c1ccc(Oc2ccccc2)c([N-]S(=O)(=O)c2ccccc2)c1 (3D coordinates assigned)
O=[N+]([O-])c1ccc(Oc2ccccc2)c([N-]S(=O)(=O)c2ccccc2)c1 (optimized conformer: 52.6576618821403 kcal/mol)

>  <smiles>  (5) 
O=[N+]([O-])c1ccc(Oc2ccccc2)c(NS(=O)(=O)c2ccccc2)c1

>  <score_type>  (5) 
oracle

>  <origin>  (5) 
adg

>  <m_score__min__energy>  (5) 
-10.119999999999999

>  <m_primary>  (5) 
energy

$$$$
5:0
     RDKit          3D

 46 49  0  0  0  0  0  0  0  0999 V2000
   56.3320   28.7910   44.8700 O   0  0  0  0  0  0  0  0  0  0  0  0
   56.9980   29.7760   45.2830 C   0  0  0  0  0  0  0  0  0  0  0  0
   56.7210   31.0120   44.7990 N   0  0  0  0  0  0  0  0  0  0  0  0
   57.3790   32.1200   45.2230 C   0  0  0  0  0  0  0  0  0  0  0  0
   57.0480   33.3670   44.6820 C   0  0  0  0  0  0  0  0  0  0  0  0
   57.6960   34.5200   45.1270 C   0  0  0  0  0  0  0  0  0  0  0  0
   58.6720   34.4340   46.1200 C   0  0  0  0  0  0  0  0  0  0  0  0
   59.0120   33.1940   46.6690 C   0  0  0  0  0  0  0  0  0  0  0  0
   58.3790   32.0150   46.2210 C   0  0  0  0  0  0  0  0  0  0  0  0
   58.6930   30.7350   46.7400 C   0  0  0  0  0  0  0  0  0  0  0  0
   59.7340   30.5690   47.7800 C   0  0  0  0  0  0  0  0  0  0  0  0
   59.4080   30.0080   49.0260 C   0  0  0  0  0  0  0  0  0  0  0  0
   60.3900   29.8640   50.0110 C   0  0  0  0  0  0  0  0  0  0  0  0
   61.7010   30.2750   49.7580 C   0  0  0  0  0  0  0  0  0  0  0  0
   62.0340   30.8320   48.5190 C   0  0  0  0  0  0  0  0  0  0  0  0
   61.0540   30.9780   47.5320 C   0  0  0  0  0  0  0  0  0  0  0  0
   58.0090   29.6000   46.2410 C   0  0  0  0  0  0  0  0  0  0  0  0
   58.3800   27.9320   46.8360 S   0  0  0  0  0  0  0  0  0  0  0  0
   59.4970   27.4520   45.4640 C   0  0  0  0  0  0  0  0  0  0  0  0
   58.7290   27.1120   44.1760 C   0  0  0  0  0  0  0  0  0  0  0  0
   57.3940   26.5440   44.4320 N   0  0  0  0  0  0  0  0  0  0  0  0
   57.3960   25.1010   44.3540 C   0  0  0  0  0  0  0  0  0  0  0  0
   58.1530   24.3370   45.2570 C   0  0  0  0  0  0  0  0  0  0  0  0
   58.1580   22.9450   45.1630 C   0  0  0  0  0  0  0  0  0  0  0  0
   57.4030   22.3230   44.1680 C   0  0  0  0  0  0  0  0  0  0  0  0
   56.6700   23.0710   43.3030 N   0  0  0  0  0  0  0  0  0  0  0  0
   56.6470   24.4290   43.3720 C   0  0  0  0  0  0  0  0  0  0  0  0
   56.2744   33.4388   43.9033 H   0  0  0  0  0  0  0  0  0  0  0  0
   57.4369   35.4976   44.6944 H   0  0  0  0  0  0  0  0  0  0  0  0
   59.1763   35.3458   46.4726 H   0  0  0  0  0  0  0  0  0  0  0  0
   59.7785   33.1370   47.4559 H   0  0  0  0  0  0  0  0  0  0  0  0
   58.3772   29.6810   49.2274 H   0  0  0  0  0  0  0  0  0  0  0  0
   60.1299   29.4266   50.9862 H   0  0  0  0  0  0  0  0  0  0  0  0
   62.4722   30.1604   50.5340 H   0  0  0  0  0  0  0  0  0  0  0  0
   63.0666   31.1552   48.3209 H   0  0  0  0  0  0  0  0  0  0  0  0
   61.3184   31.4149   46.5577 H   0  0  0  0  0  0  0  0  0  0  0  0
   60.1819   28.2875   45.2570 H   0  0  0  0  0  0  0  0  0  0  0  0
   60.0446   26.5506   45.7764 H   0  0  0  0  0  0  0  0  0  0  0  0
   58.6104   28.0326   43.5857 H   0  0  0  0  0  0  0  0  0  0  0  0
   59.3120   26.3500   43.6380 H   0  0  0  0  0  0  0  0  0  0  0  0
   57.0930   26.8250   45.3950 H   0  0  0  0  0  0  0  0  0  0  0  0
   56.6980   26.9500   43.7680 H   0  0  0  0  0  0  0  0  0  0  0  0
   58.7428   24.8368   46.0395 H   0  0  0  0  0  0  0  0  0  0  0  0
   58.7517   22.3433   45.8669 H   0  0  0  0  0  0  0  0  0  0  0  0
   57.4014   21.2262   44.0840 H   0  0  0  0  0  0  0  0  0  0  0  0
   56.0402   25.0038   42.6569 H   0  0  0  0  0  0  0  0  0  0  0  0
  1  2  2  0
  2  3  1  0
  3  4  1  0
  4  5  2  0
  5  6  1  0
  6  7  2  0
  7  8  1  0
  8  9  2  0
  9 10  1  0
 10 11  1  0
 11 12  2  0
 12 13  1  0
 13 14  2  0
 14 15  1  0
 15 16  2  0
 10 17  2  0
 17 18  1  0
 18 19  1  0
 19 20  1  0
 20 21  1  0
 21 22  1  0
 22 23  2  0
 23 24  1  0
 24 25  2  0
 25 26  1  0
 26 27  2  0
 17  2  1  0
 27 22  1  0
  9  4  1  0
 16 11  1  0
  5 28  1  0
  6 29  1  0
  7 30  1  0
  8 31  1  0
 12 32  1  0
 13 33  1  0
 14 34  1  0
 15 35  1  0
 16 36  1  0
 19 37  1  0
 19 38  1  0
 20 39  1  0
 20 40  1  0
 21 41  1  0
 21 42  1  0
 23 43  1  0
 24 44  1  0
 25 45  1  0
 27 46  1  0
M  CHG  2   3  -1  21   1
M  END
>  <UniqueID>  (6) 
5

>  <SMILES>  (6) 
O=c1[n-]c2ccccc2c(-c2ccccc2)c1SCC[NH2+]c1cccnc1

>  <Energy>  (6) 
62.45816041592075

>  <Genealogy>  (6) 
O=c1[n-]c2ccccc2c(-c2ccccc2)c1SCC[NH2+]c1cccnc1 (protonated)
O=c1[n-]c2ccccc2c(-c2ccccc2)c1SCC[NH2+]c1cccnc1 (3D coordinates assigned)
O=c1[n-]c2ccccc2c(-c2ccccc2)c1SCC[NH2+]c1cccnc1 (optimized conformer: 62.45816041592075 kcal/mol)

>  <smiles>  (6) 
O=c1[nH]c2ccccc2c(-c2ccccc2)c1SCCNc1cccnc1

>  <score_type>  (6) 
oracle

>  <origin>  (6) 
adg

>  <m_score__min__energy>  (6) 
-7.5999999999999996

>  <m_primary>  (6) 
energy

$$$$
6:0
     RDKit          3D

 52 55  0  0  0  0  0  0  0  0999 V2000
   60.3100   33.4800   51.8230 C   0  0  0  0  0  0  0  0  0  0  0  0
   61.2040   33.2980   50.6340 C   0  0  0  0  0  0  0  0  0  0  0  0
   62.5000   32.7460   50.8010 C   0  0  0  0  0  0  0  0  0  0  0  0
   63.3660   32.6060   49.7020 C   0  0  0  0  0  0  0  0  0  0  0  0
   62.9150   33.0340   48.4570 C   0  0  0  0  0  0  0  0  0  0  0  0
   63.5880   33.0100   47.2930 N   0  0  0  0  0  0  0  0  0  0  0  0
   62.7610   33.5500   46.3700 C   0  0  0  0  0  0  0  0  0  0  0  0
   61.5500   33.9060   46.9540 C   0  0  0  0  0  0  0  0  0  0  0  0
   60.4000   34.5930   46.2810 C   0  0  0  0  0  0  0  0  0  0  0  0
   59.0890   34.2920   47.0090 C   0  0  0  0  0  0  0  0  0  0  0  0
   58.7480   32.8800   46.8790 N   0  0  0  0  0  0  0  0  0  0  0  0
   58.2830   32.2830   45.6620 C   0  0  0  0  0  0  0  0  0  0  0  0
   58.1530   32.9930   44.6270 O   0  0  0  0  0  0  0  0  0  0  0  0
   57.9440   30.8420   45.6210 C   0  0  0  0  0  0  0  0  0  0  0  0
   57.0220   30.3480   44.6830 C   0  0  0  0  0  0  0  0  0  0  0  0
   56.6990   28.9890   44.6490 C   0  0  0  0  0  0  0  0  0  0  0  0
   57.2960   28.0890   45.5480 C   0  0  0  0  0  0  0  0  0  0  0  0
   56.9550   26.6450   45.5240 C   0  0  0  0  0  0  0  0  0  0  0  0
   55.8370   26.2640   45.9680 O   0  0  0  0  0  0  0  0  0  0  0  0
   57.8990   25.6730   45.0460 N   0  0  0  0  0  0  0  0  0  0  0  0
   57.5310   24.3700   44.5590 C   0  0  0  0  0  0  0  0  0  0  0  0
   57.9950   23.1940   45.1800 C   0  0  0  0  0  0  0  0  0  0  0  0
   57.5980   21.9400   44.7040 C   0  0  0  0  0  0  0  0  0  0  0  0
   56.7270   21.8470   43.6170 C   0  0  0  0  0  0  0  0  0  0  0  0
   56.3350   20.6310   43.1640 F   0  0  0  0  0  0  0  0  0  0  0  0
   56.2490   23.0090   43.0040 C   0  0  0  0  0  0  0  0  0  0  0  0
   56.6430   24.2640   43.4760 C   0  0  0  0  0  0  0  0  0  0  0  0
   58.2120   28.5840   46.4930 C   0  0  0  0  0  0  0  0  0  0  0  0
   58.5330   29.9440   46.5280 C   0  0  0  0  0  0  0  0  0  0  0  0
   61.6680   33.5790   48.2910 C   0  0  0  0  0  0  0  0  0  0  0  0
   60.7860   33.7350   49.3600 C   0  0  0  0  0  0  0  0  0  0  0  0
   60.8975   33.3604   52.7452 H   0  0  0  0  0  0  0  0  0  0  0  0
   59.8673   34.4867   51.7982 H   0  0  0  0  0  0  0  0  0  0  0  0
   59.5090   32.7265   51.7982 H   0  0  0  0  0  0  0  0  0  0  0  0
   62.8307   32.4244   51.7996 H   0  0  0  0  0  0  0  0  0  0  0  0
   64.3693   32.1714   49.8227 H   0  0  0  0  0  0  0  0  0  0  0  0
   64.5600   32.6610   47.1340 H   0  0  0  0  0  0  0  0  0  0  0  0
   63.0105   33.6882   45.3076 H   0  0  0  0  0  0  0  0  0  0  0  0
   60.5749   35.6790   46.2865 H   0  0  0  0  0  0  0  0  0  0  0  0
   60.3234   34.2238   45.2476 H   0  0  0  0  0  0  0  0  0  0  0  0
   59.2006   34.5413   48.0745 H   0  0  0  0  0  0  0  0  0  0  0  0
   58.2857   34.8958   46.5617 H   0  0  0  0  0  0  0  0  0  0  0  0
   56.5497   31.0380   43.9683 H   0  0  0  0  0  0  0  0  0  0  0  0
   55.9707   28.6203   43.9117 H   0  0  0  0  0  0  0  0  0  0  0  0
   58.9170   25.8860   45.1470 H   0  0  0  0  0  0  0  0  0  0  0  0
   58.6729   23.2620   46.0436 H   0  0  0  0  0  0  0  0  0  0  0  0
   57.9728   21.0256   45.1870 H   0  0  0  0  0  0  0  0  0  0  0  0
   55.5615   22.9353   42.1485 H   0  0  0  0  0  0  0  0  0  0  0  0
   56.2551   25.1747   42.9962 H   0  0  0  0  0  0  0  0  0  0  0  0
   58.6802   27.8948   47.2112 H   0  0  0  0  0  0  0  0  0  0  0  0
   59.2532   30.3150   47.2722 H   0  0  0  0  0  0  0  0  0  0  0  0
   59.7933   34.1857   49.2137 H   0  0  0  0  0  0  0  0  0  0  0  0
  1  2  1  0
  2  3  2  0
  3  4  1  0
  4  5  2  0
  5  6  1  0
  6  7  1  0
  7  8  2  0
  8  9  1  0
  9 10  1  0
 10 11  1  0
 11 12  1  0
 12 13  2  0
 12 14  1  0
 14 15  2  0
 15 16  1  0
 16 17  2  0
 17 18  1  0
 18 19  2  0
 18 20  1  0
 20 21  1  0
 21 22  2  0
 22 23  1  0
 23 24  2  0
 24 25  1  0
 24 26  1  0
 26 27  2  0
 17 28  1  0
 28 29  2  0
  8 30  1  0
 30 31  2  0
 31  2  1  0
 30  5  1  0
 29 14  1  0
 27 21  1  0
  1 32  1  0
  1 33  1  0
  1 34  1  0
  3 35  1  0
  4 36  1  0
  6 37  1  0
  7 38  1  0
  9 39  1  0
  9 40  1  0
 10 41  1  0
 10 42  1  0
 15 43  1  0
 16 44  1  0
 20 45  1  0
 22 46  1  0
 23 47  1  0
 26 48  1  0
 27 49  1  0
 28 50  1  0
 29 51  1  0
 31 52  1  0
M  CHG  1  11  -1
M  END
>  <UniqueID>  (7) 
6

>  <SMILES>  (7) 
Cc1ccc2[nH]cc(CC[N-]C(=O)c3ccc(C(=O)Nc4ccc(F)cc4)cc3)c2c1

>  <Energy>  (7) 
90.02461053658924

>  <Genealogy>  (7) 
Cc1ccc2[nH]cc(CC[N-]C(=O)c3ccc(C(=O)Nc4ccc(F)cc4)cc3)c2c1 (protonated)
Cc1ccc2[nH]cc(CC[N-]C(=O)c3ccc(C(=O)Nc4ccc(F)cc4)cc3)c2c1 (3D coordinates assigned)
Cc1ccc2[nH]cc(CC[N-]C(=O)c3ccc(C(=O)Nc4ccc(F)cc4)cc3)c2c1 (optimized conformer: 90.02461053658924 kcal/mol)

>  <smiles>  (7) 
Cc1ccc2[nH]cc(CCNC(=O)c3ccc(C(=O)Nc4ccc(F)cc4)cc3)c2c1

>  <score_type>  (7) 
oracle

>  <origin>  (7) 
adg

>  <m_score__min__energy>  (7) 
-10.49

>  <m_primary>  (7) 
energy

$$$$
7:0
     RDKit          3D

 51 54  0  0  1  0  0  0  0  0999 V2000
   57.0160   23.3530   43.6440 C   0  0  0  0  0  0  0  0  0  0  0  0
   57.0440   22.7670   44.9760 N   0  0  0  0  0  0  0  0  0  0  0  0
   56.7060   21.3580   45.0790 C   0  0  0  0  0  0  0  0  0  0  0  0
   57.3780   23.5130   46.1130 C   0  0  0  0  0  0  0  0  0  0  0  0
   57.3890   22.9570   47.2550 O   0  0  0  0  0  0  0  0  0  0  0  0
   57.7130   24.9270   45.9700 C   0  0  0  0  0  0  0  0  0  0  0  0
   59.0320   25.3100   46.1340 C   0  0  0  0  0  0  0  0  0  0  0  0
   59.4540   26.6180   46.0200 C   0  0  0  0  0  0  0  0  0  0  0  0
   58.4720   27.5670   45.7250 C   0  0  0  0  0  0  0  0  0  0  0  0
   57.1400   27.1880   45.5590 C   0  0  0  0  0  0  0  0  0  0  0  0
   56.2330   28.2520   45.2600 N   0  0  0  0  0  0  0  0  0  0  0  0
   56.5660   29.3180   44.6210 C   0  0  0  0  0  0  0  0  0  0  0  0
   57.0960   30.4020   45.2600 N   0  0  0  0  0  0  0  0  0  0  0  0
   57.4380   31.5090   44.5740 C   0  0  0  0  0  0  0  0  0  0  0  0
   57.9860   32.6090   45.2890 N   0  0  0  0  0  0  0  0  0  0  0  0
   58.5320   33.8770   44.8650 C   0  0  0  0  0  0  0  0  0  0  0  0
   58.3830   34.4620   46.2530 C   0  0  0  0  0  0  0  0  0  0  0  0
   59.5500   35.0320   46.7700 O   0  0  0  0  0  0  0  0  0  0  0  0
   60.6680   34.3520   47.2080 C   0  0  0  0  0  0  0  0  0  0  0  0
   61.6500   33.8540   46.3920 C   0  0  0  0  0  0  0  0  0  0  0  0
   62.7410   33.1810   46.9210 C   0  0  0  0  0  0  0  0  0  0  0  0
   62.8850   32.9850   48.2840 C   0  0  0  0  0  0  0  0  0  0  0  0
   63.9550   32.3240   48.7910 F   0  0  0  0  0  0  0  0  0  0  0  0
   61.8840   33.4930   49.1080 C   0  0  0  0  0  0  0  0  0  0  0  0
   60.7970   34.1640   48.5750 C   0  0  0  0  0  0  0  0  0  0  0  0
   58.2600   33.0070   46.6570 C   0  0  0  0  0  0  0  0  0  0  0  0
   57.2530   31.5420   43.2410 N   0  0  0  0  0  0  0  0  0  0  0  0
   56.7250   30.4700   42.5810 C   0  0  0  0  0  0  0  0  0  0  0  0
   56.3780   29.3480   43.2740 N   0  0  0  0  0  0  0  0  0  0  0  0
   56.7580   25.8830   45.6790 C   0  0  0  0  0  0  0  0  0  0  0  0
   56.9636   24.4487   43.7265 H   0  0  0  0  0  0  0  0  0  0  0  0
   57.9287   23.0695   43.0994 H   0  0  0  0  0  0  0  0  0  0  0  0
   56.1345   22.9837   43.0994 H   0  0  0  0  0  0  0  0  0  0  0  0
   56.6378   21.0739   46.1395 H   0  0  0  0  0  0  0  0  0  0  0  0
   55.7387   21.1761   44.5878 H   0  0  0  0  0  0  0  0  0  0  0  0
   57.4855   20.7571   44.5878 H   0  0  0  0  0  0  0  0  0  0  0  0
   59.7784   24.5360   46.3659 H   0  0  0  0  0  0  0  0  0  0  0  0
   60.5089   26.8995   46.1543 H   0  0  0  0  0  0  0  0  0  0  0  0
   58.7527   28.6256   45.6224 H   0  0  0  0  0  0  0  0  0  0  0  0
   59.5751   33.8159   44.5212 H   0  0  0  0  0  0  0  0  0  0  0  0
   58.0817   34.3991   44.0079 H   0  0  0  0  0  0  0  0  0  0  0  0
   57.6613   35.2574   46.4906 H   0  0  0  0  0  0  0  0  0  0  0  0
   61.5718   33.9899   45.3032 H   0  0  0  0  0  0  0  0  0  0  0  0
   63.5124   32.7926   46.2397 H   0  0  0  0  0  0  0  0  0  0  0  0
   61.9581   33.3592   50.1973 H   0  0  0  0  0  0  0  0  0  0  0  0
   60.0209   34.5554   49.2491 H   0  0  0  0  0  0  0  0  0  0  0  0
   59.1884   32.5806   47.0648 H   0  0  0  0  0  0  0  0  0  0  0  0
   57.5590   32.7229   47.4557 H   0  0  0  0  0  0  0  0  0  0  0  0
   56.5796   30.5112   41.4914 H   0  0  0  0  0  0  0  0  0  0  0  0
   55.9700   28.5160   42.7770 H   0  0  0  0  0  0  0  0  0  0  0  0
   55.7045   25.5961   45.5459 H   0  0  0  0  0  0  0  0  0  0  0  0
  1  2  1  0
  2  3  1  0
  2  4  1  0
  4  5  2  0
  4  6  1  0
  6  7  2  0
  7  8  1  0
  8  9  2  0
  9 10  1  0
 10 11  1  0
 11 12  2  0
 12 13  1  0
 13 14  2  0
 14 15  1  0
 15 16  1  0
 16 17  1  0
 17 18  1  0
 18 19  1  0
 19 20  2  0
 20 21  1  0
 21 22  2  0
 22 23  1  0
 22 24  1  0
 24 25  2  0
 17 26  1  0
 14 27  1  0
 27 28  2  0
 28 29  1  0
 10 30  2  0
 30  6  1  0
 29 12  1  0
 26 15  1  0
 25 19  1  0
  1 31  1  0
  1 32  1  0
  1 33  1  0
  3 34  1  0
  3 35  1  0
  3 36  1  0
  7 37  1  0
  8 38  1  0
  9 39  1  0
 16 40  1  0
 16 41  1  0
 17 42  1  0
 20 43  1  0
 21 44  1  0
 24 45  1  0
 25 46  1  0
 26 47  1  0
 26 48  1  0
 28 49  1  0
 29 50  1  0
 30 51  1  0
M  END
>  <smiles>  (8) 
CN(C)C(=O)c1cccc(N=c2nc(N3CC(Oc4ccc(F)cc4)C3)nc[nH]2)c1

>  <score_type>  (8) 
oracle

>  <origin>  (8) 
adg

>  <m_score__min__energy>  (8) 
-8.8499999999999996

>  <m_primary>  (8) 
energy

$$$$
8:0
     RDKit          3D

 28 29  0  0  0  0  0  0  0  0999 V2000
   56.5841   30.9477   42.0211 H   0  0  0  0  0  0  0  0  0  0  0  0
   57.0180   31.1420   43.0130 C   0  0  0  0  0  0  0  0  0  0  0  0
   56.7190   30.1710   44.0870 C   0  0  0  0  0  0  0  0  0  0  0  0
   55.5320   30.0960   44.5050 O   0  0  0  0  0  0  0  0  0  0  0  0
   57.7430   29.2570   44.6510 C   0  0  0  0  0  0  0  0  0  0  0  0
   59.1170   29.5250   44.5010 C   0  0  0  0  0  0  0  0  0  0  0  0
   59.4430   30.4153   43.9432 H   0  0  0  0  0  0  0  0  0  0  0  0
   60.0690   28.6660   45.0570 C   0  0  0  0  0  0  0  0  0  0  0  0
   61.1405   28.8881   44.9447 H   0  0  0  0  0  0  0  0  0  0  0  0
   59.6630   27.5260   45.7550 C   0  0  0  0  0  0  0  0  0  0  0  0
   60.4140   26.8542   46.1963 H   0  0  0  0  0  0  0  0  0  0  0  0
   58.3030   27.2400   45.8920 C   0  0  0  0  0  0  0  0  0  0  0  0
   57.9841   26.3386   46.4358 H   0  0  0  0  0  0  0  0  0  0  0  0
   57.3460   28.0960   45.3400 C   0  0  0  0  0  0  0  0  0  0  0  0
   56.2765   27.8609   45.4447 H   0  0  0  0  0  0  0  0  0  0  0  0
   57.7770   32.2430   43.1500 C   0  0  0  0  0  0  0  0  0  0  0  0
   58.2527   32.6463   42.2439 H   0  0  0  0  0  0  0  0  0  0  0  0
   58.0230   32.9550   44.4230 C   0  0  0  0  0  0  0  0  0  0  0  0
   59.0860   33.8670   44.5030 C   0  0  0  0  0  0  0  0  0  0  0  0
   59.7229   34.0444   43.6239 H   0  0  0  0  0  0  0  0  0  0  0  0
   59.3390   34.5510   45.6950 C   0  0  0  0  0  0  0  0  0  0  0  0
   60.1832   35.2535   45.7563 H   0  0  0  0  0  0  0  0  0  0  0  0
   58.5210   34.3440   46.8100 C   0  0  0  0  0  0  0  0  0  0  0  0
   58.7280   34.8756   47.7505 H   0  0  0  0  0  0  0  0  0  0  0  0
   57.4410   33.4620   46.7290 C   0  0  0  0  0  0  0  0  0  0  0  0
   56.7925   33.3061   47.6037 H   0  0  0  0  0  0  0  0  0  0  0  0
   57.1830   32.7770   45.5380 C   0  0  0  0  0  0  0  0  0  0  0  0
   56.3209   32.0969   45.4722 H   0  0  0  0  0  0  0  0  0  0  0  0
  1  2  1  0
  2  3  1  0
  3  4  2  0
  3  5  1  0
  5  6  2  0
  6  7  1  0
  6  8  1  0
  8  9  1  0
  8 10  2  0
 10 11  1  0
 10 12  1  0
 12 13  1  0
 12 14  2  0
 14 15  1  0
  2 16  2  0
 16 17  1  0
 16 18  1  0
 18 19  2  0
 19 20  1  0
 19 21  1  0
 21 22  1  0
 21 23  2  0
 23 24  1  0
 23 25  1  0
 25 26  1  0
 25 27  2  0
 27 28  1  0
 14  5  1  0
 27 18  1  0
M  END
>  <UniqueID>  (9) 
7

>  <SMILES>  (9) 
O=C(/C=C\c1ccccc1)c1ccccc1

>  <Energy>  (9) 
38.902853828300955

>  <Genealogy>  (9) 
O=C(/C=C\c1ccccc1)c1ccccc1 (cis-trans isomerization)
O=C(/C=C\c1ccccc1)c1ccccc1 (3D coordinates assigned)
O=C(/C=C\c1ccccc1)c1ccccc1 (optimized conformer: 38.902853828300955 kcal/mol)

>  <smiles>  (9) 
O=C(C=Cc1ccccc1)c1ccccc1

>  <score_type>  (9) 
oracle

>  <origin>  (9) 
adg

>  <m_score__min__energy>  (9) 
-7.0700000000000003

>  <m_primary>  (9) 
energy

$$$$
9:0
     RDKit          3D

 34 36  0  0  0  0  0  0  0  0999 V2000
   55.2340   29.3160   44.8540 O   0  0  0  0  0  0  0  0  0  0  0  0
   56.2770   28.6520   45.0960 C   0  0  0  0  0  0  0  0  0  0  0  0
   57.5560   29.0120   44.4070 C   0  0  0  0  0  0  0  0  0  0  0  0
   57.8480   30.4420   44.6010 N   0  0  0  0  0  0  0  0  0  0  0  0
   57.6180   31.3030   43.5630 C   0  0  0  0  0  0  0  0  0  0  0  0
   57.9020   32.6630   43.6820 C   0  0  0  0  0  0  0  0  0  0  0  0
   58.4380   33.1550   44.8720 C   0  0  0  0  0  0  0  0  0  0  0  0
   58.7320   34.5210   45.0130 C   0  0  0  0  0  0  0  0  0  0  0  0
   59.2720   35.0030   46.2060 C   0  0  0  0  0  0  0  0  0  0  0  0
   59.5250   34.1290   47.2660 C   0  0  0  0  0  0  0  0  0  0  0  0
   59.2360   32.7680   47.1400 C   0  0  0  0  0  0  0  0  0  0  0  0
   58.6900   32.2660   45.9420 C   0  0  0  0  0  0  0  0  0  0  0  0
   58.3880   30.8980   45.7800 C   0  0  0  0  0  0  0  0  0  0  0  0
   58.6190   30.0900   46.7230 O   0  0  0  0  0  0  0  0  0  0  0  0
   56.2330   27.4930   45.9360 N   0  0  0  0  0  0  0  0  0  0  0  0
   56.9830   26.2810   45.7620 C   0  0  0  0  0  0  0  0  0  0  0  0
   56.3380   25.1670   45.2090 C   0  0  0  0  0  0  0  0  0  0  0  0
   57.0360   23.9720   45.0080 C   0  0  0  0  0  0  0  0  0  0  0  0
   58.3910   23.8870   45.3420 C   0  0  0  0  0  0  0  0  0  0  0  0
   59.2680   22.3900   45.0840 Cl  0  0  0  0  0  0  0  0  0  0  0  0
   59.0490   25.0020   45.8720 C   0  0  0  0  0  0  0  0  0  0  0  0
   58.3520   26.1980   46.0760 C   0  0  0  0  0  0  0  0  0  0  0  0
   58.3771   28.4124   44.8269 H   0  0  0  0  0  0  0  0  0  0  0  0
   57.4563   28.8069   43.3309 H   0  0  0  0  0  0  0  0  0  0  0  0
   57.2028   30.9167   42.6205 H   0  0  0  0  0  0  0  0  0  0  0  0
   57.7043   33.3445   42.8415 H   0  0  0  0  0  0  0  0  0  0  0  0
   58.5360   35.2129   44.1806 H   0  0  0  0  0  0  0  0  0  0  0  0
   59.4991   36.0741   46.3121 H   0  0  0  0  0  0  0  0  0  0  0  0
   59.9533   34.5138   48.2033 H   0  0  0  0  0  0  0  0  0  0  0  0
   59.4355   32.0856   47.9794 H   0  0  0  0  0  0  0  0  0  0  0  0
   55.2757   25.2327   44.9311 H   0  0  0  0  0  0  0  0  0  0  0  0
   56.5183   23.0977   44.5866 H   0  0  0  0  0  0  0  0  0  0  0  0
   60.1167   24.9384   46.1289 H   0  0  0  0  0  0  0  0  0  0  0  0
   58.8757   27.0756   46.4829 H   0  0  0  0  0  0  0  0  0  0  0  0
  1  2  2  0
  2  3  1  0
  3  4  1  0
  4  5  1  0
  5  6  2  0
  6  7  1  0
  7  8  2  0
  8  9  1  0
  9 10  2  0
 10 11  1  0
 11 12  2  0
 12 13  1  0
 13 14  2  0
  2 15  1  0
 15 16  1  0
 16 17  2  0
 17 18  1  0
 18 19  2  0
 19 20  1  0
 19 21  1  0
 21 22  2  0
 13  4  1  0
 22 16  1  0
 12  7  1  0
  3 23  1  0
  3 24  1  0
  5 25  1  0
  6 26  1  0
  8 27  1  0
  9 28  1  0
 10 29  1  0
 11 30  1  0
 17 31  1  0
 18 32  1  0
 21 33  1  0
 22 34  1  0
M  CHG  1  15  -1
M  END
>  <UniqueID>  (10) 
8

>  <SMILES>  (10) 
O=C(Cn1ccc2ccccc2c1=O)[N-]c1ccc(Cl)cc1

>  <Energy>  (10) 
45.375114258195715

>  <Genealogy>  (10) 
O=C(Cn1ccc2ccccc2c1=O)[N-]c1ccc(Cl)cc1 (protonated)
O=C(Cn1ccc2ccccc2c1=O)[N-]c1ccc(Cl)cc1 (3D coordinates assigned)
O=C(Cn1ccc2ccccc2c1=O)[N-]c1ccc(Cl)cc1 (optimized conformer: 45.375114258195715 kcal/mol)

>  <smiles>  (10) 
O=C(Cn1ccc2ccccc2c1=O)Nc1ccc(Cl)cc1

>  <score_type>  (10) 
oracle

>  <origin>  (10) 
adg

>  <m_score__min__energy>  (10) 
-9.8200000000000003

>  <m_primary>  (10) 
energy

$$$$
10:0
     RDKit          3D

 31 33  0  0  0  0  0  0  0  0999 V2000
   56.0620   28.7780   45.1490 O   0  0  0  0  0  0  0  0  0  0  0  0
   57.1680   28.1860   45.2900 C   0  0  0  0  0  0  0  0  0  0  0  0
   58.3620   28.8610   44.9610 C   0  0  0  0  0  0  0  0  0  0  0  0
   58.3030   30.2720   44.4060 C   0  0  0  0  0  0  0  0  0  0  0  0
   58.2810   31.2860   45.5220 C   0  0  0  0  0  0  0  0  0  0  0  0
   58.8580   30.9850   46.7680 C   0  0  0  0  0  0  0  0  0  0  0  0
   58.8580   31.9350   47.7940 C   0  0  0  0  0  0  0  0  0  0  0  0
   58.2840   33.1910   47.5860 C   0  0  0  0  0  0  0  0  0  0  0  0
   57.7090   33.5010   46.3510 C   0  0  0  0  0  0  0  0  0  0  0  0
   57.7070   32.5540   45.3220 C   0  0  0  0  0  0  0  0  0  0  0  0
   59.5900   28.1850   45.1290 C   0  0  0  0  0  0  0  0  0  0  0  0
   61.1350   28.9500   44.7580 Cl  0  0  0  0  0  0  0  0  0  0  0  0
   59.6100   26.9090   45.5970 N   0  0  0  0  0  0  0  0  0  0  0  0
   58.4710   26.2350   45.9190 C   0  0  0  0  0  0  0  0  0  0  0  0
   58.5500   24.9180   46.3980 C   0  0  0  0  0  0  0  0  0  0  0  0
   57.3910   24.2180   46.7320 C   0  0  0  0  0  0  0  0  0  0  0  0
   56.1430   24.8230   46.5920 C   0  0  0  0  0  0  0  0  0  0  0  0
   56.0410   26.1350   46.1180 C   0  0  0  0  0  0  0  0  0  0  0  0
   54.7730   26.6960   45.9950 O   0  0  0  0  0  0  0  0  0  0  0  0
   57.2090   26.8610   45.7740 C   0  0  0  0  0  0  0  0  0  0  0  0
   59.1869   30.4488   43.7755 H   0  0  0  0  0  0  0  0  0  0  0  0
   57.3824   30.3796   43.8136 H   0  0  0  0  0  0  0  0  0  0  0  0
   59.3118   29.9973   46.9367 H   0  0  0  0  0  0  0  0  0  0  0  0
   59.3109   31.6926   48.7667 H   0  0  0  0  0  0  0  0  0  0  0  0
   58.2846   33.9365   48.3948 H   0  0  0  0  0  0  0  0  0  0  0  0
   57.2575   34.4907   46.1879 H   0  0  0  0  0  0  0  0  0  0  0  0
   57.2540   32.8024   44.3509 H   0  0  0  0  0  0  0  0  0  0  0  0
   60.5370   26.4370   45.7110 H   0  0  0  0  0  0  0  0  0  0  0  0
   59.5319   24.4352   46.5106 H   0  0  0  0  0  0  0  0  0  0  0  0
   57.4618   23.1862   47.1067 H   0  0  0  0  0  0  0  0  0  0  0  0
   55.2325   24.2650   46.8560 H   0  0  0  0  0  0  0  0  0  0  0  0
  1  2  2  0
  2  3  1  0
  3  4  1  0
  4  5  1  0
  5  6  2  0
  6  7  1  0
  7  8  2  0
  8  9  1  0
  9 10  2  0
  3 11  2  0
 11 12  1  0
 11 13  1  0
 13 14  1  0
 14 15  2  0
 15 16  1  0
 16 17  2  0
 17 18  1  0
 18 19  1  0
 18 20  2  0
 20  2  1  0
 10  5  1  0
 20 14  1  0
  4 21  1  0
  4 22  1  0
  6 23  1  0
  7 24  1  0
  8 25  1  0
  9 26  1  0
 10 27  1  0
 13 28  1  0
 15 29  1  0
 16 30  1  0
 17 31  1  0
M  CHG  1  19  -1
M  END
>  <UniqueID>  (11) 
9

>  <SMILES>  (11) 
O=c1c(Cc2ccccc2)c(Cl)[nH]c2cccc([O-])c12

>  <Energy>  (11) 
42.324508149945515

>  <Genealogy>  (11) 
O=c1c(Cc2ccccc2)c(Cl)[nH]c2cccc([O-])c12 (protonated)
O=c1c(Cc2ccccc2)c(Cl)[nH]c2cccc([O-])c12 (3D coordinates assigned)
O=c1c(Cc2ccccc2)c(Cl)[nH]c2cccc([O-])c12 (optimized conformer: 42.324508149945515 kcal/mol)

>  <smiles>  (11) 
O=c1c(Cc2ccccc2)c(Cl)[nH]c2cccc(O)c12

>  <score_type>  (11) 
oracle

>  <origin>  (11) 
adg

>  <m_score__min__energy>  (11) 
-11.5

>  <m_primary>  (11) 
energy

$$$$
11:0
     RDKit          3D

 33 34  0  0  0  0  0  0  0  0999 V2000
   55.5680   29.1870   44.9350 N   0  0  0  0  0  0  0  0  0  0  0  0
   56.9970   29.0530   44.6470 C   0  0  2  0  0  0  0  0  0  0  0  0
   57.6880   28.2590   45.7710 C   0  0  0  0  0  0  0  0  0  0  0  0
   57.0750   26.9010   45.9480 C   0  0  0  0  0  0  0  0  0  0  0  0
   57.7570   25.7230   46.1320 C   0  0  0  0  0  0  0  0  0  0  0  0
   56.8690   24.7320   46.3170 N   0  0  0  0  0  0  0  0  0  0  0  0
   55.6690   25.3480   46.2440 C   0  0  0  0  0  0  0  0  0  0  0  0
   55.7530   26.6770   46.0280 N   0  0  0  0  0  0  0  0  0  0  0  0
   57.6140   30.4200   44.4970 C   0  0  0  0  0  0  0  0  0  0  0  0
   58.8000   30.5210   44.0780 O   0  0  0  0  0  0  0  0  0  0  0  0
   56.8720   31.5970   44.8520 N   0  0  0  0  0  0  0  0  0  0  0  0
   57.4180   32.9430   44.7010 C   0  0  0  0  0  0  0  0  0  0  0  0
   58.3720   33.2460   45.8260 C   0  0  0  0  0  0  0  0  0  0  0  0
   59.4260   34.1520   45.6280 C   0  0  0  0  0  0  0  0  0  0  0  0
   60.3290   34.4190   46.6620 C   0  0  0  0  0  0  0  0  0  0  0  0
   60.1870   33.7820   47.8990 C   0  0  0  0  0  0  0  0  0  0  0  0
   61.4220   34.1480   49.3090 Br  0  0  0  0  0  0  0  0  0  0  0  0
   59.1430   32.8750   48.1010 C   0  0  0  0  0  0  0  0  0  0  0  0
   58.2380   32.6050   47.0690 C   0  0  0  0  0  0  0  0  0  0  0  0
   55.4610   29.5760   45.9000 H   0  0  0  0  0  0  0  0  0  0  0  0
   55.1460   28.2310   44.9620 H   0  0  0  0  0  0  0  0  0  0  0  0
   57.1316   28.5026   43.7042 H   0  0  0  0  0  0  0  0  0  0  0  0
   58.7526   28.1399   45.5209 H   0  0  0  0  0  0  0  0  0  0  0  0
   57.5642   28.8166   46.7111 H   0  0  0  0  0  0  0  0  0  0  0  0
   58.8511   25.6096   46.1285 H   0  0  0  0  0  0  0  0  0  0  0  0
   54.7124   24.8155   46.3507 H   0  0  0  0  0  0  0  0  0  0  0  0
   55.9060   31.4940   45.2360 H   0  0  0  0  0  0  0  0  0  0  0  0
   57.9528   33.0128   43.7423 H   0  0  0  0  0  0  0  0  0  0  0  0
   56.5928   33.6700   44.7243 H   0  0  0  0  0  0  0  0  0  0  0  0
   59.5420   34.6537   44.6560 H   0  0  0  0  0  0  0  0  0  0  0  0
   61.1521   35.1310   46.5022 H   0  0  0  0  0  0  0  0  0  0  0  0
   59.0327   32.3725   49.0733 H   0  0  0  0  0  0  0  0  0  0  0  0
   57.4191   31.8887   47.2312 H   0  0  0  0  0  0  0  0  0  0  0  0
  1  2  1  0
  2  3  1  0
  3  4  1  0
  4  5  2  0
  5  6  1  0
  6  7  1  0
  7  8  2  0
  2  9  1  0
  9 10  2  0
  9 11  1  0
 11 12  1  0
 12 13  1  0
 13 14  2  0
 14 15  1  0
 15 16  2  0
 16 17  1  0
 16 18  1  0
 18 19  2  0
  8  4  1  0
 19 13  1  0
  1 20  1  0
  1 21  1  0
  2 22  1  6
  3 23  1  0
  3 24  1  0
  5 25  1  0
  7 26  1  0
 11 27  1  0
 12 28  1  0
 12 29  1  0
 14 30  1  0
 15 31  1  0
 18 32  1  0
 19 33  1  0
M  CHG  1   6  -1
M  END
>  <UniqueID>  (12) 
10

>  <SMILES>  (12) 
N[C@H](Cc1c[n-]cn1)C(=O)NCc1ccc(Br)cc1

>  <Energy>  (12) 
53.24677975267561

>  <Genealogy>  (12) 
NC(Cc1c[n-]cn1)C(=O)NCc1ccc(Br)cc1 (protonated)
N[C@H](Cc1c[n-]cn1)C(=O)NCc1ccc(Br)cc1 (chirality)
N[C@H](Cc1c[n-]cn1)C(=O)NCc1ccc(Br)cc1 (3D coordinates assigned)
N[C@H](Cc1c[n-]cn1)C(=O)NCc1ccc(Br)cc1 (optimized conformer: 53.24677975267561 kcal/mol)

>  <smiles>  (12) 
NC(Cc1c[nH]cn1)C(=O)NCc1ccc(Br)cc1

>  <score_type>  (12) 
oracle

>  <origin>  (12) 
adg

>  <m_score__min__energy>  (12) 
-9.1300000000000008

>  <m_primary>  (12) 
energy

$$$$
12:0
     RDKit          3D

 70 74  0  0  0  0  0  0  0  0999 V2000
   56.2720   30.6270   43.4740 O   0  0  0  0  0  0  0  0  0  0  0  0
   56.5930   30.2330   44.6270 C   0  0  0  0  0  0  0  0  0  0  0  0
   55.9880   29.0370   45.1360 N   0  0  0  0  0  0  0  0  0  0  0  0
   56.6180   27.7570   45.2920 C   0  0  0  0  0  0  0  0  0  0  0  0
   55.9980   26.7000   45.9830 C   0  0  0  0  0  0  0  0  0  0  0  0
   56.6410   25.4640   46.1070 C   0  0  0  0  0  0  0  0  0  0  0  0
   57.8960   25.2650   45.5190 C   0  0  0  0  0  0  0  0  0  0  0  0
   58.6970   23.7110   45.6630 Cl  0  0  0  0  0  0  0  0  0  0  0  0
   58.5010   26.3020   44.8030 C   0  0  0  0  0  0  0  0  0  0  0  0
   57.8640   27.5410   44.6860 C   0  0  0  0  0  0  0  0  0  0  0  0
   57.6030   30.9910   45.3970 C   0  0  0  0  0  0  0  0  0  0  0  0
   57.6500   32.3920   45.3370 C   0  0  0  0  0  0  0  0  0  0  0  0
   58.6350   33.0940   46.0330 C   0  0  0  0  0  0  0  0  0  0  0  0
   59.5830   32.4080   46.8000 C   0  0  0  0  0  0  0  0  0  0  0  0
   60.6480   33.1390   47.4180 N   0  0  0  0  0  0  0  0  0  0  0  0
   61.9170   33.3070   46.7080 C   0  0  0  0  0  0  0  0  0  0  0  0
   63.0700   33.0250   47.6670 C   0  0  0  0  0  0  0  0  0  0  0  0
   63.0130   33.9190   48.9380 C   0  0  0  0  0  0  0  0  0  0  0  0
   63.5020   33.1580   50.1870 C   0  0  0  0  0  0  0  0  0  0  0  0
   64.2140   31.9090   49.8020 N   0  0  0  0  0  0  0  0  0  0  0  0
   63.7360   30.7460   50.5640 C   0  0  0  0  0  0  0  0  0  0  0  0
   64.5770   30.6520   51.8310 C   0  0  0  0  0  0  0  0  0  0  0  0
   65.8220   31.4750   51.5440 C   0  0  0  0  0  0  0  0  0  0  0  0
   65.6480   31.9700   50.1150 C   0  0  0  0  0  0  0  0  0  0  0  0
   61.6370   34.6040   49.1640 C   0  0  0  0  0  0  0  0  0  0  0  0
   60.4420   33.7330   48.7420 C   0  0  0  0  0  0  0  0  0  0  0  0
   59.5360   31.0030   46.8850 C   0  0  0  0  0  0  0  0  0  0  0  0
   60.5020   30.2910   47.6730 N   0  0  0  0  0  0  0  0  0  0  0  0
   60.0830   29.5790   49.1950 S   0  0  0  0  0  0  0  0  0  0  0  0
   58.9470   28.6130   48.9960 O   0  0  0  0  0  0  0  0  0  0  0  0
   61.2550   28.8220   49.7570 O   0  0  0  0  0  0  0  0  0  0  0  0
   59.5800   30.8440   50.3110 C   0  0  0  0  0  0  0  0  0  0  0  0
   58.2330   31.2260   50.3800 C   0  0  0  0  0  0  0  0  0  0  0  0
   57.8350   32.2430   51.2510 C   0  0  0  0  0  0  0  0  0  0  0  0
   58.7790   32.8820   52.0590 C   0  0  0  0  0  0  0  0  0  0  0  0
   60.1280   32.5110   51.9920 C   0  0  0  0  0  0  0  0  0  0  0  0
   61.3080   33.3040   53.0190 Cl  0  0  0  0  0  0  0  0  0  0  0  0
   60.5280   31.4970   51.1150 C   0  0  0  0  0  0  0  0  0  0  0  0
   58.5340   30.3060   46.1920 C   0  0  0  0  0  0  0  0  0  0  0  0
   55.0027   26.8462   46.4280 H   0  0  0  0  0  0  0  0  0  0  0  0
   56.1605   24.6480   46.6667 H   0  0  0  0  0  0  0  0  0  0  0  0
   59.4813   26.1427   44.3302 H   0  0  0  0  0  0  0  0  0  0  0  0
   58.3427   28.3506   44.1156 H   0  0  0  0  0  0  0  0  0  0  0  0
   56.9070   32.9396   44.7386 H   0  0  0  0  0  0  0  0  0  0  0  0
   58.6663   34.1922   45.9783 H   0  0  0  0  0  0  0  0  0  0  0  0
   61.9614   32.6045   45.8627 H   0  0  0  0  0  0  0  0  0  0  0  0
   61.9949   34.3368   46.3293 H   0  0  0  0  0  0  0  0  0  0  0  0
   63.0243   31.9698   47.9744 H   0  0  0  0  0  0  0  0  0  0  0  0
   64.0088   33.2497   47.1396 H   0  0  0  0  0  0  0  0  0  0  0  0
   63.7145   34.7465   48.7560 H   0  0  0  0  0  0  0  0  0  0  0  0
   64.1877   33.8028   50.7562 H   0  0  0  0  0  0  0  0  0  0  0  0
   62.6289   32.8905   50.8002 H   0  0  0  0  0  0  0  0  0  0  0  0
   62.6758   30.8784   50.8258 H   0  0  0  0  0  0  0  0  0  0  0  0
   63.8298   29.8266   49.9674 H   0  0  0  0  0  0  0  0  0  0  0  0
   64.0291   31.0677   52.6895 H   0  0  0  0  0  0  0  0  0  0  0  0
   64.8221   29.6104   52.0858 H   0  0  0  0  0  0  0  0  0  0  0  0
   65.8936   32.3232   52.2407 H   0  0  0  0  0  0  0  0  0  0  0  0
   66.7431   30.8866   51.6676 H   0  0  0  0  0  0  0  0  0  0  0  0
   66.0081   33.0058   50.0292 H   0  0  0  0  0  0  0  0  0  0  0  0
   66.2257   31.3485   49.4150 H   0  0  0  0  0  0  0  0  0  0  0  0
   61.5363   34.8386   50.2340 H   0  0  0  0  0  0  0  0  0  0  0  0
   61.6176   35.5066   48.5356 H   0  0  0  0  0  0  0  0  0  0  0  0
   60.3104   32.9266   49.4785 H   0  0  0  0  0  0  0  0  0  0  0  0
   59.5487   34.3733   48.6966 H   0  0  0  0  0  0  0  0  0  0  0  0
   61.3930   29.9760   47.2310 H   0  0  0  0  0  0  0  0  0  0  0  0
   57.4873   30.7235   49.7465 H   0  0  0  0  0  0  0  0  0  0  0  0
   56.7773   32.5411   51.3008 H   0  0  0  0  0  0  0  0  0  0  0  0
   58.4622   33.6779   52.7490 H   0  0  0  0  0  0  0  0  0  0  0  0
   61.5883   31.2105   51.0551 H   0  0  0  0  0  0  0  0  0  0  0  0
   58.4781   29.2104   46.2732 H   0  0  0  0  0  0  0  0  0  0  0  0
  1  2  2  0
  2  3  1  0
  3  4  1  0
  4  5  2  0
  5  6  1  0
  6  7  2  0
  7  8  1  0
  7  9  1  0
  9 10  2  0
  2 11  1  0
 11 12  2  0
 12 13  1  0
 13 14  2  0
 14 15  1  0
 15 16  1  0
 16 17  1  0
 17 18  1  0
 18 19  1  0
 19 20  1  0
 20 21  1  0
 21 22  1  0
 22 23  1  0
 23 24  1  0
 18 25  1  0
 25 26  1  0
 14 27  1  0
 27 28  1  0
 28 29  1  0
 29 30  2  0
 29 31  2  0
 29 32  1  0
 32 33  2  0
 33 34  1  0
 34 35  2  0
 35 36  1  0
 36 37  1  0
 36 38  2  0
 27 39  2  0
 10  4  1  0
 39 11  1  0
 26 15  1  0
 38 32  1  0
 24 20  1  0
  5 40  1  0
  6 41  1  0
  9 42  1  0
 10 43  1  0
 12 44  1  0
 13 45  1  0
 16 46  1  0
 16 47  1  0
 17 48  1  0
 17 49  1  0
 18 50  1  0
 19 51  1  0
 19 52  1  0
 21 53  1  0
 21 54  1  0
 22 55  1  0
 22 56  1  0
 23 57  1  0
 23 58  1  0
 24 59  1  0
 24 60  1  0
 25 61  1  0
 25 62  1  0
 26 63  1  0
 26 64  1  0
 28 65  1  0
 33 66  1  0
 34 67  1  0
 35 68  1  0
 38 69  1  0
 39 70  1  0
M  CHG  1   3  -1
M  END
>  <UniqueID>  (13) 
11

>  <SMILES>  (13) 
O=C([N-]c1ccc(Cl)cc1)c1ccc(N2CCC(CN3CCCC3)CC2)c(NS(=O)(=O)c2cccc(Cl)c2)c1

>  <Energy>  (13) 
91.79253714626472

>  <Genealogy>  (13) 
O=C([N-]c1ccc(Cl)cc1)c1ccc(N2CCC(CN3CCCC3)CC2)c(NS(=O)(=O)c2cccc(Cl)c2)c1 (protonated)
O=C([N-]c1ccc(Cl)cc1)c1ccc(N2CCC(CN3CCCC3)CC2)c(NS(=O)(=O)c2cccc(Cl)c2)c1 (3D coordinates assigned)
O=C([N-]c1ccc(Cl)cc1)c1ccc(N2CCC(CN3CCCC3)CC2)c(NS(=O)(=O)c2cccc(Cl)c2)c1 (nonaromatic ring conformer: 91.79253714626472 kcal/mol)

>  <smiles>  (13) 
O=C(Nc1ccc(Cl)cc1)c1ccc(N2CCC(CN3CCCC3)CC2)c(NS(=O)(=O)c2cccc(Cl)c2)c1

>  <score_type>  (13) 
oracle

>  <origin>  (13) 
adg

>  <m_score__min__energy>  (13) 
-11.41

>  <m_primary>  (13) 
energy

$$$$
13:0
     RDKit          3D

 56 58  0  0  0  0  0  0  0  0999 V2000
   57.8120   21.4540   43.5150 C   0  0  0  0  0  0  0  0  0  0  0  0
   57.0010   22.3360   44.4550 C   0  0  0  0  0  0  0  0  0  0  0  0
   58.0570   23.1560   45.6390 S   0  0  0  0  0  0  0  0  0  0  0  0
   59.4600   22.6310   45.5050 O   0  0  0  0  0  0  0  0  0  0  0  0
   57.5690   22.8700   47.0330 O   0  0  0  0  0  0  0  0  0  0  0  0
   58.0560   24.8940   45.3450 C   0  0  0  0  0  0  0  0  0  0  0  0
   57.7760   25.3980   44.0670 C   0  0  0  0  0  0  0  0  0  0  0  0
   57.7930   26.7770   43.8350 C   0  0  0  0  0  0  0  0  0  0  0  0
   58.1040   27.6660   44.8770 C   0  0  0  0  0  0  0  0  0  0  0  0
   58.0930   29.1510   44.6360 C   0  0  0  0  0  0  0  0  0  0  0  0
   56.7120   29.6980   44.8740 C   0  0  0  0  0  0  0  0  0  0  0  0
   55.7960   28.9120   45.2330 O   0  0  0  0  0  0  0  0  0  0  0  0
   56.4350   31.1040   44.8240 N   0  0  0  0  0  0  0  0  0  0  0  0
   57.3240   32.1430   45.2570 C   0  0  0  0  0  0  0  0  0  0  0  0
   57.3960   33.3190   44.5040 C   0  0  0  0  0  0  0  0  0  0  0  0
   58.2590   34.3500   44.8810 C   0  0  0  0  0  0  0  0  0  0  0  0
   59.0760   34.2100   46.0110 C   0  0  0  0  0  0  0  0  0  0  0  0
   59.9660   35.3370   46.4450 C   0  0  0  0  0  0  0  0  0  0  0  0
   59.0120   33.0300   46.7650 C   0  0  0  0  0  0  0  0  0  0  0  0
   58.1730   31.9720   46.3700 C   0  0  0  0  0  0  0  0  0  0  0  0
   58.1490   30.7320   47.0970 N   0  0  0  0  0  0  0  0  0  0  0  0
   59.1800   30.2160   47.9490 C   0  0  0  0  0  0  0  0  0  0  0  0
   59.0380   29.0640   48.4380 O   0  0  0  0  0  0  0  0  0  0  0  0
   60.4360   30.9670   48.1970 C   0  0  0  0  0  0  0  0  0  0  0  0
   61.4960   30.8310   47.2840 C   0  0  0  0  0  0  0  0  0  0  0  0
   62.6940   31.5200   47.4780 C   0  0  0  0  0  0  0  0  0  0  0  0
   62.8550   32.3440   48.5910 C   0  0  0  0  0  0  0  0  0  0  0  0
   61.8150   32.4900   49.5100 C   0  0  0  0  0  0  0  0  0  0  0  0
   60.5940   31.8170   49.3210 C   0  0  0  0  0  0  0  0  0  0  0  0
   59.4810   32.0340   50.3140 C   0  0  0  0  0  0  0  0  0  0  0  0
   58.3770   27.1600   46.1570 C   0  0  0  0  0  0  0  0  0  0  0  0
   58.3600   25.7800   46.3880 C   0  0  0  0  0  0  0  0  0  0  0  0
   58.4405   20.7704   44.1046 H   0  0  0  0  0  0  0  0  0  0  0  0
   57.1295   20.8693   42.8807 H   0  0  0  0  0  0  0  0  0  0  0  0
   58.4518   22.0852   42.8807 H   0  0  0  0  0  0  0  0  0  0  0  0
   56.4668   23.0947   43.8642 H   0  0  0  0  0  0  0  0  0  0  0  0
   56.2894   21.7008   45.0029 H   0  0  0  0  0  0  0  0  0  0  0  0
   57.5422   24.7065   43.2441 H   0  0  0  0  0  0  0  0  0  0  0  0
   57.5619   27.1669   42.8327 H   0  0  0  0  0  0  0  0  0  0  0  0
   58.8013   29.6373   45.3229 H   0  0  0  0  0  0  0  0  0  0  0  0
   58.3875   29.3512   43.5952 H   0  0  0  0  0  0  0  0  0  0  0  0
   56.7681   33.4328   43.6080 H   0  0  0  0  0  0  0  0  0  0  0  0
   58.2977   35.2760   44.2885 H   0  0  0  0  0  0  0  0  0  0  0  0
   59.9976   35.3770   47.5438 H   0  0  0  0  0  0  0  0  0  0  0  0
   60.9814   35.1736   46.0547 H   0  0  0  0  0  0  0  0  0  0  0  0
   59.5716   36.2868   46.0547 H   0  0  0  0  0  0  0  0  0  0  0  0
   59.6235   32.9303   47.6740 H   0  0  0  0  0  0  0  0  0  0  0  0
   61.3802   30.1753   46.4084 H   0  0  0  0  0  0  0  0  0  0  0  0
   63.5128   31.4127   46.7514 H   0  0  0  0  0  0  0  0  0  0  0  0
   63.8032   32.8799   48.7450 H   0  0  0  0  0  0  0  0  0  0  0  0
   61.9510   33.1366   50.3894 H   0  0  0  0  0  0  0  0  0  0  0  0
   59.8809   31.9560   51.3358 H   0  0  0  0  0  0  0  0  0  0  0  0
   59.0468   33.0337   50.1654 H   0  0  0  0  0  0  0  0  0  0  0  0
   58.7031   31.2706   50.1654 H   0  0  0  0  0  0  0  0  0  0  0  0
   58.6053   27.8508   46.9820 H   0  0  0  0  0  0  0  0  0  0  0  0
   58.5859   25.3892   47.3911 H   0  0  0  0  0  0  0  0  0  0  0  0
  1  2  1  0
  2  3  1  0
  3  4  2  0
  3  5  2  0
  3  6  1  0
  6  7  2  0
  7  8  1  0
  8  9  2  0
  9 10  1  0
 10 11  1  0
 11 12  2  0
 11 13  1  0
 13 14  1  0
 14 15  2  0
 15 16  1  0
 16 17  2  0
 17 18  1  0
 17 19  1  0
 19 20  2  0
 20 21  1  0
 21 22  1  0
 22 23  2  0
 22 24  1  0
 24 25  2  0
 25 26  1  0
 26 27  2  0
 27 28  1  0
 28 29  2  0
 29 30  1  0
  9 31  1  0
 31 32  2  0
 32  6  1  0
 20 14  1  0
 29 24  1  0
  1 33  1  0
  1 34  1  0
  1 35  1  0
  2 36  1  0
  2 37  1  0
  7 38  1  0
  8 39  1  0
 10 40  1  0
 10 41  1  0
 15 42  1  0
 16 43  1  0
 18 44  1  0
 18 45  1  0
 18 46  1  0
 19 47  1  0
 25 48  1  0
 26 49  1  0
 27 50  1  0
 28 51  1  0
 30 52  1  0
 30 53  1  0
 30 54  1  0
 31 55  1  0
 32 56  1  0
M  CHG  2  13  -1  21  -1
M  END
>  <UniqueID>  (14) 
12

>  <SMILES>  (14) 
CCS(=O)(=O)c1ccc(CC(=O)[N-]c2ccc(C)cc2[N-]C(=O)c2ccccc2C)cc1

>  <Energy>  (14) 
64.98506465731774

>  <Genealogy>  (14) 
CCS(=O)(=O)c1ccc(CC(=O)[N-]c2ccc(C)cc2[N-]C(=O)c2ccccc2C)cc1 (protonated)
CCS(=O)(=O)c1ccc(CC(=O)[N-]c2ccc(C)cc2[N-]C(=O)c2ccccc2C)cc1 (3D coordinates assigned)
CCS(=O)(=O)c1ccc(CC(=O)[N-]c2ccc(C)cc2[N-]C(=O)c2ccccc2C)cc1 (optimized conformer: 64.98506465731774 kcal/mol)

>  <smiles>  (14) 
CCS(=O)(=O)c1ccc(CC(=O)Nc2ccc(C)cc2NC(=O)c2ccccc2C)cc1

>  <score_type>  (14) 
oracle

>  <origin>  (14) 
adg

>  <m_score__min__energy>  (14) 
-13.800000000000001

>  <m_primary>  (14) 
energy

$$$$
14:0
     RDKit          3D

 42 44  0  0  0  0  0  0  0  0999 V2000
   59.3720   25.9111   47.2174 H   0  0  0  0  0  0  0  0  0  0  0  0
   58.4340   26.2590   46.7600 C   0  0  0  0  0  0  0  0  0  0  0  0
   57.2750   25.4920   46.8710 C   0  0  0  0  0  0  0  0  0  0  0  0
   57.2933   24.5317   47.4072 H   0  0  0  0  0  0  0  0  0  0  0  0
   56.0920   25.9550   46.2950 C   0  0  0  0  0  0  0  0  0  0  0  0
   55.1704   25.3614   46.3857 H   0  0  0  0  0  0  0  0  0  0  0  0
   56.0720   27.1380   45.6210 N   0  0  0  0  0  0  0  0  0  0  0  0
   55.1460   27.4600   45.2670 H   0  0  0  0  0  0  0  0  0  0  0  0
   57.2040   27.8980   45.4730 C   0  0  0  0  0  0  0  0  0  0  0  0
   57.2080   29.0320   44.8290 N   0  0  0  0  0  0  0  0  0  0  0  0
   56.0930   29.8700   44.4960 C   0  0  0  0  0  0  0  0  0  0  0  0
   54.9610   29.3420   44.3370 O   0  0  0  0  0  0  0  0  0  0  0  0
   56.2320   31.2950   44.4490 N   0  0  0  0  0  0  0  0  0  0  0  0
   57.4930   31.9840   44.1910 C   0  0  0  0  0  0  0  0  0  0  0  0
   57.3176   33.0698   44.2044 H   0  0  0  0  0  0  0  0  0  0  0  0
   57.8698   31.6635   43.2085 H   0  0  0  0  0  0  0  0  0  0  0  0
   58.5480   31.6330   45.2550 C   0  0  0  0  0  0  0  0  0  0  0  0
   59.4306   31.2376   44.7308 H   0  0  0  0  0  0  0  0  0  0  0  0
   58.0520   30.9172   45.9271 H   0  0  0  0  0  0  0  0  0  0  0  0
   59.0190   32.7710   46.1600 C   0  0  0  0  0  0  0  0  0  0  0  0
   59.4170   34.0140   45.6180 C   0  0  0  0  0  0  0  0  0  0  0  0
   59.3695   34.1688   44.5300 H   0  0  0  0  0  0  0  0  0  0  0  0
   59.8680   35.0460   46.4360 C   0  0  0  0  0  0  0  0  0  0  0  0
   60.1877   35.9984   45.9880 H   0  0  0  0  0  0  0  0  0  0  0  0
   59.9170   34.8810   47.8150 C   0  0  0  0  0  0  0  0  0  0  0  0
   60.2928   35.6957   48.4514 H   0  0  0  0  0  0  0  0  0  0  0  0
   59.4900   33.6820   48.3970 C   0  0  0  0  0  0  0  0  0  0  0  0
   59.5190   33.5390   49.7910 C   0  0  0  0  0  0  0  0  0  0  0  0
   59.8956   34.3614   50.4169 H   0  0  0  0  0  0  0  0  0  0  0  0
   59.0740   32.3620   50.3890 C   0  0  0  0  0  0  0  0  0  0  0  0
   59.1079   32.2607   51.4838 H   0  0  0  0  0  0  0  0  0  0  0  0
   58.5860   31.3110   49.6130 C   0  0  0  0  0  0  0  0  0  0  0  0
   58.1380   30.1550   50.2720 O   0  0  0  0  0  0  0  0  0  0  0  0
   57.8390   30.0810   51.6620 C   0  0  0  0  0  0  0  0  0  0  0  0
   58.7449   30.3052   52.2444 H   0  0  0  0  0  0  0  0  0  0  0  0
   57.0548   30.8122   51.9078 H   0  0  0  0  0  0  0  0  0  0  0  0
   57.4863   29.0685   51.9078 H   0  0  0  0  0  0  0  0  0  0  0  0
   58.5540   31.4410   48.2110 C   0  0  0  0  0  0  0  0  0  0  0  0
   58.1615   30.6158   47.5986 H   0  0  0  0  0  0  0  0  0  0  0  0
   59.0200   32.6190   47.5790 C   0  0  0  0  0  0  0  0  0  0  0  0
   58.4000   27.4690   46.0670 C   0  0  0  0  0  0  0  0  0  0  0  0
   59.3080   28.0847   45.9866 H   0  0  0  0  0  0  0  0  0  0  0  0
  1  2  1  0
  2  3  1  0
  3  4  1  0
  3  5  2  0
  5  6  1  0
  5  7  1  0
  7  8  1  0
  7  9  1  0
  9 10  2  0
 10 11  1  0
 11 12  2  0
 11 13  1  0
 13 14  1  0
 14 15  1  0
 14 16  1  0
 14 17  1  0
 17 18  1  0
 17 19  1  0
 17 20  1  0
 20 21  2  0
 21 22  1  0
 21 23  1  0
 23 24  1  0
 23 25  2  0
 25 26  1  0
 25 27  1  0
 27 28  2  0
 28 29  1  0
 28 30  1  0
 30 31  1  0
 30 32  2  0
 32 33  1  0
 33 34  1  0
 34 35  1  0
 34 36  1  0
 34 37  1  0
 32 38  1  0
 38 39  1  0
 38 40  2  0
  9 41  1  0
 41 42  1  0
 41  2  2  0
 40 20  1  0
 40 27  1  0
M  CHG  1  13  -1
M  END
>  <UniqueID>  (15) 
13

>  <SMILES>  (15) 
COc1ccc2cccc(CC[N-]C(=O)/N=c3/cccc[nH]3)c2c1

>  <Energy>  (15) 
57.53126186885288

>  <Genealogy>  (15) 
COc1ccc2cccc(CC[N-]C(=O)N=c3cccc[nH]3)c2c1 (protonated)
COc1ccc2cccc(CC[N-]C(=O)/N=c3/cccc[nH]3)c2c1 (cis-trans isomerization)
COc1ccc2cccc(CC[N-]C(=O)/N=c3/cccc[nH]3)c2c1 (3D coordinates assigned)
COc1ccc2cccc(CC[N-]C(=O)/N=c3/cccc[nH]3)c2c1 (optimized conformer: 57.53126186885288 kcal/mol)

>  <smiles>  (15) 
COc1ccc2cccc(CCNC(=O)N=c3cccc[nH]3)c2c1

>  <score_type>  (15) 
oracle

>  <origin>  (15) 
adg

>  <m_score__min__energy>  (15) 
-9.5199999999999996

>  <m_primary>  (15) 
energy

$$$$
15:0
     RDKit          3D

 33 35  0  0  0  0  0  0  0  0999 V2000
   54.9720   29.5330   43.9660 N   0  0  0  0  0  0  0  0  0  0  0  0
   56.2990   29.6350   43.4550 C   0  0  0  0  0  0  0  0  0  0  0  0
   56.5210   30.3810   42.4670 O   0  0  0  0  0  0  0  0  0  0  0  0
   57.3830   28.8500   44.0790 C   0  0  0  0  0  0  0  0  0  0  0  0
   58.1710   28.2220   43.3220 O   0  0  0  0  0  0  0  0  0  0  0  0
   57.5840   28.7790   45.5110 N   0  0  0  0  0  0  0  0  0  0  0  0
   57.4950   27.4540   46.0800 C   0  0  0  0  0  0  0  0  0  0  0  0
   56.3040   26.7130   46.0510 C   0  0  0  0  0  0  0  0  0  0  0  0
   56.2770   25.4160   46.5740 C   0  0  0  0  0  0  0  0  0  0  0  0
   57.4360   24.8530   47.1210 C   0  0  0  0  0  0  0  0  0  0  0  0
   58.6250   25.5880   47.1590 C   0  0  0  0  0  0  0  0  0  0  0  0
   58.6550   26.8890   46.6500 C   0  0  0  0  0  0  0  0  0  0  0  0
   59.8660   27.6610   46.6850 N   0  0  0  0  0  0  0  0  0  0  0  0
   59.8140   29.0560   46.3630 C   0  0  0  0  0  0  0  0  0  0  0  0
   60.8750   29.6780   46.0910 O   0  0  0  0  0  0  0  0  0  0  0  0
   58.4440   29.7030   46.2950 C   0  0  1  0  0  0  0  0  0  0  0  0
   58.4060   31.1990   45.9250 C   0  0  0  0  0  0  0  0  0  0  0  0
   57.5440   31.7020   44.9230 C   0  0  0  0  0  0  0  0  0  0  0  0
   57.5310   33.0590   44.5920 C   0  0  0  0  0  0  0  0  0  0  0  0
   58.3190   33.9590   45.3020 C   0  0  0  0  0  0  0  0  0  0  0  0
   59.0710   33.5140   46.3850 C   0  0  0  0  0  0  0  0  0  0  0  0
   59.0880   32.1560   46.7300 C   0  0  0  0  0  0  0  0  0  0  0  0
   59.8460   31.7460   48.2690 Cl  0  0  0  0  0  0  0  0  0  0  0  0
   54.7730   28.9880   44.8350 H   0  0  0  0  0  0  0  0  0  0  0  0
   55.3929   27.1513   45.6177 H   0  0  0  0  0  0  0  0  0  0  0  0
   55.3421   24.8366   46.5554 H   0  0  0  0  0  0  0  0  0  0  0  0
   57.4114   23.8291   47.5222 H   0  0  0  0  0  0  0  0  0  0  0  0
   59.5346   25.1430   47.5886 H   0  0  0  0  0  0  0  0  0  0  0  0
   58.0245   29.8121   47.3060 H   0  0  0  0  0  0  0  0  0  0  0  0
   56.8708   31.0113   44.3941 H   0  0  0  0  0  0  0  0  0  0  0  0
   56.8962   33.4168   43.7680 H   0  0  0  0  0  0  0  0  0  0  0  0
   58.3476   35.0187   45.0084 H   0  0  0  0  0  0  0  0  0  0  0  0
   59.6569   34.2341   46.9751 H   0  0  0  0  0  0  0  0  0  0  0  0
  1  2  1  0
  2  3  2  0
  2  4  1  0
  4  5  2  0
  4  6  1  0
  6  7  1  0
  7  8  2  0
  8  9  1  0
  9 10  2  0
 10 11  1  0
 11 12  2  0
 12 13  1  0
 13 14  1  0
 14 15  2  0
 14 16  1  0
 16 17  1  0
 17 18  2  0
 18 19  1  0
 19 20  2  0
 20 21  1  0
 21 22  2  0
 22 23  1  0
 16  6  1  0
 22 17  1  0
 12  7  1  0
  1 24  1  0
  8 25  1  0
  9 26  1  0
 10 27  1  0
 11 28  1  0
 16 29  1  1
 18 30  1  0
 19 31  1  0
 20 32  1  0
 21 33  1  0
M  CHG  2   1  -1  13  -1
M  END
>  <UniqueID>  (16) 
14

>  <SMILES>  (16) 
[NH-]C(=O)C(=O)N1c2ccccc2[N-]C(=O)[C@H]1c1ccccc1Cl

>  <Energy>  (16) 
69.49324718234443

>  <Genealogy>  (16) 
[NH-]C(=O)C(=O)N1c2ccccc2[N-]C(=O)C1c1ccccc1Cl (protonated)
[NH-]C(=O)C(=O)N1c2ccccc2[N-]C(=O)[C@H]1c1ccccc1Cl (chirality)
[NH-]C(=O)C(=O)N1c2ccccc2[N-]C(=O)[C@H]1c1ccccc1Cl (3D coordinates assigned)
[NH-]C(=O)C(=O)N1c2ccccc2[N-]C(=O)[C@H]1c1ccccc1Cl (nonaromatic ring conformer: 69.49324718234443 kcal/mol)

>  <smiles>  (16) 
NC(=O)C(=O)N1c2ccccc2NC(=O)C1c1ccccc1Cl

>  <score_type>  (16) 
oracle

>  <origin>  (16) 
adg

>  <m_score__min__energy>  (16) 
-11.09

>  <m_primary>  (16) 
energy

$$$$
16:0
     RDKit          3D

 22 23  0  0  0  0  0  0  0  0999 V2000
   58.4500   27.5490   44.6680 Cl  0  0  0  0  0  0  0  0  0  0  0  0
   57.7470   29.1430   44.4950 C   0  0  0  0  0  0  0  0  0  0  0  0
   56.4370   29.5080   44.7250 C   0  0  0  0  0  0  0  0  0  0  0  0
   56.3000   30.8290   44.4970 N   0  0  0  0  0  0  0  0  0  0  0  0
   57.4830   31.2940   44.1200 N   0  0  0  0  0  0  0  0  0  0  0  0
   57.7530   32.7000   43.8450 C   0  0  0  0  0  0  0  0  0  0  0  0
   58.2710   33.3720   45.0860 C   0  0  0  0  0  0  0  0  0  0  0  0
   57.9590   32.8550   46.3540 C   0  0  0  0  0  0  0  0  0  0  0  0
   58.4740   33.4580   47.5070 C   0  0  0  0  0  0  0  0  0  0  0  0
   59.3120   34.5710   47.4000 C   0  0  0  0  0  0  0  0  0  0  0  0
   59.6390   35.0820   46.1400 C   0  0  0  0  0  0  0  0  0  0  0  0
   59.1260   34.4820   44.9860 C   0  0  0  0  0  0  0  0  0  0  0  0
   58.3910   30.2990   44.1170 C   0  0  0  0  0  0  0  0  0  0  0  0
   55.6324   28.8290   45.0437 H   0  0  0  0  0  0  0  0  0  0  0  0
   58.5056   32.7778   43.0465 H   0  0  0  0  0  0  0  0  0  0  0  0
   56.8224   33.1928   43.5270 H   0  0  0  0  0  0  0  0  0  0  0  0
   57.3075   31.9730   46.4411 H   0  0  0  0  0  0  0  0  0  0  0  0
   58.2189   33.0555   48.4984 H   0  0  0  0  0  0  0  0  0  0  0  0
   59.7146   35.0454   48.3071 H   0  0  0  0  0  0  0  0  0  0  0  0
   60.3005   35.9569   46.0567 H   0  0  0  0  0  0  0  0  0  0  0  0
   59.3929   34.8807   43.9961 H   0  0  0  0  0  0  0  0  0  0  0  0
   59.4561   30.3935   43.8588 H   0  0  0  0  0  0  0  0  0  0  0  0
  1  2  1  0
  2  3  1  0
  3  4  2  0
  4  5  1  0
  5  6  1  0
  6  7  1  0
  7  8  2  0
  8  9  1  0
  9 10  2  0
 10 11  1  0
 11 12  2  0
  5 13  1  0
 13  2  2  0
 12  7  1  0
  3 14  1  0
  6 15  1  0
  6 16  1  0
  8 17  1  0
  9 18  1  0
 10 19  1  0
 11 20  1  0
 12 21  1  0
 13 22  1  0
M  END
>  <UniqueID>  (17) 
15

>  <SMILES>  (17) 
Clc1cnn(Cc2ccccc2)c1

>  <Energy>  (17) 
50.784294417858064

>  <Genealogy>  (17) 
Clc1cnn(Cc2ccccc2)c1 (3D coordinates assigned)
Clc1cnn(Cc2ccccc2)c1 (optimized conformer: 50.784294417858064 kcal/mol)

>  <smiles>  (17) 
Clc1cnn(Cc2ccccc2)c1

>  <score_type>  (17) 
oracle

>  <origin>  (17) 
adg

>  <m_score__min__energy>  (17) 
-5.9000000000000004

>  <m_primary>  (17) 
energy

$$$$
17:0
     RDKit          3D

 39 42  0  0  1  0  0  0  0  0999 V2000
   58.2620   34.5920   46.4220 C   0  0  0  0  0  0  0  0  0  0  0  0
   58.1130   33.3250   45.6540 C   0  0  0  0  0  0  0  0  0  0  0  0
   58.2000   33.4090   44.2780 C   0  0  0  0  0  0  0  0  0  0  0  0
   58.0620   32.2330   43.5410 C   0  0  0  0  0  0  0  0  0  0  0  0
   58.1370   32.2790   42.2790 O   0  0  0  0  0  0  0  0  0  0  0  0
   57.8510   31.0630   44.2040 N   0  0  0  0  0  0  0  0  0  0  0  0
   57.6920   29.8310   43.7300 N   0  0  0  0  0  0  0  0  0  0  0  0
   57.5070   28.9680   44.7570 C   0  0  0  0  0  0  0  0  0  0  0  0
   57.3270   27.6970   44.5780 N   0  0  0  0  0  0  0  0  0  0  0  0
   57.3660   26.8240   45.6950 N   0  0  0  0  0  0  0  0  0  0  0  0
   58.4940   26.4510   46.3300 C   0  0  0  0  0  0  0  0  0  0  0  0
   59.9020   26.8140   46.0640 C   0  0  0  0  0  0  0  0  0  0  0  0
   60.1700   28.1640   46.6540 C   0  0  0  0  0  0  0  0  0  0  0  0
   59.9010   28.4400   47.9900 C   0  0  0  0  0  0  0  0  0  0  0  0
   60.1440   29.6850   48.5470 C   0  0  0  0  0  0  0  0  0  0  0  0
   60.6700   30.6950   47.7580 C   0  0  0  0  0  0  0  0  0  0  0  0
   60.9410   30.4510   46.4470 C   0  0  0  0  0  0  0  0  0  0  0  0
   60.6920   29.2010   45.9060 C   0  0  0  0  0  0  0  0  0  0  0  0
   60.9670   28.9710   44.6000 F   0  0  0  0  0  0  0  0  0  0  0  0
   58.1170   25.6270   47.3270 N   0  0  0  0  0  0  0  0  0  0  0  0
   56.8160   25.4880   47.3180 N   0  0  0  0  0  0  0  0  0  0  0  0
   56.3190   26.2270   46.3080 C   0  0  0  0  0  0  0  0  0  0  0  0
   55.1060   26.3390   45.9930 O   0  0  0  0  0  0  0  0  0  0  0  0
   57.5570   29.6930   45.8690 N   0  0  0  0  0  0  0  0  0  0  0  0
   57.7700   31.0000   45.5440 C   0  0  0  0  0  0  0  0  0  0  0  0
   57.9010   32.1310   46.2720 N   0  0  0  0  0  0  0  0  0  0  0  0
   58.2362   34.3728   47.4996 H   0  0  0  0  0  0  0  0  0  0  0  0
   59.2219   35.0647   46.1669 H   0  0  0  0  0  0  0  0  0  0  0  0
   57.4379   35.2745   46.1669 H   0  0  0  0  0  0  0  0  0  0  0  0
   58.3728   34.3738   43.7788 H   0  0  0  0  0  0  0  0  0  0  0  0
   57.7130   29.6040   42.6930 H   0  0  0  0  0  0  0  0  0  0  0  0
   60.5692   26.0701   46.5239 H   0  0  0  0  0  0  0  0  0  0  0  0
   60.0846   26.8362   44.9795 H   0  0  0  0  0  0  0  0  0  0  0  0
   59.4822   27.6450   48.6245 H   0  0  0  0  0  0  0  0  0  0  0  0
   59.9209   29.8703   49.6081 H   0  0  0  0  0  0  0  0  0  0  0  0
   60.8673   31.6878   48.1885 H   0  0  0  0  0  0  0  0  0  0  0  0
   61.3589   31.2488   45.8154 H   0  0  0  0  0  0  0  0  0  0  0  0
   56.3030   24.8870   48.0130 H   0  0  0  0  0  0  0  0  0  0  0  0
   57.8370   32.0720   47.2910 H   0  0  0  0  0  0  0  0  0  0  0  0
  1  2  1  0
  2  3  2  0
  3  4  1  0
  4  5  2  0
  4  6  1  0
  6  7  1  0
  7  8  1  0
  8  9  2  0
  9 10  1  0
 10 11  1  0
 11 12  1  0
 12 13  1  0
 13 14  2  0
 14 15  1  0
 15 16  2  0
 16 17  1  0
 17 18  2  0
 18 19  1  0
 11 20  2  0
 20 21  1  0
 21 22  1  0
 22 23  2  0
  8 24  1  0
 24 25  2  0
 25 26  1  0
 26  2  1  0
 25  6  1  0
 22 10  1  0
 18 13  1  0
  1 27  1  0
  1 28  1  0
  1 29  1  0
  3 30  1  0
  7 31  1  0
 12 32  1  0
 12 33  1  0
 14 34  1  0
 15 35  1  0
 16 36  1  0
 17 37  1  0
 21 38  1  0
 26 39  1  0
M  END
>  <smiles>  (18) 
Cc1cc(=O)n2[nH]c(=Nn3c(Cc4ccccc4F)n[nH]c3=O)nc2[nH]1

>  <score_type>  (18) 
oracle

>  <origin>  (18) 
adg

>  <m_score__min__energy>  (18) 
-8.6099999999999994

>  <m_primary>  (18) 
energy

$$$$
18:0
     RDKit          3D

 45 47  0  0  0  0  0  0  0  0999 V2000
   59.6300   35.3400   45.8800 C   0  0  0  0  0  0  0  0  0  0  0  0
   58.6560   34.5960   46.7870 C   0  0  0  0  0  0  0  0  0  0  0  0
   58.4010   33.2090   46.2750 C   0  0  0  0  0  0  0  0  0  0  0  0
   57.3010   32.8730   45.5700 N   0  0  0  0  0  0  0  0  0  0  0  0
   57.4100   31.5880   45.2660 N   0  0  0  0  0  0  0  0  0  0  0  0
   58.5780   31.1600   45.7830 C   0  0  0  0  0  0  0  0  0  0  0  0
   59.1410   29.4570   45.6840 S   0  0  0  0  0  0  0  0  0  0  0  0
   57.8820   28.9590   44.4570 C   0  0  0  0  0  0  0  0  0  0  0  0
   56.6230   28.5410   45.1440 C   0  0  0  0  0  0  0  0  0  0  0  0
   55.5330   29.0940   44.8410 O   0  0  0  0  0  0  0  0  0  0  0  0
   56.6560   27.4480   46.0700 N   0  0  0  0  0  0  0  0  0  0  0  0
   56.6060   26.0560   45.7270 C   0  0  0  0  0  0  0  0  0  0  0  0
   57.8130   25.3600   45.5760 C   0  0  0  0  0  0  0  0  0  0  0  0
   57.8130   24.0000   45.2530 C   0  0  0  0  0  0  0  0  0  0  0  0
   56.6020   23.3180   45.1030 C   0  0  0  0  0  0  0  0  0  0  0  0
   55.3940   23.9930   45.2910 C   0  0  0  0  0  0  0  0  0  0  0  0
   55.3880   25.3560   45.6100 C   0  0  0  0  0  0  0  0  0  0  0  0
   54.2010   25.9620   45.8700 F   0  0  0  0  0  0  0  0  0  0  0  0
   59.2260   32.1510   46.4240 N   0  0  0  0  0  0  0  0  0  0  0  0
   60.4790   32.0710   47.1200 C   0  0  0  0  0  0  0  0  0  0  0  0
   60.6270   31.2020   48.2090 C   0  0  0  0  0  0  0  0  0  0  0  0
   61.8400   31.1380   48.9020 C   0  0  0  0  0  0  0  0  0  0  0  0
   62.9220   31.9540   48.5180 C   0  0  0  0  0  0  0  0  0  0  0  0
   64.1560   31.9330   49.1870 O   0  0  0  0  0  0  0  0  0  0  0  0
   64.8430   33.0940   49.6390 C   0  0  0  0  0  0  0  0  0  0  0  0
   62.7670   32.8230   47.4330 C   0  0  0  0  0  0  0  0  0  0  0  0
   61.5550   32.8840   46.7380 C   0  0  0  0  0  0  0  0  0  0  0  0
   60.3545   35.8934   46.4955 H   0  0  0  0  0  0  0  0  0  0  0  0
   60.1643   34.6179   45.2451 H   0  0  0  0  0  0  0  0  0  0  0  0
   59.0739   36.0454   45.2451 H   0  0  0  0  0  0  0  0  0  0  0  0
   59.0823   34.5336   47.7991 H   0  0  0  0  0  0  0  0  0  0  0  0
   57.7029   35.1449   46.8048 H   0  0  0  0  0  0  0  0  0  0  0  0
   57.6674   29.8088   43.7924 H   0  0  0  0  0  0  0  0  0  0  0  0
   58.2685   28.1109   43.8728 H   0  0  0  0  0  0  0  0  0  0  0  0
   58.7681   25.8882   45.7128 H   0  0  0  0  0  0  0  0  0  0  0  0
   58.7654   23.4667   45.1169 H   0  0  0  0  0  0  0  0  0  0  0  0
   56.6006   22.2506   44.8371 H   0  0  0  0  0  0  0  0  0  0  0  0
   54.4424   23.4509   45.1879 H   0  0  0  0  0  0  0  0  0  0  0  0
   59.7847   30.5668   48.5205 H   0  0  0  0  0  0  0  0  0  0  0  0
   61.9497   30.4472   49.7510 H   0  0  0  0  0  0  0  0  0  0  0  0
   64.8523   33.1097   50.7388 H   0  0  0  0  0  0  0  0  0  0  0  0
   65.8769   33.0776   49.2638 H   0  0  0  0  0  0  0  0  0  0  0  0
   64.3310   33.9924   49.2638 H   0  0  0  0  0  0  0  0  0  0  0  0
   63.6057   33.4640   47.1237 H   0  0  0  0  0  0  0  0  0  0  0  0
   61.4456   33.5732   45.8877 H   0  0  0  0  0  0  0  0  0  0  0  0
  1  2  1  0
  2  3  1  0
  3  4  2  0
  4  5  1  0
  5  6  2  0
  6  7  1  0
  7  8  1  0
  8  9  1  0
  9 10  2  0
  9 11  1  0
 11 12  1  0
 12 13  2  0
 13 14  1  0
 14 15  2  0
 15 16  1  0
 16 17  2  0
 17 18  1  0
  6 19  1  0
 19 20  1  0
 20 21  2  0
 21 22  1  0
 22 23  2  0
 23 24  1  0
 24 25  1  0
 23 26  1  0
 26 27  2  0
 19  3  1  0
 27 20  1  0
 17 12  1  0
  1 28  1  0
  1 29  1  0
  1 30  1  0
  2 31  1  0
  2 32  1  0
  8 33  1  0
  8 34  1  0
 13 35  1  0
 14 36  1  0
 15 37  1  0
 16 38  1  0
 21 39  1  0
 22 40  1  0
 25 41  1  0
 25 42  1  0
 25 43  1  0
 26 44  1  0
 27 45  1  0
M  CHG  1  11  -1
M  END
>  <UniqueID>  (19) 
16

>  <SMILES>  (19) 
CCc1nnc(SCC(=O)[N-]c2ccccc2F)n1-c1ccc(OC)cc1

>  <Energy>  (19) 
83.74217841750783

>  <Genealogy>  (19) 
CCc1nnc(SCC(=O)[N-]c2ccccc2F)n1-c1ccc(OC)cc1 (protonated)
CCc1nnc(SCC(=O)[N-]c2ccccc2F)n1-c1ccc(OC)cc1 (3D coordinates assigned)
CCc1nnc(SCC(=O)[N-]c2ccccc2F)n1-c1ccc(OC)cc1 (optimized conformer: 83.74217841750783 kcal/mol)

>  <smiles>  (19) 
CCc1nnc(SCC(=O)Nc2ccccc2F)n1-c1ccc(OC)cc1

>  <score_type>  (19) 
oracle

>  <origin>  (19) 
adg

>  <m_score__min__energy>  (19) 
-9.8100000000000005

>  <m_primary>  (19) 
energy

$$$$
19:0
     RDKit          3D

 33 34  0  0  0  0  0  0  0  0999 V2000
   61.8680   34.0820   49.3470 C   0  0  0  0  0  0  0  0  0  0  0  0
   60.4910   34.4250   49.2460 O   0  0  0  0  0  0  0  0  0  0  0  0
   59.7510   34.2420   48.0740 C   0  0  0  0  0  0  0  0  0  0  0  0
   58.7770   33.2430   48.0180 C   0  0  0  0  0  0  0  0  0  0  0  0
   58.0590   33.0720   46.8780 N   0  0  0  0  0  0  0  0  0  0  0  0
   58.2590   33.8600   45.7860 C   0  0  0  0  0  0  0  0  0  0  0  0
   57.4540   33.6280   44.5390 C   0  0  0  0  0  0  0  0  0  0  0  0
   57.8830   32.3970   43.8740 N   0  0  0  0  0  0  0  0  0  0  0  0
   57.6590   31.0710   44.3910 C   0  0  0  0  0  0  0  0  0  0  0  0
   56.4000   30.4730   44.2210 C   0  0  0  0  0  0  0  0  0  0  0  0
   56.1510   29.1860   44.7070 C   0  0  0  0  0  0  0  0  0  0  0  0
   57.1560   28.4800   45.3800 C   0  0  0  0  0  0  0  0  0  0  0  0
   56.8500   26.8530   45.9780 S   0  0  0  0  0  0  0  0  0  0  0  0
   55.1490   26.5510   45.9860 N   0  0  0  0  0  0  0  0  0  0  0  0
   57.5350   25.8480   45.0930 O   0  0  0  0  0  0  0  0  0  0  0  0
   57.3890   26.7120   47.3730 O   0  0  0  0  0  0  0  0  0  0  0  0
   58.4150   29.0670   45.5520 C   0  0  0  0  0  0  0  0  0  0  0  0
   58.6660   30.3540   45.0660 C   0  0  0  0  0  0  0  0  0  0  0  0
   59.2440   34.8560   45.8390 C   0  0  0  0  0  0  0  0  0  0  0  0
   59.9620   35.0260   46.9800 N   0  0  0  0  0  0  0  0  0  0  0  0
   62.1514   34.0114   50.4075 H   0  0  0  0  0  0  0  0  0  0  0  0
   62.0415   33.1132   48.8558 H   0  0  0  0  0  0  0  0  0  0  0  0
   62.4757   34.8562   48.8558 H   0  0  0  0  0  0  0  0  0  0  0  0
   58.5927   32.5993   48.8908 H   0  0  0  0  0  0  0  0  0  0  0  0
   56.3901   33.5438   44.8053 H   0  0  0  0  0  0  0  0  0  0  0  0
   57.6073   34.4747   43.8537 H   0  0  0  0  0  0  0  0  0  0  0  0
   58.4060   32.5000   42.9750 H   0  0  0  0  0  0  0  0  0  0  0  0
   55.6019   31.0225   43.7004 H   0  0  0  0  0  0  0  0  0  0  0  0
   55.1625   28.7264   44.5603 H   0  0  0  0  0  0  0  0  0  0  0  0
   54.7490   27.0780   46.7940 H   0  0  0  0  0  0  0  0  0  0  0  0
   59.2107   28.5133   46.0719 H   0  0  0  0  0  0  0  0  0  0  0  0
   59.6566   30.8095   45.2119 H   0  0  0  0  0  0  0  0  0  0  0  0
   59.4342   35.4948   44.9639 H   0  0  0  0  0  0  0  0  0  0  0  0
  1  2  1  0
  2  3  1  0
  3  4  2  0
  4  5  1  0
  5  6  2  0
  6  7  1  0
  7  8  1  0
  8  9  1  0
  9 10  2  0
 10 11  1  0
 11 12  2  0
 12 13  1  0
 13 14  1  0
 13 15  2  0
 13 16  2  0
 12 17  1  0
 17 18  2  0
  6 19  1  0
 19 20  2  0
 20  3  1  0
 18  9  1  0
  1 21  1  0
  1 22  1  0
  1 23  1  0
  4 24  1  0
  7 25  1  0
  7 26  1  0
  8 27  1  0
 10 28  1  0
 11 29  1  0
 14 30  1  0
 17 31  1  0
 18 32  1  0
 19 33  1  0
M  CHG  1  14  -1
M  END
>  <UniqueID>  (20) 
17

>  <SMILES>  (20) 
COc1cnc(CNc2ccc(S([NH-])(=O)=O)cc2)cn1

>  <Energy>  (20) 
31.76714640961009

>  <Genealogy>  (20) 
COc1cnc(CNc2ccc(S([NH-])(=O)=O)cc2)cn1 (protonated)
COc1cnc(CNc2ccc(S([NH-])(=O)=O)cc2)cn1 (3D coordinates assigned)
COc1cnc(CNc2ccc(S([NH-])(=O)=O)cc2)cn1 (optimized conformer: 31.76714640961009 kcal/mol)

>  <smiles>  (20) 
COc1cnc(CNc2ccc(S(N)(=O)=O)cc2)cn1

>  <score_type>  (20) 
oracle

>  <origin>  (20) 
adg

>  <m_score__min__energy>  (20) 
-9.3300000000000001

>  <m_primary>  (20) 
energy

$$$$
20:0
     RDKit          3D

 48 51  0  0  0  0  0  0  0  0999 V2000
   60.4690   27.7870   50.0730 C   0  0  0  0  0  0  0  0  0  0  0  0
   60.4910   28.8540   49.0610 N   0  0  0  0  0  0  0  0  0  0  0  0
   60.3890   28.5890   47.7110 C   0  0  0  0  0  0  0  0  0  0  0  0
   60.2610   27.3960   47.3180 O   0  0  0  0  0  0  0  0  0  0  0  0
   60.4260   29.6180   46.7810 N   0  0  0  0  0  0  0  0  0  0  0  0
   60.2670   29.3220   45.3420 C   0  0  0  0  0  0  0  0  0  0  0  0
   58.8430   29.5570   44.9080 C   0  0  0  0  0  0  0  0  0  0  0  0
   58.5210   30.6510   44.0870 C   0  0  0  0  0  0  0  0  0  0  0  0
   57.1940   30.8860   43.7150 C   0  0  0  0  0  0  0  0  0  0  0  0
   56.1790   30.0360   44.1600 C   0  0  0  0  0  0  0  0  0  0  0  0
   56.4900   28.9490   44.9810 C   0  0  0  0  0  0  0  0  0  0  0  0
   57.8150   28.7100   45.3560 C   0  0  0  0  0  0  0  0  0  0  0  0
   60.5710   30.9230   47.1970 C   0  0  0  0  0  0  0  0  0  0  0  0
   60.5980   31.8710   46.3670 O   0  0  0  0  0  0  0  0  0  0  0  0
   60.6860   31.1740   48.5600 C   0  0  0  0  0  0  0  0  0  0  0  0
   60.6440   30.1490   49.4450 C   0  0  0  0  0  0  0  0  0  0  0  0
   60.7940   30.6160   50.6980 N   0  0  0  0  0  0  0  0  0  0  0  0
   60.9260   31.9530   50.5370 C   0  0  0  0  0  0  0  0  0  0  0  0
   61.1830   33.0500   51.8850 Cl  0  0  0  0  0  0  0  0  0  0  0  0
   60.8620   32.3350   49.2320 N   0  0  0  0  0  0  0  0  0  0  0  0
   61.0510   33.6860   48.6940 C   0  0  0  0  0  0  0  0  0  0  0  0
   59.7170   34.4400   48.5970 C   0  0  0  0  0  0  0  0  0  0  0  0
   59.0610   34.2350   47.2570 C   0  0  0  0  0  0  0  0  0  0  0  0
   59.5920   34.8420   46.1070 C   0  0  0  0  0  0  0  0  0  0  0  0
   58.9540   34.6910   44.8720 C   0  0  0  0  0  0  0  0  0  0  0  0
   57.7800   33.9370   44.7780 C   0  0  0  0  0  0  0  0  0  0  0  0
   57.2410   33.3370   45.9190 C   0  0  0  0  0  0  0  0  0  0  0  0
   57.8770   33.4860   47.1570 C   0  0  0  0  0  0  0  0  0  0  0  0
   60.4782   28.2344   51.0778 H   0  0  0  0  0  0  0  0  0  0  0  0
   59.5582   27.1828   49.9490 H   0  0  0  0  0  0  0  0  0  0  0  0
   61.3541   27.1458   49.9490 H   0  0  0  0  0  0  0  0  0  0  0  0
   60.9346   29.9762   44.7621 H   0  0  0  0  0  0  0  0  0  0  0  0
   60.5226   28.2667   45.1659 H   0  0  0  0  0  0  0  0  0  0  0  0
   59.3161   31.3251   43.7357 H   0  0  0  0  0  0  0  0  0  0  0  0
   56.9486   31.7427   43.0701 H   0  0  0  0  0  0  0  0  0  0  0  0
   55.1359   30.2221   43.8645 H   0  0  0  0  0  0  0  0  0  0  0  0
   55.6906   28.2802   45.3328 H   0  0  0  0  0  0  0  0  0  0  0  0
   58.0543   27.8547   46.0050 H   0  0  0  0  0  0  0  0  0  0  0  0
   60.8200   30.0820   51.5950 H   0  0  0  0  0  0  0  0  0  0  0  0
   61.7302   34.2434   49.3558 H   0  0  0  0  0  0  0  0  0  0  0  0
   61.4756   33.6006   47.6829 H   0  0  0  0  0  0  0  0  0  0  0  0
   59.0420   34.0741   49.3847 H   0  0  0  0  0  0  0  0  0  0  0  0
   59.9189   35.5142   48.7207 H   0  0  0  0  0  0  0  0  0  0  0  0
   60.5134   35.4385   46.1783 H   0  0  0  0  0  0  0  0  0  0  0  0
   59.3758   35.1656   43.9738 H   0  0  0  0  0  0  0  0  0  0  0  0
   57.2806   33.8162   43.8054 H   0  0  0  0  0  0  0  0  0  0  0  0
   56.3157   32.7468   45.8443 H   0  0  0  0  0  0  0  0  0  0  0  0
   57.4484   33.0152   48.0540 H   0  0  0  0  0  0  0  0  0  0  0  0
  1  2  1  0
  2  3  1  0
  3  4  2  0
  3  5  1  0
  5  6  1  0
  6  7  1  0
  7  8  2  0
  8  9  1  0
  9 10  2  0
 10 11  1  0
 11 12  2  0
  5 13  1  0
 13 14  2  0
 13 15  1  0
 15 16  2  0
 16 17  1  0
 17 18  2  0
 18 19  1  0
 18 20  1  0
 20 21  1  0
 21 22  1  0
 22 23  1  0
 23 24  2  0
 24 25  1  0
 25 26  2  0
 26 27  1  0
 27 28  2  0
 16  2  1  0
 28 23  1  0
 12  7  1  0
 20 15  1  0
  1 29  1  0
  1 30  1  0
  1 31  1  0
  6 32  1  0
  6 33  1  0
  8 34  1  0
  9 35  1  0
 10 36  1  0
 11 37  1  0
 12 38  1  0
 17 39  1  0
 21 40  1  0
 21 41  1  0
 22 42  1  0
 22 43  1  0
 24 44  1  0
 25 45  1  0
 26 46  1  0
 27 47  1  0
 28 48  1  0
M  CHG  1  17   1
M  END
>  <UniqueID>  (21) 
18

>  <SMILES>  (21) 
Cn1c(=O)n(Cc2ccccc2)c(=O)c2c1[nH+]c(Cl)n2CCc1ccccc1

>  <Energy>  (21) 
95.2239528240447

>  <Genealogy>  (21) 
Cn1c(=O)n(Cc2ccccc2)c(=O)c2c1[nH+]c(Cl)n2CCc1ccccc1 (protonated)
Cn1c(=O)n(Cc2ccccc2)c(=O)c2c1[nH+]c(Cl)n2CCc1ccccc1 (3D coordinates assigned)
Cn1c(=O)n(Cc2ccccc2)c(=O)c2c1[nH+]c(Cl)n2CCc1ccccc1 (optimized conformer: 95.2239528240447 kcal/mol)

>  <smiles>  (21) 
Cn1c(=O)n(Cc2ccccc2)c(=O)c2c1nc(Cl)n2CCc1ccccc1

>  <score_type>  (21) 
oracle

>  <origin>  (21) 
adg

>  <m_score__min__energy>  (21) 
-6.5199999999999996

>  <m_primary>  (21) 
energy

$$$$
21:0
     RDKit          3D

 40 42  0  0  1  0  0  0  0  0999 V2000
   60.1120   32.1820   49.6280 C   0  0  0  0  0  0  0  0  0  0  0  0
   61.2850   32.3680   48.7500 C   0  0  0  0  0  0  0  0  0  0  0  0
   61.9080   33.5900   48.7390 C   0  0  0  0  0  0  0  0  0  0  0  0
   63.0120   33.8440   47.9440 C   0  0  0  0  0  0  0  0  0  0  0  0
   63.4920   32.8250   47.1390 C   0  0  0  0  0  0  0  0  0  0  0  0
   62.8760   31.5920   47.1410 C   0  0  0  0  0  0  0  0  0  0  0  0
   61.7760   31.3420   47.9330 C   0  0  0  0  0  0  0  0  0  0  0  0
   61.1050   30.0890   47.9700 N   0  0  0  0  0  0  0  0  0  0  0  0
   60.6310   29.6140   46.8630 C   0  0  0  0  0  0  0  0  0  0  0  0
   61.1080   29.4560   45.6450 N   0  0  0  0  0  0  0  0  0  0  0  0
   60.3090   28.9270   44.7760 N   0  0  0  0  0  0  0  0  0  0  0  0
   59.1890   28.5550   44.9140 C   0  0  0  0  0  0  0  0  0  0  0  0
   57.7940   27.8200   44.0770 S   0  0  0  0  0  0  0  0  0  0  0  0
   56.9280   29.1590   43.2370 C   0  0  0  0  0  0  0  0  0  0  0  0
   56.9980   30.4260   44.0500 C   0  0  0  0  0  0  0  0  0  0  0  0
   55.9130   30.8380   44.5100 O   0  0  0  0  0  0  0  0  0  0  0  0
   58.2380   31.0730   44.2500 N   0  0  0  0  0  0  0  0  0  0  0  0
   58.4450   32.2570   44.9850 C   0  0  0  0  0  0  0  0  0  0  0  0
   58.1780   32.2150   46.3440 C   0  0  0  0  0  0  0  0  0  0  0  0
   58.3550   33.3260   47.1280 C   0  0  0  0  0  0  0  0  0  0  0  0
   58.8030   34.5380   46.6240 C   0  0  0  0  0  0  0  0  0  0  0  0
   59.0700   34.5860   45.2810 C   0  0  0  0  0  0  0  0  0  0  0  0
   58.8870   33.4480   44.4850 C   0  0  0  0  0  0  0  0  0  0  0  0
   58.8930   28.9490   46.7560 S   0  0  0  0  0  0  0  0  0  0  0  0
   60.4297   32.2324   50.6799 H   0  0  0  0  0  0  0  0  0  0  0  0
   59.3757   32.9746   49.4290 H   0  0  0  0  0  0  0  0  0  0  0  0
   59.6570   31.2005   49.4290 H   0  0  0  0  0  0  0  0  0  0  0  0
   61.5181   34.3929   49.3819 H   0  0  0  0  0  0  0  0  0  0  0  0
   63.4964   34.8316   47.9515 H   0  0  0  0  0  0  0  0  0  0  0  0
   64.3673   32.9999   46.4961 H   0  0  0  0  0  0  0  0  0  0  0  0
   63.2701   30.7915   46.4977 H   0  0  0  0  0  0  0  0  0  0  0  0
   62.1030   29.7500   45.3900 H   0  0  0  0  0  0  0  0  0  0  0  0
   57.3945   29.3323   42.2560 H   0  0  0  0  0  0  0  0  0  0  0  0
   55.8727   28.8756   43.1108 H   0  0  0  0  0  0  0  0  0  0  0  0
   59.0730   30.5960   43.7930 H   0  0  0  0  0  0  0  0  0  0  0  0
   57.8200   31.2798   46.7991 H   0  0  0  0  0  0  0  0  0  0  0  0
   58.1321   33.2529   48.2027 H   0  0  0  0  0  0  0  0  0  0  0  0
   58.9374   35.4176   47.2708 H   0  0  0  0  0  0  0  0  0  0  0  0
   59.4292   35.5211   44.8265 H   0  0  0  0  0  0  0  0  0  0  0  0
   59.1092   33.5170   43.4099 H   0  0  0  0  0  0  0  0  0  0  0  0
  1  2  1  0
  2  3  2  0
  3  4  1  0
  4  5  2  0
  5  6  1  0
  6  7  2  0
  7  8  1  0
  8  9  2  0
  9 10  1  0
 10 11  1  0
 11 12  2  0
 12 13  1  0
 13 14  1  0
 14 15  1  0
 15 16  2  0
 15 17  1  0
 17 18  1  0
 18 19  2  0
 19 20  1  0
 20 21  2  0
 21 22  1  0
 22 23  2  0
 12 24  1  0
  7  2  1  0
 24  9  1  0
 23 18  1  0
  1 25  1  0
  1 26  1  0
  1 27  1  0
  3 28  1  0
  4 29  1  0
  5 30  1  0
  6 31  1  0
 10 32  1  0
 14 33  1  0
 14 34  1  0
 17 35  1  0
 19 36  1  0
 20 37  1  0
 21 38  1  0
 22 39  1  0
 23 40  1  0
M  END
>  <smiles>  (22) 
Cc1ccccc1N=c1[nH]nc(SCC(=O)Nc2ccccc2)s1

>  <score_type>  (22) 
oracle

>  <origin>  (22) 
adg

>  <m_score__min__energy>  (22) 
-8.8900000000000006

>  <m_primary>  (22) 
energy

$$$$
22:0
     RDKit          3D

 21 22  0  0  0  0  0  0  0  0999 V2000
   53.7400   26.1390   46.3620 H   0  0  0  0  0  0  0  0  0  0  0  0
   54.5740   25.6350   45.9840 N   0  0  0  0  0  0  0  0  0  0  0  0
   55.7570   26.1610   45.9730 C   0  0  0  0  0  0  0  0  0  0  0  0
   55.9040   27.4690   45.6290 N   0  0  0  0  0  0  0  0  0  0  0  0
   57.1220   28.0800   45.5970 C   0  0  0  0  0  0  0  0  0  0  0  0
   57.2120   29.5000   45.2170 C   0  0  0  0  0  0  0  0  0  0  0  0
   56.1610   30.2380   44.7900 N   0  0  0  0  0  0  0  0  0  0  0  0
   56.4800   31.4990   44.5020 N   0  0  0  0  0  0  0  0  0  0  0  0
   57.7870   31.7720   44.6980 C   0  0  0  0  0  0  0  0  0  0  0  0
   58.5210   33.3770   44.4040 S   0  0  0  0  0  0  0  0  0  0  0  0
   57.1770   34.2720   45.2390 C   0  0  0  0  0  0  0  0  0  0  0  0
   57.3024   34.1885   46.3286 H   0  0  0  0  0  0  0  0  0  0  0  0
   57.2055   35.3321   44.9468 H   0  0  0  0  0  0  0  0  0  0  0  0
   56.2098   33.8370   44.9468 H   0  0  0  0  0  0  0  0  0  0  0  0
   58.6240   30.4230   45.2540 S   0  0  0  0  0  0  0  0  0  0  0  0
   58.2710   27.3460   45.9270 C   0  0  0  0  0  0  0  0  0  0  0  0
   59.2610   27.8249   45.9054 H   0  0  0  0  0  0  0  0  0  0  0  0
   58.1460   26.0020   46.2830 C   0  0  0  0  0  0  0  0  0  0  0  0
   59.0401   25.4171   46.5447 H   0  0  0  0  0  0  0  0  0  0  0  0
   56.8870   25.4000   46.3070 C   0  0  0  0  0  0  0  0  0  0  0  0
   56.7821   24.3408   46.5847 H   0  0  0  0  0  0  0  0  0  0  0  0
  1  2  1  0
  2  3  2  0
  3  4  1  0
  4  5  1  0
  5  6  1  0
  6  7  2  0
  7  8  1  0
  8  9  2  0
  9 10  1  0
 10 11  1  0
 11 12  1  0
 11 13  1  0
 11 14  1  0
  9 15  1  0
  5 16  2  0
 16 17  1  0
 16 18  1  0
 18 19  1  0
 18 20  2  0
 20 21  1  0
 20  3  1  0
 15  6  1  0
M  CHG  1   4  -1
M  END
>  <UniqueID>  (23) 
19

>  <SMILES>  (23) 
[H]/N=c1\cccc(-c2nnc(SC)s2)[n-]1

>  <Energy>  (23) 
52.211346016129916

>  <Genealogy>  (23) 
CSc1nnc(-c2cccc(=N)[n-]2)s1 (protonated)
[H]/N=c1\cccc(-c2nnc(SC)s2)[n-]1 (cis-trans isomerization)
[H]/N=c1\cccc(-c2nnc(SC)s2)[n-]1 (3D coordinates assigned)
[H]/N=c1\cccc(-c2nnc(SC)s2)[n-]1 (optimized conformer: 52.211346016129916 kcal/mol)

>  <smiles>  (23) 
CSc1nnc(-c2cccc(=N)[nH]2)s1

>  <score_type>  (23) 
oracle

>  <origin>  (23) 
adg

>  <m_score__min__energy>  (23) 
-9.3000000000000007

>  <m_primary>  (23) 
energy

$$$$
23:0
     RDKit          3D

 52 54  0  0  0  0  0  0  0  0999 V2000
   63.1360   33.4590   46.7640 C   0  0  0  0  0  0  0  0  0  0  0  0
   61.8790   32.8050   46.6110 O   0  0  0  0  0  0  0  0  0  0  0  0
   61.1070   32.3040   47.6710 C   0  0  0  0  0  0  0  0  0  0  0  0
   60.8600   33.0580   48.8320 C   0  0  0  0  0  0  0  0  0  0  0  0
   60.0910   32.5270   49.8670 C   0  0  0  0  0  0  0  0  0  0  0  0
   59.7840   33.4780   51.3090 Cl  0  0  0  0  0  0  0  0  0  0  0  0
   59.5680   31.2390   49.7590 C   0  0  0  0  0  0  0  0  0  0  0  0
   59.8010   30.4610   48.6130 C   0  0  0  0  0  0  0  0  0  0  0  0
   59.2010   29.0710   48.5810 C   0  0  0  0  0  0  0  0  0  0  0  0
   59.0640   28.6010   47.1860 N   0  0  0  0  0  0  0  0  0  0  0  0
   59.1130   27.1170   47.0800 C   0  0  0  0  0  0  0  0  0  0  0  0
   57.7260   26.4850   46.8990 C   0  0  0  0  0  0  0  0  0  0  0  0
   57.0400   27.0030   45.6230 C   0  0  0  0  0  0  0  0  0  0  0  0
   57.4610   28.4520   45.2720 C   0  0  1  0  0  0  0  0  0  0  0  0
   56.3680   29.1980   44.4870 C   0  0  0  0  0  0  0  0  0  0  0  0
   56.3530   30.6180   44.8400 N   0  0  0  0  0  0  0  0  0  0  0  0
   57.7350   31.4120   44.1530 S   0  0  0  0  0  0  0  0  0  0  0  0
   57.3920   31.9060   42.7750 O   0  0  0  0  0  0  0  0  0  0  0  0
   58.8770   30.4380   44.0540 O   0  0  0  0  0  0  0  0  0  0  0  0
   58.1860   32.7840   45.1600 C   0  0  0  0  0  0  0  0  0  0  0  0
   58.9350   33.8460   44.6320 C   0  0  0  0  0  0  0  0  0  0  0  0
   59.2890   34.9280   45.4450 C   0  0  0  0  0  0  0  0  0  0  0  0
   58.8990   34.9520   46.7880 C   0  0  0  0  0  0  0  0  0  0  0  0
   58.1500   33.8950   47.3200 C   0  0  0  0  0  0  0  0  0  0  0  0
   57.7950   32.8130   46.5070 C   0  0  0  0  0  0  0  0  0  0  0  0
   57.8800   29.2200   46.5410 C   0  0  0  0  0  0  0  0  0  0  0  0
   60.5700   31.0100   47.5510 C   0  0  0  0  0  0  0  0  0  0  0  0
   60.8210   30.3180   46.3620 O   0  0  0  0  0  0  0  0  0  0  0  0
   63.3606   33.5759   47.8345 H   0  0  0  0  0  0  0  0  0  0  0  0
   63.9233   32.8562   46.2878 H   0  0  0  0  0  0  0  0  0  0  0  0
   63.0942   34.4497   46.2878 H   0  0  0  0  0  0  0  0  0  0  0  0
   61.2757   34.0722   48.9243 H   0  0  0  0  0  0  0  0  0  0  0  0
   58.9653   30.8269   50.5817 H   0  0  0  0  0  0  0  0  0  0  0  0
   59.8556   28.3808   49.1334 H   0  0  0  0  0  0  0  0  0  0  0  0
   58.2050   29.1014   49.0468 H   0  0  0  0  0  0  0  0  0  0  0  0
   59.7372   26.8473   46.2153 H   0  0  0  0  0  0  0  0  0  0  0  0
   59.5306   26.7324   48.0222 H   0  0  0  0  0  0  0  0  0  0  0  0
   57.8359   25.3927   46.8290 H   0  0  0  0  0  0  0  0  0  0  0  0
   57.1036   26.7579   47.7640 H   0  0  0  0  0  0  0  0  0  0  0  0
   57.3098   26.3440   44.7846 H   0  0  0  0  0  0  0  0  0  0  0  0
   55.9548   27.0035   45.8026 H   0  0  0  0  0  0  0  0  0  0  0  0
   58.3356   28.3931   44.6075 H   0  0  0  0  0  0  0  0  0  0  0  0
   56.5646   29.0962   43.4095 H   0  0  0  0  0  0  0  0  0  0  0  0
   55.3909   28.7610   44.7406 H   0  0  0  0  0  0  0  0  0  0  0  0
   59.2446   33.8280   43.5766 H   0  0  0  0  0  0  0  0  0  0  0  0
   59.8745   35.7605   45.0278 H   0  0  0  0  0  0  0  0  0  0  0  0
   59.1808   35.8019   47.4269 H   0  0  0  0  0  0  0  0  0  0  0  0
   57.8412   33.9154   48.3756 H   0  0  0  0  0  0  0  0  0  0  0  0
   57.2075   31.9825   46.9253 H   0  0  0  0  0  0  0  0  0  0  0  0
   58.1238   30.2570   46.2669 H   0  0  0  0  0  0  0  0  0  0  0  0
   57.0433   29.1895   47.2545 H   0  0  0  0  0  0  0  0  0  0  0  0
   60.1120   29.9020   45.7780 H   0  0  0  0  0  0  0  0  0  0  0  0
  1  2  1  0
  2  3  1  0
  3  4  2  0
  4  5  1  0
  5  6  1  0
  5  7  2  0
  7  8  1  0
  8  9  1  0
  9 10  1  0
 10 11  1  0
 11 12  1  0
 12 13  1  0
 13 14  1  0
 14 15  1  0
 15 16  1  0
 16 17  1  0
 17 18  2  0
 17 19  2  0
 17 20  1  0
 20 21  2  0
 21 22  1  0
 22 23  2  0
 23 24  1  0
 24 25  2  0
 14 26  1  0
  8 27  2  0
 27 28  1  0
 27  3  1  0
 26 10  1  0
 25 20  1  0
  1 29  1  0
  1 30  1  0
  1 31  1  0
  4 32  1  0
  7 33  1  0
  9 34  1  0
  9 35  1  0
 11 36  1  0
 11 37  1  0
 12 38  1  0
 12 39  1  0
 13 40  1  0
 13 41  1  0
 14 42  1  6
 15 43  1  0
 15 44  1  0
 21 45  1  0
 22 46  1  0
 23 47  1  0
 24 48  1  0
 25 49  1  0
 26 50  1  0
 26 51  1  0
 28 52  1  0
M  CHG  1  16  -1
M  END
>  <UniqueID>  (24) 
20

>  <SMILES>  (24) 
COc1cc(Cl)cc(CN2CCC[C@@H](C[N-]S(=O)(=O)c3ccccc3)C2)c1O

>  <Energy>  (24) 
60.75589750406192

>  <Genealogy>  (24) 
COc1cc(Cl)cc(CN2CCCC(C[N-]S(=O)(=O)c3ccccc3)C2)c1O (protonated)
COc1cc(Cl)cc(CN2CCC[C@@H](C[N-]S(=O)(=O)c3ccccc3)C2)c1O (chirality)
COc1cc(Cl)cc(CN2CCC[C@@H](C[N-]S(=O)(=O)c3ccccc3)C2)c1O (3D coordinates assigned)
COc1cc(Cl)cc(CN2CCC[C@@H](C[N-]S(=O)(=O)c3ccccc3)C2)c1O (nonaromatic ring conformer: 60.75589750406192 kcal/mol)

>  <smiles>  (24) 
COc1cc(Cl)cc(CN2CCCC(CNS(=O)(=O)c3ccccc3)C2)c1O

>  <score_type>  (24) 
oracle

>  <origin>  (24) 
adg

>  <m_score__min__energy>  (24) 
-10.74

>  <m_primary>  (24) 
energy

$$$$
24:0
     RDKit          3D

 24 24  0  0  0  0  0  0  0  0999 V2000
   58.1140   27.7970   43.6370 C   0  0  0  0  0  0  0  0  0  0  0  0
   57.3850   29.0340   43.3670 N   0  0  0  0  0  0  0  0  0  0  0  0
   56.8660   29.7480   44.8630 S   0  0  0  0  0  0  0  0  0  0  0  0
   55.3670   29.8570   44.8660 O   0  0  0  0  0  0  0  0  0  0  0  0
   57.2780   28.8640   46.0080 O   0  0  0  0  0  0  0  0  0  0  0  0
   57.5620   31.3620   45.0560 C   0  0  0  0  0  0  0  0  0  0  0  0
   57.9210   31.8170   46.3340 C   0  0  0  0  0  0  0  0  0  0  0  0
   58.4840   33.0830   46.5010 C   0  0  0  0  0  0  0  0  0  0  0  0
   58.8270   33.5150   47.7410 F   0  0  0  0  0  0  0  0  0  0  0  0
   58.6980   33.9040   45.3930 C   0  0  0  0  0  0  0  0  0  0  0  0
   58.3520   33.4600   44.1150 C   0  0  0  0  0  0  0  0  0  0  0  0
   57.7830   32.1830   43.9330 C   0  0  0  0  0  0  0  0  0  0  0  0
   57.4310   31.7060   42.6600 O   0  0  0  0  0  0  0  0  0  0  0  0
   57.7990   32.3270   41.4330 C   0  0  0  0  0  0  0  0  0  0  0  0
   58.1996   27.6517   44.7240 H   0  0  0  0  0  0  0  0  0  0  0  0
   57.5718   26.9480   43.1951 H   0  0  0  0  0  0  0  0  0  0  0  0
   59.1194   27.8600   43.1951 H   0  0  0  0  0  0  0  0  0  0  0  0
   58.0510   29.7040   42.9160 H   0  0  0  0  0  0  0  0  0  0  0  0
   57.7576   31.1717   47.2097 H   0  0  0  0  0  0  0  0  0  0  0  0
   59.1399   34.9024   45.5265 H   0  0  0  0  0  0  0  0  0  0  0  0
   58.5245   34.1106   43.2450 H   0  0  0  0  0  0  0  0  0  0  0  0
   58.3495   33.2559   41.6428 H   0  0  0  0  0  0  0  0  0  0  0  0
   58.4386   31.6446   40.8540 H   0  0  0  0  0  0  0  0  0  0  0  0
   56.8933   32.5603   40.8540 H   0  0  0  0  0  0  0  0  0  0  0  0
  1  2  1  0
  2  3  1  0
  3  4  2  0
  3  5  2  0
  3  6  1  0
  6  7  2  0
  7  8  1  0
  8  9  1  0
  8 10  2  0
 10 11  1  0
 11 12  2  0
 12 13  1  0
 13 14  1  0
 12  6  1  0
  1 15  1  0
  1 16  1  0
  1 17  1  0
  2 18  1  0
  7 19  1  0
 10 20  1  0
 11 21  1  0
 14 22  1  0
 14 23  1  0
 14 24  1  0
M  END
>  <UniqueID>  (25) 
21

>  <SMILES>  (25) 
CNS(=O)(=O)c1cc(F)ccc1OC

>  <Energy>  (25) 
19.318868470226203

>  <Genealogy>  (25) 
CNS(=O)(=O)c1cc(F)ccc1OC (3D coordinates assigned)
CNS(=O)(=O)c1cc(F)ccc1OC (optimized conformer: 19.318868470226203 kcal/mol)

>  <smiles>  (25) 
CNS(=O)(=O)c1cc(F)ccc1OC

>  <score_type>  (25) 
oracle

>  <origin>  (25) 
adg

>  <m_score__min__energy>  (25) 
-5.5499999999999998

>  <m_primary>  (25) 
energy

$$$$
25:0
     RDKit          3D

 66 70  0  0  0  0  0  0  0  0999 V2000
   59.9930   33.5100   50.7240 C   0  0  0  0  0  0  0  0  0  0  0  0
   60.3430   32.6180   49.6680 O   0  0  0  0  0  0  0  0  0  0  0  0
   61.4280   32.8070   48.7920 C   0  0  0  0  0  0  0  0  0  0  0  0
   62.7430   32.4260   49.1340 C   0  0  0  0  0  0  0  0  0  0  0  0
   63.7860   32.5880   48.2160 C   0  0  0  0  0  0  0  0  0  0  0  0
   63.5290   33.1220   46.9490 C   0  0  0  0  0  0  0  0  0  0  0  0
   62.2360   33.5230   46.6080 C   0  0  0  0  0  0  0  0  0  0  0  0
   61.1870   33.3790   47.5260 C   0  0  0  0  0  0  0  0  0  0  0  0
   59.8710   33.8260   47.1700 N   0  0  0  0  0  0  0  0  0  0  0  0
   58.7000   33.0350   47.5540 C   0  0  0  0  0  0  0  0  0  0  0  0
   57.4080   33.7530   47.1270 C   0  0  0  0  0  0  0  0  0  0  0  0
   57.4550   34.1750   45.7010 N   0  0  0  0  0  0  0  0  0  0  0  0
   57.2690   32.9990   44.8030 C   0  0  0  0  0  0  0  0  0  0  0  0
   58.5510   32.1520   44.6100 C   0  0  0  0  0  0  0  0  0  0  0  0
   58.3440   30.7020   44.9600 C   0  0  0  0  0  0  0  0  0  0  0  0
   57.6120   29.8750   44.0970 C   0  0  0  0  0  0  0  0  0  0  0  0
   57.2310   28.5930   44.4980 C   0  0  0  0  0  0  0  0  0  0  0  0
   57.5880   28.1110   45.7720 C   0  0  0  0  0  0  0  0  0  0  0  0
   57.0850   26.8830   46.3300 N   0  0  0  0  0  0  0  0  0  0  0  0
   56.0390   26.0280   45.8420 C   0  0  0  0  0  0  0  0  0  0  0  0
   54.8370   26.3800   46.0110 O   0  0  0  0  0  0  0  0  0  0  0  0
   56.3110   24.7480   45.1640 C   0  0  0  0  0  0  0  0  0  0  0  0
   55.2460   24.0950   44.5240 C   0  0  0  0  0  0  0  0  0  0  0  0
   55.4440   22.8690   43.8840 C   0  0  0  0  0  0  0  0  0  0  0  0
   56.7070   22.2730   43.8790 C   0  0  0  0  0  0  0  0  0  0  0  0
   57.7860   22.9010   44.5260 C   0  0  0  0  0  0  0  0  0  0  0  0
   59.0500   22.2840   44.5570 C   0  0  0  0  0  0  0  0  0  0  0  0
   60.1130   22.8820   45.2390 C   0  0  0  0  0  0  0  0  0  0  0  0
   59.9310   24.1020   45.8910 C   0  0  0  0  0  0  0  0  0  0  0  0
   58.6860   24.7390   45.8620 C   0  0  0  0  0  0  0  0  0  0  0  0
   57.5980   24.1530   45.1740 C   0  0  0  0  0  0  0  0  0  0  0  0
   58.4220   28.8940   46.5790 C   0  0  0  0  0  0  0  0  0  0  0  0
   58.7860   30.1880   46.1850 C   0  0  0  0  0  0  0  0  0  0  0  0
   58.6890   34.9620   45.3660 C   0  0  0  0  0  0  0  0  0  0  0  0
   59.6780   35.1250   46.5300 C   0  0  0  0  0  0  0  0  0  0  0  0
   60.1835   33.0244   51.6924 H   0  0  0  0  0  0  0  0  0  0  0  0
   60.5988   34.4249   50.6471 H   0  0  0  0  0  0  0  0  0  0  0  0
   58.9266   33.7688   50.6471 H   0  0  0  0  0  0  0  0  0  0  0  0
   62.9488   31.9997   50.1269 H   0  0  0  0  0  0  0  0  0  0  0  0
   64.8100   32.2950   48.4910 H   0  0  0  0  0  0  0  0  0  0  0  0
   64.3466   33.2261   46.2205 H   0  0  0  0  0  0  0  0  0  0  0  0
   62.0399   33.9536   45.6150 H   0  0  0  0  0  0  0  0  0  0  0  0
   58.7486   32.0523   47.0622 H   0  0  0  0  0  0  0  0  0  0  0  0
   58.6954   32.9094   48.6468 H   0  0  0  0  0  0  0  0  0  0  0  0
   56.5577   33.0695   47.2681 H   0  0  0  0  0  0  0  0  0  0  0  0
   57.2977   34.6551   47.7467 H   0  0  0  0  0  0  0  0  0  0  0  0
   56.6290   34.8070   45.5700 H   0  0  0  0  0  0  0  0  0  0  0  0
   56.4885   32.3541   45.2331 H   0  0  0  0  0  0  0  0  0  0  0  0
   56.9921   33.3917   43.8135 H   0  0  0  0  0  0  0  0  0  0  0  0
   58.8629   32.2195   43.5573 H   0  0  0  0  0  0  0  0  0  0  0  0
   59.3202   32.5521   45.2869 H   0  0  0  0  0  0  0  0  0  0  0  0
   57.3356   30.2387   43.0963 H   0  0  0  0  0  0  0  0  0  0  0  0
   56.6491   27.9564   43.8153 H   0  0  0  0  0  0  0  0  0  0  0  0
   54.2459   24.5530   44.5264 H   0  0  0  0  0  0  0  0  0  0  0  0
   54.6015   22.3710   43.3819 H   0  0  0  0  0  0  0  0  0  0  0  0
   56.8580   21.3106   43.3681 H   0  0  0  0  0  0  0  0  0  0  0  0
   59.2025   21.3246   44.0410 H   0  0  0  0  0  0  0  0  0  0  0  0
   61.0963   22.3894   45.2619 H   0  0  0  0  0  0  0  0  0  0  0  0
   60.7704   24.5651   46.4303 H   0  0  0  0  0  0  0  0  0  0  0  0
   58.5523   25.7015   46.3774 H   0  0  0  0  0  0  0  0  0  0  0  0
   58.7950   28.4893   47.5314 H   0  0  0  0  0  0  0  0  0  0  0  0
   59.4211   30.8023   46.8402 H   0  0  0  0  0  0  0  0  0  0  0  0
   59.2092   34.4507   44.5426 H   0  0  0  0  0  0  0  0  0  0  0  0
   58.3509   35.9743   45.0996 H   0  0  0  0  0  0  0  0  0  0  0  0
   60.6407   35.4954   46.1479 H   0  0  0  0  0  0  0  0  0  0  0  0
   59.2803   35.8455   47.2599 H   0  0  0  0  0  0  0  0  0  0  0  0
  1  2  1  0
  2  3  1  0
  3  4  2  0
  4  5  1  0
  5  6  2  0
  6  7  1  0
  7  8  2  0
  8  9  1  0
  9 10  1  0
 10 11  1  0
 11 12  1  0
 12 13  1  0
 13 14  1  0
 14 15  1  0
 15 16  2  0
 16 17  1  0
 17 18  2  0
 18 19  1  0
 19 20  1  0
 20 21  2  0
 20 22  1  0
 22 23  2  0
 23 24  1  0
 24 25  2  0
 25 26  1  0
 26 27  2  0
 27 28  1  0
 28 29  2  0
 29 30  1  0
 30 31  2  0
 18 32  1  0
 32 33  2  0
 12 34  1  0
 34 35  1  0
  8  3  1  0
 35  9  1  0
 33 15  1  0
 31 22  1  0
 31 26  1  0
  1 36  1  0
  1 37  1  0
  1 38  1  0
  4 39  1  0
  5 40  1  0
  6 41  1  0
  7 42  1  0
 10 43  1  0
 10 44  1  0
 11 45  1  0
 11 46  1  0
 12 47  1  0
 13 48  1  0
 13 49  1  0
 14 50  1  0
 14 51  1  0
 16 52  1  0
 17 53  1  0
 23 54  1  0
 24 55  1  0
 25 56  1  0
 27 57  1  0
 28 58  1  0
 29 59  1  0
 30 60  1  0
 32 61  1  0
 33 62  1  0
 34 63  1  0
 34 64  1  0
 35 65  1  0
 35 66  1  0
M  CHG  2  12   1  19  -1
M  END
>  <UniqueID>  (26) 
22

>  <SMILES>  (26) 
COc1ccccc1N1CC[NH+](CCc2ccc([N-]C(=O)c3cccc4ccccc34)cc2)CC1

>  <Energy>  (26) 
101.81624303765271

>  <Genealogy>  (26) 
COc1ccccc1N1CC[NH+](CCc2ccc([N-]C(=O)c3cccc4ccccc34)cc2)CC1 (protonated)
COc1ccccc1N1CC[NH+](CCc2ccc([N-]C(=O)c3cccc4ccccc34)cc2)CC1 (3D coordinates assigned)
COc1ccccc1N1CC[NH+](CCc2ccc([N-]C(=O)c3cccc4ccccc34)cc2)CC1 (nonaromatic ring conformer: 101.81624303765271 kcal/mol)

>  <smiles>  (26) 
COc1ccccc1N1CCN(CCc2ccc(NC(=O)c3cccc4ccccc34)cc2)CC1

>  <score_type>  (26) 
oracle

>  <origin>  (26) 
adg

>  <m_score__min__energy>  (26) 
-9.7100000000000009

>  <m_primary>  (26) 
energy

$$$$
26:0
     RDKit          3D

 34 35  0  0  0  0  0  0  0  0999 V2000
   60.1560   26.8050   46.3740 C   0  0  0  0  0  0  0  0  0  0  0  0
   58.9230   27.1690   47.1930 C   0  0  0  0  0  0  0  0  0  0  0  0
   58.1180   28.1750   46.4900 N   0  0  0  0  0  0  0  0  0  0  0  0
   58.1540   29.5190   46.6720 C   0  0  0  0  0  0  0  0  0  0  0  0
   58.9130   30.2030   47.7660 C   0  0  0  0  0  0  0  0  0  0  0  0
   57.4820   30.2030   45.7180 N   0  0  0  0  0  0  0  0  0  0  0  0
   56.9990   29.2460   44.9030 C   0  0  0  0  0  0  0  0  0  0  0  0
   56.2560   29.5240   43.6380 C   0  0  0  0  0  0  0  0  0  0  0  0
   57.3860   28.0090   45.3690 C   0  0  0  0  0  0  0  0  0  0  0  0
   57.1980   26.7660   44.6800 N   0  0  0  0  0  0  0  0  0  0  0  0
   56.5910   25.6280   45.3070 C   0  0  0  0  0  0  0  0  0  0  0  0
   55.8970   25.7900   46.3500 O   0  0  0  0  0  0  0  0  0  0  0  0
   56.7420   24.2720   44.7310 C   0  0  0  0  0  0  0  0  0  0  0  0
   57.8910   23.5080   44.9950 C   0  0  0  0  0  0  0  0  0  0  0  0
   58.0310   22.2340   44.4430 C   0  0  0  0  0  0  0  0  0  0  0  0
   57.0220   21.7300   43.6210 C   0  0  0  0  0  0  0  0  0  0  0  0
   55.9200   22.4810   43.3610 N   0  0  0  0  0  0  0  0  0  0  0  0
   55.7580   23.7240   43.8880 C   0  0  0  0  0  0  0  0  0  0  0  0
   60.9870   26.5597   47.0517 H   0  0  0  0  0  0  0  0  0  0  0  0
   59.9311   25.9349   45.7397 H   0  0  0  0  0  0  0  0  0  0  0  0
   60.4397   27.6577   45.7397 H   0  0  0  0  0  0  0  0  0  0  0  0
   58.3152   26.2662   47.3531 H   0  0  0  0  0  0  0  0  0  0  0  0
   59.2470   27.5839   48.1588 H   0  0  0  0  0  0  0  0  0  0  0  0
   58.5359   29.8631   48.7418 H   0  0  0  0  0  0  0  0  0  0  0  0
   59.9817   29.9571   47.6800 H   0  0  0  0  0  0  0  0  0  0  0  0
   58.7792   31.2914   47.6800 H   0  0  0  0  0  0  0  0  0  0  0  0
   55.2507   29.9002   43.8784 H   0  0  0  0  0  0  0  0  0  0  0  0
   56.7997   30.2795   43.0519 H   0  0  0  0  0  0  0  0  0  0  0  0
   56.1703   28.5971   43.0519 H   0  0  0  0  0  0  0  0  0  0  0  0
   57.3220   26.7590   43.6430 H   0  0  0  0  0  0  0  0  0  0  0  0
   58.6837   23.9157   45.6395 H   0  0  0  0  0  0  0  0  0  0  0  0
   58.9278   21.6329   44.6537 H   0  0  0  0  0  0  0  0  0  0  0  0
   57.1189   20.7253   43.1838 H   0  0  0  0  0  0  0  0  0  0  0  0
   54.8531   24.3039   43.6540 H   0  0  0  0  0  0  0  0  0  0  0  0
  1  2  1  0
  2  3  1  0
  3  4  1  0
  4  5  1  0
  4  6  2  0
  6  7  1  0
  7  8  1  0
  7  9  2  0
  9 10  1  0
 10 11  1  0
 11 12  2  0
 11 13  1  0
 13 14  2  0
 14 15  1  0
 15 16  2  0
 16 17  1  0
 17 18  2  0
  9  3  1  0
 18 13  1  0
  1 19  1  0
  1 20  1  0
  1 21  1  0
  2 22  1  0
  2 23  1  0
  5 24  1  0
  5 25  1  0
  5 26  1  0
  8 27  1  0
  8 28  1  0
  8 29  1  0
 10 30  1  0
 14 31  1  0
 15 32  1  0
 16 33  1  0
 18 34  1  0
M  END
>  <UniqueID>  (27) 
23

>  <SMILES>  (27) 
CCn1c(C)nc(C)c1NC(=O)c1cccnc1

>  <Energy>  (27) 
66.22855662104101

>  <Genealogy>  (27) 
CCn1c(C)nc(C)c1NC(=O)c1cccnc1 (3D coordinates assigned)
CCn1c(C)nc(C)c1NC(=O)c1cccnc1 (optimized conformer: 66.22855662104101 kcal/mol)

>  <smiles>  (27) 
CCn1c(C)nc(C)c1NC(=O)c1cccnc1

>  <score_type>  (27) 
oracle

>  <origin>  (27) 
adg

>  <m_score__min__energy>  (27) 
-6.2699999999999996

>  <m_primary>  (27) 
energy

$$$$
27:0
     RDKit          3D

 26 28  0  0  0  0  0  0  0  0999 V2000
   56.3766   33.8732   46.2046 H   0  0  0  0  0  0  0  0  0  0  0  0
   57.1930   33.5480   45.5430 C   0  0  0  0  0  0  0  0  0  0  0  0
   57.3960   32.2290   45.3510 C   0  0  0  0  0  0  0  0  0  0  0  0
   56.4260   31.5410   44.7480 O   0  0  0  0  0  0  0  0  0  0  0  0
   56.4800   30.2410   44.4910 C   0  0  0  0  0  0  0  0  0  0  0  0
   55.5030   29.6920   43.9140 O   0  0  0  0  0  0  0  0  0  0  0  0
   57.6080   29.4940   44.8570 C   0  0  0  0  0  0  0  0  0  0  0  0
   57.7000   28.1130   44.6010 C   0  0  0  0  0  0  0  0  0  0  0  0
   56.8702   27.5920   44.1011 H   0  0  0  0  0  0  0  0  0  0  0  0
   58.8400   27.4020   44.9790 C   0  0  0  0  0  0  0  0  0  0  0  0
   58.9049   26.3231   44.7746 H   0  0  0  0  0  0  0  0  0  0  0  0
   59.8980   28.0530   45.6150 C   0  0  0  0  0  0  0  0  0  0  0  0
   60.7926   27.4851   45.9103 H   0  0  0  0  0  0  0  0  0  0  0  0
   59.8250   29.4280   45.8790 C   0  0  0  0  0  0  0  0  0  0  0  0
   60.8830   30.0830   46.5170 C   0  0  0  0  0  0  0  0  0  0  0  0
   61.7793   29.5184   46.8135 H   0  0  0  0  0  0  0  0  0  0  0  0
   60.8040   31.4500   46.7780 C   0  0  0  0  0  0  0  0  0  0  0  0
   61.6398   31.9579   47.2815 H   0  0  0  0  0  0  0  0  0  0  0  0
   59.6730   32.1810   46.4060 C   0  0  0  0  0  0  0  0  0  0  0  0
   59.6288   33.2594   46.6182 H   0  0  0  0  0  0  0  0  0  0  0  0
   58.5830   31.5500   45.7590 C   0  0  0  0  0  0  0  0  0  0  0  0
   58.6720   30.1590   45.4990 C   0  0  0  0  0  0  0  0  0  0  0  0
   58.0500   34.5830   44.8790 C   0  0  0  0  0  0  0  0  0  0  0  0
   58.5527   35.1901   45.6463 H   0  0  0  0  0  0  0  0  0  0  0  0
   58.8049   34.0865   44.2517 H   0  0  0  0  0  0  0  0  0  0  0  0
   57.4214   35.2321   44.2517 H   0  0  0  0  0  0  0  0  0  0  0  0
  1  2  1  0
  2  3  2  0
  3  4  1  0
  4  5  1  0
  5  6  2  0
  5  7  1  0
  7  8  1  0
  8  9  1  0
  8 10  2  0
 10 11  1  0
 10 12  1  0
 12 13  1  0
 12 14  2  0
 14 15  1  0
 15 16  1  0
 15 17  2  0
 17 18  1  0
 17 19  1  0
 19 20  1  0
 19 21  2  0
 21 22  1  0
  2 23  1  0
 23 24  1  0
 23 25  1  0
 23 26  1  0
 21  3  1  0
 22  7  2  0
 22 14  1  0
M  END
>  <UniqueID>  (28) 
24

>  <SMILES>  (28) 
C/C=c1\oc(=O)c2cccc3cccc1c32

>  <Energy>  (28) 
41.51652479144102

>  <Genealogy>  (28) 
C/C=c1\oc(=O)c2cccc3cccc1c32 (cis-trans isomerization)
C/C=c1\oc(=O)c2cccc3cccc1c32 (3D coordinates assigned)
C/C=c1\oc(=O)c2cccc3cccc1c32 (optimized conformer: 41.51652479144102 kcal/mol)

>  <smiles>  (28) 
CC=c1oc(=O)c2cccc3cccc1c32

>  <score_type>  (28) 
oracle

>  <origin>  (28) 
adg

>  <m_score__min__energy>  (28) 
-6.4800000000000004

>  <m_primary>  (28) 
energy

$$$$
28:0
     RDKit          3D

 39 41  0  0  0  0  0  0  0  0999 V2000
   54.3860   26.6820   45.7570 H   0  0  0  0  0  0  0  0  0  0  0  0
   55.4060   26.6240   45.9760 N   0  0  0  0  0  0  0  0  0  0  0  0
   56.2330   27.5410   45.5900 C   0  0  0  0  0  0  0  0  0  0  0  0
   57.5510   27.2490   45.4600 N   0  0  0  0  0  0  0  0  0  0  0  0
   58.4240   28.2060   45.0510 C   0  0  0  0  0  0  0  0  0  0  0  0
   59.8860   27.9080   44.9750 C   0  0  0  0  0  0  0  0  0  0  0  0
   60.0299   26.9317   44.4890 H   0  0  0  0  0  0  0  0  0  0  0  0
   60.3772   28.7022   44.3937 H   0  0  0  0  0  0  0  0  0  0  0  0
   60.6290   27.8610   46.6450 S   0  0  0  0  0  0  0  0  0  0  0  0
   60.4400   29.6270   46.9490 C   0  0  0  0  0  0  0  0  0  0  0  0
   61.5100   30.4290   46.7180 N   0  0  0  0  0  0  0  0  0  0  0  0
   61.4650   31.7360   46.9580 N   0  0  0  0  0  0  0  0  0  0  0  0
   62.3170   32.3100   46.7680 H   0  0  0  0  0  0  0  0  0  0  0  0
   60.3390   32.3180   47.4480 C   0  0  0  0  0  0  0  0  0  0  0  0
   60.3020   33.7960   47.7170 C   0  0  0  0  0  0  0  0  0  0  0  0
   60.2976   33.9710   48.8030 H   0  0  0  0  0  0  0  0  0  0  0  0
   61.1885   34.2719   47.2725 H   0  0  0  0  0  0  0  0  0  0  0  0
   59.3928   34.2269   47.2725 H   0  0  0  0  0  0  0  0  0  0  0  0
   59.2130   31.5130   47.6740 C   0  0  0  0  0  0  0  0  0  0  0  0
   58.1490   32.0340   48.1120 O   0  0  0  0  0  0  0  0  0  0  0  0
   59.2720   30.1690   47.4190 N   0  0  0  0  0  0  0  0  0  0  0  0
   58.1380   29.3610   47.6470 N   0  0  0  0  0  0  0  0  0  0  0  0
   57.6010   28.9410   46.8560 H   0  0  0  0  0  0  0  0  0  0  0  0
   57.7980   29.1390   48.6080 H   0  0  0  0  0  0  0  0  0  0  0  0
   57.9730   29.4600   44.7860 N   0  0  0  0  0  0  0  0  0  0  0  0
   56.6560   29.7600   44.9130 C   0  0  0  0  0  0  0  0  0  0  0  0
   56.2610   30.9800   44.6910 N   0  0  0  0  0  0  0  0  0  0  0  0
   57.0700   32.1670   44.7170 C   0  0  0  0  0  0  0  0  0  0  0  0
   58.1050   32.3890   43.7880 C   0  0  0  0  0  0  0  0  0  0  0  0
   58.2968   31.6517   42.9945 H   0  0  0  0  0  0  0  0  0  0  0  0
   58.8900   33.5440   43.8710 C   0  0  0  0  0  0  0  0  0  0  0  0
   59.6871   33.7204   43.1338 H   0  0  0  0  0  0  0  0  0  0  0  0
   58.6630   34.4740   44.8890 C   0  0  0  0  0  0  0  0  0  0  0  0
   59.2753   35.3859   44.9478 H   0  0  0  0  0  0  0  0  0  0  0  0
   57.6580   34.2450   45.8320 C   0  0  0  0  0  0  0  0  0  0  0  0
   57.4847   34.9730   46.6382 H   0  0  0  0  0  0  0  0  0  0  0  0
   56.8720   33.0910   45.7520 C   0  0  0  0  0  0  0  0  0  0  0  0
   56.0930   32.9073   46.5066 H   0  0  0  0  0  0  0  0  0  0  0  0
   55.7880   28.7970   45.3240 N   0  0  0  0  0  0  0  0  0  0  0  0
  1  2  1  0
  2  3  2  0
  3  4  1  0
  4  5  2  0
  5  6  1  0
  6  7  1  0
  6  8  1  0
  6  9  1  0
  9 10  1  0
 10 11  2  0
 11 12  1  0
 12 13  1  0
 12 14  2  0
 14 15  1  0
 15 16  1  0
 15 17  1  0
 15 18  1  0
 14 19  1  0
 19 20  2  0
 19 21  1  0
 21 22  1  0
 22 23  1  0
 22 24  1  0
  5 25  1  0
 25 26  1  0
 26 27  2  0
 27 28  1  0
 28 29  2  0
 29 30  1  0
 29 31  1  0
 31 32  1  0
 31 33  2  0
 33 34  1  0
 33 35  1  0
 35 36  1  0
 35 37  2  0
 37 38  1  0
 26 39  1  0
 39  3  1  0
 21 10  1  0
 37 28  1  0
M  CHG  3  12   1  25  -1  39  -1
M  END
>  <UniqueID>  (29) 
25

>  <SMILES>  (29) 
[H]/N=c1/nc(CSc2n[nH+]c(C)c(=O)n2N)[n-]/c(=N/c2ccccc2)[n-]1

>  <Energy>  (29) 
46.067804134690995

>  <Genealogy>  (29) 
Cc1[nH+]nc(SCc2nc(=N)[n-]c(=Nc3ccccc3)[n-]2)n(N)c1=O (protonated)
[H]/N=c1/nc(CSc2n[nH+]c(C)c(=O)n2N)[n-]/c(=N/c2ccccc2)[n-]1 (cis-trans isomerization)
[H]/N=c1/nc(CSc2n[nH+]c(C)c(=O)n2N)[n-]/c(=N/c2ccccc2)[n-]1 (3D coordinates assigned)
[H]/N=c1/nc(CSc2n[nH+]c(C)c(=O)n2N)[n-]/c(=N/c2ccccc2)[n-]1 (optimized conformer: 46.067804134690995 kcal/mol)

>  <smiles>  (29) 
Cc1nnc(SCc2nc(=N)[nH]c(=Nc3ccccc3)[nH]2)n(N)c1=O

>  <score_type>  (29) 
oracle

>  <origin>  (29) 
adg

>  <m_score__min__energy>  (29) 
-10.029999999999999

>  <m_primary>  (29) 
energy

$$$$
29:0
     RDKit          3D

 36 37  0  0  0  0  0  0  0  0999 V2000
   57.7251   32.0802   43.0306 H   0  0  0  0  0  0  0  0  0  0  0  0
   57.3520   31.8480   44.0390 C   0  0  0  0  0  0  0  0  0  0  0  0
   57.1200   30.4240   44.3630 C   0  0  0  0  0  0  0  0  0  0  0  0
   56.2410   30.0890   45.2030 O   0  0  0  0  0  0  0  0  0  0  0  0
   57.9500   29.4220   43.7570 N   0  0  0  0  0  0  0  0  0  0  0  0
   58.6510   29.7130   43.0380 H   0  0  0  0  0  0  0  0  0  0  0  0
   57.7770   27.9910   44.0050 C   0  0  0  0  0  0  0  0  0  0  0  0
   56.8442   27.8325   44.5661 H   0  0  0  0  0  0  0  0  0  0  0  0
   57.7360   27.4682   43.0380 H   0  0  0  0  0  0  0  0  0  0  0  0
   58.9510   27.4330   44.8150 C   0  0  0  0  0  0  0  0  0  0  0  0
   58.6500   26.4751   45.2642 H   0  0  0  0  0  0  0  0  0  0  0  0
   59.8037   27.3000   44.1329 H   0  0  0  0  0  0  0  0  0  0  0  0
   59.3730   28.3750   45.9130 C   0  0  0  0  0  0  0  0  0  0  0  0
   60.3860   29.3220   45.6900 C   0  0  0  0  0  0  0  0  0  0  0  0
   60.8777   29.3769   44.7075 H   0  0  0  0  0  0  0  0  0  0  0  0
   60.7720   30.1950   46.7110 C   0  0  0  0  0  0  0  0  0  0  0  0
   61.5562   30.9438   46.5260 H   0  0  0  0  0  0  0  0  0  0  0  0
   60.1630   30.1180   47.9670 C   0  0  0  0  0  0  0  0  0  0  0  0
   60.4679   30.8060   48.7693 H   0  0  0  0  0  0  0  0  0  0  0  0
   59.1670   29.1670   48.2030 C   0  0  0  0  0  0  0  0  0  0  0  0
   58.6937   29.1016   49.1938 H   0  0  0  0  0  0  0  0  0  0  0  0
   58.7710   28.2980   47.1810 C   0  0  0  0  0  0  0  0  0  0  0  0
   57.9855   27.5515   47.3702 H   0  0  0  0  0  0  0  0  0  0  0  0
   57.1460   32.8820   44.8710 C   0  0  0  0  0  0  0  0  0  0  0  0
   56.1293   33.2995   44.9164 H   0  0  0  0  0  0  0  0  0  0  0  0
   58.1740   33.5040   45.7300 C   0  0  0  0  0  0  0  0  0  0  0  0
   58.9300   34.5970   45.2700 C   0  0  0  0  0  0  0  0  0  0  0  0
   58.7341   35.0165   44.2722 H   0  0  0  0  0  0  0  0  0  0  0  0
   59.9290   35.1530   46.0740 C   0  0  0  0  0  0  0  0  0  0  0  0
   60.5042   36.0192   45.7151 H   0  0  0  0  0  0  0  0  0  0  0  0
   60.1980   34.6100   47.3330 C   0  0  0  0  0  0  0  0  0  0  0  0
   60.9794   35.0529   47.9680 H   0  0  0  0  0  0  0  0  0  0  0  0
   59.4730   33.5030   47.7850 C   0  0  0  0  0  0  0  0  0  0  0  0
   59.6909   33.0705   48.7727 H   0  0  0  0  0  0  0  0  0  0  0  0
   58.4710   32.9440   46.9840 C   0  0  0  0  0  0  0  0  0  0  0  0
   57.7800   31.8670   47.4380 F   0  0  0  0  0  0  0  0  0  0  0  0
  1  2  1  0
  2  3  1  0
  3  4  2  0
  3  5  1  0
  5  6  1  0
  5  7  1  0
  7  8  1  0
  7  9  1  0
  7 10  1  0
 10 11  1  0
 10 12  1  0
 10 13  1  0
 13 14  2  0
 14 15  1  0
 14 16  1  0
 16 17  1  0
 16 18  2  0
 18 19  1  0
 18 20  1  0
 20 21  1  0
 20 22  2  0
 22 23  1  0
  2 24  2  0
 24 25  1  0
 24 26  1  0
 26 27  2  0
 27 28  1  0
 27 29  1  0
 29 30  1  0
 29 31  2  0
 31 32  1  0
 31 33  1  0
 33 34  1  0
 33 35  2  0
 35 36  1  0
 22 13  1  0
 35 26  1  0
M  END
>  <UniqueID>  (30) 
26

>  <SMILES>  (30) 
O=C(/C=C\c1ccccc1F)NCCc1ccccc1

>  <Energy>  (30) 
37.491122651508206

>  <Genealogy>  (30) 
O=C(/C=C\c1ccccc1F)NCCc1ccccc1 (cis-trans isomerization)
O=C(/C=C\c1ccccc1F)NCCc1ccccc1 (3D coordinates assigned)
O=C(/C=C\c1ccccc1F)NCCc1ccccc1 (optimized conformer: 37.491122651508206 kcal/mol)

>  <smiles>  (30) 
O=C(C=Cc1ccccc1F)NCCc1ccccc1

>  <score_type>  (30) 
oracle

>  <origin>  (30) 
adg

>  <m_score__min__energy>  (30) 
-7.1600000000000001

>  <m_primary>  (30) 
energy

$$$$
30:0
     RDKit          3D

 51 53  0  0  0  0  0  0  0  0999 V2000
   57.3990   33.7170   45.5490 C   0  0  0  0  0  0  0  0  0  0  0  0
   58.5730   33.4850   46.1550 C   0  0  0  0  0  0  0  0  0  0  0  0
   59.4190   34.7140   46.4580 C   0  0  0  0  0  0  0  0  0  0  0  0
   59.5510   35.6060   45.5790 O   0  0  0  0  0  0  0  0  0  0  0  0
   60.0250   34.9190   47.7210 O   0  0  0  0  0  0  0  0  0  0  0  0
   59.9470   33.8600   48.6520 C   0  0  2  0  0  0  0  0  0  0  0  0
   59.9460   34.1300   50.1380 C   0  0  0  0  0  0  0  0  0  0  0  0
   59.4300   32.8920   50.8890 C   0  0  0  0  0  0  0  0  0  0  0  0
   58.8320   31.7490   50.3790 C   0  0  0  0  0  0  0  0  0  0  0  0
   58.2810   30.7780   51.4040 C   0  0  0  0  0  0  0  0  0  0  0  0
   58.0670   29.5230   50.8190 O   0  0  0  0  0  0  0  0  0  0  0  0
   58.5800   31.3790   48.8790 C   0  0  0  0  0  0  0  0  0  0  0  0
   59.6990   31.6120   47.7680 C   0  0  1  0  0  0  0  0  0  0  0  0
   59.0520   32.0060   46.3700 C   0  0  1  0  0  0  0  0  0  0  0  0
   57.9770   31.0960   46.1060 O   0  0  0  0  0  0  0  0  0  0  0  0
   57.9920   30.1320   45.0900 C   0  0  0  0  0  0  0  0  0  0  0  0
   57.9820   30.4910   43.8810 O   0  0  0  0  0  0  0  0  0  0  0  0
   58.0070   28.6870   45.4320 C   0  0  0  0  0  0  0  0  0  0  0  0
   59.2270   28.0600   45.7590 C   0  0  0  0  0  0  0  0  0  0  0  0
   59.2670   26.6980   46.0840 C   0  0  0  0  0  0  0  0  0  0  0  0
   60.4740   26.0790   46.4030 O   0  0  0  0  0  0  0  0  0  0  0  0
   58.0880   25.9500   46.0890 C   0  0  0  0  0  0  0  0  0  0  0  0
   56.8730   26.5570   45.7730 C   0  0  0  0  0  0  0  0  0  0  0  0
   56.8220   27.9170   45.4480 C   0  0  0  0  0  0  0  0  0  0  0  0
   55.5870   28.4850   45.1530 O   0  0  0  0  0  0  0  0  0  0  0  0
   60.7910   32.6170   48.1940 C   0  0  0  0  0  0  0  0  0  0  0  0
   61.7440   31.9850   49.2690 C   0  0  0  0  0  0  0  0  0  0  0  0
   61.7880   32.9550   47.0330 C   0  0  0  0  0  0  0  0  0  0  0  0
   56.7339   32.8774   45.2987 H   0  0  0  0  0  0  0  0  0  0  0  0
   57.1014   34.7469   45.3024 H   0  0  0  0  0  0  0  0  0  0  0  0
   58.8770   33.6118   48.5923 H   0  0  0  0  0  0  0  0  0  0  0  0
   60.9700   34.3580   50.4689 H   0  0  0  0  0  0  0  0  0  0  0  0
   59.2894   34.9861   50.3523 H   0  0  0  0  0  0  0  0  0  0  0  0
   59.5518   32.9158   51.9820 H   0  0  0  0  0  0  0  0  0  0  0  0
   59.0001   30.6755   52.2300 H   0  0  0  0  0  0  0  0  0  0  0  0
   57.3234   31.1637   51.7838 H   0  0  0  0  0  0  0  0  0  0  0  0
   57.3950   29.6580   50.1010 H   0  0  0  0  0  0  0  0  0  0  0  0
   58.3410   30.3055   48.8594 H   0  0  0  0  0  0  0  0  0  0  0  0
   57.7996   32.0962   48.5848 H   0  0  0  0  0  0  0  0  0  0  0  0
   60.2139   30.6474   47.6479 H   0  0  0  0  0  0  0  0  0  0  0  0
   59.8838   31.9296   45.6543 H   0  0  0  0  0  0  0  0  0  0  0  0
   60.1574   28.6468   45.7589 H   0  0  0  0  0  0  0  0  0  0  0  0
   61.3650   26.5030   46.1720 H   0  0  0  0  0  0  0  0  0  0  0  0
   58.1177   24.8801   46.3426 H   0  0  0  0  0  0  0  0  0  0  0  0
   55.9477   25.9622   45.7793 H   0  0  0  0  0  0  0  0  0  0  0  0
   61.3746   32.2299   50.2758 H   0  0  0  0  0  0  0  0  0  0  0  0
   61.7663   30.8925   49.1423 H   0  0  0  0  0  0  0  0  0  0  0  0
   62.7590   32.3896   49.1423 H   0  0  0  0  0  0  0  0  0  0  0  0
   62.7489   33.2808   47.4580 H   0  0  0  0  0  0  0  0  0  0  0  0
   61.9458   32.0602   46.4131 H   0  0  0  0  0  0  0  0  0  0  0  0
   61.3691   33.7613   46.4131 H   0  0  0  0  0  0  0  0  0  0  0  0
  1  2  2  0
  2  3  1  0
  3  4  2  0
  3  5  1  0
  5  6  1  0
  6  7  1  0
  7  8  1  0
  8  9  2  0
  9 10  1  0
 10 11  1  0
  9 12  1  0
 12 13  1  0
 13 14  1  0
 14 15  1  0
 15 16  1  0
 16 17  2  0
 16 18  1  0
 18 19  2  0
 19 20  1  0
 20 21  1  0
 20 22  2  0
 22 23  1  0
 23 24  2  0
 24 25  1  0
 13 26  1  0
 26 27  1  0
 26 28  1  0
 14  2  1  0
 24 18  1  0
 26  6  1  0
  1 29  1  0
  1 30  1  0
  6 31  1  6
  7 32  1  0
  7 33  1  0
  8 34  1  0
 10 35  1  0
 10 36  1  0
 11 37  1  0
 12 38  1  0
 12 39  1  0
 13 40  1  6
 14 41  1  6
 19 42  1  0
 21 43  1  0
 22 44  1  0
 23 45  1  0
 27 46  1  0
 27 47  1  0
 27 48  1  0
 28 49  1  0
 28 50  1  0
 28 51  1  0
M  CHG  1  25  -1
M  END
>  <UniqueID>  (31) 
27

>  <SMILES>  (31) 
C=C1C(=O)O[C@@H]2CC=C(CO)C[C@@H](C1OC(=O)c1cc(O)ccc1[O-])C2(C)C

>  <Energy>  (31) 
133.30724413940155

>  <Genealogy>  (31) 
C=C1C(=O)OC2CC=C(CO)CC(C1OC(=O)c1cc(O)ccc1[O-])C2(C)C (protonated)
C=C1C(=O)O[C@@H]2CC=C(CO)C[C@@H](C1OC(=O)c1cc(O)ccc1[O-])C2(C)C (chirality)
C=C1C(=O)O[C@@H]2CC=C(CO)C[C@@H](C1OC(=O)c1cc(O)ccc1[O-])C2(C)C (3D coordinates assigned)
C=C1C(=O)O[C@@H]2CC=C(CO)C[C@@H](C1OC(=O)c1cc(O)ccc1[O-])C2(C)C (nonaromatic ring conformer: 133.30724413940155 kcal/mol)

>  <smiles>  (31) 
C=C1C(=O)OC2CC=C(CO)CC(C1OC(=O)c1cc(O)ccc1O)C2(C)C

>  <score_type>  (31) 
oracle

>  <origin>  (31) 
adg

>  <m_score__min__energy>  (31) 
-6.21

>  <m_primary>  (31) 
energy

$$$$
31:0
     RDKit          3D

 47 50  0  0  1  0  0  0  0  0999 V2000
   59.1010   33.8490   52.2380 C   0  0  0  0  0  0  0  0  0  0  0  0
   59.1300   33.6170   50.8480 O   0  0  0  0  0  0  0  0  0  0  0  0
   60.3430   33.5290   50.1800 C   0  0  0  0  0  0  0  0  0  0  0  0
   61.5080   33.8010   50.8660 C   0  0  0  0  0  0  0  0  0  0  0  0
   62.7500   33.7350   50.2720 C   0  0  0  0  0  0  0  0  0  0  0  0
   62.7940   33.3830   48.9500 C   0  0  0  0  0  0  0  0  0  0  0  0
   64.0610   33.2950   48.2680 N   0  0  0  0  0  0  0  0  0  0  0  0
   64.0980   33.4330   47.0300 O   0  0  0  0  0  0  0  0  0  0  0  0
   65.2010   33.0630   49.0000 O   0  0  0  0  0  0  0  0  0  0  0  0
   61.6150   33.1080   48.2560 C   0  0  0  0  0  0  0  0  0  0  0  0
   60.3740   33.1700   48.8370 C   0  0  0  0  0  0  0  0  0  0  0  0
   59.1520   32.9010   48.1810 N   0  0  0  0  0  0  0  0  0  0  0  0
   58.9710   32.6230   46.8250 C   0  0  0  0  0  0  0  0  0  0  0  0
   59.9030   32.5780   46.0050 O   0  0  0  0  0  0  0  0  0  0  0  0
   57.6540   32.3700   46.3150 N   0  0  0  0  0  0  0  0  0  0  0  0
   57.5790   32.0940   44.9060 C   0  0  0  0  0  0  0  0  0  0  0  0
   57.8890   33.0610   43.9700 C   0  0  0  0  0  0  0  0  0  0  0  0
   57.7910   32.7120   42.6240 C   0  0  0  0  0  0  0  0  0  0  0  0
   57.3940   31.4360   42.2640 C   0  0  0  0  0  0  0  0  0  0  0  0
   57.0810   30.4650   43.2140 C   0  0  0  0  0  0  0  0  0  0  0  0
   57.1830   30.8220   44.5530 C   0  0  0  0  0  0  0  0  0  0  0  0
   56.8710   29.8550   45.5590 N   0  0  0  0  0  0  0  0  0  0  0  0
   57.5280   28.7630   45.5770 C   0  0  0  0  0  0  0  0  0  0  0  0
   57.3480   27.7840   44.6390 N   0  0  0  0  0  0  0  0  0  0  0  0
   58.1130   26.6980   44.7950 C   0  0  0  0  0  0  0  0  0  0  0  0
   59.0030   26.4960   45.7540 N   0  0  0  0  0  0  0  0  0  0  0  0
   59.2240   27.4570   46.7300 C   0  0  0  0  0  0  0  0  0  0  0  0
   60.0910   27.3700   47.7420 C   0  0  0  0  0  0  0  0  0  0  0  0
   60.1390   28.4760   48.6090 C   0  0  0  0  0  0  0  0  0  0  0  0
   58.8910   29.6510   47.9170 S   0  0  0  0  0  0  0  0  0  0  0  0
   58.4510   28.5750   46.5870 C   0  0  0  0  0  0  0  0  0  0  0  0
   59.2203   32.8945   52.7716 H   0  0  0  0  0  0  0  0  0  0  0  0
   59.9212   34.5282   52.5136 H   0  0  0  0  0  0  0  0  0  0  0  0
   58.1388   34.3054   52.5136 H   0  0  0  0  0  0  0  0  0  0  0  0
   61.4436   34.0813   51.9277 H   0  0  0  0  0  0  0  0  0  0  0  0
   63.6677   33.9560   50.8368 H   0  0  0  0  0  0  0  0  0  0  0  0
   61.6840   32.8287   47.1943 H   0  0  0  0  0  0  0  0  0  0  0  0
   58.2720   32.9100   48.7780 H   0  0  0  0  0  0  0  0  0  0  0  0
   56.8110   32.3850   46.9230 H   0  0  0  0  0  0  0  0  0  0  0  0
   58.2020   34.0703   44.2756 H   0  0  0  0  0  0  0  0  0  0  0  0
   58.0297   33.4524   41.8463 H   0  0  0  0  0  0  0  0  0  0  0  0
   57.3233   31.1804   41.1964 H   0  0  0  0  0  0  0  0  0  0  0  0
   56.7653   29.4546   42.9150 H   0  0  0  0  0  0  0  0  0  0  0  0
   56.6540   27.9230   43.8780 H   0  0  0  0  0  0  0  0  0  0  0  0
   57.9907   25.8942   44.0541 H   0  0  0  0  0  0  0  0  0  0  0  0
   60.7293   26.4862   47.8885 H   0  0  0  0  0  0  0  0  0  0  0  0
   60.7744   28.6112   49.4967 H   0  0  0  0  0  0  0  0  0  0  0  0
  1  2  1  0
  2  3  1  0
  3  4  2  0
  4  5  1  0
  5  6  2  0
  6  7  1  0
  7  8  2  0
  7  9  1  0
  6 10  1  0
 10 11  2  0
 11 12  1  0
 12 13  1  0
 13 14  2  0
 13 15  1  0
 15 16  1  0
 16 17  2  0
 17 18  1  0
 18 19  2  0
 19 20  1  0
 20 21  2  0
 21 22  1  0
 22 23  2  0
 23 24  1  0
 24 25  1  0
 25 26  2  0
 26 27  1  0
 27 28  1  0
 28 29  2  0
 29 30  1  0
 30 31  1  0
 11  3  1  0
 21 16  1  0
 31 23  1  0
 31 27  2  0
  1 32  1  0
  1 33  1  0
  1 34  1  0
  4 35  1  0
  5 36  1  0
 10 37  1  0
 12 38  1  0
 15 39  1  0
 17 40  1  0
 18 41  1  0
 19 42  1  0
 20 43  1  0
 24 44  1  0
 25 45  1  0
 28 46  1  0
 29 47  1  0
M  CHG  2   7   1   9  -1
M  END
>  <smiles>  (32) 
COc1ccc([N+](=O)[O-])cc1NC(=O)Nc1ccccc1N=c1[nH]cnc2ccsc12

>  <score_type>  (32) 
oracle

>  <origin>  (32) 
adg

>  <m_score__min__energy>  (32) 
-9.5800000000000001

>  <m_primary>  (32) 
energy

$$$$
32:0
     RDKit          3D

 39 40  0  0  0  0  0  0  0  0999 V2000
   54.7160   29.6950   43.3590 O   0  0  0  0  0  0  0  0  0  0  0  0
   55.6960   29.7800   44.1450 C   0  0  0  0  0  0  0  0  0  0  0  0
   55.8070   28.8320   45.2130 N   0  0  0  0  0  0  0  0  0  0  0  0
   57.0210   28.1720   45.5980 C   0  0  0  0  0  0  0  0  0  0  0  0
   57.8830   28.7910   46.2800 O   0  0  0  0  0  0  0  0  0  0  0  0
   57.2360   26.7940   45.2180 N   0  0  1  0  0  0  0  0  0  0  0  0
   58.6840   26.4520   45.2410 C   0  0  0  0  0  0  0  0  0  0  0  0
   58.9880   25.1020   45.9240 C   0  0  0  0  0  0  0  0  0  0  0  0
   58.4320   23.8740   45.1600 C   0  0  0  0  0  0  0  0  0  0  0  0
   57.0860   23.4860   45.6450 N   0  0  0  0  0  0  0  0  0  0  0  0
   56.6910   22.1680   45.0960 C   0  0  0  0  0  0  0  0  0  0  0  0
   56.7310   22.1460   43.5630 C   0  0  0  0  0  0  0  0  0  0  0  0
   56.2630   20.9170   43.0790 O   0  0  0  0  0  0  0  0  0  0  0  0
   56.0650   24.5210   45.3430 C   0  0  0  0  0  0  0  0  0  0  0  0
   56.3390   25.8990   45.9920 C   0  0  0  0  0  0  0  0  0  0  0  0
   56.6600   30.8860   43.9790 C   0  0  0  0  0  0  0  0  0  0  0  0
   57.1930   31.3140   42.7660 C   0  0  0  0  0  0  0  0  0  0  0  0
   58.0360   32.4260   42.8920 C   0  0  0  0  0  0  0  0  0  0  0  0
   58.1500   32.8780   44.1970 C   0  0  0  0  0  0  0  0  0  0  0  0
   59.1060   34.2470   44.7270 Cl  0  0  0  0  0  0  0  0  0  0  0  0
   57.2110   31.9130   45.1990 S   0  0  0  0  0  0  0  0  0  0  0  0
   56.9310   26.7040   44.2190 H   0  0  0  0  0  0  0  0  0  0  0  0
   59.0474   26.4068   44.2037 H   0  0  0  0  0  0  0  0  0  0  0  0
   59.1910   27.2323   45.8277 H   0  0  0  0  0  0  0  0  0  0  0  0
   60.0795   24.9935   46.0069 H   0  0  0  0  0  0  0  0  0  0  0  0
   58.4904   25.1206   46.9049 H   0  0  0  0  0  0  0  0  0  0  0  0
   58.3674   24.1200   44.0898 H   0  0  0  0  0  0  0  0  0  0  0  0
   59.1137   23.0279   45.3312 H   0  0  0  0  0  0  0  0  0  0  0  0
   57.3815   21.4025   45.4798 H   0  0  0  0  0  0  0  0  0  0  0  0
   55.6565   21.9663   45.4107 H   0  0  0  0  0  0  0  0  0  0  0  0
   56.0959   22.9548   43.1724 H   0  0  0  0  0  0  0  0  0  0  0  0
   57.7703   22.2873   43.2314 H   0  0  0  0  0  0  0  0  0  0  0  0
   56.9510   20.2440   43.3220 H   0  0  0  0  0  0  0  0  0  0  0  0
   56.0249   24.6565   44.2521 H   0  0  0  0  0  0  0  0  0  0  0  0
   55.1164   24.1584   45.7656 H   0  0  0  0  0  0  0  0  0  0  0  0
   55.3747   26.4123   46.1213 H   0  0  0  0  0  0  0  0  0  0  0  0
   56.8569   25.6928   46.9403 H   0  0  0  0  0  0  0  0  0  0  0  0
   56.9740   30.8273   41.8041 H   0  0  0  0  0  0  0  0  0  0  0  0
   58.5546   32.8927   42.0416 H   0  0  0  0  0  0  0  0  0  0  0  0
  1  2  2  0
  2  3  1  0
  3  4  1  0
  4  5  2  0
  4  6  1  0
  6  7  1  0
  7  8  1  0
  8  9  1  0
  9 10  1  0
 10 11  1  0
 11 12  1  0
 12 13  1  0
 10 14  1  0
 14 15  1  0
  2 16  1  0
 16 17  2  0
 17 18  1  0
 18 19  2  0
 19 20  1  0
 19 21  1  0
 15  6  1  0
 21 16  1  0
  6 22  1  6
  7 23  1  0
  7 24  1  0
  8 25  1  0
  8 26  1  0
  9 27  1  0
  9 28  1  0
 11 29  1  0
 11 30  1  0
 12 31  1  0
 12 32  1  0
 13 33  1  0
 14 34  1  0
 14 35  1  0
 15 36  1  0
 15 37  1  0
 17 38  1  0
 18 39  1  0
M  CHG  2   3  -1   6   1
M  END
>  <UniqueID>  (33) 
28

>  <SMILES>  (33) 
O=C([N-]C(=O)[N@H+]1CCCN(CCO)CC1)c1ccc(Cl)s1

>  <Energy>  (33) 
86.00039562455596

>  <Genealogy>  (33) 
O=C([N-]C(=O)[NH+]1CCCN(CCO)CC1)c1ccc(Cl)s1 (protonated)
O=C([N-]C(=O)[N@H+]1CCCN(CCO)CC1)c1ccc(Cl)s1 (chirality)
O=C([N-]C(=O)[N@H+]1CCCN(CCO)CC1)c1ccc(Cl)s1 (3D coordinates assigned)
O=C([N-]C(=O)[N@H+]1CCCN(CCO)CC1)c1ccc(Cl)s1 (nonaromatic ring conformer: 86.00039562455596 kcal/mol)

>  <smiles>  (33) 
O=C(NC(=O)N1CCCN(CCO)CC1)c1ccc(Cl)s1

>  <score_type>  (33) 
oracle

>  <origin>  (33) 
adg

>  <m_score__min__energy>  (33) 
-6.5300000000000002

>  <m_primary>  (33) 
energy

$$$$
33:0
     RDKit          3D

 44 46  0  0  0  0  0  0  0  0999 V2000
   57.2640   25.2140   46.4440 C   0  0  0  0  0  0  0  0  0  0  0  0
   58.0790   26.4530   46.7010 C   0  0  0  0  0  0  0  0  0  0  0  0
   59.2220   26.3500   47.5130 C   0  0  0  0  0  0  0  0  0  0  0  0
   59.9610   27.4860   47.8480 C   0  0  0  0  0  0  0  0  0  0  0  0
   59.5650   28.7400   47.3810 C   0  0  0  0  0  0  0  0  0  0  0  0
   60.4670   30.1730   47.8410 Cl  0  0  0  0  0  0  0  0  0  0  0  0
   58.4460   28.8550   46.5530 C   0  0  0  0  0  0  0  0  0  0  0  0
   57.7210   27.7180   46.1710 C   0  0  0  0  0  0  0  0  0  0  0  0
   56.5960   27.8970   45.3010 N   0  0  0  0  0  0  0  0  0  0  0  0
   56.1680   29.1540   44.7670 C   0  0  0  0  0  0  0  0  0  0  0  0
   55.1390   29.7260   45.2180 O   0  0  0  0  0  0  0  0  0  0  0  0
   56.8960   29.7510   43.6020 C   0  0  0  0  0  0  0  0  0  0  0  0
   57.8710   30.8300   44.0710 C   0  0  0  0  0  0  0  0  0  0  0  0
   57.3380   31.5040   45.2590 N   0  0  0  0  0  0  0  0  0  0  0  0
   57.8830   33.1520   45.3060 S   0  0  0  0  0  0  0  0  0  0  0  0
   56.7220   34.0590   45.6070 O   0  0  0  0  0  0  0  0  0  0  0  0
   58.4630   33.5330   43.9720 O   0  0  0  0  0  0  0  0  0  0  0  0
   59.0870   33.3170   46.5810 C   0  0  0  0  0  0  0  0  0  0  0  0
   58.6980   33.4890   47.9180 C   0  0  0  0  0  0  0  0  0  0  0  0
   59.6620   33.6680   48.9140 C   0  0  0  0  0  0  0  0  0  0  0  0
   61.0210   33.6750   48.5830 C   0  0  0  0  0  0  0  0  0  0  0  0
   61.9600   33.8510   49.5510 N   0  0  0  0  0  0  0  0  0  0  0  0
   63.2900   33.8590   49.2650 C   0  0  0  0  0  0  0  0  0  0  0  0
   64.1270   34.0240   50.1900 O   0  0  0  0  0  0  0  0  0  0  0  0
   63.7260   33.6830   47.9470 C   0  0  0  0  0  0  0  0  0  0  0  0
   62.7850   33.5030   46.9310 C   0  0  0  0  0  0  0  0  0  0  0  0
   61.4190   33.4990   47.2390 C   0  0  0  0  0  0  0  0  0  0  0  0
   60.4470   33.3230   46.2440 C   0  0  0  0  0  0  0  0  0  0  0  0
   56.9681   24.7642   47.4033 H   0  0  0  0  0  0  0  0  0  0  0  0
   56.3638   25.4797   45.8705 H   0  0  0  0  0  0  0  0  0  0  0  0
   57.8645   24.4926   45.8705 H   0  0  0  0  0  0  0  0  0  0  0  0
   59.5370   25.3650   47.8879 H   0  0  0  0  0  0  0  0  0  0  0  0
   60.8561   27.3926   48.4805 H   0  0  0  0  0  0  0  0  0  0  0  0
   58.1309   29.8471   46.1975 H   0  0  0  0  0  0  0  0  0  0  0  0
   57.4557   28.9597   43.0818 H   0  0  0  0  0  0  0  0  0  0  0  0
   56.1619   30.2084   42.9224 H   0  0  0  0  0  0  0  0  0  0  0  0
   58.8371   30.3657   44.3181 H   0  0  0  0  0  0  0  0  0  0  0  0
   58.0072   31.5683   43.2671 H   0  0  0  0  0  0  0  0  0  0  0  0
   56.2960   31.5230   45.1880 H   0  0  0  0  0  0  0  0  0  0  0  0
   57.6305   33.4829   48.1833 H   0  0  0  0  0  0  0  0  0  0  0  0
   59.3513   33.8037   49.9605 H   0  0  0  0  0  0  0  0  0  0  0  0
   64.8009   33.6864   47.7132 H   0  0  0  0  0  0  0  0  0  0  0  0
   63.1161   33.3647   45.8912 H   0  0  0  0  0  0  0  0  0  0  0  0
   60.7530   33.1893   45.1959 H   0  0  0  0  0  0  0  0  0  0  0  0
  1  2  1  0
  2  3  2  0
  3  4  1  0
  4  5  2  0
  5  6  1  0
  5  7  1  0
  7  8  2  0
  8  9  1  0
  9 10  1  0
 10 11  2  0
 10 12  1  0
 12 13  1  0
 13 14  1  0
 14 15  1  0
 15 16  2  0
 15 17  2  0
 15 18  1  0
 18 19  2  0
 19 20  1  0
 20 21  2  0
 21 22  1  0
 22 23  1  0
 23 24  2  0
 23 25  1  0
 25 26  2  0
 26 27  1  0
 27 28  2  0
  8  2  1  0
 28 18  1  0
 27 21  1  0
  1 29  1  0
  1 30  1  0
  1 31  1  0
  3 32  1  0
  4 33  1  0
  7 34  1  0
 12 35  1  0
 12 36  1  0
 13 37  1  0
 13 38  1  0
 14 39  1  0
 19 40  1  0
 20 41  1  0
 25 42  1  0
 26 43  1  0
 28 44  1  0
M  CHG  2   9  -1  22  -1
M  END
>  <UniqueID>  (34) 
29

>  <SMILES>  (34) 
Cc1ccc(Cl)cc1[N-]C(=O)CCNS(=O)(=O)c1ccc2[n-]c(=O)ccc2c1

>  <Energy>  (34) 
47.82923335496527

>  <Genealogy>  (34) 
Cc1ccc(Cl)cc1[N-]C(=O)CCNS(=O)(=O)c1ccc2[n-]c(=O)ccc2c1 (protonated)
Cc1ccc(Cl)cc1[N-]C(=O)CCNS(=O)(=O)c1ccc2[n-]c(=O)ccc2c1 (3D coordinates assigned)
Cc1ccc(Cl)cc1[N-]C(=O)CCNS(=O)(=O)c1ccc2[n-]c(=O)ccc2c1 (optimized conformer: 47.82923335496527 kcal/mol)

>  <smiles>  (34) 
Cc1ccc(Cl)cc1NC(=O)CCNS(=O)(=O)c1ccc2[nH]c(=O)ccc2c1

>  <score_type>  (34) 
oracle

>  <origin>  (34) 
adg

>  <m_score__min__energy>  (34) 
-12.18

>  <m_primary>  (34) 
energy

$$$$
34:0
     RDKit          3D

 52 54  0  0  0  0  0  0  0  0999 V2000
   59.8564   26.0225   47.7628 H   0  0  0  0  0  0  0  0  0  0  0  0
   59.1670   26.7010   47.2390 C   0  0  0  0  0  0  0  0  0  0  0  0
   59.4280   28.0740   47.2070 C   0  0  0  0  0  0  0  0  0  0  0  0
   60.3261   28.4746   47.6999 H   0  0  0  0  0  0  0  0  0  0  0  0
   58.5470   28.9390   46.5480 C   0  0  0  0  0  0  0  0  0  0  0  0
   58.7610   30.0175   46.5152 H   0  0  0  0  0  0  0  0  0  0  0  0
   57.3940   28.4380   45.9300 C   0  0  0  0  0  0  0  0  0  0  0  0
   56.5430   29.3320   45.2640 O   0  0  0  0  0  0  0  0  0  0  0  0
   56.9630   30.4340   44.5050 C   0  0  0  0  0  0  0  0  0  0  0  0
   57.0210   30.3870   43.1010 C   0  0  0  0  0  0  0  0  0  0  0  0
   56.7439   29.4638   42.5709 H   0  0  0  0  0  0  0  0  0  0  0  0
   57.4290   31.5080   42.3790 C   0  0  0  0  0  0  0  0  0  0  0  0
   57.4794   31.4637   41.2811 H   0  0  0  0  0  0  0  0  0  0  0  0
   57.7740   32.6870   43.0440 C   0  0  0  0  0  0  0  0  0  0  0  0
   58.0976   33.5657   42.4668 H   0  0  0  0  0  0  0  0  0  0  0  0
   57.7100   32.7570   44.4470 C   0  0  0  0  0  0  0  0  0  0  0  0
   58.0670   34.0100   45.1540 C   0  0  0  0  0  0  0  0  0  0  0  0
   58.1810   35.0880   44.5110 O   0  0  0  0  0  0  0  0  0  0  0  0
   58.4110   33.9850   46.5420 N   0  0  0  0  0  0  0  0  0  0  0  0
   59.4800   33.4890   47.1020 C   0  0  0  0  0  0  0  0  0  0  0  0
   60.7490   33.7200   46.6170 C   0  0  0  0  0  0  0  0  0  0  0  0
   61.0355   34.3334   45.7500 H   0  0  0  0  0  0  0  0  0  0  0  0
   61.5850   33.0080   47.4640 C   0  0  0  0  0  0  0  0  0  0  0  0
   63.1090   33.0100   47.4300 C   0  0  0  0  0  0  0  0  0  0  0  0
   63.5780   33.9780   46.3300 C   0  0  0  0  0  0  0  0  0  0  0  0
   64.0131   34.8760   46.7929 H   0  0  0  0  0  0  0  0  0  0  0  0
   64.3364   33.4834   45.7053 H   0  0  0  0  0  0  0  0  0  0  0  0
   62.7198   34.2667   45.7053 H   0  0  0  0  0  0  0  0  0  0  0  0
   63.6930   33.4610   48.7860 C   0  0  0  0  0  0  0  0  0  0  0  0
   63.1107   33.0113   49.6038 H   0  0  0  0  0  0  0  0  0  0  0  0
   64.7412   33.1357   48.8602 H   0  0  0  0  0  0  0  0  0  0  0  0
   63.6432   34.5574   48.8602 H   0  0  0  0  0  0  0  0  0  0  0  0
   63.6370   31.5920   47.1240 C   0  0  0  0  0  0  0  0  0  0  0  0
   63.8341   31.0626   48.0678 H   0  0  0  0  0  0  0  0  0  0  0  0
   62.8849   31.0381   46.5431 H   0  0  0  0  0  0  0  0  0  0  0  0
   64.5682   31.6649   46.5431 H   0  0  0  0  0  0  0  0  0  0  0  0
   60.8270   32.4010   48.4040 N   0  0  0  0  0  0  0  0  0  0  0  0
   61.1690   31.7790   49.1710 H   0  0  0  0  0  0  0  0  0  0  0  0
   59.5470   32.6750   48.1920 N   0  0  0  0  0  0  0  0  0  0  0  0
   58.4820   31.9480   48.8920 C   0  0  0  0  0  0  0  0  0  0  0  0
   58.6349   30.8667   48.7598 H   0  0  0  0  0  0  0  0  0  0  0  0
   57.5111   32.2488   48.4714 H   0  0  0  0  0  0  0  0  0  0  0  0
   58.4970   32.2780   50.3800 C   0  0  0  0  0  0  0  0  0  0  0  0
   58.4546   31.3460   50.9627 H   0  0  0  0  0  0  0  0  0  0  0  0
   59.4208   32.8223   50.6256 H   0  0  0  0  0  0  0  0  0  0  0  0
   57.6264   32.9039   50.6256 H   0  0  0  0  0  0  0  0  0  0  0  0
   57.2900   31.6230   45.1670 C   0  0  0  0  0  0  0  0  0  0  0  0
   57.2178   31.6718   46.2635 H   0  0  0  0  0  0  0  0  0  0  0  0
   57.1490   27.0520   45.9500 C   0  0  0  0  0  0  0  0  0  0  0  0
   56.2591   26.6459   45.4468 H   0  0  0  0  0  0  0  0  0  0  0  0
   58.0310   26.1900   46.6060 C   0  0  0  0  0  0  0  0  0  0  0  0
   57.8311   25.1085   46.6242 H   0  0  0  0  0  0  0  0  0  0  0  0
  1  2  1  0
  2  3  2  0
  3  4  1  0
  3  5  1  0
  5  6  1  0
  5  7  2  0
  7  8  1  0
  8  9  1  0
  9 10  2  0
 10 11  1  0
 10 12  1  0
 12 13  1  0
 12 14  2  0
 14 15  1  0
 14 16  1  0
 16 17  1  0
 17 18  2  0
 17 19  1  0
 19 20  2  0
 20 21  1  0
 21 22  1  0
 21 23  2  0
 23 24  1  0
 24 25  1  0
 25 26  1  0
 25 27  1  0
 25 28  1  0
 24 29  1  0
 29 30  1  0
 29 31  1  0
 29 32  1  0
 24 33  1  0
 33 34  1  0
 33 35  1  0
 33 36  1  0
 23 37  1  0
 37 38  1  0
 37 39  1  0
 39 40  1  0
 40 41  1  0
 40 42  1  0
 40 43  1  0
 43 44  1  0
 43 45  1  0
 43 46  1  0
 16 47  2  0
 47 48  1  0
  7 49  1  0
 49 50  1  0
 49 51  2  0
 51 52  1  0
 51  2  1  0
 47  9  1  0
 39 20  1  0
M  END
>  <UniqueID>  (35) 
30

>  <SMILES>  (35) 
CCn1[nH]c(C(C)(C)C)c/c1=N/C(=O)c1cccc(Oc2ccccc2)c1

>  <Energy>  (35) 
99.68370027673518

>  <Genealogy>  (35) 
CCn1[nH]c(C(C)(C)C)c/c1=N/C(=O)c1cccc(Oc2ccccc2)c1 (cis-trans isomerization)
CCn1[nH]c(C(C)(C)C)c/c1=N/C(=O)c1cccc(Oc2ccccc2)c1 (3D coordinates assigned)
CCn1[nH]c(C(C)(C)C)c/c1=N/C(=O)c1cccc(Oc2ccccc2)c1 (optimized conformer: 99.68370027673518 kcal/mol)

>  <smiles>  (35) 
CCn1[nH]c(C(C)(C)C)cc1=NC(=O)c1cccc(Oc2ccccc2)c1

>  <score_type>  (35) 
oracle

>  <origin>  (35) 
adg

>  <m_score__min__energy>  (35) 
-8.5399999999999991

>  <m_primary>  (35) 
energy

$$$$
35:0
     RDKit          3D

 53 56  0  0  0  0  0  0  0  0999 V2000
   55.0550   26.6710   46.3450 O   0  0  0  0  0  0  0  0  0  0  0  0
   55.9380   25.9500   45.8100 C   0  0  0  0  0  0  0  0  0  0  0  0
   55.7480   24.5310   45.7890 N   0  0  0  0  0  0  0  0  0  0  0  0
   56.5650   23.5770   45.0940 C   0  0  0  0  0  0  0  0  0  0  0  0
   56.0830   22.8440   43.9950 C   0  0  0  0  0  0  0  0  0  0  0  0
   56.9170   21.9300   43.3410 C   0  0  0  0  0  0  0  0  0  0  0  0
   58.2350   21.7550   43.7670 C   0  0  0  0  0  0  0  0  0  0  0  0
   58.7250   22.5000   44.8410 C   0  0  0  0  0  0  0  0  0  0  0  0
   60.0060   22.3350   45.2540 F   0  0  0  0  0  0  0  0  0  0  0  0
   57.8950   23.4140   45.4990 C   0  0  0  0  0  0  0  0  0  0  0  0
   57.0470   26.5540   45.1230 N   0  0  0  0  0  0  0  0  0  0  0  0
   57.4270   27.9310   45.2860 C   0  0  0  0  0  0  0  0  0  0  0  0
   58.5740   28.2930   46.0100 C   0  0  0  0  0  0  0  0  0  0  0  0
   58.9320   29.6380   46.1440 C   0  0  0  0  0  0  0  0  0  0  0  0
   58.1560   30.6490   45.5490 C   0  0  0  0  0  0  0  0  0  0  0  0
   58.5350   32.0800   45.6870 C   0  0  0  0  0  0  0  0  0  0  0  0
   58.2220   33.1290   44.8340 C   0  0  0  0  0  0  0  0  0  0  0  0
   58.7520   34.2710   45.3120 N   0  0  0  0  0  0  0  0  0  0  0  0
   59.3960   33.9760   46.4290 N   0  0  0  0  0  0  0  0  0  0  0  0
   60.0660   34.9660   47.2700 C   0  0  0  0  0  0  0  0  0  0  0  0
   60.7220   34.2890   48.4750 C   0  0  0  0  0  0  0  0  0  0  0  0
   62.1940   34.2440   48.2960 N   0  0  0  0  0  0  0  0  0  0  0  0
   62.8870   33.6060   49.4330 C   0  0  0  0  0  0  0  0  0  0  0  0
   62.7180   32.0680   49.4310 C   0  0  0  0  0  0  0  0  0  0  0  0
   62.0020   31.6080   48.3020 O   0  0  0  0  0  0  0  0  0  0  0  0
   62.6280   32.0660   47.1210 C   0  0  0  0  0  0  0  0  0  0  0  0
   62.5860   33.6070   47.0200 C   0  0  0  0  0  0  0  0  0  0  0  0
   59.2790   32.6630   46.6970 C   0  0  0  0  0  0  0  0  0  0  0  0
   57.0190   30.2790   44.8080 C   0  0  0  0  0  0  0  0  0  0  0  0
   56.6650   28.9330   44.6720 C   0  0  0  0  0  0  0  0  0  0  0  0
   55.0490   22.9892   43.6489 H   0  0  0  0  0  0  0  0  0  0  0  0
   56.5334   21.3484   42.4898 H   0  0  0  0  0  0  0  0  0  0  0  0
   58.8868   21.0306   43.2567 H   0  0  0  0  0  0  0  0  0  0  0  0
   58.2890   24.0067   46.3377 H   0  0  0  0  0  0  0  0  0  0  0  0
   57.5190   25.9960   44.3780 H   0  0  0  0  0  0  0  0  0  0  0  0
   59.1952   27.5133   46.4750 H   0  0  0  0  0  0  0  0  0  0  0  0
   59.8292   29.9080   46.7203 H   0  0  0  0  0  0  0  0  0  0  0  0
   57.6319   33.0412   43.9098 H   0  0  0  0  0  0  0  0  0  0  0  0
   60.8381   35.4802   46.6788 H   0  0  0  0  0  0  0  0  0  0  0  0
   59.3203   35.6897   47.6307 H   0  0  0  0  0  0  0  0  0  0  0  0
   60.4835   34.8575   49.3860 H   0  0  0  0  0  0  0  0  0  0  0  0
   60.3386   33.2618   48.5635 H   0  0  0  0  0  0  0  0  0  0  0  0
   63.9591   33.8448   49.3737 H   0  0  0  0  0  0  0  0  0  0  0  0
   62.4416   33.9938   50.3610 H   0  0  0  0  0  0  0  0  0  0  0  0
   63.7147   31.6027   49.4314 H   0  0  0  0  0  0  0  0  0  0  0  0
   62.1450   31.7914   50.3283 H   0  0  0  0  0  0  0  0  0  0  0  0
   63.6774   31.7361   47.1215 H   0  0  0  0  0  0  0  0  0  0  0  0
   62.0871   31.6484   46.2590 H   0  0  0  0  0  0  0  0  0  0  0  0
   63.5848   33.9700   46.7359 H   0  0  0  0  0  0  0  0  0  0  0  0
   61.8312   33.8737   46.2656 H   0  0  0  0  0  0  0  0  0  0  0  0
   59.7020   32.1426   47.5689 H   0  0  0  0  0  0  0  0  0  0  0  0
   56.4028   31.0555   44.3312 H   0  0  0  0  0  0  0  0  0  0  0  0
   55.7808   28.6589   44.0779 H   0  0  0  0  0  0  0  0  0  0  0  0
  1  2  2  0
  2  3  1  0
  3  4  1  0
  4  5  2  0
  5  6  1  0
  6  7  2  0
  7  8  1  0
  8  9  1  0
  8 10  2  0
  2 11  1  0
 11 12  1  0
 12 13  2  0
 13 14  1  0
 14 15  2  0
 15 16  1  0
 16 17  1  0
 17 18  2  0
 18 19  1  0
 19 20  1  0
 20 21  1  0
 21 22  1  0
 22 23  1  0
 23 24  1  0
 24 25  1  0
 25 26  1  0
 26 27  1  0
 19 28  1  0
 15 29  1  0
 29 30  2  0
 10  4  1  0
 30 12  1  0
 28 16  2  0
 27 22  1  0
  5 31  1  0
  6 32  1  0
  7 33  1  0
 10 34  1  0
 11 35  1  0
 13 36  1  0
 14 37  1  0
 17 38  1  0
 20 39  1  0
 20 40  1  0
 21 41  1  0
 21 42  1  0
 23 43  1  0
 23 44  1  0
 24 45  1  0
 24 46  1  0
 26 47  1  0
 26 48  1  0
 27 49  1  0
 27 50  1  0
 28 51  1  0
 29 52  1  0
 30 53  1  0
M  CHG  1   3  -1
M  END
>  <UniqueID>  (36) 
31

>  <SMILES>  (36) 
O=C([N-]c1cccc(F)c1)Nc1ccc(-c2cnn(CCN3CCOCC3)c2)cc1

>  <Energy>  (36) 
104.89171948028736

>  <Genealogy>  (36) 
O=C([N-]c1cccc(F)c1)Nc1ccc(-c2cnn(CCN3CCOCC3)c2)cc1 (protonated)
O=C([N-]c1cccc(F)c1)Nc1ccc(-c2cnn(CCN3CCOCC3)c2)cc1 (3D coordinates assigned)
O=C([N-]c1cccc(F)c1)Nc1ccc(-c2cnn(CCN3CCOCC3)c2)cc1 (nonaromatic ring conformer: 104.89171948028736 kcal/mol)

>  <smiles>  (36) 
O=C(Nc1ccc(-c2cnn(CCN3CCOCC3)c2)cc1)Nc1cccc(F)c1

>  <score_type>  (36) 
oracle

>  <origin>  (36) 
adg

>  <m_score__min__energy>  (36) 
-10.19

>  <m_primary>  (36) 
energy

$$$$
36:0
     RDKit          3D

 36 37  0  0  0  0  0  0  0  0999 V2000
   56.2610   29.7880   42.7720 C   0  0  0  0  0  0  0  0  0  0  0  0
   56.0590   30.1980   44.1910 C   0  0  0  0  0  0  0  0  0  0  0  0
   55.9710   31.4220   44.4800 O   0  0  0  0  0  0  0  0  0  0  0  0
   56.0820   29.2010   45.2200 N   0  0  0  0  0  0  0  0  0  0  0  0
   57.0420   28.1420   45.3730 C   0  0  0  0  0  0  0  0  0  0  0  0
   56.6410   26.7930   45.3530 C   0  0  0  0  0  0  0  0  0  0  0  0
   57.5750   25.7730   45.5420 C   0  0  0  0  0  0  0  0  0  0  0  0
   58.9190   26.0830   45.7480 C   0  0  0  0  0  0  0  0  0  0  0  0
   60.0880   24.7990   45.9930 Cl  0  0  0  0  0  0  0  0  0  0  0  0
   59.3360   27.4170   45.7440 C   0  0  0  0  0  0  0  0  0  0  0  0
   58.4120   28.4550   45.5340 C   0  0  0  0  0  0  0  0  0  0  0  0
   58.8910   29.8570   45.5260 C   0  0  0  0  0  0  0  0  0  0  0  0
   59.9790   30.1380   44.9530 O   0  0  0  0  0  0  0  0  0  0  0  0
   58.1060   30.9020   46.1200 N   0  0  0  0  0  0  0  0  0  0  0  0
   58.6560   32.1710   46.5030 C   0  0  0  0  0  0  0  0  0  0  0  0
   58.7610   33.1870   45.5410 C   0  0  0  0  0  0  0  0  0  0  0  0
   59.2850   34.4350   45.8830 C   0  0  0  0  0  0  0  0  0  0  0  0
   59.6960   34.6840   47.1920 C   0  0  0  0  0  0  0  0  0  0  0  0
   59.5720   33.6930   48.1680 C   0  0  0  0  0  0  0  0  0  0  0  0
   59.0380   32.4300   47.8380 C   0  0  0  0  0  0  0  0  0  0  0  0
   58.8460   31.4300   48.8060 O   0  0  0  0  0  0  0  0  0  0  0  0
   59.5280   30.1800   48.8370 C   0  0  0  0  0  0  0  0  0  0  0  0
   60.1480   30.0360   50.0640 F   0  0  0  0  0  0  0  0  0  0  0  0
   58.6260   29.1460   48.6660 F   0  0  0  0  0  0  0  0  0  0  0  0
   56.7470   28.8017   42.7410 H   0  0  0  0  0  0  0  0  0  0  0  0
   55.2869   29.7330   42.2640 H   0  0  0  0  0  0  0  0  0  0  0  0
   56.8982   30.5269   42.2640 H   0  0  0  0  0  0  0  0  0  0  0  0
   55.5833   26.5405   45.1871 H   0  0  0  0  0  0  0  0  0  0  0  0
   57.2501   24.7222   45.5284 H   0  0  0  0  0  0  0  0  0  0  0  0
   60.3972   27.6567   45.9067 H   0  0  0  0  0  0  0  0  0  0  0  0
   57.0680   30.7830   46.1470 H   0  0  0  0  0  0  0  0  0  0  0  0
   58.4280   32.9988   44.5097 H   0  0  0  0  0  0  0  0  0  0  0  0
   59.3737   35.2221   45.1197 H   0  0  0  0  0  0  0  0  0  0  0  0
   60.1193   35.6642   47.4567 H   0  0  0  0  0  0  0  0  0  0  0  0
   59.8926   33.8986   49.2000 H   0  0  0  0  0  0  0  0  0  0  0  0
   60.2724   30.1520   48.0276 H   0  0  0  0  0  0  0  0  0  0  0  0
  1  2  1  0
  2  3  2  0
  2  4  1  0
  4  5  1  0
  5  6  2  0
  6  7  1  0
  7  8  2  0
  8  9  1  0
  8 10  1  0
 10 11  2  0
 11 12  1  0
 12 13  2  0
 12 14  1  0
 14 15  1  0
 15 16  2  0
 16 17  1  0
 17 18  2  0
 18 19  1  0
 19 20  2  0
 20 21  1  0
 21 22  1  0
 22 23  1  0
 22 24  1  0
 11  5  1  0
 20 15  1  0
  1 25  1  0
  1 26  1  0
  1 27  1  0
  6 28  1  0
  7 29  1  0
 10 30  1  0
 14 31  1  0
 16 32  1  0
 17 33  1  0
 18 34  1  0
 19 35  1  0
 22 36  1  0
M  CHG  1   4  -1
M  END
>  <UniqueID>  (37) 
32

>  <SMILES>  (37) 
CC(=O)[N-]c1ccc(Cl)cc1C(=O)Nc1ccccc1OC(F)F

>  <Energy>  (37) 
46.51402679525946

>  <Genealogy>  (37) 
CC(=O)[N-]c1ccc(Cl)cc1C(=O)Nc1ccccc1OC(F)F (protonated)
CC(=O)[N-]c1ccc(Cl)cc1C(=O)Nc1ccccc1OC(F)F (3D coordinates assigned)
CC(=O)[N-]c1ccc(Cl)cc1C(=O)Nc1ccccc1OC(F)F (optimized conformer: 46.51402679525946 kcal/mol)

>  <smiles>  (37) 
CC(=O)Nc1ccc(Cl)cc1C(=O)Nc1ccccc1OC(F)F

>  <score_type>  (37) 
oracle

>  <origin>  (37) 
adg

>  <m_score__min__energy>  (37) 
-8.1699999999999999

>  <m_primary>  (37) 
energy

$$$$
37:0
     RDKit          3D

 53 55  0  0  0  0  0  0  0  0999 V2000
   55.2480   30.4710   44.4720 O   0  0  0  0  0  0  0  0  0  0  0  0
   56.2450   29.7440   44.7340 C   0  0  0  0  0  0  0  0  0  0  0  0
   57.6250   30.2320   44.4290 C   0  0  0  0  0  0  0  0  0  0  0  0
   57.8070   31.6240   44.9730 C   0  0  0  0  0  0  0  0  0  0  0  0
   57.7720   32.7360   44.1150 C   0  0  0  0  0  0  0  0  0  0  0  0
   57.9790   34.0240   44.6220 C   0  0  0  0  0  0  0  0  0  0  0  0
   58.2320   34.2080   45.9830 C   0  0  0  0  0  0  0  0  0  0  0  0
   58.2780   33.1070   46.8400 C   0  0  0  0  0  0  0  0  0  0  0  0
   58.0670   31.8180   46.3400 C   0  0  0  0  0  0  0  0  0  0  0  0
   56.0620   28.4250   45.2490 N   0  0  0  0  0  0  0  0  0  0  0  0
   57.3560   27.2790   45.3350 S   0  0  0  0  0  0  0  0  0  0  0  0
   56.7930   25.9090   45.5800 O   0  0  0  0  0  0  0  0  0  0  0  0
   58.1000   27.2800   44.0300 O   0  0  0  0  0  0  0  0  0  0  0  0
   58.4240   27.7120   46.6650 C   0  0  0  0  0  0  0  0  0  0  0  0
   58.1880   28.8890   47.3870 C   0  0  0  0  0  0  0  0  0  0  0  0
   59.0450   29.2590   48.4260 C   0  0  0  0  0  0  0  0  0  0  0  0
   60.1540   28.4600   48.7490 C   0  0  0  0  0  0  0  0  0  0  0  0
   61.1220   28.8930   49.8240 C   0  0  0  0  0  0  0  0  0  0  0  0
   61.0820   30.4100   50.0670 C   0  0  0  0  0  0  0  0  0  0  0  0
   62.1880   31.1380   49.3370 C   0  0  0  0  0  0  0  0  0  0  0  0
   63.2780   31.2570   49.8810 O   0  0  0  0  0  0  0  0  0  0  0  0
   61.9700   31.6930   48.0130 N   0  0  0  0  0  0  0  0  0  0  0  0
   63.2350   31.7390   47.2310 C   0  0  0  0  0  0  0  0  0  0  0  0
   63.7750   33.1710   47.0830 C   0  0  0  0  0  0  0  0  0  0  0  0
   62.8540   34.0480   46.4530 O   0  0  0  0  0  0  0  0  0  0  0  0
   61.4990   33.8190   46.8210 C   0  0  0  0  0  0  0  0  0  0  0  0
   61.3140   33.0150   48.1210 C   0  0  0  0  0  0  0  0  0  0  0  0
   60.3800   27.2760   48.0300 C   0  0  0  0  0  0  0  0  0  0  0  0
   59.5170   26.9030   46.9950 C   0  0  0  0  0  0  0  0  0  0  0  0
   58.3610   29.5594   44.8938 H   0  0  0  0  0  0  0  0  0  0  0  0
   57.7718   30.2466   43.3389 H   0  0  0  0  0  0  0  0  0  0  0  0
   57.5812   32.5938   43.0410 H   0  0  0  0  0  0  0  0  0  0  0  0
   57.9424   34.8923   43.9477 H   0  0  0  0  0  0  0  0  0  0  0  0
   58.3951   35.2209   46.3799 H   0  0  0  0  0  0  0  0  0  0  0  0
   58.4807   33.2536   47.9112 H   0  0  0  0  0  0  0  0  0  0  0  0
   58.1047   30.9535   47.0191 H   0  0  0  0  0  0  0  0  0  0  0  0
   57.3255   29.5235   47.1350 H   0  0  0  0  0  0  0  0  0  0  0  0
   58.8504   30.1807   48.9941 H   0  0  0  0  0  0  0  0  0  0  0  0
   60.8641   28.3776   50.7609 H   0  0  0  0  0  0  0  0  0  0  0  0
   62.1366   28.6322   49.4887 H   0  0  0  0  0  0  0  0  0  0  0  0
   60.1134   30.7984   49.7193 H   0  0  0  0  0  0  0  0  0  0  0  0
   61.2206   30.5817   51.1446 H   0  0  0  0  0  0  0  0  0  0  0  0
   61.3120   31.0680   47.4910 H   0  0  0  0  0  0  0  0  0  0  0  0
   63.9911   31.1266   47.7442 H   0  0  0  0  0  0  0  0  0  0  0  0
   63.0231   31.3523   46.2232 H   0  0  0  0  0  0  0  0  0  0  0  0
   64.0049   33.5643   48.0842 H   0  0  0  0  0  0  0  0  0  0  0  0
   64.6705   33.1211   46.4462 H   0  0  0  0  0  0  0  0  0  0  0  0
   61.0087   34.7953   46.9489 H   0  0  0  0  0  0  0  0  0  0  0  0
   61.0555   33.2151   46.0157 H   0  0  0  0  0  0  0  0  0  0  0  0
   61.7600   33.5727   48.9577 H   0  0  0  0  0  0  0  0  0  0  0  0
   60.2384   32.8642   48.2950 H   0  0  0  0  0  0  0  0  0  0  0  0
   61.2402   26.6384   48.2819 H   0  0  0  0  0  0  0  0  0  0  0  0
   59.6977   25.9713   46.4388 H   0  0  0  0  0  0  0  0  0  0  0  0
  1  2  2  0
  2  3  1  0
  3  4  1  0
  4  5  2  0
  5  6  1  0
  6  7  2  0
  7  8  1  0
  8  9  2  0
  2 10  1  0
 10 11  1  0
 11 12  2  0
 11 13  2  0
 11 14  1  0
 14 15  2  0
 15 16  1  0
 16 17  2  0
 17 18  1  0
 18 19  1  0
 19 20  1  0
 20 21  2  0
 20 22  1  0
 22 23  1  0
 23 24  1  0
 24 25  1  0
 25 26  1  0
 26 27  1  0
 17 28  1  0
 28 29  2  0
  9  4  1  0
 29 14  1  0
 27 22  1  0
  3 30  1  0
  3 31  1  0
  5 32  1  0
  6 33  1  0
  7 34  1  0
  8 35  1  0
  9 36  1  0
 15 37  1  0
 16 38  1  0
 18 39  1  0
 18 40  1  0
 19 41  1  0
 19 42  1  0
 22 43  1  0
 23 44  1  0
 23 45  1  0
 24 46  1  0
 24 47  1  0
 26 48  1  0
 26 49  1  0
 27 50  1  0
 27 51  1  0
 28 52  1  0
 29 53  1  0
M  CHG  2  10  -1  22   1
M  END
>  <UniqueID>  (38) 
33

>  <SMILES>  (38) 
O=C(Cc1ccccc1)[N-]S(=O)(=O)c1ccc(CCC(=O)[NH+]2CCOCC2)cc1

>  <Energy>  (38) 
58.986484454864495

>  <Genealogy>  (38) 
O=C(Cc1ccccc1)[N-]S(=O)(=O)c1ccc(CCC(=O)[NH+]2CCOCC2)cc1 (protonated)
O=C(Cc1ccccc1)[N-]S(=O)(=O)c1ccc(CCC(=O)[NH+]2CCOCC2)cc1 (3D coordinates assigned)
O=C(Cc1ccccc1)[N-]S(=O)(=O)c1ccc(CCC(=O)[NH+]2CCOCC2)cc1 (nonaromatic ring conformer: 58.986484454864495 kcal/mol)

>  <smiles>  (38) 
O=C(Cc1ccccc1)NS(=O)(=O)c1ccc(CCC(=O)N2CCOCC2)cc1

>  <score_type>  (38) 
oracle

>  <origin>  (38) 
adg

>  <m_score__min__energy>  (38) 
-9.9900000000000002

>  <m_primary>  (38) 
energy

$$$$
38:0
     RDKit          3D

 68 72  0  0  0  0  0  0  0  0999 V2000
   67.2470   32.9120   50.9030 C   0  0  0  0  0  0  0  0  0  0  0  0
   66.3040   31.8150   51.1580 N   0  0  0  0  0  0  0  0  0  0  0  0
   66.6200   30.7450   51.9630 C   0  0  0  0  0  0  0  0  0  0  0  0
   67.7470   30.6690   52.5220 O   0  0  0  0  0  0  0  0  0  0  0  0
   65.7150   29.7400   52.1670 N   0  0  0  0  0  0  0  0  0  0  0  0
   64.4770   29.7550   51.5970 C   0  0  0  0  0  0  0  0  0  0  0  0
   63.6920   28.7930   51.7960 O   0  0  0  0  0  0  0  0  0  0  0  0
   64.1400   30.8470   50.7900 C   0  0  0  0  0  0  0  0  0  0  0  0
   65.0620   31.8310   50.5910 C   0  0  0  0  0  0  0  0  0  0  0  0
   64.5590   32.7750   49.7800 N   0  0  0  0  0  0  0  0  0  0  0  0
   63.3130   32.3330   49.4860 C   0  0  0  0  0  0  0  0  0  0  0  0
   62.4170   33.0760   48.5770 C   0  0  0  0  0  0  0  0  0  0  0  0
   61.2570   33.6950   49.0680 C   0  0  0  0  0  0  0  0  0  0  0  0
   60.4130   34.3960   48.2020 C   0  0  0  0  0  0  0  0  0  0  0  0
   60.7180   34.4790   46.8390 C   0  0  0  0  0  0  0  0  0  0  0  0
   59.6410   35.3960   45.7320 S   0  0  0  0  0  0  0  0  0  0  0  0
   58.9790   33.9230   44.8720 C   0  0  0  0  0  0  0  0  0  0  0  0
   59.0410   32.6820   45.7710 C   0  0  0  0  0  0  0  0  0  0  0  0
   57.7090   31.9120   45.8190 C   0  0  0  0  0  0  0  0  0  0  0  0
   56.9860   31.8590   44.4630 C   0  0  0  0  0  0  0  0  0  0  0  0
   57.1220   30.5830   43.8400 O   0  0  0  0  0  0  0  0  0  0  0  0
   57.4930   29.3910   44.4850 C   0  0  0  0  0  0  0  0  0  0  0  0
   58.8360   28.9710   44.5920 C   0  0  0  0  0  0  0  0  0  0  0  0
   59.1490   27.7710   45.2400 C   0  0  0  0  0  0  0  0  0  0  0  0
   58.1320   26.9810   45.7830 C   0  0  0  0  0  0  0  0  0  0  0  0
   56.8010   27.3890   45.6800 C   0  0  0  0  0  0  0  0  0  0  0  0
   56.4820   28.5880   45.0340 C   0  0  0  0  0  0  0  0  0  0  0  0
   55.1520   28.9830   44.9390 O   0  0  0  0  0  0  0  0  0  0  0  0
   61.8470   33.8220   46.3380 C   0  0  0  0  0  0  0  0  0  0  0  0
   62.6930   33.1200   47.2020 C   0  0  0  0  0  0  0  0  0  0  0  0
   63.0070   31.1490   50.1010 N   0  0  0  0  0  0  0  0  0  0  0  0
   61.6840   30.4900   50.1220 C   0  0  0  0  0  0  0  0  0  0  0  0
   61.1590   30.2280   48.6960 C   0  0  0  0  0  0  0  0  0  0  0  0
   59.8200   29.4620   48.7120 C   0  0  0  0  0  0  0  0  0  0  0  0
   58.9190   29.8070   49.9170 C   0  0  0  0  0  0  0  0  0  0  0  0
   59.2350   31.1870   50.5020 C   0  0  0  0  0  0  0  0  0  0  0  0
   60.6780   31.2450   51.0300 C   0  0  0  0  0  0  0  0  0  0  0  0
   67.5998   33.3224   51.8607 H   0  0  0  0  0  0  0  0  0  0  0  0
   68.1048   32.5321   50.3287 H   0  0  0  0  0  0  0  0  0  0  0  0
   66.7426   33.7030   50.3287 H   0  0  0  0  0  0  0  0  0  0  0  0
   65.0220   33.6440   49.4340 H   0  0  0  0  0  0  0  0  0  0  0  0
   61.0112   33.6282   50.1381 H   0  0  0  0  0  0  0  0  0  0  0  0
   59.5075   34.8832   48.5927 H   0  0  0  0  0  0  0  0  0  0  0  0
   57.9321   34.1113   44.5919 H   0  0  0  0  0  0  0  0  0  0  0  0
   59.5920   33.7366   43.9779 H   0  0  0  0  0  0  0  0  0  0  0  0
   59.8221   32.0091   45.3875 H   0  0  0  0  0  0  0  0  0  0  0  0
   59.2622   33.0244   46.7927 H   0  0  0  0  0  0  0  0  0  0  0  0
   57.9132   30.8818   46.1459 H   0  0  0  0  0  0  0  0  0  0  0  0
   57.0495   32.4467   46.5184 H   0  0  0  0  0  0  0  0  0  0  0  0
   55.9173   32.0661   44.6209 H   0  0  0  0  0  0  0  0  0  0  0  0
   57.4412   32.6121   43.8030 H   0  0  0  0  0  0  0  0  0  0  0  0
   59.6394   29.5890   44.1646 H   0  0  0  0  0  0  0  0  0  0  0  0
   60.1975   27.4488   45.3222 H   0  0  0  0  0  0  0  0  0  0  0  0
   58.3804   26.0378   46.2915 H   0  0  0  0  0  0  0  0  0  0  0  0
   56.0014   26.7664   46.1077 H   0  0  0  0  0  0  0  0  0  0  0  0
   62.0697   33.8578   45.2614 H   0  0  0  0  0  0  0  0  0  0  0  0
   63.5769   32.6010   46.8029 H   0  0  0  0  0  0  0  0  0  0  0  0
   61.8062   29.4983   50.5819 H   0  0  0  0  0  0  0  0  0  0  0  0
   61.0118   31.1923   48.1877 H   0  0  0  0  0  0  0  0  0  0  0  0
   61.9000   29.6116   48.1659 H   0  0  0  0  0  0  0  0  0  0  0  0
   59.2719   29.7025   47.7891 H   0  0  0  0  0  0  0  0  0  0  0  0
   60.0639   28.3922   48.7904 H   0  0  0  0  0  0  0  0  0  0  0  0
   57.8691   29.7936   49.5891 H   0  0  0  0  0  0  0  0  0  0  0  0
   59.1041   29.0583   50.7013 H   0  0  0  0  0  0  0  0  0  0  0  0
   59.1082   31.9477   49.7176 H   0  0  0  0  0  0  0  0  0  0  0  0
   58.5477   31.3782   51.3393 H   0  0  0  0  0  0  0  0  0  0  0  0
   60.9860   32.2990   51.0945 H   0  0  0  0  0  0  0  0  0  0  0  0
   60.6892   30.7542   52.0144 H   0  0  0  0  0  0  0  0  0  0  0  0
  1  2  1  0
  2  3  1  0
  3  4  2  0
  3  5  1  0
  5  6  1  0
  6  7  2  0
  6  8  1  0
  8  9  2  0
  9 10  1  0
 10 11  2  0
 11 12  1  0
 12 13  2  0
 13 14  1  0
 14 15  2  0
 15 16  1  0
 16 17  1  0
 17 18  1  0
 18 19  1  0
 19 20  1  0
 20 21  1  0
 21 22  1  0
 22 23  2  0
 23 24  1  0
 24 25  2  0
 25 26  1  0
 26 27  2  0
 27 28  1  0
 15 29  1  0
 29 30  2  0
 11 31  1  0
 31 32  1  0
 32 33  1  0
 33 34  1  0
 34 35  1  0
 35 36  1  0
 36 37  1  0
  9  2  1  0
 30 12  1  0
 37 32  1  0
 31  8  1  0
 27 22  1  0
  1 38  1  0
  1 39  1  0
  1 40  1  0
 10 41  1  0
 13 42  1  0
 14 43  1  0
 17 44  1  0
 17 45  1  0
 18 46  1  0
 18 47  1  0
 19 48  1  0
 19 49  1  0
 20 50  1  0
 20 51  1  0
 23 52  1  0
 24 53  1  0
 25 54  1  0
 26 55  1  0
 29 56  1  0
 30 57  1  0
 32 58  1  0
 33 59  1  0
 33 60  1  0
 34 61  1  0
 34 62  1  0
 35 63  1  0
 35 64  1  0
 36 65  1  0
 36 66  1  0
 37 67  1  0
 37 68  1  0
M  CHG  3   5  -1  10   1  28  -1
M  END
>  <UniqueID>  (39) 
34

>  <SMILES>  (39) 
Cn1c(=O)[n-]c(=O)c2c1[nH+]c(-c1ccc(SCCCCOc3ccccc3[O-])cc1)n2C1CCCCC1

>  <Energy>  (39) 
120.64238649995657

>  <Genealogy>  (39) 
Cn1c(=O)[n-]c(=O)c2c1[nH+]c(-c1ccc(SCCCCOc3ccccc3[O-])cc1)n2C1CCCCC1 (protonated)
Cn1c(=O)[n-]c(=O)c2c1[nH+]c(-c1ccc(SCCCCOc3ccccc3[O-])cc1)n2C1CCCCC1 (3D coordinates assigned)
Cn1c(=O)[n-]c(=O)c2c1[nH+]c(-c1ccc(SCCCCOc3ccccc3[O-])cc1)n2C1CCCCC1 (nonaromatic ring conformer: 120.64238649995657 kcal/mol)

>  <smiles>  (39) 
Cn1c(=O)[nH]c(=O)c2c1nc(-c1ccc(SCCCCOc3ccccc3O)cc1)n2C1CCCCC1

>  <score_type>  (39) 
oracle

>  <origin>  (39) 
adg

>  <m_score__min__energy>  (39) 
-13.74

>  <m_primary>  (39) 
energy

$$$$
39:0
     RDKit          3D

 44 47  0  0  0  0  0  0  0  0999 V2000
   57.3920   30.5100   43.0000 C   0  0  0  0  0  0  0  0  0  0  0  0
   56.7470   30.7780   44.3730 C   0  0  1  0  0  0  0  0  0  0  0  0
   55.9670   29.5470   44.8660 C   0  0  0  0  0  0  0  0  0  0  0  0
   56.8470   28.4740   45.4750 C   0  0  0  0  0  0  0  0  0  0  0  0
   56.2940   27.1930   45.6390 C   0  0  0  0  0  0  0  0  0  0  0  0
   57.0370   26.1650   46.2160 C   0  0  0  0  0  0  0  0  0  0  0  0
   56.4780   24.9020   46.3650 O   0  0  0  0  0  0  0  0  0  0  0  0
   58.3440   26.4020   46.6370 C   0  0  0  0  0  0  0  0  0  0  0  0
   58.9060   27.6720   46.4970 C   0  0  0  0  0  0  0  0  0  0  0  0
   58.1610   28.7420   45.9550 C   0  0  0  0  0  0  0  0  0  0  0  0
   58.8170   30.1050   45.7260 C   0  0  2  0  0  0  0  0  0  0  0  0
   59.8160   30.5300   46.8530 C   0  0  0  0  0  0  0  0  0  0  0  0
   60.3970   31.9610   46.6680 C   0  0  0  0  0  0  0  0  0  0  0  0
   59.2720   32.9890   46.4340 C   0  0  1  0  0  0  0  0  0  0  0  0
   58.4430   33.2050   47.7310 C   0  0  0  0  0  0  0  0  0  0  0  0
   59.6880   34.3420   45.9600 C   0  0  0  0  0  0  0  0  0  0  0  0
   60.6570   34.9510   46.3880 O   0  0  0  0  0  0  0  0  0  0  0  0
   58.7330   34.9060   44.9490 C   0  0  0  0  0  0  0  0  0  0  0  0
   57.7140   33.7720   44.7320 C   0  0  0  0  0  0  0  0  0  0  0  0
   58.4710   32.5310   45.2050 C   0  0  2  0  0  0  0  0  0  0  0  0
   57.7400   31.2060   45.4800 C   0  0  1  0  0  0  0  0  0  0  0  0
   58.3991   30.0915   43.1434 H   0  0  0  0  0  0  0  0  0  0  0  0
   56.7741   29.7941   42.4381 H   0  0  0  0  0  0  0  0  0  0  0  0
   57.4633   31.4529   42.4381 H   0  0  0  0  0  0  0  0  0  0  0  0
   56.0722   31.6286   44.1968 H   0  0  0  0  0  0  0  0  0  0  0  0
   55.2431   29.8757   45.6262 H   0  0  0  0  0  0  0  0  0  0  0  0
   55.4781   29.1021   43.9868 H   0  0  0  0  0  0  0  0  0  0  0  0
   55.2629   26.9993   45.3082 H   0  0  0  0  0  0  0  0  0  0  0  0
   58.9341   25.5865   47.0806 H   0  0  0  0  0  0  0  0  0  0  0  0
   59.9456   27.8419   46.8139 H   0  0  0  0  0  0  0  0  0  0  0  0
   59.4295   29.9947   44.8190 H   0  0  0  0  0  0  0  0  0  0  0  0
   59.2881   30.4917   47.8173 H   0  0  0  0  0  0  0  0  0  0  0  0
   60.6644   29.8311   46.8103 H   0  0  0  0  0  0  0  0  0  0  0  0
   60.9577   32.2411   47.5720 H   0  0  0  0  0  0  0  0  0  0  0  0
   61.0582   31.9594   45.7889 H   0  0  0  0  0  0  0  0  0  0  0  0
   59.0849   33.0378   48.6085 H   0  0  0  0  0  0  0  0  0  0  0  0
   58.0552   34.2342   47.7512 H   0  0  0  0  0  0  0  0  0  0  0  0
   57.6023   32.4959   47.7512 H   0  0  0  0  0  0  0  0  0  0  0  0
   58.2382   35.8080   45.3382 H   0  0  0  0  0  0  0  0  0  0  0  0
   59.2320   35.2128   44.0180 H   0  0  0  0  0  0  0  0  0  0  0  0
   56.8077   33.9350   45.3337 H   0  0  0  0  0  0  0  0  0  0  0  0
   57.3665   33.6961   43.6911 H   0  0  0  0  0  0  0  0  0  0  0  0
   59.0570   32.2071   44.3323 H   0  0  0  0  0  0  0  0  0  0  0  0
   57.1078   31.3520   46.3683 H   0  0  0  0  0  0  0  0  0  0  0  0
  1  2  1  0
  2  3  1  0
  3  4  1  0
  4  5  2  0
  5  6  1  0
  6  7  1  0
  6  8  2  0
  8  9  1  0
  9 10  2  0
 10 11  1  0
 11 12  1  0
 12 13  1  0
 13 14  1  0
 14 15  1  1
 14 16  1  0
 16 17  2  0
 16 18  1  0
 18 19  1  0
 19 20  1  0
 20 21  1  0
 21  2  1  0
 10  4  1  0
 21 11  1  0
 20 14  1  0
  1 22  1  0
  1 23  1  0
  1 24  1  0
  2 25  1  6
  3 26  1  0
  3 27  1  0
  5 28  1  0
  8 29  1  0
  9 30  1  0
 11 31  1  6
 12 32  1  0
 12 33  1  0
 13 34  1  0
 13 35  1  0
 15 36  1  0
 15 37  1  0
 15 38  1  0
 18 39  1  0
 18 40  1  0
 19 41  1  0
 19 42  1  0
 20 43  1  6
 21 44  1  1
M  CHG  1   7  -1
M  END
>  <UniqueID>  (40) 
35

>  <SMILES>  (40) 
C[C@H]1Cc2cc([O-])ccc2[C@@H]2CCC3(C)C(=O)CCC3C12

>  <Energy>  (40) 
64.95541374561168

>  <Genealogy>  (40) 
CC1Cc2cc([O-])ccc2C2CCC3(C)C(=O)CCC3C12 (protonated)
C[C@H]1Cc2cc([O-])ccc2[C@@H]2CCC3(C)C(=O)CCC3C12 (chirality)
C[C@H]1Cc2cc([O-])ccc2[C@@H]2CCC3(C)C(=O)CCC3C12 (3D coordinates assigned)
C[C@H]1Cc2cc([O-])ccc2[C@@H]2CCC3(C)C(=O)CCC3C12 (nonaromatic ring conformer: 64.95541374561168 kcal/mol)

>  <smiles>  (40) 
CC1Cc2cc(O)ccc2C2CCC3(C)C(=O)CCC3C12

>  <score_type>  (40) 
oracle

>  <origin>  (40) 
adg

>  <m_score__min__energy>  (40) 
-9.6799999999999997

>  <m_primary>  (40) 
energy

$$$$
40:0
     RDKit          3D

 38 40  0  0  0  0  0  0  0  0999 V2000
   63.0990   33.8330   47.1150 C   0  0  0  0  0  0  0  0  0  0  0  0
   61.8560   33.4450   47.7810 N   0  0  0  0  0  0  0  0  0  0  0  0
   61.4150   34.1500   48.9830 C   0  0  0  0  0  0  0  0  0  0  0  0
   60.9990   32.4730   47.1630 C   0  0  0  0  0  0  0  0  0  0  0  0
   61.2760   31.1120   47.3320 C   0  0  0  0  0  0  0  0  0  0  0  0
   60.4670   30.1600   46.7160 C   0  0  0  0  0  0  0  0  0  0  0  0
   59.4060   30.5500   45.9650 N   0  0  0  0  0  0  0  0  0  0  0  0
   59.0830   31.8620   45.7880 C   0  0  0  0  0  0  0  0  0  0  0  0
   57.9590   32.2240   45.0120 C   0  0  0  0  0  0  0  0  0  0  0  0
   57.0560   31.2080   44.4170 C   0  0  0  0  0  0  0  0  0  0  0  0
   56.6660   31.3560   43.2280 O   0  0  0  0  0  0  0  0  0  0  0  0
   56.6280   30.0450   45.1420 N   0  0  0  0  0  0  0  0  0  0  0  0
   57.1200   28.7080   44.9720 C   0  0  0  0  0  0  0  0  0  0  0  0
   57.6730   28.3420   43.7380 C   0  0  0  0  0  0  0  0  0  0  0  0
   58.1730   27.0510   43.5420 C   0  0  0  0  0  0  0  0  0  0  0  0
   58.1130   26.1130   44.5750 C   0  0  0  0  0  0  0  0  0  0  0  0
   57.5400   26.4600   45.8030 C   0  0  0  0  0  0  0  0  0  0  0  0
   57.4500   25.2780   47.0960 Cl  0  0  0  0  0  0  0  0  0  0  0  0
   57.0350   27.7500   46.0000 C   0  0  0  0  0  0  0  0  0  0  0  0
   57.6840   33.5840   44.7980 C   0  0  0  0  0  0  0  0  0  0  0  0
   58.4800   34.5700   45.3820 C   0  0  0  0  0  0  0  0  0  0  0  0
   59.5700   34.2180   46.1760 C   0  0  0  0  0  0  0  0  0  0  0  0
   59.8920   32.8650   46.3790 C   0  0  0  0  0  0  0  0  0  0  0  0
   63.8614   34.0710   47.8714 H   0  0  0  0  0  0  0  0  0  0  0  0
   63.4528   33.0026   46.4864 H   0  0  0  0  0  0  0  0  0  0  0  0
   62.9176   34.7173   46.4864 H   0  0  0  0  0  0  0  0  0  0  0  0
   61.7567   33.6038   49.8746 H   0  0  0  0  0  0  0  0  0  0  0  0
   61.8397   35.1647   48.9895 H   0  0  0  0  0  0  0  0  0  0  0  0
   60.3168   34.2121   48.9895 H   0  0  0  0  0  0  0  0  0  0  0  0
   62.1296   30.7949   47.9491 H   0  0  0  0  0  0  0  0  0  0  0  0
   60.6886   29.0895   46.8385 H   0  0  0  0  0  0  0  0  0  0  0  0
   57.7141   29.0745   42.9184 H   0  0  0  0  0  0  0  0  0  0  0  0
   58.6141   26.7739   42.5732 H   0  0  0  0  0  0  0  0  0  0  0  0
   58.5165   25.1010   44.4229 H   0  0  0  0  0  0  0  0  0  0  0  0
   56.5703   28.0163   46.9608 H   0  0  0  0  0  0  0  0  0  0  0  0
   56.8333   33.8749   44.1642 H   0  0  0  0  0  0  0  0  0  0  0  0
   58.2458   35.6317   45.2147 H   0  0  0  0  0  0  0  0  0  0  0  0
   60.1811   35.0027   46.6460 H   0  0  0  0  0  0  0  0  0  0  0  0
  1  2  1  0
  2  3  1  0
  2  4  1  0
  4  5  2  0
  5  6  1  0
  6  7  2  0
  7  8  1  0
  8  9  2  0
  9 10  1  0
 10 11  2  0
 10 12  1  0
 12 13  1  0
 13 14  2  0
 14 15  1  0
 15 16  2  0
 16 17  1  0
 17 18  1  0
 17 19  2  0
  9 20  1  0
 20 21  2  0
 21 22  1  0
 22 23  2  0
 23  4  1  0
 23  8  1  0
 19 13  1  0
  1 24  1  0
  1 25  1  0
  1 26  1  0
  3 27  1  0
  3 28  1  0
  3 29  1  0
  5 30  1  0
  6 31  1  0
 14 32  1  0
 15 33  1  0
 16 34  1  0
 19 35  1  0
 20 36  1  0
 21 37  1  0
 22 38  1  0
M  CHG  1  12  -1
M  END
>  <UniqueID>  (41) 
36

>  <SMILES>  (41) 
CN(C)c1ccnc2c(C(=O)[N-]c3cccc(Cl)c3)cccc12

>  <Energy>  (41) 
56.17775214818308

>  <Genealogy>  (41) 
CN(C)c1ccnc2c(C(=O)[N-]c3cccc(Cl)c3)cccc12 (protonated)
CN(C)c1ccnc2c(C(=O)[N-]c3cccc(Cl)c3)cccc12 (3D coordinates assigned)
CN(C)c1ccnc2c(C(=O)[N-]c3cccc(Cl)c3)cccc12 (optimized conformer: 56.17775214818308 kcal/mol)

>  <smiles>  (41) 
CN(C)c1ccnc2c(C(=O)Nc3cccc(Cl)c3)cccc12

>  <score_type>  (41) 
oracle

>  <origin>  (41) 
adg

>  <m_score__min__energy>  (41) 
-9.1699999999999999

>  <m_primary>  (41) 
energy

$$$$
41:0
     RDKit          3D

 32 34  0  0  0  0  0  0  0  0999 V2000
   64.7898   33.3531   46.8008 H   0  0  0  0  0  0  0  0  0  0  0  0
   63.7680   33.0790   47.1020 C   0  0  0  0  0  0  0  0  0  0  0  0
   63.5540   31.9610   47.9040 C   0  0  0  0  0  0  0  0  0  0  0  0
   64.4038   31.3521   48.2462 H   0  0  0  0  0  0  0  0  0  0  0  0
   62.2520   31.6210   48.2690 C   0  0  0  0  0  0  0  0  0  0  0  0
   62.0717   30.7346   48.8949 H   0  0  0  0  0  0  0  0  0  0  0  0
   61.2030   32.3830   47.8530 N   0  0  0  0  0  0  0  0  0  0  0  0
   60.2390   32.1010   48.1440 H   0  0  0  0  0  0  0  0  0  0  0  0
   61.3790   33.4970   47.0840 C   0  0  0  0  0  0  0  0  0  0  0  0
   60.3260   34.1790   46.7190 N   0  0  0  0  0  0  0  0  0  0  0  0
   59.3940   33.8520   45.6780 C   0  0  0  0  0  0  0  0  0  0  0  0
   59.1890   34.6930   44.7630 O   0  0  0  0  0  0  0  0  0  0  0  0
   58.7610   32.5180   45.6110 C   0  0  0  0  0  0  0  0  0  0  0  0
   59.3080   31.5060   46.2820 O   0  0  0  0  0  0  0  0  0  0  0  0
   58.8010   30.2770   46.2810 C   0  0  0  0  0  0  0  0  0  0  0  0
   59.4290   29.2710   47.0170 C   0  0  0  0  0  0  0  0  0  0  0  0
   60.3384   29.4994   47.5922 H   0  0  0  0  0  0  0  0  0  0  0  0
   58.9070   27.9750   47.0260 C   0  0  0  0  0  0  0  0  0  0  0  0
   59.4100   27.1890   47.6084 H   0  0  0  0  0  0  0  0  0  0  0  0
   57.7440   27.6660   46.2970 C   0  0  0  0  0  0  0  0  0  0  0  0
   57.2060   26.3310   46.3070 N   0  0  0  0  0  0  0  0  0  0  0  0
   57.9620   25.3390   46.2330 O   0  0  0  0  0  0  0  0  0  0  0  0
   55.8490   26.1220   46.3970 O   0  0  0  0  0  0  0  0  0  0  0  0
   57.1120   28.6810   45.5550 C   0  0  0  0  0  0  0  0  0  0  0  0
   56.2031   28.4509   44.9797 H   0  0  0  0  0  0  0  0  0  0  0  0
   57.6330   29.9870   45.5430 C   0  0  0  0  0  0  0  0  0  0  0  0
   57.0320   31.0290   44.8180 C   0  0  0  0  0  0  0  0  0  0  0  0
   55.9880   30.8320   44.1400 O   0  0  0  0  0  0  0  0  0  0  0  0
   57.6000   32.3040   44.8510 C   0  0  0  0  0  0  0  0  0  0  0  0
   57.1432   33.1313   44.2881 H   0  0  0  0  0  0  0  0  0  0  0  0
   62.6850   33.8510   46.6810 C   0  0  0  0  0  0  0  0  0  0  0  0
   62.8475   34.7296   46.0394 H   0  0  0  0  0  0  0  0  0  0  0  0
  1  2  1  0
  2  3  1  0
  3  4  1  0
  3  5  2  0
  5  6  1  0
  5  7  1  0
  7  8  1  0
  7  9  1  0
  9 10  2  0
 10 11  1  0
 11 12  2  0
 11 13  1  0
 13 14  1  0
 14 15  1  0
 15 16  2  0
 16 17  1  0
 16 18  1  0
 18 19  1  0
 18 20  2  0
 20 21  1  0
 21 22  2  0
 21 23  1  0
 20 24  1  0
 24 25  1  0
 24 26  2  0
 26 27  1  0
 27 28  2  0
 27 29  1  0
 29 30  1  0
  9 31  1  0
 31 32  1  0
 31  2  2  0
 29 13  2  0
 26 15  1  0
M  CHG  2  21   1  23  -1
M  END
>  <UniqueID>  (42) 
37

>  <SMILES>  (42) 
O=C(/N=c1\cccc[nH]1)c1cc(=O)c2cc([N+](=O)[O-])ccc2o1

>  <Energy>  (42) 
50.578925999082

>  <Genealogy>  (42) 
O=C(/N=c1\cccc[nH]1)c1cc(=O)c2cc([N+](=O)[O-])ccc2o1 (cis-trans isomerization)
O=C(/N=c1\cccc[nH]1)c1cc(=O)c2cc([N+](=O)[O-])ccc2o1 (3D coordinates assigned)
O=C(/N=c1\cccc[nH]1)c1cc(=O)c2cc([N+](=O)[O-])ccc2o1 (optimized conformer: 50.578925999082 kcal/mol)

>  <smiles>  (42) 
O=C(N=c1cccc[nH]1)c1cc(=O)c2cc([N+](=O)[O-])ccc2o1

>  <score_type>  (42) 
oracle

>  <origin>  (42) 
adg

>  <m_score__min__energy>  (42) 
-7.4000000000000004

>  <m_primary>  (42) 
energy

$$$$
42:0
     RDKit          3D

 39 41  0  0  0  0  0  0  0  0999 V2000
   60.4730   30.6060   45.9890 O   0  0  0  0  0  0  0  0  0  0  0  0
   59.4790   31.2820   46.3710 C   0  0  0  0  0  0  0  0  0  0  0  0
   58.1120   30.6640   46.2950 C   0  0  0  0  0  0  0  0  0  0  0  0
   57.6190   30.6920   44.8720 C   0  0  0  0  0  0  0  0  0  0  0  0
   58.0800   31.6850   43.9910 C   0  0  0  0  0  0  0  0  0  0  0  0
   57.5990   31.7440   42.6800 C   0  0  0  0  0  0  0  0  0  0  0  0
   56.6500   30.8190   42.2400 C   0  0  0  0  0  0  0  0  0  0  0  0
   56.1740   29.8370   43.1130 C   0  0  0  0  0  0  0  0  0  0  0  0
   56.6500   29.7720   44.4260 C   0  0  0  0  0  0  0  0  0  0  0  0
   56.1640   28.8180   45.2600 F   0  0  0  0  0  0  0  0  0  0  0  0
   59.6650   32.6420   46.8040 N   0  0  0  0  0  0  0  0  0  0  0  0
   59.7140   33.7690   45.8870 C   0  0  0  0  0  0  0  0  0  0  0  0
   59.4160   34.9990   46.7330 C   0  0  0  0  0  0  0  0  0  0  0  0
   59.6950   34.5840   48.1730 C   0  0  0  0  0  0  0  0  0  0  0  0
   59.5720   33.0560   48.1980 C   0  0  2  0  0  0  0  0  0  0  0  0
   60.6780   32.3960   49.0410 C   0  0  0  0  0  0  0  0  0  0  0  0
   61.9890   32.6140   48.4330 N   0  0  0  0  0  0  0  0  0  0  0  0
   62.8990   33.5410   48.7790 C   0  0  0  0  0  0  0  0  0  0  0  0
   63.9750   33.5000   47.9630 N   0  0  0  0  0  0  0  0  0  0  0  0
   63.6600   32.5040   47.1050 C   0  0  0  0  0  0  0  0  0  0  0  0
   62.4590   31.9680   47.3830 N   0  0  0  0  0  0  0  0  0  0  0  0
   58.1622   29.6220   46.6439 H   0  0  0  0  0  0  0  0  0  0  0  0
   57.4192   31.2343   46.9312 H   0  0  0  0  0  0  0  0  0  0  0  0
   58.8231   32.4195   44.3349 H   0  0  0  0  0  0  0  0  0  0  0  0
   57.9686   32.5203   41.9938 H   0  0  0  0  0  0  0  0  0  0  0  0
   56.2770   30.8633   41.2061 H   0  0  0  0  0  0  0  0  0  0  0  0
   55.4223   29.1128   42.7660 H   0  0  0  0  0  0  0  0  0  0  0  0
   60.7116   33.8495   45.4306 H   0  0  0  0  0  0  0  0  0  0  0  0
   58.9921   33.6561   45.0647 H   0  0  0  0  0  0  0  0  0  0  0  0
   60.0699   35.8338   46.4405 H   0  0  0  0  0  0  0  0  0  0  0  0
   58.3789   35.3414   46.6019 H   0  0  0  0  0  0  0  0  0  0  0  0
   60.7082   34.8918   48.4710 H   0  0  0  0  0  0  0  0  0  0  0  0
   58.9931   35.0584   48.8746 H   0  0  0  0  0  0  0  0  0  0  0  0
   58.6258   32.7447   48.6646 H   0  0  0  0  0  0  0  0  0  0  0  0
   60.6711   32.8318   50.0509 H   0  0  0  0  0  0  0  0  0  0  0  0
   60.4866   31.3140   49.0916 H   0  0  0  0  0  0  0  0  0  0  0  0
   62.7826   34.2425   49.6183 H   0  0  0  0  0  0  0  0  0  0  0  0
   64.3076   32.1725   46.2799 H   0  0  0  0  0  0  0  0  0  0  0  0
   61.9750   31.1990   46.8690 H   0  0  0  0  0  0  0  0  0  0  0  0
  1  2  2  0
  2  3  1  0
  3  4  1  0
  4  5  2  0
  5  6  1  0
  6  7  2  0
  7  8  1  0
  8  9  2  0
  9 10  1  0
  2 11  1  0
 11 12  1  0
 12 13  1  0
 13 14  1  0
 14 15  1  0
 15 16  1  0
 16 17  1  0
 17 18  1  0
 18 19  2  0
 19 20  1  0
 20 21  2  0
  9  4  1  0
 15 11  1  0
 21 17  1  0
  3 22  1  0
  3 23  1  0
  5 24  1  0
  6 25  1  0
  7 26  1  0
  8 27  1  0
 12 28  1  0
 12 29  1  0
 13 30  1  0
 13 31  1  0
 14 32  1  0
 14 33  1  0
 15 34  1  1
 16 35  1  0
 16 36  1  0
 18 37  1  0
 20 38  1  0
 21 39  1  0
M  CHG  1  21   1
M  END
>  <UniqueID>  (43) 
38

>  <SMILES>  (43) 
O=C(Cc1ccccc1F)N1CCC[C@@H]1Cn1cnc[nH+]1

>  <Energy>  (43) 
70.74755864409057

>  <Genealogy>  (43) 
O=C(Cc1ccccc1F)N1CCCC1Cn1cnc[nH+]1 (protonated)
O=C(Cc1ccccc1F)N1CCC[C@@H]1Cn1cnc[nH+]1 (chirality)
O=C(Cc1ccccc1F)N1CCC[C@@H]1Cn1cnc[nH+]1 (3D coordinates assigned)
O=C(Cc1ccccc1F)N1CCC[C@@H]1Cn1cnc[nH+]1 (nonaromatic ring conformer: 70.74755864409057 kcal/mol)

>  <smiles>  (43) 
O=C(Cc1ccccc1F)N1CCCC1Cn1cncn1

>  <score_type>  (43) 
oracle

>  <origin>  (43) 
adg

>  <m_score__min__energy>  (43) 
-5.1699999999999999

>  <m_primary>  (43) 
energy

$$$$
43:0
     RDKit          3D

 42 44  0  0  0  0  0  0  0  0999 V2000
   55.6965   25.7216   46.3357 H   0  0  0  0  0  0  0  0  0  0  0  0
   56.3940   26.5270   46.0620 C   0  0  0  0  0  0  0  0  0  0  0  0
   55.9150   27.7130   45.6010 N   0  0  0  0  0  0  0  0  0  0  0  0
   56.7310   28.7450   45.2540 C   0  0  0  0  0  0  0  0  0  0  0  0
   56.1800   29.8420   44.8110 N   0  0  0  0  0  0  0  0  0  0  0  0
   56.7420   30.8550   43.9610 C   0  0  0  0  0  0  0  0  0  0  0  0
   56.5890   30.8120   42.7100 O   0  0  0  0  0  0  0  0  0  0  0  0
   57.5980   31.9310   44.5720 C   0  0  0  0  0  0  0  0  0  0  0  0
   58.4267   31.4384   45.1017 H   0  0  0  0  0  0  0  0  0  0  0  0
   58.2010   32.8330   43.4940 C   0  0  0  0  0  0  0  0  0  0  0  0
   58.7400   32.2151   42.7607 H   0  0  0  0  0  0  0  0  0  0  0  0
   57.3942   33.3866   42.9914 H   0  0  0  0  0  0  0  0  0  0  0  0
   59.1770   33.8310   44.1350 C   0  0  0  0  0  0  0  0  0  0  0  0
   60.1066   33.2968   44.3809 H   0  0  0  0  0  0  0  0  0  0  0  0
   59.3338   34.6380   43.4041 H   0  0  0  0  0  0  0  0  0  0  0  0
   58.6620   34.4660   45.3730 N   0  0  0  0  0  0  0  0  0  0  0  0
   59.7120   34.2400   46.7570 S   0  0  0  0  0  0  0  0  0  0  0  0
   59.2900   35.1750   47.8570 O   0  0  0  0  0  0  0  0  0  0  0  0
   61.1190   34.5970   46.3680 O   0  0  0  0  0  0  0  0  0  0  0  0
   59.6950   32.5850   47.3670 C   0  0  0  0  0  0  0  0  0  0  0  0
   60.4460   31.5870   46.7280 C   0  0  0  0  0  0  0  0  0  0  0  0
   61.0415   31.8350   45.8370 H   0  0  0  0  0  0  0  0  0  0  0  0
   60.4400   30.2780   47.2200 C   0  0  0  0  0  0  0  0  0  0  0  0
   61.0381   29.5012   46.7212 H   0  0  0  0  0  0  0  0  0  0  0  0
   59.6750   29.9550   48.3450 C   0  0  0  0  0  0  0  0  0  0  0  0
   59.6769   28.9266   48.7353 H   0  0  0  0  0  0  0  0  0  0  0  0
   58.9080   30.9400   48.9730 C   0  0  0  0  0  0  0  0  0  0  0  0
   58.3010   30.6847   49.8541 H   0  0  0  0  0  0  0  0  0  0  0  0
   58.9110   32.2500   48.4830 C   0  0  0  0  0  0  0  0  0  0  0  0
   58.2974   33.0202   48.9732 H   0  0  0  0  0  0  0  0  0  0  0  0
   57.2350   34.2360   45.6770 C   0  0  0  0  0  0  0  0  0  0  0  0
   57.0347   34.6059   46.6934 H   0  0  0  0  0  0  0  0  0  0  0  0
   56.6575   34.7701   44.9081 H   0  0  0  0  0  0  0  0  0  0  0  0
   56.8050   32.7560   45.6070 C   0  0  0  0  0  0  0  0  0  0  0  0
   56.9523   32.3037   46.5988 H   0  0  0  0  0  0  0  0  0  0  0  0
   55.7510   32.7407   45.2927 H   0  0  0  0  0  0  0  0  0  0  0  0
   58.1300   28.5710   45.3530 C   0  0  0  0  0  0  0  0  0  0  0  0
   58.8124   29.3825   45.0603 H   0  0  0  0  0  0  0  0  0  0  0  0
   58.6380   27.3590   45.8260 C   0  0  0  0  0  0  0  0  0  0  0  0
   59.7251   27.2152   45.9130 H   0  0  0  0  0  0  0  0  0  0  0  0
   57.7680   26.3310   46.1880 C   0  0  0  0  0  0  0  0  0  0  0  0
   58.1615   25.3769   46.5684 H   0  0  0  0  0  0  0  0  0  0  0  0
  1  2  1  0
  2  3  1  0
  3  4  1  0
  4  5  2  0
  5  6  1  0
  6  7  2  0
  6  8  1  0
  8  9  1  0
  8 10  1  0
 10 11  1  0
 10 12  1  0
 10 13  1  0
 13 14  1  0
 13 15  1  0
 13 16  1  0
 16 17  1  0
 17 18  2  0
 17 19  2  0
 17 20  1  0
 20 21  2  0
 21 22  1  0
 21 23  1  0
 23 24  1  0
 23 25  2  0
 25 26  1  0
 25 27  1  0
 27 28  1  0
 27 29  2  0
 29 30  1  0
 16 31  1  0
 31 32  1  0
 31 33  1  0
 31 34  1  0
 34 35  1  0
 34 36  1  0
  4 37  1  0
 37 38  1  0
 37 39  2  0
 39 40  1  0
 39 41  1  0
 41 42  1  0
 41  2  2  0
 34  8  1  0
 29 20  1  0
M  CHG  1   3  -1
M  END
>  <UniqueID>  (44) 
39

>  <SMILES>  (44) 
O=C(/N=c1\cccc[n-]1)C1CCN(S(=O)(=O)c2ccccc2)CC1

>  <Energy>  (44) 
59.51711769562695

>  <Genealogy>  (44) 
O=C(N=c1cccc[n-]1)C1CCN(S(=O)(=O)c2ccccc2)CC1 (protonated)
O=C(/N=c1\cccc[n-]1)C1CCN(S(=O)(=O)c2ccccc2)CC1 (cis-trans isomerization)
O=C(/N=c1\cccc[n-]1)C1CCN(S(=O)(=O)c2ccccc2)CC1 (3D coordinates assigned)
O=C(/N=c1\cccc[n-]1)C1CCN(S(=O)(=O)c2ccccc2)CC1 (nonaromatic ring conformer: 59.51711769562695 kcal/mol)

>  <smiles>  (44) 
O=C(N=c1cccc[nH]1)C1CCN(S(=O)(=O)c2ccccc2)CC1

>  <score_type>  (44) 
oracle

>  <origin>  (44) 
adg

>  <m_score__min__energy>  (44) 
-10.65

>  <m_primary>  (44) 
energy

$$$$
44:0
     RDKit          3D

 32 33  0  0  0  0  0  0  0  0999 V2000
   57.3487   32.9878   47.1660 H   0  0  0  0  0  0  0  0  0  0  0  0
   57.8750   33.1880   46.2210 C   0  0  0  0  0  0  0  0  0  0  0  0
   58.8220   34.1400   46.2350 C   0  0  0  0  0  0  0  0  0  0  0  0
   58.6412   35.0411   45.6306 H   0  0  0  0  0  0  0  0  0  0  0  0
   60.0890   34.0760   46.9970 C   0  0  0  0  0  0  0  0  0  0  0  0
   60.0580   34.2350   48.3900 C   0  0  0  0  0  0  0  0  0  0  0  0
   59.0997   34.4200   48.8974 H   0  0  0  0  0  0  0  0  0  0  0  0
   61.2360   34.1600   49.1380 C   0  0  0  0  0  0  0  0  0  0  0  0
   61.2027   34.3038   50.2280 H   0  0  0  0  0  0  0  0  0  0  0  0
   62.4660   33.9010   48.5020 C   0  0  0  0  0  0  0  0  0  0  0  0
   63.6760   33.8190   49.2070 O   0  0  0  0  0  0  0  0  0  0  0  0
   64.4540   32.6340   49.3300 C   0  0  0  0  0  0  0  0  0  0  0  0
   64.6053   32.4036   50.3949 H   0  0  0  0  0  0  0  0  0  0  0  0
   63.9283   31.7982   48.8451 H   0  0  0  0  0  0  0  0  0  0  0  0
   65.4299   32.7841   48.8451 H   0  0  0  0  0  0  0  0  0  0  0  0
   62.4900   33.7110   47.1160 C   0  0  0  0  0  0  0  0  0  0  0  0
   63.4442   33.5009   46.6107 H   0  0  0  0  0  0  0  0  0  0  0  0
   61.3110   33.7860   46.3680 C   0  0  0  0  0  0  0  0  0  0  0  0
   61.3406   33.6170   45.2815 H   0  0  0  0  0  0  0  0  0  0  0  0
   57.4800   32.3870   45.0450 C   0  0  0  0  0  0  0  0  0  0  0  0
   56.7280   31.3060   45.2380 O   0  0  0  0  0  0  0  0  0  0  0  0
   56.3220   30.5220   44.2430 C   0  0  0  0  0  0  0  0  0  0  0  0
   55.6240   29.5060   44.4960 O   0  0  0  0  0  0  0  0  0  0  0  0
   56.6700   30.8210   42.9230 C   0  0  0  0  0  0  0  0  0  0  0  0
   56.3529   30.1642   42.0995 H   0  0  0  0  0  0  0  0  0  0  0  0
   57.4270   31.9670   42.6650 C   0  0  0  0  0  0  0  0  0  0  0  0
   57.8470   32.3060   41.2660 C   0  0  0  0  0  0  0  0  0  0  0  0
   58.7026   32.9966   41.2972 H   0  0  0  0  0  0  0  0  0  0  0  0
   58.1373   31.3861   40.7373 H   0  0  0  0  0  0  0  0  0  0  0  0
   57.0091   32.7839   40.7373 H   0  0  0  0  0  0  0  0  0  0  0  0
   57.8410   32.7610   43.7400 C   0  0  0  0  0  0  0  0  0  0  0  0
   58.4412   33.6661   43.5656 H   0  0  0  0  0  0  0  0  0  0  0  0
  1  2  1  0
  2  3  2  0
  3  4  1  0
  3  5  1  0
  5  6  2  0
  6  7  1  0
  6  8  1  0
  8  9  1  0
  8 10  2  0
 10 11  1  0
 11 12  1  0
 12 13  1  0
 12 14  1  0
 12 15  1  0
 10 16  1  0
 16 17  1  0
 16 18  2  0
 18 19  1  0
  2 20  1  0
 20 21  1  0
 21 22  1  0
 22 23  2  0
 22 24  1  0
 24 25  1  0
 24 26  2  0
 26 27  1  0
 27 28  1  0
 27 29  1  0
 27 30  1  0
 26 31  1  0
 31 32  1  0
 18  5  1  0
 31 20  2  0
M  END
>  <UniqueID>  (45) 
40

>  <SMILES>  (45) 
COc1ccc(/C=C\c2cc(C)cc(=O)o2)cc1

>  <Energy>  (45) 
41.62359586800721

>  <Genealogy>  (45) 
COc1ccc(/C=C\c2cc(C)cc(=O)o2)cc1 (cis-trans isomerization)
COc1ccc(/C=C\c2cc(C)cc(=O)o2)cc1 (3D coordinates assigned)
COc1ccc(/C=C\c2cc(C)cc(=O)o2)cc1 (optimized conformer: 41.62359586800721 kcal/mol)

>  <smiles>  (45) 
COc1ccc(C=Cc2cc(C)cc(=O)o2)cc1

>  <score_type>  (45) 
oracle

>  <origin>  (45) 
adg

>  <m_score__min__energy>  (45) 
-7.4400000000000004

>  <m_primary>  (45) 
energy

$$$$
45:0
     RDKit          3D

 60 64  0  0  0  0  0  0  0  0999 V2000
   57.7000   32.7410   44.3090 C   0  0  0  0  0  0  0  0  0  0  0  0
   58.5540   33.4770   45.3120 C   0  0  0  0  0  0  0  0  0  0  0  0
   58.8790   34.8170   45.0560 C   0  0  0  0  0  0  0  0  0  0  0  0
   59.6440   35.5480   45.9720 C   0  0  0  0  0  0  0  0  0  0  0  0
   60.0810   34.9510   47.1540 C   0  0  0  0  0  0  0  0  0  0  0  0
   59.7840   33.6140   47.4190 C   0  0  0  0  0  0  0  0  0  0  0  0
   59.0270   32.8640   46.5040 C   0  0  0  0  0  0  0  0  0  0  0  0
   58.6720   31.5210   46.8420 N   0  0  0  0  0  0  0  0  0  0  0  0
   58.8270   30.4550   46.0320 C   0  0  0  0  0  0  0  0  0  0  0  0
   58.7680   29.3180   46.8140 C   0  0  0  0  0  0  0  0  0  0  0  0
   59.1330   27.9650   46.3920 C   0  0  0  0  0  0  0  0  0  0  0  0
   60.3840   27.4000   46.5980 C   0  0  0  0  0  0  0  0  0  0  0  0
   60.4150   26.0280   46.3780 C   0  0  0  0  0  0  0  0  0  0  0  0
   59.1780   25.4950   46.0080 C   0  0  0  0  0  0  0  0  0  0  0  0
   58.0560   26.7500   45.9340 S   0  0  0  0  0  0  0  0  0  0  0  0
   58.6190   29.6600   48.1080 N   0  0  0  0  0  0  0  0  0  0  0  0
   58.5440   31.0050   48.0880 C   0  0  0  0  0  0  0  0  0  0  0  0
   58.5130   32.0020   49.5960 S   0  0  0  0  0  0  0  0  0  0  0  0
   58.1510   30.6220   50.7670 C   0  0  0  0  0  0  0  0  0  0  0  0
   59.0400   30.6580   51.9790 C   0  0  0  0  0  0  0  0  0  0  0  0
   58.7710   31.4570   52.8670 O   0  0  0  0  0  0  0  0  0  0  0  0
   60.0990   29.6600   52.1570 N   0  0  0  0  0  0  0  0  0  0  0  0
   60.4420   28.9290   50.9220 C   0  0  0  0  0  0  0  0  0  0  0  0
   61.1030   29.8090   49.8370 C   0  0  0  0  0  0  0  0  0  0  0  0
   61.8330   30.9920   50.3440 N   0  0  0  0  0  0  0  0  0  0  0  0
   62.3890   31.9370   49.3780 C   0  0  0  0  0  0  0  0  0  0  0  0
   62.6850   31.5450   48.0510 C   0  0  0  0  0  0  0  0  0  0  0  0
   63.1690   32.4720   47.1210 C   0  0  0  0  0  0  0  0  0  0  0  0
   63.3810   33.7950   47.4930 C   0  0  0  0  0  0  0  0  0  0  0  0
   63.1130   34.2070   48.8000 C   0  0  0  0  0  0  0  0  0  0  0  0
   62.6170   33.2950   49.7310 C   0  0  0  0  0  0  0  0  0  0  0  0
   61.9180   31.3230   51.7830 C   0  0  0  0  0  0  0  0  0  0  0  0
   61.3240   30.2610   52.7160 C   0  0  0  0  0  0  0  0  0  0  0  0
   56.9703   32.1121   44.8401 H   0  0  0  0  0  0  0  0  0  0  0  0
   57.1672   33.4675   43.6779 H   0  0  0  0  0  0  0  0  0  0  0  0
   58.3399   32.1068   43.6779 H   0  0  0  0  0  0  0  0  0  0  0  0
   58.5304   35.2965   44.1294 H   0  0  0  0  0  0  0  0  0  0  0  0
   59.9012   36.5961   45.7590 H   0  0  0  0  0  0  0  0  0  0  0  0
   60.6626   35.5371   47.8808 H   0  0  0  0  0  0  0  0  0  0  0  0
   60.1437   33.1458   48.3471 H   0  0  0  0  0  0  0  0  0  0  0  0
   58.9742   30.4851   44.9423 H   0  0  0  0  0  0  0  0  0  0  0  0
   61.2655   27.9817   46.9056 H   0  0  0  0  0  0  0  0  0  0  0  0
   61.3258   25.4205   46.4849 H   0  0  0  0  0  0  0  0  0  0  0  0
   58.9712   24.4348   45.8000 H   0  0  0  0  0  0  0  0  0  0  0  0
   57.1035   30.7000   51.0935 H   0  0  0  0  0  0  0  0  0  0  0  0
   58.3364   29.6744   50.2401 H   0  0  0  0  0  0  0  0  0  0  0  0
   59.7480   28.9530   52.8550 H   0  0  0  0  0  0  0  0  0  0  0  0
   61.1381   28.1178   51.1816 H   0  0  0  0  0  0  0  0  0  0  0  0
   59.4977   28.5557   50.4990 H   0  0  0  0  0  0  0  0  0  0  0  0
   61.8149   29.1834   49.2785 H   0  0  0  0  0  0  0  0  0  0  0  0
   60.2816   30.1992   49.2182 H   0  0  0  0  0  0  0  0  0  0  0  0
   62.5328   30.4989   47.7467 H   0  0  0  0  0  0  0  0  0  0  0  0
   63.3828   32.1524   46.0904 H   0  0  0  0  0  0  0  0  0  0  0  0
   63.7605   34.5183   46.7563 H   0  0  0  0  0  0  0  0  0  0  0  0
   63.2932   35.2512   49.0953 H   0  0  0  0  0  0  0  0  0  0  0  0
   62.3986   33.6319   50.7551 H   0  0  0  0  0  0  0  0  0  0  0  0
   62.9787   31.4544   52.0432 H   0  0  0  0  0  0  0  0  0  0  0  0
   61.3228   32.2363   51.9296 H   0  0  0  0  0  0  0  0  0  0  0  0
   62.0699   29.4677   52.8721 H   0  0  0  0  0  0  0  0  0  0  0  0
   61.0606   30.7505   53.6652 H   0  0  0  0  0  0  0  0  0  0  0  0
  1  2  1  0
  2  3  2  0
  3  4  1  0
  4  5  2  0
  5  6  1  0
  6  7  2  0
  7  8  1  0
  8  9  1  0
  9 10  2  0
 10 11  1  0
 11 12  2  0
 12 13  1  0
 13 14  2  0
 14 15  1  0
 10 16  1  0
 16 17  2  0
 17 18  1  0
 18 19  1  0
 19 20  1  0
 20 21  2  0
 20 22  1  0
 22 23  1  0
 23 24  1  0
 24 25  1  0
 25 26  1  0
 26 27  2  0
 27 28  1  0
 28 29  2  0
 29 30  1  0
 30 31  2  0
 25 32  1  0
 32 33  1  0
  7  2  1  0
 17  8  1  0
 33 22  1  0
 15 11  1  0
 31 26  1  0
  1 34  1  0
  1 35  1  0
  1 36  1  0
  3 37  1  0
  4 38  1  0
  5 39  1  0
  6 40  1  0
  9 41  1  0
 12 42  1  0
 13 43  1  0
 14 44  1  0
 19 45  1  0
 19 46  1  0
 22 47  1  0
 23 48  1  0
 23 49  1  0
 24 50  1  0
 24 51  1  0
 27 52  1  0
 28 53  1  0
 29 54  1  0
 30 55  1  0
 31 56  1  0
 32 57  1  0
 32 58  1  0
 33 59  1  0
 33 60  1  0
M  CHG  1  22   1
M  END
>  <UniqueID>  (46) 
41

>  <SMILES>  (46) 
Cc1ccccc1-n1cc(-c2cccs2)nc1SCC(=O)[NH+]1CCN(c2ccccc2)CC1

>  <Energy>  (46) 
148.60173945076127

>  <Genealogy>  (46) 
Cc1ccccc1-n1cc(-c2cccs2)nc1SCC(=O)[NH+]1CCN(c2ccccc2)CC1 (protonated)
Cc1ccccc1-n1cc(-c2cccs2)nc1SCC(=O)[NH+]1CCN(c2ccccc2)CC1 (3D coordinates assigned)
Cc1ccccc1-n1cc(-c2cccs2)nc1SCC(=O)[NH+]1CCN(c2ccccc2)CC1 (nonaromatic ring conformer: 148.60173945076127 kcal/mol)

>  <smiles>  (46) 
Cc1ccccc1-n1cc(-c2cccs2)nc1SCC(=O)N1CCN(c2ccccc2)CC1

>  <score_type>  (46) 
oracle

>  <origin>  (46) 
adg

>  <m_score__min__energy>  (46) 
-7.71

>  <m_primary>  (46) 
energy

$$$$
46:0
     RDKit          3D

 33 34  0  0  0  0  0  0  0  0999 V2000
   59.4020   30.6980   48.4370 C   0  0  0  0  0  0  0  0  0  0  0  0
   58.5170   31.7480   48.0590 O   0  0  0  0  0  0  0  0  0  0  0  0
   58.2910   32.1540   46.7350 C   0  0  0  0  0  0  0  0  0  0  0  0
   58.3120   33.5230   46.4450 C   0  0  0  0  0  0  0  0  0  0  0  0
   58.1190   33.9730   45.1380 C   0  0  0  0  0  0  0  0  0  0  0  0
   57.8960   33.0580   44.1060 C   0  0  0  0  0  0  0  0  0  0  0  0
   57.8470   31.6830   44.3770 C   0  0  0  0  0  0  0  0  0  0  0  0
   57.6560   30.7570   43.2950 N   0  0  0  0  0  0  0  0  0  0  0  0
   56.8320   29.5870   43.3920 C   0  0  0  0  0  0  0  0  0  0  0  0
   55.2740   29.7210   43.8970 S   0  0  0  0  0  0  0  0  0  0  0  0
   57.4130   28.2900   43.1780 N   0  0  0  0  0  0  0  0  0  0  0  0
   58.1720   27.9220   44.3460 C   0  0  0  0  0  0  0  0  0  0  0  0
   59.4770   28.4130   44.5300 C   0  0  0  0  0  0  0  0  0  0  0  0
   60.2440   27.9880   45.6190 C   0  0  0  0  0  0  0  0  0  0  0  0
   59.7210   27.0650   46.5280 C   0  0  0  0  0  0  0  0  0  0  0  0
   58.4270   26.5650   46.3500 C   0  0  0  0  0  0  0  0  0  0  0  0
   57.7810   25.3870   47.4780 Cl  0  0  0  0  0  0  0  0  0  0  0  0
   57.6550   26.9910   45.2650 C   0  0  0  0  0  0  0  0  0  0  0  0
   58.0530   31.2350   45.6960 C   0  0  0  0  0  0  0  0  0  0  0  0
   59.4524   30.6381   49.5342 H   0  0  0  0  0  0  0  0  0  0  0  0
   59.0318   29.7436   48.0344 H   0  0  0  0  0  0  0  0  0  0  0  0
   60.4053   30.9013   48.0344 H   0  0  0  0  0  0  0  0  0  0  0  0
   58.4819   34.2497   47.2531 H   0  0  0  0  0  0  0  0  0  0  0  0
   58.1425   35.0509   44.9199 H   0  0  0  0  0  0  0  0  0  0  0  0
   57.7582   33.4180   43.0757 H   0  0  0  0  0  0  0  0  0  0  0  0
   58.2230   30.8800   42.4260 H   0  0  0  0  0  0  0  0  0  0  0  0
   58.0380   28.3240   42.3380 H   0  0  0  0  0  0  0  0  0  0  0  0
   56.6650   27.5830   42.9860 H   0  0  0  0  0  0  0  0  0  0  0  0
   59.8963   29.1349   43.8137 H   0  0  0  0  0  0  0  0  0  0  0  0
   61.2615   28.3813   45.7604 H   0  0  0  0  0  0  0  0  0  0  0  0
   60.3268   26.7316   47.3835 H   0  0  0  0  0  0  0  0  0  0  0  0
   56.6374   26.5958   45.1292 H   0  0  0  0  0  0  0  0  0  0  0  0
   58.0277   30.1576   45.9162 H   0  0  0  0  0  0  0  0  0  0  0  0
  1  2  1  0
  2  3  1  0
  3  4  2  0
  4  5  1  0
  5  6  2  0
  6  7  1  0
  7  8  1  0
  8  9  1  0
  9 10  2  0
  9 11  1  0
 11 12  1  0
 12 13  2  0
 13 14  1  0
 14 15  2  0
 15 16  1  0
 16 17  1  0
 16 18  2  0
  7 19  2  0
 19  3  1  0
 18 12  1  0
  1 20  1  0
  1 21  1  0
  1 22  1  0
  4 23  1  0
  5 24  1  0
  6 25  1  0
  8 26  1  0
 11 27  1  0
 11 28  1  0
 13 29  1  0
 14 30  1  0
 15 31  1  0
 18 32  1  0
 19 33  1  0
M  CHG  1  11   1
M  END
>  <UniqueID>  (47) 
42

>  <SMILES>  (47) 
COc1cccc(NC(=S)[NH2+]c2cccc(Cl)c2)c1

>  <Energy>  (47) 
37.58034441692098

>  <Genealogy>  (47) 
COc1cccc(NC(=S)[NH2+]c2cccc(Cl)c2)c1 (protonated)
COc1cccc(NC(=S)[NH2+]c2cccc(Cl)c2)c1 (3D coordinates assigned)
COc1cccc(NC(=S)[NH2+]c2cccc(Cl)c2)c1 (optimized conformer: 37.58034441692098 kcal/mol)

>  <smiles>  (47) 
COc1cccc(NC(=S)Nc2cccc(Cl)c2)c1

>  <score_type>  (47) 
oracle

>  <origin>  (47) 
adg

>  <m_score__min__energy>  (47) 
-5.96

>  <m_primary>  (47) 
energy

$$$$
47:0
     RDKit          3D

 40 42  0  0  0  0  0  0  0  0999 V2000
   58.8140   33.7560   45.1830 C   0  0  0  0  0  0  0  0  0  0  0  0
   58.1380   32.6680   44.4020 C   0  0  0  0  0  0  0  0  0  0  0  0
   58.1030   32.7220   43.0020 C   0  0  0  0  0  0  0  0  0  0  0  0
   57.5060   31.6920   42.2730 C   0  0  0  0  0  0  0  0  0  0  0  0
   56.9500   30.5950   42.9340 C   0  0  0  0  0  0  0  0  0  0  0  0
   56.9880   30.5130   44.3380 C   0  0  0  0  0  0  0  0  0  0  0  0
   56.4080   29.3440   45.0410 C   0  0  0  0  0  0  0  0  0  0  0  0
   55.1990   29.0350   44.8540 O   0  0  0  0  0  0  0  0  0  0  0  0
   57.2320   28.5360   45.8920 N   0  0  0  0  0  0  0  0  0  0  0  0
   57.6040   27.1670   45.6740 C   0  0  0  0  0  0  0  0  0  0  0  0
   58.1120   26.4290   46.7510 C   0  0  0  0  0  0  0  0  0  0  0  0
   58.4670   25.0870   46.5870 C   0  0  0  0  0  0  0  0  0  0  0  0
   58.3070   24.4640   45.3430 C   0  0  0  0  0  0  0  0  0  0  0  0
   58.7400   22.7700   45.1360 S   0  0  0  0  0  0  0  0  0  0  0  0
   58.2900   22.2960   43.7820 O   0  0  0  0  0  0  0  0  0  0  0  0
   60.2310   22.6250   45.2590 O   0  0  0  0  0  0  0  0  0  0  0  0
   57.9510   21.8230   46.3580 N   0  0  0  0  0  0  0  0  0  0  0  0
   56.8670   22.1900   46.9670 C   0  0  0  0  0  0  0  0  0  0  0  0
   55.7720   22.5980   46.2660 N   0  0  0  0  0  0  0  0  0  0  0  0
   54.6360   22.9830   46.9040 C   0  0  0  0  0  0  0  0  0  0  0  0
   54.5800   22.9660   48.2960 C   0  0  0  0  0  0  0  0  0  0  0  0
   55.7090   22.5470   49.0000 C   0  0  0  0  0  0  0  0  0  0  0  0
   56.8260   22.1690   48.3260 N   0  0  0  0  0  0  0  0  0  0  0  0
   57.7690   25.1870   44.2710 C   0  0  0  0  0  0  0  0  0  0  0  0
   57.4140   26.5300   44.4350 C   0  0  0  0  0  0  0  0  0  0  0  0
   57.5940   31.5570   45.0650 C   0  0  0  0  0  0  0  0  0  0  0  0
   58.6943   33.5633   46.2594 H   0  0  0  0  0  0  0  0  0  0  0  0
   59.8846   33.7772   44.9311 H   0  0  0  0  0  0  0  0  0  0  0  0
   58.3588   34.7252   44.9311 H   0  0  0  0  0  0  0  0  0  0  0  0
   58.5477   33.5794   42.4755 H   0  0  0  0  0  0  0  0  0  0  0  0
   57.4735   31.7448   41.1747 H   0  0  0  0  0  0  0  0  0  0  0  0
   56.4787   29.7888   42.3527 H   0  0  0  0  0  0  0  0  0  0  0  0
   58.2324   26.9093   47.7332 H   0  0  0  0  0  0  0  0  0  0  0  0
   58.8730   24.5190   47.4370 H   0  0  0  0  0  0  0  0  0  0  0  0
   53.7610   23.3079   46.3219 H   0  0  0  0  0  0  0  0  0  0  0  0
   53.6677   23.2755   48.8270 H   0  0  0  0  0  0  0  0  0  0  0  0
   55.6947   22.5227   50.0996 H   0  0  0  0  0  0  0  0  0  0  0  0
   57.6251   24.6971   43.2967 H   0  0  0  0  0  0  0  0  0  0  0  0
   56.9845   27.0900   43.5913 H   0  0  0  0  0  0  0  0  0  0  0  0
   57.6411   31.5007   46.1625 H   0  0  0  0  0  0  0  0  0  0  0  0
  1  2  1  0
  2  3  2  0
  3  4  1  0
  4  5  2  0
  5  6  1  0
  6  7  1  0
  7  8  2  0
  7  9  1  0
  9 10  1  0
 10 11  2  0
 11 12  1  0
 12 13  2  0
 13 14  1  0
 14 15  2  0
 14 16  2  0
 14 17  1  0
 17 18  2  3
 18 19  1  0
 19 20  2  0
 20 21  1  0
 21 22  2  0
 22 23  1  0
 13 24  1  0
 24 25  2  0
  6 26  2  0
 26  2  1  0
 25 10  1  0
 23 18  1  0
  1 27  1  0
  1 28  1  0
  1 29  1  0
  3 30  1  0
  4 31  1  0
  5 32  1  0
 11 33  1  0
 12 34  1  0
 20 35  1  0
 21 36  1  0
 22 37  1  0
 24 38  1  0
 25 39  1  0
 26 40  1  0
M  CHG  2   9  -1  23  -1
M  END
>  <UniqueID>  (48) 
43

>  <SMILES>  (48) 
Cc1cccc(C(=O)[N-]c2ccc(S(=O)(=O)N=c3nccc[n-]3)cc2)c1

>  <Energy>  (48) 
51.26644728953862

>  <Genealogy>  (48) 
Cc1cccc(C(=O)[N-]c2ccc(S(=O)(=O)N=c3nccc[n-]3)cc2)c1 (protonated)
Cc1cccc(C(=O)[N-]c2ccc(S(=O)(=O)N=c3nccc[n-]3)cc2)c1 (3D coordinates assigned)
Cc1cccc(C(=O)[N-]c2ccc(S(=O)(=O)N=c3nccc[n-]3)cc2)c1 (optimized conformer: 51.26644728953862 kcal/mol)

>  <smiles>  (48) 
Cc1cccc(C(=O)Nc2ccc(S(=O)(=O)N=c3nccc[nH]3)cc2)c1

>  <score_type>  (48) 
oracle

>  <origin>  (48) 
adg

>  <m_score__min__energy>  (48) 
-11.15

>  <m_primary>  (48) 
energy

$$$$
48:0
     RDKit          3D

 40 42  0  0  0  0  0  0  0  0999 V2000
   55.1030   26.2210   45.9800 N   0  0  0  0  0  0  0  0  0  0  0  0
   56.8280   26.1810   46.0560 S   0  0  0  0  0  0  0  0  0  0  0  0
   57.3670   25.4150   44.8800 O   0  0  0  0  0  0  0  0  0  0  0  0
   57.2560   25.4860   47.3190 O   0  0  0  0  0  0  0  0  0  0  0  0
   57.4570   27.8250   46.0340 C   0  0  0  0  0  0  0  0  0  0  0  0
   58.3850   28.2390   46.9990 C   0  0  0  0  0  0  0  0  0  0  0  0
   58.8760   29.5470   46.9910 C   0  0  0  0  0  0  0  0  0  0  0  0
   58.4400   30.4560   46.0240 C   0  0  0  0  0  0  0  0  0  0  0  0
   58.9120   31.6990   46.0280 O   0  0  0  0  0  0  0  0  0  0  0  0
   58.5350   32.6160   45.1410 C   0  0  0  0  0  0  0  0  0  0  0  0
   59.0990   34.0020   45.2440 C   0  0  0  0  0  0  0  0  0  0  0  0
   60.4150   33.9600   45.8810 N   0  0  0  0  0  0  0  0  0  0  0  0
   60.5980   33.8630   47.3070 C   0  0  0  0  0  0  0  0  0  0  0  0
   59.4900   33.9730   48.1690 C   0  0  0  0  0  0  0  0  0  0  0  0
   59.6600   33.9420   49.5530 C   0  0  0  0  0  0  0  0  0  0  0  0
   60.9350   33.8040   50.0980 C   0  0  0  0  0  0  0  0  0  0  0  0
   62.0460   33.6890   49.2610 C   0  0  0  0  0  0  0  0  0  0  0  0
   61.8950   33.7100   47.8620 C   0  0  0  0  0  0  0  0  0  0  0  0
   63.0890   33.5030   47.0090 C   0  0  0  0  0  0  0  0  0  0  0  0
   64.0440   32.4860   47.3220 N   0  0  0  0  0  0  0  0  0  0  0  0
   63.2600   34.2100   45.9790 O   0  0  0  0  0  0  0  0  0  0  0  0
   57.6040   32.2910   44.1450 C   0  0  0  0  0  0  0  0  0  0  0  0
   57.0800   30.9980   44.0990 C   0  0  0  0  0  0  0  0  0  0  0  0
   56.2400   30.6980   43.2090 O   0  0  0  0  0  0  0  0  0  0  0  0
   57.4980   30.0530   45.0510 C   0  0  0  0  0  0  0  0  0  0  0  0
   57.0090   28.7330   45.0640 C   0  0  0  0  0  0  0  0  0  0  0  0
   54.7970   27.0920   46.4690 H   0  0  0  0  0  0  0  0  0  0  0  0
   58.7287   27.5303   47.7669 H   0  0  0  0  0  0  0  0  0  0  0  0
   59.6084   29.8621   47.7488 H   0  0  0  0  0  0  0  0  0  0  0  0
   59.1956   34.4319   44.2361 H   0  0  0  0  0  0  0  0  0  0  0  0
   58.4235   34.6228   45.8509 H   0  0  0  0  0  0  0  0  0  0  0  0
   61.2510   33.9240   45.2560 H   0  0  0  0  0  0  0  0  0  0  0  0
   58.4804   34.0845   47.7467 H   0  0  0  0  0  0  0  0  0  0  0  0
   58.7860   34.0266   50.2155 H   0  0  0  0  0  0  0  0  0  0  0  0
   61.0662   33.7857   51.1900 H   0  0  0  0  0  0  0  0  0  0  0  0
   63.0492   33.5809   49.6991 H   0  0  0  0  0  0  0  0  0  0  0  0
   63.9750   31.9340   48.2050 H   0  0  0  0  0  0  0  0  0  0  0  0
   64.8580   32.3200   46.6900 H   0  0  0  0  0  0  0  0  0  0  0  0
   57.2901   33.0455   43.4087 H   0  0  0  0  0  0  0  0  0  0  0  0
   56.2735   28.4130   44.3112 H   0  0  0  0  0  0  0  0  0  0  0  0
  1  2  1  0
  2  3  2  0
  2  4  2  0
  2  5  1  0
  5  6  2  0
  6  7  1  0
  7  8  2  0
  8  9  1  0
  9 10  1  0
 10 11  1  0
 11 12  1  0
 12 13  1  0
 13 14  2  0
 14 15  1  0
 15 16  2  0
 16 17  1  0
 17 18  2  0
 18 19  1  0
 19 20  1  0
 19 21  2  0
 10 22  2  0
 22 23  1  0
 23 24  2  0
 23 25  1  0
 25 26  2  0
 26  5  1  0
 25  8  1  0
 18 13  1  0
  1 27  1  0
  6 28  1  0
  7 29  1  0
 11 30  1  0
 11 31  1  0
 12 32  1  0
 14 33  1  0
 15 34  1  0
 16 35  1  0
 17 36  1  0
 20 37  1  0
 20 38  1  0
 22 39  1  0
 26 40  1  0
M  CHG  1   1  -1
M  END
>  <UniqueID>  (49) 
44

>  <SMILES>  (49) 
[NH-]S(=O)(=O)c1ccc2oc(CNc3ccccc3C(N)=O)cc(=O)c2c1

>  <Energy>  (49) 
50.97386563071028

>  <Genealogy>  (49) 
[NH-]S(=O)(=O)c1ccc2oc(CNc3ccccc3C(N)=O)cc(=O)c2c1 (protonated)
[NH-]S(=O)(=O)c1ccc2oc(CNc3ccccc3C(N)=O)cc(=O)c2c1 (3D coordinates assigned)
[NH-]S(=O)(=O)c1ccc2oc(CNc3ccccc3C(N)=O)cc(=O)c2c1 (optimized conformer: 50.97386563071028 kcal/mol)

>  <smiles>  (49) 
NC(=O)c1ccccc1NCc1cc(=O)c2cc(S(N)(=O)=O)ccc2o1

>  <score_type>  (49) 
oracle

>  <origin>  (49) 
adg

>  <m_score__min__energy>  (49) 
-11.75

>  <m_primary>  (49) 
energy

$$$$
49:0
     RDKit          3D

 71 75  0  0  0  0  0  0  0  0999 V2000
   56.9920   21.1150   42.7680 C   0  0  0  0  0  0  0  0  0  0  0  0
   55.9580   21.8620   43.3800 O   0  0  0  0  0  0  0  0  0  0  0  0
   56.1800   22.5820   44.5480 C   0  0  0  0  0  0  0  0  0  0  0  0
   56.1870   23.9630   44.5970 C   0  0  0  0  0  0  0  0  0  0  0  0
   56.4080   24.6750   45.7570 C   0  0  0  0  0  0  0  0  0  0  0  0
   56.3940   26.1600   45.7120 C   0  0  0  0  0  0  0  0  0  0  0  0
   55.3010   26.6760   45.9990 O   0  0  0  0  0  0  0  0  0  0  0  0
   57.5180   26.9160   45.3740 N   0  0  0  0  0  0  0  0  0  0  0  0
   57.6020   28.3310   45.3080 C   0  0  0  0  0  0  0  0  0  0  0  0
   56.6720   29.0780   44.6150 C   0  0  0  0  0  0  0  0  0  0  0  0
   56.7480   30.4580   44.4790 C   0  0  0  0  0  0  0  0  0  0  0  0
   57.8020   31.1080   45.0650 C   0  0  0  0  0  0  0  0  0  0  0  0
   58.7630   30.4000   45.7760 C   0  0  0  0  0  0  0  0  0  0  0  0
   59.8280   31.1830   46.3740 C   0  0  0  0  0  0  0  0  0  0  0  0
   61.1500   30.9800   46.4590 N   0  0  0  0  0  0  0  0  0  0  0  0
   61.7900   31.9400   47.1130 C   0  0  0  0  0  0  0  0  0  0  0  0
   63.1260   32.1490   47.4370 C   0  0  0  0  0  0  0  0  0  0  0  0
   63.4760   33.2750   48.1420 C   0  0  0  0  0  0  0  0  0  0  0  0
   62.4840   34.1670   48.5080 C   0  0  0  0  0  0  0  0  0  0  0  0
   61.1500   33.9660   48.1900 C   0  0  0  0  0  0  0  0  0  0  0  0
   60.8080   32.8390   47.4850 C   0  0  0  0  0  0  0  0  0  0  0  0
   59.6290   32.3630   47.0290 N   0  0  0  0  0  0  0  0  0  0  0  0
   58.6790   29.0030   45.9080 C   0  0  0  0  0  0  0  0  0  0  0  0
   59.7120   28.3600   46.7110 C   0  0  0  0  0  0  0  0  0  0  0  0
   59.4800   28.0910   48.0570 N   0  0  0  0  0  0  0  0  0  0  0  0
   59.7970   26.8390   48.6190 C   0  0  0  0  0  0  0  0  0  0  0  0
   61.1440   26.8200   49.3260 C   0  0  0  0  0  0  0  0  0  0  0  0
   61.0910   27.6690   50.5250 N   0  0  0  0  0  0  0  0  0  0  0  0
   60.5610   26.8260   51.5820 C   0  0  0  0  0  0  0  0  0  0  0  0
   60.1730   28.7620   50.3150 C   0  0  0  0  0  0  0  0  0  0  0  0
   60.0500   29.1530   48.8620 C   0  0  0  0  0  0  0  0  0  0  0  0
   56.6300   23.9660   46.9030 C   0  0  0  0  0  0  0  0  0  0  0  0
   56.6390   22.5590   46.9340 C   0  0  0  0  0  0  0  0  0  0  0  0
   56.8460   21.9070   48.0110 O   0  0  0  0  0  0  0  0  0  0  0  0
   56.9950   21.2420   49.1100 C   0  0  0  0  0  0  0  0  0  0  0  0
   56.4050   21.9040   45.7080 C   0  0  0  0  0  0  0  0  0  0  0  0
   56.4000   20.5060   45.6740 O   0  0  0  0  0  0  0  0  0  0  0  0
   57.5210   19.7530   46.1000 C   0  0  0  0  0  0  0  0  0  0  0  0
   57.6236   20.6587   43.5444 H   0  0  0  0  0  0  0  0  0  0  0  0
   56.5522   20.3247   42.1419 H   0  0  0  0  0  0  0  0  0  0  0  0
   57.6041   21.7808   42.1419 H   0  0  0  0  0  0  0  0  0  0  0  0
   56.0077   24.5210   43.6661 H   0  0  0  0  0  0  0  0  0  0  0  0
   58.3930   26.3520   45.1520 H   0  0  0  0  0  0  0  0  0  0  0  0
   55.8265   28.5535   44.1459 H   0  0  0  0  0  0  0  0  0  0  0  0
   55.9833   31.0136   43.9165 H   0  0  0  0  0  0  0  0  0  0  0  0
   57.8882   32.2006   44.9717 H   0  0  0  0  0  0  0  0  0  0  0  0
   63.8931   31.4218   47.1326 H   0  0  0  0  0  0  0  0  0  0  0  0
   64.5259   33.4638   48.4105 H   0  0  0  0  0  0  0  0  0  0  0  0
   62.7642   35.0688   49.0721 H   0  0  0  0  0  0  0  0  0  0  0  0
   60.3830   34.6929   48.4956 H   0  0  0  0  0  0  0  0  0  0  0  0
   58.7430   32.8810   47.1940 H   0  0  0  0  0  0  0  0  0  0  0  0
   59.9359   27.3971   46.2286 H   0  0  0  0  0  0  0  0  0  0  0  0
   60.5156   29.1107   46.7378 H   0  0  0  0  0  0  0  0  0  0  0  0
   59.0164   26.5759   49.3480 H   0  0  0  0  0  0  0  0  0  0  0  0
   59.8530   26.1157   47.7922 H   0  0  0  0  0  0  0  0  0  0  0  0
   61.3873   25.7883   49.6199 H   0  0  0  0  0  0  0  0  0  0  0  0
   61.9168   27.2040   48.6439 H   0  0  0  0  0  0  0  0  0  0  0  0
   60.8290   27.2522   52.5600 H   0  0  0  0  0  0  0  0  0  0  0  0
   59.4659   26.7717   51.4933 H   0  0  0  0  0  0  0  0  0  0  0  0
   60.9866   25.8156   51.4933 H   0  0  0  0  0  0  0  0  0  0  0  0
   59.1806   28.4630   50.6835 H   0  0  0  0  0  0  0  0  0  0  0  0
   60.5657   29.6331   50.8598 H   0  0  0  0  0  0  0  0  0  0  0  0
   59.4041   30.0403   48.7871 H   0  0  0  0  0  0  0  0  0  0  0  0
   61.0607   29.3611   48.4809 H   0  0  0  0  0  0  0  0  0  0  0  0
   56.8088   24.5163   47.8385 H   0  0  0  0  0  0  0  0  0  0  0  0
   56.8445   21.9135   49.9682 H   0  0  0  0  0  0  0  0  0  0  0  0
   56.2572   20.4270   49.1483 H   0  0  0  0  0  0  0  0  0  0  0  0
   58.0100   20.8198   49.1483 H   0  0  0  0  0  0  0  0  0  0  0  0
   57.5523   19.7320   47.1994 H   0  0  0  0  0  0  0  0  0  0  0  0
   57.4400   18.7255   45.7158 H   0  0  0  0  0  0  0  0  0  0  0  0
   58.4416   20.2166   45.7158 H   0  0  0  0  0  0  0  0  0  0  0  0
  1  2  1  0
  2  3  1  0
  3  4  2  0
  4  5  1  0
  5  6  1  0
  6  7  2  0
  6  8  1  0
  8  9  1  0
  9 10  2  0
 10 11  1  0
 11 12  2  0
 12 13  1  0
 13 14  1  0
 14 15  2  0
 15 16  1  0
 16 17  2  0
 17 18  1  0
 18 19  2  0
 19 20  1  0
 20 21  2  0
 21 22  1  0
 13 23  2  0
 23 24  1  0
 24 25  1  0
 25 26  1  0
 26 27  1  0
 27 28  1  0
 28 29  1  0
 28 30  1  0
 30 31  1  0
  5 32  2  0
 32 33  1  0
 33 34  1  0
 34 35  1  0
 33 36  2  0
 36 37  1  0
 37 38  1  0
 36  3  1  0
 23  9  1  0
 31 25  1  0
 22 14  1  0
 21 16  1  0
  1 39  1  0
  1 40  1  0
  1 41  1  0
  4 42  1  0
  8 43  1  0
 10 44  1  0
 11 45  1  0
 12 46  1  0
 17 47  1  0
 18 48  1  0
 19 49  1  0
 20 50  1  0
 22 51  1  0
 24 52  1  0
 24 53  1  0
 26 54  1  0
 26 55  1  0
 27 56  1  0
 27 57  1  0
 29 58  1  0
 29 59  1  0
 29 60  1  0
 30 61  1  0
 30 62  1  0
 31 63  1  0
 31 64  1  0
 32 65  1  0
 35 66  1  0
 35 67  1  0
 35 68  1  0
 38 69  1  0
 38 70  1  0
 38 71  1  0
M  END
>  <smiles>  (50) 
COc1cc(C(=O)Nc2cccc(-c3nc4ccccc4[nH]3)c2CN2CCN(C)CC2)cc(OC)c1OC

>  <score_type>  (50) 
oracle

>  <origin>  (50) 
adg

>  <m_score__min__energy>  (50) 
-8.9499999999999993

>  <m_primary>  (50) 
energy

$$$$
50:0
     RDKit          3D

 37 38  0  0  0  0  0  0  0  0999 V2000
   65.9680   33.1290   50.0890 C   0  0  0  0  0  0  0  0  0  0  0  0
   64.5250   33.1440   49.6990 C   0  0  0  0  0  0  0  0  0  0  0  0
   63.6550   33.3110   50.5940 O   0  0  0  0  0  0  0  0  0  0  0  0
   64.1420   32.9160   48.3300 N   0  0  0  0  0  0  0  0  0  0  0  0
   62.7800   32.8870   47.8660 C   0  0  0  0  0  0  0  0  0  0  0  0
   62.4120   33.6790   46.7650 C   0  0  0  0  0  0  0  0  0  0  0  0
   61.0990   33.6600   46.2860 C   0  0  0  0  0  0  0  0  0  0  0  0
   60.1340   32.8540   46.9070 C   0  0  0  0  0  0  0  0  0  0  0  0
   58.4990   32.7410   46.2630 S   0  0  0  0  0  0  0  0  0  0  0  0
   58.1780   33.9130   45.3810 O   0  0  0  0  0  0  0  0  0  0  0  0
   57.5300   32.7190   47.4110 O   0  0  0  0  0  0  0  0  0  0  0  0
   58.3460   31.2680   45.3600 N   0  0  0  0  0  0  0  0  0  0  0  0
   58.3770   29.9470   45.9250 C   0  0  0  0  0  0  0  0  0  0  0  0
   59.3310   29.6050   46.8970 C   0  0  0  0  0  0  0  0  0  0  0  0
   59.3290   28.3430   47.4800 C   0  0  0  0  0  0  0  0  0  0  0  0
   58.3860   27.3960   47.0920 C   0  0  0  0  0  0  0  0  0  0  0  0
   57.4310   27.6930   46.1060 C   0  0  0  0  0  0  0  0  0  0  0  0
   56.5060   26.6110   45.6880 C   0  0  0  0  0  0  0  0  0  0  0  0
   56.9340   25.6000   45.0710 O   0  0  0  0  0  0  0  0  0  0  0  0
   55.1550   26.6830   46.0130 O   0  0  0  0  0  0  0  0  0  0  0  0
   57.4130   28.9890   45.5240 C   0  0  0  0  0  0  0  0  0  0  0  0
   56.3440   29.3950   44.5840 C   0  0  0  0  0  0  0  0  0  0  0  0
   55.1350   29.3420   44.9350 O   0  0  0  0  0  0  0  0  0  0  0  0
   56.6630   29.8770   43.3200 O   0  0  0  0  0  0  0  0  0  0  0  0
   60.4870   32.0920   48.0270 C   0  0  0  0  0  0  0  0  0  0  0  0
   61.7960   32.1170   48.5140 C   0  0  0  0  0  0  0  0  0  0  0  0
   66.0514   33.1281   51.1858 H   0  0  0  0  0  0  0  0  0  0  0  0
   66.4479   32.2258   49.6841 H   0  0  0  0  0  0  0  0  0  0  0  0
   66.4666   34.0220   49.6841 H   0  0  0  0  0  0  0  0  0  0  0  0
   64.8910   32.6370   47.6550 H   0  0  0  0  0  0  0  0  0  0  0  0
   63.1624   34.3183   46.2768 H   0  0  0  0  0  0  0  0  0  0  0  0
   60.8220   34.2788   45.4198 H   0  0  0  0  0  0  0  0  0  0  0  0
   60.0878   30.3434   47.2003 H   0  0  0  0  0  0  0  0  0  0  0  0
   60.0742   28.0925   48.2494 H   0  0  0  0  0  0  0  0  0  0  0  0
   58.3886   26.4022   47.5636 H   0  0  0  0  0  0  0  0  0  0  0  0
   59.7294   31.4701   48.5263 H   0  0  0  0  0  0  0  0  0  0  0  0
   62.0589   31.5323   49.4079 H   0  0  0  0  0  0  0  0  0  0  0  0
  1  2  1  0
  2  3  2  0
  2  4  1  0
  4  5  1  0
  5  6  2  0
  6  7  1  0
  7  8  2  0
  8  9  1  0
  9 10  2  0
  9 11  2  0
  9 12  1  0
 12 13  1  0
 13 14  2  0
 14 15  1  0
 15 16  2  0
 16 17  1  0
 17 18  1  0
 18 19  2  0
 18 20  1  0
 17 21  2  0
 21 22  1  0
 22 23  2  0
 22 24  1  0
  8 25  1  0
 25 26  2  0
 26  5  1  0
 21 13  1  0
  1 27  1  0
  1 28  1  0
  1 29  1  0
  4 30  1  0
  6 31  1  0
  7 32  1  0
 14 33  1  0
 15 34  1  0
 16 35  1  0
 25 36  1  0
 26 37  1  0
M  CHG  3  12  -1  20  -1  24  -1
M  END
>  <UniqueID>  (51) 
45

>  <SMILES>  (51) 
CC(=O)Nc1ccc(S(=O)(=O)[N-]c2cccc(C(=O)[O-])c2C(=O)[O-])cc1

>  <Energy>  (51) 
54.48107538648537

>  <Genealogy>  (51) 
CC(=O)Nc1ccc(S(=O)(=O)[N-]c2cccc(C(=O)[O-])c2C(=O)[O-])cc1 (protonated)
CC(=O)Nc1ccc(S(=O)(=O)[N-]c2cccc(C(=O)[O-])c2C(=O)[O-])cc1 (3D coordinates assigned)
CC(=O)Nc1ccc(S(=O)(=O)[N-]c2cccc(C(=O)[O-])c2C(=O)[O-])cc1 (optimized conformer: 54.48107538648537 kcal/mol)

>  <smiles>  (51) 
CC(=O)Nc1ccc(S(=O)(=O)Nc2cccc(C(=O)O)c2C(=O)O)cc1

>  <score_type>  (51) 
oracle

>  <origin>  (51) 
adg

>  <m_score__min__energy>  (51) 
-14.199999999999999

>  <m_primary>  (51) 
energy

$$$$
51:0
     RDKit          3D

 32 34  0  0  0  0  0  0  0  0999 V2000
   56.2610   30.8450   43.8270 C   0  0  0  0  0  0  0  0  0  0  0  0
   55.6700   29.6440   44.2540 C   0  0  0  0  0  0  0  0  0  0  0  0
   56.4020   28.8100   45.0920 C   0  0  0  0  0  0  0  0  0  0  0  0
   57.6590   29.1340   45.5080 C   0  0  0  0  0  0  0  0  0  0  0  0
   58.2740   30.3180   45.1040 C   0  0  0  0  0  0  0  0  0  0  0  0
   57.5770   31.1820   44.2290 C   0  0  0  0  0  0  0  0  0  0  0  0
   58.2170   32.4740   43.7550 C   0  0  0  0  0  0  0  0  0  0  0  0
   57.7940   33.6850   44.5030 N   0  0  0  0  0  0  0  0  0  0  0  0
   57.0630   33.3970   45.7420 C   0  0  0  0  0  0  0  0  0  0  0  0
   58.0260   33.5780   46.9080 C   0  0  0  0  0  0  0  0  0  0  0  0
   59.2190   34.3310   46.3460 C   0  0  0  0  0  0  0  0  0  0  0  0
   58.9010   34.5740   44.8770 C   0  0  0  0  0  0  0  0  0  0  0  0
   58.1890   28.0690   46.3980 C   0  0  0  0  0  0  0  0  0  0  0  0
   57.0250   27.0490   46.4330 C   0  0  0  0  0  0  0  0  0  0  0  0
   55.9950   27.6000   45.6120 O   0  0  0  0  0  0  0  0  0  0  0  0
   55.6975   31.5290   43.1754 H   0  0  0  0  0  0  0  0  0  0  0  0
   54.6539   29.3704   43.9335 H   0  0  0  0  0  0  0  0  0  0  0  0
   59.2827   30.5751   45.4595 H   0  0  0  0  0  0  0  0  0  0  0  0
   59.3078   32.3730   43.8545 H   0  0  0  0  0  0  0  0  0  0  0  0
   57.8899   32.6203   42.7150 H   0  0  0  0  0  0  0  0  0  0  0  0
   56.2160   34.0911   45.8459 H   0  0  0  0  0  0  0  0  0  0  0  0
   56.6714   32.3692   45.7252 H   0  0  0  0  0  0  0  0  0  0  0  0
   57.5499   34.1593   47.7114 H   0  0  0  0  0  0  0  0  0  0  0  0
   58.3243   32.6116   47.3406 H   0  0  0  0  0  0  0  0  0  0  0  0
   59.3510   35.2876   46.8728 H   0  0  0  0  0  0  0  0  0  0  0  0
   60.1521   33.7618   46.4697 H   0  0  0  0  0  0  0  0  0  0  0  0
   58.6054   35.6228   44.7269 H   0  0  0  0  0  0  0  0  0  0  0  0
   59.7844   34.3695   44.2543 H   0  0  0  0  0  0  0  0  0  0  0  0
   59.1002   27.6177   45.9784 H   0  0  0  0  0  0  0  0  0  0  0  0
   58.4803   28.4352   47.3935 H   0  0  0  0  0  0  0  0  0  0  0  0
   57.3547   26.0788   46.0331 H   0  0  0  0  0  0  0  0  0  0  0  0
   56.6721   26.8751   47.4602 H   0  0  0  0  0  0  0  0  0  0  0  0
  1  2  2  0
  2  3  1  0
  3  4  2  0
  4  5  1  0
  5  6  2  0
  6  7  1  0
  7  8  1  0
  8  9  1  0
  9 10  1  0
 10 11  1  0
 11 12  1  0
  4 13  1  0
 13 14  1  0
 14 15  1  0
  6  1  1  0
 12  8  1  0
 15  3  1  0
  1 16  1  0
  2 17  1  0
  5 18  1  0
  7 19  1  0
  7 20  1  0
  9 21  1  0
  9 22  1  0
 10 23  1  0
 10 24  1  0
 11 25  1  0
 11 26  1  0
 12 27  1  0
 12 28  1  0
 13 29  1  0
 13 30  1  0
 14 31  1  0
 14 32  1  0
M  END
>  <UniqueID>  (52) 
46

>  <SMILES>  (52) 
c1cc2c(cc1CN1CCCC1)CCO2

>  <Energy>  (52) 
53.296945172162786

>  <Genealogy>  (52) 
c1cc2c(cc1CN1CCCC1)CCO2 (3D coordinates assigned)
c1cc2c(cc1CN1CCCC1)CCO2 (nonaromatic ring conformer: 53.296945172162786 kcal/mol)

>  <smiles>  (52) 
c1cc2c(cc1CN1CCCC1)CCO2

>  <score_type>  (52) 
oracle

>  <origin>  (52) 
adg

>  <m_score__min__energy>  (52) 
-6.4699999999999998

>  <m_primary>  (52) 
energy

$$$$
52:0
     RDKit          3D

 63 66  0  0  0  0  0  0  0  0999 V2000
   54.8419   30.4495   43.9988 H   0  0  0  0  0  0  0  0  0  0  0  0
   55.7010   29.9180   44.4340 C   0  0  0  0  0  0  0  0  0  0  0  0
   55.5360   28.6710   44.9400 N   0  0  0  0  0  0  0  0  0  0  0  0
   56.5680   27.9770   45.4870 C   0  0  0  0  0  0  0  0  0  0  0  0
   56.3450   26.6930   45.9970 C   0  0  0  0  0  0  0  0  0  0  0  0
   55.3392   26.2503   45.9483 H   0  0  0  0  0  0  0  0  0  0  0  0
   57.3970   25.9720   46.5680 C   0  0  0  0  0  0  0  0  0  0  0  0
   57.1110   24.3630   47.2090 Cl  0  0  0  0  0  0  0  0  0  0  0  0
   58.6770   26.5310   46.6300 C   0  0  0  0  0  0  0  0  0  0  0  0
   59.5026   25.9602   47.0801 H   0  0  0  0  0  0  0  0  0  0  0  0
   58.9120   27.8110   46.1230 C   0  0  0  0  0  0  0  0  0  0  0  0
   59.9217   28.2440   46.1775 H   0  0  0  0  0  0  0  0  0  0  0  0
   57.8610   28.5520   45.5410 C   0  0  0  0  0  0  0  0  0  0  0  0
   58.0580   29.8530   45.0200 C   0  0  0  0  0  0  0  0  0  0  0  0
   59.2480   30.3910   45.0660 N   0  0  0  0  0  0  0  0  0  0  0  0
   59.7460   31.4020   46.0010 C   0  0  0  0  0  0  0  0  0  0  0  0
   58.8926   31.8497   46.5313 H   0  0  0  0  0  0  0  0  0  0  0  0
   60.2932   32.1638   45.4264 H   0  0  0  0  0  0  0  0  0  0  0  0
   60.7100   30.7900   47.0320 C   0  0  0  0  0  0  0  0  0  0  0  0
   61.7407   30.9855   46.7013 H   0  0  0  0  0  0  0  0  0  0  0  0
   60.4807   29.7155   47.0855 H   0  0  0  0  0  0  0  0  0  0  0  0
   60.5410   31.3570   48.4600 C   0  0  0  0  0  0  0  0  0  0  0  0
   60.4051   30.5136   49.1530 H   0  0  0  0  0  0  0  0  0  0  0  0
   59.6706   32.0292   48.4341 H   0  0  0  0  0  0  0  0  0  0  0  0
   61.6940   32.1660   48.9300 N   0  0  1  0  0  0  0  0  0  0  0  0
   61.6340   32.2610   49.9680 H   0  0  0  0  0  0  0  0  0  0  0  0
   63.0240   31.5690   48.6320 C   0  0  0  0  0  0  0  0  0  0  0  0
   63.3344   31.9071   47.6323 H   0  0  0  0  0  0  0  0  0  0  0  0
   62.8962   30.4787   48.7018 H   0  0  0  0  0  0  0  0  0  0  0  0
   64.1220   31.9340   49.6160 C   0  0  0  0  0  0  0  0  0  0  0  0
   64.9660   33.0300   49.3730 C   0  0  0  0  0  0  0  0  0  0  0  0
   64.8357   33.6266   48.4581 H   0  0  0  0  0  0  0  0  0  0  0  0
   65.9710   33.3690   50.2850 C   0  0  0  0  0  0  0  0  0  0  0  0
   66.6345   34.2213   50.0768 H   0  0  0  0  0  0  0  0  0  0  0  0
   66.1370   32.6250   51.4670 C   0  0  0  0  0  0  0  0  0  0  0  0
   67.1320   32.9220   52.4100 O   0  0  0  0  0  0  0  0  0  0  0  0
   68.5270   32.7280   52.1950 C   0  0  0  0  0  0  0  0  0  0  0  0
   69.0410   32.6565   53.1649 H   0  0  0  0  0  0  0  0  0  0  0  0
   68.6848   31.7993   51.6271 H   0  0  0  0  0  0  0  0  0  0  0  0
   68.9322   33.5784   51.6271 H   0  0  0  0  0  0  0  0  0  0  0  0
   65.2790   31.5500   51.7210 C   0  0  0  0  0  0  0  0  0  0  0  0
   65.3964   30.9659   52.6457 H   0  0  0  0  0  0  0  0  0  0  0  0
   64.2740   31.2110   50.8110 C   0  0  0  0  0  0  0  0  0  0  0  0
   63.5973   30.3724   51.0319 H   0  0  0  0  0  0  0  0  0  0  0  0
   61.5700   33.8010   48.3050 S   0  0  0  0  0  0  0  0  0  0  0  0
   61.8990   33.8160   46.8380 O   0  0  0  0  0  0  0  0  0  0  0  0
   62.5210   34.7110   49.0290 O   0  0  0  0  0  0  0  0  0  0  0  0
   59.9120   34.4410   48.5240 C   0  0  0  0  0  0  0  0  0  0  0  0
   59.3991   33.8543   49.3003 H   0  0  0  0  0  0  0  0  0  0  0  0
   59.9796   35.4975   48.8228 H   0  0  0  0  0  0  0  0  0  0  0  0
   59.1290   34.3530   47.2420 C   0  0  0  0  0  0  0  0  0  0  0  0
   59.5960   34.9820   46.0760 C   0  0  0  0  0  0  0  0  0  0  0  0
   60.5300   35.5624   46.1039 H   0  0  0  0  0  0  0  0  0  0  0  0
   58.8800   34.8740   44.8810 C   0  0  0  0  0  0  0  0  0  0  0  0
   59.2499   35.3717   43.9724 H   0  0  0  0  0  0  0  0  0  0  0  0
   57.6950   34.1350   44.8380 C   0  0  0  0  0  0  0  0  0  0  0  0
   57.1319   34.0529   43.8966 H   0  0  0  0  0  0  0  0  0  0  0  0
   57.2250   33.5000   45.9910 C   0  0  0  0  0  0  0  0  0  0  0  0
   56.2935   32.9160   45.9563 H   0  0  0  0  0  0  0  0  0  0  0  0
   57.9390   33.6070   47.1890 C   0  0  0  0  0  0  0  0  0  0  0  0
   57.5673   33.1047   48.0943 H   0  0  0  0  0  0  0  0  0  0  0  0
   56.9540   30.5310   44.4620 C   0  0  0  0  0  0  0  0  0  0  0  0
   57.0809   31.5426   44.0491 H   0  0  0  0  0  0  0  0  0  0  0  0
  1  2  1  0
  2  3  1  0
  3  4  1  0
  4  5  2  0
  5  6  1  0
  5  7  1  0
  7  8  1  0
  7  9  2  0
  9 10  1  0
  9 11  1  0
 11 12  1  0
 11 13  2  0
 13 14  1  0
 14 15  2  0
 15 16  1  0
 16 17  1  0
 16 18  1  0
 16 19  1  0
 19 20  1  0
 19 21  1  0
 19 22  1  0
 22 23  1  0
 22 24  1  0
 22 25  1  0
 25 26  1  1
 25 27  1  0
 27 28  1  0
 27 29  1  0
 27 30  1  0
 30 31  2  0
 31 32  1  0
 31 33  1  0
 33 34  1  0
 33 35  2  0
 35 36  1  0
 36 37  1  0
 37 38  1  0
 37 39  1  0
 37 40  1  0
 35 41  1  0
 41 42  1  0
 41 43  2  0
 43 44  1  0
 25 45  1  0
 45 46  2  0
 45 47  2  0
 45 48  1  0
 48 49  1  0
 48 50  1  0
 48 51  1  0
 51 52  2  0
 52 53  1  0
 52 54  1  0
 54 55  1  0
 54 56  2  0
 56 57  1  0
 56 58  1  0
 58 59  1  0
 58 60  2  0
 60 61  1  0
 14 62  1  0
 62 63  1  0
 62  2  2  0
 13  4  1  0
 43 30  1  0
 60 51  1  0
M  CHG  2   3  -1  25   1
M  END
>  <UniqueID>  (53) 
47

>  <SMILES>  (53) 
COc1ccc(C[N@H+](CCC/N=c2\cc[n-]c3cc(Cl)ccc23)S(=O)(=O)Cc2ccccc2)cc1

>  <Energy>  (53) 
68.59630203029367

>  <Genealogy>  (53) 
COc1ccc(C[NH+](CCCN=c2cc[n-]c3cc(Cl)ccc23)S(=O)(=O)Cc2ccccc2)cc1 (protonated)
COc1ccc(C[N@H+](CCCN=c2cc[n-]c3cc(Cl)ccc23)S(=O)(=O)Cc2ccccc2)cc1 (chirality)
COc1ccc(C[N@H+](CCC/N=c2\cc[n-]c3cc(Cl)ccc23)S(=O)(=O)Cc2ccccc2)cc1 (cis-trans isomerization)
COc1ccc(C[N@H+](CCC/N=c2\cc[n-]c3cc(Cl)ccc23)S(=O)(=O)Cc2ccccc2)cc1 (3D coordinates assigned)
COc1ccc(C[N@H+](CCC/N=c2\cc[n-]c3cc(Cl)ccc23)S(=O)(=O)Cc2ccccc2)cc1 (optimized conformer: 68.59630203029367 kcal/mol)

>  <smiles>  (53) 
COc1ccc(CN(CCCN=c2cc[nH]c3cc(Cl)ccc23)S(=O)(=O)Cc2ccccc2)cc1

>  <score_type>  (53) 
oracle

>  <origin>  (53) 
adg

>  <m_score__min__energy>  (53) 
-10.02

>  <m_primary>  (53) 
energy

$$$$
53:0
     RDKit          3D

 41 43  0  0  0  0  0  0  0  0999 V2000
   56.5140   28.9720   42.5430 N   0  0  0  0  0  0  0  0  0  0  0  0
   56.6340   29.3640   44.2220 S   0  0  0  0  0  0  0  0  0  0  0  0
   55.2620   29.3690   44.8330 O   0  0  0  0  0  0  0  0  0  0  0  0
   57.4730   28.3320   44.9240 O   0  0  0  0  0  0  0  0  0  0  0  0
   57.3790   30.9490   44.3990 C   0  0  0  0  0  0  0  0  0  0  0  0
   57.6280   31.7470   43.2740 C   0  0  0  0  0  0  0  0  0  0  0  0
   58.2180   33.0050   43.4240 C   0  0  0  0  0  0  0  0  0  0  0  0
   58.5760   33.4640   44.6940 C   0  0  0  0  0  0  0  0  0  0  0  0
   58.3680   32.6560   45.8220 C   0  0  0  0  0  0  0  0  0  0  0  0
   58.7080   33.1150   47.1360 N   0  0  0  0  0  0  0  0  0  0  0  0
   59.9020   33.8260   47.4880 C   0  0  0  0  0  0  0  0  0  0  0  0
   60.0150   35.0290   47.1310 O   0  0  0  0  0  0  0  0  0  0  0  0
   60.9340   33.2270   48.4170 C   0  0  2  0  0  0  0  0  0  0  0  0
   62.1190   34.2040   48.6150 C   0  0  0  0  0  0  0  0  0  0  0  0
   63.3080   33.6400   47.8210 C   0  0  0  0  0  0  0  0  0  0  0  0
   62.8680   32.2730   47.4830 C   0  0  0  0  0  0  0  0  0  0  0  0
   63.6170   31.4050   46.9630 O   0  0  0  0  0  0  0  0  0  0  0  0
   61.5150   32.0280   47.8230 N   0  0  0  0  0  0  0  0  0  0  0  0
   60.8340   30.7740   47.6560 C   0  0  0  0  0  0  0  0  0  0  0  0
   60.8350   30.1350   46.4070 C   0  0  0  0  0  0  0  0  0  0  0  0
   60.1820   28.9100   46.2410 C   0  0  0  0  0  0  0  0  0  0  0  0
   59.5210   28.3180   47.3210 C   0  0  0  0  0  0  0  0  0  0  0  0
   58.8880   27.1290   47.1600 F   0  0  0  0  0  0  0  0  0  0  0  0
   59.5150   28.9500   48.5680 C   0  0  0  0  0  0  0  0  0  0  0  0
   60.1680   30.1750   48.7380 C   0  0  0  0  0  0  0  0  0  0  0  0
   60.1780   30.7590   49.9630 F   0  0  0  0  0  0  0  0  0  0  0  0
   57.7460   31.4100   45.6720 C   0  0  0  0  0  0  0  0  0  0  0  0
   55.5380   29.1990   42.2440 H   0  0  0  0  0  0  0  0  0  0  0  0
   56.6190   27.9360   42.4620 H   0  0  0  0  0  0  0  0  0  0  0  0
   57.3587   31.3826   42.2716 H   0  0  0  0  0  0  0  0  0  0  0  0
   58.4008   33.6347   42.5408 H   0  0  0  0  0  0  0  0  0  0  0  0
   59.0226   34.4625   44.8100 H   0  0  0  0  0  0  0  0  0  0  0  0
   60.4229   33.0091   49.3664 H   0  0  0  0  0  0  0  0  0  0  0  0
   61.8523   35.2020   48.2369 H   0  0  0  0  0  0  0  0  0  0  0  0
   62.3716   34.3018   49.6811 H   0  0  0  0  0  0  0  0  0  0  0  0
   63.4917   34.2316   46.9120 H   0  0  0  0  0  0  0  0  0  0  0  0
   64.2529   33.6628   48.3837 H   0  0  0  0  0  0  0  0  0  0  0  0
   61.3519   30.5999   45.5545 H   0  0  0  0  0  0  0  0  0  0  0  0
   60.1884   28.4119   45.2602 H   0  0  0  0  0  0  0  0  0  0  0  0
   58.9954   28.4827   49.4175 H   0  0  0  0  0  0  0  0  0  0  0  0
   57.5442   30.7894   46.5575 H   0  0  0  0  0  0  0  0  0  0  0  0
  1  2  1  0
  2  3  2  0
  2  4  2  0
  2  5  1  0
  5  6  2  0
  6  7  1  0
  7  8  2  0
  8  9  1  0
  9 10  1  0
 10 11  1  0
 11 12  2  0
 11 13  1  0
 13 14  1  0
 14 15  1  0
 15 16  1  0
 16 17  2  0
 16 18  1  0
 18 19  1  0
 19 20  2  0
 20 21  1  0
 21 22  2  0
 22 23  1  0
 22 24  1  0
 24 25  2  0
 25 26  1  0
  9 27  2  0
 27  5  1  0
 18 13  1  0
 25 19  1  0
  1 28  1  0
  1 29  1  0
  6 30  1  0
  7 31  1  0
  8 32  1  0
 13 33  1  1
 14 34  1  0
 14 35  1  0
 15 36  1  0
 15 37  1  0
 20 38  1  0
 21 39  1  0
 24 40  1  0
 27 41  1  0
M  CHG  1  10  -1
M  END
>  <UniqueID>  (54) 
48

>  <SMILES>  (54) 
NS(=O)(=O)c1cccc([N-]C(=O)[C@@H]2CCC(=O)N2c2ccc(F)cc2F)c1

>  <Energy>  (54) 
58.542679644105945

>  <Genealogy>  (54) 
NS(=O)(=O)c1cccc([N-]C(=O)C2CCC(=O)N2c2ccc(F)cc2F)c1 (protonated)
NS(=O)(=O)c1cccc([N-]C(=O)[C@@H]2CCC(=O)N2c2ccc(F)cc2F)c1 (chirality)
NS(=O)(=O)c1cccc([N-]C(=O)[C@@H]2CCC(=O)N2c2ccc(F)cc2F)c1 (3D coordinates assigned)
NS(=O)(=O)c1cccc([N-]C(=O)[C@@H]2CCC(=O)N2c2ccc(F)cc2F)c1 (nonaromatic ring conformer: 58.542679644105945 kcal/mol)

>  <smiles>  (54) 
NS(=O)(=O)c1cccc(NC(=O)C2CCC(=O)N2c2ccc(F)cc2F)c1

>  <score_type>  (54) 
oracle

>  <origin>  (54) 
adg

>  <m_score__min__energy>  (54) 
-10.07

>  <m_primary>  (54) 
energy

$$$$
54:0
     RDKit          3D

 32 34  0  0  0  0  0  0  0  0999 V2000
   58.9828   34.1966   43.1932 H   0  0  0  0  0  0  0  0  0  0  0  0
   58.7700   33.6470   44.1220 C   0  0  0  0  0  0  0  0  0  0  0  0
   59.1680   34.1560   45.3170 N   0  0  0  0  0  0  0  0  0  0  0  0
   58.9280   33.5020   46.4850 C   0  0  0  0  0  0  0  0  0  0  0  0
   59.3460   34.0410   47.6560 F   0  0  0  0  0  0  0  0  0  0  0  0
   58.2530   32.2790   46.4770 C   0  0  0  0  0  0  0  0  0  0  0  0
   58.0684   31.7432   47.4198 H   0  0  0  0  0  0  0  0  0  0  0  0
   57.8120   31.7380   45.2610 C   0  0  0  0  0  0  0  0  0  0  0  0
   57.1100   30.4370   45.2470 C   0  0  0  0  0  0  0  0  0  0  0  0
   55.8820   30.2530   44.7050 N   0  0  0  0  0  0  0  0  0  0  0  0
   55.5280   28.9780   44.8430 N   0  0  0  0  0  0  0  0  0  0  0  0
   56.5350   28.3510   45.4730 C   0  0  0  0  0  0  0  0  0  0  0  0
   56.6250   27.0000   45.7920 C   0  0  0  0  0  0  0  0  0  0  0  0
   55.8018   26.3040   45.5733 H   0  0  0  0  0  0  0  0  0  0  0  0
   57.8240   26.5560   46.4120 C   0  0  0  0  0  0  0  0  0  0  0  0
   58.0240   25.3120   46.7500 N   0  0  0  0  0  0  0  0  0  0  0  0
   57.0500   24.2970   47.0270 C   0  0  0  0  0  0  0  0  0  0  0  0
   55.8370   24.6230   47.1190 O   0  0  0  0  0  0  0  0  0  0  0  0
   57.4270   22.9160   47.0910 N   0  0  0  0  0  0  0  0  0  0  0  0
   57.5820   22.0640   45.9170 C   0  0  0  0  0  0  0  0  0  0  0  0
   56.6321   22.0345   45.3632 H   0  0  0  0  0  0  0  0  0  0  0  0
   57.8606   21.0520   46.2461 H   0  0  0  0  0  0  0  0  0  0  0  0
   58.6770   22.6050   45.0060 C   0  0  0  0  0  0  0  0  0  0  0  0
   59.4964   23.0098   45.6181 H   0  0  0  0  0  0  0  0  0  0  0  0
   59.0604   21.7926   44.3711 H   0  0  0  0  0  0  0  0  0  0  0  0
   58.2647   23.4031   44.3711 H   0  0  0  0  0  0  0  0  0  0  0  0
   58.8390   27.4540   46.6230 N   0  0  0  0  0  0  0  0  0  0  0  0
   58.7390   28.7770   46.3010 C   0  0  0  0  0  0  0  0  0  0  0  0
   59.5738   29.4699   46.4826 H   0  0  0  0  0  0  0  0  0  0  0  0
   57.5480   29.2210   45.7360 C   0  0  0  0  0  0  0  0  0  0  0  0
   58.0910   32.4270   44.0700 C   0  0  0  0  0  0  0  0  0  0  0  0
   57.7771   32.0090   43.1021 H   0  0  0  0  0  0  0  0  0  0  0  0
  1  2  1  0
  2  3  2  0
  3  4  1  0
  4  5  1  0
  4  6  2  0
  6  7  1  0
  6  8  1  0
  8  9  1  0
  9 10  2  0
 10 11  1  0
 11 12  1  0
 12 13  2  0
 13 14  1  0
 13 15  1  0
 15 16  2  0
 16 17  1  0
 17 18  2  0
 17 19  1  0
 19 20  1  0
 20 21  1  0
 20 22  1  0
 20 23  1  0
 23 24  1  0
 23 25  1  0
 23 26  1  0
 15 27  1  0
 27 28  1  0
 28 29  1  0
 28 30  2  0
  8 31  2  0
 31 32  1  0
 31  2  1  0
 30  9  1  0
 30 12  1  0
M  CHG  3  11  -1  19  -1  27  -1
M  END
>  <UniqueID>  (55) 
49

>  <SMILES>  (55) 
CC[N-]C(=O)/N=c1\cc2[n-]nc(-c3ccnc(F)c3)c2c[n-]1

>  <Energy>  (55) 
81.98704119814722

>  <Genealogy>  (55) 
CC[N-]C(=O)N=c1cc2[n-]nc(-c3ccnc(F)c3)c2c[n-]1 (protonated)
CC[N-]C(=O)/N=c1\cc2[n-]nc(-c3ccnc(F)c3)c2c[n-]1 (cis-trans isomerization)
CC[N-]C(=O)/N=c1\cc2[n-]nc(-c3ccnc(F)c3)c2c[n-]1 (3D coordinates assigned)
CC[N-]C(=O)/N=c1\cc2[n-]nc(-c3ccnc(F)c3)c2c[n-]1 (optimized conformer: 81.98704119814722 kcal/mol)

>  <smiles>  (55) 
CCNC(=O)N=c1cc2[nH]nc(-c3ccnc(F)c3)c2c[nH]1

>  <score_type>  (55) 
oracle

>  <origin>  (55) 
adg

>  <m_score__min__energy>  (55) 
-10.779999999999999

>  <m_primary>  (55) 
energy

$$$$
55:0
     RDKit          3D

 38 40  0  0  1  0  0  0  0  0999 V2000
   56.1610   30.2310   42.5270 N   0  0  0  0  0  0  0  0  0  0  0  0
   56.0960   29.7270   43.8620 C   0  0  0  0  0  0  0  0  0  0  0  0
   54.9810   29.3580   44.2780 O   0  0  0  0  0  0  0  0  0  0  0  0
   57.2610   29.6330   44.7260 C   0  0  0  0  0  0  0  0  0  0  0  0
   57.8980   28.4420   45.0180 C   0  0  0  0  0  0  0  0  0  0  0  0
   57.5140   27.1520   44.5460 N   0  0  0  0  0  0  0  0  0  0  0  0
   57.3850   26.0200   45.3580 C   0  0  0  0  0  0  0  0  0  0  0  0
   58.3810   25.0730   45.4980 C   0  0  0  0  0  0  0  0  0  0  0  0
   58.2190   23.9580   46.3120 C   0  0  0  0  0  0  0  0  0  0  0  0
   57.0420   23.7480   47.0240 C   0  0  0  0  0  0  0  0  0  0  0  0
   56.0340   24.7090   46.8830 C   0  0  0  0  0  0  0  0  0  0  0  0
   56.2220   25.8110   46.0640 C   0  0  0  0  0  0  0  0  0  0  0  0
   55.1440   26.7040   46.0030 O   0  0  0  0  0  0  0  0  0  0  0  0
   58.9140   28.7860   45.8320 N   0  0  0  0  0  0  0  0  0  0  0  0
   58.9320   30.0880   46.0470 N   0  0  0  0  0  0  0  0  0  0  0  0
   57.9260   30.6720   45.3860 C   0  0  0  0  0  0  0  0  0  0  0  0
   57.5490   31.8850   45.2930 N   0  0  0  0  0  0  0  0  0  0  0  0
   58.2650   32.8790   46.0050 C   0  0  0  0  0  0  0  0  0  0  0  0
   58.4700   32.8500   47.3700 C   0  0  0  0  0  0  0  0  0  0  0  0
   59.2010   33.8860   47.9570 C   0  0  0  0  0  0  0  0  0  0  0  0
   59.7120   34.9170   47.2190 C   0  0  0  0  0  0  0  0  0  0  0  0
   59.5120   34.9580   45.8370 C   0  0  0  0  0  0  0  0  0  0  0  0
   58.7880   33.9300   45.2630 C   0  0  0  0  0  0  0  0  0  0  0  0
   56.8550   30.9590   42.2260 H   0  0  0  0  0  0  0  0  0  0  0  0
   55.4800   29.8580   41.8000 H   0  0  0  0  0  0  0  0  0  0  0  0
   57.3250   27.0920   43.5120 H   0  0  0  0  0  0  0  0  0  0  0  0
   59.3264   25.2047   44.9513 H   0  0  0  0  0  0  0  0  0  0  0  0
   59.0371   23.2274   46.3950 H   0  0  0  0  0  0  0  0  0  0  0  0
   56.9097   22.8665   47.6686 H   0  0  0  0  0  0  0  0  0  0  0  0
   55.0853   24.5885   47.4265 H   0  0  0  0  0  0  0  0  0  0  0  0
   55.1400   27.4850   45.3530 H   0  0  0  0  0  0  0  0  0  0  0  0
   59.5860   28.0840   46.2270 H   0  0  0  0  0  0  0  0  0  0  0  0
   59.6020   30.6570   46.6380 H   0  0  0  0  0  0  0  0  0  0  0  0
   58.0668   32.0295   47.9818 H   0  0  0  0  0  0  0  0  0  0  0  0
   59.3701   33.8716   49.0438 H   0  0  0  0  0  0  0  0  0  0  0  0
   60.2822   35.7165   47.7147 H   0  0  0  0  0  0  0  0  0  0  0  0
   59.9164   35.7793   45.2272 H   0  0  0  0  0  0  0  0  0  0  0  0
   58.6195   33.9449   44.1761 H   0  0  0  0  0  0  0  0  0  0  0  0
  1  2  1  0
  2  3  2  0
  2  4  1  0
  4  5  2  0
  5  6  1  0
  6  7  1  0
  7  8  2  0
  8  9  1  0
  9 10  2  0
 10 11  1  0
 11 12  2  0
 12 13  1  0
  5 14  1  0
 14 15  1  0
 15 16  1  0
 16 17  2  0
 17 18  1  0
 18 19  2  0
 19 20  1  0
 20 21  2  0
 21 22  1  0
 22 23  2  0
 16  4  1  0
 23 18  1  0
 12  7  1  0
  1 24  1  0
  1 25  1  0
  6 26  1  0
  8 27  1  0
  9 28  1  0
 10 29  1  0
 11 30  1  0
 13 31  1  0
 14 32  1  0
 15 33  1  0
 19 34  1  0
 20 35  1  0
 21 36  1  0
 22 37  1  0
 23 38  1  0
M  END
>  <smiles>  (56) 
NC(=O)c1c(Nc2ccccc2O)[nH][nH]c1=Nc1ccccc1

>  <score_type>  (56) 
oracle

>  <origin>  (56) 
adg

>  <m_score__min__energy>  (56) 
-9.7200000000000006

>  <m_primary>  (56) 
energy

$$$$
56:0
     RDKit          3D

 43 46  0  0  0  0  0  0  0  0999 V2000
   58.3490   31.7840   48.7180 O   0  0  0  0  0  0  0  0  0  0  0  0
   58.8990   30.9090   47.9970 C   0  0  0  0  0  0  0  0  0  0  0  0
   58.9690   29.6550   48.4350 O   0  0  0  0  0  0  0  0  0  0  0  0
   59.5280   28.6770   47.7290 C   0  0  0  0  0  0  0  0  0  0  0  0
   59.5670   27.3770   48.2460 C   0  0  0  0  0  0  0  0  0  0  0  0
   60.1550   26.3460   47.5050 C   0  0  0  0  0  0  0  0  0  0  0  0
   60.7050   26.6100   46.2460 C   0  0  0  0  0  0  0  0  0  0  0  0
   60.6700   27.9060   45.7200 C   0  0  0  0  0  0  0  0  0  0  0  0
   60.0810   28.9430   46.4580 C   0  0  0  0  0  0  0  0  0  0  0  0
   60.0270   30.2510   45.9680 C   0  0  0  0  0  0  0  0  0  0  0  0
   59.4250   31.2530   46.7360 C   0  0  0  0  0  0  0  0  0  0  0  0
   59.3610   32.6410   46.2290 C   0  0  0  0  0  0  0  0  0  0  0  0
   59.9570   33.6630   46.9860 C   0  0  0  0  0  0  0  0  0  0  0  0
   59.9200   34.9850   46.5430 C   0  0  0  0  0  0  0  0  0  0  0  0
   59.2820   35.3040   45.3430 C   0  0  0  0  0  0  0  0  0  0  0  0
   58.6780   34.3010   44.5830 C   0  0  0  0  0  0  0  0  0  0  0  0
   58.7050   32.9620   45.0140 C   0  0  0  0  0  0  0  0  0  0  0  0
   58.0010   31.9090   44.1850 C   0  0  0  0  0  0  0  0  0  0  0  0
   56.9560   31.2990   44.9200 O   0  0  0  0  0  0  0  0  0  0  0  0
   56.2460   30.3710   44.1220 C   0  0  0  0  0  0  0  0  0  0  0  0
   56.7790   28.9840   44.3360 C   0  0  0  0  0  0  0  0  0  0  0  0
   57.6350   28.3870   43.3980 C   0  0  0  0  0  0  0  0  0  0  0  0
   58.1280   27.1050   43.6410 C   0  0  0  0  0  0  0  0  0  0  0  0
   57.7710   26.4330   44.8110 C   0  0  0  0  0  0  0  0  0  0  0  0
   56.9220   27.0590   45.7250 C   0  0  0  0  0  0  0  0  0  0  0  0
   56.4510   28.3090   45.4730 N   0  0  0  0  0  0  0  0  0  0  0  0
   59.1352   27.1657   49.2354 H   0  0  0  0  0  0  0  0  0  0  0  0
   60.1849   25.3251   47.9135 H   0  0  0  0  0  0  0  0  0  0  0  0
   61.1665   25.7960   45.6677 H   0  0  0  0  0  0  0  0  0  0  0  0
   61.1034   28.1111   44.7300 H   0  0  0  0  0  0  0  0  0  0  0  0
   60.4556   30.4910   44.9838 H   0  0  0  0  0  0  0  0  0  0  0  0
   60.4566   33.4190   47.9351 H   0  0  0  0  0  0  0  0  0  0  0  0
   60.3944   35.7777   47.1402 H   0  0  0  0  0  0  0  0  0  0  0  0
   59.2552   36.3474   44.9958 H   0  0  0  0  0  0  0  0  0  0  0  0
   58.1765   34.5598   43.6388 H   0  0  0  0  0  0  0  0  0  0  0  0
   57.5796   32.3818   43.2856 H   0  0  0  0  0  0  0  0  0  0  0  0
   58.7320   31.1353   43.9075 H   0  0  0  0  0  0  0  0  0  0  0  0
   55.1811   30.3967   44.3963 H   0  0  0  0  0  0  0  0  0  0  0  0
   56.3693   30.6420   43.0631 H   0  0  0  0  0  0  0  0  0  0  0  0
   57.9145   28.9247   42.4800 H   0  0  0  0  0  0  0  0  0  0  0  0
   58.7969   26.6245   42.9118 H   0  0  0  0  0  0  0  0  0  0  0  0
   58.1544   25.4215   45.0105 H   0  0  0  0  0  0  0  0  0  0  0  0
   56.6335   26.5399   46.6509 H   0  0  0  0  0  0  0  0  0  0  0  0
  1  2  2  0
  2  3  1  0
  3  4  1  0
  4  5  2  0
  5  6  1  0
  6  7  2  0
  7  8  1  0
  8  9  2  0
  9 10  1  0
 10 11  2  0
 11 12  1  0
 12 13  2  0
 13 14  1  0
 14 15  2  0
 15 16  1  0
 16 17  2  0
 17 18  1  0
 18 19  1  0
 19 20  1  0
 20 21  1  0
 21 22  2  0
 22 23  1  0
 23 24  2  0
 24 25  1  0
 25 26  2  0
 11  2  1  0
 17 12  1  0
 26 21  1  0
  9  4  1  0
  5 27  1  0
  6 28  1  0
  7 29  1  0
  8 30  1  0
 10 31  1  0
 13 32  1  0
 14 33  1  0
 15 34  1  0
 16 35  1  0
 18 36  1  0
 18 37  1  0
 20 38  1  0
 20 39  1  0
 22 40  1  0
 23 41  1  0
 24 42  1  0
 25 43  1  0
M  END
>  <UniqueID>  (57) 
50

>  <SMILES>  (57) 
O=c1oc2ccccc2cc1-c1ccccc1COCc1ccccn1

>  <Energy>  (57) 
63.04606456487891

>  <Genealogy>  (57) 
O=c1oc2ccccc2cc1-c1ccccc1COCc1ccccn1 (3D coordinates assigned)
O=c1oc2ccccc2cc1-c1ccccc1COCc1ccccn1 (optimized conformer: 63.04606456487891 kcal/mol)

>  <smiles>  (57) 
O=c1oc2ccccc2cc1-c1ccccc1COCc1ccccn1

>  <score_type>  (57) 
oracle

>  <origin>  (57) 
adg

>  <m_score__min__energy>  (57) 
-8.4000000000000004

>  <m_primary>  (57) 
energy

$$$$
57:0
     RDKit          3D

 68 72  0  0  0  0  0  0  0  0999 V2000
   64.3690   30.5170   51.2450 C   0  0  0  0  0  0  0  0  0  0  0  0
   63.0000   30.9100   51.2270 O   0  0  0  0  0  0  0  0  0  0  0  0
   62.1020   30.6220   50.1860 C   0  0  0  0  0  0  0  0  0  0  0  0
   61.0060   29.7580   50.3650 C   0  0  0  0  0  0  0  0  0  0  0  0
   60.1350   29.4940   49.3070 C   0  0  0  0  0  0  0  0  0  0  0  0
   60.3360   30.0900   48.0500 C   0  0  0  0  0  0  0  0  0  0  0  0
   59.4140   29.8020   46.9200 C   0  0  0  0  0  0  0  0  0  0  0  0
   58.8140   28.5420   46.8000 C   0  0  0  0  0  0  0  0  0  0  0  0
   57.9810   28.2310   45.7050 C   0  0  0  0  0  0  0  0  0  0  0  0
   57.4030   26.8230   45.5050 C   0  0  1  0  0  0  0  0  0  0  0  0
   56.0040   26.8830   45.6270 O   0  0  0  0  0  0  0  0  0  0  0  0
   57.7850   26.0840   44.1950 C   0  0  0  0  0  0  0  0  0  0  0  0
   57.3590   24.5960   44.1490 C   0  0  1  0  0  0  0  0  0  0  0  0
   58.1850   23.7600   45.1580 C   0  0  0  0  0  0  0  0  0  0  0  0
   57.4470   22.4880   45.6150 C   0  0  0  0  0  0  0  0  0  0  0  0
   56.4720   21.9930   44.5450 C   0  0  0  0  0  0  0  0  0  0  0  0
   55.4410   23.0840   44.1760 C   0  0  0  0  0  0  0  0  0  0  0  0
   55.9180   24.4590   44.4270 N   0  0  0  0  0  0  0  0  0  0  0  0
   57.6930   29.2700   44.7750 C   0  0  0  0  0  0  0  0  0  0  0  0
   56.8110   29.0900   43.6830 C   0  0  0  0  0  0  0  0  0  0  0  0
   56.5560   30.1330   42.7910 C   0  0  0  0  0  0  0  0  0  0  0  0
   57.1690   31.3720   42.9650 C   0  0  0  0  0  0  0  0  0  0  0  0
   58.0390   31.5770   44.0340 C   0  0  0  0  0  0  0  0  0  0  0  0
   58.3030   30.5410   44.9460 C   0  0  0  0  0  0  0  0  0  0  0  0
   59.1500   30.7630   45.9900 N   0  0  0  0  0  0  0  0  0  0  0  0
   61.4290   30.9550   47.8740 C   0  0  0  0  0  0  0  0  0  0  0  0
   62.3120   31.2270   48.9370 C   0  0  0  0  0  0  0  0  0  0  0  0
   63.4100   32.0940   48.7950 O   0  0  0  0  0  0  0  0  0  0  0  0
   63.3310   33.4880   48.4990 C   0  0  0  0  0  0  0  0  0  0  0  0
   61.9530   33.8540   48.0150 C   0  0  0  0  0  0  0  0  0  0  0  0
   60.9540   34.2100   48.9370 C   0  0  0  0  0  0  0  0  0  0  0  0
   59.6780   34.5660   48.4890 C   0  0  0  0  0  0  0  0  0  0  0  0
   59.3920   34.5760   47.1230 C   0  0  0  0  0  0  0  0  0  0  0  0
   60.3810   34.2260   46.2000 C   0  0  0  0  0  0  0  0  0  0  0  0
   61.6590   33.8700   46.6420 C   0  0  0  0  0  0  0  0  0  0  0  0
   64.7088   30.4195   52.2866 H   0  0  0  0  0  0  0  0  0  0  0  0
   64.4799   29.5507   50.7311 H   0  0  0  0  0  0  0  0  0  0  0  0
   64.9755   31.2773   50.7311 H   0  0  0  0  0  0  0  0  0  0  0  0
   60.8347   29.2879   51.3446 H   0  0  0  0  0  0  0  0  0  0  0  0
   59.2839   28.8137   49.4581 H   0  0  0  0  0  0  0  0  0  0  0  0
   58.9957   27.7814   47.5736 H   0  0  0  0  0  0  0  0  0  0  0  0
   57.8713   26.2151   46.2931 H   0  0  0  0  0  0  0  0  0  0  0  0
   55.6280   26.3490   44.8780 H   0  0  0  0  0  0  0  0  0  0  0  0
   57.3042   26.6051   43.3540 H   0  0  0  0  0  0  0  0  0  0  0  0
   58.8834   26.0966   44.1378 H   0  0  0  0  0  0  0  0  0  0  0  0
   57.5561   24.2138   43.1365 H   0  0  0  0  0  0  0  0  0  0  0  0
   59.1316   23.4662   44.6809 H   0  0  0  0  0  0  0  0  0  0  0  0
   58.3564   24.3842   46.0474 H   0  0  0  0  0  0  0  0  0  0  0  0
   58.1861   21.6990   45.8182 H   0  0  0  0  0  0  0  0  0  0  0  0
   56.8727   22.7281   46.5220 H   0  0  0  0  0  0  0  0  0  0  0  0
   57.0391   21.7166   43.6439 H   0  0  0  0  0  0  0  0  0  0  0  0
   55.9293   21.1240   44.9454 H   0  0  0  0  0  0  0  0  0  0  0  0
   55.2021   22.9889   43.1065 H   0  0  0  0  0  0  0  0  0  0  0  0
   54.5615   22.9261   44.8175 H   0  0  0  0  0  0  0  0  0  0  0  0
   55.7310   24.7050   45.4300 H   0  0  0  0  0  0  0  0  0  0  0  0
   56.3205   28.1165   43.5354 H   0  0  0  0  0  0  0  0  0  0  0  0
   55.8681   29.9760   41.9471 H   0  0  0  0  0  0  0  0  0  0  0  0
   56.9659   32.1895   42.2575 H   0  0  0  0  0  0  0  0  0  0  0  0
   58.5224   32.5564   44.1649 H   0  0  0  0  0  0  0  0  0  0  0  0
   59.6200   31.6930   46.0710 H   0  0  0  0  0  0  0  0  0  0  0  0
   61.5972   31.4255   46.8940 H   0  0  0  0  0  0  0  0  0  0  0  0
   63.5585   34.0634   49.4085 H   0  0  0  0  0  0  0  0  0  0  0  0
   64.0571   33.7221   47.7065 H   0  0  0  0  0  0  0  0  0  0  0  0
   61.1764   34.2086   50.0143 H   0  0  0  0  0  0  0  0  0  0  0  0
   58.8979   34.8388   49.2149 H   0  0  0  0  0  0  0  0  0  0  0  0
   58.3884   34.8593   46.7731 H   0  0  0  0  0  0  0  0  0  0  0  0
   60.1538   34.2305   45.1237 H   0  0  0  0  0  0  0  0  0  0  0  0
   62.4366   33.6016   45.9117 H   0  0  0  0  0  0  0  0  0  0  0  0
  1  2  1  0
  2  3  1  0
  3  4  2  0
  4  5  1  0
  5  6  2  0
  6  7  1  0
  7  8  2  0
  8  9  1  0
  9 10  1  0
 10 11  1  0
 10 12  1  0
 12 13  1  0
 13 14  1  0
 14 15  1  0
 15 16  1  0
 16 17  1  0
 17 18  1  0
  9 19  2  0
 19 20  1  0
 20 21  2  0
 21 22  1  0
 22 23  2  0
 23 24  1  0
 24 25  2  0
  6 26  1  0
 26 27  2  0
 27 28  1  0
 28 29  1  0
 29 30  1  0
 30 31  2  0
 31 32  1  0
 32 33  2  0
 33 34  1  0
 34 35  2  0
 27  3  1  0
 35 30  1  0
 25  7  1  0
 18 13  1  0
 24 19  1  0
  1 36  1  0
  1 37  1  0
  1 38  1  0
  4 39  1  0
  5 40  1  0
  8 41  1  0
 10 42  1  1
 11 43  1  0
 12 44  1  0
 12 45  1  0
 13 46  1  6
 14 47  1  0
 14 48  1  0
 15 49  1  0
 15 50  1  0
 16 51  1  0
 16 52  1  0
 17 53  1  0
 17 54  1  0
 18 55  1  0
 20 56  1  0
 21 57  1  0
 22 58  1  0
 23 59  1  0
 25 60  1  0
 26 61  1  0
 29 62  1  0
 29 63  1  0
 31 64  1  0
 32 65  1  0
 33 66  1  0
 34 67  1  0
 35 68  1  0
M  CHG  1  25   1
M  END
>  <UniqueID>  (58) 
51

>  <SMILES>  (58) 
COc1ccc(-c2cc([C@@H](O)C[C@H]3CCCCN3)c3ccccc3[nH+]2)cc1OCc1ccccc1

>  <Energy>  (58) 
91.12651663745334

>  <Genealogy>  (58) 
COc1ccc(-c2cc(C(O)CC3CCCCN3)c3ccccc3[nH+]2)cc1OCc1ccccc1 (protonated)
COc1ccc(-c2cc([C@@H](O)C[C@H]3CCCCN3)c3ccccc3[nH+]2)cc1OCc1ccccc1 (chirality)
COc1ccc(-c2cc([C@@H](O)C[C@H]3CCCCN3)c3ccccc3[nH+]2)cc1OCc1ccccc1 (3D coordinates assigned)
COc1ccc(-c2cc([C@@H](O)C[C@H]3CCCCN3)c3ccccc3[nH+]2)cc1OCc1ccccc1 (nonaromatic ring conformer: 91.12651663745334 kcal/mol)

>  <smiles>  (58) 
COc1ccc(-c2cc(C(O)CC3CCCCN3)c3ccccc3n2)cc1OCc1ccccc1

>  <score_type>  (58) 
oracle

>  <origin>  (58) 
adg

>  <m_score__min__energy>  (58) 
-8.4700000000000006

>  <m_primary>  (58) 
energy

$$$$
58:0
     RDKit          3D

 39 40  0  0  0  0  0  0  0  0999 V2000
   54.8870   26.3390   45.9190 N   0  0  0  0  0  0  0  0  0  0  0  0
   55.7560   25.2730   46.3020 C   0  0  0  0  0  0  0  0  0  0  0  0
   55.2490   24.2120   46.7510 O   0  0  0  0  0  0  0  0  0  0  0  0
   57.2330   25.4260   46.1840 C   0  0  0  0  0  0  0  0  0  0  0  0
   58.0350   24.2680   46.1210 C   0  0  0  0  0  0  0  0  0  0  0  0
   59.4230   24.3660   46.0090 C   0  0  0  0  0  0  0  0  0  0  0  0
   60.0360   25.6140   45.9780 C   0  0  0  0  0  0  0  0  0  0  0  0
   59.2650   26.7740   46.0470 C   0  0  0  0  0  0  0  0  0  0  0  0
   57.8600   26.7000   46.1250 C   0  0  0  0  0  0  0  0  0  0  0  0
   57.0620   27.8930   46.2210 N   0  0  0  0  0  0  0  0  0  0  0  0
   56.6050   28.7330   45.1530 C   0  0  0  0  0  0  0  0  0  0  0  0
   55.4630   29.2570   45.1760 O   0  0  0  0  0  0  0  0  0  0  0  0
   57.6960   29.0960   43.8300 S   0  0  0  0  0  0  0  0  0  0  0  0
   59.1110   28.8670   44.2770 O   0  0  0  0  0  0  0  0  0  0  0  0
   57.3930   28.2110   42.6530 O   0  0  0  0  0  0  0  0  0  0  0  0
   57.5000   30.7520   43.3620 N   0  0  0  0  0  0  0  0  0  0  0  0
   57.3160   31.7980   44.3190 C   0  0  0  0  0  0  0  0  0  0  0  0
   57.0500   31.5210   45.5200 O   0  0  0  0  0  0  0  0  0  0  0  0
   57.4530   33.1620   43.9080 N   0  0  0  0  0  0  0  0  0  0  0  0
   57.3870   34.2570   44.8720 C   0  0  0  0  0  0  0  0  0  0  0  0
   58.5000   34.1440   45.8780 C   0  0  0  0  0  0  0  0  0  0  0  0
   58.2170   33.8200   47.2160 C   0  0  0  0  0  0  0  0  0  0  0  0
   59.2540   33.6910   48.1450 C   0  0  0  0  0  0  0  0  0  0  0  0
   60.5800   33.8720   47.7430 C   0  0  0  0  0  0  0  0  0  0  0  0
   60.8720   34.1750   46.4100 C   0  0  0  0  0  0  0  0  0  0  0  0
   59.8370   34.3050   45.4770 C   0  0  0  0  0  0  0  0  0  0  0  0
   55.1470   27.3370   46.0890 H   0  0  0  0  0  0  0  0  0  0  0  0
   57.5615   23.2759   46.1606 H   0  0  0  0  0  0  0  0  0  0  0  0
   60.0337   23.4534   45.9451 H   0  0  0  0  0  0  0  0  0  0  0  0
   61.1308   25.6862   45.8989 H   0  0  0  0  0  0  0  0  0  0  0  0
   59.7588   27.7569   46.0405 H   0  0  0  0  0  0  0  0  0  0  0  0
   57.6640   33.3580   42.9020 H   0  0  0  0  0  0  0  0  0  0  0  0
   57.4778   35.2146   44.3383 H   0  0  0  0  0  0  0  0  0  0  0  0
   56.4239   34.2064   45.4011 H   0  0  0  0  0  0  0  0  0  0  0  0
   57.1750   33.6672   47.5338 H   0  0  0  0  0  0  0  0  0  0  0  0
   59.0258   33.4469   49.1930 H   0  0  0  0  0  0  0  0  0  0  0  0
   61.3946   33.7760   48.4760 H   0  0  0  0  0  0  0  0  0  0  0  0
   61.9167   34.3114   46.0939 H   0  0  0  0  0  0  0  0  0  0  0  0
   60.0708   34.5339   44.4268 H   0  0  0  0  0  0  0  0  0  0  0  0
  1  2  1  0
  2  3  2  0
  2  4  1  0
  4  5  2  0
  5  6  1  0
  6  7  2  0
  7  8  1  0
  8  9  2  0
  9 10  1  0
 10 11  1  0
 11 12  2  0
 11 13  1  0
 13 14  2  0
 13 15  2  0
 13 16  1  0
 16 17  1  0
 17 18  2  0
 17 19  1  0
 19 20  1  0
 20 21  1  0
 21 22  2  0
 22 23  1  0
 23 24  2  0
 24 25  1  0
 25 26  2  0
  9  4  1  0
 26 21  1  0
  1 27  1  0
  5 28  1  0
  6 29  1  0
  7 30  1  0
  8 31  1  0
 19 32  1  0
 20 33  1  0
 20 34  1  0
 22 35  1  0
 23 36  1  0
 24 37  1  0
 25 38  1  0
 26 39  1  0
M  CHG  3   1  -1  10  -1  16  -1
M  END
>  <UniqueID>  (59) 
52

>  <SMILES>  (59) 
[NH-]C(=O)c1ccccc1[N-]C(=O)S(=O)(=O)[N-]C(=O)NCc1ccccc1

>  <Energy>  (59) 
43.96112277631369

>  <Genealogy>  (59) 
[NH-]C(=O)c1ccccc1[N-]C(=O)S(=O)(=O)[N-]C(=O)NCc1ccccc1 (protonated)
[NH-]C(=O)c1ccccc1[N-]C(=O)S(=O)(=O)[N-]C(=O)NCc1ccccc1 (3D coordinates assigned)
[NH-]C(=O)c1ccccc1[N-]C(=O)S(=O)(=O)[N-]C(=O)NCc1ccccc1 (optimized conformer: 43.96112277631369 kcal/mol)

>  <smiles>  (59) 
NC(=O)c1ccccc1NC(=O)S(=O)(=O)NC(=O)NCc1ccccc1

>  <score_type>  (59) 
oracle

>  <origin>  (59) 
adg

>  <m_score__min__energy>  (59) 
-14.91

>  <m_primary>  (59) 
energy

$$$$
59:0
     RDKit          3D

 49 51  0  0  0  0  0  0  0  0999 V2000
   57.0450   27.4080   45.5810 C   0  0  0  0  0  0  0  0  0  0  0  0
   55.8930   28.2410   45.2510 N   0  0  0  0  0  0  0  0  0  0  0  0
   56.3500   29.4350   44.0740 S   0  0  0  0  0  0  0  0  0  0  0  0
   55.1160   30.1330   43.5760 O   0  0  0  0  0  0  0  0  0  0  0  0
   57.0230   28.7650   42.9090 O   0  0  0  0  0  0  0  0  0  0  0  0
   57.4290   30.6240   44.8010 C   0  0  0  0  0  0  0  0  0  0  0  0
   57.0620   31.9760   44.8220 C   0  0  0  0  0  0  0  0  0  0  0  0
   57.8910   32.9210   45.4340 C   0  0  0  0  0  0  0  0  0  0  0  0
   59.0860   32.5190   46.0480 C   0  0  0  0  0  0  0  0  0  0  0  0
   60.1240   33.7030   46.8410 S   0  0  0  0  0  0  0  0  0  0  0  0
   61.3580   33.8840   46.0000 O   0  0  0  0  0  0  0  0  0  0  0  0
   59.4080   35.0250   46.8840 O   0  0  0  0  0  0  0  0  0  0  0  0
   60.6230   33.2410   48.4570 N   0  0  0  0  0  0  0  0  0  0  0  0
   61.5890   34.1580   49.0830 C   0  0  0  0  0  0  0  0  0  0  0  0
   63.0560   33.8470   48.7340 C   0  0  0  0  0  0  0  0  0  0  0  0
   63.3880   32.4150   48.8140 N   0  0  0  0  0  0  0  0  0  0  0  0
   64.0510   31.9490   50.0510 C   0  0  0  0  0  0  0  0  0  0  0  0
   65.1760   32.8420   50.5140 C   0  0  0  0  0  0  0  0  0  0  0  0
   64.9350   33.8570   51.4560 C   0  0  0  0  0  0  0  0  0  0  0  0
   65.9820   34.6720   51.8970 C   0  0  0  0  0  0  0  0  0  0  0  0
   67.2790   34.4710   51.4150 C   0  0  0  0  0  0  0  0  0  0  0  0
   67.5300   33.4490   50.4960 C   0  0  0  0  0  0  0  0  0  0  0  0
   66.4870   32.6320   50.0520 C   0  0  0  0  0  0  0  0  0  0  0  0
   62.4060   31.5040   48.2020 C   0  0  0  0  0  0  0  0  0  0  0  0
   60.9650   31.8210   48.6180 C   0  0  0  0  0  0  0  0  0  0  0  0
   59.4650   31.1700   46.0030 C   0  0  0  0  0  0  0  0  0  0  0  0
   58.6360   30.2250   45.3900 C   0  0  0  0  0  0  0  0  0  0  0  0
   57.1444   27.3361   46.6741 H   0  0  0  0  0  0  0  0  0  0  0  0
   56.9032   26.4022   45.1588 H   0  0  0  0  0  0  0  0  0  0  0  0
   57.9557   27.8578   45.1588 H   0  0  0  0  0  0  0  0  0  0  0  0
   56.1184   32.2951   44.3554 H   0  0  0  0  0  0  0  0  0  0  0  0
   57.6050   33.9832   45.4339 H   0  0  0  0  0  0  0  0  0  0  0  0
   61.3624   35.1814   48.7492 H   0  0  0  0  0  0  0  0  0  0  0  0
   61.4860   34.0381   50.1716 H   0  0  0  0  0  0  0  0  0  0  0  0
   63.2506   34.1927   47.7080 H   0  0  0  0  0  0  0  0  0  0  0  0
   63.6818   34.3660   49.4750 H   0  0  0  0  0  0  0  0  0  0  0  0
   63.2971   31.8986   50.8504 H   0  0  0  0  0  0  0  0  0  0  0  0
   64.4936   30.9674   49.8263 H   0  0  0  0  0  0  0  0  0  0  0  0
   63.9187   34.0107   51.8478 H   0  0  0  0  0  0  0  0  0  0  0  0
   65.7849   35.4730   52.6247 H   0  0  0  0  0  0  0  0  0  0  0  0
   68.1006   35.1166   51.7588 H   0  0  0  0  0  0  0  0  0  0  0  0
   68.5514   33.2871   50.1210 H   0  0  0  0  0  0  0  0  0  0  0  0
   66.6926   31.8210   49.3379 H   0  0  0  0  0  0  0  0  0  0  0  0
   62.4828   31.5874   47.1079 H   0  0  0  0  0  0  0  0  0  0  0  0
   62.6357   30.4860   48.5496 H   0  0  0  0  0  0  0  0  0  0  0  0
   60.2810   31.2227   47.9982 H   0  0  0  0  0  0  0  0  0  0  0  0
   60.8684   31.5771   49.6863 H   0  0  0  0  0  0  0  0  0  0  0  0
   60.4182   30.8535   46.4516 H   0  0  0  0  0  0  0  0  0  0  0  0
   58.9324   29.1659   45.3703 H   0  0  0  0  0  0  0  0  0  0  0  0
  1  2  1  0
  2  3  1  0
  3  4  2  0
  3  5  2  0
  3  6  1  0
  6  7  2  0
  7  8  1  0
  8  9  2  0
  9 10  1  0
 10 11  2  0
 10 12  2  0
 10 13  1  0
 13 14  1  0
 14 15  1  0
 15 16  1  0
 16 17  1  0
 17 18  1  0
 18 19  2  0
 19 20  1  0
 20 21  2  0
 21 22  1  0
 22 23  2  0
 16 24  1  0
 24 25  1  0
  9 26  1  0
 26 27  2  0
 27  6  1  0
 25 13  1  0
 23 18  1  0
  1 28  1  0
  1 29  1  0
  1 30  1  0
  7 31  1  0
  8 32  1  0
 14 33  1  0
 14 34  1  0
 15 35  1  0
 15 36  1  0
 17 37  1  0
 17 38  1  0
 19 39  1  0
 20 40  1  0
 21 41  1  0
 22 42  1  0
 23 43  1  0
 24 44  1  0
 24 45  1  0
 25 46  1  0
 25 47  1  0
 26 48  1  0
 27 49  1  0
M  CHG  1   2  -1
M  END
>  <UniqueID>  (60) 
53

>  <SMILES>  (60) 
C[N-]S(=O)(=O)c1ccc(S(=O)(=O)N2CCN(Cc3ccccc3)CC2)cc1

>  <Energy>  (60) 
61.81124187402649

>  <Genealogy>  (60) 
C[N-]S(=O)(=O)c1ccc(S(=O)(=O)N2CCN(Cc3ccccc3)CC2)cc1 (protonated)
C[N-]S(=O)(=O)c1ccc(S(=O)(=O)N2CCN(Cc3ccccc3)CC2)cc1 (3D coordinates assigned)
C[N-]S(=O)(=O)c1ccc(S(=O)(=O)N2CCN(Cc3ccccc3)CC2)cc1 (nonaromatic ring conformer: 61.81124187402649 kcal/mol)

>  <smiles>  (60) 
CNS(=O)(=O)c1ccc(S(=O)(=O)N2CCN(Cc3ccccc3)CC2)cc1

>  <score_type>  (60) 
oracle

>  <origin>  (60) 
adg

>  <m_score__min__energy>  (60) 
-10.67

>  <m_primary>  (60) 
energy

$$$$
60:0
     RDKit          3D

 27 28  0  0  0  0  0  0  0  0999 V2000
   54.0810   24.9890   45.5890 C   0  0  0  0  0  0  0  0  0  0  0  0
   54.9510   26.0760   45.8790 O   0  0  0  0  0  0  0  0  0  0  0  0
   56.1750   25.9110   46.5380 C   0  0  0  0  0  0  0  0  0  0  0  0
   56.2670   25.0780   47.4800 O   0  0  0  0  0  0  0  0  0  0  0  0
   57.3500   26.7260   46.1220 C   0  0  0  0  0  0  0  0  0  0  0  0
   58.6430   26.2200   46.3670 C   0  0  0  0  0  0  0  0  0  0  0  0
   59.7760   26.9450   45.9980 C   0  0  0  0  0  0  0  0  0  0  0  0
   59.6410   28.1910   45.3900 C   0  0  0  0  0  0  0  0  0  0  0  0
   58.3730   28.7120   45.1390 C   0  0  0  0  0  0  0  0  0  0  0  0
   57.2160   27.9840   45.4800 C   0  0  0  0  0  0  0  0  0  0  0  0
   55.9120   28.5420   45.2480 N   0  0  0  0  0  0  0  0  0  0  0  0
   55.5470   29.4730   44.2200 C   0  0  0  0  0  0  0  0  0  0  0  0
   54.4570   29.3490   43.6000 O   0  0  0  0  0  0  0  0  0  0  0  0
   56.4240   30.6140   43.9220 C   0  0  0  0  0  0  0  0  0  0  0  0
   56.9660   30.8560   42.6540 C   0  0  0  0  0  0  0  0  0  0  0  0
   57.8740   32.2470   42.8380 S   0  0  0  0  0  0  0  0  0  0  0  0
   57.5700   32.4910   44.4470 N   0  0  0  0  0  0  0  0  0  0  0  0
   56.7720   31.5240   44.8840 N   0  0  0  0  0  0  0  0  0  0  0  0
   53.7246   24.5436   46.5295 H   0  0  0  0  0  0  0  0  0  0  0  0
   53.2216   25.3525   45.0066 H   0  0  0  0  0  0  0  0  0  0  0  0
   54.6240   24.2301   45.0066 H   0  0  0  0  0  0  0  0  0  0  0  0
   58.7597   25.2412   46.8553 H   0  0  0  0  0  0  0  0  0  0  0  0
   60.7778   26.5321   46.1874 H   0  0  0  0  0  0  0  0  0  0  0  0
   60.5363   28.7644   45.1077 H   0  0  0  0  0  0  0  0  0  0  0  0
   58.2745   29.7020   44.6697 H   0  0  0  0  0  0  0  0  0  0  0  0
   56.8253   30.2620   41.7390 H   0  0  0  0  0  0  0  0  0  0  0  0
   57.9340   33.2680   45.0400 H   0  0  0  0  0  0  0  0  0  0  0  0
  1  2  1  0
  2  3  1  0
  3  4  2  0
  3  5  1  0
  5  6  2  0
  6  7  1  0
  7  8  2  0
  8  9  1  0
  9 10  2  0
 10 11  1  0
 11 12  1  0
 12 13  2  0
 12 14  1  0
 14 15  2  0
 15 16  1  0
 16 17  1  0
 17 18  2  0
 10  5  1  0
 18 14  1  0
  1 19  1  0
  1 20  1  0
  1 21  1  0
  6 22  1  0
  7 23  1  0
  8 24  1  0
  9 25  1  0
 15 26  1  0
 17 27  1  0
M  CHG  2  11  -1  17   1
M  END
>  <UniqueID>  (61) 
54

>  <SMILES>  (61) 
COC(=O)c1ccccc1[N-]C(=O)c1cs[nH+]n1

>  <Energy>  (61) 
67.74535716640565

>  <Genealogy>  (61) 
COC(=O)c1ccccc1[N-]C(=O)c1cs[nH+]n1 (protonated)
COC(=O)c1ccccc1[N-]C(=O)c1cs[nH+]n1 (3D coordinates assigned)
COC(=O)c1ccccc1[N-]C(=O)c1cs[nH+]n1 (optimized conformer: 67.74535716640565 kcal/mol)

>  <smiles>  (61) 
COC(=O)c1ccccc1NC(=O)c1csnn1

>  <score_type>  (61) 
oracle

>  <origin>  (61) 
adg

>  <m_score__min__energy>  (61) 
-7.8300000000000001

>  <m_primary>  (61) 
energy

$$$$
61:0
     RDKit          3D

 36 38  0  0  0  0  0  0  0  0999 V2000
   54.3710   26.7110   45.9980 H   0  0  0  0  0  0  0  0  0  0  0  0
   55.3360   26.3150   46.0560 N   0  0  0  0  0  0  0  0  0  0  0  0
   56.3790   27.0790   46.0650 C   0  0  0  0  0  0  0  0  0  0  0  0
   56.5710   27.9900   45.0790 N   0  0  0  0  0  0  0  0  0  0  0  0
   57.6620   28.7960   45.0870 C   0  0  0  0  0  0  0  0  0  0  0  0
   57.8040   29.6570   44.1220 N   0  0  0  0  0  0  0  0  0  0  0  0
   57.0440   31.2140   44.0120 S   0  0  0  0  0  0  0  0  0  0  0  0
   55.6170   31.1240   44.4790 O   0  0  0  0  0  0  0  0  0  0  0  0
   57.0730   31.7020   42.5910 O   0  0  0  0  0  0  0  0  0  0  0  0
   57.9220   32.3450   45.0360 C   0  0  0  0  0  0  0  0  0  0  0  0
   58.1820   32.0270   46.3770 C   0  0  0  0  0  0  0  0  0  0  0  0
   57.8276   31.0725   46.7934 H   0  0  0  0  0  0  0  0  0  0  0  0
   58.8910   32.9210   47.1860 C   0  0  0  0  0  0  0  0  0  0  0  0
   59.0901   32.6697   48.2382 H   0  0  0  0  0  0  0  0  0  0  0  0
   59.3470   34.1330   46.6600 C   0  0  0  0  0  0  0  0  0  0  0  0
   60.0350   34.9980   47.4450 F   0  0  0  0  0  0  0  0  0  0  0  0
   59.0980   34.4500   45.3210 C   0  0  0  0  0  0  0  0  0  0  0  0
   59.4600   35.4020   44.9055 H   0  0  0  0  0  0  0  0  0  0  0  0
   58.3890   33.5580   44.5090 C   0  0  0  0  0  0  0  0  0  0  0  0
   58.1975   33.8086   43.4552 H   0  0  0  0  0  0  0  0  0  0  0  0
   58.5730   28.6830   46.1010 N   0  0  0  0  0  0  0  0  0  0  0  0
   59.4210   29.2900   46.1430 H   0  0  0  0  0  0  0  0  0  0  0  0
   58.3880   27.7630   47.0870 C   0  0  0  0  0  0  0  0  0  0  0  0
   59.2550   27.6830   48.0580 N   0  0  0  0  0  0  0  0  0  0  0  0
   59.9880   28.7680   48.6520 C   0  0  0  0  0  0  0  0  0  0  0  0
   59.8590   28.9920   50.0290 C   0  0  0  0  0  0  0  0  0  0  0  0
   59.2256   28.3261   50.6335 H   0  0  0  0  0  0  0  0  0  0  0  0
   60.5290   30.0550   50.6400 C   0  0  0  0  0  0  0  0  0  0  0  0
   60.4347   30.2130   51.7245 H   0  0  0  0  0  0  0  0  0  0  0  0
   61.3190   30.9180   49.8750 C   0  0  0  0  0  0  0  0  0  0  0  0
   61.8538   31.7486   50.3588 H   0  0  0  0  0  0  0  0  0  0  0  0
   61.4290   30.7250   48.4950 C   0  0  0  0  0  0  0  0  0  0  0  0
   62.3930   31.8270   47.5300 Cl  0  0  0  0  0  0  0  0  0  0  0  0
   60.7580   29.6600   47.8810 C   0  0  0  0  0  0  0  0  0  0  0  0
   60.8327   29.5198   46.7925 H   0  0  0  0  0  0  0  0  0  0  0  0
   57.2840   26.9700   47.0670 N   0  0  0  0  0  0  0  0  0  0  0  0
  1  2  1  0
  2  3  2  0
  3  4  1  0
  4  5  1  0
  5  6  2  3
  6  7  1  0
  7  8  2  0
  7  9  2  0
  7 10  1  0
 10 11  2  0
 11 12  1  0
 11 13  1  0
 13 14  1  0
 13 15  2  0
 15 16  1  0
 15 17  1  0
 17 18  1  0
 17 19  2  0
 19 20  1  0
  5 21  1  0
 21 22  1  0
 21 23  1  0
 23 24  2  0
 24 25  1  0
 25 26  2  0
 26 27  1  0
 26 28  1  0
 28 29  1  0
 28 30  2  0
 30 31  1  0
 30 32  1  0
 32 33  1  0
 32 34  2  0
 34 35  1  0
 23 36  1  0
 36  3  1  0
 19 10  1  0
 34 25  1  0
M  CHG  2   4  -1  36  -1
M  END
>  <UniqueID>  (62) 
55

>  <SMILES>  (62) 
[H]/N=c1\[n-]c(=NS(=O)(=O)c2ccc(F)cc2)[nH]/c(=N/c2cccc(Cl)c2)[n-]1

>  <Energy>  (62) 
51.224478774394676

>  <Genealogy>  (62) 
N=c1[n-]c(=Nc2cccc(Cl)c2)[nH]c(=NS(=O)(=O)c2ccc(F)cc2)[n-]1 (protonated)
[H]/N=c1\[n-]c(=NS(=O)(=O)c2ccc(F)cc2)[nH]/c(=N/c2cccc(Cl)c2)[n-]1 (cis-trans isomerization)
[H]/N=c1\[n-]c(=NS(=O)(=O)c2ccc(F)cc2)[nH]/c(=N/c2cccc(Cl)c2)[n-]1 (3D coordinates assigned)
[H]/N=c1\[n-]c(=NS(=O)(=O)c2ccc(F)cc2)[nH]/c(=N/c2cccc(Cl)c2)[n-]1 (optimized conformer: 51.224478774394676 kcal/mol)

>  <smiles>  (62) 
N=c1[nH]c(=Nc2cccc(Cl)c2)[nH]c(=NS(=O)(=O)c2ccc(F)cc2)[nH]1

>  <score_type>  (62) 
oracle

>  <origin>  (62) 
adg

>  <m_score__min__energy>  (62) 
-12.09

>  <m_primary>  (62) 
energy

$$$$
62:0
     RDKit          3D

 33 35  0  0  0  0  0  0  0  0999 V2000
   57.1440   27.9240   45.2120 C   0  0  0  0  0  0  0  0  0  0  0  0
   56.6700   29.2210   44.5240 C   0  0  2  0  0  0  0  0  0  0  0  0
   55.3290   29.4350   44.8940 O   0  0  0  0  0  0  0  0  0  0  0  0
   56.7580   28.9900   42.9910 C   0  0  0  0  0  0  0  0  0  0  0  0
   56.5080   30.2230   42.2570 N   0  0  0  0  0  0  0  0  0  0  0  0
   57.1210   31.4390   42.6840 C   0  0  0  0  0  0  0  0  0  0  0  0
   57.1260   32.4390   41.9180 O   0  0  0  0  0  0  0  0  0  0  0  0
   57.7110   31.5120   44.0360 C   0  0  0  0  0  0  0  0  0  0  0  0
   58.4350   32.6490   44.4350 C   0  0  0  0  0  0  0  0  0  0  0  0
   58.9340   32.7590   45.7340 C   0  0  0  0  0  0  0  0  0  0  0  0
   59.6970   33.9270   46.0840 N   0  0  0  0  0  0  0  0  0  0  0  0
   60.7680   33.9700   46.8210 C   0  0  0  0  0  0  0  0  0  0  0  0
   62.0040   33.7400   46.2910 N   0  0  0  0  0  0  0  0  0  0  0  0
   63.1160   33.7620   47.0690 C   0  0  0  0  0  0  0  0  0  0  0  0
   63.0040   34.0140   48.4360 C   0  0  0  0  0  0  0  0  0  0  0  0
   61.7350   34.2340   48.9670 C   0  0  0  0  0  0  0  0  0  0  0  0
   60.6460   34.2050   48.1550 N   0  0  0  0  0  0  0  0  0  0  0  0
   58.7370   31.7020   46.6360 C   0  0  0  0  0  0  0  0  0  0  0  0
   58.0200   30.5690   46.2520 C   0  0  0  0  0  0  0  0  0  0  0  0
   57.5190   30.4370   44.9390 C   0  0  0  0  0  0  0  0  0  0  0  0
   57.0979   28.0501   46.3038 H   0  0  0  0  0  0  0  0  0  0  0  0
   56.4925   27.0903   44.9114 H   0  0  0  0  0  0  0  0  0  0  0  0
   58.1796   27.7069   44.9114 H   0  0  0  0  0  0  0  0  0  0  0  0
   55.3130   30.1050   45.6260 H   0  0  0  0  0  0  0  0  0  0  0  0
   57.7637   28.6213   42.7409 H   0  0  0  0  0  0  0  0  0  0  0  0
   55.9925   28.2535   42.7054 H   0  0  0  0  0  0  0  0  0  0  0  0
   55.9360   30.2030   41.3840 H   0  0  0  0  0  0  0  0  0  0  0  0
   58.6104   33.4618   43.7149 H   0  0  0  0  0  0  0  0  0  0  0  0
   64.1045   33.5812   46.6217 H   0  0  0  0  0  0  0  0  0  0  0  0
   63.8959   34.0385   49.0793 H   0  0  0  0  0  0  0  0  0  0  0  0
   61.6148   34.4310   50.0425 H   0  0  0  0  0  0  0  0  0  0  0  0
   59.1510   31.7676   47.6530 H   0  0  0  0  0  0  0  0  0  0  0  0
   57.8423   29.7665   46.9831 H   0  0  0  0  0  0  0  0  0  0  0  0
  1  2  1  0
  2  3  1  6
  2  4  1  0
  4  5  1  0
  5  6  1  0
  6  7  2  0
  6  8  1  0
  8  9  2  0
  9 10  1  0
 10 11  1  0
 11 12  2  3
 12 13  1  0
 13 14  2  0
 14 15  1  0
 15 16  2  0
 16 17  1  0
 10 18  2  0
 18 19  1  0
 19 20  2  0
 20  2  1  0
 20  8  1  0
 17 12  1  0
  1 21  1  0
  1 22  1  0
  1 23  1  0
  3 24  1  0
  4 25  1  0
  4 26  1  0
  5 27  1  0
  9 28  1  0
 14 29  1  0
 15 30  1  0
 16 31  1  0
 18 32  1  0
 19 33  1  0
M  CHG  1  17  -1
M  END
>  <UniqueID>  (63) 
56

>  <SMILES>  (63) 
C[C@]1(O)CNC(=O)c2cc(N=c3nccc[n-]3)ccc21

>  <Energy>  (63) 
46.53668116208079

>  <Genealogy>  (63) 
CC1(O)CNC(=O)c2cc(N=c3nccc[n-]3)ccc21 (protonated)
C[C@]1(O)CNC(=O)c2cc(N=c3nccc[n-]3)ccc21 (chirality)
C[C@]1(O)CNC(=O)c2cc(N=c3nccc[n-]3)ccc21 (3D coordinates assigned)
C[C@]1(O)CNC(=O)c2cc(N=c3nccc[n-]3)ccc21 (nonaromatic ring conformer: 46.53668116208079 kcal/mol)

>  <smiles>  (63) 
CC1(O)CNC(=O)c2cc(N=c3nccc[nH]3)ccc21

>  <score_type>  (63) 
oracle

>  <origin>  (63) 
adg

>  <m_score__min__energy>  (63) 
-8.7100000000000009

>  <m_primary>  (63) 
energy

$$$$
63:0
     RDKit          3D

 58 60  0  0  0  0  0  0  0  0999 V2000
   56.2450   23.0000   43.0020 C   0  0  0  0  0  0  0  0  0  0  0  0
   55.7530   23.9790   43.9110 O   0  0  0  0  0  0  0  0  0  0  0  0
   56.5500   24.6890   44.8200 C   0  0  0  0  0  0  0  0  0  0  0  0
   57.9490   24.5400   44.8620 C   0  0  0  0  0  0  0  0  0  0  0  0
   58.7100   25.2800   45.7690 C   0  0  0  0  0  0  0  0  0  0  0  0
   58.0930   26.2000   46.6300 C   0  0  0  0  0  0  0  0  0  0  0  0
   58.9130   26.9920   47.6150 C   0  0  0  0  0  0  0  0  0  0  0  0
   60.2070   27.5110   46.9610 C   0  0  0  0  0  0  0  0  0  0  0  0
   60.0530   28.8980   46.4690 N   0  0  2  0  0  0  0  0  0  0  0  0
   60.8390   29.0950   45.2390 C   0  0  0  0  0  0  0  0  0  0  0  0
   60.4700   29.8650   47.4700 C   0  0  0  0  0  0  0  0  0  0  0  0
   60.0530   29.7760   48.6180 O   0  0  0  0  0  0  0  0  0  0  0  0
   61.4600   30.9560   47.1320 C   0  0  0  0  0  0  0  0  0  0  0  0
   60.7730   32.2850   46.9920 C   0  0  0  0  0  0  0  0  0  0  0  0
   61.2410   33.5080   47.4700 C   0  0  0  0  0  0  0  0  0  0  0  0
   60.3590   34.4940   47.1900 N   0  0  0  0  0  0  0  0  0  0  0  0
   59.3380   33.9040   46.5460 C   0  0  0  0  0  0  0  0  0  0  0  0
   58.1910   34.5170   46.0470 C   0  0  0  0  0  0  0  0  0  0  0  0
   57.2510   33.7100   45.3800 C   0  0  0  0  0  0  0  0  0  0  0  0
   57.4650   32.3210   45.2270 C   0  0  0  0  0  0  0  0  0  0  0  0
   56.4830   31.5570   44.5110 N   0  0  0  0  0  0  0  0  0  0  0  0
   56.4570   29.8260   44.3780 S   0  0  0  0  0  0  0  0  0  0  0  0
   56.6400   29.3240   42.6730 C   0  0  0  0  0  0  0  0  0  0  0  0
   55.1430   29.3240   44.8980 O   0  0  0  0  0  0  0  0  0  0  0  0
   57.5590   29.2360   45.2160 O   0  0  0  0  0  0  0  0  0  0  0  0
   58.6380   31.7310   45.7540 C   0  0  0  0  0  0  0  0  0  0  0  0
   59.5520   32.5570   46.4070 C   0  0  0  0  0  0  0  0  0  0  0  0
   56.6970   26.3340   46.6030 C   0  0  0  0  0  0  0  0  0  0  0  0
   55.9200   25.5760   45.7050 C   0  0  0  0  0  0  0  0  0  0  0  0
   54.5190   25.6810   45.6620 O   0  0  0  0  0  0  0  0  0  0  0  0
   53.6280   24.5730   45.5980 C   0  0  0  0  0  0  0  0  0  0  0  0
   56.6691   22.1562   43.5661 H   0  0  0  0  0  0  0  0  0  0  0  0
   55.4205   22.6404   42.3688 H   0  0  0  0  0  0  0  0  0  0  0  0
   57.0255   23.4470   42.3688 H   0  0  0  0  0  0  0  0  0  0  0  0
   58.4453   23.8370   44.1768 H   0  0  0  0  0  0  0  0  0  0  0  0
   59.8004   25.1408   45.8088 H   0  0  0  0  0  0  0  0  0  0  0  0
   58.3208   27.8481   47.9706 H   0  0  0  0  0  0  0  0  0  0  0  0
   59.1828   26.3358   48.4556 H   0  0  0  0  0  0  0  0  0  0  0  0
   61.0176   27.4842   47.7041 H   0  0  0  0  0  0  0  0  0  0  0  0
   60.4394   26.8658   46.1010 H   0  0  0  0  0  0  0  0  0  0  0  0
   59.0490   29.0510   46.2170 H   0  0  0  0  0  0  0  0  0  0  0  0
   61.8747   29.3546   45.5033 H   0  0  0  0  0  0  0  0  0  0  0  0
   60.8330   28.1676   44.6475 H   0  0  0  0  0  0  0  0  0  0  0  0
   60.3963   29.9100   44.6475 H   0  0  0  0  0  0  0  0  0  0  0  0
   62.2099   31.0219   47.9341 H   0  0  0  0  0  0  0  0  0  0  0  0
   61.9399   30.7079   46.1738 H   0  0  0  0  0  0  0  0  0  0  0  0
   62.1940   33.6509   48.0005 H   0  0  0  0  0  0  0  0  0  0  0  0
   60.4560   35.5080   47.4290 H   0  0  0  0  0  0  0  0  0  0  0  0
   58.0254   35.5974   46.1705 H   0  0  0  0  0  0  0  0  0  0  0  0
   56.3370   34.1662   44.9720 H   0  0  0  0  0  0  0  0  0  0  0  0
   57.0165   28.2912   42.6332 H   0  0  0  0  0  0  0  0  0  0  0  0
   55.6643   29.3783   42.1680 H   0  0  0  0  0  0  0  0  0  0  0  0
   57.3519   29.9935   42.1680 H   0  0  0  0  0  0  0  0  0  0  0  0
   58.8236   30.6516   45.6515 H   0  0  0  0  0  0  0  0  0  0  0  0
   56.2041   27.0379   47.2897 H   0  0  0  0  0  0  0  0  0  0  0  0
   53.3692   24.2512   46.6176 H   0  0  0  0  0  0  0  0  0  0  0  0
   52.7132   24.8686   45.0635 H   0  0  0  0  0  0  0  0  0  0  0  0
   54.1130   23.7429   45.0635 H   0  0  0  0  0  0  0  0  0  0  0  0
  1  2  1  0
  2  3  1  0
  3  4  2  0
  4  5  1  0
  5  6  2  0
  6  7  1  0
  7  8  1  0
  8  9  1  0
  9 10  1  0
  9 11  1  0
 11 12  2  0
 11 13  1  0
 13 14  1  0
 14 15  2  0
 15 16  1  0
 16 17  1  0
 17 18  2  0
 18 19  1  0
 19 20  2  0
 20 21  1  0
 21 22  1  0
 22 23  1  0
 22 24  2  0
 22 25  2  0
 20 26  1  0
 26 27  2  0
  6 28  1  0
 28 29  2  0
 29 30  1  0
 30 31  1  0
 29  3  1  0
 27 14  1  0
 27 17  1  0
  1 32  1  0
  1 33  1  0
  1 34  1  0
  4 35  1  0
  5 36  1  0
  7 37  1  0
  7 38  1  0
  8 39  1  0
  8 40  1  0
  9 41  1  6
 10 42  1  0
 10 43  1  0
 10 44  1  0
 13 45  1  0
 13 46  1  0
 15 47  1  0
 16 48  1  0
 18 49  1  0
 19 50  1  0
 23 51  1  0
 23 52  1  0
 23 53  1  0
 26 54  1  0
 28 55  1  0
 31 56  1  0
 31 57  1  0
 31 58  1  0
M  CHG  2   9   1  21  -1
M  END
>  <UniqueID>  (64) 
57

>  <SMILES>  (64) 
COc1ccc(CC[N@H+](C)C(=O)Cc2c[nH]c3ccc([N-]S(C)(=O)=O)cc23)cc1OC

>  <Energy>  (64) 
84.75862325858213

>  <Genealogy>  (64) 
COc1ccc(CC[NH+](C)C(=O)Cc2c[nH]c3ccc([N-]S(C)(=O)=O)cc23)cc1OC (protonated)
COc1ccc(CC[N@H+](C)C(=O)Cc2c[nH]c3ccc([N-]S(C)(=O)=O)cc23)cc1OC (chirality)
COc1ccc(CC[N@H+](C)C(=O)Cc2c[nH]c3ccc([N-]S(C)(=O)=O)cc23)cc1OC (3D coordinates assigned)
COc1ccc(CC[N@H+](C)C(=O)Cc2c[nH]c3ccc([N-]S(C)(=O)=O)cc23)cc1OC (optimized conformer: 84.75862325858213 kcal/mol)

>  <smiles>  (64) 
COc1ccc(CCN(C)C(=O)Cc2c[nH]c3ccc(NS(C)(=O)=O)cc23)cc1OC

>  <score_type>  (64) 
oracle

>  <origin>  (64) 
adg

>  <m_score__min__energy>  (64) 
-9.5500000000000007

>  <m_primary>  (64) 
energy

$$$$
64:0
     RDKit          3D

 33 34  0  0  0  0  0  0  0  0999 V2000
   57.9134   35.0043   44.8063 H   0  0  0  0  0  0  0  0  0  0  0  0
   58.0230   33.9770   45.1840 C   0  0  0  0  0  0  0  0  0  0  0  0
   57.4410   32.9130   44.4880 C   0  0  0  0  0  0  0  0  0  0  0  0
   56.8744   33.1070   43.5653 H   0  0  0  0  0  0  0  0  0  0  0  0
   57.5760   31.6020   44.9600 C   0  0  0  0  0  0  0  0  0  0  0  0
   56.8140   30.2770   44.0850 S   0  0  0  0  0  0  0  0  0  0  0  0
   56.7710   30.5660   42.6100 O   0  0  0  0  0  0  0  0  0  0  0  0
   55.4070   30.1070   44.5830 O   0  0  0  0  0  0  0  0  0  0  0  0
   57.6980   28.8130   44.3600 N   0  0  0  0  0  0  0  0  0  0  0  0
   57.2860   27.8990   45.1830 C   0  0  0  0  0  0  0  0  0  0  0  0
   56.0340   27.7120   45.5310 O   0  0  0  0  0  0  0  0  0  0  0  0
   55.9470   26.7070   46.3510 N   0  0  0  0  0  0  0  0  0  0  0  0
   55.0580   26.3540   46.7710 H   0  0  0  0  0  0  0  0  0  0  0  0
   57.1860   26.2100   46.5430 C   0  0  0  0  0  0  0  0  0  0  0  0
   57.5040   25.0410   47.4200 C   0  0  0  0  0  0  0  0  0  0  0  0
   57.4223   25.3412   48.4751 H   0  0  0  0  0  0  0  0  0  0  0  0
   56.7951   24.2252   47.2150 H   0  0  0  0  0  0  0  0  0  0  0  0
   58.5284   24.6967   47.2150 H   0  0  0  0  0  0  0  0  0  0  0  0
   58.0880   26.9720   45.8190 C   0  0  0  0  0  0  0  0  0  0  0  0
   59.5590   26.7550   45.6550 C   0  0  0  0  0  0  0  0  0  0  0  0
   60.0320   26.6852   46.6456 H   0  0  0  0  0  0  0  0  0  0  0  0
   59.7322   25.8216   45.0994 H   0  0  0  0  0  0  0  0  0  0  0  0
   59.9944   27.5986   45.0994 H   0  0  0  0  0  0  0  0  0  0  0  0
   58.2920   31.3620   46.1400 C   0  0  0  0  0  0  0  0  0  0  0  0
   58.3959   30.3347   46.5193 H   0  0  0  0  0  0  0  0  0  0  0  0
   58.8750   32.4250   46.8370 C   0  0  0  0  0  0  0  0  0  0  0  0
   59.4370   32.2281   47.7618 H   0  0  0  0  0  0  0  0  0  0  0  0
   58.7490   33.7380   46.3670 C   0  0  0  0  0  0  0  0  0  0  0  0
   59.3510   34.7700   47.1020 O   0  0  0  0  0  0  0  0  0  0  0  0
   60.0410   34.5820   48.3340 C   0  0  0  0  0  0  0  0  0  0  0  0
   59.3532   34.7694   49.1718 H   0  0  0  0  0  0  0  0  0  0  0  0
   60.4152   33.5492   48.3908 H   0  0  0  0  0  0  0  0  0  0  0  0
   60.8874   35.2823   48.3908 H   0  0  0  0  0  0  0  0  0  0  0  0
  1  2  1  0
  2  3  2  0
  3  4  1  0
  3  5  1  0
  5  6  1  0
  6  7  2  0
  6  8  2  0
  6  9  1  0
  9 10  2  0
 10 11  1  0
 11 12  1  0
 12 13  1  0
 12 14  1  0
 14 15  1  0
 15 16  1  0
 15 17  1  0
 15 18  1  0
 14 19  2  0
 19 20  1  0
 20 21  1  0
 20 22  1  0
 20 23  1  0
  5 24  2  0
 24 25  1  0
 24 26  1  0
 26 27  1  0
 26 28  2  0
 28 29  1  0
 29 30  1  0
 30 31  1  0
 30 32  1  0
 30 33  1  0
 28  2  1  0
 19 10  1  0
M  END
>  <UniqueID>  (65) 
58

>  <SMILES>  (65) 
COc1ccc(S(=O)(=O)/N=c2\o[nH]c(C)c2C)cc1

>  <Energy>  (65) 
65.12444086716627

>  <Genealogy>  (65) 
COc1ccc(S(=O)(=O)/N=c2\o[nH]c(C)c2C)cc1 (cis-trans isomerization)
COc1ccc(S(=O)(=O)/N=c2\o[nH]c(C)c2C)cc1 (3D coordinates assigned)
COc1ccc(S(=O)(=O)/N=c2\o[nH]c(C)c2C)cc1 (optimized conformer: 65.12444086716627 kcal/mol)

>  <smiles>  (65) 
COc1ccc(S(=O)(=O)N=c2o[nH]c(C)c2C)cc1

>  <score_type>  (65) 
oracle

>  <origin>  (65) 
adg

>  <m_score__min__energy>  (65) 
-7.6500000000000004

>  <m_primary>  (65) 
energy

$$$$
65:0
     RDKit          3D

 59 61  0  0  1  0  0  0  0  0999 V2000
   67.3100   33.4870   50.8640 C   0  0  0  0  0  0  0  0  0  0  0  0
   66.6070   32.9660   49.7460 O   0  0  0  0  0  0  0  0  0  0  0  0
   65.2560   32.6650   49.8300 C   0  0  0  0  0  0  0  0  0  0  0  0
   64.2890   33.4530   49.2600 C   0  0  0  0  0  0  0  0  0  0  0  0
   62.9690   33.0660   49.4010 C   0  0  0  0  0  0  0  0  0  0  0  0
   61.8920   33.8120   48.8340 N   0  0  0  0  0  0  0  0  0  0  0  0
   61.0990   33.2550   47.7810 C   0  0  0  0  0  0  0  0  0  0  0  0
   61.3930   32.0980   47.4050 O   0  0  0  0  0  0  0  0  0  0  0  0
   60.0440   33.9750   47.2060 N   0  0  0  0  0  0  0  0  0  0  0  0
   59.1660   33.5440   46.1930 C   0  0  0  0  0  0  0  0  0  0  0  0
   58.2820   34.3400   45.5080 C   0  0  0  0  0  0  0  0  0  0  0  0
   57.4440   33.8290   44.5110 C   0  0  0  0  0  0  0  0  0  0  0  0
   57.4710   32.4940   44.1710 C   0  0  0  0  0  0  0  0  0  0  0  0
   58.3570   31.6950   44.8580 C   0  0  0  0  0  0  0  0  0  0  0  0
   58.4560   30.3080   44.5710 N   0  0  0  0  0  0  0  0  0  0  0  0
   58.6910   29.3050   45.5400 C   0  0  0  0  0  0  0  0  0  0  0  0
   59.8950   29.3580   46.1780 N   0  0  0  0  0  0  0  0  0  0  0  0
   60.2470   28.4740   47.1200 C   0  0  0  0  0  0  0  0  0  0  0  0
   59.3670   27.5070   47.4320 N   0  0  0  0  0  0  0  0  0  0  0  0
   58.1690   27.4050   46.8380 C   0  0  0  0  0  0  0  0  0  0  0  0
   57.3960   26.4430   47.2090 N   0  0  0  0  0  0  0  0  0  0  0  0
   56.4780   25.5300   46.0340 S   0  0  0  0  0  0  0  0  0  0  0  0
   56.3750   23.8470   46.5910 C   0  0  0  0  0  0  0  0  0  0  0  0
   55.1220   26.1750   45.9240 O   0  0  0  0  0  0  0  0  0  0  0  0
   57.1990   25.6320   44.7250 O   0  0  0  0  0  0  0  0  0  0  0  0
   57.8020   28.3110   45.8700 C   0  0  0  0  0  0  0  0  0  0  0  0
   56.5780   28.2330   45.2410 O   0  0  0  0  0  0  0  0  0  0  0  0
   59.1780   32.2000   45.8370 C   0  0  0  0  0  0  0  0  0  0  0  0
   62.6340   31.9250   50.0920 C   0  0  0  0  0  0  0  0  0  0  0  0
   63.5870   31.1170   50.6740 C   0  0  0  0  0  0  0  0  0  0  0  0
   63.2370   29.9700   51.3660 O   0  0  0  0  0  0  0  0  0  0  0  0
   61.9840   29.3610   51.0780 C   0  0  0  0  0  0  0  0  0  0  0  0
   64.9050   31.5120   50.5280 C   0  0  0  0  0  0  0  0  0  0  0  0
   65.8680   30.6900   51.1200 O   0  0  0  0  0  0  0  0  0  0  0  0
   65.9200   30.7090   52.5220 C   0  0  0  0  0  0  0  0  0  0  0  0
   66.8354   33.1353   51.7919 H   0  0  0  0  0  0  0  0  0  0  0  0
   68.3544   33.1431   50.8331 H   0  0  0  0  0  0  0  0  0  0  0  0
   67.2849   34.5863   50.8331 H   0  0  0  0  0  0  0  0  0  0  0  0
   64.5556   34.3658   48.7071 H   0  0  0  0  0  0  0  0  0  0  0  0
   61.6730   34.7720   49.1840 H   0  0  0  0  0  0  0  0  0  0  0  0
   59.9050   34.9620   47.5940 H   0  0  0  0  0  0  0  0  0  0  0  0
   58.2310   35.4118   45.7502 H   0  0  0  0  0  0  0  0  0  0  0  0
   56.7510   34.5053   43.9891 H   0  0  0  0  0  0  0  0  0  0  0  0
   56.8155   32.0859   43.3876 H   0  0  0  0  0  0  0  0  0  0  0  0
   58.3550   29.9570   43.5710 H   0  0  0  0  0  0  0  0  0  0  0  0
   60.5980   30.1040   45.9540 H   0  0  0  0  0  0  0  0  0  0  0  0
   61.2238   28.5370   47.6219 H   0  0  0  0  0  0  0  0  0  0  0  0
   56.3736   23.8242   47.6908 H   0  0  0  0  0  0  0  0  0  0  0  0
   55.4473   23.3920   46.2136 H   0  0  0  0  0  0  0  0  0  0  0  0
   57.2403   23.2823   46.2136 H   0  0  0  0  0  0  0  0  0  0  0  0
   56.2980   27.4790   44.6470 H   0  0  0  0  0  0  0  0  0  0  0  0
   59.8677   31.5184   46.3564 H   0  0  0  0  0  0  0  0  0  0  0  0
   61.5731   31.6488   50.1830 H   0  0  0  0  0  0  0  0  0  0  0  0
   61.4722   29.1123   52.0194 H   0  0  0  0  0  0  0  0  0  0  0  0
   61.3629   30.0577   50.4960 H   0  0  0  0  0  0  0  0  0  0  0  0
   62.1481   28.4421   50.4960 H   0  0  0  0  0  0  0  0  0  0  0  0
   64.9602   30.3583   52.9293 H   0  0  0  0  0  0  0  0  0  0  0  0
   66.7285   30.0482   52.8679 H   0  0  0  0  0  0  0  0  0  0  0  0
   66.1121   31.7354   52.8679 H   0  0  0  0  0  0  0  0  0  0  0  0
  1  2  1  0
  2  3  1  0
  3  4  2  0
  4  5  1  0
  5  6  1  0
  6  7  1  0
  7  8  2  0
  7  9  1  0
  9 10  1  0
 10 11  2  0
 11 12  1  0
 12 13  2  0
 13 14  1  0
 14 15  1  0
 15 16  1  0
 16 17  1  0
 17 18  1  0
 18 19  2  0
 19 20  1  0
 20 21  2  0
 21 22  1  0
 22 23  1  0
 22 24  2  0
 22 25  2  0
 20 26  1  0
 26 27  1  0
 14 28  2  0
  5 29  2  0
 29 30  1  0
 30 31  1  0
 31 32  1  0
 30 33  2  0
 33 34  1  0
 34 35  1  0
 33  3  1  0
 28 10  1  0
 26 16  2  0
  1 36  1  0
  1 37  1  0
  1 38  1  0
  4 39  1  0
  6 40  1  0
  9 41  1  0
 11 42  1  0
 12 43  1  0
 13 44  1  0
 15 45  1  0
 17 46  1  0
 18 47  1  0
 23 48  1  0
 23 49  1  0
 23 50  1  0
 27 51  1  0
 28 52  1  0
 29 53  1  0
 32 54  1  0
 32 55  1  0
 32 56  1  0
 35 57  1  0
 35 58  1  0
 35 59  1  0
M  END
>  <smiles>  (66) 
COc1cc(NC(=O)Nc2cccc(Nc3[nH]cnc(=NS(C)(=O)=O)c3O)c2)cc(OC)c1OC

>  <score_type>  (66) 
oracle

>  <origin>  (66) 
adg

>  <m_score__min__energy>  (66) 
-9

>  <m_primary>  (66) 
energy

$$$$
66:0
     RDKit          3D

 43 45  0  0  0  0  0  0  0  0999 V2000
   55.3580   29.3150   44.6460 N   0  0  0  0  0  0  0  0  0  0  0  0
   56.1820   29.7370   43.5560 C   0  0  0  0  0  0  0  0  0  0  0  0
   56.2410   29.0120   42.5250 O   0  0  0  0  0  0  0  0  0  0  0  0
   56.9780   30.9880   43.6180 C   0  0  0  0  0  0  0  0  0  0  0  0
   57.4290   31.5910   42.4300 C   0  0  0  0  0  0  0  0  0  0  0  0
   58.1900   32.7610   42.4720 C   0  0  0  0  0  0  0  0  0  0  0  0
   58.5120   33.3450   43.6980 C   0  0  0  0  0  0  0  0  0  0  0  0
   58.0750   32.7580   44.8920 C   0  0  0  0  0  0  0  0  0  0  0  0
   58.5040   33.4810   46.4420 S   0  0  0  0  0  0  0  0  0  0  0  0
   57.4380   33.2120   47.4680 O   0  0  0  0  0  0  0  0  0  0  0  0
   58.6330   34.9650   46.2490 O   0  0  0  0  0  0  0  0  0  0  0  0
   60.0200   32.8590   47.0160 N   0  0  0  0  0  0  0  0  0  0  0  0
   60.2270   31.7100   47.8540 C   0  0  0  0  0  0  0  0  0  0  0  0
   60.9370   31.9020   49.0480 C   0  0  0  0  0  0  0  0  0  0  0  0
   61.2050   30.8280   49.8990 C   0  0  0  0  0  0  0  0  0  0  0  0
   60.7520   29.5500   49.5750 C   0  0  0  0  0  0  0  0  0  0  0  0
   60.0230   29.3450   48.4050 C   0  0  0  0  0  0  0  0  0  0  0  0
   59.7510   30.4170   47.5320 C   0  0  0  0  0  0  0  0  0  0  0  0
   58.9530   30.2140   46.3990 O   0  0  0  0  0  0  0  0  0  0  0  0
   58.6070   28.9650   45.8620 C   0  0  0  0  0  0  0  0  0  0  0  0
   59.4230   28.4120   44.8720 C   0  0  0  0  0  0  0  0  0  0  0  0
   59.1400   27.1500   44.3480 C   0  0  0  0  0  0  0  0  0  0  0  0
   58.0480   26.4200   44.8230 C   0  0  0  0  0  0  0  0  0  0  0  0
   57.2230   26.9500   45.8310 C   0  0  0  0  0  0  0  0  0  0  0  0
   56.0880   26.1680   46.3660 C   0  0  0  0  0  0  0  0  0  0  0  0
   56.2910   25.1870   47.1320 O   0  0  0  0  0  0  0  0  0  0  0  0
   54.7820   26.5050   46.0350 O   0  0  0  0  0  0  0  0  0  0  0  0
   57.5060   28.2290   46.3410 C   0  0  0  0  0  0  0  0  0  0  0  0
   57.2930   31.5950   44.8490 C   0  0  0  0  0  0  0  0  0  0  0  0
   55.3830   29.7910   45.5740 H   0  0  0  0  0  0  0  0  0  0  0  0
   54.7750   28.4550   44.5530 H   0  0  0  0  0  0  0  0  0  0  0  0
   57.1801   31.1370   41.4595 H   0  0  0  0  0  0  0  0  0  0  0  0
   58.5367   33.2237   41.5362 H   0  0  0  0  0  0  0  0  0  0  0  0
   59.1100   34.2678   43.7265 H   0  0  0  0  0  0  0  0  0  0  0  0
   61.2866   32.9097   49.3171 H   0  0  0  0  0  0  0  0  0  0  0  0
   61.7742   30.9905   50.8261 H   0  0  0  0  0  0  0  0  0  0  0  0
   60.9699   28.7035   50.2427 H   0  0  0  0  0  0  0  0  0  0  0  0
   59.6566   28.3370   48.1608 H   0  0  0  0  0  0  0  0  0  0  0  0
   60.2935   28.9746   44.5035 H   0  0  0  0  0  0  0  0  0  0  0  0
   59.7791   26.7286   43.5581 H   0  0  0  0  0  0  0  0  0  0  0  0
   57.8322   25.4251   44.4063 H   0  0  0  0  0  0  0  0  0  0  0  0
   56.8613   28.6591   47.1217 H   0  0  0  0  0  0  0  0  0  0  0  0
   56.9222   31.1527   45.7854 H   0  0  0  0  0  0  0  0  0  0  0  0
  1  2  1  0
  2  3  2  0
  2  4  1  0
  4  5  2  0
  5  6  1  0
  6  7  2  0
  7  8  1  0
  8  9  1  0
  9 10  2  0
  9 11  2  0
  9 12  1  0
 12 13  1  0
 13 14  2  0
 14 15  1  0
 15 16  2  0
 16 17  1  0
 17 18  2  0
 18 19  1  0
 19 20  1  0
 20 21  2  0
 21 22  1  0
 22 23  2  0
 23 24  1  0
 24 25  1  0
 25 26  2  0
 25 27  1  0
 24 28  2  0
  8 29  2  0
 29  4  1  0
 18 13  1  0
 28 20  1  0
  1 30  1  0
  1 31  1  0
  5 32  1  0
  6 33  1  0
  7 34  1  0
 14 35  1  0
 15 36  1  0
 16 37  1  0
 17 38  1  0
 21 39  1  0
 22 40  1  0
 23 41  1  0
 28 42  1  0
 29 43  1  0
M  CHG  2  12  -1  27  -1
M  END
>  <UniqueID>  (67) 
59

>  <SMILES>  (67) 
NC(=O)c1cccc(S(=O)(=O)[N-]c2ccccc2Oc2cccc(C(=O)[O-])c2)c1

>  <Energy>  (67) 
54.437605570244536

>  <Genealogy>  (67) 
NC(=O)c1cccc(S(=O)(=O)[N-]c2ccccc2Oc2cccc(C(=O)[O-])c2)c1 (protonated)
NC(=O)c1cccc(S(=O)(=O)[N-]c2ccccc2Oc2cccc(C(=O)[O-])c2)c1 (3D coordinates assigned)
NC(=O)c1cccc(S(=O)(=O)[N-]c2ccccc2Oc2cccc(C(=O)[O-])c2)c1 (optimized conformer: 54.437605570244536 kcal/mol)

>  <smiles>  (67) 
NC(=O)c1cccc(S(=O)(=O)Nc2ccccc2Oc2cccc(C(=O)O)c2)c1

>  <score_type>  (67) 
oracle

>  <origin>  (67) 
adg

>  <m_score__min__energy>  (67) 
-14.710000000000001

>  <m_primary>  (67) 
energy

$$$$
67:0
     RDKit          3D

 39 42  0  0  0  0  0  0  0  0999 V2000
   59.3450   28.2100   48.6680 O   0  0  0  0  0  0  0  0  0  0  0  0
   59.2500   29.4400   48.4150 C   0  0  0  0  0  0  0  0  0  0  0  0
   59.5760   29.9000   47.0990 N   0  0  0  0  0  0  0  0  0  0  0  0
   58.7230   30.6890   46.2590 C   0  0  0  0  0  0  0  0  0  0  0  0
   57.5930   30.2430   45.5760 C   0  0  0  0  0  0  0  0  0  0  0  0
   57.0280   28.8830   45.5700 C   0  0  0  0  0  0  0  0  0  0  0  0
   55.9000   28.6970   45.0400 O   0  0  0  0  0  0  0  0  0  0  0  0
   57.7150   27.7900   46.2010 N   0  0  0  0  0  0  0  0  0  0  0  0
   57.5010   26.4100   45.8510 C   0  0  0  0  0  0  0  0  0  0  0  0
   58.5830   25.5550   45.5720 C   0  0  0  0  0  0  0  0  0  0  0  0
   58.3580   24.2110   45.2570 C   0  0  0  0  0  0  0  0  0  0  0  0
   57.0560   23.7060   45.2290 C   0  0  0  0  0  0  0  0  0  0  0  0
   55.9770   24.5430   45.5220 C   0  0  0  0  0  0  0  0  0  0  0  0
   56.1950   25.8880   45.8380 C   0  0  0  0  0  0  0  0  0  0  0  0
   55.1330   26.6840   46.1170 F   0  0  0  0  0  0  0  0  0  0  0  0
   57.0800   31.2370   44.8720 O   0  0  0  0  0  0  0  0  0  0  0  0
   57.8130   32.3060   45.0850 C   0  0  0  0  0  0  0  0  0  0  0  0
   57.6250   33.5800   44.5540 C   0  0  0  0  0  0  0  0  0  0  0  0
   58.5240   34.5910   44.9370 C   0  0  0  0  0  0  0  0  0  0  0  0
   59.5740   34.3120   45.8380 C   0  0  0  0  0  0  0  0  0  0  0  0
   59.7410   33.0160   46.3600 C   0  0  0  0  0  0  0  0  0  0  0  0
   58.8460   32.0270   45.9450 C   0  0  0  0  0  0  0  0  0  0  0  0
   58.8680   30.3720   49.4940 C   0  0  0  0  0  0  0  0  0  0  0  0
   58.5010   30.0070   50.7840 C   0  0  0  0  0  0  0  0  0  0  0  0
   58.2250   31.1010   51.6130 C   0  0  0  0  0  0  0  0  0  0  0  0
   58.3850   32.3310   50.9880 C   0  0  0  0  0  0  0  0  0  0  0  0
   58.8710   32.0540   49.4030 S   0  0  0  0  0  0  0  0  0  0  0  0
   58.3180   28.0030   47.0250 H   0  0  0  0  0  0  0  0  0  0  0  0
   59.6109   25.9455   45.6018 H   0  0  0  0  0  0  0  0  0  0  0  0
   59.2080   23.5504   45.0309 H   0  0  0  0  0  0  0  0  0  0  0  0
   56.8806   22.6499   44.9764 H   0  0  0  0  0  0  0  0  0  0  0  0
   54.9524   24.1432   45.5042 H   0  0  0  0  0  0  0  0  0  0  0  0
   56.7996   33.7884   43.8573 H   0  0  0  0  0  0  0  0  0  0  0  0
   58.4081   35.6069   44.5314 H   0  0  0  0  0  0  0  0  0  0  0  0
   60.2667   35.1135   46.1343 H   0  0  0  0  0  0  0  0  0  0  0  0
   60.5492   32.7893   47.0710 H   0  0  0  0  0  0  0  0  0  0  0  0
   58.4340   28.9618   51.1204 H   0  0  0  0  0  0  0  0  0  0  0  0
   57.9106   30.9961   52.6619 H   0  0  0  0  0  0  0  0  0  0  0  0
   58.2219   33.3158   51.4502 H   0  0  0  0  0  0  0  0  0  0  0  0
  1  2  2  0
  2  3  1  0
  3  4  1  0
  4  5  2  0
  5  6  1  0
  6  7  2  0
  6  8  1  0
  8  9  1  0
  9 10  2  0
 10 11  1  0
 11 12  2  0
 12 13  1  0
 13 14  2  0
 14 15  1  0
  5 16  1  0
 16 17  1  0
 17 18  2  0
 18 19  1  0
 19 20  2  0
 20 21  1  0
 21 22  2  0
  2 23  1  0
 23 24  2  0
 24 25  1  0
 25 26  2  0
 26 27  1  0
 22  4  1  0
 27 23  1  0
 14  9  1  0
 22 17  1  0
  8 28  1  0
 10 29  1  0
 11 30  1  0
 12 31  1  0
 13 32  1  0
 18 33  1  0
 19 34  1  0
 20 35  1  0
 21 36  1  0
 24 37  1  0
 25 38  1  0
 26 39  1  0
M  CHG  1   3  -1
M  END
>  <UniqueID>  (68) 
60

>  <SMILES>  (68) 
O=C([N-]c1c(C(=O)Nc2ccccc2F)oc2ccccc12)c1cccs1

>  <Energy>  (68) 
115.10366513460058

>  <Genealogy>  (68) 
O=C([N-]c1c(C(=O)Nc2ccccc2F)oc2ccccc12)c1cccs1 (protonated)
O=C([N-]c1c(C(=O)Nc2ccccc2F)oc2ccccc12)c1cccs1 (3D coordinates assigned)
O=C([N-]c1c(C(=O)Nc2ccccc2F)oc2ccccc12)c1cccs1 (optimized conformer: 115.10366513460058 kcal/mol)

>  <smiles>  (68) 
O=C(Nc1c(C(=O)Nc2ccccc2F)oc2ccccc12)c1cccs1

>  <score_type>  (68) 
oracle

>  <origin>  (68) 
adg

>  <m_score__min__energy>  (68) 
-8.8200000000000003

>  <m_primary>  (68) 
energy

$$$$
68:0
     RDKit          3D

 35 37  0  0  0  0  0  0  0  0999 V2000
   58.6340   34.2440   43.3790 H   0  0  0  0  0  0  0  0  0  0  0  0
   58.2680   33.7690   44.2340 N   0  0  0  0  0  0  0  0  0  0  0  0
   58.0820   32.4860   44.3200 C   0  0  0  0  0  0  0  0  0  0  0  0
   57.7190   31.6900   43.2070 C   0  0  0  0  0  0  0  0  0  0  0  0
   57.5370   32.2590   41.8930 C   0  0  0  0  0  0  0  0  0  0  0  0
   57.3910   32.7140   40.8390 N   0  0  0  0  0  0  0  0  0  0  0  0
   57.5360   30.2990   43.3770 C   0  0  0  0  0  0  0  0  0  0  0  0
   57.2658   29.6837   42.5061 H   0  0  0  0  0  0  0  0  0  0  0  0
   57.6870   29.6950   44.6030 N   0  0  0  0  0  0  0  0  0  0  0  0
   57.4900   28.2310   44.6870 C   0  0  2  0  0  0  0  0  0  0  0  0
   57.0608   27.9407   43.7167 H   0  0  0  0  0  0  0  0  0  0  0  0
   56.5930   27.8730   45.7140 O   0  0  0  0  0  0  0  0  0  0  0  0
   57.0330   26.6440   46.2590 C   0  0  1  0  0  0  0  0  0  0  0  0
   57.2671   26.7554   47.3280 H   0  0  0  0  0  0  0  0  0  0  0  0
   55.9140   25.6050   46.1390 C   0  0  0  0  0  0  0  0  0  0  0  0
   56.2231   24.8168   45.4367 H   0  0  0  0  0  0  0  0  0  0  0  0
   55.7202   25.1683   47.1299 H   0  0  0  0  0  0  0  0  0  0  0  0
   54.7420   26.2120   45.6680 O   0  0  0  0  0  0  0  0  0  0  0  0
   54.7600   27.1440   46.0080 H   0  0  0  0  0  0  0  0  0  0  0  0
   58.3220   26.2030   45.5480 C   0  0  2  0  0  0  0  0  0  0  0  0
   58.1571   25.3812   44.8357 H   0  0  0  0  0  0  0  0  0  0  0  0
   59.2740   25.7020   46.4520 O   0  0  0  0  0  0  0  0  0  0  0  0
   60.1320   26.1510   46.2360 H   0  0  0  0  0  0  0  0  0  0  0  0
   58.8000   27.4760   44.8890 C   0  0  2  0  0  0  0  0  0  0  0  0
   59.3620   27.3049   43.9590 H   0  0  0  0  0  0  0  0  0  0  0  0
   59.7160   28.1920   45.6880 O   0  0  0  0  0  0  0  0  0  0  0  0
   59.6870   27.8200   46.6080 H   0  0  0  0  0  0  0  0  0  0  0  0
   58.0540   30.4850   45.6640 C   0  0  0  0  0  0  0  0  0  0  0  0
   58.3210   30.1600   46.9860 C   0  0  0  0  0  0  0  0  0  0  0  0
   58.2773   29.1637   47.4502 H   0  0  0  0  0  0  0  0  0  0  0  0
   58.6550   31.3600   47.5980 C   0  0  0  0  0  0  0  0  0  0  0  0
   58.9229   31.4654   48.6597 H   0  0  0  0  0  0  0  0  0  0  0  0
   58.6070   32.3800   46.7160 N   0  0  0  0  0  0  0  0  0  0  0  0
   58.8200   33.3840   46.9120 H   0  0  0  0  0  0  0  0  0  0  0  0
   58.2420   31.8370   45.5410 C   0  0  0  0  0  0  0  0  0  0  0  0
  1  2  1  0
  2  3  2  0
  3  4  1  0
  4  5  1  0
  5  6  3  0
  4  7  2  0
  7  8  1  0
  7  9  1  0
  9 10  1  0
 10 11  1  6
 10 12  1  0
 12 13  1  0
 13 14  1  1
 13 15  1  0
 15 16  1  0
 15 17  1  0
 15 18  1  0
 18 19  1  0
 13 20  1  0
 20 21  1  6
 20 22  1  0
 22 23  1  0
 20 24  1  0
 24 25  1  6
 24 26  1  0
 26 27  1  0
  9 28  1  0
 28 29  1  0
 29 30  1  0
 29 31  2  0
 31 32  1  0
 31 33  1  0
 33 34  1  0
 33 35  1  0
 35  3  1  0
 24 10  1  0
 35 28  2  0
M  END
>  <UniqueID>  (69) 
61

>  <SMILES>  (69) 
[H]/N=c1\c(C#N)cn([C@@H]2O[C@@H](CO)C(O)C2O)c2cc[nH]c12

>  <Energy>  (69) 
78.35871017423841

>  <Genealogy>  (69) 
N#Cc1cn([C@@H]2O[C@@H](CO)C(O)C2O)c2cc[nH]c2c1=N (chirality)
[H]/N=c1\c(C#N)cn([C@@H]2O[C@@H](CO)C(O)C2O)c2cc[nH]c12 (cis-trans isomerization)
[H]/N=c1\c(C#N)cn([C@@H]2O[C@@H](CO)C(O)C2O)c2cc[nH]c12 (3D coordinates assigned)
[H]/N=c1\c(C#N)cn([C@@H]2O[C@@H](CO)C(O)C2O)c2cc[nH]c12 (nonaromatic ring conformer: 78.35871017423841 kcal/mol)

>  <smiles>  (69) 
N#Cc1cn(C2OC(CO)C(O)C2O)c2cc[nH]c2c1=N

>  <score_type>  (69) 
oracle

>  <origin>  (69) 
adg

>  <m_score__min__energy>  (69) 
-5.7800000000000002

>  <m_primary>  (69) 
energy

$$$$
69:0
     RDKit          3D

 38 40  0  0  0  0  0  0  0  0999 V2000
   55.2910   29.3330   44.8270 O   0  0  0  0  0  0  0  0  0  0  0  0
   56.4500   29.8310   44.7850 C   0  0  0  0  0  0  0  0  0  0  0  0
   57.6030   29.0110   45.0120 N   0  0  0  0  0  0  0  0  0  0  0  0
   57.5650   27.5770   45.1230 C   0  0  0  0  0  0  0  0  0  0  0  0
   57.2170   26.9480   46.3330 C   0  0  0  0  0  0  0  0  0  0  0  0
   57.1610   25.5530   46.4130 C   0  0  0  0  0  0  0  0  0  0  0  0
   57.4400   24.7740   45.2860 C   0  0  0  0  0  0  0  0  0  0  0  0
   57.3850   23.4220   45.3670 F   0  0  0  0  0  0  0  0  0  0  0  0
   57.7670   25.3900   44.0760 C   0  0  0  0  0  0  0  0  0  0  0  0
   57.8230   26.7860   43.9890 C   0  0  0  0  0  0  0  0  0  0  0  0
   58.1430   27.3650   42.8060 F   0  0  0  0  0  0  0  0  0  0  0  0
   56.6320   31.1920   44.5030 O   0  0  0  0  0  0  0  0  0  0  0  0
   57.5460   32.0400   45.1460 C   0  0  0  0  0  0  0  0  0  0  0  0
   57.8320   33.3350   44.6750 C   0  0  0  0  0  0  0  0  0  0  0  0
   58.7440   34.1470   45.3560 C   0  0  0  0  0  0  0  0  0  0  0  0
   59.3840   33.6770   46.5160 C   0  0  0  0  0  0  0  0  0  0  0  0
   60.2940   34.4680   47.2340 O   0  0  0  0  0  0  0  0  0  0  0  0
   61.5540   34.0500   47.6860 C   0  0  0  0  0  0  0  0  0  0  0  0
   62.4680   33.5380   46.7560 C   0  0  0  0  0  0  0  0  0  0  0  0
   63.7400   33.1260   47.1670 C   0  0  0  0  0  0  0  0  0  0  0  0
   64.1120   33.2350   48.5080 C   0  0  0  0  0  0  0  0  0  0  0  0
   63.2150   33.7640   49.4410 C   0  0  0  0  0  0  0  0  0  0  0  0
   61.9420   34.1770   49.0330 C   0  0  0  0  0  0  0  0  0  0  0  0
   59.0680   32.4050   47.0040 C   0  0  0  0  0  0  0  0  0  0  0  0
   58.1560   31.5930   46.3240 C   0  0  0  0  0  0  0  0  0  0  0  0
   58.5080   29.5000   45.1890 H   0  0  0  0  0  0  0  0  0  0  0  0
   56.9879   27.5567   47.2201 H   0  0  0  0  0  0  0  0  0  0  0  0
   56.8970   25.0677   47.3642 H   0  0  0  0  0  0  0  0  0  0  0  0
   57.9812   24.7763   43.1886 H   0  0  0  0  0  0  0  0  0  0  0  0
   57.3361   33.7098   43.7675 H   0  0  0  0  0  0  0  0  0  0  0  0
   58.9617   35.1584   44.9823 H   0  0  0  0  0  0  0  0  0  0  0  0
   62.1837   33.4595   45.6963 H   0  0  0  0  0  0  0  0  0  0  0  0
   64.4483   32.7155   46.4323 H   0  0  0  0  0  0  0  0  0  0  0  0
   65.1105   32.9048   48.8306 H   0  0  0  0  0  0  0  0  0  0  0  0
   63.5104   33.8556   50.4966 H   0  0  0  0  0  0  0  0  0  0  0  0
   61.2421   34.6023   49.7673 H   0  0  0  0  0  0  0  0  0  0  0  0
   59.5401   32.0414   47.9286 H   0  0  0  0  0  0  0  0  0  0  0  0
   57.9156   30.5944   46.7178 H   0  0  0  0  0  0  0  0  0  0  0  0
  1  2  2  0
  2  3  1  0
  3  4  1  0
  4  5  2  0
  5  6  1  0
  6  7  2  0
  7  8  1  0
  7  9  1  0
  9 10  2  0
 10 11  1  0
  2 12  1  0
 12 13  1  0
 13 14  2  0
 14 15  1  0
 15 16  2  0
 16 17  1  0
 17 18  1  0
 18 19  2  0
 19 20  1  0
 20 21  2  0
 21 22  1  0
 22 23  2  0
 16 24  1  0
 24 25  2  0
 10  4  1  0
 25 13  1  0
 23 18  1  0
  3 26  1  0
  5 27  1  0
  6 28  1  0
  9 29  1  0
 14 30  1  0
 15 31  1  0
 19 32  1  0
 20 33  1  0
 21 34  1  0
 22 35  1  0
 23 36  1  0
 24 37  1  0
 25 38  1  0
M  END
>  <UniqueID>  (70) 
62

>  <SMILES>  (70) 
O=C(Nc1ccc(F)cc1F)Oc1ccc(Oc2ccccc2)cc1

>  <Energy>  (70) 
55.67121889333323

>  <Genealogy>  (70) 
O=C(Nc1ccc(F)cc1F)Oc1ccc(Oc2ccccc2)cc1 (3D coordinates assigned)
O=C(Nc1ccc(F)cc1F)Oc1ccc(Oc2ccccc2)cc1 (optimized conformer: 55.67121889333323 kcal/mol)

>  <smiles>  (70) 
O=C(Nc1ccc(F)cc1F)Oc1ccc(Oc2ccccc2)cc1

>  <score_type>  (70) 
oracle

>  <origin>  (70) 
adg

>  <m_score__min__energy>  (70) 
-7.8399999999999999

>  <m_primary>  (70) 
energy

$$$$
70:0
     RDKit          3D

 34 36  0  0  0  0  0  0  0  0999 V2000
   61.3964   34.6741   47.3426 H   0  0  0  0  0  0  0  0  0  0  0  0
   60.5880   34.0650   46.9120 C   0  0  0  0  0  0  0  0  0  0  0  0
   60.3080   32.8020   47.4400 C   0  0  0  0  0  0  0  0  0  0  0  0
   60.8990   32.4159   48.2836 H   0  0  0  0  0  0  0  0  0  0  0  0
   59.2770   32.0280   46.8970 C   0  0  0  0  0  0  0  0  0  0  0  0
   59.0671   31.0303   47.3099 H   0  0  0  0  0  0  0  0  0  0  0  0
   58.5060   32.5180   45.8250 C   0  0  0  0  0  0  0  0  0  0  0  0
   57.4180   31.7050   45.2320 C   0  0  0  0  0  0  0  0  0  0  0  0
   56.3450   32.2720   44.8910 O   0  0  0  0  0  0  0  0  0  0  0  0
   57.5390   30.2400   45.0730 C   0  0  0  0  0  0  0  0  0  0  0  0
   58.9770   29.3700   45.2510 S   0  0  0  0  0  0  0  0  0  0  0  0
   58.2310   27.8740   45.0290 C   0  0  0  0  0  0  0  0  0  0  0  0
   58.8080   26.7080   45.0850 N   0  0  0  0  0  0  0  0  0  0  0  0
   58.1600   25.4440   45.2840 C   0  0  0  0  0  0  0  0  0  0  0  0
   57.6600   24.6920   44.2050 C   0  0  0  0  0  0  0  0  0  0  0  0
   57.7922   25.0555   43.1753 H   0  0  0  0  0  0  0  0  0  0  0  0
   56.9950   23.4830   44.4380 C   0  0  0  0  0  0  0  0  0  0  0  0
   56.6212   22.8897   43.5905 H   0  0  0  0  0  0  0  0  0  0  0  0
   56.8050   23.0280   45.7460 C   0  0  0  0  0  0  0  0  0  0  0  0
   56.2908   22.0726   45.9271 H   0  0  0  0  0  0  0  0  0  0  0  0
   57.2690   23.7880   46.8240 C   0  0  0  0  0  0  0  0  0  0  0  0
   57.0700   23.3550   48.0930 F   0  0  0  0  0  0  0  0  0  0  0  0
   57.9330   24.9970   46.5930 C   0  0  0  0  0  0  0  0  0  0  0  0
   58.2795   25.6013   47.4444 H   0  0  0  0  0  0  0  0  0  0  0  0
   56.9010   28.0140   44.8450 N   0  0  0  0  0  0  0  0  0  0  0  0
   56.2480   27.2110   44.6990 H   0  0  0  0  0  0  0  0  0  0  0  0
   56.5060   29.3160   44.8650 C   0  0  0  0  0  0  0  0  0  0  0  0
   55.1400   29.6810   44.6440 N   0  0  0  0  0  0  0  0  0  0  0  0
   54.3950   28.9640   44.5100 H   0  0  0  0  0  0  0  0  0  0  0  0
   54.8570   30.6850   44.6790 H   0  0  0  0  0  0  0  0  0  0  0  0
   58.8100   33.7840   45.2920 C   0  0  0  0  0  0  0  0  0  0  0  0
   58.2320   34.1710   44.4399 H   0  0  0  0  0  0  0  0  0  0  0  0
   59.8420   34.5540   45.8380 C   0  0  0  0  0  0  0  0  0  0  0  0
   60.0663   35.5467   45.4205 H   0  0  0  0  0  0  0  0  0  0  0  0
  1  2  1  0
  2  3  2  0
  3  4  1  0
  3  5  1  0
  5  6  1  0
  5  7  2  0
  7  8  1  0
  8  9  2  0
  8 10  1  0
 10 11  1  0
 11 12  1  0
 12 13  2  0
 13 14  1  0
 14 15  2  0
 15 16  1  0
 15 17  1  0
 17 18  1  0
 17 19  2  0
 19 20  1  0
 19 21  1  0
 21 22  1  0
 21 23  2  0
 23 24  1  0
 12 25  1  0
 25 26  1  0
 25 27  1  0
 27 28  1  0
 28 29  1  0
 28 30  1  0
  7 31  1  0
 31 32  1  0
 31 33  2  0
 33 34  1  0
 33  2  1  0
 27 10  2  0
 23 14  1  0
M  END
>  <UniqueID>  (71) 
63

>  <SMILES>  (71) 
Nc1[nH]/c(=N/c2cccc(F)c2)sc1C(=O)c1ccccc1

>  <Energy>  (71) 
79.30391515926107

>  <Genealogy>  (71) 
Nc1[nH]/c(=N/c2cccc(F)c2)sc1C(=O)c1ccccc1 (cis-trans isomerization)
Nc1[nH]/c(=N/c2cccc(F)c2)sc1C(=O)c1ccccc1 (3D coordinates assigned)
Nc1[nH]/c(=N/c2cccc(F)c2)sc1C(=O)c1ccccc1 (optimized conformer: 79.30391515926107 kcal/mol)

>  <smiles>  (71) 
Nc1[nH]c(=Nc2cccc(F)c2)sc1C(=O)c1ccccc1

>  <score_type>  (71) 
oracle

>  <origin>  (71) 
adg

>  <m_score__min__energy>  (71) 
-7.7599999999999998

>  <m_primary>  (71) 
energy

$$$$
71:0
     RDKit          3D

 52 54  0  0  0  0  0  0  0  0999 V2000
   57.3670   31.4770   42.9860 C   0  0  0  0  0  0  0  0  0  0  0  0
   56.9560   31.6770   44.4460 C   0  0  1  0  0  0  0  0  0  0  0  0
   57.0880   30.4140   45.1810 N   0  0  0  0  0  0  0  0  0  0  0  0
   58.2860   29.6200   45.1540 C   0  0  0  0  0  0  0  0  0  0  0  0
   59.2870   30.0100   44.4930 O   0  0  0  0  0  0  0  0  0  0  0  0
   58.3580   28.3390   45.8920 C   0  0  0  0  0  0  0  0  0  0  0  0
   57.6990   27.2100   45.3770 C   0  0  0  0  0  0  0  0  0  0  0  0
   57.6350   26.0190   46.1100 C   0  0  0  0  0  0  0  0  0  0  0  0
   56.9180   24.9080   45.5510 N   0  0  0  0  0  0  0  0  0  0  0  0
   55.2020   24.6530   45.6660 S   0  0  0  0  0  0  0  0  0  0  0  0
   54.6420   23.6810   44.2840 C   0  0  0  0  0  0  0  0  0  0  0  0
   54.4770   25.9690   45.7060 O   0  0  0  0  0  0  0  0  0  0  0  0
   54.9090   23.9020   46.9280 O   0  0  0  0  0  0  0  0  0  0  0  0
   58.2490   25.9540   47.3690 C   0  0  0  0  0  0  0  0  0  0  0  0
   58.9370   27.0590   47.8740 C   0  0  0  0  0  0  0  0  0  0  0  0
   59.0070   28.2540   47.1460 C   0  0  0  0  0  0  0  0  0  0  0  0
   59.7670   29.3630   47.6660 N   0  0  0  0  0  0  0  0  0  0  0  0
   59.6720   29.7230   49.0810 C   0  0  0  0  0  0  0  0  0  0  0  0
   59.9720   31.2150   49.2460 C   0  0  0  0  0  0  0  0  0  0  0  0
   61.2130   31.5460   48.6510 O   0  0  0  0  0  0  0  0  0  0  0  0
   61.1530   31.3360   47.2530 C   0  0  0  0  0  0  0  0  0  0  0  0
   60.9370   29.8540   46.9310 C   0  0  0  0  0  0  0  0  0  0  0  0
   57.7770   32.7580   45.1230 C   0  0  0  0  0  0  0  0  0  0  0  0
   57.7970   32.8830   46.5260 C   0  0  0  0  0  0  0  0  0  0  0  0
   58.5500   33.8950   47.1340 C   0  0  0  0  0  0  0  0  0  0  0  0
   59.2770   34.7960   46.3510 C   0  0  0  0  0  0  0  0  0  0  0  0
   59.2480   34.6940   44.9570 C   0  0  0  0  0  0  0  0  0  0  0  0
   58.4990   33.6860   44.3450 C   0  0  0  0  0  0  0  0  0  0  0  0
   58.3555   30.9960   42.9459 H   0  0  0  0  0  0  0  0  0  0  0  0
   56.6275   30.8380   42.4812 H   0  0  0  0  0  0  0  0  0  0  0  0
   57.4135   32.4532   42.4812 H   0  0  0  0  0  0  0  0  0  0  0  0
   55.9053   32.0026   44.4543 H   0  0  0  0  0  0  0  0  0  0  0  0
   56.2790   30.0930   45.7560 H   0  0  0  0  0  0  0  0  0  0  0  0
   57.2271   27.2626   44.3847 H   0  0  0  0  0  0  0  0  0  0  0  0
   54.1247   22.7831   44.6529 H   0  0  0  0  0  0  0  0  0  0  0  0
   53.9494   24.2780   43.6725 H   0  0  0  0  0  0  0  0  0  0  0  0
   55.5059   23.3813   43.6725 H   0  0  0  0  0  0  0  0  0  0  0  0
   58.1884   25.0289   47.9610 H   0  0  0  0  0  0  0  0  0  0  0  0
   59.4299   26.9905   48.8550 H   0  0  0  0  0  0  0  0  0  0  0  0
   58.6567   29.5099   49.4468 H   0  0  0  0  0  0  0  0  0  0  0  0
   60.3996   29.1352   49.6599 H   0  0  0  0  0  0  0  0  0  0  0  0
   59.1738   31.7989   48.7644 H   0  0  0  0  0  0  0  0  0  0  0  0
   60.0219   31.4484   50.3198 H   0  0  0  0  0  0  0  0  0  0  0  0
   60.3191   31.9202   46.8366 H   0  0  0  0  0  0  0  0  0  0  0  0
   62.1067   31.6566   46.8085 H   0  0  0  0  0  0  0  0  0  0  0  0
   60.7691   29.7336   45.8506 H   0  0  0  0  0  0  0  0  0  0  0  0
   61.8265   29.2792   47.2285 H   0  0  0  0  0  0  0  0  0  0  0  0
   57.2187   32.1827   47.1465 H   0  0  0  0  0  0  0  0  0  0  0  0
   58.5694   33.9811   48.2305 H   0  0  0  0  0  0  0  0  0  0  0  0
   59.8725   35.5860   46.8320 H   0  0  0  0  0  0  0  0  0  0  0  0
   59.8153   35.4079   44.3417 H   0  0  0  0  0  0  0  0  0  0  0  0
   58.4723   33.6158   43.2476 H   0  0  0  0  0  0  0  0  0  0  0  0
  1  2  1  0
  2  3  1  0
  3  4  1  0
  4  5  2  0
  4  6  1  0
  6  7  2  0
  7  8  1  0
  8  9  1  0
  9 10  1  0
 10 11  1  0
 10 12  2  0
 10 13  2  0
  8 14  2  0
 14 15  1  0
 15 16  2  0
 16 17  1  0
 17 18  1  0
 18 19  1  0
 19 20  1  0
 20 21  1  0
 21 22  1  0
  2 23  1  0
 23 24  2  0
 24 25  1  0
 25 26  2  0
 26 27  1  0
 27 28  2  0
 16  6  1  0
 22 17  1  0
 28 23  1  0
  1 29  1  0
  1 30  1  0
  1 31  1  0
  2 32  1  6
  3 33  1  0
  7 34  1  0
 11 35  1  0
 11 36  1  0
 11 37  1  0
 14 38  1  0
 15 39  1  0
 18 40  1  0
 18 41  1  0
 19 42  1  0
 19 43  1  0
 21 44  1  0
 21 45  1  0
 22 46  1  0
 22 47  1  0
 24 48  1  0
 25 49  1  0
 26 50  1  0
 27 51  1  0
 28 52  1  0
M  CHG  1   9  -1
M  END
>  <UniqueID>  (72) 
64

>  <SMILES>  (72) 
C[C@@H](NC(=O)c1cc([N-]S(C)(=O)=O)ccc1N1CCOCC1)c1ccccc1

>  <Energy>  (72) 
59.87797652015835

>  <Genealogy>  (72) 
CC(NC(=O)c1cc([N-]S(C)(=O)=O)ccc1N1CCOCC1)c1ccccc1 (protonated)
C[C@@H](NC(=O)c1cc([N-]S(C)(=O)=O)ccc1N1CCOCC1)c1ccccc1 (chirality)
C[C@@H](NC(=O)c1cc([N-]S(C)(=O)=O)ccc1N1CCOCC1)c1ccccc1 (3D coordinates assigned)
C[C@@H](NC(=O)c1cc([N-]S(C)(=O)=O)ccc1N1CCOCC1)c1ccccc1 (nonaromatic ring conformer: 59.87797652015835 kcal/mol)

>  <smiles>  (72) 
CC(NC(=O)c1cc(NS(C)(=O)=O)ccc1N1CCOCC1)c1ccccc1

>  <score_type>  (72) 
oracle

>  <origin>  (72) 
adg

>  <m_score__min__energy>  (72) 
-10.460000000000001

>  <m_primary>  (72) 
energy

$$$$
72:0
     RDKit          3D

 42 44  0  0  0  0  0  0  0  0999 V2000
   56.6480   30.6080   42.5380 C   0  0  0  0  0  0  0  0  0  0  0  0
   57.5210   29.8300   43.4090 N   0  0  0  0  0  0  0  0  0  0  0  0
   57.0340   29.2310   44.6200 C   0  0  0  0  0  0  0  0  0  0  0  0
   55.7980   29.2560   44.8710 O   0  0  0  0  0  0  0  0  0  0  0  0
   57.9560   28.5660   45.5740 C   0  0  0  0  0  0  0  0  0  0  0  0
   59.3500   28.7200   45.4690 C   0  0  0  0  0  0  0  0  0  0  0  0
   60.2040   28.0930   46.3800 C   0  0  0  0  0  0  0  0  0  0  0  0
   59.6800   27.3180   47.4280 C   0  0  0  0  0  0  0  0  0  0  0  0
   60.5250   26.6400   48.3680 N   0  0  0  0  0  0  0  0  0  0  0  0
   60.8540   27.0890   49.6870 C   0  0  0  0  0  0  0  0  0  0  0  0
   61.2170   26.2420   50.5450 O   0  0  0  0  0  0  0  0  0  0  0  0
   60.7650   28.4800   50.0270 N   0  0  0  0  0  0  0  0  0  0  0  0
   60.4150   29.5600   49.1500 C   0  0  0  0  0  0  0  0  0  0  0  0
   59.0780   29.9670   49.0900 C   0  0  0  0  0  0  0  0  0  0  0  0
   58.6940   31.0280   48.2650 C   0  0  0  0  0  0  0  0  0  0  0  0
   59.6490   31.7140   47.4940 C   0  0  0  0  0  0  0  0  0  0  0  0
   59.2430   32.8410   46.6180 C   0  0  0  0  0  0  0  0  0  0  0  0
   58.0350   32.7930   45.9000 C   0  0  0  0  0  0  0  0  0  0  0  0
   57.6710   33.8640   45.0810 C   0  0  0  0  0  0  0  0  0  0  0  0
   58.4810   34.9500   44.9790 N   0  0  0  0  0  0  0  0  0  0  0  0
   59.6540   35.0300   45.6590 C   0  0  0  0  0  0  0  0  0  0  0  0
   60.0570   33.9810   46.4890 C   0  0  0  0  0  0  0  0  0  0  0  0
   60.9970   31.3190   47.5760 C   0  0  0  0  0  0  0  0  0  0  0  0
   61.3790   30.2570   48.4010 C   0  0  0  0  0  0  0  0  0  0  0  0
   58.2940   27.1500   47.5240 C   0  0  0  0  0  0  0  0  0  0  0  0
   57.4380   27.7780   46.6160 C   0  0  0  0  0  0  0  0  0  0  0  0
   55.9660   31.2158   43.1507 H   0  0  0  0  0  0  0  0  0  0  0  0
   57.2573   31.2681   41.9031 H   0  0  0  0  0  0  0  0  0  0  0  0
   56.0622   29.9270   41.9031 H   0  0  0  0  0  0  0  0  0  0  0  0
   58.5080   29.6770   43.1030 H   0  0  0  0  0  0  0  0  0  0  0  0
   59.7714   29.3390   44.6632 H   0  0  0  0  0  0  0  0  0  0  0  0
   61.2931   28.2069   46.2760 H   0  0  0  0  0  0  0  0  0  0  0  0
   58.3222   29.4475   49.6974 H   0  0  0  0  0  0  0  0  0  0  0  0
   57.6369   31.3285   48.2186 H   0  0  0  0  0  0  0  0  0  0  0  0
   57.3785   31.9143   45.9832 H   0  0  0  0  0  0  0  0  0  0  0  0
   56.7269   33.8283   44.5176 H   0  0  0  0  0  0  0  0  0  0  0  0
   60.2882   35.9229   45.5560 H   0  0  0  0  0  0  0  0  0  0  0  0
   61.0071   34.0462   47.0395 H   0  0  0  0  0  0  0  0  0  0  0  0
   61.7574   31.8509   46.9854 H   0  0  0  0  0  0  0  0  0  0  0  0
   62.4378   29.9657   48.4643 H   0  0  0  0  0  0  0  0  0  0  0  0
   57.8751   26.5182   48.3211 H   0  0  0  0  0  0  0  0  0  0  0  0
   56.3497   27.6547   46.7175 H   0  0  0  0  0  0  0  0  0  0  0  0
  1  2  1  0
  2  3  1  0
  3  4  2  0
  3  5  1  0
  5  6  2  0
  6  7  1  0
  7  8  2  0
  8  9  1  0
  9 10  1  0
 10 11  2  0
 10 12  1  0
 12 13  1  0
 13 14  2  0
 14 15  1  0
 15 16  2  0
 16 17  1  0
 17 18  2  0
 18 19  1  0
 19 20  2  0
 20 21  1  0
 21 22  2  0
 16 23  1  0
 23 24  2  0
  8 25  1  0
 25 26  2  0
 26  5  1  0
 24 13  1  0
 22 17  1  0
  1 27  1  0
  1 28  1  0
  1 29  1  0
  2 30  1  0
  6 31  1  0
  7 32  1  0
 14 33  1  0
 15 34  1  0
 18 35  1  0
 19 36  1  0
 21 37  1  0
 22 38  1  0
 23 39  1  0
 24 40  1  0
 25 41  1  0
 26 42  1  0
M  CHG  2   9  -1  12  -1
M  END
>  <UniqueID>  (73) 
65

>  <SMILES>  (73) 
CNC(=O)c1ccc([N-]C(=O)[N-]c2ccc(-c3ccncc3)cc2)cc1

>  <Energy>  (73) 
57.484832988243454

>  <Genealogy>  (73) 
CNC(=O)c1ccc([N-]C(=O)[N-]c2ccc(-c3ccncc3)cc2)cc1 (protonated)
CNC(=O)c1ccc([N-]C(=O)[N-]c2ccc(-c3ccncc3)cc2)cc1 (3D coordinates assigned)
CNC(=O)c1ccc([N-]C(=O)[N-]c2ccc(-c3ccncc3)cc2)cc1 (optimized conformer: 57.484832988243454 kcal/mol)

>  <smiles>  (73) 
CNC(=O)c1ccc(NC(=O)Nc2ccc(-c3ccncc3)cc2)cc1

>  <score_type>  (73) 
oracle

>  <origin>  (73) 
adg

>  <m_score__min__energy>  (73) 
-11.02

>  <m_primary>  (73) 
energy

$$$$
73:0
     RDKit          3D

 37 38  0  0  0  0  0  0  0  0999 V2000
   57.6490   31.4800   51.9730 C   0  0  0  0  0  0  0  0  0  0  0  0
   57.3880   30.5300   50.8980 N   0  0  0  0  0  0  0  0  0  0  0  0
   58.7340   30.4930   49.8020 S   0  0  0  0  0  0  0  0  0  0  0  0
   58.5080   29.4420   48.7490 O   0  0  0  0  0  0  0  0  0  0  0  0
   59.9760   30.1300   50.5670 O   0  0  0  0  0  0  0  0  0  0  0  0
   58.9620   32.0750   49.0530 C   0  0  0  0  0  0  0  0  0  0  0  0
   58.5190   32.2850   47.7380 C   0  0  0  0  0  0  0  0  0  0  0  0
   58.6960   33.5310   47.1190 C   0  0  0  0  0  0  0  0  0  0  0  0
   58.1210   33.7990   45.4770 S   0  0  0  0  0  0  0  0  0  0  0  0
   56.6420   34.0550   45.5160 O   0  0  0  0  0  0  0  0  0  0  0  0
   58.8070   34.9870   44.8610 O   0  0  0  0  0  0  0  0  0  0  0  0
   58.4320   32.3990   44.5040 N   0  0  0  0  0  0  0  0  0  0  0  0
   58.0280   31.0620   44.8270 C   0  0  0  0  0  0  0  0  0  0  0  0
   58.9470   30.2190   45.4640 C   0  0  0  0  0  0  0  0  0  0  0  0
   58.6000   28.9040   45.7860 C   0  0  0  0  0  0  0  0  0  0  0  0
   57.3220   28.4180   45.4800 C   0  0  0  0  0  0  0  0  0  0  0  0
   56.8910   26.7550   45.8650 S   0  0  0  0  0  0  0  0  0  0  0  0
   55.1790   26.6350   46.0690 N   0  0  0  0  0  0  0  0  0  0  0  0
   57.3250   25.8450   44.7510 O   0  0  0  0  0  0  0  0  0  0  0  0
   57.5780   26.3300   47.1330 O   0  0  0  0  0  0  0  0  0  0  0  0
   56.4000   29.2550   44.8400 C   0  0  0  0  0  0  0  0  0  0  0  0
   56.7470   30.5710   44.5190 C   0  0  0  0  0  0  0  0  0  0  0  0
   59.3320   34.5660   47.8150 C   0  0  0  0  0  0  0  0  0  0  0  0
   59.7830   34.3600   49.1210 C   0  0  0  0  0  0  0  0  0  0  0  0
   59.6030   33.1210   49.7420 C   0  0  0  0  0  0  0  0  0  0  0  0
   60.0650   32.9420   51.0050 F   0  0  0  0  0  0  0  0  0  0  0  0
   57.5121   30.9816   52.9440 H   0  0  0  0  0  0  0  0  0  0  0  0
   58.6820   31.8496   51.8930 H   0  0  0  0  0  0  0  0  0  0  0  0
   56.9498   32.3254   51.8930 H   0  0  0  0  0  0  0  0  0  0  0  0
   58.0297   31.4669   47.1891 H   0  0  0  0  0  0  0  0  0  0  0  0
   59.9503   30.5949   45.7130 H   0  0  0  0  0  0  0  0  0  0  0  0
   59.3321   28.2489   46.2809 H   0  0  0  0  0  0  0  0  0  0  0  0
   54.7530   26.7170   45.1190 H   0  0  0  0  0  0  0  0  0  0  0  0
   55.3985   28.8758   44.5886 H   0  0  0  0  0  0  0  0  0  0  0  0
   56.0145   31.2250   44.0233 H   0  0  0  0  0  0  0  0  0  0  0  0
   59.4769   35.5438   47.3323 H   0  0  0  0  0  0  0  0  0  0  0  0
   60.2821   35.1767   49.6631 H   0  0  0  0  0  0  0  0  0  0  0  0
  1  2  1  0
  2  3  1  0
  3  4  2  0
  3  5  2  0
  3  6  1  0
  6  7  2  0
  7  8  1  0
  8  9  1  0
  9 10  2  0
  9 11  2  0
  9 12  1  0
 12 13  1  0
 13 14  2  0
 14 15  1  0
 15 16  2  0
 16 17  1  0
 17 18  1  0
 17 19  2  0
 17 20  2  0
 16 21  1  0
 21 22  2  0
  8 23  2  0
 23 24  1  0
 24 25  2  0
 25 26  1  0
 25  6  1  0
 22 13  1  0
  1 27  1  0
  1 28  1  0
  1 29  1  0
  7 30  1  0
 14 31  1  0
 15 32  1  0
 18 33  1  0
 21 34  1  0
 22 35  1  0
 23 36  1  0
 24 37  1  0
M  CHG  3   2  -1  12  -1  18  -1
M  END
>  <UniqueID>  (74) 
66

>  <SMILES>  (74) 
C[N-]S(=O)(=O)c1cc(S(=O)(=O)[N-]c2ccc(S([NH-])(=O)=O)cc2)ccc1F

>  <Energy>  (74) 
38.82771248661022

>  <Genealogy>  (74) 
C[N-]S(=O)(=O)c1cc(S(=O)(=O)[N-]c2ccc(S([NH-])(=O)=O)cc2)ccc1F (protonated)
C[N-]S(=O)(=O)c1cc(S(=O)(=O)[N-]c2ccc(S([NH-])(=O)=O)cc2)ccc1F (3D coordinates assigned)
C[N-]S(=O)(=O)c1cc(S(=O)(=O)[N-]c2ccc(S([NH-])(=O)=O)cc2)ccc1F (optimized conformer: 38.82771248661022 kcal/mol)

>  <smiles>  (74) 
CNS(=O)(=O)c1cc(S(=O)(=O)Nc2ccc(S(N)(=O)=O)cc2)ccc1F

>  <score_type>  (74) 
oracle

>  <origin>  (74) 
adg

>  <m_score__min__energy>  (74) 
-13.08

>  <m_primary>  (74) 
energy

$$$$
74:0
     RDKit          3D

 44 47  0  0  0  0  0  0  0  0999 V2000
   60.1440   28.2610   49.1580 C   0  0  0  0  0  0  0  0  0  0  0  0
   59.3100   28.4470   47.9170 C   0  0  0  0  0  0  0  0  0  0  0  0
   58.7750   27.3160   47.2790 C   0  0  0  0  0  0  0  0  0  0  0  0
   57.9580   27.4520   46.1420 C   0  0  0  0  0  0  0  0  0  0  0  0
   57.3860   26.3200   45.4740 N   0  0  0  0  0  0  0  0  0  0  0  0
   55.9970   25.4360   46.0130 S   0  0  0  0  0  0  0  0  0  0  0  0
   55.7180   24.0690   44.9110 C   0  0  0  0  0  0  0  0  0  0  0  0
   54.7870   26.3280   46.0040 O   0  0  0  0  0  0  0  0  0  0  0  0
   56.2350   24.9080   47.4000 O   0  0  0  0  0  0  0  0  0  0  0  0
   57.6810   28.7300   45.6490 C   0  0  0  0  0  0  0  0  0  0  0  0
   58.2240   29.8600   46.2620 C   0  0  0  0  0  0  0  0  0  0  0  0
   59.0720   29.7290   47.3670 C   0  0  0  0  0  0  0  0  0  0  0  0
   59.6050   30.9160   47.9680 N   0  0  0  0  0  0  0  0  0  0  0  0
   60.0090   32.0410   47.4260 C   0  0  0  0  0  0  0  0  0  0  0  0
   59.1880   32.8860   46.6080 C   0  0  0  0  0  0  0  0  0  0  0  0
   57.7750   32.8110   46.5490 C   0  0  0  0  0  0  0  0  0  0  0  0
   57.0470   33.6300   45.6830 C   0  0  0  0  0  0  0  0  0  0  0  0
   57.6980   34.5720   44.8920 C   0  0  0  0  0  0  0  0  0  0  0  0
   59.0770   34.7320   44.9970 C   0  0  0  0  0  0  0  0  0  0  0  0
   59.8170   33.9230   45.8660 C   0  0  0  0  0  0  0  0  0  0  0  0
   61.1400   34.1750   46.0200 N   0  0  0  0  0  0  0  0  0  0  0  0
   61.9150   33.4730   46.8800 C   0  0  0  0  0  0  0  0  0  0  0  0
   63.2660   33.8130   47.0170 C   0  0  0  0  0  0  0  0  0  0  0  0
   64.0860   33.0930   47.8880 C   0  0  0  0  0  0  0  0  0  0  0  0
   63.5620   32.0290   48.6200 C   0  0  0  0  0  0  0  0  0  0  0  0
   62.2160   31.6770   48.4870 C   0  0  0  0  0  0  0  0  0  0  0  0
   61.3680   32.3990   47.6160 C   0  0  0  0  0  0  0  0  0  0  0  0
   59.5132   28.4017   50.0481 H   0  0  0  0  0  0  0  0  0  0  0  0
   60.5683   27.2462   49.1659 H   0  0  0  0  0  0  0  0  0  0  0  0
   60.9593   28.9994   49.1659 H   0  0  0  0  0  0  0  0  0  0  0  0
   58.9972   26.3132   47.6726 H   0  0  0  0  0  0  0  0  0  0  0  0
   55.5319   23.1572   45.4976 H   0  0  0  0  0  0  0  0  0  0  0  0
   54.8447   24.2816   44.2768 H   0  0  0  0  0  0  0  0  0  0  0  0
   56.6047   23.9224   44.2768 H   0  0  0  0  0  0  0  0  0  0  0  0
   57.0295   28.8462   44.7704 H   0  0  0  0  0  0  0  0  0  0  0  0
   57.9836   30.8607   45.8737 H   0  0  0  0  0  0  0  0  0  0  0  0
   57.2429   32.0970   47.1949 H   0  0  0  0  0  0  0  0  0  0  0  0
   55.9531   33.5299   45.6258 H   0  0  0  0  0  0  0  0  0  0  0  0
   57.1240   35.1891   44.1851 H   0  0  0  0  0  0  0  0  0  0  0  0
   59.5869   35.4978   44.3941 H   0  0  0  0  0  0  0  0  0  0  0  0
   63.6827   34.6496   46.4369 H   0  0  0  0  0  0  0  0  0  0  0  0
   65.1461   33.3657   47.9965 H   0  0  0  0  0  0  0  0  0  0  0  0
   64.2107   31.4638   49.3054 H   0  0  0  0  0  0  0  0  0  0  0  0
   61.8133   30.8318   49.0644 H   0  0  0  0  0  0  0  0  0  0  0  0
  1  2  1  0
  2  3  2  0
  3  4  1  0
  4  5  1  0
  5  6  1  0
  6  7  1  0
  6  8  2  0
  6  9  2  0
  4 10  2  0
 10 11  1  0
 11 12  2  0
 12 13  1  0
 13 14  2  3
 14 15  1  0
 15 16  2  0
 16 17  1  0
 17 18  2  0
 18 19  1  0
 19 20  2  0
 20 21  1  0
 21 22  1  0
 22 23  2  0
 23 24  1  0
 24 25  2  0
 25 26  1  0
 26 27  2  0
 12  2  1  0
 27 14  1  0
 20 15  1  0
 27 22  1  0
  1 28  1  0
  1 29  1  0
  1 30  1  0
  3 31  1  0
  7 32  1  0
  7 33  1  0
  7 34  1  0
 10 35  1  0
 11 36  1  0
 16 37  1  0
 17 38  1  0
 18 39  1  0
 19 40  1  0
 23 41  1  0
 24 42  1  0
 25 43  1  0
 26 44  1  0
M  CHG  2   5  -1  21  -1
M  END
>  <UniqueID>  (75) 
67

>  <SMILES>  (75) 
Cc1cc([N-]S(C)(=O)=O)ccc1N=c1c2ccccc2[n-]c2ccccc12

>  <Energy>  (75) 
75.99942650871795

>  <Genealogy>  (75) 
Cc1cc([N-]S(C)(=O)=O)ccc1N=c1c2ccccc2[n-]c2ccccc12 (protonated)
Cc1cc([N-]S(C)(=O)=O)ccc1N=c1c2ccccc2[n-]c2ccccc12 (3D coordinates assigned)
Cc1cc([N-]S(C)(=O)=O)ccc1N=c1c2ccccc2[n-]c2ccccc12 (optimized conformer: 75.99942650871795 kcal/mol)

>  <smiles>  (75) 
Cc1cc(NS(C)(=O)=O)ccc1N=c1c2ccccc2[nH]c2ccccc12

>  <score_type>  (75) 
oracle

>  <origin>  (75) 
adg

>  <m_score__min__energy>  (75) 
-11.529999999999999

>  <m_primary>  (75) 
energy

$$$$
75:0
     RDKit          3D

 23 24  0  0  0  0  0  0  0  0999 V2000
   55.5774   29.2784   42.0929 H   0  0  0  0  0  0  0  0  0  0  0  0
   56.0940   29.9310   42.8120 C   0  0  0  0  0  0  0  0  0  0  0  0
   57.1770   31.1680   42.4340 S   0  0  0  0  0  0  0  0  0  0  0  0
   57.4340   31.5800   44.0420 C   0  0  0  0  0  0  0  0  0  0  0  0
   58.3050   32.6270   44.4710 N   0  0  0  0  0  0  0  0  0  0  0  0
   58.5380   32.8280   45.7040 N   0  0  0  0  0  0  0  0  0  0  0  0
   59.8540   32.7230   46.2600 C   0  0  0  0  0  0  0  0  0  0  0  0
   60.3520   31.5030   46.7540 C   0  0  0  0  0  0  0  0  0  0  0  0
   59.7247   30.6001   46.7185 H   0  0  0  0  0  0  0  0  0  0  0  0
   61.6420   31.4350   47.2900 C   0  0  0  0  0  0  0  0  0  0  0  0
   62.0257   30.4785   47.6746 H   0  0  0  0  0  0  0  0  0  0  0  0
   62.4480   32.5810   47.3390 C   0  0  0  0  0  0  0  0  0  0  0  0
   63.7670   32.5110   47.8880 N   0  0  0  0  0  0  0  0  0  0  0  0
   64.5460   32.0670   47.3520 H   0  0  0  0  0  0  0  0  0  0  0  0
   63.9730   32.9020   48.8330 H   0  0  0  0  0  0  0  0  0  0  0  0
   61.9510   33.7970   46.8470 C   0  0  0  0  0  0  0  0  0  0  0  0
   62.5779   34.7001   46.8832 H   0  0  0  0  0  0  0  0  0  0  0  0
   60.6620   33.8650   46.3110 C   0  0  0  0  0  0  0  0  0  0  0  0
   60.2799   34.8222   45.9267 H   0  0  0  0  0  0  0  0  0  0  0  0
   56.7140   30.7980   44.8760 N   0  0  0  0  0  0  0  0  0  0  0  0
   56.7220   30.8790   45.9180 H   0  0  0  0  0  0  0  0  0  0  0  0
   55.9720   29.8850   44.1970 C   0  0  0  0  0  0  0  0  0  0  0  0
   55.1520   28.9720   44.8470 O   0  0  0  0  0  0  0  0  0  0  0  0
  1  2  1  0
  2  3  1  0
  3  4  1  0
  4  5  1  0
  5  6  2  0
  6  7  1  0
  7  8  2  0
  8  9  1  0
  8 10  1  0
 10 11  1  0
 10 12  2  0
 12 13  1  0
 13 14  1  0
 13 15  1  0
 12 16  1  0
 16 17  1  0
 16 18  2  0
 18 19  1  0
  4 20  2  0
 20 21  1  0
 20 22  1  0
 22 23  1  0
 22  2  2  0
 18  7  1  0
M  CHG  2  20   1  23  -1
M  END
>  <UniqueID>  (76) 
68

>  <SMILES>  (76) 
Nc1ccc(/N=N/c2[nH+]c([O-])cs2)cc1

>  <Energy>  (76) 
51.73932290560358

>  <Genealogy>  (76) 
Nc1ccc(N=Nc2[nH+]c([O-])cs2)cc1 (protonated)
Nc1ccc(/N=N/c2[nH+]c([O-])cs2)cc1 (cis-trans isomerization)
Nc1ccc(/N=N/c2[nH+]c([O-])cs2)cc1 (3D coordinates assigned)
Nc1ccc(/N=N/c2[nH+]c([O-])cs2)cc1 (optimized conformer: 51.73932290560358 kcal/mol)

>  <smiles>  (76) 
Nc1ccc(N=Nc2nc(O)cs2)cc1

>  <score_type>  (76) 
oracle

>  <origin>  (76) 
adg

>  <m_score__min__energy>  (76) 
-7.9100000000000001

>  <m_primary>  (76) 
energy

$$$$
76:0
     RDKit          3D

 47 48  0  0  0  0  0  0  0  0999 V2000
   59.5990   26.9660   47.3200 C   0  0  0  0  0  0  0  0  0  0  0  0
   58.3140   27.3260   46.6310 C   0  0  0  0  0  0  0  0  0  0  0  0
   57.3150   26.4040   46.5890 N   0  0  0  0  0  0  0  0  0  0  0  0
   56.1300   26.6720   45.9850 C   0  0  0  0  0  0  0  0  0  0  0  0
   55.2250   25.7990   45.9630 O   0  0  0  0  0  0  0  0  0  0  0  0
   55.9180   27.8830   45.4110 N   0  0  0  0  0  0  0  0  0  0  0  0
   56.8810   28.8390   45.4150 C   0  0  0  0  0  0  0  0  0  0  0  0
   56.6490   29.9520   44.8720 O   0  0  0  0  0  0  0  0  0  0  0  0
   58.1260   28.5790   46.0100 C   0  0  0  0  0  0  0  0  0  0  0  0
   59.1840   29.6110   46.0030 C   0  0  0  0  0  0  0  0  0  0  0  0
   59.7950   30.0870   47.0990 C   0  0  0  0  0  0  0  0  0  0  0  0
   59.1250   30.5710   48.3250 C   0  0  0  0  0  0  0  0  0  0  0  0
   58.5890   31.7100   48.3080 O   0  0  0  0  0  0  0  0  0  0  0  0
   59.1080   29.7850   49.5240 N   0  0  0  0  0  0  0  0  0  0  0  0
   59.7890   30.0950   50.7840 C   0  0  2  0  0  0  0  0  0  0  0  0
   61.2530   29.6470   50.7430 C   0  0  0  0  0  0  0  0  0  0  0  0
   59.0430   29.4970   51.9910 C   0  0  0  0  0  0  0  0  0  0  0  0
   57.7290   30.1910   52.2090 C   0  0  0  0  0  0  0  0  0  0  0  0
   57.6300   31.4170   51.9350 O   0  0  0  0  0  0  0  0  0  0  0  0
   56.5810   29.4360   52.6320 N   0  0  0  0  0  0  0  0  0  0  0  0
   55.2480   29.9680   52.7120 C   0  0  0  0  0  0  0  0  0  0  0  0
   54.4700   29.6950   53.8470 C   0  0  0  0  0  0  0  0  0  0  0  0
   53.1750   30.2080   53.9580 C   0  0  0  0  0  0  0  0  0  0  0  0
   52.6490   31.0180   52.9440 C   0  0  0  0  0  0  0  0  0  0  0  0
   51.0100   31.6460   53.0810 S   0  0  0  0  0  0  0  0  0  0  0  0
   50.6550   32.6380   51.7110 N   0  0  0  0  0  0  0  0  0  0  0  0
   50.0330   30.5050   53.1410 O   0  0  0  0  0  0  0  0  0  0  0  0
   50.8760   32.4630   54.3350 O   0  0  0  0  0  0  0  0  0  0  0  0
   53.4280   31.3110   51.8170 C   0  0  0  0  0  0  0  0  0  0  0  0
   54.7240   30.7970   51.7050 C   0  0  0  0  0  0  0  0  0  0  0  0
   59.4546   27.0065   48.4097 H   0  0  0  0  0  0  0  0  0  0  0  0
   59.8995   25.9491   47.0275 H   0  0  0  0  0  0  0  0  0  0  0  0
   60.3841   27.6788   47.0275 H   0  0  0  0  0  0  0  0  0  0  0  0
   59.4930   30.0184   45.0290 H   0  0  0  0  0  0  0  0  0  0  0  0
   60.8944   30.1201   47.0839 H   0  0  0  0  0  0  0  0  0  0  0  0
   59.7808   31.1878   50.9098 H   0  0  0  0  0  0  0  0  0  0  0  0
   61.6300   29.5316   51.7699 H   0  0  0  0  0  0  0  0  0  0  0  0
   61.3274   28.6850   50.2148 H   0  0  0  0  0  0  0  0  0  0  0  0
   61.8530   30.4026   50.2148 H   0  0  0  0  0  0  0  0  0  0  0  0
   58.8592   28.4282   51.8068 H   0  0  0  0  0  0  0  0  0  0  0  0
   59.6640   29.6320   52.8889 H   0  0  0  0  0  0  0  0  0  0  0  0
   56.6930   28.4020   52.7330 H   0  0  0  0  0  0  0  0  0  0  0  0
   54.8822   29.0729   54.6551 H   0  0  0  0  0  0  0  0  0  0  0  0
   52.5669   29.9749   54.8445 H   0  0  0  0  0  0  0  0  0  0  0  0
   49.9460   33.3420   52.0210 H   0  0  0  0  0  0  0  0  0  0  0  0
   53.0193   31.9470   51.0180 H   0  0  0  0  0  0  0  0  0  0  0  0
   55.3361   31.0427   50.8247 H   0  0  0  0  0  0  0  0  0  0  0  0
  1  2  1  0
  2  3  1  0
  3  4  1  0
  4  5  2  0
  4  6  1  0
  6  7  1  0
  7  8  2  0
  7  9  1  0
  9 10  1  0
 10 11  2  3
 11 12  1  0
 12 13  2  0
 12 14  1  0
 14 15  1  0
 15 16  1  0
 15 17  1  0
 17 18  1  0
 18 19  2  0
 18 20  1  0
 20 21  1  0
 21 22  2  0
 22 23  1  0
 23 24  2  0
 24 25  1  0
 25 26  1  0
 25 27  2  0
 25 28  2  0
 24 29  1  0
 29 30  2  0
  9  2  2  0
 30 21  1  0
  1 31  1  0
  1 32  1  0
  1 33  1  0
 10 34  1  0
 11 35  1  0
 15 36  1  1
 16 37  1  0
 16 38  1  0
 16 39  1  0
 17 40  1  0
 17 41  1  0
 20 42  1  0
 22 43  1  0
 23 44  1  0
 26 45  1  0
 29 46  1  0
 30 47  1  0
M  CHG  4   3  -1   6  -1  14  -1  26  -1
M  END
>  <UniqueID>  (77) 
69

>  <SMILES>  (77) 
Cc1[n-]c(=O)[n-]c(=O)c1C=CC(=O)[N-][C@H](C)CC(=O)Nc1ccc(S([NH-])(=O)=O)cc1

>  <Energy>  (77) 
52.214575251526725

>  <Genealogy>  (77) 
Cc1[n-]c(=O)[n-]c(=O)c1C=CC(=O)[N-]C(C)CC(=O)Nc1ccc(S([NH-])(=O)=O)cc1 (protonated)
Cc1[n-]c(=O)[n-]c(=O)c1C=CC(=O)[N-][C@H](C)CC(=O)Nc1ccc(S([NH-])(=O)=O)cc1 (chirality)
Cc1[n-]c(=O)[n-]c(=O)c1C=CC(=O)[N-][C@H](C)CC(=O)Nc1ccc(S([NH-])(=O)=O)cc1 (3D coordinates assigned)
Cc1[n-]c(=O)[n-]c(=O)c1C=CC(=O)[N-][C@H](C)CC(=O)Nc1ccc(S([NH-])(=O)=O)cc1 (optimized conformer: 52.214575251526725 kcal/mol)

>  <smiles>  (77) 
Cc1[nH]c(=O)[nH]c(=O)c1C=CC(=O)NC(C)CC(=O)Nc1ccc(S(N)(=O)=O)cc1

>  <score_type>  (77) 
oracle

>  <origin>  (77) 
adg

>  <m_score__min__energy>  (77) 
-15.44

>  <m_primary>  (77) 
energy

$$$$
77:0
     RDKit          3D

 55 58  0  0  0  0  0  0  0  0999 V2000
   59.0650   30.2780   48.3850 F   0  0  0  0  0  0  0  0  0  0  0  0
   60.1050   29.6870   49.0770 C   0  0  0  0  0  0  0  0  0  0  0  0
   60.9510   30.6780   49.5400 F   0  0  0  0  0  0  0  0  0  0  0  0
   59.5830   28.9760   50.1420 F   0  0  0  0  0  0  0  0  0  0  0  0
   60.8070   28.8130   48.1970 O   0  0  0  0  0  0  0  0  0  0  0  0
   60.2650   27.6760   47.5750 C   0  0  0  0  0  0  0  0  0  0  0  0
   61.1460   26.7330   47.0460 C   0  0  0  0  0  0  0  0  0  0  0  0
   60.6660   25.5920   46.4040 C   0  0  0  0  0  0  0  0  0  0  0  0
   59.2870   25.3640   46.2710 C   0  0  0  0  0  0  0  0  0  0  0  0
   58.8620   24.1480   45.5340 C   0  0  0  0  0  0  0  0  0  0  0  0
   59.5130   22.9670   45.5370 N   0  0  0  0  0  0  0  0  0  0  0  0
   58.7870   22.1590   44.7860 N   0  0  0  0  0  0  0  0  0  0  0  0
   57.7210   22.8490   44.3530 C   0  0  0  0  0  0  0  0  0  0  0  0
   57.7610   24.0760   44.8160 O   0  0  0  0  0  0  0  0  0  0  0  0
   58.3770   26.2990   46.8420 C   0  0  0  0  0  0  0  0  0  0  0  0
   56.8770   26.1130   46.8080 C   0  0  0  0  0  0  0  0  0  0  0  0
   56.2660   26.7960   45.5750 C   0  0  0  0  0  0  0  0  0  0  0  0
   56.8760   28.1260   45.3680 N   0  0  0  0  0  0  0  0  0  0  0  0
   58.0630   28.0510   44.4920 C   0  0  0  0  0  0  0  0  0  0  0  0
   58.8340   29.3720   44.5890 C   0  0  0  0  0  0  0  0  0  0  0  0
   57.9080   30.5070   44.6990 N   0  0  0  0  0  0  0  0  0  0  0  0
   58.3700   31.7710   45.2120 C   0  0  0  0  0  0  0  0  0  0  0  0
   57.6250   32.9410   44.9910 C   0  0  0  0  0  0  0  0  0  0  0  0
   58.0570   34.1610   45.5120 C   0  0  0  0  0  0  0  0  0  0  0  0
   59.2370   34.2310   46.2550 C   0  0  0  0  0  0  0  0  0  0  0  0
   60.0090   33.0770   46.4710 C   0  0  0  0  0  0  0  0  0  0  0  0
   61.2590   33.1350   47.3120 C   0  0  0  0  0  0  0  0  0  0  0  0
   61.7880   31.8630   47.4310 F   0  0  0  0  0  0  0  0  0  0  0  0
   60.9830   33.6270   48.5760 F   0  0  0  0  0  0  0  0  0  0  0  0
   62.2010   33.9610   46.7240 F   0  0  0  0  0  0  0  0  0  0  0  0
   59.5530   31.8450   45.9680 C   0  0  0  0  0  0  0  0  0  0  0  0
   56.5290   30.3450   44.2200 C   0  0  0  0  0  0  0  0  0  0  0  0
   55.8810   29.0830   44.8280 C   0  0  0  0  0  0  0  0  0  0  0  0
   58.8810   27.4540   47.4690 C   0  0  0  0  0  0  0  0  0  0  0  0
   62.2309   26.8910   47.1362 H   0  0  0  0  0  0  0  0  0  0  0  0
   61.3782   24.8598   45.9958 H   0  0  0  0  0  0  0  0  0  0  0  0
   59.0180   21.1620   44.5810 H   0  0  0  0  0  0  0  0  0  0  0  0
   56.9294   22.4452   43.7047 H   0  0  0  0  0  0  0  0  0  0  0  0
   56.6484   25.0375   46.7739 H   0  0  0  0  0  0  0  0  0  0  0  0
   56.4464   26.5697   47.7113 H   0  0  0  0  0  0  0  0  0  0  0  0
   56.4476   26.1718   44.6876 H   0  0  0  0  0  0  0  0  0  0  0  0
   55.1848   26.9202   45.7348 H   0  0  0  0  0  0  0  0  0  0  0  0
   58.7090   27.2215   44.8153 H   0  0  0  0  0  0  0  0  0  0  0  0
   57.7491   27.8774   43.4521 H   0  0  0  0  0  0  0  0  0  0  0  0
   59.4821   29.3474   45.4775 H   0  0  0  0  0  0  0  0  0  0  0  0
   59.4388   29.4961   43.6786 H   0  0  0  0  0  0  0  0  0  0  0  0
   56.6959   32.8952   44.4039 H   0  0  0  0  0  0  0  0  0  0  0  0
   57.4654   35.0716   45.3367 H   0  0  0  0  0  0  0  0  0  0  0  0
   59.5639   35.1944   46.6734 H   0  0  0  0  0  0  0  0  0  0  0  0
   60.1285   30.9292   46.1684 H   0  0  0  0  0  0  0  0  0  0  0  0
   55.9405   31.2278   44.5104 H   0  0  0  0  0  0  0  0  0  0  0  0
   56.5467   30.2391   43.1253 H   0  0  0  0  0  0  0  0  0  0  0  0
   55.2114   29.3911   45.6446 H   0  0  0  0  0  0  0  0  0  0  0  0
   55.3352   28.5714   44.0216 H   0  0  0  0  0  0  0  0  0  0  0  0
   58.1808   28.1947   47.8826 H   0  0  0  0  0  0  0  0  0  0  0  0
  1  2  1  0
  2  3  1  0
  2  4  1  0
  2  5  1  0
  5  6  1  0
  6  7  2  0
  7  8  1  0
  8  9  2  0
  9 10  1  0
 10 11  2  0
 11 12  1  0
 12 13  2  0
 13 14  1  0
  9 15  1  0
 15 16  1  0
 16 17  1  0
 17 18  1  0
 18 19  1  0
 19 20  1  0
 20 21  1  0
 21 22  1  0
 22 23  2  0
 23 24  1  0
 24 25  2  0
 25 26  1  0
 26 27  1  0
 27 28  1  0
 27 29  1  0
 27 30  1  0
 26 31  2  0
 21 32  1  0
 32 33  1  0
 15 34  2  0
 34  6  1  0
 14 10  1  0
 33 18  1  0
 31 22  1  0
  7 35  1  0
  8 36  1  0
 12 37  1  0
 13 38  1  0
 16 39  1  0
 16 40  1  0
 17 41  1  0
 17 42  1  0
 19 43  1  0
 19 44  1  0
 20 45  1  0
 20 46  1  0
 23 47  1  0
 24 48  1  0
 25 49  1  0
 31 50  1  0
 32 51  1  0
 32 52  1  0
 33 53  1  0
 33 54  1  0
 34 55  1  0
M  CHG  1  12   1
M  END
>  <UniqueID>  (78) 
70

>  <SMILES>  (78) 
FC(F)(F)Oc1ccc(-c2n[nH+]co2)c(CCN2CCN(c3cccc(C(F)(F)F)c3)CC2)c1

>  <Energy>  (78) 
107.36829877218086

>  <Genealogy>  (78) 
FC(F)(F)Oc1ccc(-c2n[nH+]co2)c(CCN2CCN(c3cccc(C(F)(F)F)c3)CC2)c1 (protonated)
FC(F)(F)Oc1ccc(-c2n[nH+]co2)c(CCN2CCN(c3cccc(C(F)(F)F)c3)CC2)c1 (3D coordinates assigned)
FC(F)(F)Oc1ccc(-c2n[nH+]co2)c(CCN2CCN(c3cccc(C(F)(F)F)c3)CC2)c1 (nonaromatic ring conformer: 107.36829877218086 kcal/mol)

>  <smiles>  (78) 
FC(F)(F)Oc1ccc(-c2nnco2)c(CCN2CCN(c3cccc(C(F)(F)F)c3)CC2)c1

>  <score_type>  (78) 
oracle

>  <origin>  (78) 
adg

>  <m_score__min__energy>  (78) 
-7

>  <m_primary>  (78) 
energy

$$$$
78:0
     RDKit          3D

 41 43  0  0  0  0  0  0  0  0999 V2000
   60.5100   28.3650   45.1580 C   0  0  0  0  0  0  0  0  0  0  0  0
   59.2320   27.9980   44.4100 C   0  0  0  0  0  0  0  0  0  0  0  0
   58.2620   29.1480   44.4240 C   0  0  0  0  0  0  0  0  0  0  0  0
   58.6510   30.3930   44.9330 C   0  0  0  0  0  0  0  0  0  0  0  0
   57.7150   31.4400   44.9610 C   0  0  0  0  0  0  0  0  0  0  0  0
   58.0680   32.7500   45.4630 N   0  0  0  0  0  0  0  0  0  0  0  0
   58.4390   33.8190   44.5280 C   0  0  0  0  0  0  0  0  0  0  0  0
   58.1980   32.9890   46.9100 C   0  0  0  0  0  0  0  0  0  0  0  0
   59.2960   32.1260   47.5010 C   0  0  0  0  0  0  0  0  0  0  0  0
   58.9270   30.9660   48.2040 C   0  0  0  0  0  0  0  0  0  0  0  0
   59.8930   30.1160   48.7410 C   0  0  0  0  0  0  0  0  0  0  0  0
   61.2470   30.4030   48.5870 C   0  0  0  0  0  0  0  0  0  0  0  0
   61.6500   31.5500   47.8920 C   0  0  0  0  0  0  0  0  0  0  0  0
   63.0180   31.8300   47.7390 C   0  0  0  0  0  0  0  0  0  0  0  0
   63.4300   32.9700   47.0500 C   0  0  0  0  0  0  0  0  0  0  0  0
   62.4860   33.8420   46.5110 C   0  0  0  0  0  0  0  0  0  0  0  0
   61.1210   33.5800   46.6540 C   0  0  0  0  0  0  0  0  0  0  0  0
   60.6770   32.4300   47.3420 C   0  0  0  0  0  0  0  0  0  0  0  0
   56.4570   31.2070   44.4990 N   0  0  0  0  0  0  0  0  0  0  0  0
   56.0880   29.9910   44.0200 C   0  0  0  0  0  0  0  0  0  0  0  0
   56.9830   28.9700   43.9890 N   0  0  0  0  0  0  0  0  0  0  0  0
   60.3284   28.3129   46.2417 H   0  0  0  0  0  0  0  0  0  0  0  0
   61.3094   27.6601   44.8858 H   0  0  0  0  0  0  0  0  0  0  0  0
   60.8136   29.3866   44.8858 H   0  0  0  0  0  0  0  0  0  0  0  0
   59.4818   27.7483   43.3682 H   0  0  0  0  0  0  0  0  0  0  0  0
   58.7657   27.1344   44.9067 H   0  0  0  0  0  0  0  0  0  0  0  0
   59.6743   30.5489   45.3054 H   0  0  0  0  0  0  0  0  0  0  0  0
   58.7483   34.7101   45.0939 H   0  0  0  0  0  0  0  0  0  0  0  0
   59.2719   33.4795   43.8947 H   0  0  0  0  0  0  0  0  0  0  0  0
   57.5749   34.0685   43.8947 H   0  0  0  0  0  0  0  0  0  0  0  0
   58.4406   34.0483   47.0803 H   0  0  0  0  0  0  0  0  0  0  0  0
   57.2460   32.7315   47.3972 H   0  0  0  0  0  0  0  0  0  0  0  0
   57.8613   30.7255   48.3322 H   0  0  0  0  0  0  0  0  0  0  0  0
   59.5840   29.2138   49.2893 H   0  0  0  0  0  0  0  0  0  0  0  0
   62.0026   29.7264   49.0128 H   0  0  0  0  0  0  0  0  0  0  0  0
   63.7676   31.1468   48.1647 H   0  0  0  0  0  0  0  0  0  0  0  0
   64.5029   33.1816   46.9316 H   0  0  0  0  0  0  0  0  0  0  0  0
   62.8171   34.7409   45.9703 H   0  0  0  0  0  0  0  0  0  0  0  0
   60.3850   34.2767   46.2263 H   0  0  0  0  0  0  0  0  0  0  0  0
   55.0620   29.8327   43.6563 H   0  0  0  0  0  0  0  0  0  0  0  0
   56.6760   28.0400   43.6250 H   0  0  0  0  0  0  0  0  0  0  0  0
  1  2  1  0
  2  3  1  0
  3  4  2  0
  4  5  1  0
  5  6  1  0
  6  7  1  0
  6  8  1  0
  8  9  1  0
  9 10  2  0
 10 11  1  0
 11 12  2  0
 12 13  1  0
 13 14  2  0
 14 15  1  0
 15 16  2  0
 16 17  1  0
 17 18  2  0
  5 19  2  0
 19 20  1  0
 20 21  2  0
 21  3  1  0
 18  9  1  0
 18 13  1  0
  1 22  1  0
  1 23  1  0
  1 24  1  0
  2 25  1  0
  2 26  1  0
  4 27  1  0
  7 28  1  0
  7 29  1  0
  7 30  1  0
  8 31  1  0
  8 32  1  0
 10 33  1  0
 11 34  1  0
 12 35  1  0
 14 36  1  0
 15 37  1  0
 16 38  1  0
 17 39  1  0
 20 40  1  0
 21 41  1  0
M  CHG  1  21   1
M  END
>  <UniqueID>  (79) 
71

>  <SMILES>  (79) 
CCc1cc(N(C)Cc2cccc3ccccc23)nc[nH+]1

>  <Energy>  (79) 
45.782591333530156

>  <Genealogy>  (79) 
CCc1cc(N(C)Cc2cccc3ccccc23)nc[nH+]1 (protonated)
CCc1cc(N(C)Cc2cccc3ccccc23)nc[nH+]1 (3D coordinates assigned)
CCc1cc(N(C)Cc2cccc3ccccc23)nc[nH+]1 (optimized conformer: 45.782591333530156 kcal/mol)

>  <smiles>  (79) 
CCc1cc(N(C)Cc2cccc3ccccc23)ncn1

>  <score_type>  (79) 
oracle

>  <origin>  (79) 
adg

>  <m_score__min__energy>  (79) 
-6.4000000000000004

>  <m_primary>  (79) 
energy

$$$$
79:0
     RDKit          3D

 47 51  0  0  1  0  0  0  0  0999 V2000
   62.3440   31.2370   49.4450 C   0  0  0  0  0  0  0  0  0  0  0  0
   62.6280   31.6930   48.1670 C   0  0  0  0  0  0  0  0  0  0  0  0
   61.8970   31.2030   47.1140 C   0  0  0  0  0  0  0  0  0  0  0  0
   60.8970   30.2700   47.3410 C   0  0  0  0  0  0  0  0  0  0  0  0
   60.1860   29.8010   46.2620 C   0  0  0  0  0  0  0  0  0  0  0  0
   59.1710   28.8590   46.4450 C   0  0  0  0  0  0  0  0  0  0  0  0
   58.4640   28.4100   45.2230 C   0  0  0  0  0  0  0  0  0  0  0  0
   56.9980   28.6960   45.3710 C   0  0  0  0  0  0  0  0  0  0  0  0
   56.5100   29.8950   44.8810 N   0  0  0  0  0  0  0  0  0  0  0  0
   56.9840   30.7640   44.1500 C   0  0  0  0  0  0  0  0  0  0  0  0
   56.7660   30.6970   42.8190 N   0  0  0  0  0  0  0  0  0  0  0  0
   57.1990   31.6130   41.9390 C   0  0  0  0  0  0  0  0  0  0  0  0
   57.8910   32.6520   42.4370 N   0  0  0  0  0  0  0  0  0  0  0  0
   58.1290   32.7540   43.7560 C   0  0  0  0  0  0  0  0  0  0  0  0
   58.8420   33.8360   44.1910 C   0  0  0  0  0  0  0  0  0  0  0  0
   59.0770   33.9120   45.5460 C   0  0  0  0  0  0  0  0  0  0  0  0
   58.6560   32.9980   46.4620 C   0  0  0  0  0  0  0  0  0  0  0  0
   58.9730   33.1950   47.8680 C   0  0  0  0  0  0  0  0  0  0  0  0
   59.7910   34.2170   48.3100 C   0  0  0  0  0  0  0  0  0  0  0  0
   59.8560   34.0870   49.6820 C   0  0  0  0  0  0  0  0  0  0  0  0
   59.1260   33.0580   50.0200 O   0  0  0  0  0  0  0  0  0  0  0  0
   58.5690   32.4810   48.9760 C   0  0  0  0  0  0  0  0  0  0  0  0
   57.9210   31.8830   46.0130 C   0  0  0  0  0  0  0  0  0  0  0  0
   57.6900   31.8160   44.6760 C   0  0  0  0  0  0  0  0  0  0  0  0
   58.8710   28.3910   47.7100 C   0  0  0  0  0  0  0  0  0  0  0  0
   59.5910   28.8650   48.8120 C   0  0  0  0  0  0  0  0  0  0  0  0
   60.6020   29.8040   48.6180 C   0  0  0  0  0  0  0  0  0  0  0  0
   61.3380   30.2990   49.6690 C   0  0  0  0  0  0  0  0  0  0  0  0
   62.9229   31.6224   50.2973 H   0  0  0  0  0  0  0  0  0  0  0  0
   63.4241   32.4335   48.0002 H   0  0  0  0  0  0  0  0  0  0  0  0
   62.1043   31.5501   46.0910 H   0  0  0  0  0  0  0  0  0  0  0  0
   60.4171   30.1687   45.2514 H   0  0  0  0  0  0  0  0  0  0  0  0
   58.8584   28.9502   44.3497 H   0  0  0  0  0  0  0  0  0  0  0  0
   58.6185   27.3302   45.0809 H   0  0  0  0  0  0  0  0  0  0  0  0
   56.4554   27.8891   44.8567 H   0  0  0  0  0  0  0  0  0  0  0  0
   56.8434   28.7643   46.4579 H   0  0  0  0  0  0  0  0  0  0  0  0
   56.2270   29.8890   42.4060 H   0  0  0  0  0  0  0  0  0  0  0  0
   56.9973   31.5180   40.8618 H   0  0  0  0  0  0  0  0  0  0  0  0
   59.2087   34.6054   43.4956 H   0  0  0  0  0  0  0  0  0  0  0  0
   59.6480   34.7766   45.9155 H   0  0  0  0  0  0  0  0  0  0  0  0
   60.2893   34.9795   47.6933 H   0  0  0  0  0  0  0  0  0  0  0  0
   60.4215   34.7342   50.3685 H   0  0  0  0  0  0  0  0  0  0  0  0
   57.9096   31.6006   48.9858 H   0  0  0  0  0  0  0  0  0  0  0  0
   57.5551   31.1107   46.7056 H   0  0  0  0  0  0  0  0  0  0  0  0
   58.0704   27.6497   47.8499 H   0  0  0  0  0  0  0  0  0  0  0  0
   59.3608   28.4993   49.8236 H   0  0  0  0  0  0  0  0  0  0  0  0
   61.1314   29.9525   50.6924 H   0  0  0  0  0  0  0  0  0  0  0  0
  1  2  2  0
  2  3  1  0
  3  4  2  0
  4  5  1  0
  5  6  2  0
  6  7  1  0
  7  8  1  0
  8  9  1  0
  9 10  2  0
 10 11  1  0
 11 12  1  0
 12 13  2  0
 13 14  1  0
 14 15  2  0
 15 16  1  0
 16 17  2  0
 17 18  1  0
 18 19  1  0
 19 20  2  0
 20 21  1  0
 21 22  1  0
 17 23  1  0
 23 24  2  0
  6 25  1  0
 25 26  2  0
 26 27  1  0
 27 28  2  0
 28  1  1  0
 27  4  1  0
 24 10  1  0
 24 14  1  0
 22 18  2  0
  1 29  1  0
  2 30  1  0
  3 31  1  0
  5 32  1  0
  7 33  1  0
  7 34  1  0
  8 35  1  0
  8 36  1  0
 11 37  1  0
 12 38  1  0
 15 39  1  0
 16 40  1  0
 19 41  1  0
 20 42  1  0
 22 43  1  0
 23 44  1  0
 25 45  1  0
 26 46  1  0
 28 47  1  0
M  END
>  <smiles>  (80) 
c1ccc2cc(CCN=c3[nH]cnc4ccc(-c5ccoc5)cc34)ccc2c1

>  <score_type>  (80) 
oracle

>  <origin>  (80) 
adg

>  <m_score__min__energy>  (80) 
-8.5899999999999999

>  <m_primary>  (80) 
energy

$$$$
80:0
     RDKit          3D

 24 25  0  0  0  0  0  0  0  0999 V2000
   62.0360   31.5650   47.7310 C   0  0  0  0  0  0  0  0  0  0  0  0
   61.0160   31.3790   46.7560 O   0  0  0  0  0  0  0  0  0  0  0  0
   60.1160   30.2970   46.7260 C   0  0  0  0  0  0  0  0  0  0  0  0
   60.3890   29.1140   47.4350 C   0  0  0  0  0  0  0  0  0  0  0  0
   59.4990   28.0490   47.4040 C   0  0  0  0  0  0  0  0  0  0  0  0
   58.3200   28.1330   46.6680 C   0  0  0  0  0  0  0  0  0  0  0  0
   57.4750   27.0710   46.6610 N   0  0  0  0  0  0  0  0  0  0  0  0
   56.3150   27.0970   45.9650 C   0  0  0  0  0  0  0  0  0  0  0  0
   55.5550   26.0930   45.9810 O   0  0  0  0  0  0  0  0  0  0  0  0
   55.9750   28.2000   45.2520 N   0  0  0  0  0  0  0  0  0  0  0  0
   56.7800   29.2980   45.2190 C   0  0  0  0  0  0  0  0  0  0  0  0
   56.4070   30.2910   44.5390 O   0  0  0  0  0  0  0  0  0  0  0  0
   58.0060   29.3070   45.9390 C   0  0  0  0  0  0  0  0  0  0  0  0
   58.9230   30.4070   45.9700 C   0  0  0  0  0  0  0  0  0  0  0  0
   58.6520   31.6910   45.2150 C   0  0  0  0  0  0  0  0  0  0  0  0
   61.5998   31.4855   48.7377 H   0  0  0  0  0  0  0  0  0  0  0  0
   62.8094   30.7931   47.6044 H   0  0  0  0  0  0  0  0  0  0  0  0
   62.4871   32.5602   47.6044 H   0  0  0  0  0  0  0  0  0  0  0  0
   61.3169   29.0315   48.0200 H   0  0  0  0  0  0  0  0  0  0  0  0
   59.7271   27.1311   47.9656 H   0  0  0  0  0  0  0  0  0  0  0  0
   55.0760   28.2060   44.7190 H   0  0  0  0  0  0  0  0  0  0  0  0
   58.4796   32.5080   45.9311 H   0  0  0  0  0  0  0  0  0  0  0  0
   59.5186   31.9344   44.5827 H   0  0  0  0  0  0  0  0  0  0  0  0
   57.7610   31.5635   44.5827 H   0  0  0  0  0  0  0  0  0  0  0  0
  1  2  1  0
  2  3  1  0
  3  4  2  0
  4  5  1  0
  5  6  2  0
  6  7  1  0
  7  8  1  0
  8  9  2  0
  8 10  1  0
 10 11  1  0
 11 12  2  0
 11 13  1  0
 13 14  2  0
 14 15  1  0
 14  3  1  0
 13  6  1  0
  1 16  1  0
  1 17  1  0
  1 18  1  0
  4 19  1  0
  5 20  1  0
 10 21  1  0
 15 22  1  0
 15 23  1  0
 15 24  1  0
M  CHG  1   7  -1
M  END
>  <UniqueID>  (81) 
72

>  <SMILES>  (81) 
COc1ccc2[n-]c(=O)[nH]c(=O)c2c1C

>  <Energy>  (81) 
34.379770433162484

>  <Genealogy>  (81) 
COc1ccc2[n-]c(=O)[nH]c(=O)c2c1C (protonated)
COc1ccc2[n-]c(=O)[nH]c(=O)c2c1C (3D coordinates assigned)
COc1ccc2[n-]c(=O)[nH]c(=O)c2c1C (optimized conformer: 34.379770433162484 kcal/mol)

>  <smiles>  (81) 
COc1ccc2[nH]c(=O)[nH]c(=O)c2c1C

>  <score_type>  (81) 
oracle

>  <origin>  (81) 
adg

>  <m_score__min__energy>  (81) 
-7.2699999999999996

>  <m_primary>  (81) 
energy

$$$$
81:0
     RDKit          3D

 34 35  0  0  0  0  0  0  0  0999 V2000
   60.9688   28.0698   45.9416 H   0  0  0  0  0  0  0  0  0  0  0  0
   59.9350   28.3870   45.7400 C   0  0  0  0  0  0  0  0  0  0  0  0
   59.0340   27.4980   45.1500 C   0  0  0  0  0  0  0  0  0  0  0  0
   59.3570   26.4779   44.8950 H   0  0  0  0  0  0  0  0  0  0  0  0
   57.7240   27.9010   44.8830 C   0  0  0  0  0  0  0  0  0  0  0  0
   57.0212   27.1998   44.4093 H   0  0  0  0  0  0  0  0  0  0  0  0
   57.2980   29.2030   45.2180 C   0  0  0  0  0  0  0  0  0  0  0  0
   55.9930   29.6510   44.9590 O   0  0  0  0  0  0  0  0  0  0  0  0
   55.5220   30.0660   43.6800 C   0  0  0  0  0  0  0  0  0  0  0  0
   54.7023   30.7883   43.8078 H   0  0  0  0  0  0  0  0  0  0  0  0
   56.3438   30.5389   43.1224 H   0  0  0  0  0  0  0  0  0  0  0  0
   55.1563   29.1912   43.1224 H   0  0  0  0  0  0  0  0  0  0  0  0
   58.1990   30.0840   45.8380 C   0  0  0  0  0  0  0  0  0  0  0  0
   57.7760   31.4190   46.1450 N   0  0  0  0  0  0  0  0  0  0  0  0
   58.5130   32.4900   46.0540 C   0  0  0  0  0  0  0  0  0  0  0  0
   59.6360   32.8300   46.9920 C   0  0  0  0  0  0  0  0  0  0  0  0
   59.2871   32.8048   48.0349 H   0  0  0  0  0  0  0  0  0  0  0  0
   60.4650   32.1111   46.9147 H   0  0  0  0  0  0  0  0  0  0  0  0
   60.0730   34.2450   46.6080 C   0  0  0  0  0  0  0  0  0  0  0  0
   59.9179   34.9387   47.4474 H   0  0  0  0  0  0  0  0  0  0  0  0
   61.1421   34.2926   46.3536 H   0  0  0  0  0  0  0  0  0  0  0  0
   59.2050   34.6170   45.4530 C   0  0  0  0  0  0  0  0  0  0  0  0
   59.3050   35.6900   44.8780 O   0  0  0  0  0  0  0  0  0  0  0  0
   58.2100   33.5720   45.0660 C   0  0  0  0  0  0  0  0  0  0  0  0
   58.4560   33.0840   43.6310 C   0  0  0  0  0  0  0  0  0  0  0  0
   58.9510   32.1020   43.6574 H   0  0  0  0  0  0  0  0  0  0  0  0
   57.4946   32.9959   43.1038 H   0  0  0  0  0  0  0  0  0  0  0  0
   59.0986   33.8045   43.1038 H   0  0  0  0  0  0  0  0  0  0  0  0
   56.7760   34.0980   45.2420 C   0  0  0  0  0  0  0  0  0  0  0  0
   56.5455   34.1826   46.3142 H   0  0  0  0  0  0  0  0  0  0  0  0
   56.6876   35.0871   44.7688 H   0  0  0  0  0  0  0  0  0  0  0  0
   56.0690   33.4007   44.7688 H   0  0  0  0  0  0  0  0  0  0  0  0
   59.5230   29.6790   46.0740 C   0  0  0  0  0  0  0  0  0  0  0  0
   60.2388   30.3827   46.5240 H   0  0  0  0  0  0  0  0  0  0  0  0
  1  2  1  0
  2  3  2  0
  3  4  1  0
  3  5  1  0
  5  6  1  0
  5  7  2  0
  7  8  1  0
  8  9  1  0
  9 10  1  0
  9 11  1  0
  9 12  1  0
  7 13  1  0
 13 14  1  0
 14 15  2  0
 15 16  1  0
 16 17  1  0
 16 18  1  0
 16 19  1  0
 19 20  1  0
 19 21  1  0
 19 22  1  0
 22 23  2  0
 22 24  1  0
 24 25  1  0
 25 26  1  0
 25 27  1  0
 25 28  1  0
 24 29  1  0
 29 30  1  0
 29 31  1  0
 29 32  1  0
 13 33  2  0
 33 34  1  0
 33  2  1  0
 24 15  1  0
M  END
>  <UniqueID>  (82) 
73

>  <SMILES>  (82) 
COc1ccccc1/N=C1\CCC(=O)C1(C)C

>  <Energy>  (82) 
36.036635945682875

>  <Genealogy>  (82) 
COc1ccccc1/N=C1\CCC(=O)C1(C)C (cis-trans isomerization)
COc1ccccc1/N=C1\CCC(=O)C1(C)C (3D coordinates assigned)
COc1ccccc1/N=C1\CCC(=O)C1(C)C (nonaromatic ring conformer: 36.036635945682875 kcal/mol)

>  <smiles>  (82) 
COc1ccccc1N=C1CCC(=O)C1(C)C

>  <score_type>  (82) 
oracle

>  <origin>  (82) 
adg

>  <m_score__min__energy>  (82) 
-6.8300000000000001

>  <m_primary>  (82) 
energy

$$$$
82:0
     RDKit          3D

 24 25  0  0  0  0  0  0  0  0999 V2000
   60.7710   30.0660   47.4910 C   0  0  0  0  0  0  0  0  0  0  0  0
   59.6170   30.5470   46.7100 N   0  0  0  0  0  0  0  0  0  0  0  0
   58.6600   29.6380   46.3520 C   0  0  0  0  0  0  0  0  0  0  0  0
   57.5280   30.0080   45.6070 C   0  0  0  0  0  0  0  0  0  0  0  0
   56.5190   28.9680   45.2480 C   0  0  0  0  0  0  0  0  0  0  0  0
   55.1950   29.3250   44.8530 N   0  0  0  0  0  0  0  0  0  0  0  0
   56.8280   27.7470   45.2900 O   0  0  0  0  0  0  0  0  0  0  0  0
   57.3890   31.3570   45.2270 C   0  0  0  0  0  0  0  0  0  0  0  0
   56.3850   31.7300   44.5580 O   0  0  0  0  0  0  0  0  0  0  0  0
   58.3710   32.2960   45.5940 C   0  0  0  0  0  0  0  0  0  0  0  0
   58.2470   33.6500   45.2220 C   0  0  0  0  0  0  0  0  0  0  0  0
   59.2230   34.5760   45.5870 C   0  0  0  0  0  0  0  0  0  0  0  0
   60.3310   34.1690   46.3250 C   0  0  0  0  0  0  0  0  0  0  0  0
   60.4720   32.8340   46.7030 C   0  0  0  0  0  0  0  0  0  0  0  0
   59.4960   31.8710   46.3460 C   0  0  0  0  0  0  0  0  0  0  0  0
   60.5509   30.1578   48.5648 H   0  0  0  0  0  0  0  0  0  0  0  0
   60.9661   29.0116   47.2455 H   0  0  0  0  0  0  0  0  0  0  0  0
   61.6572   30.6697   47.2455 H   0  0  0  0  0  0  0  0  0  0  0  0
   58.7800   28.5877   46.6560 H   0  0  0  0  0  0  0  0  0  0  0  0
   54.4200   29.3710   45.5510 H   0  0  0  0  0  0  0  0  0  0  0  0
   57.3736   33.9783   44.6394 H   0  0  0  0  0  0  0  0  0  0  0  0
   59.1174   35.6302   45.2913 H   0  0  0  0  0  0  0  0  0  0  0  0
   61.0984   34.9033   46.6112 H   0  0  0  0  0  0  0  0  0  0  0  0
   61.3522   32.5247   47.2858 H   0  0  0  0  0  0  0  0  0  0  0  0
  1  2  1  0
  2  3  1  0
  3  4  2  0
  4  5  1  0
  5  6  1  0
  5  7  2  0
  4  8  1  0
  8  9  2  0
  8 10  1  0
 10 11  2  0
 11 12  1  0
 12 13  2  0
 13 14  1  0
 14 15  2  0
 15  2  1  0
 15 10  1  0
  1 16  1  0
  1 17  1  0
  1 18  1  0
  3 19  1  0
  6 20  1  0
 11 21  1  0
 12 22  1  0
 13 23  1  0
 14 24  1  0
M  CHG  1   6  -1
M  END
>  <UniqueID>  (83) 
74

>  <SMILES>  (83) 
Cn1cc(C([NH-])=O)c(=O)c2ccccc21

>  <Energy>  (83) 
36.13098622769931

>  <Genealogy>  (83) 
Cn1cc(C([NH-])=O)c(=O)c2ccccc21 (protonated)
Cn1cc(C([NH-])=O)c(=O)c2ccccc21 (3D coordinates assigned)
Cn1cc(C([NH-])=O)c(=O)c2ccccc21 (optimized conformer: 36.13098622769931 kcal/mol)

>  <smiles>  (83) 
Cn1cc(C(N)=O)c(=O)c2ccccc21

>  <score_type>  (83) 
oracle

>  <origin>  (83) 
adg

>  <m_score__min__energy>  (83) 
-9.25

>  <m_primary>  (83) 
energy

$$$$
83:0
     RDKit          3D

 46 48  0  0  0  0  0  0  0  0999 V2000
   55.3910   24.8280   45.6130 C   0  0  0  0  0  0  0  0  0  0  0  0
   55.4620   26.1820   46.0450 O   0  0  0  0  0  0  0  0  0  0  0  0
   56.6460   26.9340   46.1010 C   0  0  0  0  0  0  0  0  0  0  0  0
   57.5670   26.6510   47.1160 C   0  0  0  0  0  0  0  0  0  0  0  0
   58.7600   27.3720   47.2150 C   0  0  0  0  0  0  0  0  0  0  0  0
   59.0540   28.3850   46.2900 C   0  0  0  0  0  0  0  0  0  0  0  0
   60.3250   29.1850   46.4190 C   0  0  0  0  0  0  0  0  0  0  0  0
   60.2740   30.1210   47.6260 C   0  0  0  0  0  0  0  0  0  0  0  0
   58.9120   30.6010   47.8360 N   0  0  0  0  0  0  0  0  0  0  0  0
   58.4940   31.9440   47.5740 C   0  0  0  0  0  0  0  0  0  0  0  0
   58.2250   32.7050   48.5400 O   0  0  0  0  0  0  0  0  0  0  0  0
   58.4020   32.4650   46.2030 C   0  0  0  0  0  0  0  0  0  0  0  0
   58.0110   31.7330   45.0970 C   0  0  0  0  0  0  0  0  0  0  0  0
   58.1170   32.6230   44.0450 C   0  0  0  0  0  0  0  0  0  0  0  0
   57.7490   32.2420   42.2130 Br  0  0  0  0  0  0  0  0  0  0  0  0
   58.5570   33.8080   44.5040 N   0  0  0  0  0  0  0  0  0  0  0  0
   58.7280   33.7180   45.8130 N   0  0  0  0  0  0  0  0  0  0  0  0
   59.3640   34.7620   46.6190 C   0  0  0  0  0  0  0  0  0  0  0  0
   60.6630   34.2540   47.1800 C   0  0  0  0  0  0  0  0  0  0  0  0
   60.8750   34.2360   48.5690 C   0  0  0  0  0  0  0  0  0  0  0  0
   62.0990   33.8020   49.0880 C   0  0  0  0  0  0  0  0  0  0  0  0
   63.1200   33.3940   48.2270 C   0  0  0  0  0  0  0  0  0  0  0  0
   62.9210   33.4200   46.8440 C   0  0  0  0  0  0  0  0  0  0  0  0
   61.6990   33.8530   46.3200 C   0  0  0  0  0  0  0  0  0  0  0  0
   58.1280   28.6780   45.2760 C   0  0  0  0  0  0  0  0  0  0  0  0
   56.9350   27.9570   45.1770 C   0  0  0  0  0  0  0  0  0  0  0  0
   55.3562   24.1647   46.4898 H   0  0  0  0  0  0  0  0  0  0  0  0
   54.4840   24.6834   45.0076 H   0  0  0  0  0  0  0  0  0  0  0  0
   56.2779   24.5893   45.0076 H   0  0  0  0  0  0  0  0  0  0  0  0
   57.3499   25.8539   47.8423 H   0  0  0  0  0  0  0  0  0  0  0  0
   59.4719   27.1442   48.0220 H   0  0  0  0  0  0  0  0  0  0  0  0
   61.1725   28.4939   46.5375 H   0  0  0  0  0  0  0  0  0  0  0  0
   60.4435   29.7957   45.5118 H   0  0  0  0  0  0  0  0  0  0  0  0
   60.6095   29.5774   48.5215 H   0  0  0  0  0  0  0  0  0  0  0  0
   60.9327   30.9821   47.4398 H   0  0  0  0  0  0  0  0  0  0  0  0
   57.6889   30.6818   45.0624 H   0  0  0  0  0  0  0  0  0  0  0  0
   58.7690   34.6520   43.9270 H   0  0  0  0  0  0  0  0  0  0  0  0
   59.5582   35.6422   45.9885 H   0  0  0  0  0  0  0  0  0  0  0  0
   58.6950   35.0387   47.4472 H   0  0  0  0  0  0  0  0  0  0  0  0
   60.0760   34.5642   49.2500 H   0  0  0  0  0  0  0  0  0  0  0  0
   62.2578   33.7820   50.1763 H   0  0  0  0  0  0  0  0  0  0  0  0
   64.0814   33.0520   48.6377 H   0  0  0  0  0  0  0  0  0  0  0  0
   63.7265   33.0995   46.1669 H   0  0  0  0  0  0  0  0  0  0  0  0
   61.5484   33.8797   45.2307 H   0  0  0  0  0  0  0  0  0  0  0  0
   58.3430   29.4803   44.5548 H   0  0  0  0  0  0  0  0  0  0  0  0
   56.2192   28.1892   44.3747 H   0  0  0  0  0  0  0  0  0  0  0  0
  1  2  1  0
  2  3  1  0
  3  4  2  0
  4  5  1  0
  5  6  2  0
  6  7  1  0
  7  8  1  0
  8  9  1  0
  9 10  1  0
 10 11  2  0
 10 12  1  0
 12 13  2  0
 13 14  1  0
 14 15  1  0
 14 16  2  0
 16 17  1  0
 17 18  1  0
 18 19  1  0
 19 20  2  0
 20 21  1  0
 21 22  2  0
 22 23  1  0
 23 24  2  0
  6 25  1  0
 25 26  2  0
 26  3  1  0
 17 12  1  0
 24 19  1  0
  1 27  1  0
  1 28  1  0
  1 29  1  0
  4 30  1  0
  5 31  1  0
  7 32  1  0
  7 33  1  0
  8 34  1  0
  8 35  1  0
 13 36  1  0
 16 37  1  0
 18 38  1  0
 18 39  1  0
 20 40  1  0
 21 41  1  0
 22 42  1  0
 23 43  1  0
 24 44  1  0
 25 45  1  0
 26 46  1  0
M  CHG  2   9  -1  16   1
M  END
>  <UniqueID>  (84) 
75

>  <SMILES>  (84) 
COc1ccc(CC[N-]C(=O)c2cc(Br)[nH+]n2Cc2ccccc2)cc1

>  <Energy>  (84) 
77.88840850091057

>  <Genealogy>  (84) 
COc1ccc(CC[N-]C(=O)c2cc(Br)[nH+]n2Cc2ccccc2)cc1 (protonated)
COc1ccc(CC[N-]C(=O)c2cc(Br)[nH+]n2Cc2ccccc2)cc1 (3D coordinates assigned)
COc1ccc(CC[N-]C(=O)c2cc(Br)[nH+]n2Cc2ccccc2)cc1 (optimized conformer: 77.88840850091057 kcal/mol)

>  <smiles>  (84) 
COc1ccc(CCNC(=O)c2cc(Br)nn2Cc2ccccc2)cc1

>  <score_type>  (84) 
oracle

>  <origin>  (84) 
adg

>  <m_score__min__energy>  (84) 
-8.6799999999999997

>  <m_primary>  (84) 
energy

$$$$
84:0
     RDKit          3D

 46 48  0  0  0  0  0  0  0  0999 V2000
   59.1340   31.4410   48.6990 C   0  0  0  0  0  0  0  0  0  0  0  0
   58.1530   32.1660   47.9660 O   0  0  0  0  0  0  0  0  0  0  0  0
   58.4150   32.9420   46.8230 C   0  0  0  0  0  0  0  0  0  0  0  0
   58.9930   34.2240   46.9220 C   0  0  0  0  0  0  0  0  0  0  0  0
   59.2950   34.9570   45.7730 C   0  0  0  0  0  0  0  0  0  0  0  0
   59.0320   34.4230   44.5140 C   0  0  0  0  0  0  0  0  0  0  0  0
   58.4520   33.1600   44.3980 C   0  0  0  0  0  0  0  0  0  0  0  0
   58.1200   32.4150   45.5440 C   0  0  0  0  0  0  0  0  0  0  0  0
   57.4830   31.0870   45.3730 C   0  0  0  0  0  0  0  0  0  0  0  0
   58.0070   29.8600   45.7350 C   0  0  0  0  0  0  0  0  0  0  0  0
   57.0150   28.9640   45.3980 C   0  0  0  0  0  0  0  0  0  0  0  0
   57.0750   27.4790   45.5780 C   0  0  0  0  0  0  0  0  0  0  0  0
   55.7640   26.9620   45.9530 N   0  0  0  0  0  0  0  0  0  0  0  0
   55.4020   25.5800   45.8620 C   0  0  0  0  0  0  0  0  0  0  0  0
   54.1930   25.2330   45.9640 O   0  0  0  0  0  0  0  0  0  0  0  0
   56.4750   24.5430   45.6730 C   0  0  2  0  0  0  0  0  0  0  0  0
   56.1550   23.6260   44.4840 C   0  0  0  0  0  0  0  0  0  0  0  0
   57.2760   22.5990   44.2480 C   0  0  0  0  0  0  0  0  0  0  0  0
   58.1610   22.3710   45.4920 C   0  0  0  0  0  0  0  0  0  0  0  0
   57.3960   22.4290   46.7550 N   0  0  0  0  0  0  0  0  0  0  0  0
   56.5200   21.2570   46.9200 C   0  0  0  0  0  0  0  0  0  0  0  0
   56.6740   23.7120   46.9630 C   0  0  0  0  0  0  0  0  0  0  0  0
   55.9610   29.6190   44.8760 N   0  0  0  0  0  0  0  0  0  0  0  0
   56.2450   30.9140   44.8660 N   0  0  0  0  0  0  0  0  0  0  0  0
   58.9572   31.5717   49.7768 H   0  0  0  0  0  0  0  0  0  0  0  0
   59.0677   30.3732   48.4434 H   0  0  0  0  0  0  0  0  0  0  0  0
   60.1354   31.8178   48.4434 H   0  0  0  0  0  0  0  0  0  0  0  0
   59.2078   34.6503   47.9130 H   0  0  0  0  0  0  0  0  0  0  0  0
   59.7416   35.9583   45.8622 H   0  0  0  0  0  0  0  0  0  0  0  0
   59.2820   34.9979   43.6101 H   0  0  0  0  0  0  0  0  0  0  0  0
   58.2521   32.7422   43.4002 H   0  0  0  0  0  0  0  0  0  0  0  0
   58.9873   29.6480   46.1868 H   0  0  0  0  0  0  0  0  0  0  0  0
   57.3933   27.0115   44.6345 H   0  0  0  0  0  0  0  0  0  0  0  0
   57.7945   27.2438   46.3762 H   0  0  0  0  0  0  0  0  0  0  0  0
   57.4152   25.0703   45.4539 H   0  0  0  0  0  0  0  0  0  0  0  0
   55.2162   23.0902   44.6880 H   0  0  0  0  0  0  0  0  0  0  0  0
   56.0615   24.2490   43.5823 H   0  0  0  0  0  0  0  0  0  0  0  0
   56.8180   21.6401   43.9638 H   0  0  0  0  0  0  0  0  0  0  0  0
   57.9239   22.9978   43.4535 H   0  0  0  0  0  0  0  0  0  0  0  0
   58.6326   21.3805   45.4115 H   0  0  0  0  0  0  0  0  0  0  0  0
   58.9091   23.1770   45.5196 H   0  0  0  0  0  0  0  0  0  0  0  0
   56.3714   21.0582   47.9916 H   0  0  0  0  0  0  0  0  0  0  0  0
   55.5477   21.4563   46.4458 H   0  0  0  0  0  0  0  0  0  0  0  0
   56.9865   20.3809   46.4458 H   0  0  0  0  0  0  0  0  0  0  0  0
   55.6833   23.4862   47.3844 H   0  0  0  0  0  0  0  0  0  0  0  0
   57.2953   24.3190   47.6379 H   0  0  0  0  0  0  0  0  0  0  0  0
  1  2  1  0
  2  3  1  0
  3  4  2  0
  4  5  1  0
  5  6  2  0
  6  7  1  0
  7  8  2  0
  8  9  1  0
  9 10  2  0
 10 11  1  0
 11 12  1  0
 12 13  1  0
 13 14  1  0
 14 15  2  0
 14 16  1  0
 16 17  1  0
 17 18  1  0
 18 19  1  0
 19 20  1  0
 20 21  1  0
 20 22  1  0
 11 23  2  0
 23 24  1  0
  8  3  1  0
 24  9  1  0
 22 16  1  0
  1 25  1  0
  1 26  1  0
  1 27  1  0
  4 28  1  0
  5 29  1  0
  6 30  1  0
  7 31  1  0
 10 32  1  0
 12 33  1  0
 12 34  1  0
 16 35  1  6
 17 36  1  0
 17 37  1  0
 18 38  1  0
 18 39  1  0
 19 40  1  0
 19 41  1  0
 21 42  1  0
 21 43  1  0
 21 44  1  0
 22 45  1  0
 22 46  1  0
M  CHG  2  13  -1  24  -1
M  END
>  <UniqueID>  (85) 
76

>  <SMILES>  (85) 
COc1ccccc1-c1cc(C[N-]C(=O)[C@@H]2CCCN(C)C2)n[n-]1

>  <Energy>  (85) 
84.2039021015921

>  <Genealogy>  (85) 
COc1ccccc1-c1cc(C[N-]C(=O)C2CCCN(C)C2)n[n-]1 (protonated)
COc1ccccc1-c1cc(C[N-]C(=O)[C@@H]2CCCN(C)C2)n[n-]1 (chirality)
COc1ccccc1-c1cc(C[N-]C(=O)[C@@H]2CCCN(C)C2)n[n-]1 (3D coordinates assigned)
COc1ccccc1-c1cc(C[N-]C(=O)[C@@H]2CCCN(C)C2)n[n-]1 (nonaromatic ring conformer: 84.2039021015921 kcal/mol)

>  <smiles>  (85) 
COc1ccccc1-c1cc(CNC(=O)C2CCCN(C)C2)n[nH]1

>  <score_type>  (85) 
oracle

>  <origin>  (85) 
adg

>  <m_score__min__energy>  (85) 
-12.42

>  <m_primary>  (85) 
energy

$$$$
85:0
     RDKit          3D

 46 48  0  0  0  0  0  0  0  0999 V2000
   55.1470   26.7320   46.0560 N   0  0  0  0  0  0  0  0  0  0  0  0
   55.9600   25.5910   46.3220 C   0  0  0  0  0  0  0  0  0  0  0  0
   56.5250   25.4900   47.4450 O   0  0  0  0  0  0  0  0  0  0  0  0
   56.1610   24.5560   45.2770 C   0  0  0  0  0  0  0  0  0  0  0  0
   55.1910   23.5470   45.1230 C   0  0  0  0  0  0  0  0  0  0  0  0
   55.3140   22.5830   44.1210 C   0  0  0  0  0  0  0  0  0  0  0  0
   56.4090   22.6060   43.2590 C   0  0  0  0  0  0  0  0  0  0  0  0
   57.3880   23.5890   43.4000 C   0  0  0  0  0  0  0  0  0  0  0  0
   57.2780   24.5730   44.4000 C   0  0  0  0  0  0  0  0  0  0  0  0
   58.3470   25.5170   44.5790 N   0  0  0  0  0  0  0  0  0  0  0  0
   59.0610   25.6650   45.8150 C   0  0  0  0  0  0  0  0  0  0  0  0
   58.9440   24.8030   46.7280 O   0  0  0  0  0  0  0  0  0  0  0  0
   59.9330   26.8620   46.0380 C   0  0  0  0  0  0  0  0  0  0  0  0
   59.1430   28.1160   45.7930 C   0  0  0  0  0  0  0  0  0  0  0  0
   59.7960   29.3120   45.4550 C   0  0  0  0  0  0  0  0  0  0  0  0
   59.0560   30.4620   45.1680 C   0  0  0  0  0  0  0  0  0  0  0  0
   57.6570   30.4330   45.2000 C   0  0  0  0  0  0  0  0  0  0  0  0
   56.9360   31.6300   44.8740 N   0  0  0  0  0  0  0  0  0  0  0  0
   57.6000   33.2320   44.9010 S   0  0  0  0  0  0  0  0  0  0  0  0
   56.4790   34.2300   44.8730 O   0  0  0  0  0  0  0  0  0  0  0  0
   58.4620   33.4260   43.6860 O   0  0  0  0  0  0  0  0  0  0  0  0
   58.5390   33.4710   46.3720 C   0  0  0  0  0  0  0  0  0  0  0  0
   58.2120   32.7710   47.5440 C   0  0  0  0  0  0  0  0  0  0  0  0
   58.9440   32.9830   48.7150 C   0  0  0  0  0  0  0  0  0  0  0  0
   60.0070   33.8910   48.7230 C   0  0  0  0  0  0  0  0  0  0  0  0
   60.3410   34.5850   47.5560 C   0  0  0  0  0  0  0  0  0  0  0  0
   59.6110   34.3750   46.3820 C   0  0  0  0  0  0  0  0  0  0  0  0
   57.0020   29.2350   45.5360 C   0  0  0  0  0  0  0  0  0  0  0  0
   57.7410   28.0850   45.8260 C   0  0  0  0  0  0  0  0  0  0  0  0
   55.1370   27.1750   45.1090 H   0  0  0  0  0  0  0  0  0  0  0  0
   54.3253   23.5181   45.8010 H   0  0  0  0  0  0  0  0  0  0  0  0
   54.5453   21.8038   44.0115 H   0  0  0  0  0  0  0  0  0  0  0  0
   56.5010   21.8483   42.4669 H   0  0  0  0  0  0  0  0  0  0  0  0
   58.2548   23.5953   42.7228 H   0  0  0  0  0  0  0  0  0  0  0  0
   58.5960   26.1450   43.7820 H   0  0  0  0  0  0  0  0  0  0  0  0
   60.3011   26.8583   47.0746 H   0  0  0  0  0  0  0  0  0  0  0  0
   60.7853   26.8266   45.3435 H   0  0  0  0  0  0  0  0  0  0  0  0
   60.8948   29.3439   45.4159 H   0  0  0  0  0  0  0  0  0  0  0  0
   59.5769   31.3972   44.9150 H   0  0  0  0  0  0  0  0  0  0  0  0
   57.3777   32.0541   47.5404 H   0  0  0  0  0  0  0  0  0  0  0  0
   58.6835   32.4345   49.6322 H   0  0  0  0  0  0  0  0  0  0  0  0
   60.5802   34.0593   49.6466 H   0  0  0  0  0  0  0  0  0  0  0  0
   61.1793   35.2972   47.5615 H   0  0  0  0  0  0  0  0  0  0  0  0
   59.8781   34.9199   45.4646 H   0  0  0  0  0  0  0  0  0  0  0  0
   55.9030   29.2029   45.5707 H   0  0  0  0  0  0  0  0  0  0  0  0
   57.2204   27.1503   46.0816 H   0  0  0  0  0  0  0  0  0  0  0  0
  1  2  1  0
  2  3  2  0
  2  4  1  0
  4  5  2  0
  5  6  1  0
  6  7  2  0
  7  8  1  0
  8  9  2  0
  9 10  1  0
 10 11  1  0
 11 12  2  0
 11 13  1  0
 13 14  1  0
 14 15  2  0
 15 16  1  0
 16 17  2  0
 17 18  1  0
 18 19  1  0
 19 20  2  0
 19 21  2  0
 19 22  1  0
 22 23  2  0
 23 24  1  0
 24 25  2  0
 25 26  1  0
 26 27  2  0
 17 28  1  0
 28 29  2  0
  9  4  1  0
 29 14  1  0
 27 22  1  0
  1 30  1  0
  5 31  1  0
  6 32  1  0
  7 33  1  0
  8 34  1  0
 10 35  1  0
 13 36  1  0
 13 37  1  0
 15 38  1  0
 16 39  1  0
 23 40  1  0
 24 41  1  0
 25 42  1  0
 26 43  1  0
 27 44  1  0
 28 45  1  0
 29 46  1  0
M  CHG  2   1  -1  18  -1
M  END
>  <UniqueID>  (86) 
77

>  <SMILES>  (86) 
[NH-]C(=O)c1ccccc1NC(=O)Cc1ccc([N-]S(=O)(=O)c2ccccc2)cc1

>  <Energy>  (86) 
56.47966585360667

>  <Genealogy>  (86) 
[NH-]C(=O)c1ccccc1NC(=O)Cc1ccc([N-]S(=O)(=O)c2ccccc2)cc1 (protonated)
[NH-]C(=O)c1ccccc1NC(=O)Cc1ccc([N-]S(=O)(=O)c2ccccc2)cc1 (3D coordinates assigned)
[NH-]C(=O)c1ccccc1NC(=O)Cc1ccc([N-]S(=O)(=O)c2ccccc2)cc1 (optimized conformer: 56.47966585360667 kcal/mol)

>  <smiles>  (86) 
NC(=O)c1ccccc1NC(=O)Cc1ccc(NS(=O)(=O)c2ccccc2)cc1

>  <score_type>  (86) 
oracle

>  <origin>  (86) 
adg

>  <m_score__min__energy>  (86) 
-13.27

>  <m_primary>  (86) 
energy

$$$$
86:0
     RDKit          3D

 54 57  0  0  0  0  0  0  0  0999 V2000
   58.2250   33.7800   52.3670 C   0  0  0  0  0  0  0  0  0  0  0  0
   58.6770   32.3470   52.6320 C   0  0  0  0  0  0  0  0  0  0  0  0
   57.5900   31.3940   52.3660 N   0  0  0  0  0  0  0  0  0  0  0  0
   56.2760   31.5860   52.9930 C   0  0  0  0  0  0  0  0  0  0  0  0
   55.1630   31.0890   52.0780 C   0  0  0  0  0  0  0  0  0  0  0  0
   57.8420   30.2090   51.5890 C   0  0  0  0  0  0  0  0  0  0  0  0
   57.3970   29.0960   51.9840 O   0  0  0  0  0  0  0  0  0  0  0  0
   58.6110   30.2740   50.3330 C   0  0  0  0  0  0  0  0  0  0  0  0
   59.4340   29.2030   49.9530 C   0  0  0  0  0  0  0  0  0  0  0  0
   60.1430   29.2510   48.7520 C   0  0  0  0  0  0  0  0  0  0  0  0
   60.0250   30.3660   47.9150 C   0  0  0  0  0  0  0  0  0  0  0  0
   59.1930   31.4370   48.2710 C   0  0  0  0  0  0  0  0  0  0  0  0
   58.4870   31.3860   49.4820 C   0  0  0  0  0  0  0  0  0  0  0  0
   59.0050   32.5370   47.3580 N   0  0  0  0  0  0  0  0  0  0  0  0
   59.6040   33.8430   47.6800 C   0  0  0  0  0  0  0  0  0  0  0  0
   61.0990   33.7410   47.8580 C   0  0  0  0  0  0  0  0  0  0  0  0
   61.9330   33.5520   46.7440 C   0  0  0  0  0  0  0  0  0  0  0  0
   63.3160   33.4260   46.9070 C   0  0  0  0  0  0  0  0  0  0  0  0
   63.8810   33.5110   48.1820 C   0  0  0  0  0  0  0  0  0  0  0  0
   63.0630   33.7330   49.2940 C   0  0  0  0  0  0  0  0  0  0  0  0
   63.6130   33.8360   50.5300 F   0  0  0  0  0  0  0  0  0  0  0  0
   61.6780   33.8490   49.1350 C   0  0  0  0  0  0  0  0  0  0  0  0
   58.3620   32.3280   46.0760 C   0  0  0  0  0  0  0  0  0  0  0  0
   57.8650   33.3110   45.4650 O   0  0  0  0  0  0  0  0  0  0  0  0
   58.2350   30.9820   45.4570 C   0  0  0  0  0  0  0  0  0  0  0  0
   57.0450   30.6510   44.7850 C   0  0  0  0  0  0  0  0  0  0  0  0
   56.8740   29.3830   44.2220 C   0  0  0  0  0  0  0  0  0  0  0  0
   57.8890   28.4320   44.3190 C   0  0  0  0  0  0  0  0  0  0  0  0
   59.0850   28.7490   44.9670 C   0  0  0  0  0  0  0  0  0  0  0  0
   59.2720   30.0210   45.5210 C   0  0  0  0  0  0  0  0  0  0  0  0
   60.8350   30.3860   46.3230 S   0  0  0  0  0  0  0  0  0  0  0  0
   58.0622   34.2961   53.3246 H   0  0  0  0  0  0  0  0  0  0  0  0
   59.0000   34.3087   51.7927 H   0  0  0  0  0  0  0  0  0  0  0  0
   57.2869   33.7683   51.7927 H   0  0  0  0  0  0  0  0  0  0  0  0
   59.5295   32.1120   51.9779 H   0  0  0  0  0  0  0  0  0  0  0  0
   58.9674   32.2611   53.6895 H   0  0  0  0  0  0  0  0  0  0  0  0
   56.2424   31.0259   53.9391 H   0  0  0  0  0  0  0  0  0  0  0  0
   56.1271   32.6599   53.1788 H   0  0  0  0  0  0  0  0  0  0  0  0
   54.3267   30.7156   52.6873 H   0  0  0  0  0  0  0  0  0  0  0  0
   54.8133   31.9165   51.4432 H   0  0  0  0  0  0  0  0  0  0  0  0
   55.5457   30.2763   51.4432 H   0  0  0  0  0  0  0  0  0  0  0  0
   59.5207   28.3213   50.6049 H   0  0  0  0  0  0  0  0  0  0  0  0
   60.7943   28.4128   48.4635 H   0  0  0  0  0  0  0  0  0  0  0  0
   57.8317   32.2220   49.7678 H   0  0  0  0  0  0  0  0  0  0  0  0
   59.3893   34.5456   46.8613 H   0  0  0  0  0  0  0  0  0  0  0  0
   59.1687   34.1967   48.6263 H   0  0  0  0  0  0  0  0  0  0  0  0
   61.4952   33.5027   45.7361 H   0  0  0  0  0  0  0  0  0  0  0  0
   63.9597   33.2598   46.0306 H   0  0  0  0  0  0  0  0  0  0  0  0
   64.9681   33.4034   48.3108 H   0  0  0  0  0  0  0  0  0  0  0  0
   61.0390   34.0255   50.0128 H   0  0  0  0  0  0  0  0  0  0  0  0
   56.2409   31.3970   44.7015 H   0  0  0  0  0  0  0  0  0  0  0  0
   55.9371   29.1351   43.7016 H   0  0  0  0  0  0  0  0  0  0  0  0
   57.7477   27.4312   43.8848 H   0  0  0  0  0  0  0  0  0  0  0  0
   59.8833   27.9960   45.0424 H   0  0  0  0  0  0  0  0  0  0  0  0
  1  2  1  0
  2  3  1  0
  3  4  1  0
  4  5  1  0
  3  6  1  0
  6  7  2  0
  6  8  1  0
  8  9  2  0
  9 10  1  0
 10 11  2  0
 11 12  1  0
 12 13  2  0
 12 14  1  0
 14 15  1  0
 15 16  1  0
 16 17  2  0
 17 18  1  0
 18 19  2  0
 19 20  1  0
 20 21  1  0
 20 22  2  0
 14 23  1  0
 23 24  2  0
 23 25  1  0
 25 26  2  0
 26 27  1  0
 27 28  2  0
 28 29  1  0
 29 30  2  0
 30 31  1  0
 13  8  1  0
 22 16  1  0
 30 25  1  0
 31 11  1  0
  1 32  1  0
  1 33  1  0
  1 34  1  0
  2 35  1  0
  2 36  1  0
  4 37  1  0
  4 38  1  0
  5 39  1  0
  5 40  1  0
  5 41  1  0
  9 42  1  0
 10 43  1  0
 13 44  1  0
 15 45  1  0
 15 46  1  0
 17 47  1  0
 18 48  1  0
 19 49  1  0
 22 50  1  0
 26 51  1  0
 27 52  1  0
 28 53  1  0
 29 54  1  0
M  END
>  <UniqueID>  (87) 
78

>  <SMILES>  (87) 
CCN(CC)C(=O)c1ccc2c(c1)N(Cc1cccc(F)c1)C(=O)c1ccccc1S2

>  <Energy>  (87) 
70.07645611918984

>  <Genealogy>  (87) 
CCN(CC)C(=O)c1ccc2c(c1)N(Cc1cccc(F)c1)C(=O)c1ccccc1S2 (3D coordinates assigned)
CCN(CC)C(=O)c1ccc2c(c1)N(Cc1cccc(F)c1)C(=O)c1ccccc1S2 (nonaromatic ring conformer: 70.07645611918984 kcal/mol)

>  <smiles>  (87) 
CCN(CC)C(=O)c1ccc2c(c1)N(Cc1cccc(F)c1)C(=O)c1ccccc1S2

>  <score_type>  (87) 
oracle

>  <origin>  (87) 
adg

>  <m_score__min__energy>  (87) 
-9.2300000000000004

>  <m_primary>  (87) 
energy

$$$$
87:0
     RDKit          3D

 26 26  0  0  0  0  0  0  0  0999 V2000
   56.0001   25.1482   46.7820 H   0  0  0  0  0  0  0  0  0  0  0  0
   56.4950   26.0240   46.3370 C   0  0  0  0  0  0  0  0  0  0  0  0
   55.7490   27.0550   45.8590 N   0  0  0  0  0  0  0  0  0  0  0  0
   56.3130   28.1610   45.2980 C   0  0  0  0  0  0  0  0  0  0  0  0
   55.5300   29.1060   44.8640 N   0  0  0  0  0  0  0  0  0  0  0  0
   55.5850   29.7340   43.5450 C   0  0  0  0  0  0  0  0  0  0  0  0
   54.5977   30.1506   43.2965 H   0  0  0  0  0  0  0  0  0  0  0  0
   55.8670   28.9816   42.7937 H   0  0  0  0  0  0  0  0  0  0  0  0
   56.6210   30.8540   43.5540 C   0  0  0  0  0  0  0  0  0  0  0  0
   56.3158   31.6404   42.8481 H   0  0  0  0  0  0  0  0  0  0  0  0
   57.5989   30.4489   43.2545 H   0  0  0  0  0  0  0  0  0  0  0  0
   56.7220   31.4220   44.9040 N   0  0  0  0  0  0  0  0  0  0  0  0
   56.6460   30.6520   45.6110 H   0  0  0  0  0  0  0  0  0  0  0  0
   57.9700   32.1750   45.1150 C   0  0  0  0  0  0  0  0  0  0  0  0
   58.4213   32.3821   44.1334 H   0  0  0  0  0  0  0  0  0  0  0  0
   58.6177   31.5537   45.7509 H   0  0  0  0  0  0  0  0  0  0  0  0
   57.7670   33.5110   45.8480 C   0  0  0  0  0  0  0  0  0  0  0  0
   58.9140   34.2740   45.7220 F   0  0  0  0  0  0  0  0  0  0  0  0
   56.7070   34.2130   45.3000 F   0  0  0  0  0  0  0  0  0  0  0  0
   57.5320   33.3000   47.1930 F   0  0  0  0  0  0  0  0  0  0  0  0
   57.7190   28.2430   45.2100 C   0  0  0  0  0  0  0  0  0  0  0  0
   58.1962   29.1268   44.7615 H   0  0  0  0  0  0  0  0  0  0  0  0
   58.4990   27.1930   45.6970 C   0  0  0  0  0  0  0  0  0  0  0  0
   59.5958   27.2474   45.6336 H   0  0  0  0  0  0  0  0  0  0  0  0
   57.8880   26.0750   46.2640 C   0  0  0  0  0  0  0  0  0  0  0  0
   58.4964   25.2434   46.6490 H   0  0  0  0  0  0  0  0  0  0  0  0
  1  2  1  0
  2  3  1  0
  3  4  1  0
  4  5  2  0
  5  6  1  0
  6  7  1  0
  6  8  1  0
  6  9  1  0
  9 10  1  0
  9 11  1  0
  9 12  1  0
 12 13  1  0
 12 14  1  0
 14 15  1  0
 14 16  1  0
 14 17  1  0
 17 18  1  0
 17 19  1  0
 17 20  1  0
  4 21  1  0
 21 22  1  0
 21 23  2  0
 23 24  1  0
 23 25  1  0
 25 26  1  0
 25  2  2  0
M  CHG  1   3  -1
M  END
>  <UniqueID>  (88) 
79

>  <SMILES>  (88) 
FC(F)(F)CNCC/N=c1\cccc[n-]1

>  <Energy>  (88) 
22.968711897392406

>  <Genealogy>  (88) 
FC(F)(F)CNCCN=c1cccc[n-]1 (protonated)
FC(F)(F)CNCC/N=c1\cccc[n-]1 (cis-trans isomerization)
FC(F)(F)CNCC/N=c1\cccc[n-]1 (3D coordinates assigned)
FC(F)(F)CNCC/N=c1\cccc[n-]1 (optimized conformer: 22.968711897392406 kcal/mol)

>  <smiles>  (88) 
FC(F)(F)CNCCN=c1cccc[nH]1

>  <score_type>  (88) 
oracle

>  <origin>  (88) 
adg

>  <m_score__min__energy>  (88) 
-6.8600000000000003

>  <m_primary>  (88) 
energy

$$$$
88:0
     RDKit          3D

 27 27  0  0  0  0  0  0  0  0999 V2000
   56.5394   25.1380   46.5680 H   0  0  0  0  0  0  0  0  0  0  0  0
   56.3400   26.1470   46.1780 C   0  0  0  0  0  0  0  0  0  0  0  0
   55.1460   26.5080   46.0010 O   0  0  0  0  0  0  0  0  0  0  0  0
   57.4850   27.0400   45.8770 C   0  0  0  0  0  0  0  0  0  0  0  0
   57.8680   27.3770   44.6300 C   0  0  0  0  0  0  0  0  0  0  0  0
   58.5588   26.6995   44.1067 H   0  0  0  0  0  0  0  0  0  0  0  0
   57.4250   28.5940   43.9150 C   0  0  0  0  0  0  0  0  0  0  0  0
   56.6482   28.4908   43.1430 H   0  0  0  0  0  0  0  0  0  0  0  0
   57.9200   29.8160   44.1580 C   0  0  0  0  0  0  0  0  0  0  0  0
   59.0002   29.9651   44.0134 H   0  0  0  0  0  0  0  0  0  0  0  0
   57.1230   30.9790   44.6060 C   0  0  0  0  0  0  0  0  0  0  0  0
   55.8660   30.8900   44.5540 O   0  0  0  0  0  0  0  0  0  0  0  0
   57.7380   32.2100   45.1620 C   0  0  0  0  0  0  0  0  0  0  0  0
   57.8820   33.3520   44.3520 C   0  0  0  0  0  0  0  0  0  0  0  0
   57.5353   33.3293   43.3083 H   0  0  0  0  0  0  0  0  0  0  0  0
   58.4630   34.5150   44.8660 C   0  0  0  0  0  0  0  0  0  0  0  0
   58.5777   35.4008   44.2240 H   0  0  0  0  0  0  0  0  0  0  0  0
   58.8980   34.5550   46.1920 C   0  0  0  0  0  0  0  0  0  0  0  0
   59.3590   35.4701   46.5921 H   0  0  0  0  0  0  0  0  0  0  0  0
   58.7480   33.4330   47.0110 C   0  0  0  0  0  0  0  0  0  0  0  0
   59.0879   33.4662   48.0566 H   0  0  0  0  0  0  0  0  0  0  0  0
   58.1660   32.2680   46.5020 C   0  0  0  0  0  0  0  0  0  0  0  0
   58.0416   31.3903   47.1533 H   0  0  0  0  0  0  0  0  0  0  0  0
   58.1900   27.6840   47.0380 C   0  0  0  0  0  0  0  0  0  0  0  0
   57.7706   27.3009   47.9800 H   0  0  0  0  0  0  0  0  0  0  0  0
   59.2634   27.4481   46.9918 H   0  0  0  0  0  0  0  0  0  0  0  0
   58.0519   28.7743   46.9918 H   0  0  0  0  0  0  0  0  0  0  0  0
  1  2  1  0
  2  3  2  0
  2  4  1  0
  4  5  2  0
  5  6  1  0
  5  7  1  0
  7  8  1  0
  7  9  2  0
  9 10  1  0
  9 11  1  0
 11 12  2  0
 11 13  1  0
 13 14  2  0
 14 15  1  0
 14 16  1  0
 16 17  1  0
 16 18  2  0
 18 19  1  0
 18 20  1  0
 20 21  1  0
 20 22  2  0
 22 23  1  0
  4 24  1  0
 24 25  1  0
 24 26  1  0
 24 27  1  0
 22 13  1  0
M  END
>  <UniqueID>  (89) 
80

>  <SMILES>  (89) 
C/C(C=O)=C/C=C\C(=O)c1ccccc1

>  <Energy>  (89) 
34.84628506119344

>  <Genealogy>  (89) 
C/C(C=O)=C/C=C\C(=O)c1ccccc1 (cis-trans isomerization)
C/C(C=O)=C/C=C\C(=O)c1ccccc1 (3D coordinates assigned)
C/C(C=O)=C/C=C\C(=O)c1ccccc1 (optimized conformer: 34.84628506119344 kcal/mol)

>  <smiles>  (89) 
CC(C=O)=CC=CC(=O)c1ccccc1

>  <score_type>  (89) 
oracle

>  <origin>  (89) 
adg

>  <m_score__min__energy>  (89) 
-6.6699999999999999

>  <m_primary>  (89) 
energy

$$$$
89:0
     RDKit          3D

 52 55  0  0  0  0  0  0  0  0999 V2000
   59.2660   33.2510   50.3110 C   0  0  0  0  0  0  0  0  0  0  0  0
   59.9620   33.7320   49.1660 O   0  0  0  0  0  0  0  0  0  0  0  0
   61.3540   33.6580   48.9890 C   0  0  0  0  0  0  0  0  0  0  0  0
   62.2460   33.7850   50.0730 C   0  0  0  0  0  0  0  0  0  0  0  0
   63.6240   33.6980   49.8670 C   0  0  0  0  0  0  0  0  0  0  0  0
   64.1300   33.4850   48.5850 C   0  0  0  0  0  0  0  0  0  0  0  0
   63.2590   33.3600   47.5020 C   0  0  0  0  0  0  0  0  0  0  0  0
   61.8690   33.4480   47.6910 C   0  0  0  0  0  0  0  0  0  0  0  0
   60.9400   33.3340   46.4980 C   0  0  0  0  0  0  0  0  0  0  0  0
   59.5390   33.6960   46.8390 N   0  0  1  0  0  0  0  0  0  0  0  0
   58.8730   34.5220   45.7940 C   0  0  0  0  0  0  0  0  0  0  0  0
   58.6840   33.7790   44.4520 C   0  0  0  0  0  0  0  0  0  0  0  0
   58.2490   32.3560   44.6660 C   0  0  0  0  0  0  0  0  0  0  0  0
   58.3410   31.7550   45.9100 C   0  0  0  0  0  0  0  0  0  0  0  0
   57.7930   30.1710   45.8120 S   0  0  0  0  0  0  0  0  0  0  0  0
   57.4930   30.2090   44.1530 C   0  0  0  0  0  0  0  0  0  0  0  0
   57.0070   29.0760   43.4170 N   0  0  0  0  0  0  0  0  0  0  0  0
   57.7610   27.8350   43.2410 C   0  0  0  0  0  0  0  0  0  0  0  0
   58.6640   27.5870   44.4230 C   0  0  0  0  0  0  0  0  0  0  0  0
   59.9160   28.2200   44.4960 C   0  0  0  0  0  0  0  0  0  0  0  0
   60.7630   27.9830   45.5820 C   0  0  0  0  0  0  0  0  0  0  0  0
   60.3660   27.1180   46.6060 C   0  0  0  0  0  0  0  0  0  0  0  0
   59.1170   26.4930   46.5460 C   0  0  0  0  0  0  0  0  0  0  0  0
   58.2660   26.7290   45.4610 C   0  0  0  0  0  0  0  0  0  0  0  0
   57.7870   31.4880   43.6620 C   0  0  0  0  0  0  0  0  0  0  0  0
   57.5670   31.9170   42.3040 C   0  0  0  0  0  0  0  0  0  0  0  0
   57.3830   32.2680   41.2170 N   0  0  0  0  0  0  0  0  0  0  0  0
   58.7340   32.4890   47.1540 C   0  0  0  0  0  0  0  0  0  0  0  0
   59.7729   33.6013   51.2222 H   0  0  0  0  0  0  0  0  0  0  0  0
   58.2330   33.6289   50.2977 H   0  0  0  0  0  0  0  0  0  0  0  0
   59.2543   32.1511   50.2977 H   0  0  0  0  0  0  0  0  0  0  0  0
   61.8541   33.9536   51.0869 H   0  0  0  0  0  0  0  0  0  0  0  0
   64.3130   33.7978   50.7187 H   0  0  0  0  0  0  0  0  0  0  0  0
   65.2164   33.4155   48.4274 H   0  0  0  0  0  0  0  0  0  0  0  0
   63.6632   33.1914   46.4929 H   0  0  0  0  0  0  0  0  0  0  0  0
   61.2970   34.0083   45.7056 H   0  0  0  0  0  0  0  0  0  0  0  0
   60.9458   32.2856   46.1652 H   0  0  0  0  0  0  0  0  0  0  0  0
   59.5620   34.2700   47.7150 H   0  0  0  0  0  0  0  0  0  0  0  0
   57.8835   34.8249   46.1672 H   0  0  0  0  0  0  0  0  0  0  0  0
   59.5257   35.3854   45.5979 H   0  0  0  0  0  0  0  0  0  0  0  0
   57.9187   34.3013   43.8591 H   0  0  0  0  0  0  0  0  0  0  0  0
   59.6492   33.7690   43.9244 H   0  0  0  0  0  0  0  0  0  0  0  0
   55.9860   29.0500   43.1980 H   0  0  0  0  0  0  0  0  0  0  0  0
   57.0568   26.9957   43.1423 H   0  0  0  0  0  0  0  0  0  0  0  0
   58.3798   27.9228   42.3358 H   0  0  0  0  0  0  0  0  0  0  0  0
   60.2309   28.9050   43.6950 H   0  0  0  0  0  0  0  0  0  0  0  0
   61.7441   28.4781   45.6312 H   0  0  0  0  0  0  0  0  0  0  0  0
   61.0357   26.9294   47.4580 H   0  0  0  0  0  0  0  0  0  0  0  0
   58.8029   25.8147   47.3530 H   0  0  0  0  0  0  0  0  0  0  0  0
   57.2812   26.2405   45.4208 H   0  0  0  0  0  0  0  0  0  0  0  0
   57.8244   32.7956   47.6912 H   0  0  0  0  0  0  0  0  0  0  0  0
   59.3455   31.8170   47.7740 H   0  0  0  0  0  0  0  0  0  0  0  0
  1  2  1  0
  2  3  1  0
  3  4  2  0
  4  5  1  0
  5  6  2  0
  6  7  1  0
  7  8  2  0
  8  9  1  0
  9 10  1  0
 10 11  1  0
 11 12  1  0
 12 13  1  0
 13 14  2  0
 14 15  1  0
 15 16  1  0
 16 17  1  0
 17 18  1  0
 18 19  1  0
 19 20  2  0
 20 21  1  0
 21 22  2  0
 22 23  1  0
 23 24  2  0
 16 25  2  0
 25 26  1  0
 26 27  3  0
 14 28  1  0
  8  3  1  0
 28 10  1  0
 25 13  1  0
 24 19  1  0
  1 29  1  0
  1 30  1  0
  1 31  1  0
  4 32  1  0
  5 33  1  0
  6 34  1  0
  7 35  1  0
  9 36  1  0
  9 37  1  0
 10 38  1  1
 11 39  1  0
 11 40  1  0
 12 41  1  0
 12 42  1  0
 17 43  1  0
 18 44  1  0
 18 45  1  0
 20 46  1  0
 21 47  1  0
 22 48  1  0
 23 49  1  0
 24 50  1  0
 28 51  1  0
 28 52  1  0
M  CHG  1  10   1
M  END
>  <UniqueID>  (90) 
81

>  <SMILES>  (90) 
COc1ccccc1C[N@H+]1CCc2c(sc(NCc3ccccc3)c2C#N)C1

>  <Energy>  (90) 
88.53320102864866

>  <Genealogy>  (90) 
COc1ccccc1C[NH+]1CCc2c(sc(NCc3ccccc3)c2C#N)C1 (protonated)
COc1ccccc1C[N@H+]1CCc2c(sc(NCc3ccccc3)c2C#N)C1 (chirality)
COc1ccccc1C[N@H+]1CCc2c(sc(NCc3ccccc3)c2C#N)C1 (3D coordinates assigned)
COc1ccccc1C[N@H+]1CCc2c(sc(NCc3ccccc3)c2C#N)C1 (nonaromatic ring conformer: 88.53320102864866 kcal/mol)

>  <smiles>  (90) 
COc1ccccc1CN1CCc2c(sc(NCc3ccccc3)c2C#N)C1

>  <score_type>  (90) 
oracle

>  <origin>  (90) 
adg

>  <m_score__min__energy>  (90) 
-6.9199999999999999

>  <m_primary>  (90) 
energy

$$$$
90:0
     RDKit          3D

 53 56  0  0  0  0  0  0  0  0999 V2000
   57.7240   32.2570   41.3930 C   0  0  0  0  0  0  0  0  0  0  0  0
   58.2150   31.8500   42.6630 O   0  0  0  0  0  0  0  0  0  0  0  0
   58.0910   32.6010   43.8450 C   0  0  0  0  0  0  0  0  0  0  0  0
   58.9080   33.7190   44.1090 C   0  0  0  0  0  0  0  0  0  0  0  0
   58.7620   34.4340   45.3020 C   0  0  0  0  0  0  0  0  0  0  0  0
   57.8230   34.0290   46.2500 C   0  0  0  0  0  0  0  0  0  0  0  0
   57.0100   32.9210   45.9990 C   0  0  0  0  0  0  0  0  0  0  0  0
   57.1170   32.2230   44.7840 C   0  0  0  0  0  0  0  0  0  0  0  0
   56.2990   31.0780   44.5080 N   0  0  0  0  0  0  0  0  0  0  0  0
   56.7520   29.4160   44.7450 S   0  0  0  0  0  0  0  0  0  0  0  0
   57.2470   28.8790   43.4300 O   0  0  0  0  0  0  0  0  0  0  0  0
   55.5310   28.6260   45.1230 O   0  0  0  0  0  0  0  0  0  0  0  0
   58.0400   29.2090   45.9560 C   0  0  0  0  0  0  0  0  0  0  0  0
   58.8250   30.3380   46.2520 C   0  0  0  0  0  0  0  0  0  0  0  0
   59.7980   30.3080   47.2600 C   0  0  0  0  0  0  0  0  0  0  0  0
   60.5780   31.4800   47.5720 N   0  0  0  0  0  0  0  0  0  0  0  0
   61.9660   31.6970   47.1840 C   0  0  0  0  0  0  0  0  0  0  0  0
   62.4140   32.9730   47.9340 C   0  0  0  0  0  0  0  0  0  0  0  0
   61.2300   33.5000   48.5990 N   0  0  0  0  0  0  0  0  0  0  0  0
   60.1870   32.5800   48.3730 C   0  0  0  0  0  0  0  0  0  0  0  0
   59.0140   32.7630   48.7920 O   0  0  0  0  0  0  0  0  0  0  0  0
   59.9660   29.1350   48.0010 C   0  0  0  0  0  0  0  0  0  0  0  0
   59.2100   28.0010   47.7140 C   0  0  0  0  0  0  0  0  0  0  0  0
   58.2590   28.0040   46.6790 C   0  0  0  0  0  0  0  0  0  0  0  0
   57.3830   26.4940   46.3460 S   0  0  0  0  0  0  0  0  0  0  0  0
   55.8990   26.7180   46.4440 O   0  0  0  0  0  0  0  0  0  0  0  0
   57.7920   25.4460   47.3400 O   0  0  0  0  0  0  0  0  0  0  0  0
   57.7450   25.8950   44.7810 O   0  0  0  0  0  0  0  0  0  0  0  0
   57.5680   24.5670   44.3580 C   0  0  0  0  0  0  0  0  0  0  0  0
   56.6320   24.1950   43.3700 C   0  0  0  0  0  0  0  0  0  0  0  0
   56.5130   22.8570   42.9850 C   0  0  0  0  0  0  0  0  0  0  0  0
   57.3250   21.8820   43.5680 C   0  0  0  0  0  0  0  0  0  0  0  0
   58.2570   22.2430   44.5440 C   0  0  0  0  0  0  0  0  0  0  0  0
   58.3770   23.5800   44.9350 C   0  0  0  0  0  0  0  0  0  0  0  0
   56.8838   32.9535   41.5307 H   0  0  0  0  0  0  0  0  0  0  0  0
   58.5273   32.7578   40.8326 H   0  0  0  0  0  0  0  0  0  0  0  0
   57.3809   31.3748   40.8326 H   0  0  0  0  0  0  0  0  0  0  0  0
   59.6640   34.0305   43.3731 H   0  0  0  0  0  0  0  0  0  0  0  0
   59.3890   35.3174   45.4929 H   0  0  0  0  0  0  0  0  0  0  0  0
   57.7224   34.5820   47.1956 H   0  0  0  0  0  0  0  0  0  0  0  0
   56.2825   32.5933   46.7562 H   0  0  0  0  0  0  0  0  0  0  0  0
   58.6718   31.2648   45.6797 H   0  0  0  0  0  0  0  0  0  0  0  0
   62.5864   30.8389   47.4819 H   0  0  0  0  0  0  0  0  0  0  0  0
   62.0711   31.8077   46.0946 H   0  0  0  0  0  0  0  0  0  0  0  0
   63.1878   32.7258   48.6756 H   0  0  0  0  0  0  0  0  0  0  0  0
   62.8424   33.7118   47.2407 H   0  0  0  0  0  0  0  0  0  0  0  0
   60.7018   29.1071   48.8182 H   0  0  0  0  0  0  0  0  0  0  0  0
   59.3598   27.0871   48.3077 H   0  0  0  0  0  0  0  0  0  0  0  0
   55.9947   24.9597   42.9019 H   0  0  0  0  0  0  0  0  0  0  0  0
   55.7767   22.5706   42.2196 H   0  0  0  0  0  0  0  0  0  0  0  0
   57.2309   20.8305   43.2590 H   0  0  0  0  0  0  0  0  0  0  0  0
   58.8963   21.4756   45.0048 H   0  0  0  0  0  0  0  0  0  0  0  0
   59.1135   23.8592   45.7028 H   0  0  0  0  0  0  0  0  0  0  0  0
  1  2  1  0
  2  3  1  0
  3  4  2  0
  4  5  1  0
  5  6  2  0
  6  7  1  0
  7  8  2  0
  8  9  1  0
  9 10  1  0
 10 11  2  0
 10 12  2  0
 10 13  1  0
 13 14  2  0
 14 15  1  0
 15 16  1  0
 16 17  1  0
 17 18  1  0
 18 19  1  0
 19 20  1  0
 20 21  2  0
 15 22  2  0
 22 23  1  0
 23 24  2  0
 24 25  1  0
 25 26  2  0
 25 27  2  0
 25 28  1  0
 28 29  1  0
 29 30  2  0
 30 31  1  0
 31 32  2  0
 32 33  1  0
 33 34  2  0
  8  3  1  0
 24 13  1  0
 34 29  1  0
 20 16  1  0
  1 35  1  0
  1 36  1  0
  1 37  1  0
  4 38  1  0
  5 39  1  0
  6 40  1  0
  7 41  1  0
 14 42  1  0
 17 43  1  0
 17 44  1  0
 18 45  1  0
 18 46  1  0
 22 47  1  0
 23 48  1  0
 30 49  1  0
 31 50  1  0
 32 51  1  0
 33 52  1  0
 34 53  1  0
M  CHG  2   9  -1  19  -1
M  END
>  <UniqueID>  (91) 
82

>  <SMILES>  (91) 
COc1ccccc1[N-]S(=O)(=O)c1cc(N2CC[N-]C2=O)ccc1S(=O)(=O)Oc1ccccc1

>  <Energy>  (91) 
87.55168780751656

>  <Genealogy>  (91) 
COc1ccccc1[N-]S(=O)(=O)c1cc(N2CC[N-]C2=O)ccc1S(=O)(=O)Oc1ccccc1 (protonated)
COc1ccccc1[N-]S(=O)(=O)c1cc(N2CC[N-]C2=O)ccc1S(=O)(=O)Oc1ccccc1 (3D coordinates assigned)
COc1ccccc1[N-]S(=O)(=O)c1cc(N2CC[N-]C2=O)ccc1S(=O)(=O)Oc1ccccc1 (nonaromatic ring conformer: 87.55168780751656 kcal/mol)

>  <smiles>  (91) 
COc1ccccc1NS(=O)(=O)c1cc(N2CCNC2=O)ccc1S(=O)(=O)Oc1ccccc1

>  <score_type>  (91) 
oracle

>  <origin>  (91) 
adg

>  <m_score__min__energy>  (91) 
-12.44

>  <m_primary>  (91) 
energy

$$$$
91:0
     RDKit          3D

 34 36  0  0  0  0  0  0  0  0999 V2000
   63.7290   33.0290   47.0870 C   0  0  0  0  0  0  0  0  0  0  0  0
   62.3540   33.4420   47.4920 C   0  0  0  0  0  0  0  0  0  0  0  0
   61.3480   33.8400   46.6380 C   0  0  0  0  0  0  0  0  0  0  0  0
   60.2950   34.1890   47.3940 N   0  0  0  0  0  0  0  0  0  0  0  0
   58.9790   34.6070   46.9220 C   0  0  0  0  0  0  0  0  0  0  0  0
   57.9760   33.4600   47.0710 C   0  0  0  0  0  0  0  0  0  0  0  0
   58.1120   32.4980   45.9530 N   0  0  0  0  0  0  0  0  0  0  0  0
   57.7020   32.8820   44.6970 C   0  0  0  0  0  0  0  0  0  0  0  0
   57.2460   34.0410   44.4930 O   0  0  0  0  0  0  0  0  0  0  0  0
   57.7890   31.9900   43.6220 C   0  0  0  0  0  0  0  0  0  0  0  0
   57.4010   32.3380   42.4740 O   0  0  0  0  0  0  0  0  0  0  0  0
   58.2930   30.7470   43.8140 N   0  0  0  0  0  0  0  0  0  0  0  0
   58.7410   30.3500   45.0350 C   0  0  0  0  0  0  0  0  0  0  0  0
   59.2830   29.0660   45.1970 C   0  0  0  0  0  0  0  0  0  0  0  0
   59.7670   28.6570   46.4390 C   0  0  0  0  0  0  0  0  0  0  0  0
   59.7220   29.5260   47.5270 C   0  0  0  0  0  0  0  0  0  0  0  0
   60.4080   28.9650   49.2200 Br  0  0  0  0  0  0  0  0  0  0  0  0
   59.1810   30.8070   47.3840 C   0  0  0  0  0  0  0  0  0  0  0  0
   58.6670   31.2430   46.1370 C   0  0  0  0  0  0  0  0  0  0  0  0
   60.6730   33.9930   48.6730 C   0  0  0  0  0  0  0  0  0  0  0  0
   61.9420   33.5450   48.7740 N   0  0  0  0  0  0  0  0  0  0  0  0
   64.3366   32.8465   47.9856 H   0  0  0  0  0  0  0  0  0  0  0  0
   63.6738   32.1078   46.4884 H   0  0  0  0  0  0  0  0  0  0  0  0
   64.1905   33.8282   46.4884 H   0  0  0  0  0  0  0  0  0  0  0  0
   61.3986   33.8667   45.5395 H   0  0  0  0  0  0  0  0  0  0  0  0
   58.6369   35.4683   47.5146 H   0  0  0  0  0  0  0  0  0  0  0  0
   59.0501   34.8865   45.8605 H   0  0  0  0  0  0  0  0  0  0  0  0
   58.1625   32.9382   48.0212 H   0  0  0  0  0  0  0  0  0  0  0  0
   56.9579   33.8762   47.0580 H   0  0  0  0  0  0  0  0  0  0  0  0
   58.3470   30.0920   42.9990 H   0  0  0  0  0  0  0  0  0  0  0  0
   59.3263   28.3783   44.3395 H   0  0  0  0  0  0  0  0  0  0  0  0
   60.1850   27.6467   46.5600 H   0  0  0  0  0  0  0  0  0  0  0  0
   59.1538   31.4850   48.2498 H   0  0  0  0  0  0  0  0  0  0  0  0
   60.0196   34.1777   49.5384 H   0  0  0  0  0  0  0  0  0  0  0  0
  1  2  1  0
  2  3  2  0
  3  4  1  0
  4  5  1  0
  5  6  1  0
  6  7  1  0
  7  8  1  0
  8  9  2  0
  8 10  1  0
 10 11  2  0
 10 12  1  0
 12 13  1  0
 13 14  2  0
 14 15  1  0
 15 16  2  0
 16 17  1  0
 16 18  1  0
 18 19  2  0
  4 20  1  0
 20 21  2  0
 21  2  1  0
 19  7  1  0
 19 13  1  0
  1 22  1  0
  1 23  1  0
  1 24  1  0
  3 25  1  0
  5 26  1  0
  5 27  1  0
  6 28  1  0
  6 29  1  0
 12 30  1  0
 14 31  1  0
 15 32  1  0
 18 33  1  0
 20 34  1  0
M  END
>  <UniqueID>  (92) 
83

>  <SMILES>  (92) 
Cc1cn(CCn2c(=O)c(=O)[nH]c3ccc(Br)cc32)cn1

>  <Energy>  (92) 
72.19223009650706

>  <Genealogy>  (92) 
Cc1cn(CCn2c(=O)c(=O)[nH]c3ccc(Br)cc32)cn1 (3D coordinates assigned)
Cc1cn(CCn2c(=O)c(=O)[nH]c3ccc(Br)cc32)cn1 (optimized conformer: 72.19223009650706 kcal/mol)

>  <smiles>  (92) 
Cc1cn(CCn2c(=O)c(=O)[nH]c3ccc(Br)cc32)cn1

>  <score_type>  (92) 
oracle

>  <origin>  (92) 
adg

>  <m_score__min__energy>  (92) 
-6.8099999999999996

>  <m_primary>  (92) 
energy

$$$$
92:0
     RDKit          3D

 56 60  0  0  1  0  0  0  0  0999 V2000
   56.1230   25.7260   45.8510 C   0  0  0  0  0  0  0  0  0  0  0  0
   55.8880   27.0870   45.6220 O   0  0  0  0  0  0  0  0  0  0  0  0
   56.8910   28.0470   45.6420 C   0  0  0  0  0  0  0  0  0  0  0  0
   57.0570   28.9900   44.6510 C   0  0  0  0  0  0  0  0  0  0  0  0
   58.0890   29.9220   44.7420 C   0  0  0  0  0  0  0  0  0  0  0  0
   58.9640   29.9240   45.8170 C   0  0  0  0  0  0  0  0  0  0  0  0
   60.0270   30.6640   46.1880 N   0  0  0  0  0  0  0  0  0  0  0  0
   60.4950   30.1880   47.3670 C   0  0  0  0  0  0  0  0  0  0  0  0
   61.8910   30.7990   48.3130 S   0  0  0  0  0  0  0  0  0  0  0  0
   63.1010   31.4450   47.1240 C   0  0  0  0  0  0  0  0  0  0  0  0
   63.3620   32.8900   47.3470 C   0  0  0  0  0  0  0  0  0  0  0  0
   62.4440   33.8420   46.5920 C   0  0  0  0  0  0  0  0  0  0  0  0
   61.4920   34.5300   47.3560 N   0  0  0  0  0  0  0  0  0  0  0  0
   60.4090   34.0150   47.7670 C   0  0  0  0  0  0  0  0  0  0  0  0
   60.2510   33.6380   49.0830 C   0  0  0  0  0  0  0  0  0  0  0  0
   59.0190   33.0140   49.3710 C   0  0  0  0  0  0  0  0  0  0  0  0
   58.0800   32.8100   48.4410 N   0  0  0  0  0  0  0  0  0  0  0  0
   58.2420   33.1840   47.1640 C   0  0  0  0  0  0  0  0  0  0  0  0
   57.2790   32.9780   46.2030 C   0  0  0  0  0  0  0  0  0  0  0  0
   57.4240   33.3530   44.8860 C   0  0  0  0  0  0  0  0  0  0  0  0
   58.6100   33.9670   44.5390 C   0  0  0  0  0  0  0  0  0  0  0  0
   59.5870   34.1820   45.4880 C   0  0  0  0  0  0  0  0  0  0  0  0
   59.4250   33.7950   46.8200 C   0  0  0  0  0  0  0  0  0  0  0  0
   58.8550   32.5810   50.7790 C   0  0  0  0  0  0  0  0  0  0  0  0
   60.0890   31.9660   51.3530 C   0  0  0  0  0  0  0  0  0  0  0  0
   61.3760   32.4750   50.8180 C   0  0  0  0  0  0  0  0  0  0  0  0
   61.1800   33.8490   50.1300 C   0  0  0  0  0  0  0  0  0  0  0  0
   59.7140   29.1540   47.7160 N   0  0  0  0  0  0  0  0  0  0  0  0
   58.7610   28.9640   46.7840 C   0  0  0  0  0  0  0  0  0  0  0  0
   57.7520   28.0300   46.7230 C   0  0  0  0  0  0  0  0  0  0  0  0
   56.1557   25.5367   46.9341 H   0  0  0  0  0  0  0  0  0  0  0  0
   55.3139   25.1331   45.3994 H   0  0  0  0  0  0  0  0  0  0  0  0
   57.0840   25.4388   45.3994 H   0  0  0  0  0  0  0  0  0  0  0  0
   56.3749   29.0071   43.7882 H   0  0  0  0  0  0  0  0  0  0  0  0
   58.2116   30.6705   43.9453 H   0  0  0  0  0  0  0  0  0  0  0  0
   60.4140   31.4640   45.6520 H   0  0  0  0  0  0  0  0  0  0  0  0
   64.0440   30.8897   47.2356 H   0  0  0  0  0  0  0  0  0  0  0  0
   62.6915   31.3196   46.1108 H   0  0  0  0  0  0  0  0  0  0  0  0
   63.2516   33.0931   48.4224 H   0  0  0  0  0  0  0  0  0  0  0  0
   64.3760   33.0782   46.9643 H   0  0  0  0  0  0  0  0  0  0  0  0
   63.0766   34.5909   46.0930 H   0  0  0  0  0  0  0  0  0  0  0  0
   61.8635   33.2055   45.9080 H   0  0  0  0  0  0  0  0  0  0  0  0
   57.1830   32.3440   48.7090 H   0  0  0  0  0  0  0  0  0  0  0  0
   56.3417   32.4867   46.5033 H   0  0  0  0  0  0  0  0  0  0  0  0
   56.6314   33.1716   44.1452 H   0  0  0  0  0  0  0  0  0  0  0  0
   58.7770   34.2867   43.4998 H   0  0  0  0  0  0  0  0  0  0  0  0
   60.5235   34.6739   45.1864 H   0  0  0  0  0  0  0  0  0  0  0  0
   58.5871   33.4586   51.3857 H   0  0  0  0  0  0  0  0  0  0  0  0
   58.0687   31.8119   50.7950 H   0  0  0  0  0  0  0  0  0  0  0  0
   60.0810   32.1446   52.4384 H   0  0  0  0  0  0  0  0  0  0  0  0
   60.0498   30.9030   51.0728 H   0  0  0  0  0  0  0  0  0  0  0  0
   62.0925   32.5848   51.6454 H   0  0  0  0  0  0  0  0  0  0  0  0
   61.7569   31.7593   50.0746 H   0  0  0  0  0  0  0  0  0  0  0  0
   60.7847   34.5822   50.8485 H   0  0  0  0  0  0  0  0  0  0  0  0
   62.1322   34.2447   49.7470 H   0  0  0  0  0  0  0  0  0  0  0  0
   57.6328   27.2825   47.5212 H   0  0  0  0  0  0  0  0  0  0  0  0
  1  2  1  0
  2  3  1  0
  3  4  2  0
  4  5  1  0
  5  6  2  0
  6  7  1  0
  7  8  1  0
  8  9  1  0
  9 10  1  0
 10 11  1  0
 11 12  1  0
 12 13  1  0
 13 14  2  0
 14 15  1  0
 15 16  2  0
 16 17  1  0
 17 18  1  0
 18 19  2  0
 19 20  1  0
 20 21  2  0
 21 22  1  0
 22 23  2  0
 16 24  1  0
 24 25  1  0
 25 26  1  0
 26 27  1  0
  8 28  2  0
 28 29  1  0
 29 30  2  0
 30  3  1  0
 29  6  1  0
 23 14  1  0
 27 15  1  0
 23 18  1  0
  1 31  1  0
  1 32  1  0
  1 33  1  0
  4 34  1  0
  5 35  1  0
  7 36  1  0
 10 37  1  0
 10 38  1  0
 11 39  1  0
 11 40  1  0
 12 41  1  0
 12 42  1  0
 17 43  1  0
 19 44  1  0
 20 45  1  0
 21 46  1  0
 22 47  1  0
 24 48  1  0
 24 49  1  0
 25 50  1  0
 25 51  1  0
 26 52  1  0
 26 53  1  0
 27 54  1  0
 27 55  1  0
 30 56  1  0
M  END
>  <smiles>  (93) 
COc1ccc2[nH]c(SCCCN=c3c4c([nH]c5ccccc35)CCCC4)nc2c1

>  <score_type>  (93) 
oracle

>  <origin>  (93) 
adg

>  <m_score__min__energy>  (93) 
-9.5500000000000007

>  <m_primary>  (93) 
energy

$$$$
93:0
     RDKit          3D

 36 38  0  0  0  0  0  0  0  0999 V2000
   56.9860   21.9630   43.6880 C   0  0  0  0  0  0  0  0  0  0  0  0
   56.1010   22.8030   44.4200 O   0  0  0  0  0  0  0  0  0  0  0  0
   56.5120   23.7780   45.3420 C   0  0  0  0  0  0  0  0  0  0  0  0
   56.8730   23.3640   46.6270 C   0  0  0  0  0  0  0  0  0  0  0  0
   57.2930   24.2950   47.5790 C   0  0  0  0  0  0  0  0  0  0  0  0
   57.3510   25.6530   47.2560 C   0  0  0  0  0  0  0  0  0  0  0  0
   56.9810   26.0970   45.9720 C   0  0  0  0  0  0  0  0  0  0  0  0
   57.0430   27.5360   45.6050 C   0  0  0  0  0  0  0  0  0  0  0  0
   58.2500   28.2550   45.6350 C   0  0  0  0  0  0  0  0  0  0  0  0
   58.2590   29.6080   45.2830 C   0  0  0  0  0  0  0  0  0  0  0  0
   59.3510   30.2370   45.2680 O   0  0  0  0  0  0  0  0  0  0  0  0
   57.0570   30.2480   44.9300 C   0  0  0  0  0  0  0  0  0  0  0  0
   57.0050   31.6010   44.5690 O   0  0  0  0  0  0  0  0  0  0  0  0
   57.7550   32.6250   45.1640 C   0  0  0  0  0  0  0  0  0  0  0  0
   57.7580   32.8360   46.5560 C   0  0  0  0  0  0  0  0  0  0  0  0
   58.5100   33.8780   47.1080 C   0  0  0  0  0  0  0  0  0  0  0  0
   59.2520   34.7230   46.2780 C   0  0  0  0  0  0  0  0  0  0  0  0
   59.2400   34.5290   44.8940 C   0  0  0  0  0  0  0  0  0  0  0  0
   58.4890   33.4880   44.3390 C   0  0  0  0  0  0  0  0  0  0  0  0
   55.8820   29.4940   44.8980 C   0  0  0  0  0  0  0  0  0  0  0  0
   55.8990   28.1790   45.2390 N   0  0  0  0  0  0  0  0  0  0  0  0
   56.5710   25.1490   45.0170 C   0  0  0  0  0  0  0  0  0  0  0  0
   57.6010   21.3793   44.3887 H   0  0  0  0  0  0  0  0  0  0  0  0
   56.4023   21.2788   43.0547 H   0  0  0  0  0  0  0  0  0  0  0  0
   57.6389   22.5816   43.0547 H   0  0  0  0  0  0  0  0  0  0  0  0
   56.8259   22.2970   46.8903 H   0  0  0  0  0  0  0  0  0  0  0  0
   57.5791   23.9582   48.5863 H   0  0  0  0  0  0  0  0  0  0  0  0
   57.6879   26.3800   48.0096 H   0  0  0  0  0  0  0  0  0  0  0  0
   59.1834   27.7556   45.9340 H   0  0  0  0  0  0  0  0  0  0  0  0
   57.1671   32.1793   47.2114 H   0  0  0  0  0  0  0  0  0  0  0  0
   58.5175   34.0328   48.1970 H   0  0  0  0  0  0  0  0  0  0  0  0
   59.8452   35.5404   46.7139 H   0  0  0  0  0  0  0  0  0  0  0  0
   59.8218   35.1958   44.2406 H   0  0  0  0  0  0  0  0  0  0  0  0
   58.4743   33.3457   43.2483 H   0  0  0  0  0  0  0  0  0  0  0  0
   54.9367   29.9678   44.5948 H   0  0  0  0  0  0  0  0  0  0  0  0
   56.2934   25.4807   44.0056 H   0  0  0  0  0  0  0  0  0  0  0  0
  1  2  1  0
  2  3  1  0
  3  4  2  0
  4  5  1  0
  5  6  2  0
  6  7  1  0
  7  8  1  0
  8  9  2  0
  9 10  1  0
 10 11  2  0
 10 12  1  0
 12 13  1  0
 13 14  1  0
 14 15  2  0
 15 16  1  0
 16 17  2  0
 17 18  1  0
 18 19  2  0
 12 20  2  0
 20 21  1  0
  7 22  2  0
 22  3  1  0
 21  8  1  0
 19 14  1  0
  1 23  1  0
  1 24  1  0
  1 25  1  0
  4 26  1  0
  5 27  1  0
  6 28  1  0
  9 29  1  0
 15 30  1  0
 16 31  1  0
 17 32  1  0
 18 33  1  0
 19 34  1  0
 20 35  1  0
 22 36  1  0
M  CHG  1  21  -1
M  END
>  <UniqueID>  (94) 
84

>  <SMILES>  (94) 
COc1cccc(-c2cc(=O)c(Oc3ccccc3)c[n-]2)c1

>  <Energy>  (94) 
51.29541360219113

>  <Genealogy>  (94) 
COc1cccc(-c2cc(=O)c(Oc3ccccc3)c[n-]2)c1 (protonated)
COc1cccc(-c2cc(=O)c(Oc3ccccc3)c[n-]2)c1 (3D coordinates assigned)
COc1cccc(-c2cc(=O)c(Oc3ccccc3)c[n-]2)c1 (optimized conformer: 51.29541360219113 kcal/mol)

>  <smiles>  (94) 
COc1cccc(-c2cc(=O)c(Oc3ccccc3)c[nH]2)c1

>  <score_type>  (94) 
oracle

>  <origin>  (94) 
adg

>  <m_score__min__energy>  (94) 
-8.9399999999999995

>  <m_primary>  (94) 
energy

$$$$
94:0
     RDKit          3D

 79 84  0  0  0  0  0  0  0  0999 V2000
   59.1290   21.9340   44.8290 C   0  0  0  0  0  0  0  0  0  0  0  0
   58.6220   22.7040   45.9130 O   0  0  0  0  0  0  0  0  0  0  0  0
   58.0860   23.9950   45.7860 C   0  0  0  0  0  0  0  0  0  0  0  0
   56.7010   24.2470   45.8140 C   0  0  0  0  0  0  0  0  0  0  0  0
   56.2190   25.5560   45.7100 C   0  0  0  0  0  0  0  0  0  0  0  0
   57.1050   26.6280   45.5580 C   0  0  0  0  0  0  0  0  0  0  0  0
   56.5850   27.9280   45.4890 O   0  0  0  0  0  0  0  0  0  0  0  0
   57.3340   29.1040   45.6360 C   0  0  0  0  0  0  0  0  0  0  0  0
   58.1480   29.2540   46.7650 C   0  0  0  0  0  0  0  0  0  0  0  0
   58.9030   30.4190   46.9440 C   0  0  0  0  0  0  0  0  0  0  0  0
   58.8540   31.4490   45.9940 C   0  0  0  0  0  0  0  0  0  0  0  0
   59.6250   32.6470   46.2000 N   0  0  0  0  0  0  0  0  0  0  0  0
   59.9150   33.1700   47.5050 C   0  0  0  0  0  0  0  0  0  0  0  0
   58.9990   33.1880   48.3730 O   0  0  0  0  0  0  0  0  0  0  0  0
   61.2300   33.6630   47.8400 N   0  0  0  0  0  0  0  0  0  0  0  0
   61.4710   34.1590   49.2080 C   0  0  0  0  0  0  0  0  0  0  0  0
   62.9650   34.3320   49.4980 C   0  0  0  0  0  0  0  0  0  0  0  0
   63.6990   33.1990   48.9320 N   0  0  0  0  0  0  0  0  0  0  0  0
   64.6320   32.4700   49.7400 C   0  0  0  0  0  0  0  0  0  0  0  0
   65.9380   32.8440   49.7410 N   0  0  0  0  0  0  0  0  0  0  0  0
   66.8650   32.1760   50.4770 C   0  0  0  0  0  0  0  0  0  0  0  0
   66.4990   31.1060   51.2260 N   0  0  0  0  0  0  0  0  0  0  0  0
   65.2060   30.6900   51.2690 C   0  0  0  0  0  0  0  0  0  0  0  0
   64.8530   29.5870   52.0500 C   0  0  0  0  0  0  0  0  0  0  0  0
   63.5230   29.1630   52.1060 C   0  0  0  0  0  0  0  0  0  0  0  0
   62.5260   29.8450   51.3820 C   0  0  0  0  0  0  0  0  0  0  0  0
   61.1770   29.4650   51.4220 O   0  0  0  0  0  0  0  0  0  0  0  0
   60.1830   30.1080   52.2160 C   0  0  0  0  0  0  0  0  0  0  0  0
   58.9200   29.2400   52.2990 C   0  0  0  0  0  0  0  0  0  0  0  0
   57.7710   29.7490   51.5140 N   0  0  0  0  0  0  0  0  0  0  0  0
   58.0950   30.7660   50.4940 C   0  0  0  0  0  0  0  0  0  0  0  0
   57.8730   32.2160   50.9830 C   0  0  0  0  0  0  0  0  0  0  0  0
   57.4040   32.2750   52.3120 O   0  0  0  0  0  0  0  0  0  0  0  0
   56.2280   31.5090   52.4240 C   0  0  0  0  0  0  0  0  0  0  0  0
   56.5390   30.0100   52.2920 C   0  0  0  0  0  0  0  0  0  0  0  0
   62.8820   30.9470   50.5930 C   0  0  0  0  0  0  0  0  0  0  0  0
   64.2220   31.3750   50.5250 C   0  0  0  0  0  0  0  0  0  0  0  0
   63.5230   32.8250   47.5240 C   0  0  0  0  0  0  0  0  0  0  0  0
   62.3540   33.5870   46.8910 C   0  0  0  0  0  0  0  0  0  0  0  0
   58.0060   31.3120   44.8820 C   0  0  0  0  0  0  0  0  0  0  0  0
   57.2560   30.1470   44.7010 C   0  0  0  0  0  0  0  0  0  0  0  0
   58.4900   26.3790   45.5280 C   0  0  0  0  0  0  0  0  0  0  0  0
   58.9720   25.0710   45.6360 C   0  0  0  0  0  0  0  0  0  0  0  0
   59.6941   21.0758   45.2216 H   0  0  0  0  0  0  0  0  0  0  0  0
   58.2923   21.5716   44.2137 H   0  0  0  0  0  0  0  0  0  0  0  0
   59.7925   22.5594   44.2137 H   0  0  0  0  0  0  0  0  0  0  0  0
   55.9945   23.4103   45.9182 H   0  0  0  0  0  0  0  0  0  0  0  0
   55.1358   25.7438   45.7480 H   0  0  0  0  0  0  0  0  0  0  0  0
   58.1946   28.4516   47.5159 H   0  0  0  0  0  0  0  0  0  0  0  0
   59.5385   30.5271   47.8353 H   0  0  0  0  0  0  0  0  0  0  0  0
   59.9220   33.2010   45.3670 H   0  0  0  0  0  0  0  0  0  0  0  0
   60.9707   35.1314   49.3270 H   0  0  0  0  0  0  0  0  0  0  0  0
   61.0702   33.4176   49.9149 H   0  0  0  0  0  0  0  0  0  0  0  0
   63.3226   35.2669   49.0419 H   0  0  0  0  0  0  0  0  0  0  0  0
   63.1284   34.3726   50.5850 H   0  0  0  0  0  0  0  0  0  0  0  0
   67.9149   32.5040   50.4652 H   0  0  0  0  0  0  0  0  0  0  0  0
   65.6242   29.0508   52.6224 H   0  0  0  0  0  0  0  0  0  0  0  0
   63.2528   28.2909   52.7195 H   0  0  0  0  0  0  0  0  0  0  0  0
   60.5782   30.2706   53.2296 H   0  0  0  0  0  0  0  0  0  0  0  0
   59.9240   31.0711   51.7520 H   0  0  0  0  0  0  0  0  0  0  0  0
   59.1696   28.2343   51.9298 H   0  0  0  0  0  0  0  0  0  0  0  0
   58.6055   29.2459   53.3531 H   0  0  0  0  0  0  0  0  0  0  0  0
   59.1515   30.6513   50.2101 H   0  0  0  0  0  0  0  0  0  0  0  0
   57.4168   30.6018   49.6437 H   0  0  0  0  0  0  0  0  0  0  0  0
   58.8281   32.7583   50.9222 H   0  0  0  0  0  0  0  0  0  0  0  0
   57.1061   32.6708   50.3388 H   0  0  0  0  0  0  0  0  0  0  0  0
   55.7673   31.6968   53.4051 H   0  0  0  0  0  0  0  0  0  0  0  0
   55.5399   31.7990   51.6163 H   0  0  0  0  0  0  0  0  0  0  0  0
   56.6625   29.5861   53.2995 H   0  0  0  0  0  0  0  0  0  0  0  0
   55.7009   29.5427   51.7542 H   0  0  0  0  0  0  0  0  0  0  0  0
   62.1087   31.4820   50.0222 H   0  0  0  0  0  0  0  0  0  0  0  0
   64.4452   33.0597   46.9723 H   0  0  0  0  0  0  0  0  0  0  0  0
   63.3050   31.7480   47.4740 H   0  0  0  0  0  0  0  0  0  0  0  0
   62.6806   34.6047   46.6308 H   0  0  0  0  0  0  0  0  0  0  0  0
   62.0262   33.0574   45.9843 H   0  0  0  0  0  0  0  0  0  0  0  0
   57.9320   32.1282   44.1483 H   0  0  0  0  0  0  0  0  0  0  0  0
   56.6020   30.0473   43.8222 H   0  0  0  0  0  0  0  0  0  0  0  0
   59.1954   27.2160   45.4193 H   0  0  0  0  0  0  0  0  0  0  0  0
   60.0556   24.8846   45.6030 H   0  0  0  0  0  0  0  0  0  0  0  0
  1  2  1  0
  2  3  1  0
  3  4  2  0
  4  5  1  0
  5  6  2  0
  6  7  1  0
  7  8  1  0
  8  9  2  0
  9 10  1  0
 10 11  2  0
 11 12  1  0
 12 13  1  0
 13 14  2  0
 13 15  1  0
 15 16  1  0
 16 17  1  0
 17 18  1  0
 18 19  1  0
 19 20  2  0
 20 21  1  0
 21 22  2  0
 22 23  1  0
 23 24  2  0
 24 25  1  0
 25 26  2  0
 26 27  1  0
 27 28  1  0
 28 29  1  0
 29 30  1  0
 30 31  1  0
 31 32  1  0
 32 33  1  0
 33 34  1  0
 34 35  1  0
 26 36  1  0
 36 37  2  0
 18 38  1  0
 38 39  1  0
 11 40  1  0
 40 41  2  0
  6 42  1  0
 42 43  2  0
 43  3  1  0
 41  8  1  0
 39 15  1  0
 37 19  1  0
 37 23  1  0
 35 30  1  0
  1 44  1  0
  1 45  1  0
  1 46  1  0
  4 47  1  0
  5 48  1  0
  9 49  1  0
 10 50  1  0
 12 51  1  0
 16 52  1  0
 16 53  1  0
 17 54  1  0
 17 55  1  0
 21 56  1  0
 24 57  1  0
 25 58  1  0
 28 59  1  0
 28 60  1  0
 29 61  1  0
 29 62  1  0
 31 63  1  0
 31 64  1  0
 32 65  1  0
 32 66  1  0
 34 67  1  0
 34 68  1  0
 35 69  1  0
 35 70  1  0
 36 71  1  0
 38 72  1  0
 38 73  1  0
 39 74  1  0
 39 75  1  0
 40 76  1  0
 41 77  1  0
 42 78  1  0
 43 79  1  0
M  END
>  <UniqueID>  (95) 
85

>  <SMILES>  (95) 
COc1ccc(Oc2ccc(NC(=O)N3CCN(c4ncnc5ccc(OCCN6CCOCC6)cc45)CC3)cc2)cc1

>  <Energy>  (95) 
118.04291261761486

>  <Genealogy>  (95) 
COc1ccc(Oc2ccc(NC(=O)N3CCN(c4ncnc5ccc(OCCN6CCOCC6)cc45)CC3)cc2)cc1 (3D coordinates assigned)
COc1ccc(Oc2ccc(NC(=O)N3CCN(c4ncnc5ccc(OCCN6CCOCC6)cc45)CC3)cc2)cc1 (nonaromatic ring conformer: 118.04291261761486 kcal/mol)

>  <smiles>  (95) 
COc1ccc(Oc2ccc(NC(=O)N3CCN(c4ncnc5ccc(OCCN6CCOCC6)cc45)CC3)cc2)cc1

>  <score_type>  (95) 
oracle

>  <origin>  (95) 
adg

>  <m_score__min__energy>  (95) 
-9.3000000000000007

>  <m_primary>  (95) 
energy

$$$$
95:0
     RDKit          3D

 49 52  0  0  0  0  0  0  0  0999 V2000
   63.4650   34.2950   50.8970 C   0  0  0  0  0  0  0  0  0  0  0  0
   62.5700   34.4120   49.6670 C   0  0  0  0  0  0  0  0  0  0  0  0
   62.1490   33.0590   49.2040 N   0  0  0  0  0  0  0  0  0  0  0  0
   63.0930   32.5360   48.1880 C   0  0  0  0  0  0  0  0  0  0  0  0
   62.9040   33.2100   46.8170 C   0  0  0  0  0  0  0  0  0  0  0  0
   61.8210   34.2010   46.8430 N   0  0  0  0  0  0  0  0  0  0  0  0
   60.5380   33.6470   47.3270 C   0  0  1  0  0  0  0  0  0  0  0  0
   59.8120   32.8620   46.1740 C   0  0  2  0  0  0  0  0  0  0  0  0
   58.8840   33.7600   45.3610 C   0  0  0  0  0  0  0  0  0  0  0  0
   59.2380   34.8880   45.0500 O   0  0  0  0  0  0  0  0  0  0  0  0
   57.5400   33.2590   44.8900 C   0  0  0  0  0  0  0  0  0  0  0  0
   57.6030   31.7750   44.6200 C   0  0  0  0  0  0  0  0  0  0  0  0
   56.8900   31.2220   43.5460 C   0  0  0  0  0  0  0  0  0  0  0  0
   56.9660   29.8520   43.2790 C   0  0  0  0  0  0  0  0  0  0  0  0
   56.2680   29.2950   42.2090 O   0  0  0  0  0  0  0  0  0  0  0  0
   57.7510   29.0290   44.0890 C   0  0  0  0  0  0  0  0  0  0  0  0
   58.4510   29.5650   45.1740 C   0  0  0  0  0  0  0  0  0  0  0  0
   58.3740   30.9440   45.4630 C   0  0  0  0  0  0  0  0  0  0  0  0
   59.0580   31.6090   46.6580 C   0  0  1  0  0  0  0  0  0  0  0  0
   60.0410   30.7320   47.4340 C   0  0  0  0  0  0  0  0  0  0  0  0
   60.3610   31.3860   48.7730 C   0  0  0  0  0  0  0  0  0  0  0  0
   60.7260   32.9230   48.7400 C   0  0  1  0  0  0  0  0  0  0  0  0
   59.7530   33.5820   49.7690 C   0  0  0  0  0  0  0  0  0  0  0  0
   62.8510   34.3753   51.8062 H   0  0  0  0  0  0  0  0  0  0  0  0
   63.9782   33.3221   50.8858 H   0  0  0  0  0  0  0  0  0  0  0  0
   64.2111   35.1033   50.8858 H   0  0  0  0  0  0  0  0  0  0  0  0
   61.6776   35.0023   49.9222 H   0  0  0  0  0  0  0  0  0  0  0  0
   63.1314   34.9077   48.8613 H   0  0  0  0  0  0  0  0  0  0  0  0
   64.1215   32.7177   48.5333 H   0  0  0  0  0  0  0  0  0  0  0  0
   62.8958   31.4608   48.0657 H   0  0  0  0  0  0  0  0  0  0  0  0
   63.8407   33.7131   46.5351 H   0  0  0  0  0  0  0  0  0  0  0  0
   62.6388   32.4317   46.0863 H   0  0  0  0  0  0  0  0  0  0  0  0
   61.7110   34.6060   45.8840 H   0  0  0  0  0  0  0  0  0  0  0  0
   59.8175   34.4418   47.5702 H   0  0  0  0  0  0  0  0  0  0  0  0
   60.6227   32.5124   45.5179 H   0  0  0  0  0  0  0  0  0  0  0  0
   56.7863   33.4555   45.6667 H   0  0  0  0  0  0  0  0  0  0  0  0
   57.2670   33.7818   43.9615 H   0  0  0  0  0  0  0  0  0  0  0  0
   56.2680   31.8697   42.9107 H   0  0  0  0  0  0  0  0  0  0  0  0
   55.5110   28.6370   42.3560 H   0  0  0  0  0  0  0  0  0  0  0  0
   57.8190   27.9527   43.8722 H   0  0  0  0  0  0  0  0  0  0  0  0
   59.0657   28.9076   45.8064 H   0  0  0  0  0  0  0  0  0  0  0  0
   58.2422   31.8413   47.3584 H   0  0  0  0  0  0  0  0  0  0  0  0
   59.5915   29.7431   47.6075 H   0  0  0  0  0  0  0  0  0  0  0  0
   60.9674   30.6178   46.8520 H   0  0  0  0  0  0  0  0  0  0  0  0
   59.4810   31.2658   49.4220 H   0  0  0  0  0  0  0  0  0  0  0  0
   61.2687   30.8799   49.1336 H   0  0  0  0  0  0  0  0  0  0  0  0
   60.0903   33.3536   50.7908 H   0  0  0  0  0  0  0  0  0  0  0  0
   59.7454   34.6719   49.6204 H   0  0  0  0  0  0  0  0  0  0  0  0
   58.7381   33.1846   49.6204 H   0  0  0  0  0  0  0  0  0  0  0  0
  1  2  1  0
  2  3  1  0
  3  4  1  0
  4  5  1  0
  5  6  1  0
  6  7  1  0
  7  8  1  0
  8  9  1  0
  9 10  2  0
  9 11  1  0
 11 12  1  0
 12 13  2  0
 13 14  1  0
 14 15  1  0
 14 16  2  0
 16 17  1  0
 17 18  2  0
 18 19  1  0
 19 20  1  0
 20 21  1  0
 21 22  1  0
 22 23  1  1
 22  3  1  0
 22  7  1  0
 19  8  1  0
 18 12  1  0
  1 24  1  0
  1 25  1  0
  1 26  1  0
  2 27  1  0
  2 28  1  0
  4 29  1  0
  4 30  1  0
  5 31  1  0
  5 32  1  0
  6 33  1  0
  7 34  1  1
  8 35  1  6
 11 36  1  0
 11 37  1  0
 13 38  1  0
 15 39  1  0
 16 40  1  0
 17 41  1  0
 19 42  1  1
 20 43  1  0
 20 44  1  0
 21 45  1  0
 21 46  1  0
 23 47  1  0
 23 48  1  0
 23 49  1  0
M  END
>  <UniqueID>  (96) 
86

>  <SMILES>  (96) 
CCN1CCN[C@H]2[C@@H]3C(=O)Cc4cc(O)ccc4C3CCC21C

>  <Energy>  (96) 
92.62278497360028

>  <Genealogy>  (96) 
CCN1CCN[C@H]2[C@@H]3C(=O)Cc4cc(O)ccc4C3CCC21C (chirality)
CCN1CCN[C@H]2[C@@H]3C(=O)Cc4cc(O)ccc4C3CCC21C (3D coordinates assigned)
CCN1CCN[C@H]2[C@@H]3C(=O)Cc4cc(O)ccc4C3CCC21C (nonaromatic ring conformer: 92.62278497360028 kcal/mol)

>  <smiles>  (96) 
CCN1CCNC2C3C(=O)Cc4cc(O)ccc4C3CCC21C

>  <score_type>  (96) 
oracle

>  <origin>  (96) 
adg

>  <m_score__min__energy>  (96) 
-8.1099999999999994

>  <m_primary>  (96) 
energy

$$$$
96:0
     RDKit          3D

 54 56  0  0  0  0  0  0  0  0999 V2000
   59.1740   23.8980   45.6530 C   0  0  0  0  0  0  0  0  0  0  0  0
   58.7940   25.3280   45.9070 C   0  0  0  0  0  0  0  0  0  0  0  0
   59.1650   25.9530   47.1050 C   0  0  0  0  0  0  0  0  0  0  0  0
   58.8490   27.3000   47.3310 C   0  0  0  0  0  0  0  0  0  0  0  0
   59.2630   27.9610   48.6190 C   0  0  0  0  0  0  0  0  0  0  0  0
   60.5260   28.7060   48.4270 N   0  0  0  0  0  0  0  0  0  0  0  0
   60.8870   29.5090   49.6120 C   0  0  0  0  0  0  0  0  0  0  0  0
   59.9510   30.7180   49.8150 C   0  0  0  0  0  0  0  0  0  0  0  0
   59.5180   31.3690   48.4770 C   0  0  0  0  0  0  0  0  0  0  0  0
   59.2680   32.8930   48.5980 C   0  0  0  0  0  0  0  0  0  0  0  0
   58.9830   33.5890   47.2860 C   0  0  0  0  0  0  0  0  0  0  0  0
   59.8360   34.6030   46.8150 C   0  0  0  0  0  0  0  0  0  0  0  0
   59.5670   35.2460   45.6030 C   0  0  0  0  0  0  0  0  0  0  0  0
   58.4420   34.8900   44.8550 C   0  0  0  0  0  0  0  0  0  0  0  0
   57.5790   33.8950   45.3220 C   0  0  0  0  0  0  0  0  0  0  0  0
   57.8440   33.2500   46.5340 C   0  0  0  0  0  0  0  0  0  0  0  0
   60.4870   31.0080   47.3420 C   0  0  0  0  0  0  0  0  0  0  0  0
   60.5610   29.4780   47.1550 C   0  0  0  0  0  0  0  0  0  0  0  0
   58.1690   28.0250   46.3400 C   0  0  0  0  0  0  0  0  0  0  0  0
   57.8030   27.4170   45.1280 C   0  0  0  0  0  0  0  0  0  0  0  0
   57.1200   28.2050   44.1350 N   0  0  0  0  0  0  0  0  0  0  0  0
   56.5960   29.8430   44.3680 S   0  0  0  0  0  0  0  0  0  0  0  0
   56.6850   30.7430   42.8340 C   0  0  0  0  0  0  0  0  0  0  0  0
   55.1660   29.8330   44.8310 O   0  0  0  0  0  0  0  0  0  0  0  0
   57.4370   30.5110   45.4180 O   0  0  0  0  0  0  0  0  0  0  0  0
   58.1320   26.0660   44.9160 C   0  0  0  0  0  0  0  0  0  0  0  0
   59.3119   23.3792   46.6131 H   0  0  0  0  0  0  0  0  0  0  0  0
   58.3763   23.4029   45.0799 H   0  0  0  0  0  0  0  0  0  0  0  0
   60.1123   23.8642   45.0799 H   0  0  0  0  0  0  0  0  0  0  0  0
   59.7079   25.3829   47.8733 H   0  0  0  0  0  0  0  0  0  0  0  0
   58.4748   28.6582   48.9394 H   0  0  0  0  0  0  0  0  0  0  0  0
   59.4150   27.1880   49.3867 H   0  0  0  0  0  0  0  0  0  0  0  0
   60.8317   28.8667   50.5033 H   0  0  0  0  0  0  0  0  0  0  0  0
   61.9042   29.8971   49.4550 H   0  0  0  0  0  0  0  0  0  0  0  0
   59.0510   30.3806   50.3499 H   0  0  0  0  0  0  0  0  0  0  0  0
   60.5051   31.4750   50.3894 H   0  0  0  0  0  0  0  0  0  0  0  0
   58.5401   30.9401   48.2129 H   0  0  0  0  0  0  0  0  0  0  0  0
   58.4057   33.0477   49.2632 H   0  0  0  0  0  0  0  0  0  0  0  0
   60.1978   33.3320   48.9889 H   0  0  0  0  0  0  0  0  0  0  0  0
   60.7195   34.8918   47.4032 H   0  0  0  0  0  0  0  0  0  0  0  0
   60.2424   36.0337   45.2377 H   0  0  0  0  0  0  0  0  0  0  0  0
   58.2356   35.3928   43.8987 H   0  0  0  0  0  0  0  0  0  0  0  0
   56.6903   33.6189   44.7355 H   0  0  0  0  0  0  0  0  0  0  0  0
   57.1576   32.4729   46.9014 H   0  0  0  0  0  0  0  0  0  0  0  0
   60.1364   31.4696   46.4071 H   0  0  0  0  0  0  0  0  0  0  0  0
   61.4889   31.3820   47.5995 H   0  0  0  0  0  0  0  0  0  0  0  0
   59.7067   29.1641   46.5373 H   0  0  0  0  0  0  0  0  0  0  0  0
   61.5305   29.2637   46.6815 H   0  0  0  0  0  0  0  0  0  0  0  0
   57.9197   29.0820   46.5147 H   0  0  0  0  0  0  0  0  0  0  0  0
   56.9870   27.8050   43.1790 H   0  0  0  0  0  0  0  0  0  0  0  0
   56.7912   31.8174   43.0449 H   0  0  0  0  0  0  0  0  0  0  0  0
   57.5532   30.3954   42.2548 H   0  0  0  0  0  0  0  0  0  0  0  0
   55.7656   30.5722   42.2548 H   0  0  0  0  0  0  0  0  0  0  0  0
   57.8673   25.5839   43.9634 H   0  0  0  0  0  0  0  0  0  0  0  0
  1  2  1  0
  2  3  2  0
  3  4  1  0
  4  5  1  0
  5  6  1  0
  6  7  1  0
  7  8  1  0
  8  9  1  0
  9 10  1  0
 10 11  1  0
 11 12  2  0
 12 13  1  0
 13 14  2  0
 14 15  1  0
 15 16  2  0
  9 17  1  0
 17 18  1  0
  4 19  2  0
 19 20  1  0
 20 21  1  0
 21 22  1  0
 22 23  1  0
 22 24  2  0
 22 25  2  0
 20 26  2  0
 26  2  1  0
 18  6  1  0
 16 11  1  0
  1 27  1  0
  1 28  1  0
  1 29  1  0
  3 30  1  0
  5 31  1  0
  5 32  1  0
  7 33  1  0
  7 34  1  0
  8 35  1  0
  8 36  1  0
  9 37  1  0
 10 38  1  0
 10 39  1  0
 12 40  1  0
 13 41  1  0
 14 42  1  0
 15 43  1  0
 16 44  1  0
 17 45  1  0
 17 46  1  0
 18 47  1  0
 18 48  1  0
 19 49  1  0
 21 50  1  0
 23 51  1  0
 23 52  1  0
 23 53  1  0
 26 54  1  0
M  END
>  <UniqueID>  (97) 
87

>  <SMILES>  (97) 
Cc1cc(CN2CCC(Cc3ccccc3)CC2)cc(NS(C)(=O)=O)c1

>  <Energy>  (97) 
61.36497399917101

>  <Genealogy>  (97) 
Cc1cc(CN2CCC(Cc3ccccc3)CC2)cc(NS(C)(=O)=O)c1 (3D coordinates assigned)
Cc1cc(CN2CCC(Cc3ccccc3)CC2)cc(NS(C)(=O)=O)c1 (nonaromatic ring conformer: 61.36497399917101 kcal/mol)

>  <smiles>  (97) 
Cc1cc(CN2CCC(Cc3ccccc3)CC2)cc(NS(C)(=O)=O)c1

>  <score_type>  (97) 
oracle

>  <origin>  (97) 
adg

>  <m_score__min__energy>  (97) 
-10.06

>  <m_primary>  (97) 
energy

$$$$
