0:0
     RDKit          3D

 51 53  0  0  0  0  0  0  0  0999 V2000
   57.5690   28.8590   43.7330 N   0  0  0  0  0  0  0  0  0  0  0  0
   56.5830   30.2790   43.7090 S   0  0  0  0  0  0  0  0  0  0  0  0
   55.2970   30.0200   44.4430 O   0  0  0  0  0  0  0  0  0  0  0  0
   56.2640   30.6390   42.2830 O   0  0  0  0  0  0  0  0  0  0  0  0
   57.4560   31.5930   44.4870 C   0  0  0  0  0  0  0  0  0  0  0  0
   57.8960   32.6970   43.7420 C   0  0  0  0  0  0  0  0  0  0  0  0
   58.6410   33.7080   44.3590 C   0  0  0  0  0  0  0  0  0  0  0  0
   58.9610   33.6170   45.7170 C   0  0  0  0  0  0  0  0  0  0  0  0
   58.5470   32.4990   46.4680 C   0  0  0  0  0  0  0  0  0  0  0  0
   58.8480   32.3630   47.8650 N   0  0  0  0  0  0  0  0  0  0  0  0
   60.1500   32.3060   48.4660 C   0  0  0  0  0  0  0  0  0  0  0  0
   60.3220   32.6370   49.6670 O   0  0  0  0  0  0  0  0  0  0  0  0
   61.3370   31.9300   47.6330 C   0  0  0  0  0  0  0  0  0  0  0  0
   61.5110   30.5130   47.5970 O   0  0  0  0  0  0  0  0  0  0  0  0
   60.5570   29.5920   47.1300 C   0  0  0  0  0  0  0  0  0  0  0  0
   59.4870   29.2660   47.9700 C   0  0  0  0  0  0  0  0  0  0  0  0
   58.5170   28.3450   47.5590 C   0  0  0  0  0  0  0  0  0  0  0  0
   58.6050   27.7460   46.2960 C   0  0  0  0  0  0  0  0  0  0  0  0
   57.3540   26.6400   45.7350 S   0  0  0  0  0  0  0  0  0  0  0  0
   57.7020   26.1070   44.3710 O   0  0  0  0  0  0  0  0  0  0  0  0
   56.0540   27.3890   45.6370 O   0  0  0  0  0  0  0  0  0  0  0  0
   57.1670   25.3130   46.8440 N   0  0  0  0  0  0  0  0  0  0  0  0
   56.0370   24.4600   46.4650 C   0  0  0  0  0  0  0  0  0  0  0  0
   56.3950   23.6070   45.2750 C   0  0  0  0  0  0  0  0  0  0  0  0
   55.6520   23.7100   44.0840 C   0  0  0  0  0  0  0  0  0  0  0  0
   55.9760   22.9160   42.9780 C   0  0  0  0  0  0  0  0  0  0  0  0
   57.0440   22.0160   43.0500 C   0  0  0  0  0  0  0  0  0  0  0  0
   57.7970   21.9170   44.2280 C   0  0  0  0  0  0  0  0  0  0  0  0
   57.4840   22.7180   45.3330 C   0  0  0  0  0  0  0  0  0  0  0  0
   59.6730   28.0700   45.4490 C   0  0  0  0  0  0  0  0  0  0  0  0
   60.6430   28.9890   45.8590 C   0  0  0  0  0  0  0  0  0  0  0  0
   57.7770   31.5050   45.8490 C   0  0  0  0  0  0  0  0  0  0  0  0
   56.9240   28.0350   43.7460 H   0  0  0  0  0  0  0  0  0  0  0  0
   58.0880   28.8260   42.8290 H   0  0  0  0  0  0  0  0  0  0  0  0
   57.6550   32.7681   42.6711 H   0  0  0  0  0  0  0  0  0  0  0  0
   58.9760   34.5771   43.7738 H   0  0  0  0  0  0  0  0  0  0  0  0
   59.5372   34.4199   46.2001 H   0  0  0  0  0  0  0  0  0  0  0  0
   61.1883   32.3000   46.6078 H   0  0  0  0  0  0  0  0  0  0  0  0
   62.2350   32.3813   48.0801 H   0  0  0  0  0  0  0  0  0  0  0  0
   59.4075   29.7371   48.9608 H   0  0  0  0  0  0  0  0  0  0  0  0
   57.6830   28.0907   48.2297 H   0  0  0  0  0  0  0  0  0  0  0  0
   55.7754   23.8084   47.3118 H   0  0  0  0  0  0  0  0  0  0  0  0
   55.1820   25.0993   46.2000 H   0  0  0  0  0  0  0  0  0  0  0  0
   54.8125   24.4181   44.0222 H   0  0  0  0  0  0  0  0  0  0  0  0
   55.3899   22.9999   42.0509 H   0  0  0  0  0  0  0  0  0  0  0  0
   57.2928   21.3864   42.1830 H   0  0  0  0  0  0  0  0  0  0  0  0
   58.6362   21.2081   44.2846 H   0  0  0  0  0  0  0  0  0  0  0  0
   58.0907   22.6521   46.2482 H   0  0  0  0  0  0  0  0  0  0  0  0
   59.7484   27.5994   44.4576 H   0  0  0  0  0  0  0  0  0  0  0  0
   61.4764   29.2425   45.1874 H   0  0  0  0  0  0  0  0  0  0  0  0
   57.4208   30.6469   46.4378 H   0  0  0  0  0  0  0  0  0  0  0  0
  1  2  1  0
  2  3  2  0
  2  4  2  0
  2  5  1  0
  5  6  2  0
  6  7  1  0
  7  8  2  0
  8  9  1  0
  9 10  1  0
 10 11  1  0
 11 12  2  0
 11 13  1  0
 13 14  1  0
 14 15  1  0
 15 16  2  0
 16 17  1  0
 17 18  2  0
 18 19  1  0
 19 20  2  0
 19 21  2  0
 19 22  1  0
 22 23  1  0
 23 24  1  0
 24 25  2  0
 25 26  1  0
 26 27  2  0
 27 28  1  0
 28 29  2  0
 18 30  1  0
 30 31  2  0
  9 32  2  0
 32  5  1  0
 31 15  1  0
 29 24  1  0
  1 33  1  0
  1 34  1  0
  6 35  1  0
  7 36  1  0
  8 37  1  0
 13 38  1  0
 13 39  1  0
 16 40  1  0
 17 41  1  0
 23 42  1  0
 23 43  1  0
 25 44  1  0
 26 45  1  0
 27 46  1  0
 28 47  1  0
 29 48  1  0
 30 49  1  0
 31 50  1  0
 32 51  1  0
M  CHG  2  10  -1  22  -1
M  END
>  <UniqueID>  (1) 
1

>  <SMILES>  (1) 
NS(=O)(=O)c1cccc([N-]C(=O)COc2ccc(S(=O)(=O)[N-]Cc3ccccc3)cc2)c1

>  <Energy>  (1) 
50.882257406549996

>  <Genealogy>  (1) 
NS(=O)(=O)c1cccc([N-]C(=O)COc2ccc(S(=O)(=O)[N-]Cc3ccccc3)cc2)c1 (protonated)
NS(=O)(=O)c1cccc([N-]C(=O)COc2ccc(S(=O)(=O)[N-]Cc3ccccc3)cc2)c1 (3D coordinates assigned)
NS(=O)(=O)c1cccc([N-]C(=O)COc2ccc(S(=O)(=O)[N-]Cc3ccccc3)cc2)c1 (optimized conformer: 50.882257406549996 kcal/mol)

>  <smiles>  (1) 
NS(=O)(=O)c1cccc(NC(=O)COc2ccc(S(=O)(=O)NCc3ccccc3)cc2)c1

>  <score_type>  (1) 
oracle

>  <origin>  (1) 
adg

>  <m_score__min__energy>  (1) 
-11.67

>  <m_primary>  (1) 
energy

$$$$
1:0
     RDKit          3D

 98 99  0  0  0  0  0  0  0  0999 V2000
   57.3970   25.1300   43.2440 C   0  0  0  0  0  0  0  0  0  0  0  0
   57.0730   24.1640   44.3940 C   0  0  0  0  0  0  0  0  0  0  0  0
   57.4340   22.7280   43.9870 C   0  0  0  0  0  0  0  0  0  0  0  0
   57.8170   24.5380   45.7030 C   0  0  0  0  0  0  0  0  0  0  0  0
   56.9620   25.2010   46.8060 C   0  0  2  0  0  0  0  0  0  0  0  0
   55.8100   24.3380   47.0730 N   0  0  0  0  0  0  0  0  0  0  0  0
   55.9210   23.0120   47.6080 C   0  0  0  0  0  0  0  0  0  0  0  0
   57.0500   22.5380   47.9110 O   0  0  0  0  0  0  0  0  0  0  0  0
   54.6870   22.1990   47.8780 C   0  0  1  0  0  0  0  0  0  0  0  0
   54.5090   21.9430   49.3890 C   0  0  0  0  0  0  0  0  0  0  0  0
   53.0890   22.1840   49.8360 C   0  0  0  0  0  0  0  0  0  0  0  0
   52.0440   21.3840   49.3410 C   0  0  0  0  0  0  0  0  0  0  0  0
   50.7210   21.6460   49.7110 C   0  0  0  0  0  0  0  0  0  0  0  0
   50.4300   22.7060   50.5730 C   0  0  0  0  0  0  0  0  0  0  0  0
   51.4630   23.5080   51.0660 C   0  0  0  0  0  0  0  0  0  0  0  0
   52.7890   23.2510   50.6990 C   0  0  0  0  0  0  0  0  0  0  0  0
   53.5320   22.9230   47.3530 N   0  0  0  0  0  0  0  0  0  0  0  0
   52.9900   22.7270   46.0420 C   0  0  0  0  0  0  0  0  0  0  0  0
   52.5550   21.5960   45.6980 O   0  0  0  0  0  0  0  0  0  0  0  0
   52.9150   23.8820   45.0720 C   0  0  2  0  0  0  0  0  0  0  0  0
   53.7170   25.0050   45.5710 N   0  0  0  0  0  0  0  0  0  0  0  0
   51.4500   24.3370   44.8070 C   0  0  0  0  0  0  0  0  0  0  0  0
   50.4170   23.5280   45.6080 C   0  0  0  0  0  0  0  0  0  0  0  0
   51.1110   24.3030   43.3110 C   0  0  0  0  0  0  0  0  0  0  0  0
   56.4850   26.5790   46.4170 C   0  0  0  0  0  0  0  0  0  0  0  0
   55.3070   26.7360   45.9940 O   0  0  0  0  0  0  0  0  0  0  0  0
   57.3820   27.7000   46.4880 N   0  0  0  0  0  0  0  0  0  0  0  0
   58.8040   27.6540   46.8420 C   0  0  1  0  0  0  0  0  0  0  0  0
   59.7170   27.9080   45.6230 C   0  0  0  0  0  0  0  0  0  0  0  0
   58.9650   28.5720   44.4590 C   0  0  0  0  0  0  0  0  0  0  0  0
   58.7410   30.0740   44.6990 C   0  0  0  0  0  0  0  0  0  0  0  0
   57.3650   30.4610   44.3830 N   0  0  0  0  0  0  0  0  0  0  0  0
   56.4140   29.6760   43.9640 C   0  0  0  0  0  0  0  0  0  0  0  0
   55.5440   28.9840   44.8720 N   0  0  0  0  0  0  0  0  0  0  0  0
   56.2300   29.5130   42.5580 N   0  0  0  0  0  0  0  0  0  0  0  0
   59.0970   28.6190   47.9600 C   0  0  0  0  0  0  0  0  0  0  0  0
   59.5050   28.1890   49.0740 O   0  0  0  0  0  0  0  0  0  0  0  0
   58.8750   30.0210   47.7710 N   0  0  0  0  0  0  0  0  0  0  0  0
   59.4940   31.0740   48.5660 C   0  0  2  0  0  0  0  0  0  0  0  0
   58.5450   32.2840   48.6070 C   0  0  0  0  0  0  0  0  0  0  0  0
   58.6220   33.1050   47.3450 C   0  0  0  0  0  0  0  0  0  0  0  0
   57.8160   32.7840   46.2390 C   0  0  0  0  0  0  0  0  0  0  0  0
   57.8960   33.5460   45.0670 C   0  0  0  0  0  0  0  0  0  0  0  0
   58.7880   34.6210   44.9880 C   0  0  0  0  0  0  0  0  0  0  0  0
   59.6020   34.9330   46.0780 C   0  0  0  0  0  0  0  0  0  0  0  0
   59.5220   34.1780   47.2530 C   0  0  0  0  0  0  0  0  0  0  0  0
   60.8190   31.4490   47.9630 C   0  0  0  0  0  0  0  0  0  0  0  0
   61.2650   30.8130   46.7670 N   0  0  0  0  0  0  0  0  0  0  0  0
   61.5450   32.3150   48.5190 O   0  0  0  0  0  0  0  0  0  0  0  0
   57.7212   26.0965   43.6573 H   0  0  0  0  0  0  0  0  0  0  0  0
   58.2024   24.7070   42.6257 H   0  0  0  0  0  0  0  0  0  0  0  0
   56.4994   25.2782   42.6257 H   0  0  0  0  0  0  0  0  0  0  0  0
   55.9937   24.2402   44.5920 H   0  0  0  0  0  0  0  0  0  0  0  0
   57.5872   22.1185   44.8898 H   0  0  0  0  0  0  0  0  0  0  0  0
   56.6156   22.2994   43.3898 H   0  0  0  0  0  0  0  0  0  0  0  0
   58.3577   22.7374   43.3898 H   0  0  0  0  0  0  0  0  0  0  0  0
   58.2471   23.6155   46.1203 H   0  0  0  0  0  0  0  0  0  0  0  0
   58.5624   25.2933   45.4133 H   0  0  0  0  0  0  0  0  0  0  0  0
   57.5868   25.3210   47.7033 H   0  0  0  0  0  0  0  0  0  0  0  0
   54.8670   24.6650   46.7500 H   0  0  0  0  0  0  0  0  0  0  0  0
   54.7820   21.2210   47.3836 H   0  0  0  0  0  0  0  0  0  0  0  0
   54.7783   20.8990   49.6071 H   0  0  0  0  0  0  0  0  0  0  0  0
   55.1612   22.6423   49.9327 H   0  0  0  0  0  0  0  0  0  0  0  0
   52.2678   20.5493   48.6605 H   0  0  0  0  0  0  0  0  0  0  0  0
   49.9075   21.0158   49.3223 H   0  0  0  0  0  0  0  0  0  0  0  0
   49.3887   22.9093   50.8635 H   0  0  0  0  0  0  0  0  0  0  0  0
   51.2334   24.3432   51.7441 H   0  0  0  0  0  0  0  0  0  0  0  0
   53.5985   23.8864   51.0875 H   0  0  0  0  0  0  0  0  0  0  0  0
   53.3231   23.5356   44.1110 H   0  0  0  0  0  0  0  0  0  0  0  0
   53.2830   25.9000   45.2360 H   0  0  0  0  0  0  0  0  0  0  0  0
   53.6460   25.0220   46.6140 H   0  0  0  0  0  0  0  0  0  0  0  0
   51.3904   25.3777   45.1583 H   0  0  0  0  0  0  0  0  0  0  0  0
   50.5961   23.6682   46.6842 H   0  0  0  0  0  0  0  0  0  0  0  0
   49.4041   23.8755   45.3565 H   0  0  0  0  0  0  0  0  0  0  0  0
   50.5117   22.4613   45.3565 H   0  0  0  0  0  0  0  0  0  0  0  0
   50.0238   24.1940   43.1838 H   0  0  0  0  0  0  0  0  0  0  0  0
   51.4434   25.2390   42.8383 H   0  0  0  0  0  0  0  0  0  0  0  0
   51.6227   23.4517   42.8383 H   0  0  0  0  0  0  0  0  0  0  0  0
   59.0279   26.6358   47.1929 H   0  0  0  0  0  0  0  0  0  0  0  0
   60.5434   28.5654   45.9310 H   0  0  0  0  0  0  0  0  0  0  0  0
   60.0879   26.9338   45.2717 H   0  0  0  0  0  0  0  0  0  0  0  0
   59.5521   28.4434   43.5377 H   0  0  0  0  0  0  0  0  0  0  0  0
   57.9793   28.0913   44.3735 H   0  0  0  0  0  0  0  0  0  0  0  0
   58.9445   30.3028   45.7555 H   0  0  0  0  0  0  0  0  0  0  0  0
   59.4207   30.6369   44.0424 H   0  0  0  0  0  0  0  0  0  0  0  0
   54.7690   28.3950   44.4920 H   0  0  0  0  0  0  0  0  0  0  0  0
   55.7260   28.9380   45.8950 H   0  0  0  0  0  0  0  0  0  0  0  0
   56.8380   30.0220   41.8810 H   0  0  0  0  0  0  0  0  0  0  0  0
   55.4530   28.9230   42.1880 H   0  0  0  0  0  0  0  0  0  0  0  0
   59.6729   30.7239   49.5933 H   0  0  0  0  0  0  0  0  0  0  0  0
   57.5138   31.9225   48.7331 H   0  0  0  0  0  0  0  0  0  0  0  0
   58.8476   32.9248   49.4483 H   0  0  0  0  0  0  0  0  0  0  0  0
   57.1214   31.9329   46.2943 H   0  0  0  0  0  0  0  0  0  0  0  0
   57.2564   33.2990   44.2068 H   0  0  0  0  0  0  0  0  0  0  0  0
   58.8477   35.2200   44.0673 H   0  0  0  0  0  0  0  0  0  0  0  0
   60.3078   35.7742   46.0130 H   0  0  0  0  0  0  0  0  0  0  0  0
   60.1673   34.4264   48.1085 H   0  0  0  0  0  0  0  0  0  0  0  0
   60.6860   30.0780   46.3040 H   0  0  0  0  0  0  0  0  0  0  0  0
  1  2  1  0
  2  3  1  0
  2  4  1  0
  4  5  1  0
  5  6  1  0
  6  7  1  0
  7  8  2  0
  7  9  1  0
  9 10  1  0
 10 11  1  0
 11 12  2  0
 12 13  1  0
 13 14  2  0
 14 15  1  0
 15 16  2  0
  9 17  1  0
 17 18  1  0
 18 19  2  0
 18 20  1  0
 20 21  1  0
 20 22  1  0
 22 23  1  0
 22 24  1  0
  5 25  1  0
 25 26  2  0
 25 27  1  0
 27 28  1  0
 28 29  1  0
 29 30  1  0
 30 31  1  0
 31 32  1  0
 32 33  2  3
 33 34  1  0
 33 35  1  0
 28 36  1  0
 36 37  2  0
 36 38  1  0
 38 39  1  0
 39 40  1  0
 40 41  1  0
 41 42  2  0
 42 43  1  0
 43 44  2  0
 44 45  1  0
 45 46  2  0
 39 47  1  0
 47 48  1  0
 47 49  2  0
 16 11  1  0
 46 41  1  0
  1 50  1  0
  1 51  1  0
  1 52  1  0
  2 53  1  0
  3 54  1  0
  3 55  1  0
  3 56  1  0
  4 57  1  0
  4 58  1  0
  5 59  1  1
  6 60  1  0
  9 61  1  6
 10 62  1  0
 10 63  1  0
 12 64  1  0
 13 65  1  0
 14 66  1  0
 15 67  1  0
 16 68  1  0
 20 69  1  6
 21 70  1  0
 21 71  1  0
 22 72  1  0
 23 73  1  0
 23 74  1  0
 23 75  1  0
 24 76  1  0
 24 77  1  0
 24 78  1  0
 28 79  1  1
 29 80  1  0
 29 81  1  0
 30 82  1  0
 30 83  1  0
 31 84  1  0
 31 85  1  0
 34 86  1  0
 34 87  1  0
 35 88  1  0
 35 89  1  0
 39 90  1  1
 40 91  1  0
 40 92  1  0
 42 93  1  0
 43 94  1  0
 44 95  1  0
 45 96  1  0
 46 97  1  0
 48 98  1  0
M  CHG  4  17  -1  27  -1  38  -1  48  -1
M  END
>  <UniqueID>  (2) 
2

>  <SMILES>  (2) 
CC(C)C[C@H](NC(=O)[C@@H](Cc1ccccc1)[N-]C(=O)C(N)C(C)C)C(=O)[N-]C(CCCN=C(N)N)C(=O)[N-]C(Cc1ccccc1)C([NH-])=O

>  <Energy>  (2) 
62.21623305883134

>  <Genealogy>  (2) 
CC(C)CC(NC(=O)C(Cc1ccccc1)[N-]C(=O)C(N)C(C)C)C(=O)[N-]C(CCCN=C(N)N)C(=O)[N-]C(Cc1ccccc1)C([NH-])=O (protonated)
CC(C)C[C@H](NC(=O)[C@@H](Cc1ccccc1)[N-]C(=O)C(N)C(C)C)C(=O)[N-]C(CCCN=C(N)N)C(=O)[N-]C(Cc1ccccc1)C([NH-])=O (chirality)
CC(C)C[C@H](NC(=O)[C@@H](Cc1ccccc1)[N-]C(=O)C(N)C(C)C)C(=O)[N-]C(CCCN=C(N)N)C(=O)[N-]C(Cc1ccccc1)C([NH-])=O (3D coordinates assigned)
CC(C)C[C@H](NC(=O)[C@@H](Cc1ccccc1)[N-]C(=O)C(N)C(C)C)C(=O)[N-]C(CCCN=C(N)N)C(=O)[N-]C(Cc1ccccc1)C([NH-])=O (optimized conformer: 62.21623305883134 kcal/mol)

>  <smiles>  (2) 
CC(C)CC(NC(=O)C(Cc1ccccc1)NC(=O)C(N)C(C)C)C(=O)NC(CCCN=C(N)N)C(=O)NC(Cc1ccccc1)C(N)=O

>  <score_type>  (2) 
oracle

>  <origin>  (2) 
adg

>  <m_score__min__energy>  (2) 
-17.629999999999999

>  <m_primary>  (2) 
energy

$$$$
2:0
     RDKit          3D

 35 36  0  0  1  0  0  0  0  0999 V2000
   59.1120   33.0840   48.5110 C   0  0  0  0  0  0  0  0  0  0  0  0
   59.1220   33.7960   47.2080 C   0  0  0  0  0  0  0  0  0  0  0  0
   59.8490   34.9700   47.1460 C   0  0  0  0  0  0  0  0  0  0  0  0
   59.9200   35.7210   45.9900 C   0  0  0  0  0  0  0  0  0  0  0  0
   59.2390   35.2580   44.8950 C   0  0  0  0  0  0  0  0  0  0  0  0
   58.5160   34.0890   44.9610 C   0  0  0  0  0  0  0  0  0  0  0  0
   58.4200   33.3110   46.0930 C   0  0  0  0  0  0  0  0  0  0  0  0
   57.7100   32.1300   46.2270 N   0  0  0  0  0  0  0  0  0  0  0  0
   57.3670   31.4770   45.2250 N   0  0  0  0  0  0  0  0  0  0  0  0
   57.5060   30.0770   45.2750 C   0  0  0  0  0  0  0  0  0  0  0  0
   58.7420   29.4890   45.5910 C   0  0  0  0  0  0  0  0  0  0  0  0
   59.8900   30.2840   45.8720 N   0  0  0  0  0  0  0  0  0  0  0  0
   58.8900   28.1510   45.6360 N   0  0  0  0  0  0  0  0  0  0  0  0
   57.8620   27.3230   45.3820 C   0  0  0  0  0  0  0  0  0  0  0  0
   58.1690   25.5660   45.4700 S   0  0  0  0  0  0  0  0  0  0  0  0
   56.6880   24.6100   45.0260 C   0  0  0  0  0  0  0  0  0  0  0  0
   55.5790   24.9730   45.9570 C   0  0  0  0  0  0  0  0  0  0  0  0
   55.4490   24.3700   47.0390 O   0  0  0  0  0  0  0  0  0  0  0  0
   54.6590   25.9760   45.6690 O   0  0  0  0  0  0  0  0  0  0  0  0
   56.6610   27.8410   45.0760 N   0  0  0  0  0  0  0  0  0  0  0  0
   56.4860   29.1810   45.0240 C   0  0  0  0  0  0  0  0  0  0  0  0
   55.3460   29.5890   44.7320 O   0  0  0  0  0  0  0  0  0  0  0  0
   59.1223   33.8182   49.3301 H   0  0  0  0  0  0  0  0  0  0  0  0
   58.2051   32.4658   48.5841 H   0  0  0  0  0  0  0  0  0  0  0  0
   60.0012   32.4406   48.5841 H   0  0  0  0  0  0  0  0  0  0  0  0
   60.3855   35.3151   48.0421 H   0  0  0  0  0  0  0  0  0  0  0  0
   60.5005   36.6545   45.9495 H   0  0  0  0  0  0  0  0  0  0  0  0
   59.2705   35.8264   43.9537 H   0  0  0  0  0  0  0  0  0  0  0  0
   57.9841   33.7569   44.0573 H   0  0  0  0  0  0  0  0  0  0  0  0
   60.8490   29.8700   45.9860 H   0  0  0  0  0  0  0  0  0  0  0  0
   59.7270   31.3280   45.9600 H   0  0  0  0  0  0  0  0  0  0  0  0
   56.3937   24.8445   43.9924 H   0  0  0  0  0  0  0  0  0  0  0  0
   56.9025   23.5340   45.1046 H   0  0  0  0  0  0  0  0  0  0  0  0
   54.0170   26.3460   46.3670 H   0  0  0  0  0  0  0  0  0  0  0  0
   55.8710   27.1930   44.8810 H   0  0  0  0  0  0  0  0  0  0  0  0
  1  2  1  0
  2  3  2  0
  3  4  1  0
  4  5  2  0
  5  6  1  0
  6  7  2  0
  7  8  1  0
  8  9  2  0
  9 10  1  0
 10 11  2  0
 11 12  1  0
 11 13  1  0
 13 14  2  0
 14 15  1  0
 15 16  1  0
 16 17  1  0
 17 18  2  0
 17 19  1  0
 14 20  1  0
 20 21  1  0
 21 22  2  0
  7  2  1  0
 21 10  1  0
  1 23  1  0
  1 24  1  0
  1 25  1  0
  3 26  1  0
  4 27  1  0
  5 28  1  0
  6 29  1  0
 12 30  1  0
 12 31  1  0
 16 32  1  0
 16 33  1  0
 19 34  1  0
 20 35  1  0
M  END
>  <smiles>  (3) 
Cc1ccccc1N=Nc1c(N)nc(SCC(=O)O)[nH]c1=O

>  <score_type>  (3) 
oracle

>  <origin>  (3) 
adg

>  <m_score__min__energy>  (3) 
-8.8599999999999994

>  <m_primary>  (3) 
energy

$$$$
3:0
     RDKit          3D

 41 43  0  0  0  0  0  0  0  0999 V2000
   56.4000   24.4330   44.6850 C   0  0  0  0  0  0  0  0  0  0  0  0
   56.2460   25.3880   46.1790 S   0  0  0  0  0  0  0  0  0  0  0  0
   55.1390   26.3880   46.0020 O   0  0  0  0  0  0  0  0  0  0  0  0
   55.9100   24.4950   47.3410 O   0  0  0  0  0  0  0  0  0  0  0  0
   57.7220   26.2430   46.4980 N   0  0  0  0  0  0  0  0  0  0  0  0
   57.9020   27.6630   46.4170 C   0  0  0  0  0  0  0  0  0  0  0  0
   57.4050   28.3370   45.2940 C   0  0  0  0  0  0  0  0  0  0  0  0
   57.5570   29.7200   45.1700 C   0  0  0  0  0  0  0  0  0  0  0  0
   58.2250   30.4520   46.1630 C   0  0  0  0  0  0  0  0  0  0  0  0
   58.3550   31.8760   46.0190 N   0  0  0  0  0  0  0  0  0  0  0  0
   57.3840   32.7130   45.3680 C   0  0  0  0  0  0  0  0  0  0  0  0
   56.3050   32.2290   44.9290 O   0  0  0  0  0  0  0  0  0  0  0  0
   57.6090   34.1930   45.2830 C   0  0  0  0  0  0  0  0  0  0  0  0
   59.2640   34.5650   44.6020 S   0  0  0  0  0  0  0  0  0  0  0  0
   60.1370   34.2320   46.1310 C   0  0  0  0  0  0  0  0  0  0  0  0
   59.4870   34.3480   47.3180 N   0  0  0  0  0  0  0  0  0  0  0  0
   60.1060   34.0690   48.4940 C   0  0  0  0  0  0  0  0  0  0  0  0
   59.4660   34.1850   49.5730 O   0  0  0  0  0  0  0  0  0  0  0  0
   61.4460   33.6480   48.4890 C   0  0  0  0  0  0  0  0  0  0  0  0
   62.1440   33.3340   49.6700 C   0  0  0  0  0  0  0  0  0  0  0  0
   63.4790   32.9210   49.6050 C   0  0  0  0  0  0  0  0  0  0  0  0
   64.1240   32.8170   48.3680 C   0  0  0  0  0  0  0  0  0  0  0  0
   63.4390   33.1260   47.1890 C   0  0  0  0  0  0  0  0  0  0  0  0
   62.1030   33.5420   47.2440 C   0  0  0  0  0  0  0  0  0  0  0  0
   61.4340   33.8370   46.0990 N   0  0  0  0  0  0  0  0  0  0  0  0
   58.7020   29.7830   47.3020 C   0  0  0  0  0  0  0  0  0  0  0  0
   58.5470   28.3990   47.4260 C   0  0  0  0  0  0  0  0  0  0  0  0
   56.5703   23.3768   44.9409 H   0  0  0  0  0  0  0  0  0  0  0  0
   55.4757   24.5230   44.0954 H   0  0  0  0  0  0  0  0  0  0  0  0
   57.2491   24.8090   44.0954 H   0  0  0  0  0  0  0  0  0  0  0  0
   56.8904   27.7721   44.5027 H   0  0  0  0  0  0  0  0  0  0  0  0
   57.1506   30.2380   44.2888 H   0  0  0  0  0  0  0  0  0  0  0  0
   59.1340   32.3460   46.5350 H   0  0  0  0  0  0  0  0  0  0  0  0
   56.8431   34.6365   44.6298 H   0  0  0  0  0  0  0  0  0  0  0  0
   57.5432   34.6166   46.2960 H   0  0  0  0  0  0  0  0  0  0  0  0
   61.6398   33.4133   50.6444 H   0  0  0  0  0  0  0  0  0  0  0  0
   64.0232   32.6773   50.5294 H   0  0  0  0  0  0  0  0  0  0  0  0
   65.1736   32.4910   48.3228 H   0  0  0  0  0  0  0  0  0  0  0  0
   63.9495   33.0423   46.2182 H   0  0  0  0  0  0  0  0  0  0  0  0
   59.2004   30.3512   48.1012 H   0  0  0  0  0  0  0  0  0  0  0  0
   58.9319   27.8833   48.3181 H   0  0  0  0  0  0  0  0  0  0  0  0
  1  2  1  0
  2  3  2  0
  2  4  2  0
  2  5  1  0
  5  6  1  0
  6  7  2  0
  7  8  1  0
  8  9  2  0
  9 10  1  0
 10 11  1  0
 11 12  2  0
 11 13  1  0
 13 14  1  0
 14 15  1  0
 15 16  2  0
 16 17  1  0
 17 18  2  0
 17 19  1  0
 19 20  2  0
 20 21  1  0
 21 22  2  0
 22 23  1  0
 23 24  2  0
 24 25  1  0
  9 26  1  0
 26 27  2  0
 27  6  1  0
 25 15  1  0
 24 19  1  0
  1 28  1  0
  1 29  1  0
  1 30  1  0
  7 31  1  0
  8 32  1  0
 10 33  1  0
 13 34  1  0
 13 35  1  0
 20 36  1  0
 21 37  1  0
 22 38  1  0
 23 39  1  0
 26 40  1  0
 27 41  1  0
M  CHG  2   5  -1  25  -1
M  END
>  <UniqueID>  (4) 
3

>  <SMILES>  (4) 
CS(=O)(=O)[N-]c1ccc(NC(=O)CSc2nc(=O)c3ccccc3[n-]2)cc1

>  <Energy>  (4) 
43.93679640179294

>  <Genealogy>  (4) 
CS(=O)(=O)[N-]c1ccc(NC(=O)CSc2nc(=O)c3ccccc3[n-]2)cc1 (protonated)
CS(=O)(=O)[N-]c1ccc(NC(=O)CSc2nc(=O)c3ccccc3[n-]2)cc1 (3D coordinates assigned)
CS(=O)(=O)[N-]c1ccc(NC(=O)CSc2nc(=O)c3ccccc3[n-]2)cc1 (optimized conformer: 43.93679640179294 kcal/mol)

>  <smiles>  (4) 
CS(=O)(=O)Nc1ccc(NC(=O)CSc2nc(=O)c3ccccc3[nH]2)cc1

>  <score_type>  (4) 
oracle

>  <origin>  (4) 
adg

>  <m_score__min__energy>  (4) 
-11.26

>  <m_primary>  (4) 
energy

$$$$
4:0
     RDKit          3D

 27 28  0  0  0  0  0  0  0  0999 V2000
   54.9040   26.3490   46.1610 N   0  0  0  0  0  0  0  0  0  0  0  0
   56.3130   26.1360   46.2410 C   0  0  0  0  0  0  0  0  0  0  0  0
   56.7590   24.9590   46.1890 O   0  0  0  0  0  0  0  0  0  0  0  0
   57.2410   27.2830   46.3840 C   0  0  0  0  0  0  0  0  0  0  0  0
   58.3410   27.2100   47.2540 C   0  0  0  0  0  0  0  0  0  0  0  0
   59.2150   28.2940   47.3880 C   0  0  0  0  0  0  0  0  0  0  0  0
   59.0090   29.4740   46.6530 C   0  0  0  0  0  0  0  0  0  0  0  0
   59.9360   30.6240   46.7930 C   0  0  0  0  0  0  0  0  0  0  0  0
   61.2930   30.4840   47.1000 C   0  0  0  0  0  0  0  0  0  0  0  0
   61.9800   32.0180   47.1840 S   0  0  0  0  0  0  0  0  0  0  0  0
   60.5350   32.8010   46.8100 C   0  0  0  0  0  0  0  0  0  0  0  0
   60.3520   34.0880   46.7410 N   0  0  0  0  0  0  0  0  0  0  0  0
   59.3780   34.7540   45.9260 C   0  0  0  0  0  0  0  0  0  0  0  0
   59.6480   35.8930   45.4630 O   0  0  0  0  0  0  0  0  0  0  0  0
   58.0410   34.1830   45.6910 C   0  0  0  0  0  0  0  0  0  0  0  0
   57.5950   34.0570   44.5200 O   0  0  0  0  0  0  0  0  0  0  0  0
   57.2760   33.7430   46.7640 O   0  0  0  0  0  0  0  0  0  0  0  0
   59.5300   31.9180   46.6390 N   0  0  0  0  0  0  0  0  0  0  0  0
   57.9070   29.5470   45.7840 C   0  0  0  0  0  0  0  0  0  0  0  0
   57.0330   28.4640   45.6510 C   0  0  0  0  0  0  0  0  0  0  0  0
   54.4400   27.0930   46.7270 H   0  0  0  0  0  0  0  0  0  0  0  0
   58.5168   26.2927   47.8350 H   0  0  0  0  0  0  0  0  0  0  0  0
   60.0712   28.2221   48.0748 H   0  0  0  0  0  0  0  0  0  0  0  0
   61.8217   29.5327   47.2595 H   0  0  0  0  0  0  0  0  0  0  0  0
   58.5550   32.2050   46.3950 H   0  0  0  0  0  0  0  0  0  0  0  0
   57.7305   30.4644   45.2033 H   0  0  0  0  0  0  0  0  0  0  0  0
   56.1749   28.5368   44.9666 H   0  0  0  0  0  0  0  0  0  0  0  0
  1  2  1  0
  2  3  2  0
  2  4  1  0
  4  5  2  0
  5  6  1  0
  6  7  2  0
  7  8  1  0
  8  9  2  0
  9 10  1  0
 10 11  1  0
 11 12  2  3
 12 13  1  0
 13 14  2  0
 13 15  1  0
 15 16  2  0
 15 17  1  0
 11 18  1  0
  7 19  1  0
 19 20  2  0
 20  4  1  0
 18  8  1  0
  1 21  1  0
  5 22  1  0
  6 23  1  0
  9 24  1  0
 18 25  1  0
 19 26  1  0
 20 27  1  0
M  CHG  2   1  -1  17  -1
M  END
>  <UniqueID>  (5) 
4

>  <SMILES>  (5) 
[NH-]C(=O)c1ccc(-c2csc(=NC(=O)C(=O)[O-])[nH]2)cc1

>  <Energy>  (5) 
67.87705029834083

>  <Genealogy>  (5) 
[NH-]C(=O)c1ccc(-c2csc(=NC(=O)C(=O)[O-])[nH]2)cc1 (protonated)
[NH-]C(=O)c1ccc(-c2csc(=NC(=O)C(=O)[O-])[nH]2)cc1 (3D coordinates assigned)
[NH-]C(=O)c1ccc(-c2csc(=NC(=O)C(=O)[O-])[nH]2)cc1 (optimized conformer: 67.87705029834083 kcal/mol)

>  <smiles>  (5) 
NC(=O)c1ccc(-c2csc(=NC(=O)C(=O)O)[nH]2)cc1

>  <score_type>  (5) 
oracle

>  <origin>  (5) 
adg

>  <m_score__min__energy>  (5) 
-10.07

>  <m_primary>  (5) 
energy

$$$$
5:0
     RDKit          3D

 45 48  0  0  1  0  0  0  0  0999 V2000
   55.8930   29.5750   44.0490 C   0  0  0  0  0  0  0  0  0  0  0  0
   56.6940   30.8230   44.0140 C   0  0  0  0  0  0  0  0  0  0  0  0
   57.3850   31.2340   42.8810 C   0  0  0  0  0  0  0  0  0  0  0  0
   58.1150   32.4120   42.9160 C   0  0  0  0  0  0  0  0  0  0  0  0
   58.1570   33.1770   44.0740 C   0  0  0  0  0  0  0  0  0  0  0  0
   57.4570   32.7320   45.1720 C   0  0  0  0  0  0  0  0  0  0  0  0
   57.4220   33.4590   46.4650 C   0  0  0  0  0  0  0  0  0  0  0  0
   58.6170   34.4070   46.6110 C   0  0  0  0  0  0  0  0  0  0  0  0
   59.8630   33.6110   46.8070 C   0  0  0  0  0  0  0  0  0  0  0  0
   61.1080   34.2030   46.8360 C   0  0  0  0  0  0  0  0  0  0  0  0
   62.2780   33.4810   47.0170 C   0  0  0  0  0  0  0  0  0  0  0  0
   62.1360   32.1180   47.1700 C   0  0  0  0  0  0  0  0  0  0  0  0
   60.8880   31.5260   47.1410 C   0  0  0  0  0  0  0  0  0  0  0  0
   60.8730   30.0990   47.3130 N   0  0  0  0  0  0  0  0  0  0  0  0
   59.8090   29.4050   47.0290 C   0  0  0  0  0  0  0  0  0  0  0  0
   59.6410   28.0330   47.0950 C   0  0  0  0  0  0  0  0  0  0  0  0
   58.3400   27.7710   46.6960 C   0  0  0  0  0  0  0  0  0  0  0  0
   57.6650   26.4300   46.5960 C   0  0  0  0  0  0  0  0  0  0  0  0
   57.4100   25.9090   45.1650 C   0  0  0  0  0  0  0  0  0  0  0  0
   56.3000   26.3920   46.0330 C   0  0  0  0  0  0  0  0  0  0  0  0
   57.7520   28.9440   46.4030 N   0  0  0  0  0  0  0  0  0  0  0  0
   58.6410   29.9200   46.6060 N   0  0  0  0  0  0  0  0  0  0  0  0
   59.8010   32.2590   46.9660 N   0  0  0  0  0  0  0  0  0  0  0  0
   56.7430   31.5710   45.1250 N   0  0  0  0  0  0  0  0  0  0  0  0
   55.7082   29.2871   45.0945 H   0  0  0  0  0  0  0  0  0  0  0  0
   54.9325   29.7413   43.5393 H   0  0  0  0  0  0  0  0  0  0  0  0
   56.4442   28.7711   43.5393 H   0  0  0  0  0  0  0  0  0  0  0  0
   57.3531   30.6291   41.9628 H   0  0  0  0  0  0  0  0  0  0  0  0
   58.6638   32.7424   42.0218 H   0  0  0  0  0  0  0  0  0  0  0  0
   58.7338   34.1128   44.1126 H   0  0  0  0  0  0  0  0  0  0  0  0
   56.4926   34.0448   46.5202 H   0  0  0  0  0  0  0  0  0  0  0  0
   57.4684   32.7189   47.2775 H   0  0  0  0  0  0  0  0  0  0  0  0
   58.7124   35.0192   45.7021 H   0  0  0  0  0  0  0  0  0  0  0  0
   58.4605   35.0625   47.4804 H   0  0  0  0  0  0  0  0  0  0  0  0
   61.1759   35.2937   46.7103 H   0  0  0  0  0  0  0  0  0  0  0  0
   63.2640   33.9682   47.0374 H   0  0  0  0  0  0  0  0  0  0  0  0
   63.0292   31.4930   47.3173 H   0  0  0  0  0  0  0  0  0  0  0  0
   60.3943   27.2935   47.4043 H   0  0  0  0  0  0  0  0  0  0  0  0
   58.1369   26.0410   47.5104 H   0  0  0  0  0  0  0  0  0  0  0  0
   57.7306   26.4997   44.2942 H   0  0  0  0  0  0  0  0  0  0  0  0
   57.6325   24.9848   44.6115 H   0  0  0  0  0  0  0  0  0  0  0  0
   55.7889   27.3342   45.7858 H   0  0  0  0  0  0  0  0  0  0  0  0
   55.3497   25.9518   46.3693 H   0  0  0  0  0  0  0  0  0  0  0  0
   56.7640   29.0250   46.0770 H   0  0  0  0  0  0  0  0  0  0  0  0
   58.3750   30.9210   46.4320 H   0  0  0  0  0  0  0  0  0  0  0  0
  1  2  1  0
  2  3  2  0
  3  4  1  0
  4  5  2  0
  5  6  1  0
  6  7  1  0
  7  8  1  0
  8  9  1  0
  9 10  2  0
 10 11  1  0
 11 12  2  0
 12 13  1  0
 13 14  1  0
 14 15  2  0
 15 16  1  0
 16 17  2  0
 17 18  1  0
 18 19  1  0
 19 20  1  0
 17 21  1  0
 21 22  1  0
 13 23  2  0
  6 24  2  0
 24  2  1  0
 23  9  1  0
 22 15  1  0
 20 18  1  0
  1 25  1  0
  1 26  1  0
  1 27  1  0
  3 28  1  0
  4 29  1  0
  5 30  1  0
  7 31  1  0
  7 32  1  0
  8 33  1  0
  8 34  1  0
 10 35  1  0
 11 36  1  0
 12 37  1  0
 16 38  1  0
 18 39  1  0
 19 40  1  0
 19 41  1  0
 20 42  1  0
 20 43  1  0
 21 44  1  0
 22 45  1  0
M  END
>  <smiles>  (6) 
Cc1cccc(CCc2cccc(N=c3cc(C4CC4)[nH][nH]3)n2)n1

>  <score_type>  (6) 
oracle

>  <origin>  (6) 
adg

>  <m_score__min__energy>  (6) 
-9.4199999999999999

>  <m_primary>  (6) 
energy

$$$$
6:0
     RDKit          3D

 51 55  0  0  0  0  0  0  0  0999 V2000
   64.7459   33.3173   46.8587 H   0  0  0  0  0  0  0  0  0  0  0  0
   63.7710   33.0560   47.2960 C   0  0  0  0  0  0  0  0  0  0  0  0
   63.5570   31.9930   48.1000 N   0  0  0  0  0  0  0  0  0  0  0  0
   62.2490   32.0420   48.4220 C   0  0  0  0  0  0  0  0  0  0  0  0
   61.5790   31.0250   49.1790 N   0  0  0  0  0  0  0  0  0  0  0  0
   62.0460   30.6130   50.0170 H   0  0  0  0  0  0  0  0  0  0  0  0
   60.2360   30.5600   48.8380 C   0  0  0  0  0  0  0  0  0  0  0  0
   59.7890   30.0670   49.7139 H   0  0  0  0  0  0  0  0  0  0  0  0
   59.6230   31.4229   48.5387 H   0  0  0  0  0  0  0  0  0  0  0  0
   60.2980   29.5830   47.6960 C   0  0  0  0  0  0  0  0  0  0  0  0
   60.2920   28.1990   47.9380 C   0  0  0  0  0  0  0  0  0  0  0  0
   60.2258   27.8229   48.9696 H   0  0  0  0  0  0  0  0  0  0  0  0
   60.3700   27.2980   46.8710 C   0  0  0  0  0  0  0  0  0  0  0  0
   60.3629   26.2152   47.0646 H   0  0  0  0  0  0  0  0  0  0  0  0
   60.4570   27.7720   45.5590 C   0  0  0  0  0  0  0  0  0  0  0  0
   60.5168   27.0622   44.7208 H   0  0  0  0  0  0  0  0  0  0  0  0
   60.4680   29.1460   45.3120 C   0  0  0  0  0  0  0  0  0  0  0  0
   60.5382   29.5172   44.2789 H   0  0  0  0  0  0  0  0  0  0  0  0
   60.3900   30.0510   46.3740 C   0  0  0  0  0  0  0  0  0  0  0  0
   60.4006   31.1327   46.1746 H   0  0  0  0  0  0  0  0  0  0  0  0
   61.6450   33.1400   47.8400 C   0  0  0  0  0  0  0  0  0  0  0  0
   60.2510   33.4760   47.8480 N   0  0  0  0  0  0  0  0  0  0  0  0
   59.4920   33.6770   46.8060 C   0  0  0  0  0  0  0  0  0  0  0  0
   59.6220   34.8120   45.9800 C   0  0  0  0  0  0  0  0  0  0  0  0
   60.3911   35.5686   46.1944 H   0  0  0  0  0  0  0  0  0  0  0  0
   58.7670   34.9680   44.8880 C   0  0  0  0  0  0  0  0  0  0  0  0
   58.8466   35.8629   44.2533 H   0  0  0  0  0  0  0  0  0  0  0  0
   57.8370   34.0190   44.6060 N   0  0  0  0  0  0  0  0  0  0  0  0
   57.7140   32.8880   45.3510 C   0  0  0  0  0  0  0  0  0  0  0  0
   56.6820   31.9490   45.0160 N   0  0  0  0  0  0  0  0  0  0  0  0
   56.8490   30.7630   44.5070 C   0  0  0  0  0  0  0  0  0  0  0  0
   57.0000   29.6690   45.2790 N   0  0  0  0  0  0  0  0  0  0  0  0
   57.1130   28.5270   44.5420 C   0  0  0  0  0  0  0  0  0  0  0  0
   57.2860   27.2010   45.1920 C   0  0  0  0  0  0  0  0  0  0  0  0
   57.0510   27.0170   46.5700 C   0  0  0  0  0  0  0  0  0  0  0  0
   56.7332   27.8694   47.1884 H   0  0  0  0  0  0  0  0  0  0  0  0
   57.2190   25.7590   47.1560 C   0  0  0  0  0  0  0  0  0  0  0  0
   57.0377   25.6279   48.2330 H   0  0  0  0  0  0  0  0  0  0  0  0
   57.6160   24.6680   46.3800 C   0  0  0  0  0  0  0  0  0  0  0  0
   57.7830   23.4200   46.9670 O   0  0  0  0  0  0  0  0  0  0  0  0
   57.8480   24.8350   45.0120 C   0  0  0  0  0  0  0  0  0  0  0  0
   58.1627   23.9769   44.3999 H   0  0  0  0  0  0  0  0  0  0  0  0
   57.6810   26.0900   44.4200 C   0  0  0  0  0  0  0  0  0  0  0  0
   57.8595   26.2118   43.3414 H   0  0  0  0  0  0  0  0  0  0  0  0
   57.0320   28.7230   43.1580 C   0  0  0  0  0  0  0  0  0  0  0  0
   57.0971   27.9373   42.3909 H   0  0  0  0  0  0  0  0  0  0  0  0
   56.8180   30.3660   42.8700 S   0  0  0  0  0  0  0  0  0  0  0  0
   58.5320   32.7120   46.4800 C   0  0  0  0  0  0  0  0  0  0  0  0
   58.4179   31.8158   47.1076 H   0  0  0  0  0  0  0  0  0  0  0  0
   62.6070   33.7740   47.0930 C   0  0  0  0  0  0  0  0  0  0  0  0
   62.4784   34.6672   46.4640 H   0  0  0  0  0  0  0  0  0  0  0  0
  1  2  1  0
  2  3  1  0
  3  4  1  0
  4  5  1  0
  5  6  1  0
  5  7  1  0
  7  8  1  0
  7  9  1  0
  7 10  1  0
 10 11  2  0
 11 12  1  0
 11 13  1  0
 13 14  1  0
 13 15  2  0
 15 16  1  0
 15 17  1  0
 17 18  1  0
 17 19  2  0
 19 20  1  0
  4 21  2  0
 21 22  1  0
 22 23  2  0
 23 24  1  0
 24 25  1  0
 24 26  2  0
 26 27  1  0
 26 28  1  0
 28 29  1  0
 29 30  1  0
 30 31  2  0
 31 32  1  0
 32 33  1  0
 33 34  1  0
 34 35  2  0
 35 36  1  0
 35 37  1  0
 37 38  1  0
 37 39  2  0
 39 40  1  0
 39 41  1  0
 41 42  1  0
 41 43  2  0
 43 44  1  0
 33 45  2  0
 45 46  1  0
 45 47  1  0
 29 48  2  0
 48 49  1  0
 21 50  1  0
 50 51  1  0
 50  2  2  0
 19 10  1  0
 48 23  1  0
 47 31  1  0
 43 34  1  0
M  CHG  4   3  -1  28  -1  32  -1  40  -1
M  END
>  <UniqueID>  (7) 
5

>  <SMILES>  (7) 
[O-]c1ccc(-c2cs/c(=N\c3c/c(=N/c4cc[n-]c4NCc4ccccc4)cc[n-]3)[n-]2)cc1

>  <Energy>  (7) 
131.25517700688977

>  <Genealogy>  (7) 
[O-]c1ccc(-c2csc(=Nc3cc(=Nc4cc[n-]c4NCc4ccccc4)cc[n-]3)[n-]2)cc1 (protonated)
[O-]c1ccc(-c2cs/c(=N\c3c/c(=N/c4cc[n-]c4NCc4ccccc4)cc[n-]3)[n-]2)cc1 (cis-trans isomerization)
[O-]c1ccc(-c2cs/c(=N\c3c/c(=N/c4cc[n-]c4NCc4ccccc4)cc[n-]3)[n-]2)cc1 (3D coordinates assigned)
[O-]c1ccc(-c2cs/c(=N\c3c/c(=N/c4cc[n-]c4NCc4ccccc4)cc[n-]3)[n-]2)cc1 (optimized conformer: 131.25517700688977 kcal/mol)

>  <smiles>  (7) 
Oc1ccc(-c2csc(=Nc3cc(=Nc4cc[nH]c4NCc4ccccc4)cc[nH]3)[nH]2)cc1

>  <score_type>  (7) 
oracle

>  <origin>  (7) 
adg

>  <m_score__min__energy>  (7) 
-16.43

>  <m_primary>  (7) 
energy

$$$$
7:0
     RDKit          3D

 43 45  0  0  0  0  0  0  0  0999 V2000
   52.8255   24.8797   46.0229 H   0  0  0  0  0  0  0  0  0  0  0  0
   53.8370   24.7230   45.6200 C   0  0  0  0  0  0  0  0  0  0  0  0
   54.8450   25.5610   45.9760 N   0  0  0  0  0  0  0  0  0  0  0  0
   56.1120   25.4080   45.4950 C   0  0  0  0  0  0  0  0  0  0  0  0
   57.0700   26.2130   45.8560 N   0  0  0  0  0  0  0  0  0  0  0  0
   57.0250   27.6480   45.8230 C   0  0  0  0  0  0  0  0  0  0  0  0
   56.0550   28.2050   45.2450 O   0  0  0  0  0  0  0  0  0  0  0  0
   58.0440   28.4880   46.4980 C   0  0  0  0  0  0  0  0  0  0  0  0
   58.1520   29.8600   46.2090 C   0  0  0  0  0  0  0  0  0  0  0  0
   57.4682   30.3210   45.4810 H   0  0  0  0  0  0  0  0  0  0  0  0
   59.1240   30.6420   46.8420 C   0  0  0  0  0  0  0  0  0  0  0  0
   59.1977   31.7159   46.6157 H   0  0  0  0  0  0  0  0  0  0  0  0
   60.0030   30.0600   47.7630 C   0  0  0  0  0  0  0  0  0  0  0  0
   61.0000   30.8680   48.4150 C   0  0  0  0  0  0  0  0  0  0  0  0
   61.8360   31.5430   48.9620 C   0  0  0  0  0  0  0  0  0  0  0  0
   62.8310   32.3520   49.6160 C   0  0  0  0  0  0  0  0  0  0  0  0
   62.4520   33.5180   50.2920 C   0  0  0  0  0  0  0  0  0  0  0  0
   61.3928   33.8122   50.3304 H   0  0  0  0  0  0  0  0  0  0  0  0
   63.4200   34.3080   50.9180 C   0  0  0  0  0  0  0  0  0  0  0  0
   63.1220   35.2269   51.4442 H   0  0  0  0  0  0  0  0  0  0  0  0
   64.7670   33.9330   50.8770 C   0  0  0  0  0  0  0  0  0  0  0  0
   65.5262   34.5626   51.3641 H   0  0  0  0  0  0  0  0  0  0  0  0
   65.1530   32.7570   50.2170 C   0  0  0  0  0  0  0  0  0  0  0  0
   66.6020   32.3760   50.1360 C   0  0  0  0  0  0  0  0  0  0  0  0
   67.0102   32.2687   51.1518 H   0  0  0  0  0  0  0  0  0  0  0  0
   66.7006   31.4214   49.5984 H   0  0  0  0  0  0  0  0  0  0  0  0
   67.1574   33.1586   49.5984 H   0  0  0  0  0  0  0  0  0  0  0  0
   64.1800   31.9750   49.5720 C   0  0  0  0  0  0  0  0  0  0  0  0
   64.4779   31.0646   49.0312 H   0  0  0  0  0  0  0  0  0  0  0  0
   59.9130   28.6930   48.0440 C   0  0  0  0  0  0  0  0  0  0  0  0
   60.6067   28.2337   48.7636 H   0  0  0  0  0  0  0  0  0  0  0  0
   58.9430   27.9090   47.4120 C   0  0  0  0  0  0  0  0  0  0  0  0
   58.8825   26.8327   47.6309 H   0  0  0  0  0  0  0  0  0  0  0  0
   56.3960   24.3500   44.6240 C   0  0  0  0  0  0  0  0  0  0  0  0
   57.4183   24.2101   44.2427 H   0  0  0  0  0  0  0  0  0  0  0  0
   55.3790   23.4710   44.2390 C   0  0  0  0  0  0  0  0  0  0  0  0
   55.6970   22.4250   43.3590 O   0  0  0  0  0  0  0  0  0  0  0  0
   56.9650   21.7800   43.3040 C   0  0  0  0  0  0  0  0  0  0  0  0
   57.3273   21.5957   44.3262 H   0  0  0  0  0  0  0  0  0  0  0  0
   56.8665   20.8224   42.7717 H   0  0  0  0  0  0  0  0  0  0  0  0
   57.6809   22.4235   42.7717 H   0  0  0  0  0  0  0  0  0  0  0  0
   54.0810   23.6630   44.7440 C   0  0  0  0  0  0  0  0  0  0  0  0
   53.2656   22.9849   44.4520 H   0  0  0  0  0  0  0  0  0  0  0  0
  1  2  1  0
  2  3  1  0
  3  4  1  0
  4  5  2  0
  5  6  1  0
  6  7  2  0
  6  8  1  0
  8  9  2  0
  9 10  1  0
  9 11  1  0
 11 12  1  0
 11 13  2  0
 13 14  1  0
 14 15  3  0
 15 16  1  0
 16 17  2  0
 17 18  1  0
 17 19  1  0
 19 20  1  0
 19 21  2  0
 21 22  1  0
 21 23  1  0
 23 24  1  0
 24 25  1  0
 24 26  1  0
 24 27  1  0
 23 28  2  0
 28 29  1  0
 13 30  1  0
 30 31  1  0
 30 32  2  0
 32 33  1  0
  4 34  1  0
 34 35  1  0
 34 36  2  0
 36 37  1  0
 37 38  1  0
 38 39  1  0
 38 40  1  0
 38 41  1  0
 36 42  1  0
 42 43  1  0
 42  2  2  0
 32  8  1  0
 28 16  1  0
M  CHG  1   3  -1
M  END
>  <UniqueID>  (8) 
6

>  <SMILES>  (8) 
COc1cc[n-]/c(=N\C(=O)c2ccc(C#Cc3cccc(C)c3)cc2)c1

>  <Energy>  (8) 
48.97046794531352

>  <Genealogy>  (8) 
COc1cc[n-]c(=NC(=O)c2ccc(C#Cc3cccc(C)c3)cc2)c1 (protonated)
COc1cc[n-]/c(=N\C(=O)c2ccc(C#Cc3cccc(C)c3)cc2)c1 (cis-trans isomerization)
COc1cc[n-]/c(=N\C(=O)c2ccc(C#Cc3cccc(C)c3)cc2)c1 (3D coordinates assigned)
COc1cc[n-]/c(=N\C(=O)c2ccc(C#Cc3cccc(C)c3)cc2)c1 (optimized conformer: 48.97046794531352 kcal/mol)

>  <smiles>  (8) 
COc1cc[nH]c(=NC(=O)c2ccc(C#Cc3cccc(C)c3)cc2)c1

>  <score_type>  (8) 
oracle

>  <origin>  (8) 
adg

>  <m_score__min__energy>  (8) 
-9

>  <m_primary>  (8) 
energy

$$$$
8:0
     RDKit          3D

 48 51  0  0  0  0  0  0  0  0999 V2000
   55.1470   27.0780   45.3270 H   0  0  0  0  0  0  0  0  0  0  0  0
   55.1040   26.2760   45.9930 N   0  0  0  0  0  0  0  0  0  0  0  0
   56.7340   25.8020   46.3150 S   0  0  0  0  0  0  0  0  0  0  0  0
   56.7520   24.7810   47.4190 O   0  0  0  0  0  0  0  0  0  0  0  0
   57.3280   25.1860   45.0800 O   0  0  0  0  0  0  0  0  0  0  0  0
   57.6740   27.2110   46.7910 C   0  0  0  0  0  0  0  0  0  0  0  0
   58.6860   27.0900   47.7530 C   0  0  0  0  0  0  0  0  0  0  0  0
   58.8986   26.1096   48.2043 H   0  0  0  0  0  0  0  0  0  0  0  0
   59.4260   28.2100   48.1410 C   0  0  0  0  0  0  0  0  0  0  0  0
   60.2219   28.1068   48.8932 H   0  0  0  0  0  0  0  0  0  0  0  0
   59.1580   29.4660   47.5750 C   0  0  0  0  0  0  0  0  0  0  0  0
   59.9210   30.6230   47.9740 N   0  0  0  0  0  0  0  0  0  0  0  0
   59.4180   31.4540   48.9380 C   0  0  0  0  0  0  0  0  0  0  0  0
   58.1600   31.1910   49.4810 O   0  0  0  0  0  0  0  0  0  0  0  0
   60.1370   32.5900   49.3630 C   0  0  0  0  0  0  0  0  0  0  0  0
   59.5470   33.4930   50.3850 C   0  0  0  0  0  0  0  0  0  0  0  0
   59.2667   34.5204   50.1094 H   0  0  0  0  0  0  0  0  0  0  0  0
   59.3600   33.0780   51.6010 N   0  0  0  0  0  0  0  0  0  0  0  0
   58.4530   32.0460   52.0250 C   0  0  0  0  0  0  0  0  0  0  0  0
   57.0860   32.3470   52.0790 C   0  0  0  0  0  0  0  0  0  0  0  0
   56.7381   33.3504   51.7922 H   0  0  0  0  0  0  0  0  0  0  0  0
   56.1600   31.3870   52.4930 C   0  0  0  0  0  0  0  0  0  0  0  0
   55.0902   31.6397   52.5330 H   0  0  0  0  0  0  0  0  0  0  0  0
   56.5880   30.1020   52.8580 C   0  0  0  0  0  0  0  0  0  0  0  0
   55.5990   29.0840   53.3420 C   0  0  0  0  0  0  0  0  0  0  0  0
   55.5904   29.0752   54.4419 H   0  0  0  0  0  0  0  0  0  0  0  0
   54.5964   29.3409   52.9696 H   0  0  0  0  0  0  0  0  0  0  0  0
   55.8847   28.0892   52.9696 H   0  0  0  0  0  0  0  0  0  0  0  0
   57.9580   29.8040   52.8400 C   0  0  0  0  0  0  0  0  0  0  0  0
   58.3050   28.8083   53.1534 H   0  0  0  0  0  0  0  0  0  0  0  0
   58.8860   30.7650   52.4260 C   0  0  0  0  0  0  0  0  0  0  0  0
   59.9584   30.5206   52.4131 H   0  0  0  0  0  0  0  0  0  0  0  0
   61.3920   32.8660   48.7680 C   0  0  0  0  0  0  0  0  0  0  0  0
   62.1910   33.9630   49.1690 C   0  0  0  0  0  0  0  0  0  0  0  0
   61.8371   34.6285   49.9701 H   0  0  0  0  0  0  0  0  0  0  0  0
   63.4220   34.2110   48.5610 C   0  0  0  0  0  0  0  0  0  0  0  0
   64.0270   35.0727   48.8796 H   0  0  0  0  0  0  0  0  0  0  0  0
   63.8870   33.3720   47.5530 C   0  0  0  0  0  0  0  0  0  0  0  0
   64.8538   33.5773   47.0702 H   0  0  0  0  0  0  0  0  0  0  0  0
   63.1300   32.2720   47.1540 C   0  0  0  0  0  0  0  0  0  0  0  0
   63.5070   31.6090   46.3613 H   0  0  0  0  0  0  0  0  0  0  0  0
   61.8850   32.0020   47.7580 C   0  0  0  0  0  0  0  0  0  0  0  0
   61.1280   30.8790   47.3800 C   0  0  0  0  0  0  0  0  0  0  0  0
   61.5730   30.0920   46.4950 O   0  0  0  0  0  0  0  0  0  0  0  0
   58.1390   29.5870   46.6180 C   0  0  0  0  0  0  0  0  0  0  0  0
   57.9214   30.5682   46.1710 H   0  0  0  0  0  0  0  0  0  0  0  0
   57.3990   28.4660   46.2300 C   0  0  0  0  0  0  0  0  0  0  0  0
   56.5987   28.5691   45.4824 H   0  0  0  0  0  0  0  0  0  0  0  0
  1  2  1  0
  2  3  1  0
  3  4  2  0
  3  5  2  0
  3  6  1  0
  6  7  2  0
  7  8  1  0
  7  9  1  0
  9 10  1  0
  9 11  2  0
 11 12  1  0
 12 13  1  0
 13 14  1  0
 13 15  2  0
 15 16  1  0
 16 17  1  0
 16 18  2  0
 18 19  1  0
 19 20  2  0
 20 21  1  0
 20 22  1  0
 22 23  1  0
 22 24  2  0
 24 25  1  0
 25 26  1  0
 25 27  1  0
 25 28  1  0
 24 29  1  0
 29 30  1  0
 29 31  2  0
 31 32  1  0
 15 33  1  0
 33 34  2  0
 34 35  1  0
 34 36  1  0
 36 37  1  0
 36 38  2  0
 38 39  1  0
 38 40  1  0
 40 41  1  0
 40 42  2  0
 42 43  1  0
 43 44  2  0
 11 45  1  0
 45 46  1  0
 45 47  2  0
 47 48  1  0
 47  6  1  0
 43 12  1  0
 31 19  1  0
 42 33  1  0
M  CHG  2   2  -1  14  -1
M  END
>  <UniqueID>  (9) 
7

>  <SMILES>  (9) 
Cc1ccc(/N=C/c2c([O-])n(-c3ccc(S([NH-])(=O)=O)cc3)c(=O)c3ccccc23)cc1

>  <Energy>  (9) 
76.08751945815433

>  <Genealogy>  (9) 
Cc1ccc(N=Cc2c([O-])n(-c3ccc(S([NH-])(=O)=O)cc3)c(=O)c3ccccc23)cc1 (protonated)
Cc1ccc(/N=C/c2c([O-])n(-c3ccc(S([NH-])(=O)=O)cc3)c(=O)c3ccccc23)cc1 (cis-trans isomerization)
Cc1ccc(/N=C/c2c([O-])n(-c3ccc(S([NH-])(=O)=O)cc3)c(=O)c3ccccc23)cc1 (3D coordinates assigned)
Cc1ccc(/N=C/c2c([O-])n(-c3ccc(S([NH-])(=O)=O)cc3)c(=O)c3ccccc23)cc1 (optimized conformer: 76.08751945815433 kcal/mol)

>  <smiles>  (9) 
Cc1ccc(N=Cc2c(O)n(-c3ccc(S(N)(=O)=O)cc3)c(=O)c3ccccc23)cc1

>  <score_type>  (9) 
oracle

>  <origin>  (9) 
adg

>  <m_score__min__energy>  (9) 
-12.300000000000001

>  <m_primary>  (9) 
energy

$$$$
9:0
     RDKit          3D

 52 54  0  0  0  0  0  0  0  0999 V2000
   55.4880   26.7590   45.8990 N   0  0  0  0  0  0  0  0  0  0  0  0
   57.1290   27.2860   46.0510 S   0  0  0  0  0  0  0  0  0  0  0  0
   57.4340   27.5020   47.5070 O   0  0  0  0  0  0  0  0  0  0  0  0
   58.0320   26.2170   45.4990 O   0  0  0  0  0  0  0  0  0  0  0  0
   57.3850   28.7990   45.1660 C   0  0  0  0  0  0  0  0  0  0  0  0
   56.7070   29.0090   43.9550 C   0  0  0  0  0  0  0  0  0  0  0  0
   56.8700   30.2040   43.2490 C   0  0  0  0  0  0  0  0  0  0  0  0
   57.7110   31.2020   43.7450 C   0  0  0  0  0  0  0  0  0  0  0  0
   58.3920   31.0080   44.9470 C   0  0  0  0  0  0  0  0  0  0  0  0
   58.2420   29.8110   45.6630 C   0  0  0  0  0  0  0  0  0  0  0  0
   58.9670   29.6560   46.9390 C   0  0  0  0  0  0  0  0  0  0  0  0
   58.5130   30.3440   48.0720 C   0  0  0  0  0  0  0  0  0  0  0  0
   59.1850   30.2160   49.2900 C   0  0  0  0  0  0  0  0  0  0  0  0
   60.3100   29.3890   49.3980 C   0  0  0  0  0  0  0  0  0  0  0  0
   60.9830   29.3100   50.6610 N   0  0  0  0  0  0  0  0  0  0  0  0
   62.3060   29.7890   50.9460 C   0  0  0  0  0  0  0  0  0  0  0  0
   63.2540   28.9840   51.1600 O   0  0  0  0  0  0  0  0  0  0  0  0
   62.5480   31.2610   51.0400 C   0  0  0  0  0  0  0  0  0  0  0  0
   61.7890   31.9880   49.9620 C   0  0  0  0  0  0  0  0  0  0  0  0
   60.7100   32.8240   50.2930 C   0  0  0  0  0  0  0  0  0  0  0  0
   60.0170   33.5100   49.2910 C   0  0  0  0  0  0  0  0  0  0  0  0
   60.4010   33.3760   47.9480 C   0  0  0  0  0  0  0  0  0  0  0  0
   59.5150   34.2050   46.6720 S   0  0  0  0  0  0  0  0  0  0  0  0
   59.5370   35.6920   46.9030 O   0  0  0  0  0  0  0  0  0  0  0  0
   60.1730   33.9170   45.3520 O   0  0  0  0  0  0  0  0  0  0  0  0
   57.8190   33.6350   46.6240 C   0  0  0  0  0  0  0  0  0  0  0  0
   57.0450   34.2540   45.4610 C   0  0  0  0  0  0  0  0  0  0  0  0
   57.9340   34.7690   44.5100 O   0  0  0  0  0  0  0  0  0  0  0  0
   61.4850   32.5520   47.6180 C   0  0  0  0  0  0  0  0  0  0  0  0
   62.1770   31.8630   48.6180 C   0  0  0  0  0  0  0  0  0  0  0  0
   60.7870   28.7240   48.2550 C   0  0  0  0  0  0  0  0  0  0  0  0
   60.1210   28.8540   47.0300 C   0  0  0  0  0  0  0  0  0  0  0  0
   60.7630   28.0150   45.6220 Cl  0  0  0  0  0  0  0  0  0  0  0  0
   54.9870   27.0560   46.7670 H   0  0  0  0  0  0  0  0  0  0  0  0
   56.0424   28.2271   43.5587 H   0  0  0  0  0  0  0  0  0  0  0  0
   56.3346   30.3586   42.3006 H   0  0  0  0  0  0  0  0  0  0  0  0
   57.8367   32.1419   43.1876 H   0  0  0  0  0  0  0  0  0  0  0  0
   59.0507   31.7986   45.3358 H   0  0  0  0  0  0  0  0  0  0  0  0
   57.6237   30.9876   48.0021 H   0  0  0  0  0  0  0  0  0  0  0  0
   58.8277   30.7691   50.1711 H   0  0  0  0  0  0  0  0  0  0  0  0
   62.2138   31.6210   52.0242 H   0  0  0  0  0  0  0  0  0  0  0  0
   63.6232   31.4546   50.9116 H   0  0  0  0  0  0  0  0  0  0  0  0
   60.4090   32.9395   51.3447 H   0  0  0  0  0  0  0  0  0  0  0  0
   59.1679   34.1570   49.5564 H   0  0  0  0  0  0  0  0  0  0  0  0
   57.8142   32.5407   46.5126 H   0  0  0  0  0  0  0  0  0  0  0  0
   57.3294   33.9392   47.5609 H   0  0  0  0  0  0  0  0  0  0  0  0
   56.4165   33.4831   44.9913 H   0  0  0  0  0  0  0  0  0  0  0  0
   56.4143   35.0704   45.8428 H   0  0  0  0  0  0  0  0  0  0  0  0
   58.5750   35.3360   45.0120 H   0  0  0  0  0  0  0  0  0  0  0  0
   61.7928   32.4468   46.5672 H   0  0  0  0  0  0  0  0  0  0  0  0
   63.0289   31.2203   48.3513 H   0  0  0  0  0  0  0  0  0  0  0  0
   61.6888   28.0978   48.3233 H   0  0  0  0  0  0  0  0  0  0  0  0
  1  2  1  0
  2  3  2  0
  2  4  2  0
  2  5  1  0
  5  6  2  0
  6  7  1  0
  7  8  2  0
  8  9  1  0
  9 10  2  0
 10 11  1  0
 11 12  2  0
 12 13  1  0
 13 14  2  0
 14 15  1  0
 15 16  1  0
 16 17  2  0
 16 18  1  0
 18 19  1  0
 19 20  2  0
 20 21  1  0
 21 22  2  0
 22 23  1  0
 23 24  2  0
 23 25  2  0
 23 26  1  0
 26 27  1  0
 27 28  1  0
 22 29  1  0
 29 30  2  0
 14 31  1  0
 31 32  2  0
 32 33  1  0
 10  5  1  0
 32 11  1  0
 30 19  1  0
  1 34  1  0
  6 35  1  0
  7 36  1  0
  8 37  1  0
  9 38  1  0
 12 39  1  0
 13 40  1  0
 18 41  1  0
 18 42  1  0
 20 43  1  0
 21 44  1  0
 26 45  1  0
 26 46  1  0
 27 47  1  0
 27 48  1  0
 28 49  1  0
 29 50  1  0
 30 51  1  0
 31 52  1  0
M  CHG  2   1  -1  15  -1
M  END
>  <UniqueID>  (10) 
8

>  <SMILES>  (10) 
[NH-]S(=O)(=O)c1ccccc1-c1ccc([N-]C(=O)Cc2ccc(S(=O)(=O)CCO)cc2)cc1Cl

>  <Energy>  (10) 
59.993319873206666

>  <Genealogy>  (10) 
[NH-]S(=O)(=O)c1ccccc1-c1ccc([N-]C(=O)Cc2ccc(S(=O)(=O)CCO)cc2)cc1Cl (protonated)
[NH-]S(=O)(=O)c1ccccc1-c1ccc([N-]C(=O)Cc2ccc(S(=O)(=O)CCO)cc2)cc1Cl (3D coordinates assigned)
[NH-]S(=O)(=O)c1ccccc1-c1ccc([N-]C(=O)Cc2ccc(S(=O)(=O)CCO)cc2)cc1Cl (optimized conformer: 59.993319873206666 kcal/mol)

>  <smiles>  (10) 
NS(=O)(=O)c1ccccc1-c1ccc(NC(=O)Cc2ccc(S(=O)(=O)CCO)cc2)cc1Cl

>  <score_type>  (10) 
oracle

>  <origin>  (10) 
adg

>  <m_score__min__energy>  (10) 
-12.970000000000001

>  <m_primary>  (10) 
energy

$$$$
10:0
     RDKit          3D

 63 67  0  0  0  0  0  0  0  0999 V2000
   52.2710   22.6210   45.2870 N   0  0  0  0  0  0  0  0  0  0  0  0
   53.1930   22.0840   46.0190 C   0  0  0  0  0  0  0  0  0  0  0  0
   52.9670   21.8720   47.3830 C   0  0  0  0  0  0  0  0  0  0  0  0
   53.9680   21.2940   48.1640 C   0  0  0  0  0  0  0  0  0  0  0  0
   55.1910   20.9340   47.5790 C   0  0  0  0  0  0  0  0  0  0  0  0
   56.2170   20.3650   48.3440 C   0  0  0  0  0  0  0  0  0  0  0  0
   57.4330   20.0330   47.7410 C   0  0  0  0  0  0  0  0  0  0  0  0
   57.6350   20.2680   46.3800 C   0  0  0  0  0  0  0  0  0  0  0  0
   56.6160   20.8300   45.5950 C   0  0  0  0  0  0  0  0  0  0  0  0
   56.8980   21.1750   43.8830 S   0  0  0  0  0  0  0  0  0  0  0  0
   56.2530   20.0920   43.0680 O   0  0  0  0  0  0  0  0  0  0  0  0
   58.3700   21.1950   43.5870 O   0  0  0  0  0  0  0  0  0  0  0  0
   56.1960   22.6920   43.4140 N   0  0  0  0  0  0  0  0  0  0  0  0
   56.4920   23.9700   43.9910 C   0  0  0  0  0  0  0  0  0  0  0  0
   57.3950   24.8700   43.3990 C   0  0  0  0  0  0  0  0  0  0  0  0
   57.6700   26.0980   44.0100 C   0  0  0  0  0  0  0  0  0  0  0  0
   57.0610   26.4340   45.2270 C   0  0  0  0  0  0  0  0  0  0  0  0
   57.4030   27.6980   45.9100 C   0  0  0  0  0  0  0  0  0  0  0  0
   57.5200   27.7060   47.1660 O   0  0  0  0  0  0  0  0  0  0  0  0
   57.6200   28.9090   45.1700 N   0  0  0  0  0  0  0  0  0  0  0  0
   58.5920   29.8930   45.6680 C   0  0  0  0  0  0  0  0  0  0  0  0
   58.8770   30.9710   44.6120 C   0  0  0  0  0  0  0  0  0  0  0  0
   57.5850   31.6770   44.0770 C   0  0  0  0  0  0  0  0  0  0  0  0
   57.7770   31.9700   42.7090 O   0  0  0  0  0  0  0  0  0  0  0  0
   57.2990   33.0260   44.8170 C   0  0  0  0  0  0  0  0  0  0  0  0
   58.3390   33.4430   45.8390 C   0  0  0  0  0  0  0  0  0  0  0  0
   59.4440   34.2270   45.4620 C   0  0  0  0  0  0  0  0  0  0  0  0
   60.3820   34.6340   46.4170 C   0  0  0  0  0  0  0  0  0  0  0  0
   60.2370   34.2430   47.7510 C   0  0  0  0  0  0  0  0  0  0  0  0
   59.1660   33.4290   48.1280 C   0  0  0  0  0  0  0  0  0  0  0  0
   58.2280   33.0220   47.1770 C   0  0  0  0  0  0  0  0  0  0  0  0
   56.3460   30.7350   44.1570 C   0  0  0  0  0  0  0  0  0  0  0  0
   56.7370   29.2600   44.0480 C   0  0  0  0  0  0  0  0  0  0  0  0
   56.1690   25.5290   45.8240 C   0  0  0  0  0  0  0  0  0  0  0  0
   55.8810   24.3110   45.2040 C   0  0  0  0  0  0  0  0  0  0  0  0
   55.3860   21.1660   46.1970 C   0  0  0  0  0  0  0  0  0  0  0  0
   54.3850   21.7290   45.4640 N   0  0  0  0  0  0  0  0  0  0  0  0
   52.1080   23.6530   45.2870 H   0  0  0  0  0  0  0  0  0  0  0  0
   52.0068   22.1590   47.8366 H   0  0  0  0  0  0  0  0  0  0  0  0
   53.7985   21.1208   49.2370 H   0  0  0  0  0  0  0  0  0  0  0  0
   56.0658   20.1798   49.4177 H   0  0  0  0  0  0  0  0  0  0  0  0
   58.2365   19.5834   48.3429 H   0  0  0  0  0  0  0  0  0  0  0  0
   58.6001   20.0108   45.9191 H   0  0  0  0  0  0  0  0  0  0  0  0
   57.8876   24.6075   42.4511 H   0  0  0  0  0  0  0  0  0  0  0  0
   58.3671   26.8029   43.5334 H   0  0  0  0  0  0  0  0  0  0  0  0
   58.1870   30.3729   46.5712 H   0  0  0  0  0  0  0  0  0  0  0  0
   59.5325   29.3705   45.8969 H   0  0  0  0  0  0  0  0  0  0  0  0
   59.5305   31.7338   45.0604 H   0  0  0  0  0  0  0  0  0  0  0  0
   59.3500   30.4685   43.7554 H   0  0  0  0  0  0  0  0  0  0  0  0
   58.2280   31.1930   42.2830 H   0  0  0  0  0  0  0  0  0  0  0  0
   57.2309   33.8204   44.0592 H   0  0  0  0  0  0  0  0  0  0  0  0
   56.3673   32.8698   45.3805 H   0  0  0  0  0  0  0  0  0  0  0  0
   59.5716   34.5220   44.4100 H   0  0  0  0  0  0  0  0  0  0  0  0
   61.2341   35.2621   46.1178 H   0  0  0  0  0  0  0  0  0  0  0  0
   60.9662   34.5762   48.5041 H   0  0  0  0  0  0  0  0  0  0  0  0
   59.0615   33.1084   49.1750 H   0  0  0  0  0  0  0  0  0  0  0  0
   57.3961   32.3674   47.4761 H   0  0  0  0  0  0  0  0  0  0  0  0
   55.8385   30.8973   45.1193 H   0  0  0  0  0  0  0  0  0  0  0  0
   55.6838   30.9734   43.3116 H   0  0  0  0  0  0  0  0  0  0  0  0
   55.8318   28.6360   44.0832 H   0  0  0  0  0  0  0  0  0  0  0  0
   57.2617   29.0864   43.0969 H   0  0  0  0  0  0  0  0  0  0  0  0
   55.6949   25.7803   46.7842 H   0  0  0  0  0  0  0  0  0  0  0  0
   55.1693   23.6148   45.6718 H   0  0  0  0  0  0  0  0  0  0  0  0
  1  2  2  3
  2  3  1  0
  3  4  2  0
  4  5  1  0
  5  6  2  0
  6  7  1  0
  7  8  2  0
  8  9  1  0
  9 10  1  0
 10 11  2  0
 10 12  2  0
 10 13  1  0
 13 14  1  0
 14 15  2  0
 15 16  1  0
 16 17  2  0
 17 18  1  0
 18 19  2  0
 18 20  1  0
 20 21  1  0
 21 22  1  0
 22 23  1  0
 23 24  1  0
 23 25  1  0
 25 26  1  0
 26 27  2  0
 27 28  1  0
 28 29  2  0
 29 30  1  0
 30 31  2  0
 23 32  1  0
 32 33  1  0
 17 34  1  0
 34 35  2  0
  9 36  2  0
 36 37  1  0
 37  2  1  0
 36  5  1  0
 35 14  1  0
 33 20  1  0
 31 26  1  0
  1 38  1  0
  3 39  1  0
  4 40  1  0
  6 41  1  0
  7 42  1  0
  8 43  1  0
 15 44  1  0
 16 45  1  0
 21 46  1  0
 21 47  1  0
 22 48  1  0
 22 49  1  0
 24 50  1  0
 25 51  1  0
 25 52  1  0
 27 53  1  0
 28 54  1  0
 29 55  1  0
 30 56  1  0
 31 57  1  0
 32 58  1  0
 32 59  1  0
 33 60  1  0
 33 61  1  0
 34 62  1  0
 35 63  1  0
M  CHG  2  13  -1  37  -1
M  END
>  <UniqueID>  (11) 
9

>  <SMILES>  (11) 
N=c1ccc2cccc(S(=O)(=O)[N-]c3ccc(C(=O)N4CCC(O)(Cc5ccccc5)CC4)cc3)c2[n-]1

>  <Energy>  (11) 
87.09175321812492

>  <Genealogy>  (11) 
N=c1ccc2cccc(S(=O)(=O)[N-]c3ccc(C(=O)N4CCC(O)(Cc5ccccc5)CC4)cc3)c2[n-]1 (protonated)
N=c1ccc2cccc(S(=O)(=O)[N-]c3ccc(C(=O)N4CCC(O)(Cc5ccccc5)CC4)cc3)c2[n-]1 (3D coordinates assigned)
N=c1ccc2cccc(S(=O)(=O)[N-]c3ccc(C(=O)N4CCC(O)(Cc5ccccc5)CC4)cc3)c2[n-]1 (nonaromatic ring conformer: 87.09175321812492 kcal/mol)

>  <smiles>  (11) 
N=c1ccc2cccc(S(=O)(=O)Nc3ccc(C(=O)N4CCC(O)(Cc5ccccc5)CC4)cc3)c2[nH]1

>  <score_type>  (11) 
oracle

>  <origin>  (11) 
adg

>  <m_score__min__energy>  (11) 
-15.119999999999999

>  <m_primary>  (11) 
energy

$$$$
11:0
     RDKit          3D

 41 43  0  0  0  0  0  0  0  0999 V2000
   56.4240   21.8430   43.6490 C   0  0  0  0  0  0  0  0  0  0  0  0
   57.3850   22.6950   44.4370 C   0  0  0  0  0  0  0  0  0  0  0  0
   58.7250   22.2850   44.5360 C   0  0  0  0  0  0  0  0  0  0  0  0
   59.6500   23.0490   45.2450 C   0  0  0  0  0  0  0  0  0  0  0  0
   59.2490   24.2220   45.8780 C   0  0  0  0  0  0  0  0  0  0  0  0
   57.9180   24.6480   45.8110 C   0  0  0  0  0  0  0  0  0  0  0  0
   57.5570   25.8510   46.5070 N   0  0  0  0  0  0  0  0  0  0  0  0
   57.5850   27.0400   45.9840 C   0  0  0  0  0  0  0  0  0  0  0  0
   56.4220   27.6220   45.5930 N   0  0  0  0  0  0  0  0  0  0  0  0
   56.3960   28.8610   45.0330 C   0  0  0  0  0  0  0  0  0  0  0  0
   55.1370   29.3990   44.6140 N   0  0  0  0  0  0  0  0  0  0  0  0
   57.6040   29.5650   44.8480 C   0  0  0  0  0  0  0  0  0  0  0  0
   57.6280   30.9320   44.2780 C   0  0  0  0  0  0  0  0  0  0  0  0
   57.2490   31.0940   43.0850 O   0  0  0  0  0  0  0  0  0  0  0  0
   58.0690   32.1060   45.0730 C   0  0  0  0  0  0  0  0  0  0  0  0
   58.3650   33.3360   44.4520 C   0  0  0  0  0  0  0  0  0  0  0  0
   58.7720   34.4350   45.2150 C   0  0  0  0  0  0  0  0  0  0  0  0
   58.8840   34.3230   46.6020 C   0  0  0  0  0  0  0  0  0  0  0  0
   58.5860   33.1130   47.2310 C   0  0  0  0  0  0  0  0  0  0  0  0
   58.1780   32.0110   46.4740 C   0  0  0  0  0  0  0  0  0  0  0  0
   58.7970   28.9420   45.2580 C   0  0  0  0  0  0  0  0  0  0  0  0
   59.9060   29.5270   45.1340 O   0  0  0  0  0  0  0  0  0  0  0  0
   58.7600   27.7020   45.8070 N   0  0  0  0  0  0  0  0  0  0  0  0
   56.9790   23.9150   45.0380 C   0  0  0  0  0  0  0  0  0  0  0  0
   55.5620   24.4150   44.8730 C   0  0  0  0  0  0  0  0  0  0  0  0
   55.7843   21.2759   44.3412 H   0  0  0  0  0  0  0  0  0  0  0  0
   55.7972   22.4876   43.0153 H   0  0  0  0  0  0  0  0  0  0  0  0
   56.9889   21.1435   43.0153 H   0  0  0  0  0  0  0  0  0  0  0  0
   59.0470   21.3525   44.0495 H   0  0  0  0  0  0  0  0  0  0  0  0
   60.6993   22.7244   45.3045 H   0  0  0  0  0  0  0  0  0  0  0  0
   59.9851   24.8194   46.4359 H   0  0  0  0  0  0  0  0  0  0  0  0
   54.5640   28.8860   43.9080 H   0  0  0  0  0  0  0  0  0  0  0  0
   54.7860   30.3220   44.9500 H   0  0  0  0  0  0  0  0  0  0  0  0
   58.2753   33.4322   43.3599 H   0  0  0  0  0  0  0  0  0  0  0  0
   59.0044   35.3900   44.7211 H   0  0  0  0  0  0  0  0  0  0  0  0
   59.2071   35.1884   47.1993 H   0  0  0  0  0  0  0  0  0  0  0  0
   58.6724   33.0266   48.3242 H   0  0  0  0  0  0  0  0  0  0  0  0
   57.9401   31.0619   46.9766 H   0  0  0  0  0  0  0  0  0  0  0  0
   55.1116   24.5739   45.8639 H   0  0  0  0  0  0  0  0  0  0  0  0
   55.5705   25.3644   44.3175 H   0  0  0  0  0  0  0  0  0  0  0  0
   54.9728   23.6705   44.3175 H   0  0  0  0  0  0  0  0  0  0  0  0
  1  2  1  0
  2  3  2  0
  3  4  1  0
  4  5  2  0
  5  6  1  0
  6  7  1  0
  7  8  2  3
  8  9  1  0
  9 10  1  0
 10 11  1  0
 10 12  2  0
 12 13  1  0
 13 14  2  0
 13 15  1  0
 15 16  2  0
 16 17  1  0
 17 18  2  0
 18 19  1  0
 19 20  2  0
 12 21  1  0
 21 22  2  0
 21 23  1  0
  6 24  2  0
 24 25  1  0
 24  2  1  0
 23  8  1  0
 20 15  1  0
  1 26  1  0
  1 27  1  0
  1 28  1  0
  3 29  1  0
  4 30  1  0
  5 31  1  0
 11 32  1  0
 11 33  1  0
 16 34  1  0
 17 35  1  0
 18 36  1  0
 19 37  1  0
 20 38  1  0
 25 39  1  0
 25 40  1  0
 25 41  1  0
M  CHG  2   9  -1  23  -1
M  END
>  <UniqueID>  (12) 
10

>  <SMILES>  (12) 
Cc1cccc(N=c2[n-]c(N)c(C(=O)c3ccccc3)c(=O)[n-]2)c1C

>  <Energy>  (12) 
63.48273775094213

>  <Genealogy>  (12) 
Cc1cccc(N=c2[n-]c(N)c(C(=O)c3ccccc3)c(=O)[n-]2)c1C (protonated)
Cc1cccc(N=c2[n-]c(N)c(C(=O)c3ccccc3)c(=O)[n-]2)c1C (3D coordinates assigned)
Cc1cccc(N=c2[n-]c(N)c(C(=O)c3ccccc3)c(=O)[n-]2)c1C (optimized conformer: 63.48273775094213 kcal/mol)

>  <smiles>  (12) 
Cc1cccc(N=c2[nH]c(N)c(C(=O)c3ccccc3)c(=O)[nH]2)c1C

>  <score_type>  (12) 
oracle

>  <origin>  (12) 
adg

>  <m_score__min__energy>  (12) 
-12.029999999999999

>  <m_primary>  (12) 
energy

$$$$
12:0
     RDKit          3D

 39 41  0  0  0  0  0  0  0  0999 V2000
   63.3350   32.5420   47.0680 O   0  0  0  0  0  0  0  0  0  0  0  0
   62.1440   32.1580   47.2100 C   0  0  0  0  0  0  0  0  0  0  0  0
   61.8960   30.7650   47.4520 N   0  0  0  0  0  0  0  0  0  0  0  0
   60.7810   30.0160   46.9490 C   0  0  0  0  0  0  0  0  0  0  0  0
   60.8610   29.3010   45.7420 C   0  0  0  0  0  0  0  0  0  0  0  0
   59.7440   28.6200   45.2530 C   0  0  0  0  0  0  0  0  0  0  0  0
   58.5390   28.6360   45.9680 C   0  0  0  0  0  0  0  0  0  0  0  0
   57.0980   27.8640   45.3070 S   0  0  0  0  0  0  0  0  0  0  0  0
   57.4030   27.3120   43.9420 O   0  0  0  0  0  0  0  0  0  0  0  0
   56.7130   26.7200   46.2010 O   0  0  0  0  0  0  0  0  0  0  0  0
   55.7460   28.9590   45.1770 N   0  0  0  0  0  0  0  0  0  0  0  0
   55.7830   29.7570   43.9490 C   0  0  0  0  0  0  0  0  0  0  0  0
   56.6550   30.9680   44.0930 C   0  0  0  0  0  0  0  0  0  0  0  0
   57.5040   31.4780   43.1320 C   0  0  0  0  0  0  0  0  0  0  0  0
   58.0820   32.5920   43.7030 C   0  0  0  0  0  0  0  0  0  0  0  0
   57.5440   32.6960   44.9700 C   0  0  0  0  0  0  0  0  0  0  0  0
   56.6940   31.7160   45.1710 O   0  0  0  0  0  0  0  0  0  0  0  0
   58.4730   29.3060   47.1970 C   0  0  0  0  0  0  0  0  0  0  0  0
   59.5920   29.9860   47.6870 C   0  0  0  0  0  0  0  0  0  0  0  0
   61.0480   33.1550   47.1670 C   0  0  0  0  0  0  0  0  0  0  0  0
   60.2850   33.4400   48.3150 C   0  0  0  0  0  0  0  0  0  0  0  0
   59.2440   34.3720   48.2600 C   0  0  0  0  0  0  0  0  0  0  0  0
   58.9630   35.0370   47.0650 C   0  0  0  0  0  0  0  0  0  0  0  0
   59.7260   34.7760   45.9240 C   0  0  0  0  0  0  0  0  0  0  0  0
   60.7670   33.8450   45.9740 C   0  0  0  0  0  0  0  0  0  0  0  0
   61.8065   29.2776   45.1804 H   0  0  0  0  0  0  0  0  0  0  0  0
   59.8104   28.0691   44.3032 H   0  0  0  0  0  0  0  0  0  0  0  0
   56.1736   29.1331   43.1315 H   0  0  0  0  0  0  0  0  0  0  0  0
   54.7596   30.0985   43.7344 H   0  0  0  0  0  0  0  0  0  0  0  0
   57.6822   31.0794   42.1224 H   0  0  0  0  0  0  0  0  0  0  0  0
   58.8223   33.2624   43.2420 H   0  0  0  0  0  0  0  0  0  0  0  0
   57.7902   33.4809   45.7003 H   0  0  0  0  0  0  0  0  0  0  0  0
   57.5387   29.2969   47.7775 H   0  0  0  0  0  0  0  0  0  0  0  0
   59.5377   30.5003   48.6579 H   0  0  0  0  0  0  0  0  0  0  0  0
   60.5091   32.9263   49.2615 H   0  0  0  0  0  0  0  0  0  0  0  0
   58.6459   34.5814   49.1591 H   0  0  0  0  0  0  0  0  0  0  0  0
   58.1408   35.7665   47.0218 H   0  0  0  0  0  0  0  0  0  0  0  0
   59.5069   35.3044   44.9844 H   0  0  0  0  0  0  0  0  0  0  0  0
   61.3703   33.6506   45.0749 H   0  0  0  0  0  0  0  0  0  0  0  0
  1  2  2  0
  2  3  1  0
  3  4  1  0
  4  5  2  0
  5  6  1  0
  6  7  2  0
  7  8  1  0
  8  9  2  0
  8 10  2  0
  8 11  1  0
 11 12  1  0
 12 13  1  0
 13 14  2  0
 14 15  1  0
 15 16  2  0
 16 17  1  0
  7 18  1  0
 18 19  2  0
  2 20  1  0
 20 21  2  0
 21 22  1  0
 22 23  2  0
 23 24  1  0
 24 25  2  0
 19  4  1  0
 25 20  1  0
 17 13  1  0
  5 26  1  0
  6 27  1  0
 12 28  1  0
 12 29  1  0
 14 30  1  0
 15 31  1  0
 16 32  1  0
 18 33  1  0
 19 34  1  0
 21 35  1  0
 22 36  1  0
 23 37  1  0
 24 38  1  0
 25 39  1  0
M  CHG  2   3  -1  11  -1
M  END
>  <UniqueID>  (13) 
11

>  <SMILES>  (13) 
O=C([N-]c1ccc(S(=O)(=O)[N-]Cc2ccco2)cc1)c1ccccc1

>  <Energy>  (13) 
71.55806591953316

>  <Genealogy>  (13) 
O=C([N-]c1ccc(S(=O)(=O)[N-]Cc2ccco2)cc1)c1ccccc1 (protonated)
O=C([N-]c1ccc(S(=O)(=O)[N-]Cc2ccco2)cc1)c1ccccc1 (3D coordinates assigned)
O=C([N-]c1ccc(S(=O)(=O)[N-]Cc2ccco2)cc1)c1ccccc1 (optimized conformer: 71.55806591953316 kcal/mol)

>  <smiles>  (13) 
O=C(Nc1ccc(S(=O)(=O)NCc2ccco2)cc1)c1ccccc1

>  <score_type>  (13) 
oracle

>  <origin>  (13) 
adg

>  <m_score__min__energy>  (13) 
-11.48

>  <m_primary>  (13) 
energy

$$$$
13:0
     RDKit          3D

 49 51  0  0  0  0  0  0  0  0999 V2000
   54.9720   24.4690   45.4440 C   0  0  0  0  0  0  0  0  0  0  0  0
   55.3470   25.4730   46.3650 O   0  0  0  0  0  0  0  0  0  0  0  0
   56.6480   25.2240   46.8630 C   0  0  0  0  0  0  0  0  0  0  0  0
   57.6210   26.2020   46.2630 C   0  0  0  0  0  0  0  0  0  0  0  0
   58.9390   26.2660   46.7440 C   0  0  0  0  0  0  0  0  0  0  0  0
   59.8350   27.2040   46.2200 C   0  0  0  0  0  0  0  0  0  0  0  0
   59.4210   28.0920   45.2250 C   0  0  0  0  0  0  0  0  0  0  0  0
   58.1030   28.0630   44.7520 C   0  0  0  0  0  0  0  0  0  0  0  0
   57.7230   29.0150   43.7450 N   0  0  0  0  0  0  0  0  0  0  0  0
   56.9240   30.5400   43.9930 S   0  0  0  0  0  0  0  0  0  0  0  0
   55.5310   30.3480   44.5290 O   0  0  0  0  0  0  0  0  0  0  0  0
   56.8130   31.2190   42.6550 O   0  0  0  0  0  0  0  0  0  0  0  0
   57.8710   31.5530   45.0910 C   0  0  0  0  0  0  0  0  0  0  0  0
   58.3720   31.0160   46.2820 C   0  0  0  0  0  0  0  0  0  0  0  0
   59.1290   31.8040   47.1530 C   0  0  0  0  0  0  0  0  0  0  0  0
   59.3910   33.1540   46.8550 C   0  0  0  0  0  0  0  0  0  0  0  0
   60.2050   34.0300   47.7470 C   0  0  0  0  0  0  0  0  0  0  0  0
   59.6110   34.9680   48.3450 O   0  0  0  0  0  0  0  0  0  0  0  0
   61.6290   33.8590   47.9730 N   0  0  0  0  0  0  0  0  0  0  0  0
   61.9470   32.7290   48.8710 C   0  0  0  0  0  0  0  0  0  0  0  0
   63.4720   32.6340   49.1180 C   0  0  0  0  0  0  0  0  0  0  0  0
   64.2400   33.3810   48.1870 O   0  0  0  0  0  0  0  0  0  0  0  0
   63.7620   33.1560   46.8780 C   0  0  0  0  0  0  0  0  0  0  0  0
   62.3840   33.8200   46.6970 C   0  0  0  0  0  0  0  0  0  0  0  0
   58.8970   33.6810   45.6490 C   0  0  0  0  0  0  0  0  0  0  0  0
   58.1410   32.8900   44.7780 C   0  0  0  0  0  0  0  0  0  0  0  0
   57.2110   27.1020   45.2650 C   0  0  0  0  0  0  0  0  0  0  0  0
   54.6382   23.5753   45.9916 H   0  0  0  0  0  0  0  0  0  0  0  0
   54.1516   24.8393   44.8117 H   0  0  0  0  0  0  0  0  0  0  0  0
   55.8343   24.2108   44.8117 H   0  0  0  0  0  0  0  0  0  0  0  0
   56.6472   25.3350   47.9574 H   0  0  0  0  0  0  0  0  0  0  0  0
   56.9496   24.2011   46.5935 H   0  0  0  0  0  0  0  0  0  0  0  0
   59.2679   25.5763   47.5353 H   0  0  0  0  0  0  0  0  0  0  0  0
   60.8691   27.2421   46.5931 H   0  0  0  0  0  0  0  0  0  0  0  0
   60.1346   28.8190   44.8100 H   0  0  0  0  0  0  0  0  0  0  0  0
   58.1683   29.9650   46.5347 H   0  0  0  0  0  0  0  0  0  0  0  0
   59.5240   31.3646   48.0808 H   0  0  0  0  0  0  0  0  0  0  0  0
   61.9510   34.7170   48.4840 H   0  0  0  0  0  0  0  0  0  0  0  0
   61.4347   32.8779   49.8330 H   0  0  0  0  0  0  0  0  0  0  0  0
   61.6084   31.7961   48.3965 H   0  0  0  0  0  0  0  0  0  0  0  0
   63.6859   33.0110   50.1290 H   0  0  0  0  0  0  0  0  0  0  0  0
   63.7555   31.5777   49.0004 H   0  0  0  0  0  0  0  0  0  0  0  0
   64.4703   33.5840   46.1533 H   0  0  0  0  0  0  0  0  0  0  0  0
   63.6649   32.0731   46.7111 H   0  0  0  0  0  0  0  0  0  0  0  0
   62.5275   34.8487   46.3347 H   0  0  0  0  0  0  0  0  0  0  0  0
   61.8071   33.2271   45.9720 H   0  0  0  0  0  0  0  0  0  0  0  0
   59.1077   34.7284   45.3872 H   0  0  0  0  0  0  0  0  0  0  0  0
   57.7565   33.3211   43.8419 H   0  0  0  0  0  0  0  0  0  0  0  0
   56.1816   27.0553   44.8801 H   0  0  0  0  0  0  0  0  0  0  0  0
  1  2  1  0
  2  3  1  0
  3  4  1  0
  4  5  2  0
  5  6  1  0
  6  7  2  0
  7  8  1  0
  8  9  1  0
  9 10  1  0
 10 11  2  0
 10 12  2  0
 10 13  1  0
 13 14  2  0
 14 15  1  0
 15 16  2  0
 16 17  1  0
 17 18  2  0
 17 19  1  0
 19 20  1  0
 20 21  1  0
 21 22  1  0
 22 23  1  0
 23 24  1  0
 16 25  1  0
 25 26  2  0
  8 27  2  0
 27  4  1  0
 26 13  1  0
 24 19  1  0
  1 28  1  0
  1 29  1  0
  1 30  1  0
  3 31  1  0
  3 32  1  0
  5 33  1  0
  6 34  1  0
  7 35  1  0
 14 36  1  0
 15 37  1  0
 19 38  1  0
 20 39  1  0
 20 40  1  0
 21 41  1  0
 21 42  1  0
 23 43  1  0
 23 44  1  0
 24 45  1  0
 24 46  1  0
 25 47  1  0
 26 48  1  0
 27 49  1  0
M  CHG  2   9  -1  19   1
M  END
>  <UniqueID>  (14) 
12

>  <SMILES>  (14) 
COCc1cccc([N-]S(=O)(=O)c2ccc(C(=O)[NH+]3CCOCC3)cc2)c1

>  <Energy>  (14) 
75.8543307538589

>  <Genealogy>  (14) 
COCc1cccc([N-]S(=O)(=O)c2ccc(C(=O)[NH+]3CCOCC3)cc2)c1 (protonated)
COCc1cccc([N-]S(=O)(=O)c2ccc(C(=O)[NH+]3CCOCC3)cc2)c1 (3D coordinates assigned)
COCc1cccc([N-]S(=O)(=O)c2ccc(C(=O)[NH+]3CCOCC3)cc2)c1 (nonaromatic ring conformer: 75.8543307538589 kcal/mol)

>  <smiles>  (14) 
COCc1cccc(NS(=O)(=O)c2ccc(C(=O)N3CCOCC3)cc2)c1

>  <score_type>  (14) 
oracle

>  <origin>  (14) 
adg

>  <m_score__min__energy>  (14) 
-8.75

>  <m_primary>  (14) 
energy

$$$$
14:0
     RDKit          3D

 35 37  0  0  0  0  0  0  0  0999 V2000
   64.8410   35.3230   52.3690 C   0  0  0  0  0  0  0  0  0  0  0  0
   65.0280   34.3980   51.3020 O   0  0  0  0  0  0  0  0  0  0  0  0
   63.9830   33.7870   50.5920 C   0  0  0  0  0  0  0  0  0  0  0  0
   62.6330   34.1350   50.7870 C   0  0  0  0  0  0  0  0  0  0  0  0
   61.6280   33.4980   50.0520 C   0  0  0  0  0  0  0  0  0  0  0  0
   61.9550   32.5170   49.1010 C   0  0  0  0  0  0  0  0  0  0  0  0
   60.9400   31.8280   48.3510 N   0  0  0  0  0  0  0  0  0  0  0  0
   60.3100   32.3600   47.1700 C   0  0  0  0  0  0  0  0  0  0  0  0
   60.6600   33.4830   46.7150 O   0  0  0  0  0  0  0  0  0  0  0  0
   59.2410   31.6080   46.4750 C   0  0  0  0  0  0  0  0  0  0  0  0
   58.9560   31.8970   45.1340 C   0  0  0  0  0  0  0  0  0  0  0  0
   57.9450   31.1980   44.4710 C   0  0  0  0  0  0  0  0  0  0  0  0
   57.6190   31.4710   43.1340 C   0  0  0  0  0  0  0  0  0  0  0  0
   56.5970   30.7530   42.5060 C   0  0  0  0  0  0  0  0  0  0  0  0
   55.8990   29.7640   43.2050 C   0  0  0  0  0  0  0  0  0  0  0  0
   56.2190   29.4850   44.5390 C   0  0  0  0  0  0  0  0  0  0  0  0
   55.5200   28.4990   45.2250 O   0  0  0  0  0  0  0  0  0  0  0  0
   57.2420   30.1990   45.1780 C   0  0  0  0  0  0  0  0  0  0  0  0
   57.5520   29.9330   46.4430 O   0  0  0  0  0  0  0  0  0  0  0  0
   58.5090   30.5780   47.1040 C   0  0  0  0  0  0  0  0  0  0  0  0
   58.7670   30.2350   48.2880 O   0  0  0  0  0  0  0  0  0  0  0  0
   63.2990   32.1570   48.9270 C   0  0  0  0  0  0  0  0  0  0  0  0
   64.3030   32.7940   49.6620 C   0  0  0  0  0  0  0  0  0  0  0  0
   64.9468   34.7997   53.3307 H   0  0  0  0  0  0  0  0  0  0  0  0
   65.5962   36.1198   52.3001 H   0  0  0  0  0  0  0  0  0  0  0  0
   63.8356   35.7639   52.3001 H   0  0  0  0  0  0  0  0  0  0  0  0
   62.3675   34.9108   51.5202 H   0  0  0  0  0  0  0  0  0  0  0  0
   60.5746   33.7669   50.2196 H   0  0  0  0  0  0  0  0  0  0  0  0
   60.6870   30.8650   48.6650 H   0  0  0  0  0  0  0  0  0  0  0  0
   59.5277   32.6732   44.6042 H   0  0  0  0  0  0  0  0  0  0  0  0
   58.1665   32.2485   42.5810 H   0  0  0  0  0  0  0  0  0  0  0  0
   56.3412   30.9671   41.4578 H   0  0  0  0  0  0  0  0  0  0  0  0
   55.0956   29.2031   42.7052 H   0  0  0  0  0  0  0  0  0  0  0  0
   63.5649   31.3684   48.2077 H   0  0  0  0  0  0  0  0  0  0  0  0
   65.3546   32.5111   49.5070 H   0  0  0  0  0  0  0  0  0  0  0  0
  1  2  1  0
  2  3  1  0
  3  4  2  0
  4  5  1  0
  5  6  2  0
  6  7  1  0
  7  8  1  0
  8  9  2  0
  8 10  1  0
 10 11  2  0
 11 12  1  0
 12 13  2  0
 13 14  1  0
 14 15  2  0
 15 16  1  0
 16 17  1  0
 16 18  2  0
 18 19  1  0
 19 20  1  0
 20 21  2  0
  6 22  1  0
 22 23  2  0
 23  3  1  0
 20 10  1  0
 18 12  1  0
  1 24  1  0
  1 25  1  0
  1 26  1  0
  4 27  1  0
  5 28  1  0
  7 29  1  0
 11 30  1  0
 13 31  1  0
 14 32  1  0
 15 33  1  0
 22 34  1  0
 23 35  1  0
M  CHG  1  17  -1
M  END
>  <UniqueID>  (15) 
13

>  <SMILES>  (15) 
COc1ccc(NC(=O)c2cc3cccc([O-])c3oc2=O)cc1

>  <Energy>  (15) 
50.5554299763527

>  <Genealogy>  (15) 
COc1ccc(NC(=O)c2cc3cccc([O-])c3oc2=O)cc1 (protonated)
COc1ccc(NC(=O)c2cc3cccc([O-])c3oc2=O)cc1 (3D coordinates assigned)
COc1ccc(NC(=O)c2cc3cccc([O-])c3oc2=O)cc1 (optimized conformer: 50.5554299763527 kcal/mol)

>  <smiles>  (15) 
COc1ccc(NC(=O)c2cc3cccc(O)c3oc2=O)cc1

>  <score_type>  (15) 
oracle

>  <origin>  (15) 
adg

>  <m_score__min__energy>  (15) 
-9.5700000000000003

>  <m_primary>  (15) 
energy

$$$$
15:0
     RDKit          3D

 46 48  0  0  0  0  0  0  0  0999 V2000
   59.7860   34.5560   45.7580 C   0  0  0  0  0  0  0  0  0  0  0  0
   58.9500   33.3780   45.3330 C   0  0  0  0  0  0  0  0  0  0  0  0
   58.2260   33.4270   44.1320 C   0  0  0  0  0  0  0  0  0  0  0  0
   57.4690   32.3290   43.7150 C   0  0  0  0  0  0  0  0  0  0  0  0
   57.4210   31.1680   44.4930 C   0  0  0  0  0  0  0  0  0  0  0  0
   56.4090   29.8150   43.9870 S   0  0  0  0  0  0  0  0  0  0  0  0
   57.3360   28.3530   44.0170 N   0  0  0  0  0  0  0  0  0  0  0  0
   55.2350   29.6880   44.9170 O   0  0  0  0  0  0  0  0  0  0  0  0
   55.8970   30.0440   42.5930 O   0  0  0  0  0  0  0  0  0  0  0  0
   58.1480   31.1090   45.6860 C   0  0  0  0  0  0  0  0  0  0  0  0
   58.9360   32.1980   46.1030 C   0  0  0  0  0  0  0  0  0  0  0  0
   59.7290   32.1290   47.2980 N   0  0  0  0  0  0  0  0  0  0  0  0
   60.6700   30.7460   47.7620 S   0  0  0  0  0  0  0  0  0  0  0  0
   60.7780   30.7180   49.2570 O   0  0  0  0  0  0  0  0  0  0  0  0
   62.0370   30.8230   47.1490 O   0  0  0  0  0  0  0  0  0  0  0  0
   59.8530   29.2790   47.2290 C   0  0  0  0  0  0  0  0  0  0  0  0
   60.2750   28.6150   46.0710 C   0  0  0  0  0  0  0  0  0  0  0  0
   59.5810   27.4950   45.6100 C   0  0  0  0  0  0  0  0  0  0  0  0
   58.4490   27.0300   46.3030 C   0  0  0  0  0  0  0  0  0  0  0  0
   57.6900   25.9020   45.8490 N   0  0  0  0  0  0  0  0  0  0  0  0
   56.2830   25.7030   46.0280 C   0  0  0  0  0  0  0  0  0  0  0  0
   55.4910   26.6840   45.9910 O   0  0  0  0  0  0  0  0  0  0  0  0
   55.7750   24.3500   46.3230 C   0  0  0  0  0  0  0  0  0  0  0  0
   56.6510   23.2770   46.5660 C   0  0  0  0  0  0  0  0  0  0  0  0
   56.1280   22.0060   46.8190 C   0  0  0  0  0  0  0  0  0  0  0  0
   54.7470   21.8150   46.8300 C   0  0  0  0  0  0  0  0  0  0  0  0
   53.9040   22.9020   46.5900 C   0  0  0  0  0  0  0  0  0  0  0  0
   54.4310   24.1310   46.3400 N   0  0  0  0  0  0  0  0  0  0  0  0
   58.0610   27.6650   47.4880 C   0  0  0  0  0  0  0  0  0  0  0  0
   58.7530   28.7880   47.9450 C   0  0  0  0  0  0  0  0  0  0  0  0
   59.8202   34.6041   46.8564 H   0  0  0  0  0  0  0  0  0  0  0  0
   60.8067   34.4424   45.3640 H   0  0  0  0  0  0  0  0  0  0  0  0
   59.3418   35.4820   45.3640 H   0  0  0  0  0  0  0  0  0  0  0  0
   58.2546   34.3366   43.5141 H   0  0  0  0  0  0  0  0  0  0  0  0
   56.9081   32.3781   42.7701 H   0  0  0  0  0  0  0  0  0  0  0  0
   56.9540   27.7660   44.7910 H   0  0  0  0  0  0  0  0  0  0  0  0
   57.1300   27.8440   43.1300 H   0  0  0  0  0  0  0  0  0  0  0  0
   58.1035   30.2012   46.3056 H   0  0  0  0  0  0  0  0  0  0  0  0
   61.1569   28.9773   45.5223 H   0  0  0  0  0  0  0  0  0  0  0  0
   59.9204   26.9747   44.7022 H   0  0  0  0  0  0  0  0  0  0  0  0
   57.7393   23.4369   46.5570 H   0  0  0  0  0  0  0  0  0  0  0  0
   56.8037   21.1590   47.0088 H   0  0  0  0  0  0  0  0  0  0  0  0
   54.3257   20.8179   47.0258 H   0  0  0  0  0  0  0  0  0  0  0  0
   52.8127   22.7644   46.6031 H   0  0  0  0  0  0  0  0  0  0  0  0
   57.2066   27.2774   48.0622 H   0  0  0  0  0  0  0  0  0  0  0  0
   58.4336   29.2893   48.8706 H   0  0  0  0  0  0  0  0  0  0  0  0
  1  2  1  0
  2  3  2  0
  3  4  1  0
  4  5  2  0
  5  6  1  0
  6  7  1  0
  6  8  2  0
  6  9  2  0
  5 10  1  0
 10 11  2  0
 11 12  1  0
 12 13  1  0
 13 14  2  0
 13 15  2  0
 13 16  1  0
 16 17  2  0
 17 18  1  0
 18 19  2  0
 19 20  1  0
 20 21  1  0
 21 22  2  0
 21 23  1  0
 23 24  2  0
 24 25  1  0
 25 26  2  0
 26 27  1  0
 27 28  2  0
 19 29  1  0
 29 30  2  0
 11  2  1  0
 30 16  1  0
 28 23  1  0
  1 31  1  0
  1 32  1  0
  1 33  1  0
  3 34  1  0
  4 35  1  0
  7 36  1  0
  7 37  1  0
 10 38  1  0
 17 39  1  0
 18 40  1  0
 24 41  1  0
 25 42  1  0
 26 43  1  0
 27 44  1  0
 29 45  1  0
 30 46  1  0
M  CHG  2  12  -1  20  -1
M  END
>  <UniqueID>  (16) 
14

>  <SMILES>  (16) 
Cc1ccc(S(N)(=O)=O)cc1[N-]S(=O)(=O)c1ccc([N-]C(=O)c2ccccn2)cc1

>  <Energy>  (16) 
56.671838138777666

>  <Genealogy>  (16) 
Cc1ccc(S(N)(=O)=O)cc1[N-]S(=O)(=O)c1ccc([N-]C(=O)c2ccccn2)cc1 (protonated)
Cc1ccc(S(N)(=O)=O)cc1[N-]S(=O)(=O)c1ccc([N-]C(=O)c2ccccn2)cc1 (3D coordinates assigned)
Cc1ccc(S(N)(=O)=O)cc1[N-]S(=O)(=O)c1ccc([N-]C(=O)c2ccccn2)cc1 (optimized conformer: 56.671838138777666 kcal/mol)

>  <smiles>  (16) 
Cc1ccc(S(N)(=O)=O)cc1NS(=O)(=O)c1ccc(NC(=O)c2ccccn2)cc1

>  <score_type>  (16) 
oracle

>  <origin>  (16) 
adg

>  <m_score__min__energy>  (16) 
-11.98

>  <m_primary>  (16) 
energy

$$$$
16:0
     RDKit          3D

 64 66  0  0  0  0  0  0  0  0999 V2000
   64.4130   32.2860   49.4020 C   0  0  0  0  0  0  0  0  0  0  0  0
   63.1320   32.6850   48.6380 C   0  0  0  0  0  0  0  0  0  0  0  0
   63.0310   34.2240   48.6550 C   0  0  0  0  0  0  0  0  0  0  0  0
   63.2900   32.2000   47.1760 C   0  0  0  0  0  0  0  0  0  0  0  0
   61.8500   32.0880   49.2600 C   0  0  0  0  0  0  0  0  0  0  0  0
   61.3870   30.8270   48.8240 C   0  0  0  0  0  0  0  0  0  0  0  0
   60.1930   30.2920   49.3280 C   0  0  0  0  0  0  0  0  0  0  0  0
   59.7260   28.9510   48.9030 C   0  0  0  0  0  0  0  0  0  0  0  0
   58.5120   28.7690   48.6130 O   0  0  0  0  0  0  0  0  0  0  0  0
   60.6590   27.8670   48.7860 N   0  0  0  0  0  0  0  0  0  0  0  0
   60.3620   26.6160   48.0980 C   0  0  0  0  0  0  0  0  0  0  0  0
   60.6410   26.7290   46.5960 C   0  0  0  0  0  0  0  0  0  0  0  0
   59.6220   27.6300   45.9440 C   0  0  0  0  0  0  0  0  0  0  0  0
   60.0400   28.7770   45.2450 C   0  0  0  0  0  0  0  0  0  0  0  0
   59.1130   29.5630   44.5580 C   0  0  0  0  0  0  0  0  0  0  0  0
   57.7550   29.2190   44.5610 C   0  0  0  0  0  0  0  0  0  0  0  0
   56.6220   30.1800   43.6180 S   0  0  0  0  0  0  0  0  0  0  0  0
   55.5130   30.6480   44.5190 O   0  0  0  0  0  0  0  0  0  0  0  0
   56.0310   29.3430   42.5160 O   0  0  0  0  0  0  0  0  0  0  0  0
   57.3900   31.5740   42.9330 N   0  0  0  0  0  0  0  0  0  0  0  0
   57.8830   32.6760   43.6980 C   0  0  0  0  0  0  0  0  0  0  0  0
   58.7090   33.4610   43.1660 O   0  0  0  0  0  0  0  0  0  0  0  0
   57.4780   32.8740   45.0620 N   0  0  0  0  0  0  0  0  0  0  0  0
   58.1350   33.8630   45.9230 C   0  0  0  0  0  0  0  0  0  0  0  0
   59.6330   33.9330   45.6580 C   0  0  0  0  0  0  0  0  0  0  0  0
   60.2640   34.3950   46.9660 C   0  0  0  0  0  0  0  0  0  0  0  0
   59.2190   34.1830   48.0600 C   0  0  0  0  0  0  0  0  0  0  0  0
   58.0300   33.4970   47.3980 C   0  0  0  0  0  0  0  0  0  0  0  0
   57.3310   28.0800   45.2620 C   0  0  0  0  0  0  0  0  0  0  0  0
   58.2600   27.2870   45.9480 C   0  0  0  0  0  0  0  0  0  0  0  0
   59.4690   31.0300   50.2730 C   0  0  0  0  0  0  0  0  0  0  0  0
   59.9490   32.2680   50.6970 C   0  0  0  0  0  0  0  0  0  0  0  0
   61.1050   32.7720   50.1870 N   0  0  0  0  0  0  0  0  0  0  0  0
   64.2273   32.3439   50.4847 H   0  0  0  0  0  0  0  0  0  0  0  0
   64.6951   31.2574   49.1328 H   0  0  0  0  0  0  0  0  0  0  0  0
   65.2293   32.9724   49.1328 H   0  0  0  0  0  0  0  0  0  0  0  0
   63.0077   34.5784   49.6961 H   0  0  0  0  0  0  0  0  0  0  0  0
   63.9028   34.6544   48.1405 H   0  0  0  0  0  0  0  0  0  0  0  0
   62.1104   34.5367   48.1405 H   0  0  0  0  0  0  0  0  0  0  0  0
   63.6307   31.1541   47.1714 H   0  0  0  0  0  0  0  0  0  0  0  0
   62.3218   32.2725   46.6590 H   0  0  0  0  0  0  0  0  0  0  0  0
   64.0297   32.8289   46.6590 H   0  0  0  0  0  0  0  0  0  0  0  0
   61.9683   30.2595   48.0824 H   0  0  0  0  0  0  0  0  0  0  0  0
   60.9891   25.8169   48.5201 H   0  0  0  0  0  0  0  0  0  0  0  0
   59.2952   26.3870   48.2375 H   0  0  0  0  0  0  0  0  0  0  0  0
   61.6467   27.1476   46.4436 H   0  0  0  0  0  0  0  0  0  0  0  0
   60.5783   25.7287   46.1427 H   0  0  0  0  0  0  0  0  0  0  0  0
   61.1039   29.0564   45.2397 H   0  0  0  0  0  0  0  0  0  0  0  0
   59.4504   30.4563   44.0120 H   0  0  0  0  0  0  0  0  0  0  0  0
   56.6150   32.3940   45.4040 H   0  0  0  0  0  0  0  0  0  0  0  0
   57.6254   34.8112   45.6968 H   0  0  0  0  0  0  0  0  0  0  0  0
   60.0188   32.9424   45.3753 H   0  0  0  0  0  0  0  0  0  0  0  0
   59.8665   34.6194   44.8308 H   0  0  0  0  0  0  0  0  0  0  0  0
   61.1644   33.8013   47.1824 H   0  0  0  0  0  0  0  0  0  0  0  0
   60.5648   35.4514   46.9073 H   0  0  0  0  0  0  0  0  0  0  0  0
   59.6286   33.5464   48.8581 H   0  0  0  0  0  0  0  0  0  0  0  0
   58.9224   35.1389   48.5164 H   0  0  0  0  0  0  0  0  0  0  0  0
   58.0894   32.4067   47.5310 H   0  0  0  0  0  0  0  0  0  0  0  0
   57.0726   33.8159   47.8358 H   0  0  0  0  0  0  0  0  0  0  0  0
   56.2651   27.8086   45.2730 H   0  0  0  0  0  0  0  0  0  0  0  0
   57.9216   26.3926   46.4917 H   0  0  0  0  0  0  0  0  0  0  0  0
   58.5261   30.6345   50.6786 H   0  0  0  0  0  0  0  0  0  0  0  0
   59.3887   32.8419   51.4498 H   0  0  0  0  0  0  0  0  0  0  0  0
   61.3970   33.7040   50.5520 H   0  0  0  0  0  0  0  0  0  0  0  0
  1  2  1  0
  2  3  1  0
  2  4  1  0
  2  5  1  0
  5  6  2  0
  6  7  1  0
  7  8  1  0
  8  9  2  0
  8 10  1  0
 10 11  1  0
 11 12  1  0
 12 13  1  0
 13 14  2  0
 14 15  1  0
 15 16  2  0
 16 17  1  0
 17 18  2  0
 17 19  2  0
 17 20  1  0
 20 21  1  0
 21 22  2  0
 21 23  1  0
 23 24  1  0
 24 25  1  0
 25 26  1  0
 26 27  1  0
 27 28  1  0
 16 29  1  0
 29 30  2  0
  7 31  2  0
 31 32  1  0
 32 33  2  0
 33  5  1  0
 30 13  1  0
 28 24  1  0
  1 34  1  0
  1 35  1  0
  1 36  1  0
  3 37  1  0
  3 38  1  0
  3 39  1  0
  4 40  1  0
  4 41  1  0
  4 42  1  0
  6 43  1  0
 11 44  1  0
 11 45  1  0
 12 46  1  0
 12 47  1  0
 14 48  1  0
 15 49  1  0
 23 50  1  0
 24 51  1  0
 25 52  1  0
 25 53  1  0
 26 54  1  0
 26 55  1  0
 27 56  1  0
 27 57  1  0
 28 58  1  0
 28 59  1  0
 29 60  1  0
 30 61  1  0
 31 62  1  0
 32 63  1  0
 33 64  1  0
M  CHG  3  10  -1  20  -1  33   1
M  END
>  <UniqueID>  (17) 
15

>  <SMILES>  (17) 
CC(C)(C)c1cc(C(=O)[N-]CCc2ccc(S(=O)(=O)[N-]C(=O)NC3CCCC3)cc2)cc[nH+]1

>  <Energy>  (17) 
64.53465577278102

>  <Genealogy>  (17) 
CC(C)(C)c1cc(C(=O)[N-]CCc2ccc(S(=O)(=O)[N-]C(=O)NC3CCCC3)cc2)cc[nH+]1 (protonated)
CC(C)(C)c1cc(C(=O)[N-]CCc2ccc(S(=O)(=O)[N-]C(=O)NC3CCCC3)cc2)cc[nH+]1 (3D coordinates assigned)
CC(C)(C)c1cc(C(=O)[N-]CCc2ccc(S(=O)(=O)[N-]C(=O)NC3CCCC3)cc2)cc[nH+]1 (nonaromatic ring conformer: 64.53465577278102 kcal/mol)

>  <smiles>  (17) 
CC(C)(C)c1cc(C(=O)NCCc2ccc(S(=O)(=O)NC(=O)NC3CCCC3)cc2)ccn1

>  <score_type>  (17) 
oracle

>  <origin>  (17) 
adg

>  <m_score__min__energy>  (17) 
-11.92

>  <m_primary>  (17) 
energy

$$$$
17:0
     RDKit          3D

 46 48  0  0  0  0  0  0  0  0999 V2000
   59.8850   34.1960   49.6950 C   0  0  0  0  0  0  0  0  0  0  0  0
   60.2840   33.6680   48.3910 N   0  0  0  0  0  0  0  0  0  0  0  0
   59.4240   33.8340   47.2540 C   0  0  0  0  0  0  0  0  0  0  0  0
   58.1140   33.3290   47.2800 C   0  0  0  0  0  0  0  0  0  0  0  0
   57.2740   33.4920   46.1740 C   0  0  0  0  0  0  0  0  0  0  0  0
   57.7350   34.1600   45.0370 C   0  0  0  0  0  0  0  0  0  0  0  0
   59.0390   34.6650   45.0030 C   0  0  0  0  0  0  0  0  0  0  0  0
   59.8810   34.5010   46.1060 C   0  0  0  0  0  0  0  0  0  0  0  0
   61.7350   32.7200   48.2620 S   0  0  0  0  0  0  0  0  0  0  0  0
   62.8080   33.3490   49.1060 O   0  0  0  0  0  0  0  0  0  0  0  0
   62.2030   32.6630   46.8350 O   0  0  0  0  0  0  0  0  0  0  0  0
   61.3960   31.0840   48.8130 C   0  0  0  0  0  0  0  0  0  0  0  0
   61.9140   30.6140   50.0260 C   0  0  0  0  0  0  0  0  0  0  0  0
   61.5940   29.3270   50.4710 C   0  0  0  0  0  0  0  0  0  0  0  0
   60.7600   28.5040   49.7060 C   0  0  0  0  0  0  0  0  0  0  0  0
   60.4330   27.2350   50.1710 O   0  0  0  0  0  0  0  0  0  0  0  0
   60.2600   28.9560   48.4760 C   0  0  0  0  0  0  0  0  0  0  0  0
   59.3590   28.1260   47.7300 N   0  0  0  0  0  0  0  0  0  0  0  0
   59.7650   27.1020   46.8160 C   0  0  0  0  0  0  0  0  0  0  0  0
   60.1310   25.9730   47.2430 O   0  0  0  0  0  0  0  0  0  0  0  0
   59.8040   27.3900   45.3510 C   0  0  0  0  0  0  0  0  0  0  0  0
   58.8140   28.4760   45.0270 C   0  0  0  0  0  0  0  0  0  0  0  0
   59.2540   29.7790   44.7390 C   0  0  0  0  0  0  0  0  0  0  0  0
   58.3270   30.7940   44.4820 C   0  0  0  0  0  0  0  0  0  0  0  0
   56.9580   30.5200   44.5260 C   0  0  0  0  0  0  0  0  0  0  0  0
   56.5110   29.2320   44.8280 C   0  0  0  0  0  0  0  0  0  0  0  0
   55.1490   28.9640   44.8830 O   0  0  0  0  0  0  0  0  0  0  0  0
   57.4340   28.2110   45.0780 C   0  0  0  0  0  0  0  0  0  0  0  0
   60.5790   30.2520   48.0380 C   0  0  0  0  0  0  0  0  0  0  0  0
   60.3425   33.5906   50.4913 H   0  0  0  0  0  0  0  0  0  0  0  0
   60.2227   35.2388   49.7873 H   0  0  0  0  0  0  0  0  0  0  0  0
   58.7896   34.1558   49.7873 H   0  0  0  0  0  0  0  0  0  0  0  0
   57.7472   32.8032   48.1738 H   0  0  0  0  0  0  0  0  0  0  0  0
   56.2489   33.0937   46.1993 H   0  0  0  0  0  0  0  0  0  0  0  0
   57.0725   34.2889   44.1684 H   0  0  0  0  0  0  0  0  0  0  0  0
   59.4017   35.1913   44.1078 H   0  0  0  0  0  0  0  0  0  0  0  0
   60.9070   34.8964   46.0748 H   0  0  0  0  0  0  0  0  0  0  0  0
   62.5724   31.2567   50.6289 H   0  0  0  0  0  0  0  0  0  0  0  0
   61.9994   28.9606   51.4257 H   0  0  0  0  0  0  0  0  0  0  0  0
   60.8149   27.7192   45.0688 H   0  0  0  0  0  0  0  0  0  0  0  0
   59.5455   26.4791   44.7911 H   0  0  0  0  0  0  0  0  0  0  0  0
   60.3310   30.0014   44.7156 H   0  0  0  0  0  0  0  0  0  0  0  0
   58.6764   31.8097   44.2448 H   0  0  0  0  0  0  0  0  0  0  0  0
   56.2310   31.3200   44.3225 H   0  0  0  0  0  0  0  0  0  0  0  0
   57.0790   27.1973   45.3153 H   0  0  0  0  0  0  0  0  0  0  0  0
   60.1837   30.6162   47.0783 H   0  0  0  0  0  0  0  0  0  0  0  0
  1  2  1  0
  2  3  1  0
  3  4  2  0
  4  5  1  0
  5  6  2  0
  6  7  1  0
  7  8  2  0
  2  9  1  0
  9 10  2  0
  9 11  2  0
  9 12  1  0
 12 13  2  0
 13 14  1  0
 14 15  2  0
 15 16  1  0
 15 17  1  0
 17 18  1  0
 18 19  1  0
 19 20  2  0
 19 21  1  0
 21 22  1  0
 22 23  2  0
 23 24  1  0
 24 25  2  0
 25 26  1  0
 26 27  1  0
 26 28  2  0
 17 29  2  0
  8  3  1  0
 29 12  1  0
 28 22  1  0
  1 30  1  0
  1 31  1  0
  1 32  1  0
  4 33  1  0
  5 34  1  0
  6 35  1  0
  7 36  1  0
  8 37  1  0
 13 38  1  0
 14 39  1  0
 21 40  1  0
 21 41  1  0
 23 42  1  0
 24 43  1  0
 25 44  1  0
 28 45  1  0
 29 46  1  0
M  CHG  3  16  -1  18  -1  27  -1
M  END
>  <UniqueID>  (18) 
16

>  <SMILES>  (18) 
CN(c1ccccc1)S(=O)(=O)c1ccc([O-])c([N-]C(=O)Cc2cccc([O-])c2)c1

>  <Energy>  (18) 
52.534810576549255

>  <Genealogy>  (18) 
CN(c1ccccc1)S(=O)(=O)c1ccc([O-])c([N-]C(=O)Cc2cccc([O-])c2)c1 (protonated)
CN(c1ccccc1)S(=O)(=O)c1ccc([O-])c([N-]C(=O)Cc2cccc([O-])c2)c1 (3D coordinates assigned)
CN(c1ccccc1)S(=O)(=O)c1ccc([O-])c([N-]C(=O)Cc2cccc([O-])c2)c1 (optimized conformer: 52.534810576549255 kcal/mol)

>  <smiles>  (18) 
CN(c1ccccc1)S(=O)(=O)c1ccc(O)c(NC(=O)Cc2cccc(O)c2)c1

>  <score_type>  (18) 
oracle

>  <origin>  (18) 
adg

>  <m_score__min__energy>  (18) 
-15.859999999999999

>  <m_primary>  (18) 
energy

$$$$
18:0
     RDKit          3D

 66 69  0  0  1  0  0  0  0  0999 V2000
   56.4690   26.4000   46.0840 C   0  0  0  0  0  0  0  0  0  0  0  0
   57.7620   26.4900   45.2880 C   0  0  1  0  0  0  0  0  0  0  0  0
   57.7690   27.6960   44.5910 O   0  0  0  0  0  0  0  0  0  0  0  0
   58.8940   26.4070   46.2620 C   0  0  0  0  0  0  0  0  0  0  0  0
   59.8390   27.4520   45.9840 N   0  0  0  0  0  0  0  0  0  0  0  0
   60.1740   28.2630   46.9490 C   0  0  0  0  0  0  0  0  0  0  0  0
   60.3780   29.5690   46.7660 N   0  0  0  0  0  0  0  0  0  0  0  0
   60.7240   30.4160   47.7540 C   0  0  0  0  0  0  0  0  0  0  0  0
   60.9040   31.6860   47.4860 N   0  0  0  0  0  0  0  0  0  0  0  0
   61.8660   32.4400   48.2540 C   0  0  0  0  0  0  0  0  0  0  0  0
   63.1930   32.1900   47.9620 C   0  0  0  0  0  0  0  0  0  0  0  0
   64.1450   32.8920   48.6750 C   0  0  0  0  0  0  0  0  0  0  0  0
   63.7690   33.8170   49.6530 C   0  0  0  0  0  0  0  0  0  0  0  0
   62.4220   34.0250   49.9040 C   0  0  0  0  0  0  0  0  0  0  0  0
   61.4630   33.3460   49.2130 C   0  0  0  0  0  0  0  0  0  0  0  0
   59.7480   33.5440   49.4620 S   0  0  0  0  0  0  0  0  0  0  0  0
   59.5200   34.0450   50.8470 O   0  0  0  0  0  0  0  0  0  0  0  0
   58.9890   32.2700   49.2940 O   0  0  0  0  0  0  0  0  0  0  0  0
   59.2090   34.6600   48.2480 N   0  0  0  0  0  0  0  0  0  0  0  0
   58.9880   34.1750   46.9230 C   0  0  0  0  0  0  0  0  0  0  0  0
   59.1760   34.9530   45.8020 C   0  0  0  0  0  0  0  0  0  0  0  0
   58.9660   34.4940   44.5180 C   0  0  0  0  0  0  0  0  0  0  0  0
   58.5470   33.1970   44.3270 C   0  0  0  0  0  0  0  0  0  0  0  0
   58.3460   32.3780   45.4390 C   0  0  0  0  0  0  0  0  0  0  0  0
   57.8080   30.7190   45.1710 S   0  0  0  0  0  0  0  0  0  0  0  0
   58.9110   29.8810   44.1410 N   0  0  0  0  0  0  0  0  0  0  0  0
   56.4310   30.8140   44.5620 O   0  0  0  0  0  0  0  0  0  0  0  0
   57.6810   30.0300   46.5040 O   0  0  0  0  0  0  0  0  0  0  0  0
   58.5660   32.8710   46.7030 C   0  0  0  0  0  0  0  0  0  0  0  0
   60.8800   29.9170   49.0260 C   0  0  0  0  0  0  0  0  0  0  0  0
   61.2110   30.4900   50.1960 N   0  0  0  0  0  0  0  0  0  0  0  0
   61.2210   29.5210   51.1580 C   0  0  0  0  0  0  0  0  0  0  0  0
   60.8920   28.3650   50.5540 N   0  0  0  0  0  0  0  0  0  0  0  0
   60.7640   27.0320   51.1530 C   0  0  0  0  0  0  0  0  0  0  0  0
   62.1290   26.3790   51.2880 C   0  0  0  0  0  0  0  0  0  0  0  0
   60.1850   27.1300   52.5660 C   0  0  0  0  0  0  0  0  0  0  0  0
   60.6740   28.5670   49.2430 C   0  0  0  0  0  0  0  0  0  0  0  0
   60.3300   27.7840   48.2060 N   0  0  0  0  0  0  0  0  0  0  0  0
   56.6987   26.4160   47.1596 H   0  0  0  0  0  0  0  0  0  0  0  0
   55.8242   27.2554   45.8340 H   0  0  0  0  0  0  0  0  0  0  0  0
   55.9490   25.4635   45.8340 H   0  0  0  0  0  0  0  0  0  0  0  0
   57.8578   25.6745   44.5560 H   0  0  0  0  0  0  0  0  0  0  0  0
   58.1080   28.4400   45.1360 H   0  0  0  0  0  0  0  0  0  0  0  0
   59.3892   25.4294   46.1670 H   0  0  0  0  0  0  0  0  0  0  0  0
   58.5078   26.5230   47.2854 H   0  0  0  0  0  0  0  0  0  0  0  0
   60.2700   29.9900   45.8170 H   0  0  0  0  0  0  0  0  0  0  0  0
   63.4803   31.4598   47.1911 H   0  0  0  0  0  0  0  0  0  0  0  0
   65.2122   32.7210   48.4707 H   0  0  0  0  0  0  0  0  0  0  0  0
   64.5328   34.3730   50.2165 H   0  0  0  0  0  0  0  0  0  0  0  0
   62.1215   34.7506   50.6742 H   0  0  0  0  0  0  0  0  0  0  0  0
   59.0460   35.6770   48.4710 H   0  0  0  0  0  0  0  0  0  0  0  0
   59.5103   35.9922   45.9373 H   0  0  0  0  0  0  0  0  0  0  0  0
   59.1316   35.1574   43.6563 H   0  0  0  0  0  0  0  0  0  0  0  0
   58.3729   32.8112   43.3117 H   0  0  0  0  0  0  0  0  0  0  0  0
   58.3560   29.4460   43.3700 H   0  0  0  0  0  0  0  0  0  0  0  0
   59.3600   29.1330   44.6960 H   0  0  0  0  0  0  0  0  0  0  0  0
   58.4025   32.2112   47.5678 H   0  0  0  0  0  0  0  0  0  0  0  0
   61.4538   29.6594   52.2241 H   0  0  0  0  0  0  0  0  0  0  0  0
   60.1052   26.4432   50.4979 H   0  0  0  0  0  0  0  0  0  0  0  0
   62.3753   26.2612   52.3536 H   0  0  0  0  0  0  0  0  0  0  0  0
   62.1124   25.3913   50.8041 H   0  0  0  0  0  0  0  0  0  0  0  0
   62.8876   27.0117   50.8041 H   0  0  0  0  0  0  0  0  0  0  0  0
   60.9905   26.9937   53.3026 H   0  0  0  0  0  0  0  0  0  0  0  0
   59.7240   28.1189   52.7056 H   0  0  0  0  0  0  0  0  0  0  0  0
   59.4242   26.3478   52.7056 H   0  0  0  0  0  0  0  0  0  0  0  0
   60.1700   26.7600   48.3480 H   0  0  0  0  0  0  0  0  0  0  0  0
  1  2  1  0
  2  3  1  0
  2  4  1  0
  4  5  1  0
  5  6  2  0
  6  7  1  0
  7  8  1  0
  8  9  2  0
  9 10  1  0
 10 11  2  0
 11 12  1  0
 12 13  2  0
 13 14  1  0
 14 15  2  0
 15 16  1  0
 16 17  2  0
 16 18  2  0
 16 19  1  0
 19 20  1  0
 20 21  2  0
 21 22  1  0
 22 23  2  0
 23 24  1  0
 24 25  1  0
 25 26  1  0
 25 27  2  0
 25 28  2  0
 24 29  2  0
  8 30  1  0
 30 31  1  0
 31 32  2  0
 32 33  1  0
 33 34  1  0
 34 35  1  0
 34 36  1  0
 33 37  1  0
 37 38  1  0
 38  6  1  0
 15 10  1  0
 29 20  1  0
 37 30  2  0
  1 39  1  0
  1 40  1  0
  1 41  1  0
  2 42  1  6
  3 43  1  0
  4 44  1  0
  4 45  1  0
  7 46  1  0
 11 47  1  0
 12 48  1  0
 13 49  1  0
 14 50  1  0
 19 51  1  0
 21 52  1  0
 22 53  1  0
 23 54  1  0
 26 55  1  0
 26 56  1  0
 29 57  1  0
 32 58  1  0
 34 59  1  0
 35 60  1  0
 35 61  1  0
 35 62  1  0
 36 63  1  0
 36 64  1  0
 36 65  1  0
 38 66  1  0
M  END
>  <smiles>  (19) 
CC(O)CN=c1[nH]c(=Nc2ccccc2S(=O)(=O)Nc2cccc(S(N)(=O)=O)c2)c2ncn(C(C)C)c2[nH]1

>  <score_type>  (19) 
oracle

>  <origin>  (19) 
adg

>  <m_score__min__energy>  (19) 
-10.34

>  <m_primary>  (19) 
energy

$$$$
19:0
     RDKit          3D

 46 47  0  0  0  0  0  0  0  0999 V2000
   63.8080   33.0720   46.8870 C   0  0  0  0  0  0  0  0  0  0  0  0
   63.1130   32.7950   48.1570 N   0  0  0  0  0  0  0  0  0  0  0  0
   64.0830   32.3060   49.1550 C   0  0  0  0  0  0  0  0  0  0  0  0
   62.4150   34.0190   48.6220 C   0  0  0  0  0  0  0  0  0  0  0  0
   61.0380   34.2210   47.9610 C   0  0  0  0  0  0  0  0  0  0  0  0
   60.7010   33.1260   47.1130 O   0  0  0  0  0  0  0  0  0  0  0  0
   59.4190   32.9150   46.5920 C   0  0  0  0  0  0  0  0  0  0  0  0
   58.6780   33.9020   46.3280 O   0  0  0  0  0  0  0  0  0  0  0  0
   58.9360   31.5390   46.3170 C   0  0  0  0  0  0  0  0  0  0  0  0
   57.8690   31.3660   45.4170 C   0  0  0  0  0  0  0  0  0  0  0  0
   57.3770   30.0900   45.0970 C   0  0  0  0  0  0  0  0  0  0  0  0
   56.2080   29.9920   44.1930 C   0  0  0  0  0  0  0  0  0  0  0  0
   55.1290   29.1150   44.5120 N   0  0  0  0  0  0  0  0  0  0  0  0
   56.1740   30.6440   43.1160 O   0  0  0  0  0  0  0  0  0  0  0  0
   57.9920   28.9520   45.6700 C   0  0  0  0  0  0  0  0  0  0  0  0
   57.6120   27.6180   45.3020 N   0  0  0  0  0  0  0  0  0  0  0  0
   59.0360   29.1230   46.5860 C   0  0  0  0  0  0  0  0  0  0  0  0
   59.5060   30.3950   46.9250 C   0  0  0  0  0  0  0  0  0  0  0  0
   60.8090   30.4940   48.1660 S   0  0  0  0  0  0  0  0  0  0  0  0
   59.6500   30.7650   49.5070 C   0  0  0  0  0  0  0  0  0  0  0  0
   59.2730   32.0690   49.8550 C   0  0  0  0  0  0  0  0  0  0  0  0
   58.3700   32.2820   50.9020 C   0  0  0  0  0  0  0  0  0  0  0  0
   57.8390   31.1930   51.6010 C   0  0  0  0  0  0  0  0  0  0  0  0
   56.7070   31.4600   52.9150 Cl  0  0  0  0  0  0  0  0  0  0  0  0
   58.2090   29.8890   51.2510 C   0  0  0  0  0  0  0  0  0  0  0  0
   59.1100   29.6760   50.2030 C   0  0  0  0  0  0  0  0  0  0  0  0
   64.8109   33.4717   47.0975 H   0  0  0  0  0  0  0  0  0  0  0  0
   63.8984   32.1412   46.3079 H   0  0  0  0  0  0  0  0  0  0  0  0
   63.2333   33.8098   46.3079 H   0  0  0  0  0  0  0  0  0  0  0  0
   62.4130   32.0380   47.9720 H   0  0  0  0  0  0  0  0  0  0  0  0
   63.6976   32.5003   50.1668 H   0  0  0  0  0  0  0  0  0  0  0  0
   64.2331   31.2245   49.0212 H   0  0  0  0  0  0  0  0  0  0  0  0
   65.0417   32.8285   49.0212 H   0  0  0  0  0  0  0  0  0  0  0  0
   62.2732   33.9483   49.7105 H   0  0  0  0  0  0  0  0  0  0  0  0
   63.0413   34.8788   48.3417 H   0  0  0  0  0  0  0  0  0  0  0  0
   60.2740   34.3129   48.7470 H   0  0  0  0  0  0  0  0  0  0  0  0
   61.0796   35.1331   47.3475 H   0  0  0  0  0  0  0  0  0  0  0  0
   57.4091   32.2509   44.9529 H   0  0  0  0  0  0  0  0  0  0  0  0
   54.4680   29.3370   45.2890 H   0  0  0  0  0  0  0  0  0  0  0  0
   56.7150   27.4110   44.8140 H   0  0  0  0  0  0  0  0  0  0  0  0
   58.2900   26.8300   45.4030 H   0  0  0  0  0  0  0  0  0  0  0  0
   59.4965   28.2378   47.0490 H   0  0  0  0  0  0  0  0  0  0  0  0
   59.6876   32.9262   49.3042 H   0  0  0  0  0  0  0  0  0  0  0  0
   58.0774   33.3064   51.1757 H   0  0  0  0  0  0  0  0  0  0  0  0
   57.7912   29.0323   51.8001 H   0  0  0  0  0  0  0  0  0  0  0  0
   59.3953   28.6508   49.9245 H   0  0  0  0  0  0  0  0  0  0  0  0
  1  2  1  0
  2  3  1  0
  2  4  1  0
  4  5  1  0
  5  6  1  0
  6  7  1  0
  7  8  2  0
  7  9  1  0
  9 10  2  0
 10 11  1  0
 11 12  1  0
 12 13  1  0
 12 14  2  0
 11 15  2  0
 15 16  1  0
 15 17  1  0
 17 18  2  0
 18 19  1  0
 19 20  1  0
 20 21  2  0
 21 22  1  0
 22 23  2  0
 23 24  1  0
 23 25  1  0
 25 26  2  0
 18  9  1  0
 26 20  1  0
  1 27  1  0
  1 28  1  0
  1 29  1  0
  2 30  1  0
  3 31  1  0
  3 32  1  0
  3 33  1  0
  4 34  1  0
  4 35  1  0
  5 36  1  0
  5 37  1  0
 10 38  1  0
 13 39  1  0
 16 40  1  0
 16 41  1  0
 17 42  1  0
 21 43  1  0
 22 44  1  0
 25 45  1  0
 26 46  1  0
M  CHG  2   2   1  13  -1
M  END
>  <UniqueID>  (20) 
17

>  <SMILES>  (20) 
C[NH+](C)CCOC(=O)c1cc(C([NH-])=O)c(N)cc1Sc1ccc(Cl)cc1

>  <Energy>  (20) 
47.89272115974443

>  <Genealogy>  (20) 
C[NH+](C)CCOC(=O)c1cc(C([NH-])=O)c(N)cc1Sc1ccc(Cl)cc1 (protonated)
C[NH+](C)CCOC(=O)c1cc(C([NH-])=O)c(N)cc1Sc1ccc(Cl)cc1 (3D coordinates assigned)
C[NH+](C)CCOC(=O)c1cc(C([NH-])=O)c(N)cc1Sc1ccc(Cl)cc1 (optimized conformer: 47.89272115974443 kcal/mol)

>  <smiles>  (20) 
CN(C)CCOC(=O)c1cc(C(N)=O)c(N)cc1Sc1ccc(Cl)cc1

>  <score_type>  (20) 
oracle

>  <origin>  (20) 
adg

>  <m_score__min__energy>  (20) 
-8.6400000000000006

>  <m_primary>  (20) 
energy

$$$$
20:0
     RDKit          3D

 41 42  0  0  0  0  0  0  0  0999 V2000
   55.1380   25.3560   45.6690 C   0  0  0  0  0  0  0  0  0  0  0  0
   55.5160   26.6850   46.0080 O   0  0  0  0  0  0  0  0  0  0  0  0
   56.8220   27.1930   45.9080 C   0  0  0  0  0  0  0  0  0  0  0  0
   57.9220   26.5300   46.4880 C   0  0  0  0  0  0  0  0  0  0  0  0
   59.2120   27.0700   46.3950 C   0  0  0  0  0  0  0  0  0  0  0  0
   60.3790   26.3440   46.9960 C   0  0  0  0  0  0  0  0  0  0  0  0
   59.4130   28.2600   45.6840 C   0  0  0  0  0  0  0  0  0  0  0  0
   58.3310   28.9250   45.1060 C   0  0  0  0  0  0  0  0  0  0  0  0
   57.0310   28.4060   45.2170 C   0  0  0  0  0  0  0  0  0  0  0  0
   55.8700   29.1670   44.6320 C   0  0  0  0  0  0  0  0  0  0  0  0
   56.1940   30.5860   44.6060 N   0  0  0  0  0  0  0  0  0  0  0  0
   56.8640   31.2450   43.5300 C   0  0  0  0  0  0  0  0  0  0  0  0
   56.7360   30.8300   42.3470 O   0  0  0  0  0  0  0  0  0  0  0  0
   57.7480   32.4130   43.8260 C   0  0  0  0  0  0  0  0  0  0  0  0
   57.0760   33.4300   45.1920 S   0  0  0  0  0  0  0  0  0  0  0  0
   58.5810   33.4280   46.1870 C   0  0  0  0  0  0  0  0  0  0  0  0
   59.3920   34.5710   46.1690 C   0  0  0  0  0  0  0  0  0  0  0  0
   60.5840   34.6060   46.8970 C   0  0  0  0  0  0  0  0  0  0  0  0
   60.9730   33.5000   47.6520 C   0  0  0  0  0  0  0  0  0  0  0  0
   60.1610   32.3640   47.6970 C   0  0  0  0  0  0  0  0  0  0  0  0
   58.9560   32.3180   46.9790 C   0  0  0  0  0  0  0  0  0  0  0  0
   58.1380   31.1430   47.0580 N   0  0  0  0  0  0  0  0  0  0  0  0
   54.9730   24.7758   46.5888 H   0  0  0  0  0  0  0  0  0  0  0  0
   54.2105   25.3780   45.0780 H   0  0  0  0  0  0  0  0  0  0  0  0
   55.9383   24.8866   45.0780 H   0  0  0  0  0  0  0  0  0  0  0  0
   57.7666   25.5793   47.0190 H   0  0  0  0  0  0  0  0  0  0  0  0
   60.3114   26.3860   48.0931 H   0  0  0  0  0  0  0  0  0  0  0  0
   60.3662   25.2942   46.6678 H   0  0  0  0  0  0  0  0  0  0  0  0
   61.3151   26.8194   46.6678 H   0  0  0  0  0  0  0  0  0  0  0  0
   60.4278   28.6719   45.5809 H   0  0  0  0  0  0  0  0  0  0  0  0
   58.4979   29.8643   44.5584 H   0  0  0  0  0  0  0  0  0  0  0  0
   55.6772   28.8145   43.6080 H   0  0  0  0  0  0  0  0  0  0  0  0
   54.9726   29.0034   45.2468 H   0  0  0  0  0  0  0  0  0  0  0  0
   58.7445   32.0445   44.1109 H   0  0  0  0  0  0  0  0  0  0  0  0
   57.8069   33.0400   42.9241 H   0  0  0  0  0  0  0  0  0  0  0  0
   59.0878   35.4470   45.5773 H   0  0  0  0  0  0  0  0  0  0  0  0
   61.2158   35.5062   46.8746 H   0  0  0  0  0  0  0  0  0  0  0  0
   61.9194   33.5220   48.2123 H   0  0  0  0  0  0  0  0  0  0  0  0
   60.4690   31.4976   48.3008 H   0  0  0  0  0  0  0  0  0  0  0  0
   57.3810   30.9480   46.3680 H   0  0  0  0  0  0  0  0  0  0  0  0
   58.2740   30.4560   47.8330 H   0  0  0  0  0  0  0  0  0  0  0  0
  1  2  1  0
  2  3  1  0
  3  4  2  0
  4  5  1  0
  5  6  1  0
  5  7  2  0
  7  8  1  0
  8  9  2  0
  9 10  1  0
 10 11  1  0
 11 12  1  0
 12 13  2  0
 12 14  1  0
 14 15  1  0
 15 16  1  0
 16 17  2  0
 17 18  1  0
 18 19  2  0
 19 20  1  0
 20 21  2  0
 21 22  1  0
  9  3  1  0
 21 16  1  0
  1 23  1  0
  1 24  1  0
  1 25  1  0
  4 26  1  0
  6 27  1  0
  6 28  1  0
  6 29  1  0
  7 30  1  0
  8 31  1  0
 10 32  1  0
 10 33  1  0
 14 34  1  0
 14 35  1  0
 17 36  1  0
 18 37  1  0
 19 38  1  0
 20 39  1  0
 22 40  1  0
 22 41  1  0
M  CHG  1  11  -1
M  END
>  <UniqueID>  (21) 
18

>  <SMILES>  (21) 
COc1cc(C)ccc1C[N-]C(=O)CSc1ccccc1N

>  <Energy>  (21) 
30.251620080009026

>  <Genealogy>  (21) 
COc1cc(C)ccc1C[N-]C(=O)CSc1ccccc1N (protonated)
COc1cc(C)ccc1C[N-]C(=O)CSc1ccccc1N (3D coordinates assigned)
COc1cc(C)ccc1C[N-]C(=O)CSc1ccccc1N (optimized conformer: 30.251620080009026 kcal/mol)

>  <smiles>  (21) 
COc1cc(C)ccc1CNC(=O)CSc1ccccc1N

>  <score_type>  (21) 
oracle

>  <origin>  (21) 
adg

>  <m_score__min__energy>  (21) 
-9.3000000000000007

>  <m_primary>  (21) 
energy

$$$$
21:0
     RDKit          3D

 42 44  0  0  1  0  0  0  0  0999 V2000
   57.5530   28.5960   43.6690 N   0  0  0  0  0  0  0  0  0  0  0  0
   56.5190   29.9430   43.9560 S   0  0  0  0  0  0  0  0  0  0  0  0
   55.3850   29.5940   44.8770 O   0  0  0  0  0  0  0  0  0  0  0  0
   55.9490   30.3880   42.6310 O   0  0  0  0  0  0  0  0  0  0  0  0
   57.4610   31.2000   44.7050 C   0  0  0  0  0  0  0  0  0  0  0  0
   57.5070   32.4710   44.1260 C   0  0  0  0  0  0  0  0  0  0  0  0
   58.2510   33.4690   44.7150 C   0  0  0  0  0  0  0  0  0  0  0  0
   58.9750   33.2870   45.8770 C   0  0  0  0  0  0  0  0  0  0  0  0
   59.7310   34.3280   46.4610 N   0  0  0  0  0  0  0  0  0  0  0  0
   60.8990   34.1430   46.9810 C   0  0  0  0  0  0  0  0  0  0  0  0
   61.9490   33.8320   46.1940 N   0  0  0  0  0  0  0  0  0  0  0  0
   63.1440   33.6480   46.7660 C   0  0  0  0  0  0  0  0  0  0  0  0
   63.3210   33.7670   48.1260 C   0  0  0  0  0  0  0  0  0  0  0  0
   62.2200   34.0860   48.8800 C   0  0  0  0  0  0  0  0  0  0  0  0
   62.3680   34.2010   50.1510 N   0  0  0  0  0  0  0  0  0  0  0  0
   61.7980   33.3890   51.1710 C   0  0  0  0  0  0  0  0  0  0  0  0
   60.7510   32.4450   50.6650 C   0  0  0  0  0  0  0  0  0  0  0  0
   59.4040   32.7620   50.6840 C   0  0  0  0  0  0  0  0  0  0  0  0
   58.4350   31.8780   50.2100 C   0  0  0  0  0  0  0  0  0  0  0  0
   58.8020   30.6510   49.7030 C   0  0  0  0  0  0  0  0  0  0  0  0
   60.1380   30.3140   49.6750 C   0  0  0  0  0  0  0  0  0  0  0  0
   61.0730   31.2010   50.1480 C   0  0  0  0  0  0  0  0  0  0  0  0
   61.0060   34.2740   48.3130 N   0  0  0  0  0  0  0  0  0  0  0  0
   58.9270   32.0200   46.4510 C   0  0  0  0  0  0  0  0  0  0  0  0
   58.1840   31.0280   45.8600 C   0  0  0  0  0  0  0  0  0  0  0  0
   57.0240   27.7220   43.4590 H   0  0  0  0  0  0  0  0  0  0  0  0
   58.3110   28.7840   42.9970 H   0  0  0  0  0  0  0  0  0  0  0  0
   56.9491   32.6743   43.2000 H   0  0  0  0  0  0  0  0  0  0  0  0
   58.2696   34.4594   44.2367 H   0  0  0  0  0  0  0  0  0  0  0  0
   61.8130   33.7420   45.1640 H   0  0  0  0  0  0  0  0  0  0  0  0
   64.0076   33.3951   46.1334 H   0  0  0  0  0  0  0  0  0  0  0  0
   64.3063   33.6124   48.5899 H   0  0  0  0  0  0  0  0  0  0  0  0
   62.6016   32.8005   51.6379 H   0  0  0  0  0  0  0  0  0  0  0  0
   61.3071   34.0645   51.8870 H   0  0  0  0  0  0  0  0  0  0  0  0
   59.0892   33.7373   51.0836 H   0  0  0  0  0  0  0  0  0  0  0  0
   57.3727   32.1620   50.2412 H   0  0  0  0  0  0  0  0  0  0  0  0
   58.0411   29.9515   49.3266 H   0  0  0  0  0  0  0  0  0  0  0  0
   60.4537   29.3389   49.2756 H   0  0  0  0  0  0  0  0  0  0  0  0
   62.1329   30.9086   50.1147 H   0  0  0  0  0  0  0  0  0  0  0  0
   60.1770   34.5190   48.9290 H   0  0  0  0  0  0  0  0  0  0  0  0
   59.4836   31.8136   47.3770 H   0  0  0  0  0  0  0  0  0  0  0  0
   58.1668   30.0381   46.3394 H   0  0  0  0  0  0  0  0  0  0  0  0
  1  2  1  0
  2  3  2  0
  2  4  2  0
  2  5  1  0
  5  6  2  0
  6  7  1  0
  7  8  2  0
  8  9  1  0
  9 10  2  0
 10 11  1  0
 11 12  1  0
 12 13  2  0
 13 14  1  0
 14 15  2  0
 15 16  1  0
 16 17  1  0
 17 18  2  0
 18 19  1  0
 19 20  2  0
 20 21  1  0
 21 22  2  0
 14 23  1  0
  8 24  1  0
 24 25  2  0
 25  5  1  0
 23 10  1  0
 22 17  1  0
  1 26  1  0
  1 27  1  0
  6 28  1  0
  7 29  1  0
 11 30  1  0
 12 31  1  0
 13 32  1  0
 16 33  1  0
 16 34  1  0
 18 35  1  0
 19 36  1  0
 20 37  1  0
 21 38  1  0
 22 39  1  0
 23 40  1  0
 24 41  1  0
 25 42  1  0
M  END
>  <smiles>  (22) 
NS(=O)(=O)c1ccc(N=c2[nH]ccc(=NCc3ccccc3)[nH]2)cc1

>  <score_type>  (22) 
oracle

>  <origin>  (22) 
adg

>  <m_score__min__energy>  (22) 
-9.2899999999999991

>  <m_primary>  (22) 
energy

$$$$
22:0
     RDKit          3D

 41 42  0  0  0  0  0  0  0  0999 V2000
   55.5210   28.8600   44.8870 O   0  0  0  0  0  0  0  0  0  0  0  0
   56.5600   29.5240   45.1410 C   0  0  0  0  0  0  0  0  0  0  0  0
   57.6940   28.8660   45.8710 C   0  0  0  0  0  0  0  0  0  0  0  0
   58.6950   29.8700   46.2200 N   0  0  0  0  0  0  0  0  0  0  0  0
   59.8660   29.5540   46.9840 C   0  0  0  0  0  0  0  0  0  0  0  0
   60.2630   28.3580   47.0540 O   0  0  0  0  0  0  0  0  0  0  0  0
   60.6180   30.6190   47.6890 C   0  0  0  0  0  0  0  0  0  0  0  0
   61.7590   31.1900   47.0990 C   0  0  0  0  0  0  0  0  0  0  0  0
   62.4760   32.1900   47.7640 C   0  0  0  0  0  0  0  0  0  0  0  0
   62.0810   32.6190   49.0440 C   0  0  0  0  0  0  0  0  0  0  0  0
   62.8230   33.7300   49.7450 C   0  0  0  0  0  0  0  0  0  0  0  0
   62.5750   34.9440   49.1260 F   0  0  0  0  0  0  0  0  0  0  0  0
   64.1790   33.4710   49.7000 F   0  0  0  0  0  0  0  0  0  0  0  0
   62.4240   33.8300   51.0660 F   0  0  0  0  0  0  0  0  0  0  0  0
   60.9310   32.0620   49.6250 C   0  0  0  0  0  0  0  0  0  0  0  0
   60.2130   31.0630   48.9620 C   0  0  0  0  0  0  0  0  0  0  0  0
   56.6620   30.8690   44.6550 N   0  0  0  0  0  0  0  0  0  0  0  0
   57.7210   31.3460   43.7690 C   0  0  0  0  0  0  0  0  0  0  0  0
   57.7690   32.8750   43.7840 C   0  0  0  0  0  0  0  0  0  0  0  0
   58.3240   33.3840   45.0900 C   0  0  0  0  0  0  0  0  0  0  0  0
   57.7300   33.0130   46.3080 C   0  0  0  0  0  0  0  0  0  0  0  0
   58.2200   33.5240   47.5160 C   0  0  0  0  0  0  0  0  0  0  0  0
   59.3010   34.4110   47.5150 C   0  0  0  0  0  0  0  0  0  0  0  0
   59.7720   34.9080   48.6860 F   0  0  0  0  0  0  0  0  0  0  0  0
   59.8950   34.7880   46.3070 C   0  0  0  0  0  0  0  0  0  0  0  0
   59.4020   34.2870   45.0980 C   0  0  0  0  0  0  0  0  0  0  0  0
   57.3141   28.3925   46.7883 H   0  0  0  0  0  0  0  0  0  0  0  0
   58.1509   28.1010   45.2260 H   0  0  0  0  0  0  0  0  0  0  0  0
   58.6000   30.8280   45.8150 H   0  0  0  0  0  0  0  0  0  0  0  0
   62.0903   30.8480   46.1074 H   0  0  0  0  0  0  0  0  0  0  0  0
   63.3548   32.6440   47.2827 H   0  0  0  0  0  0  0  0  0  0  0  0
   60.5921   32.4147   50.6103 H   0  0  0  0  0  0  0  0  0  0  0  0
   59.3255   30.6207   49.4381 H   0  0  0  0  0  0  0  0  0  0  0  0
   58.6880   30.9481   44.1105 H   0  0  0  0  0  0  0  0  0  0  0  0
   57.5159   31.0020   42.7445 H   0  0  0  0  0  0  0  0  0  0  0  0
   58.4098   33.2231   42.9605 H   0  0  0  0  0  0  0  0  0  0  0  0
   56.7454   33.2595   43.6639 H   0  0  0  0  0  0  0  0  0  0  0  0
   56.8769   32.3186   46.3126 H   0  0  0  0  0  0  0  0  0  0  0  0
   57.7539   33.2273   48.4672 H   0  0  0  0  0  0  0  0  0  0  0  0
   60.7507   35.4792   46.3074 H   0  0  0  0  0  0  0  0  0  0  0  0
   59.8598   34.6009   44.1483 H   0  0  0  0  0  0  0  0  0  0  0  0
  1  2  2  0
  2  3  1  0
  3  4  1  0
  4  5  1  0
  5  6  2  0
  5  7  1  0
  7  8  2  0
  8  9  1  0
  9 10  2  0
 10 11  1  0
 11 12  1  0
 11 13  1  0
 11 14  1  0
 10 15  1  0
 15 16  2  0
  2 17  1  0
 17 18  1  0
 18 19  1  0
 19 20  1  0
 20 21  2  0
 21 22  1  0
 22 23  2  0
 23 24  1  0
 23 25  1  0
 25 26  2  0
 16  7  1  0
 26 20  1  0
  3 27  1  0
  3 28  1  0
  4 29  1  0
  8 30  1  0
  9 31  1  0
 15 32  1  0
 16 33  1  0
 18 34  1  0
 18 35  1  0
 19 36  1  0
 19 37  1  0
 21 38  1  0
 22 39  1  0
 25 40  1  0
 26 41  1  0
M  CHG  1  17  -1
M  END
>  <UniqueID>  (23) 
19

>  <SMILES>  (23) 
O=C(CNC(=O)c1ccc(C(F)(F)F)cc1)[N-]CCc1ccc(F)cc1

>  <Energy>  (23) 
35.16588517366801

>  <Genealogy>  (23) 
O=C(CNC(=O)c1ccc(C(F)(F)F)cc1)[N-]CCc1ccc(F)cc1 (protonated)
O=C(CNC(=O)c1ccc(C(F)(F)F)cc1)[N-]CCc1ccc(F)cc1 (3D coordinates assigned)
O=C(CNC(=O)c1ccc(C(F)(F)F)cc1)[N-]CCc1ccc(F)cc1 (optimized conformer: 35.16588517366801 kcal/mol)

>  <smiles>  (23) 
O=C(CNC(=O)c1ccc(C(F)(F)F)cc1)NCCc1ccc(F)cc1

>  <score_type>  (23) 
oracle

>  <origin>  (23) 
adg

>  <m_score__min__energy>  (23) 
-8.4199999999999999

>  <m_primary>  (23) 
energy

$$$$
23:0
     RDKit          3D

 46 49  0  0  0  0  0  0  0  0999 V2000
   60.3270   31.8700   50.9760 C   0  0  0  0  0  0  0  0  0  0  0  0
   61.2720   31.1200   50.2200 O   0  0  0  0  0  0  0  0  0  0  0  0
   60.9500   30.0310   49.3930 C   0  0  0  0  0  0  0  0  0  0  0  0
   60.9470   28.7080   49.8780 C   0  0  0  0  0  0  0  0  0  0  0  0
   60.6630   27.6400   49.0240 C   0  0  0  0  0  0  0  0  0  0  0  0
   60.3500   27.8730   47.6790 C   0  0  0  0  0  0  0  0  0  0  0  0
   60.1250   26.7220   46.7370 C   0  0  0  0  0  0  0  0  0  0  0  0
   58.6550   26.5880   46.4400 C   0  0  0  0  0  0  0  0  0  0  0  0
   57.9590   27.6400   45.8280 C   0  0  0  0  0  0  0  0  0  0  0  0
   56.5810   27.5450   45.6190 C   0  0  0  0  0  0  0  0  0  0  0  0
   55.8820   26.4060   46.0300 C   0  0  0  0  0  0  0  0  0  0  0  0
   54.5080   26.3400   45.8290 O   0  0  0  0  0  0  0  0  0  0  0  0
   56.5670   25.3420   46.6450 C   0  0  0  0  0  0  0  0  0  0  0  0
   55.8190   24.1350   47.1330 C   0  0  0  0  0  0  0  0  0  0  0  0
   57.9520   25.4450   46.8550 C   0  0  0  0  0  0  0  0  0  0  0  0
   60.3350   29.1880   47.1960 C   0  0  0  0  0  0  0  0  0  0  0  0
   60.6440   30.2680   48.0370 C   0  0  0  0  0  0  0  0  0  0  0  0
   60.6670   31.6390   47.4770 C   0  0  0  0  0  0  0  0  0  0  0  0
   59.4740   32.2960   47.1060 C   0  0  0  0  0  0  0  0  0  0  0  0
   59.5230   33.5970   46.5580 C   0  0  0  0  0  0  0  0  0  0  0  0
   60.7200   34.2320   46.3810 N   0  0  0  0  0  0  0  0  0  0  0  0
   61.8640   33.5950   46.7390 C   0  0  0  0  0  0  0  0  0  0  0  0
   63.1080   34.0910   46.6440 N   0  0  0  0  0  0  0  0  0  0  0  0
   63.9190   33.1250   47.1340 C   0  0  0  0  0  0  0  0  0  0  0  0
   63.1810   32.0160   47.5400 C   0  0  0  0  0  0  0  0  0  0  0  0
   61.8630   32.3370   47.2720 C   0  0  0  0  0  0  0  0  0  0  0  0
   60.5150   31.7208   52.0495 H   0  0  0  0  0  0  0  0  0  0  0  0
   60.4263   32.9378   50.7313 H   0  0  0  0  0  0  0  0  0  0  0  0
   59.3096   31.5308   50.7313 H   0  0  0  0  0  0  0  0  0  0  0  0
   61.1701   28.5148   50.9377 H   0  0  0  0  0  0  0  0  0  0  0  0
   60.6853   26.6102   49.4099 H   0  0  0  0  0  0  0  0  0  0  0  0
   60.6720   26.9041   45.8002 H   0  0  0  0  0  0  0  0  0  0  0  0
   60.4882   25.7941   47.2029 H   0  0  0  0  0  0  0  0  0  0  0  0
   58.5001   28.5438   45.5111 H   0  0  0  0  0  0  0  0  0  0  0  0
   56.0434   28.3701   45.1288 H   0  0  0  0  0  0  0  0  0  0  0  0
   55.8139   24.1268   48.2330 H   0  0  0  0  0  0  0  0  0  0  0  0
   54.7841   24.1701   46.7618 H   0  0  0  0  0  0  0  0  0  0  0  0
   56.3110   23.2239   46.7618 H   0  0  0  0  0  0  0  0  0  0  0  0
   58.4910   24.6231   47.3489 H   0  0  0  0  0  0  0  0  0  0  0  0
   60.0775   29.3764   46.1433 H   0  0  0  0  0  0  0  0  0  0  0  0
   58.5049   31.7942   47.2438 H   0  0  0  0  0  0  0  0  0  0  0  0
   58.5895   34.1034   46.2712 H   0  0  0  0  0  0  0  0  0  0  0  0
   60.7510   35.1950   45.9790 H   0  0  0  0  0  0  0  0  0  0  0  0
   63.3930   35.0260   46.2790 H   0  0  0  0  0  0  0  0  0  0  0  0
   65.0140   33.2049   47.2024 H   0  0  0  0  0  0  0  0  0  0  0  0
   63.5647   31.0837   47.9800 H   0  0  0  0  0  0  0  0  0  0  0  0
  1  2  1  0
  2  3  1  0
  3  4  2  0
  4  5  1  0
  5  6  2  0
  6  7  1  0
  7  8  1  0
  8  9  2  0
  9 10  1  0
 10 11  2  0
 11 12  1  0
 11 13  1  0
 13 14  1  0
 13 15  2  0
  6 16  1  0
 16 17  2  0
 17 18  1  0
 18 19  2  0
 19 20  1  0
 20 21  2  0
 21 22  1  0
 22 23  1  0
 23 24  1  0
 24 25  2  0
 25 26  1  0
 17  3  1  0
 26 18  1  0
 15  8  1  0
 26 22  2  0
  1 27  1  0
  1 28  1  0
  1 29  1  0
  4 30  1  0
  5 31  1  0
  7 32  1  0
  7 33  1  0
  9 34  1  0
 10 35  1  0
 14 36  1  0
 14 37  1  0
 14 38  1  0
 15 39  1  0
 16 40  1  0
 19 41  1  0
 20 42  1  0
 21 43  1  0
 23 44  1  0
 24 45  1  0
 25 46  1  0
M  CHG  2  12  -1  21   1
M  END
>  <UniqueID>  (24) 
20

>  <SMILES>  (24) 
COc1ccc(Cc2ccc([O-])c(C)c2)cc1-c1cc[nH+]c2[nH]ccc12

>  <Energy>  (24) 
87.09949338470334

>  <Genealogy>  (24) 
COc1ccc(Cc2ccc([O-])c(C)c2)cc1-c1cc[nH+]c2[nH]ccc12 (protonated)
COc1ccc(Cc2ccc([O-])c(C)c2)cc1-c1cc[nH+]c2[nH]ccc12 (3D coordinates assigned)
COc1ccc(Cc2ccc([O-])c(C)c2)cc1-c1cc[nH+]c2[nH]ccc12 (optimized conformer: 87.09949338470334 kcal/mol)

>  <smiles>  (24) 
COc1ccc(Cc2ccc(O)c(C)c2)cc1-c1ccnc2[nH]ccc12

>  <score_type>  (24) 
oracle

>  <origin>  (24) 
adg

>  <m_score__min__energy>  (24) 
-10.17

>  <m_primary>  (24) 
energy

$$$$
24:0
     RDKit          3D

 18 18  0  0  0  0  0  0  0  0999 V2000
   57.5190   31.4330   42.9240 C   0  0  0  0  0  0  0  0  0  0  0  0
   56.6260   30.6590   43.1580 C   0  0  0  0  0  0  0  0  0  0  0  0
   55.5380   29.7170   43.4440 C   0  0  0  0  0  0  0  0  0  0  0  0
   55.5570   29.3400   44.8520 N   0  0  0  0  0  0  0  0  0  0  0  0
   56.6690   28.6950   45.4860 C   0  0  0  0  0  0  0  0  0  0  0  0
   57.6770   29.3700   45.8300 O   0  0  0  0  0  0  0  0  0  0  0  0
   56.6420   27.2440   45.7440 C   0  0  0  0  0  0  0  0  0  0  0  0
   57.8150   26.4760   45.7390 C   0  0  0  0  0  0  0  0  0  0  0  0
   57.7360   25.1070   45.9900 C   0  0  0  0  0  0  0  0  0  0  0  0
   56.4890   24.5340   46.2400 C   0  0  0  0  0  0  0  0  0  0  0  0
   56.3890   23.3010   46.4690 O   0  0  0  0  0  0  0  0  0  0  0  0
   55.3800   25.3170   46.2350 N   0  0  0  0  0  0  0  0  0  0  0  0
   55.4540   26.6280   45.9940 N   0  0  0  0  0  0  0  0  0  0  0  0
   58.3344   32.1397   42.7103 H   0  0  0  0  0  0  0  0  0  0  0  0
   54.5744   30.1920   43.2078 H   0  0  0  0  0  0  0  0  0  0  0  0
   55.6724   28.8152   42.8286 H   0  0  0  0  0  0  0  0  0  0  0  0
   58.7878   26.9489   45.5390 H   0  0  0  0  0  0  0  0  0  0  0  0
   58.6447   24.4871   45.9909 H   0  0  0  0  0  0  0  0  0  0  0  0
  1  2  3  0
  2  3  1  0
  3  4  1  0
  4  5  1  0
  5  6  2  0
  5  7  1  0
  7  8  1  0
  8  9  2  0
  9 10  1  0
 10 11  2  0
 10 12  1  0
 12 13  1  0
 13  7  2  0
  1 14  1  0
  3 15  1  0
  3 16  1  0
  8 17  1  0
  9 18  1  0
M  CHG  2   4  -1  12  -1
M  END
>  <UniqueID>  (25) 
21

>  <SMILES>  (25) 
C#CC[N-]C(=O)c1ccc(=O)[n-]n1

>  <Energy>  (25) 
13.305165425505376

>  <Genealogy>  (25) 
C#CC[N-]C(=O)c1ccc(=O)[n-]n1 (protonated)
C#CC[N-]C(=O)c1ccc(=O)[n-]n1 (3D coordinates assigned)
C#CC[N-]C(=O)c1ccc(=O)[n-]n1 (optimized conformer: 13.305165425505376 kcal/mol)

>  <smiles>  (25) 
C#CCNC(=O)c1ccc(=O)[nH]n1

>  <score_type>  (25) 
oracle

>  <origin>  (25) 
adg

>  <m_score__min__energy>  (25) 
-9.1799999999999997

>  <m_primary>  (25) 
energy

$$$$
25:0
     RDKit          3D

 46 48  0  0  0  0  0  0  0  0999 V2000
   59.5030   34.5900   47.7330 C   0  0  0  0  0  0  0  0  0  0  0  0
   58.8820   33.9050   46.5530 C   0  0  0  0  0  0  0  0  0  0  0  0
   57.7720   34.4340   45.8750 C   0  0  0  0  0  0  0  0  0  0  0  0
   57.3790   33.6850   44.7740 C   0  0  0  0  0  0  0  0  0  0  0  0
   58.4210   32.3760   44.6270 S   0  0  0  0  0  0  0  0  0  0  0  0
   59.3740   32.7350   45.9670 C   0  0  0  0  0  0  0  0  0  0  0  0
   60.5820   31.9470   46.3790 C   0  0  0  0  0  0  0  0  0  0  0  0
   60.1900   30.6110   46.8450 N   0  0  0  0  0  0  0  0  0  0  0  0
   59.7990   30.4200   48.2470 C   0  0  0  0  0  0  0  0  0  0  0  0
   61.0400   30.2470   49.1260 C   0  0  0  0  0  0  0  0  0  0  0  0
   61.8450   31.5170   49.1630 C   0  0  0  0  0  0  0  0  0  0  0  0
   63.0640   31.6030   48.4700 C   0  0  0  0  0  0  0  0  0  0  0  0
   63.8280   32.7730   48.5310 C   0  0  0  0  0  0  0  0  0  0  0  0
   63.3850   33.8590   49.2900 C   0  0  0  0  0  0  0  0  0  0  0  0
   62.1810   33.7760   49.9950 C   0  0  0  0  0  0  0  0  0  0  0  0
   61.4140   32.6080   49.9360 C   0  0  0  0  0  0  0  0  0  0  0  0
   59.9890   29.5390   45.9020 C   0  0  0  0  0  0  0  0  0  0  0  0
   60.9150   29.2380   45.1000 O   0  0  0  0  0  0  0  0  0  0  0  0
   58.7090   28.7990   45.8400 C   0  0  0  0  0  0  0  0  0  0  0  0
   58.6360   27.4720   46.2950 C   0  0  0  0  0  0  0  0  0  0  0  0
   57.4290   26.7700   46.2350 C   0  0  0  0  0  0  0  0  0  0  0  0
   56.2850   27.3800   45.7110 C   0  0  0  0  0  0  0  0  0  0  0  0
   55.0910   26.6690   45.6660 O   0  0  0  0  0  0  0  0  0  0  0  0
   56.3500   28.6990   45.2360 C   0  0  0  0  0  0  0  0  0  0  0  0
   55.2280   29.3280   44.6980 O   0  0  0  0  0  0  0  0  0  0  0  0
   57.5600   29.4010   45.2980 C   0  0  0  0  0  0  0  0  0  0  0  0
   59.1066   34.1527   48.6613 H   0  0  0  0  0  0  0  0  0  0  0  0
   60.5944   34.4567   47.7018 H   0  0  0  0  0  0  0  0  0  0  0  0
   59.2636   35.6632   47.7018 H   0  0  0  0  0  0  0  0  0  0  0  0
   57.2610   35.3567   46.1873 H   0  0  0  0  0  0  0  0  0  0  0  0
   56.5304   33.9103   44.1114 H   0  0  0  0  0  0  0  0  0  0  0  0
   61.2592   31.8458   45.5181 H   0  0  0  0  0  0  0  0  0  0  0  0
   61.0887   32.4757   47.1999 H   0  0  0  0  0  0  0  0  0  0  0  0
   59.2321   31.2986   48.5885 H   0  0  0  0  0  0  0  0  0  0  0  0
   59.1767   29.5163   48.3249 H   0  0  0  0  0  0  0  0  0  0  0  0
   60.7257   29.9885   50.1480 H   0  0  0  0  0  0  0  0  0  0  0  0
   61.6634   29.4446   48.7046 H   0  0  0  0  0  0  0  0  0  0  0  0
   63.4189   30.7470   47.8772 H   0  0  0  0  0  0  0  0  0  0  0  0
   64.7784   32.8381   47.9809 H   0  0  0  0  0  0  0  0  0  0  0  0
   63.9844   34.7804   49.3328 H   0  0  0  0  0  0  0  0  0  0  0  0
   61.8364   34.6300   50.5967 H   0  0  0  0  0  0  0  0  0  0  0  0
   60.4699   32.5434   50.4968 H   0  0  0  0  0  0  0  0  0  0  0  0
   59.5338   26.9827   46.7007 H   0  0  0  0  0  0  0  0  0  0  0  0
   57.3787   25.7340   46.6013 H   0  0  0  0  0  0  0  0  0  0  0  0
   54.3740   28.8230   44.4950 H   0  0  0  0  0  0  0  0  0  0  0  0
   57.6119   30.4325   44.9193 H   0  0  0  0  0  0  0  0  0  0  0  0
  1  2  1  0
  2  3  1  0
  3  4  2  0
  4  5  1  0
  5  6  1  0
  6  7  1  0
  7  8  1  0
  8  9  1  0
  9 10  1  0
 10 11  1  0
 11 12  2  0
 12 13  1  0
 13 14  2  0
 14 15  1  0
 15 16  2  0
  8 17  1  0
 17 18  2  0
 17 19  1  0
 19 20  2  0
 20 21  1  0
 21 22  2  0
 22 23  1  0
 22 24  1  0
 24 25  1  0
 24 26  2  0
  6  2  2  0
 16 11  1  0
 26 19  1  0
  1 27  1  0
  1 28  1  0
  1 29  1  0
  3 30  1  0
  4 31  1  0
  7 32  1  0
  7 33  1  0
  9 34  1  0
  9 35  1  0
 10 36  1  0
 10 37  1  0
 12 38  1  0
 13 39  1  0
 14 40  1  0
 15 41  1  0
 16 42  1  0
 20 43  1  0
 21 44  1  0
 25 45  1  0
 26 46  1  0
M  CHG  1  23  -1
M  END
>  <UniqueID>  (26) 
22

>  <SMILES>  (26) 
Cc1ccsc1CN(CCc1ccccc1)C(=O)c1ccc([O-])c(O)c1

>  <Energy>  (26) 
71.49781827133587

>  <Genealogy>  (26) 
Cc1ccsc1CN(CCc1ccccc1)C(=O)c1ccc([O-])c(O)c1 (protonated)
Cc1ccsc1CN(CCc1ccccc1)C(=O)c1ccc([O-])c(O)c1 (3D coordinates assigned)
Cc1ccsc1CN(CCc1ccccc1)C(=O)c1ccc([O-])c(O)c1 (optimized conformer: 71.49781827133587 kcal/mol)

>  <smiles>  (26) 
Cc1ccsc1CN(CCc1ccccc1)C(=O)c1ccc(O)c(O)c1

>  <score_type>  (26) 
oracle

>  <origin>  (26) 
adg

>  <m_score__min__energy>  (26) 
-12.109999999999999

>  <m_primary>  (26) 
energy

$$$$
26:0
     RDKit          3D

 48 51  0  0  0  0  0  0  0  0999 V2000
   58.5110   28.9680   49.0530 C   0  0  0  0  0  0  0  0  0  0  0  0
   59.3540   30.1990   48.9220 C   0  0  0  0  0  0  0  0  0  0  0  0
   59.0350   31.2720   49.6410 O   0  0  0  0  0  0  0  0  0  0  0  0
   59.7330   32.4010   49.6120 C   0  0  0  0  0  0  0  0  0  0  0  0
   59.3630   33.3650   50.3350 O   0  0  0  0  0  0  0  0  0  0  0  0
   60.8670   32.5140   48.7870 C   0  0  0  0  0  0  0  0  0  0  0  0
   61.6330   33.6930   48.7400 C   0  0  0  0  0  0  0  0  0  0  0  0
   62.7490   33.7730   47.9020 C   0  0  0  0  0  0  0  0  0  0  0  0
   63.1000   32.6880   47.0970 C   0  0  0  0  0  0  0  0  0  0  0  0
   62.3440   31.5140   47.1290 C   0  0  0  0  0  0  0  0  0  0  0  0
   61.2340   31.4060   47.9880 C   0  0  0  0  0  0  0  0  0  0  0  0
   60.4790   30.2210   48.0780 C   0  0  0  0  0  0  0  0  0  0  0  0
   60.8610   29.0400   47.3620 N   0  0  0  0  0  0  0  0  0  0  0  0
   60.3000   28.7300   45.7520 S   0  0  0  0  0  0  0  0  0  0  0  0
   59.7580   29.9950   45.1500 O   0  0  0  0  0  0  0  0  0  0  0  0
   61.4620   28.2660   44.9190 O   0  0  0  0  0  0  0  0  0  0  0  0
   59.0440   27.4820   45.7570 C   0  0  0  0  0  0  0  0  0  0  0  0
   59.4130   26.1330   45.6450 C   0  0  0  0  0  0  0  0  0  0  0  0
   58.4510   25.1230   45.7170 C   0  0  0  0  0  0  0  0  0  0  0  0
   58.9680   23.4460   45.5970 Cl  0  0  0  0  0  0  0  0  0  0  0  0
   57.1010   25.4560   45.8960 C   0  0  0  0  0  0  0  0  0  0  0  0
   55.8600   24.2140   45.9950 Cl  0  0  0  0  0  0  0  0  0  0  0  0
   56.7230   26.7980   46.0030 C   0  0  0  0  0  0  0  0  0  0  0  0
   57.6870   27.8210   45.9380 C   0  0  0  0  0  0  0  0  0  0  0  0
   57.3190   29.2020   46.0710 N   0  0  0  0  0  0  0  0  0  0  0  0
   57.0010   30.2920   44.7610 S   0  0  0  0  0  0  0  0  0  0  0  0
   57.5350   29.7000   43.4870 O   0  0  0  0  0  0  0  0  0  0  0  0
   55.5160   30.4780   44.6270 O   0  0  0  0  0  0  0  0  0  0  0  0
   57.7480   31.8500   45.0910 C   0  0  0  0  0  0  0  0  0  0  0  0
   58.2820   32.6190   44.0470 C   0  0  0  0  0  0  0  0  0  0  0  0
   58.8810   33.8530   44.3200 C   0  0  0  0  0  0  0  0  0  0  0  0
   58.9480   34.3240   45.6370 C   0  0  0  0  0  0  0  0  0  0  0  0
   59.6990   35.8720   45.9790 Cl  0  0  0  0  0  0  0  0  0  0  0  0
   58.4140   33.5590   46.6800 C   0  0  0  0  0  0  0  0  0  0  0  0
   57.8150   32.3260   46.4080 C   0  0  0  0  0  0  0  0  0  0  0  0
   58.3559   28.7415   50.1182 H   0  0  0  0  0  0  0  0  0  0  0  0
   57.5380   29.1367   48.5685 H   0  0  0  0  0  0  0  0  0  0  0  0
   59.0200   28.1217   48.5685 H   0  0  0  0  0  0  0  0  0  0  0  0
   61.3530   34.5543   49.3644 H   0  0  0  0  0  0  0  0  0  0  0  0
   63.3518   34.6928   47.8769 H   0  0  0  0  0  0  0  0  0  0  0  0
   63.9755   32.7579   46.4348 H   0  0  0  0  0  0  0  0  0  0  0  0
   62.6174   30.6693   46.4795 H   0  0  0  0  0  0  0  0  0  0  0  0
   60.4706   25.8681   45.4990 H   0  0  0  0  0  0  0  0  0  0  0  0
   55.6625   27.0563   46.1392 H   0  0  0  0  0  0  0  0  0  0  0  0
   58.2297   32.2511   43.0117 H   0  0  0  0  0  0  0  0  0  0  0  0
   59.2998   34.4541   43.4994 H   0  0  0  0  0  0  0  0  0  0  0  0
   58.4658   33.9285   47.7148 H   0  0  0  0  0  0  0  0  0  0  0  0
   57.3949   31.7273   47.2296 H   0  0  0  0  0  0  0  0  0  0  0  0
  1  2  1  0
  2  3  1  0
  3  4  1  0
  4  5  2  0
  4  6  1  0
  6  7  2  0
  7  8  1  0
  8  9  2  0
  9 10  1  0
 10 11  2  0
 11 12  1  0
 12 13  1  0
 13 14  1  0
 14 15  2  0
 14 16  2  0
 14 17  1  0
 17 18  2  0
 18 19  1  0
 19 20  1  0
 19 21  2  0
 21 22  1  0
 21 23  1  0
 23 24  2  0
 24 25  1  0
 25 26  1  0
 26 27  2  0
 26 28  2  0
 26 29  1  0
 29 30  2  0
 30 31  1  0
 31 32  2  0
 32 33  1  0
 32 34  1  0
 34 35  2  0
 12  2  2  0
 24 17  1  0
 35 29  1  0
 11  6  1  0
  1 36  1  0
  1 37  1  0
  1 38  1  0
  7 39  1  0
  8 40  1  0
  9 41  1  0
 10 42  1  0
 18 43  1  0
 23 44  1  0
 30 45  1  0
 31 46  1  0
 34 47  1  0
 35 48  1  0
M  CHG  2  13  -1  25  -1
M  END
>  <UniqueID>  (27) 
23

>  <SMILES>  (27) 
Cc1oc(=O)c2ccccc2c1[N-]S(=O)(=O)c1cc(Cl)c(Cl)cc1[N-]S(=O)(=O)c1ccc(Cl)cc1

>  <Energy>  (27) 
68.18279307874153

>  <Genealogy>  (27) 
Cc1oc(=O)c2ccccc2c1[N-]S(=O)(=O)c1cc(Cl)c(Cl)cc1[N-]S(=O)(=O)c1ccc(Cl)cc1 (protonated)
Cc1oc(=O)c2ccccc2c1[N-]S(=O)(=O)c1cc(Cl)c(Cl)cc1[N-]S(=O)(=O)c1ccc(Cl)cc1 (3D coordinates assigned)
Cc1oc(=O)c2ccccc2c1[N-]S(=O)(=O)c1cc(Cl)c(Cl)cc1[N-]S(=O)(=O)c1ccc(Cl)cc1 (optimized conformer: 68.18279307874153 kcal/mol)

>  <smiles>  (27) 
Cc1oc(=O)c2ccccc2c1NS(=O)(=O)c1cc(Cl)c(Cl)cc1NS(=O)(=O)c1ccc(Cl)cc1

>  <score_type>  (27) 
oracle

>  <origin>  (27) 
adg

>  <m_score__min__energy>  (27) 
-11.949999999999999

>  <m_primary>  (27) 
energy

$$$$
27:0
     RDKit          3D

 39 41  0  0  0  0  0  0  0  0999 V2000
   51.0190   33.1270   51.9740 O   0  0  0  0  0  0  0  0  0  0  0  0
   51.3800   32.2300   51.1670 C   0  0  0  0  0  0  0  0  0  0  0  0
   51.0210   32.3220   49.8280 O   0  0  0  0  0  0  0  0  0  0  0  0
   52.1580   31.0500   51.6560 C   0  0  0  0  0  0  0  0  0  0  0  0
   53.5890   31.3410   51.6280 N   0  0  0  0  0  0  0  0  0  0  0  0
   54.5750   30.3720   52.0200 C   0  0  0  0  0  0  0  0  0  0  0  0
   54.2160   29.1970   52.3060 O   0  0  0  0  0  0  0  0  0  0  0  0
   56.0110   30.7110   52.0870 C   0  0  0  0  0  0  0  0  0  0  0  0
   56.5670   31.6220   52.9880 C   0  0  0  0  0  0  0  0  0  0  0  0
   58.2250   31.6750   52.7140 S   0  0  0  0  0  0  0  0  0  0  0  0
   58.1700   30.5430   51.4760 C   0  0  0  0  0  0  0  0  0  0  0  0
   59.3560   30.0600   50.7030 C   0  0  0  0  0  0  0  0  0  0  0  0
   59.2290   30.4310   49.2940 N   0  0  0  0  0  0  0  0  0  0  0  0
   59.2820   31.6880   48.8840 N   0  0  0  0  0  0  0  0  0  0  0  0
   59.1890   31.6960   47.5390 C   0  0  0  0  0  0  0  0  0  0  0  0
   59.2150   32.9340   46.7220 C   0  0  0  0  0  0  0  0  0  0  0  0
   59.9010   34.0700   47.1930 C   0  0  0  0  0  0  0  0  0  0  0  0
   59.9350   35.2440   46.4350 C   0  0  0  0  0  0  0  0  0  0  0  0
   59.2880   35.2990   45.1980 C   0  0  0  0  0  0  0  0  0  0  0  0
   59.3220   36.4380   44.4640 F   0  0  0  0  0  0  0  0  0  0  0  0
   58.6040   34.1790   44.7190 C   0  0  0  0  0  0  0  0  0  0  0  0
   58.5670   33.0030   45.4740 C   0  0  0  0  0  0  0  0  0  0  0  0
   59.0800   30.3930   47.0780 C   0  0  0  0  0  0  0  0  0  0  0  0
   59.1140   29.6140   48.2180 C   0  0  0  0  0  0  0  0  0  0  0  0
   59.0490   28.1380   48.2240 C   0  0  0  0  0  0  0  0  0  0  0  0
   58.1150   27.5240   47.6480 O   0  0  0  0  0  0  0  0  0  0  0  0
   60.0360   27.4090   48.8760 O   0  0  0  0  0  0  0  0  0  0  0  0
   56.9090   30.1170   51.2530 N   0  0  0  0  0  0  0  0  0  0  0  0
   51.8549   30.8174   52.6875 H   0  0  0  0  0  0  0  0  0  0  0  0
   51.9543   30.1900   51.0010 H   0  0  0  0  0  0  0  0  0  0  0  0
   53.8850   32.2740   51.2640 H   0  0  0  0  0  0  0  0  0  0  0  0
   56.0172   32.2024   53.7435 H   0  0  0  0  0  0  0  0  0  0  0  0
   60.2684   30.5141   51.1170 H   0  0  0  0  0  0  0  0  0  0  0  0
   59.4117   28.9642   50.7808 H   0  0  0  0  0  0  0  0  0  0  0  0
   60.4142   34.0333   48.1652 H   0  0  0  0  0  0  0  0  0  0  0  0
   60.4722   36.1262   46.8132 H   0  0  0  0  0  0  0  0  0  0  0  0
   58.0934   34.2226   43.7456 H   0  0  0  0  0  0  0  0  0  0  0  0
   58.0274   32.1247   45.0900 H   0  0  0  0  0  0  0  0  0  0  0  0
   58.9871   30.0546   46.0355 H   0  0  0  0  0  0  0  0  0  0  0  0
  1  2  2  0
  2  3  1  0
  2  4  1  0
  4  5  1  0
  5  6  1  0
  6  7  2  0
  6  8  1  0
  8  9  2  0
  9 10  1  0
 10 11  1  0
 11 12  1  0
 12 13  1  0
 13 14  1  0
 14 15  2  0
 15 16  1  0
 16 17  2  0
 17 18  1  0
 18 19  2  0
 19 20  1  0
 19 21  1  0
 21 22  2  0
 15 23  1  0
 23 24  2  0
 24 25  1  0
 25 26  2  0
 25 27  1  0
 11 28  2  0
 28  8  1  0
 24 13  1  0
 22 16  1  0
  4 29  1  0
  4 30  1  0
  5 31  1  0
  9 32  1  0
 12 33  1  0
 12 34  1  0
 17 35  1  0
 18 36  1  0
 21 37  1  0
 22 38  1  0
 23 39  1  0
M  CHG  2   3  -1  27  -1
M  END
>  <UniqueID>  (28) 
24

>  <SMILES>  (28) 
O=C([O-])CNC(=O)c1csc(Cn2nc(-c3ccc(F)cc3)cc2C(=O)[O-])n1

>  <Energy>  (28) 
98.48488354592365

>  <Genealogy>  (28) 
O=C([O-])CNC(=O)c1csc(Cn2nc(-c3ccc(F)cc3)cc2C(=O)[O-])n1 (protonated)
O=C([O-])CNC(=O)c1csc(Cn2nc(-c3ccc(F)cc3)cc2C(=O)[O-])n1 (3D coordinates assigned)
O=C([O-])CNC(=O)c1csc(Cn2nc(-c3ccc(F)cc3)cc2C(=O)[O-])n1 (optimized conformer: 98.48488354592365 kcal/mol)

>  <smiles>  (28) 
O=C(O)CNC(=O)c1csc(Cn2nc(-c3ccc(F)cc3)cc2C(=O)O)n1

>  <score_type>  (28) 
oracle

>  <origin>  (28) 
adg

>  <m_score__min__energy>  (28) 
-13.369999999999999

>  <m_primary>  (28) 
energy

$$$$
28:0
     RDKit          3D

 46 47  0  0  0  0  0  0  0  0999 V2000
   63.7410   32.9310   47.5150 C   0  0  0  0  0  0  0  0  0  0  0  0
   62.8540   31.7330   47.8470 C   0  0  0  0  0  0  0  0  0  0  0  0
   61.5220   31.7540   47.0810 C   0  0  0  0  0  0  0  0  0  0  0  0
   60.6450   30.5810   47.4300 C   0  0  0  0  0  0  0  0  0  0  0  0
   60.2910   29.5970   46.4910 C   0  0  0  0  0  0  0  0  0  0  0  0
   59.4280   28.6320   46.9970 C   0  0  0  0  0  0  0  0  0  0  0  0
   58.9200   27.4650   46.2560 C   0  0  0  0  0  0  0  0  0  0  0  0
   59.3450   26.3170   46.5490 O   0  0  0  0  0  0  0  0  0  0  0  0
   57.9240   27.5950   45.2370 N   0  0  0  0  0  0  0  0  0  0  0  0
   57.7960   28.7470   44.3490 C   0  0  0  0  0  0  0  0  0  0  0  0
   56.5890   29.5500   44.7390 C   0  0  0  0  0  0  0  0  0  0  0  0
   55.5200   28.9460   45.0120 O   0  0  0  0  0  0  0  0  0  0  0  0
   56.5940   30.9830   44.7500 N   0  0  0  0  0  0  0  0  0  0  0  0
   57.6430   31.8210   44.1800 C   0  0  0  0  0  0  0  0  0  0  0  0
   57.3980   33.2870   44.5340 C   0  0  0  0  0  0  0  0  0  0  0  0
   58.2640   33.7210   45.6890 C   0  0  0  0  0  0  0  0  0  0  0  0
   58.0260   33.2170   46.9800 C   0  0  0  0  0  0  0  0  0  0  0  0
   58.8520   33.5870   48.0450 C   0  0  0  0  0  0  0  0  0  0  0  0
   59.9260   34.4560   47.8280 C   0  0  0  0  0  0  0  0  0  0  0  0
   60.1770   34.9520   46.5460 C   0  0  0  0  0  0  0  0  0  0  0  0
   59.3520   34.5840   45.4790 C   0  0  0  0  0  0  0  0  0  0  0  0
   59.1230   28.9810   48.6160 S   0  0  0  0  0  0  0  0  0  0  0  0
   60.0650   30.3730   48.6850 C   0  0  0  0  0  0  0  0  0  0  0  0
   60.2420   31.2150   49.9070 C   0  0  0  0  0  0  0  0  0  0  0  0
   64.0881   33.3998   48.4476 H   0  0  0  0  0  0  0  0  0  0  0  0
   64.6087   32.5936   46.9291 H   0  0  0  0  0  0  0  0  0  0  0  0
   63.1651   33.6625   46.9291 H   0  0  0  0  0  0  0  0  0  0  0  0
   63.3952   30.8112   47.5875 H   0  0  0  0  0  0  0  0  0  0  0  0
   62.6215   31.7780   48.9212 H   0  0  0  0  0  0  0  0  0  0  0  0
   60.9862   32.6824   47.3280 H   0  0  0  0  0  0  0  0  0  0  0  0
   61.7502   31.6963   46.0065 H   0  0  0  0  0  0  0  0  0  0  0  0
   60.6613   29.5911   45.4552 H   0  0  0  0  0  0  0  0  0  0  0  0
   58.6957   29.3746   44.4311 H   0  0  0  0  0  0  0  0  0  0  0  0
   57.6842   28.3987   43.3116 H   0  0  0  0  0  0  0  0  0  0  0  0
   58.6174   31.5078   44.5831 H   0  0  0  0  0  0  0  0  0  0  0  0
   57.6360   31.7100   43.0856 H   0  0  0  0  0  0  0  0  0  0  0  0
   57.6289   33.9111   43.6581 H   0  0  0  0  0  0  0  0  0  0  0  0
   56.3439   33.4033   44.8261 H   0  0  0  0  0  0  0  0  0  0  0  0
   57.1858   32.5283   47.1525 H   0  0  0  0  0  0  0  0  0  0  0  0
   58.6573   33.1946   49.0540 H   0  0  0  0  0  0  0  0  0  0  0  0
   60.5738   34.7493   48.6673 H   0  0  0  0  0  0  0  0  0  0  0  0
   61.0244   35.6325   46.3762 H   0  0  0  0  0  0  0  0  0  0  0  0
   59.5560   34.9722   44.4702 H   0  0  0  0  0  0  0  0  0  0  0  0
   60.1110   30.5917   50.8039 H   0  0  0  0  0  0  0  0  0  0  0  0
   61.2516   31.6517   49.9083 H   0  0  0  0  0  0  0  0  0  0  0  0
   59.4937   32.0213   49.9083 H   0  0  0  0  0  0  0  0  0  0  0  0
  1  2  1  0
  2  3  1  0
  3  4  1  0
  4  5  1  0
  5  6  2  0
  6  7  1  0
  7  8  2  0
  7  9  1  0
  9 10  1  0
 10 11  1  0
 11 12  2  0
 11 13  1  0
 13 14  1  0
 14 15  1  0
 15 16  1  0
 16 17  2  0
 17 18  1  0
 18 19  2  0
 19 20  1  0
 20 21  2  0
  6 22  1  0
 22 23  1  0
 23 24  1  0
 23  4  2  0
 21 16  1  0
  1 25  1  0
  1 26  1  0
  1 27  1  0
  2 28  1  0
  2 29  1  0
  3 30  1  0
  3 31  1  0
  5 32  1  0
 10 33  1  0
 10 34  1  0
 14 35  1  0
 14 36  1  0
 15 37  1  0
 15 38  1  0
 17 39  1  0
 18 40  1  0
 19 41  1  0
 20 42  1  0
 21 43  1  0
 24 44  1  0
 24 45  1  0
 24 46  1  0
M  CHG  2   9  -1  13  -1
M  END
>  <UniqueID>  (29) 
25

>  <SMILES>  (29) 
CCCc1cc(C(=O)[N-]CC(=O)[N-]CCc2ccccc2)sc1C

>  <Energy>  (29) 
60.99076312807693

>  <Genealogy>  (29) 
CCCc1cc(C(=O)[N-]CC(=O)[N-]CCc2ccccc2)sc1C (protonated)
CCCc1cc(C(=O)[N-]CC(=O)[N-]CCc2ccccc2)sc1C (3D coordinates assigned)
CCCc1cc(C(=O)[N-]CC(=O)[N-]CCc2ccccc2)sc1C (optimized conformer: 60.99076312807693 kcal/mol)

>  <smiles>  (29) 
CCCc1cc(C(=O)NCC(=O)NCCc2ccccc2)sc1C

>  <score_type>  (29) 
oracle

>  <origin>  (29) 
adg

>  <m_score__min__energy>  (29) 
-11.99

>  <m_primary>  (29) 
energy

$$$$
29:0
     RDKit          3D

 46 48  0  0  0  0  0  0  0  0999 V2000
   59.0800   26.1140   46.3670 C   0  0  0  0  0  0  0  0  0  0  0  0
   58.2980   27.2910   45.8500 C   0  0  0  0  0  0  0  0  0  0  0  0
   56.9100   27.3530   45.7830 C   0  0  0  0  0  0  0  0  0  0  0  0
   55.9300   26.3070   46.1300 C   0  0  0  0  0  0  0  0  0  0  0  0
   54.7620   26.3320   45.6600 O   0  0  0  0  0  0  0  0  0  0  0  0
   56.2910   25.2780   46.9930 O   0  0  0  0  0  0  0  0  0  0  0  0
   56.5860   28.6230   45.3510 C   0  0  0  0  0  0  0  0  0  0  0  0
   57.7810   29.2840   45.1530 C   0  0  0  0  0  0  0  0  0  0  0  0
   57.8780   30.7110   44.7850 C   0  0  0  0  0  0  0  0  0  0  0  0
   57.8370   31.6950   45.7860 C   0  0  0  0  0  0  0  0  0  0  0  0
   57.9340   33.0480   45.4480 C   0  0  0  0  0  0  0  0  0  0  0  0
   58.0590   33.4260   44.1080 C   0  0  0  0  0  0  0  0  0  0  0  0
   58.0800   32.4530   43.1060 C   0  0  0  0  0  0  0  0  0  0  0  0
   57.9850   31.0980   43.4410 C   0  0  0  0  0  0  0  0  0  0  0  0
   58.8290   28.4740   45.4430 N   0  0  0  0  0  0  0  0  0  0  0  0
   60.2410   28.8770   45.5060 C   0  0  0  0  0  0  0  0  0  0  0  0
   60.5320   29.5060   46.8290 C   0  0  0  0  0  0  0  0  0  0  0  0
   60.6200   28.7850   47.8590 O   0  0  0  0  0  0  0  0  0  0  0  0
   60.5950   30.9340   46.9210 N   0  0  0  0  0  0  0  0  0  0  0  0
   60.1700   31.7530   48.0190 C   0  0  0  0  0  0  0  0  0  0  0  0
   60.4370   33.1330   48.0730 C   0  0  0  0  0  0  0  0  0  0  0  0
   59.9920   33.8890   49.1600 C   0  0  0  0  0  0  0  0  0  0  0  0
   59.2670   33.2850   50.1900 C   0  0  0  0  0  0  0  0  0  0  0  0
   58.9670   31.9180   50.1290 C   0  0  0  0  0  0  0  0  0  0  0  0
   58.0560   31.1520   51.4260 S   0  0  0  0  0  0  0  0  0  0  0  0
   56.5460   31.9670   51.6340 N   0  0  0  0  0  0  0  0  0  0  0  0
   58.8410   31.2160   52.7070 O   0  0  0  0  0  0  0  0  0  0  0  0
   57.8060   29.7090   51.0880 O   0  0  0  0  0  0  0  0  0  0  0  0
   59.4200   31.1580   49.0420 C   0  0  0  0  0  0  0  0  0  0  0  0
   59.0734   26.1240   47.4669 H   0  0  0  0  0  0  0  0  0  0  0  0
   58.6211   25.1818   46.0060 H   0  0  0  0  0  0  0  0  0  0  0  0
   60.1172   26.1758   46.0060 H   0  0  0  0  0  0  0  0  0  0  0  0
   55.5753   29.0282   45.1953 H   0  0  0  0  0  0  0  0  0  0  0  0
   57.7281   31.4000   46.8401 H   0  0  0  0  0  0  0  0  0  0  0  0
   57.9120   33.8149   46.2362 H   0  0  0  0  0  0  0  0  0  0  0  0
   58.1409   34.4903   43.8425 H   0  0  0  0  0  0  0  0  0  0  0  0
   58.1714   32.7527   42.0516 H   0  0  0  0  0  0  0  0  0  0  0  0
   57.9942   30.3347   42.6490 H   0  0  0  0  0  0  0  0  0  0  0  0
   60.8793   27.9908   45.3753 H   0  0  0  0  0  0  0  0  0  0  0  0
   60.4459   29.6043   44.7065 H   0  0  0  0  0  0  0  0  0  0  0  0
   60.9965   33.6170   47.2589 H   0  0  0  0  0  0  0  0  0  0  0  0
   60.2136   34.9655   49.2052 H   0  0  0  0  0  0  0  0  0  0  0  0
   58.9313   33.8834   51.0498 H   0  0  0  0  0  0  0  0  0  0  0  0
   55.9080   31.6230   50.8820 H   0  0  0  0  0  0  0  0  0  0  0  0
   56.7160   32.9800   51.4430 H   0  0  0  0  0  0  0  0  0  0  0  0
   59.1846   30.0847   48.9916 H   0  0  0  0  0  0  0  0  0  0  0  0
  1  2  1  0
  2  3  2  0
  3  4  1  0
  4  5  2  0
  4  6  1  0
  3  7  1  0
  7  8  2  0
  8  9  1  0
  9 10  2  0
 10 11  1  0
 11 12  2  0
 12 13  1  0
 13 14  2  0
  8 15  1  0
 15 16  1  0
 16 17  1  0
 17 18  2  0
 17 19  1  0
 19 20  1  0
 20 21  2  0
 21 22  1  0
 22 23  2  0
 23 24  1  0
 24 25  1  0
 25 26  1  0
 25 27  2  0
 25 28  2  0
 24 29  2  0
 15  2  1  0
 29 20  1  0
 14  9  1  0
  1 30  1  0
  1 31  1  0
  1 32  1  0
  7 33  1  0
 10 34  1  0
 11 35  1  0
 12 36  1  0
 13 37  1  0
 14 38  1  0
 16 39  1  0
 16 40  1  0
 21 41  1  0
 22 42  1  0
 23 43  1  0
 26 44  1  0
 26 45  1  0
 29 46  1  0
M  CHG  2   6  -1  19  -1
M  END
>  <UniqueID>  (30) 
26

>  <SMILES>  (30) 
Cc1c(C(=O)[O-])cc(-c2ccccc2)n1CC(=O)[N-]c1cccc(S(N)(=O)=O)c1

>  <Energy>  (30) 
80.31598672083412

>  <Genealogy>  (30) 
Cc1c(C(=O)[O-])cc(-c2ccccc2)n1CC(=O)[N-]c1cccc(S(N)(=O)=O)c1 (protonated)
Cc1c(C(=O)[O-])cc(-c2ccccc2)n1CC(=O)[N-]c1cccc(S(N)(=O)=O)c1 (3D coordinates assigned)
Cc1c(C(=O)[O-])cc(-c2ccccc2)n1CC(=O)[N-]c1cccc(S(N)(=O)=O)c1 (optimized conformer: 80.31598672083412 kcal/mol)

>  <smiles>  (30) 
Cc1c(C(=O)O)cc(-c2ccccc2)n1CC(=O)Nc1cccc(S(N)(=O)=O)c1

>  <score_type>  (30) 
oracle

>  <origin>  (30) 
adg

>  <m_score__min__energy>  (30) 
-12.83

>  <m_primary>  (30) 
energy

$$$$
30:0
     RDKit          3D

 49 51  0  0  0  0  0  0  0  0999 V2000
   57.2800   34.1680   44.9370 C   0  0  0  0  0  0  0  0  0  0  0  0
   58.5080   33.4830   45.1550 O   0  0  0  0  0  0  0  0  0  0  0  0
   58.6160   32.1730   45.6500 C   0  0  0  0  0  0  0  0  0  0  0  0
   58.3510   31.0540   44.8350 C   0  0  0  0  0  0  0  0  0  0  0  0
   58.4530   29.7610   45.3500 C   0  0  0  0  0  0  0  0  0  0  0  0
   58.8000   29.5590   46.6870 C   0  0  0  0  0  0  0  0  0  0  0  0
   58.8860   28.2200   47.1900 N   0  0  0  0  0  0  0  0  0  0  0  0
   58.8070   27.0280   46.3970 C   0  0  0  0  0  0  0  0  0  0  0  0
   59.8480   26.6200   45.8150 O   0  0  0  0  0  0  0  0  0  0  0  0
   57.5300   26.3030   46.1970 C   0  0  0  0  0  0  0  0  0  0  0  0
   57.4950   24.9000   46.1220 C   0  0  0  0  0  0  0  0  0  0  0  0
   56.2790   24.2360   45.9660 C   0  0  0  0  0  0  0  0  0  0  0  0
   55.0980   24.9780   45.8960 C   0  0  0  0  0  0  0  0  0  0  0  0
   53.9900   24.3950   45.7630 O   0  0  0  0  0  0  0  0  0  0  0  0
   55.1420   26.3340   45.9740 N   0  0  0  0  0  0  0  0  0  0  0  0
   56.3160   27.0050   46.1240 C   0  0  0  0  0  0  0  0  0  0  0  0
   59.0950   30.6660   47.4980 C   0  0  0  0  0  0  0  0  0  0  0  0
   59.0010   31.9700   46.9930 C   0  0  0  0  0  0  0  0  0  0  0  0
   59.3720   33.3320   48.0660 S   0  0  0  0  0  0  0  0  0  0  0  0
   58.7590   33.1030   49.4190 O   0  0  0  0  0  0  0  0  0  0  0  0
   58.7610   34.5820   47.4960 O   0  0  0  0  0  0  0  0  0  0  0  0
   61.0970   33.5500   48.2490 N   0  0  0  0  0  0  0  0  0  0  0  0
   61.7490   33.4870   46.9260 C   0  0  0  0  0  0  0  0  0  0  0  0
   63.1350   32.8190   46.9530 C   0  0  0  0  0  0  0  0  0  0  0  0
   64.1630   33.5250   47.8560 C   0  0  0  0  0  0  0  0  0  0  0  0
   64.1790   33.0680   49.3360 C   0  0  0  0  0  0  0  0  0  0  0  0
   62.8110   33.1410   50.0400 C   0  0  0  0  0  0  0  0  0  0  0  0
   61.6420   32.5640   49.2050 C   0  0  0  0  0  0  0  0  0  0  0  0
   56.8248   34.4219   45.9057 H   0  0  0  0  0  0  0  0  0  0  0  0
   57.4705   35.0902   44.3684 H   0  0  0  0  0  0  0  0  0  0  0  0
   56.5954   33.5214   44.3684 H   0  0  0  0  0  0  0  0  0  0  0  0
   58.0613   31.2011   43.7841 H   0  0  0  0  0  0  0  0  0  0  0  0
   58.2589   28.8961   44.6987 H   0  0  0  0  0  0  0  0  0  0  0  0
   58.4299   24.3240   46.1866 H   0  0  0  0  0  0  0  0  0  0  0  0
   56.2502   23.1384   45.8987 H   0  0  0  0  0  0  0  0  0  0  0  0
   56.3142   28.1031   46.1884 H   0  0  0  0  0  0  0  0  0  0  0  0
   59.4035   30.5083   48.5420 H   0  0  0  0  0  0  0  0  0  0  0  0
   61.1007   32.9152   46.2458 H   0  0  0  0  0  0  0  0  0  0  0  0
   61.8973   34.5239   46.5900 H   0  0  0  0  0  0  0  0  0  0  0  0
   63.0126   31.7867   47.3126 H   0  0  0  0  0  0  0  0  0  0  0  0
   63.5292   32.8715   45.9274 H   0  0  0  0  0  0  0  0  0  0  0  0
   65.1633   33.3448   47.4353 H   0  0  0  0  0  0  0  0  0  0  0  0
   63.8717   34.5856   47.8716 H   0  0  0  0  0  0  0  0  0  0  0  0
   64.5282   32.0255   49.3702 H   0  0  0  0  0  0  0  0  0  0  0  0
   64.8445   33.7613   49.8711 H   0  0  0  0  0  0  0  0  0  0  0  0
   62.8758   32.5757   50.9814 H   0  0  0  0  0  0  0  0  0  0  0  0
   62.5919   34.2070   50.2005 H   0  0  0  0  0  0  0  0  0  0  0  0
   62.0052   31.6904   48.6439 H   0  0  0  0  0  0  0  0  0  0  0  0
   60.8357   32.2874   49.9002 H   0  0  0  0  0  0  0  0  0  0  0  0
  1  2  1  0
  2  3  1  0
  3  4  2  0
  4  5  1  0
  5  6  2  0
  6  7  1  0
  7  8  1  0
  8  9  2  0
  8 10  1  0
 10 11  1  0
 11 12  2  0
 12 13  1  0
 13 14  2  0
 13 15  1  0
 15 16  1  0
  6 17  1  0
 17 18  2  0
 18 19  1  0
 19 20  2  0
 19 21  2  0
 19 22  1  0
 22 23  1  0
 23 24  1  0
 24 25  1  0
 25 26  1  0
 26 27  1  0
 27 28  1  0
 18  3  1  0
 28 22  1  0
 16 10  2  0
  1 29  1  0
  1 30  1  0
  1 31  1  0
  4 32  1  0
  5 33  1  0
 11 34  1  0
 12 35  1  0
 16 36  1  0
 17 37  1  0
 23 38  1  0
 23 39  1  0
 24 40  1  0
 24 41  1  0
 25 42  1  0
 25 43  1  0
 26 44  1  0
 26 45  1  0
 27 46  1  0
 27 47  1  0
 28 48  1  0
 28 49  1  0
M  CHG  2   7  -1  15  -1
M  END
>  <UniqueID>  (31) 
27

>  <SMILES>  (31) 
COc1ccc([N-]C(=O)c2ccc(=O)[n-]c2)cc1S(=O)(=O)N1CCCCCC1

>  <Energy>  (31) 
62.220206825617325

>  <Genealogy>  (31) 
COc1ccc([N-]C(=O)c2ccc(=O)[n-]c2)cc1S(=O)(=O)N1CCCCCC1 (protonated)
COc1ccc([N-]C(=O)c2ccc(=O)[n-]c2)cc1S(=O)(=O)N1CCCCCC1 (3D coordinates assigned)
COc1ccc([N-]C(=O)c2ccc(=O)[n-]c2)cc1S(=O)(=O)N1CCCCCC1 (nonaromatic ring conformer: 62.220206825617325 kcal/mol)

>  <smiles>  (31) 
COc1ccc(NC(=O)c2ccc(=O)[nH]c2)cc1S(=O)(=O)N1CCCCCC1

>  <score_type>  (31) 
oracle

>  <origin>  (31) 
adg

>  <m_score__min__energy>  (31) 
-9.2799999999999994

>  <m_primary>  (31) 
energy

$$$$
31:0
     RDKit          3D

 43 45  0  0  1  0  0  0  0  0999 V2000
   59.2830   32.8140   49.4840 C   0  0  0  0  0  0  0  0  0  0  0  0
   59.2170   33.9280   48.6350 O   0  0  0  0  0  0  0  0  0  0  0  0
   58.8960   33.8140   47.3180 C   0  0  0  0  0  0  0  0  0  0  0  0
   59.2970   34.8230   46.4500 C   0  0  0  0  0  0  0  0  0  0  0  0
   58.9980   34.7640   45.1010 C   0  0  0  0  0  0  0  0  0  0  0  0
   58.2930   33.7170   44.5320 C   0  0  0  0  0  0  0  0  0  0  0  0
   57.8930   32.7110   45.3960 C   0  0  0  0  0  0  0  0  0  0  0  0
   57.1340   31.5720   44.8510 C   0  0  0  0  0  0  0  0  0  0  0  0
   55.9020   31.4960   44.8560 O   0  0  0  0  0  0  0  0  0  0  0  0
   57.9020   30.4890   44.2840 N   0  0  0  0  0  0  0  0  0  0  0  0
   57.6550   29.2960   44.6710 C   0  0  0  0  0  0  0  0  0  0  0  0
   58.2400   28.0970   44.3300 C   0  0  0  0  0  0  0  0  0  0  0  0
   57.5760   27.1130   44.9780 C   0  0  0  0  0  0  0  0  0  0  0  0
   57.7730   25.6660   45.0380 C   0  0  0  0  0  0  0  0  0  0  0  0
   58.4210   25.1070   45.9550 O   0  0  0  0  0  0  0  0  0  0  0  0
   57.2190   24.8640   44.0280 N   0  0  0  0  0  0  0  0  0  0  0  0
   57.2810   23.4330   43.9010 C   0  0  1  0  0  0  0  0  0  0  0  0
   56.7930   22.7350   45.1530 C   0  0  0  0  0  0  0  0  0  0  0  0
   56.3910   21.3660   44.6130 C   0  0  0  0  0  0  0  0  0  0  0  0
   56.2590   21.4930   43.1910 N   0  0  0  0  0  0  0  0  0  0  0  0
   56.1910   22.9250   42.9100 C   0  0  0  0  0  0  0  0  0  0  0  0
   56.5950   27.7250   45.7070 N   0  0  0  0  0  0  0  0  0  0  0  0
   56.6320   29.0250   45.5330 N   0  0  0  0  0  0  0  0  0  0  0  0
   58.1910   32.7560   46.7640 C   0  0  0  0  0  0  0  0  0  0  0  0
   59.2631   33.1495   50.5314 H   0  0  0  0  0  0  0  0  0  0  0  0
   58.4223   32.1562   49.2933 H   0  0  0  0  0  0  0  0  0  0  0  0
   60.2154   32.2624   49.2933 H   0  0  0  0  0  0  0  0  0  0  0  0
   59.8611   35.6820   46.8423 H   0  0  0  0  0  0  0  0  0  0  0  0
   59.3352   35.5852   44.4514 H   0  0  0  0  0  0  0  0  0  0  0  0
   58.0639   33.6859   43.4566 H   0  0  0  0  0  0  0  0  0  0  0  0
   59.0953   27.9633   43.6513 H   0  0  0  0  0  0  0  0  0  0  0  0
   56.6830   25.3610   43.2550 H   0  0  0  0  0  0  0  0  0  0  0  0
   58.3265   23.2286   43.6269 H   0  0  0  0  0  0  0  0  0  0  0  0
   57.5941   22.6503   45.9020 H   0  0  0  0  0  0  0  0  0  0  0  0
   55.9796   23.2656   45.6696 H   0  0  0  0  0  0  0  0  0  0  0  0
   57.1656   20.6233   44.8547 H   0  0  0  0  0  0  0  0  0  0  0  0
   55.4457   21.0305   45.0644 H   0  0  0  0  0  0  0  0  0  0  0  0
   57.1240   21.1470   42.7180 H   0  0  0  0  0  0  0  0  0  0  0  0
   56.4492   23.1509   41.8649 H   0  0  0  0  0  0  0  0  0  0  0  0
   55.1971   23.3799   43.0335 H   0  0  0  0  0  0  0  0  0  0  0  0
   55.8860   27.2520   46.3470 H   0  0  0  0  0  0  0  0  0  0  0  0
   55.9770   29.7110   45.9910 H   0  0  0  0  0  0  0  0  0  0  0  0
   57.8582   31.9332   47.4138 H   0  0  0  0  0  0  0  0  0  0  0  0
  1  2  1  0
  2  3  1  0
  3  4  2  0
  4  5  1  0
  5  6  2  0
  6  7  1  0
  7  8  1  0
  8  9  2  0
  8 10  1  0
 10 11  2  0
 11 12  1  0
 12 13  2  0
 13 14  1  0
 14 15  2  0
 14 16  1  0
 16 17  1  0
 17 18  1  0
 18 19  1  0
 19 20  1  0
 20 21  1  0
 13 22  1  0
 22 23  1  0
  7 24  2  0
 24  3  1  0
 23 11  1  0
 21 17  1  0
  1 25  1  0
  1 26  1  0
  1 27  1  0
  4 28  1  0
  5 29  1  0
  6 30  1  0
 12 31  1  0
 16 32  1  0
 17 33  1  6
 18 34  1  0
 18 35  1  0
 19 36  1  0
 19 37  1  0
 20 38  1  0
 21 39  1  0
 21 40  1  0
 22 41  1  0
 23 42  1  0
 24 43  1  0
M  END
>  <smiles>  (32) 
COc1cccc(C(=O)N=c2cc(C(=O)NC3CCNC3)[nH][nH]2)c1

>  <score_type>  (32) 
oracle

>  <origin>  (32) 
adg

>  <m_score__min__energy>  (32) 
-8.6799999999999997

>  <m_primary>  (32) 
energy

$$$$
32:0
     RDKit          3D

 51 53  0  0  0  0  0  0  0  0999 V2000
   63.7820   33.9810   51.7580 C   0  0  0  0  0  0  0  0  0  0  0  0
   63.2240   34.2660   50.4780 O   0  0  0  0  0  0  0  0  0  0  0  0
   63.0810   33.3390   49.4330 C   0  0  0  0  0  0  0  0  0  0  0  0
   63.7950   33.4900   48.2280 C   0  0  0  0  0  0  0  0  0  0  0  0
   63.6380   32.5740   47.1890 C   0  0  0  0  0  0  0  0  0  0  0  0
   62.7800   31.4880   47.3370 C   0  0  0  0  0  0  0  0  0  0  0  0
   62.0500   31.3180   48.5270 C   0  0  0  0  0  0  0  0  0  0  0  0
   61.1850   30.2280   48.7180 O   0  0  0  0  0  0  0  0  0  0  0  0
   61.2220   29.3520   49.8390 C   0  0  0  0  0  0  0  0  0  0  0  0
   62.1870   32.2450   49.5750 C   0  0  0  0  0  0  0  0  0  0  0  0
   61.3650   32.0550   50.7000 O   0  0  0  0  0  0  0  0  0  0  0  0
   60.1570   32.7480   51.0160 C   0  0  0  0  0  0  0  0  0  0  0  0
   59.5670   33.4050   49.8040 C   0  0  0  0  0  0  0  0  0  0  0  0
   59.3280   34.6420   49.8350 O   0  0  0  0  0  0  0  0  0  0  0  0
   59.4020   32.6600   48.5860 N   0  0  0  0  0  0  0  0  0  0  0  0
   59.2110   33.2890   47.3090 C   0  0  0  0  0  0  0  0  0  0  0  0
   59.8440   34.5160   47.0580 C   0  0  0  0  0  0  0  0  0  0  0  0
   59.6430   35.1820   45.8460 C   0  0  0  0  0  0  0  0  0  0  0  0
   58.8110   34.6270   44.8730 C   0  0  0  0  0  0  0  0  0  0  0  0
   58.1970   33.3920   45.0990 C   0  0  0  0  0  0  0  0  0  0  0  0
   58.4180   32.7000   46.2970 C   0  0  0  0  0  0  0  0  0  0  0  0
   57.8340   31.4360   46.4540 O   0  0  0  0  0  0  0  0  0  0  0  0
   58.3360   30.2380   45.9160 C   0  0  0  0  0  0  0  0  0  0  0  0
   59.6610   29.8270   46.1640 C   0  0  0  0  0  0  0  0  0  0  0  0
   60.1700   28.6730   45.5720 C   0  0  0  0  0  0  0  0  0  0  0  0
   59.3740   27.9180   44.7150 C   0  0  0  0  0  0  0  0  0  0  0  0
   58.0550   28.3010   44.4660 C   0  0  0  0  0  0  0  0  0  0  0  0
   57.5150   29.4580   45.0630 C   0  0  0  0  0  0  0  0  0  0  0  0
   56.1070   29.8350   44.7710 C   0  0  0  0  0  0  0  0  0  0  0  0
   55.1920   28.9700   44.8290 O   0  0  0  0  0  0  0  0  0  0  0  0
   55.7650   31.1400   44.4400 O   0  0  0  0  0  0  0  0  0  0  0  0
   63.0960   34.3314   52.5433 H   0  0  0  0  0  0  0  0  0  0  0  0
   63.9318   32.8960   51.8593 H   0  0  0  0  0  0  0  0  0  0  0  0
   64.7489   34.4957   51.8593 H   0  0  0  0  0  0  0  0  0  0  0  0
   64.4833   34.3393   48.1057 H   0  0  0  0  0  0  0  0  0  0  0  0
   64.1938   32.7098   46.2495 H   0  0  0  0  0  0  0  0  0  0  0  0
   62.6725   30.7596   46.5197 H   0  0  0  0  0  0  0  0  0  0  0  0
   61.1971   29.9425   50.7667 H   0  0  0  0  0  0  0  0  0  0  0  0
   60.3514   28.6803   49.8084 H   0  0  0  0  0  0  0  0  0  0  0  0
   62.1461   28.7561   49.8084 H   0  0  0  0  0  0  0  0  0  0  0  0
   59.4295   32.0306   51.4234 H   0  0  0  0  0  0  0  0  0  0  0  0
   60.3907   33.5302   51.7532 H   0  0  0  0  0  0  0  0  0  0  0  0
   59.6900   31.6550   48.5810 H   0  0  0  0  0  0  0  0  0  0  0  0
   60.5030   34.9566   47.8206 H   0  0  0  0  0  0  0  0  0  0  0  0
   60.1412   36.1447   45.6589 H   0  0  0  0  0  0  0  0  0  0  0  0
   58.6382   35.1619   43.9274 H   0  0  0  0  0  0  0  0  0  0  0  0
   57.5366   32.9609   44.3321 H   0  0  0  0  0  0  0  0  0  0  0  0
   60.3000   30.4234   46.8318 H   0  0  0  0  0  0  0  0  0  0  0  0
   61.2027   28.3579   45.7822 H   0  0  0  0  0  0  0  0  0  0  0  0
   59.7850   27.0185   44.2334 H   0  0  0  0  0  0  0  0  0  0  0  0
   57.4297   27.6927   43.7960 H   0  0  0  0  0  0  0  0  0  0  0  0
  1  2  1  0
  2  3  1  0
  3  4  2  0
  4  5  1  0
  5  6  2  0
  6  7  1  0
  7  8  1  0
  8  9  1  0
  7 10  2  0
 10 11  1  0
 11 12  1  0
 12 13  1  0
 13 14  2  0
 13 15  1  0
 15 16  1  0
 16 17  2  0
 17 18  1  0
 18 19  2  0
 19 20  1  0
 20 21  2  0
 21 22  1  0
 22 23  1  0
 23 24  2  0
 24 25  1  0
 25 26  2  0
 26 27  1  0
 27 28  2  0
 28 29  1  0
 29 30  2  0
 29 31  1  0
 10  3  1  0
 21 16  1  0
 28 23  1  0
  1 32  1  0
  1 33  1  0
  1 34  1  0
  4 35  1  0
  5 36  1  0
  6 37  1  0
  9 38  1  0
  9 39  1  0
  9 40  1  0
 12 41  1  0
 12 42  1  0
 15 43  1  0
 17 44  1  0
 18 45  1  0
 19 46  1  0
 20 47  1  0
 24 48  1  0
 25 49  1  0
 26 50  1  0
 27 51  1  0
M  CHG  1  31  -1
M  END
>  <UniqueID>  (33) 
28

>  <SMILES>  (33) 
COc1cccc(OC)c1OCC(=O)Nc1ccccc1Oc1ccccc1C(=O)[O-]

>  <Energy>  (33) 
66.2050753080589

>  <Genealogy>  (33) 
COc1cccc(OC)c1OCC(=O)Nc1ccccc1Oc1ccccc1C(=O)[O-] (protonated)
COc1cccc(OC)c1OCC(=O)Nc1ccccc1Oc1ccccc1C(=O)[O-] (3D coordinates assigned)
COc1cccc(OC)c1OCC(=O)Nc1ccccc1Oc1ccccc1C(=O)[O-] (optimized conformer: 66.2050753080589 kcal/mol)

>  <smiles>  (33) 
COc1cccc(OC)c1OCC(=O)Nc1ccccc1Oc1ccccc1C(=O)O

>  <score_type>  (33) 
oracle

>  <origin>  (33) 
adg

>  <m_score__min__energy>  (33) 
-10.289999999999999

>  <m_primary>  (33) 
energy

$$$$
33:0
     RDKit          3D

 25 26  0  0  0  0  0  0  0  0999 V2000
   55.8750   28.8590   45.1980 O   0  0  0  0  0  0  0  0  0  0  0  0
   57.0260   28.3540   45.2780 C   0  0  0  0  0  0  0  0  0  0  0  0
   58.1540   29.1550   44.9020 N   0  0  0  0  0  0  0  0  0  0  0  0
   58.2070   30.5890   44.9310 C   0  0  0  0  0  0  0  0  0  0  0  0
   58.8390   31.2290   46.0070 C   0  0  0  0  0  0  0  0  0  0  0  0
   59.5810   30.3010   47.3040 Cl  0  0  0  0  0  0  0  0  0  0  0  0
   58.9090   32.6240   46.0370 C   0  0  0  0  0  0  0  0  0  0  0  0
   58.3520   33.3610   45.0380 N   0  0  0  0  0  0  0  0  0  0  0  0
   58.4310   34.7340   45.0880 O   0  0  0  0  0  0  0  0  0  0  0  0
   57.7030   32.7670   44.0000 C   0  0  0  0  0  0  0  0  0  0  0  0
   57.6060   31.3740   43.9260 C   0  0  0  0  0  0  0  0  0  0  0  0
   56.6570   30.6680   42.6240 Cl  0  0  0  0  0  0  0  0  0  0  0  0
   57.1810   26.9720   45.7950 C   0  0  0  0  0  0  0  0  0  0  0  0
   58.4650   26.4210   45.9630 C   0  0  0  0  0  0  0  0  0  0  0  0
   58.6220   25.1210   46.4510 C   0  0  0  0  0  0  0  0  0  0  0  0
   57.5010   24.3600   46.7890 C   0  0  0  0  0  0  0  0  0  0  0  0
   57.6590   23.0680   47.2750 O   0  0  0  0  0  0  0  0  0  0  0  0
   56.2210   24.8990   46.6410 C   0  0  0  0  0  0  0  0  0  0  0  0
   56.0560   26.1990   46.1480 C   0  0  0  0  0  0  0  0  0  0  0  0
   54.7690   26.7060   45.9980 O   0  0  0  0  0  0  0  0  0  0  0  0
   59.4167   33.1289   46.8721 H   0  0  0  0  0  0  0  0  0  0  0  0
   57.2509   33.3878   43.2125 H   0  0  0  0  0  0  0  0  0  0  0  0
   59.3526   27.0187   45.7080 H   0  0  0  0  0  0  0  0  0  0  0  0
   59.6299   24.6966   46.5690 H   0  0  0  0  0  0  0  0  0  0  0  0
   55.3394   24.3000   46.9128 H   0  0  0  0  0  0  0  0  0  0  0  0
  1  2  2  0
  2  3  1  0
  3  4  1  0
  4  5  2  0
  5  6  1  0
  5  7  1  0
  7  8  2  0
  8  9  1  0
  8 10  1  0
 10 11  2  0
 11 12  1  0
  2 13  1  0
 13 14  2  0
 14 15  1  0
 15 16  2  0
 16 17  1  0
 16 18  1  0
 18 19  2  0
 19 20  1  0
 11  4  1  0
 19 13  1  0
  7 21  1  0
 10 22  1  0
 14 23  1  0
 15 24  1  0
 18 25  1  0
M  CHG  5   3  -1   8   1   9  -1  17  -1  20  -1
M  END
>  <UniqueID>  (34) 
29

>  <SMILES>  (34) 
O=C([N-]c1c(Cl)c[n+]([O-])cc1Cl)c1ccc([O-])cc1[O-]

>  <Energy>  (34) 
37.70400165620889

>  <Genealogy>  (34) 
O=C([N-]c1c(Cl)c[n+]([O-])cc1Cl)c1ccc([O-])cc1[O-] (protonated)
O=C([N-]c1c(Cl)c[n+]([O-])cc1Cl)c1ccc([O-])cc1[O-] (3D coordinates assigned)
O=C([N-]c1c(Cl)c[n+]([O-])cc1Cl)c1ccc([O-])cc1[O-] (optimized conformer: 37.70400165620889 kcal/mol)

>  <smiles>  (34) 
O=C(Nc1c(Cl)c[n+]([O-])cc1Cl)c1ccc(O)cc1O

>  <score_type>  (34) 
oracle

>  <origin>  (34) 
adg

>  <m_score__min__energy>  (34) 
-13.789999999999999

>  <m_primary>  (34) 
energy

$$$$
34:0
     RDKit          3D

 49 51  0  0  0  0  0  0  0  0999 V2000
   60.2270   28.6460   49.9920 C   0  0  0  0  0  0  0  0  0  0  0  0
   59.3610   29.8300   50.3350 C   0  0  0  0  0  0  0  0  0  0  0  0
   58.9770   30.0230   51.6740 C   0  0  0  0  0  0  0  0  0  0  0  0
   58.1780   31.1100   52.0360 C   0  0  0  0  0  0  0  0  0  0  0  0
   57.7560   32.0190   51.0680 C   0  0  0  0  0  0  0  0  0  0  0  0
   58.1470   31.8580   49.7390 C   0  0  0  0  0  0  0  0  0  0  0  0
   58.9660   30.7800   49.3560 C   0  0  0  0  0  0  0  0  0  0  0  0
   59.3690   30.6500   47.9070 C   0  0  0  0  0  0  0  0  0  0  0  0
   58.3050   30.0690   47.1580 O   0  0  0  0  0  0  0  0  0  0  0  0
   58.3300   28.7810   46.6030 C   0  0  0  0  0  0  0  0  0  0  0  0
   59.3360   27.8500   46.9350 C   0  0  0  0  0  0  0  0  0  0  0  0
   59.3610   26.5900   46.3320 C   0  0  0  0  0  0  0  0  0  0  0  0
   58.3930   26.2470   45.3870 C   0  0  0  0  0  0  0  0  0  0  0  0
   57.3920   27.1600   45.0510 C   0  0  0  0  0  0  0  0  0  0  0  0
   57.3360   28.4140   45.6720 C   0  0  0  0  0  0  0  0  0  0  0  0
   56.3180   29.3350   45.2580 N   0  0  0  0  0  0  0  0  0  0  0  0
   56.3270   30.1360   44.0700 C   0  0  0  0  0  0  0  0  0  0  0  0
   55.6530   29.7530   43.0770 O   0  0  0  0  0  0  0  0  0  0  0  0
   56.9970   31.4820   44.0200 C   0  0  0  0  0  0  0  0  0  0  0  0
   57.1880   32.0250   45.3650 N   0  0  0  0  0  0  0  0  0  0  0  0
   57.6350   33.3720   45.5700 C   0  0  0  0  0  0  0  0  0  0  0  0
   57.8140   34.1350   44.5800 O   0  0  0  0  0  0  0  0  0  0  0  0
   57.9800   33.8440   46.9540 C   0  0  0  0  0  0  0  0  0  0  0  0
   59.4600   33.8400   47.1870 C   0  0  0  0  0  0  0  0  0  0  0  0
   60.4330   33.4950   46.2590 C   0  0  0  0  0  0  0  0  0  0  0  0
   61.7310   33.5280   46.7840 C   0  0  0  0  0  0  0  0  0  0  0  0
   61.7810   33.8850   48.1250 C   0  0  0  0  0  0  0  0  0  0  0  0
   60.2100   34.1580   48.6580 S   0  0  0  0  0  0  0  0  0  0  0  0
   60.5772   28.1672   50.9184 H   0  0  0  0  0  0  0  0  0  0  0  0
   59.6432   27.9229   49.4036 H   0  0  0  0  0  0  0  0  0  0  0  0
   61.0930   28.9833   49.4036 H   0  0  0  0  0  0  0  0  0  0  0  0
   59.3091   29.3109   52.4438 H   0  0  0  0  0  0  0  0  0  0  0  0
   57.8817   31.2485   53.0862 H   0  0  0  0  0  0  0  0  0  0  0  0
   57.1133   32.8651   51.3525 H   0  0  0  0  0  0  0  0  0  0  0  0
   57.8113   32.5819   48.9818 H   0  0  0  0  0  0  0  0  0  0  0  0
   59.5989   31.6464   47.5015 H   0  0  0  0  0  0  0  0  0  0  0  0
   60.2572   30.0051   47.8345 H   0  0  0  0  0  0  0  0  0  0  0  0
   60.1060   28.1177   47.6736 H   0  0  0  0  0  0  0  0  0  0  0  0
   60.1448   25.8672   46.6025 H   0  0  0  0  0  0  0  0  0  0  0  0
   58.4188   25.2575   44.9071 H   0  0  0  0  0  0  0  0  0  0  0  0
   56.6414   26.8925   44.2927 H   0  0  0  0  0  0  0  0  0  0  0  0
   57.9773   31.3775   43.5321 H   0  0  0  0  0  0  0  0  0  0  0  0
   56.3545   32.1714   43.4526 H   0  0  0  0  0  0  0  0  0  0  0  0
   57.0250   31.4180   46.2010 H   0  0  0  0  0  0  0  0  0  0  0  0
   57.6009   34.8681   47.0864 H   0  0  0  0  0  0  0  0  0  0  0  0
   57.5168   33.1561   47.6767 H   0  0  0  0  0  0  0  0  0  0  0  0
   60.2075   33.2233   45.2172 H   0  0  0  0  0  0  0  0  0  0  0  0
   62.6265   33.2932   46.1900 H   0  0  0  0  0  0  0  0  0  0  0  0
   62.6925   33.9740   48.7343 H   0  0  0  0  0  0  0  0  0  0  0  0
  1  2  1  0
  2  3  2  0
  3  4  1  0
  4  5  2  0
  5  6  1  0
  6  7  2  0
  7  8  1  0
  8  9  1  0
  9 10  1  0
 10 11  2  0
 11 12  1  0
 12 13  2  0
 13 14  1  0
 14 15  2  0
 15 16  1  0
 16 17  1  0
 17 18  2  0
 17 19  1  0
 19 20  1  0
 20 21  1  0
 21 22  2  0
 21 23  1  0
 23 24  1  0
 24 25  2  0
 25 26  1  0
 26 27  2  0
 27 28  1  0
  7  2  1  0
 15 10  1  0
 28 24  1  0
  1 29  1  0
  1 30  1  0
  1 31  1  0
  3 32  1  0
  4 33  1  0
  5 34  1  0
  6 35  1  0
  8 36  1  0
  8 37  1  0
 11 38  1  0
 12 39  1  0
 13 40  1  0
 14 41  1  0
 19 42  1  0
 19 43  1  0
 20 44  1  0
 23 45  1  0
 23 46  1  0
 25 47  1  0
 26 48  1  0
 27 49  1  0
M  CHG  1  16  -1
M  END
>  <UniqueID>  (35) 
30

>  <SMILES>  (35) 
Cc1ccccc1COc1ccccc1[N-]C(=O)CNC(=O)Cc1cccs1

>  <Energy>  (35) 
75.44490190080683

>  <Genealogy>  (35) 
Cc1ccccc1COc1ccccc1[N-]C(=O)CNC(=O)Cc1cccs1 (protonated)
Cc1ccccc1COc1ccccc1[N-]C(=O)CNC(=O)Cc1cccs1 (3D coordinates assigned)
Cc1ccccc1COc1ccccc1[N-]C(=O)CNC(=O)Cc1cccs1 (optimized conformer: 75.44490190080683 kcal/mol)

>  <smiles>  (35) 
Cc1ccccc1COc1ccccc1NC(=O)CNC(=O)Cc1cccs1

>  <score_type>  (35) 
oracle

>  <origin>  (35) 
adg

>  <m_score__min__energy>  (35) 
-10.73

>  <m_primary>  (35) 
energy

$$$$
35:0
     RDKit          3D

 34 35  0  0  0  0  0  0  0  0999 V2000
   58.0250   27.2010   43.4320 C   0  0  0  0  0  0  0  0  0  0  0  0
   57.9670   27.7580   44.7860 N   0  0  0  0  0  0  0  0  0  0  0  0
   57.9820   29.2150   45.0030 C   0  0  0  0  0  0  0  0  0  0  0  0
   56.6120   29.8160   44.8170 C   0  0  0  0  0  0  0  0  0  0  0  0
   55.5980   29.0750   44.9040 O   0  0  0  0  0  0  0  0  0  0  0  0
   56.4180   31.2300   44.6730 N   0  0  0  0  0  0  0  0  0  0  0  0
   57.3380   32.2480   45.0830 C   0  0  0  0  0  0  0  0  0  0  0  0
   57.8660   33.1210   44.1240 C   0  0  0  0  0  0  0  0  0  0  0  0
   58.7830   34.1080   44.5000 C   0  0  0  0  0  0  0  0  0  0  0  0
   59.1910   34.2150   45.8340 C   0  0  0  0  0  0  0  0  0  0  0  0
   58.6910   33.3240   46.7890 C   0  0  0  0  0  0  0  0  0  0  0  0
   57.7760   32.3370   46.4140 C   0  0  0  0  0  0  0  0  0  0  0  0
   57.9180   26.8420   45.8960 C   0  0  0  0  0  0  0  0  0  0  0  0
   58.5800   27.0970   46.9380 O   0  0  0  0  0  0  0  0  0  0  0  0
   57.1100   25.6040   45.8430 C   0  0  0  0  0  0  0  0  0  0  0  0
   57.7450   24.3640   45.6730 C   0  0  0  0  0  0  0  0  0  0  0  0
   56.9930   23.1900   45.6230 C   0  0  0  0  0  0  0  0  0  0  0  0
   55.6070   23.2610   45.7560 C   0  0  0  0  0  0  0  0  0  0  0  0
   55.0010   24.4630   45.9470 N   0  0  0  0  0  0  0  0  0  0  0  0
   55.7090   25.6240   46.0010 C   0  0  0  0  0  0  0  0  0  0  0  0
   55.0980   26.7060   46.2130 O   0  0  0  0  0  0  0  0  0  0  0  0
   58.1388   26.1084   43.4895 H   0  0  0  0  0  0  0  0  0  0  0  0
   57.0966   27.4452   42.8950 H   0  0  0  0  0  0  0  0  0  0  0  0
   58.8832   27.6312   42.8950 H   0  0  0  0  0  0  0  0  0  0  0  0
   58.3261   29.4202   46.0274 H   0  0  0  0  0  0  0  0  0  0  0  0
   58.6600   29.6668   44.2640 H   0  0  0  0  0  0  0  0  0  0  0  0
   57.5587   33.0303   43.0717 H   0  0  0  0  0  0  0  0  0  0  0  0
   59.1840   34.8011   43.7458 H   0  0  0  0  0  0  0  0  0  0  0  0
   59.9037   34.9984   46.1311 H   0  0  0  0  0  0  0  0  0  0  0  0
   59.0184   33.4004   47.8364 H   0  0  0  0  0  0  0  0  0  0  0  0
   57.3974   31.6271   47.1642 H   0  0  0  0  0  0  0  0  0  0  0  0
   58.8400   24.3176   45.5788 H   0  0  0  0  0  0  0  0  0  0  0  0
   57.4885   22.2184   45.4801 H   0  0  0  0  0  0  0  0  0  0  0  0
   55.0028   22.3431   45.7063 H   0  0  0  0  0  0  0  0  0  0  0  0
  1  2  1  0
  2  3  1  0
  3  4  1  0
  4  5  2  0
  4  6  1  0
  6  7  1  0
  7  8  2  0
  8  9  1  0
  9 10  2  0
 10 11  1  0
 11 12  2  0
  2 13  1  0
 13 14  2  0
 13 15  1  0
 15 16  2  0
 16 17  1  0
 17 18  2  0
 18 19  1  0
 19 20  1  0
 20 21  2  0
 12  7  1  0
 20 15  1  0
  1 22  1  0
  1 23  1  0
  1 24  1  0
  3 25  1  0
  3 26  1  0
  8 27  1  0
  9 28  1  0
 10 29  1  0
 11 30  1  0
 12 31  1  0
 16 32  1  0
 17 33  1  0
 18 34  1  0
M  CHG  2   6  -1  19  -1
M  END
>  <UniqueID>  (36) 
31

>  <SMILES>  (36) 
CN(CC(=O)[N-]c1ccccc1)C(=O)c1ccc[n-]c1=O

>  <Energy>  (36) 
45.71000637813836

>  <Genealogy>  (36) 
CN(CC(=O)[N-]c1ccccc1)C(=O)c1ccc[n-]c1=O (protonated)
CN(CC(=O)[N-]c1ccccc1)C(=O)c1ccc[n-]c1=O (3D coordinates assigned)
CN(CC(=O)[N-]c1ccccc1)C(=O)c1ccc[n-]c1=O (optimized conformer: 45.71000637813836 kcal/mol)

>  <smiles>  (36) 
CN(CC(=O)Nc1ccccc1)C(=O)c1ccc[nH]c1=O

>  <score_type>  (36) 
oracle

>  <origin>  (36) 
adg

>  <m_score__min__energy>  (36) 
-10.98

>  <m_primary>  (36) 
energy

$$$$
36:0
     RDKit          3D

 71 75  0  0  0  0  0  0  0  0999 V2000
   62.0361   34.3959   45.7875 H   0  0  0  0  0  0  0  0  0  0  0  0
   62.2450   33.8460   46.7170 C   0  0  0  0  0  0  0  0  0  0  0  0
   63.4810   33.2180   46.8950 C   0  0  0  0  0  0  0  0  0  0  0  0
   64.2439   33.2756   46.1046 H   0  0  0  0  0  0  0  0  0  0  0  0
   63.7510   32.5170   48.0740 C   0  0  0  0  0  0  0  0  0  0  0  0
   64.7184   32.0088   48.2000 H   0  0  0  0  0  0  0  0  0  0  0  0
   62.7900   32.4590   49.1000 C   0  0  0  0  0  0  0  0  0  0  0  0
   63.0420   31.6680   50.3590 C   0  0  0  0  0  0  0  0  0  0  0  0
   62.8481   32.3119   51.2295 H   0  0  0  0  0  0  0  0  0  0  0  0
   64.0877   31.3269   50.3465 H   0  0  0  0  0  0  0  0  0  0  0  0
   62.1780   30.4890   50.4390 N   0  0  0  0  0  0  0  0  0  0  0  0
   61.6840   29.8830   49.3700 N   0  0  0  0  0  0  0  0  0  0  0  0
   60.8500   28.9190   49.8110 C   0  0  0  0  0  0  0  0  0  0  0  0
   60.1540   28.1360   49.0400 N   0  0  0  0  0  0  0  0  0  0  0  0
   59.2930   28.5500   47.9650 C   0  0  0  0  0  0  0  0  0  0  0  0
   59.3000   29.8630   47.4660 C   0  0  0  0  0  0  0  0  0  0  0  0
   59.9748   30.6118   47.9063 H   0  0  0  0  0  0  0  0  0  0  0  0
   58.4550   30.2230   46.4140 C   0  0  0  0  0  0  0  0  0  0  0  0
   58.4480   31.2618   46.0522 H   0  0  0  0  0  0  0  0  0  0  0  0
   57.6150   29.2730   45.8140 C   0  0  0  0  0  0  0  0  0  0  0  0
   56.5350   29.7840   44.5070 S   0  0  0  0  0  0  0  0  0  0  0  0
   56.4950   31.2830   44.4360 O   0  0  0  0  0  0  0  0  0  0  0  0
   55.1470   29.2770   44.7760 O   0  0  0  0  0  0  0  0  0  0  0  0
   57.0570   29.1350   42.9910 N   0  0  0  0  0  0  0  0  0  0  0  0
   56.8650   28.1110   43.0020 H   0  0  0  0  0  0  0  0  0  0  0  0
   58.0920   29.2480   42.9360 H   0  0  0  0  0  0  0  0  0  0  0  0
   57.6540   27.9380   46.2690 C   0  0  0  0  0  0  0  0  0  0  0  0
   56.9130   26.9040   45.6110 N   0  0  0  0  0  0  0  0  0  0  0  0
   56.1090   27.2130   45.0180 H   0  0  0  0  0  0  0  0  0  0  0  0
   56.7900   25.5990   46.2560 C   0  0  0  0  0  0  0  0  0  0  0  0
   56.9732   25.7096   47.3350 H   0  0  0  0  0  0  0  0  0  0  0  0
   55.7760   25.2098   46.0820 H   0  0  0  0  0  0  0  0  0  0  0  0
   57.8120   24.6090   45.6670 C   0  0  0  0  0  0  0  0  0  0  0  0
   58.5241   25.1756   45.0490 H   0  0  0  0  0  0  0  0  0  0  0  0
   58.2921   24.1067   46.5198 H   0  0  0  0  0  0  0  0  0  0  0  0
   57.2150   23.5450   44.8290 N   0  0  0  0  0  0  0  0  0  0  0  0
   58.1400   22.4540   44.4850 C   0  0  0  0  0  0  0  0  0  0  0  0
   58.9040   22.8276   43.7874 H   0  0  0  0  0  0  0  0  0  0  0  0
   58.6271   22.0847   45.3995 H   0  0  0  0  0  0  0  0  0  0  0  0
   57.3550   21.3030   43.8200 C   0  0  0  0  0  0  0  0  0  0  0  0
   57.9390   20.9275   42.9668 H   0  0  0  0  0  0  0  0  0  0  0  0
   57.1986   20.5270   44.5838 H   0  0  0  0  0  0  0  0  0  0  0  0
   56.0760   21.7020   43.3520 O   0  0  0  0  0  0  0  0  0  0  0  0
   56.1680   22.9300   42.6600 C   0  0  0  0  0  0  0  0  0  0  0  0
   56.9544   22.8572   41.8943 H   0  0  0  0  0  0  0  0  0  0  0  0
   55.1997   23.1472   42.1855 H   0  0  0  0  0  0  0  0  0  0  0  0
   56.5140   24.0680   43.6370 C   0  0  0  0  0  0  0  0  0  0  0  0
   57.1633   24.7952   43.1275 H   0  0  0  0  0  0  0  0  0  0  0  0
   55.5794   24.5488   43.9616 H   0  0  0  0  0  0  0  0  0  0  0  0
   58.4850   27.5910   47.3450 C   0  0  0  0  0  0  0  0  0  0  0  0
   58.5013   26.5519   47.7055 H   0  0  0  0  0  0  0  0  0  0  0  0
   60.7810   28.9190   51.1900 C   0  0  0  0  0  0  0  0  0  0  0  0
   60.1721   28.2772   51.8437 H   0  0  0  0  0  0  0  0  0  0  0  0
   61.6600   29.9180   51.5490 C   0  0  0  0  0  0  0  0  0  0  0  0
   61.9100   30.3490   52.8920 N   0  0  0  0  0  0  0  0  0  0  0  0
   62.5560   29.7840   53.4850 H   0  0  0  0  0  0  0  0  0  0  0  0
   61.3580   31.5590   53.4260 C   0  0  0  0  0  0  0  0  0  0  0  0
   61.8270   32.0900   54.6400 C   0  0  0  0  0  0  0  0  0  0  0  0
   62.6319   31.5781   55.1878 H   0  0  0  0  0  0  0  0  0  0  0  0
   61.2740   33.2660   55.1530 C   0  0  0  0  0  0  0  0  0  0  0  0
   61.6404   33.6755   56.1059 H   0  0  0  0  0  0  0  0  0  0  0  0
   60.2550   33.9230   54.4560 C   0  0  0  0  0  0  0  0  0  0  0  0
   59.8303   34.8563   54.8542 H   0  0  0  0  0  0  0  0  0  0  0  0
   59.7750   33.3940   53.2520 C   0  0  0  0  0  0  0  0  0  0  0  0
   58.5070   34.2250   52.3740 Cl  0  0  0  0  0  0  0  0  0  0  0  0
   60.3160   32.2070   52.7480 C   0  0  0  0  0  0  0  0  0  0  0  0
   59.9217   31.7794   51.8144 H   0  0  0  0  0  0  0  0  0  0  0  0
   61.5420   33.0790   48.9040 C   0  0  0  0  0  0  0  0  0  0  0  0
   60.7715   33.0160   49.6866 H   0  0  0  0  0  0  0  0  0  0  0  0
   61.2750   33.7750   47.7200 C   0  0  0  0  0  0  0  0  0  0  0  0
   60.3011   34.2665   47.5788 H   0  0  0  0  0  0  0  0  0  0  0  0
  1  2  1  0
  2  3  2  0
  3  4  1  0
  3  5  1  0
  5  6  1  0
  5  7  2  0
  7  8  1  0
  8  9  1  0
  8 10  1  0
  8 11  1  0
 11 12  1  0
 12 13  1  0
 13 14  2  0
 14 15  1  0
 15 16  2  0
 16 17  1  0
 16 18  1  0
 18 19  1  0
 18 20  2  0
 20 21  1  0
 21 22  2  0
 21 23  2  0
 21 24  1  0
 24 25  1  0
 24 26  1  0
 20 27  1  0
 27 28  1  0
 28 29  1  0
 28 30  1  0
 30 31  1  0
 30 32  1  0
 30 33  1  0
 33 34  1  0
 33 35  1  0
 33 36  1  0
 36 37  1  0
 37 38  1  0
 37 39  1  0
 37 40  1  0
 40 41  1  0
 40 42  1  0
 40 43  1  0
 43 44  1  0
 44 45  1  0
 44 46  1  0
 44 47  1  0
 47 48  1  0
 47 49  1  0
 27 50  2  0
 50 51  1  0
 13 52  1  0
 52 53  1  0
 52 54  2  0
 54 55  1  0
 55 56  1  0
 55 57  1  0
 57 58  2  0
 58 59  1  0
 58 60  1  0
 60 61  1  0
 60 62  2  0
 62 63  1  0
 62 64  1  0
 64 65  1  0
 64 66  2  0
 66 67  1  0
  7 68  1  0
 68 69  1  0
 68 70  2  0
 70 71  1  0
 70  2  1  0
 54 11  1  0
 66 57  1  0
 50 15  1  0
 47 36  1  0
M  CHG  1  12  -1
M  END
>  <UniqueID>  (37) 
32

>  <SMILES>  (37) 
NS(=O)(=O)c1ccc(/N=c2/cc(Nc3cccc(Cl)c3)n(Cc3ccccc3)[n-]2)cc1NCCN1CCOCC1

>  <Energy>  (37) 
132.7793890529236

>  <Genealogy>  (37) 
NS(=O)(=O)c1ccc(N=c2cc(Nc3cccc(Cl)c3)n(Cc3ccccc3)[n-]2)cc1NCCN1CCOCC1 (protonated)
NS(=O)(=O)c1ccc(/N=c2/cc(Nc3cccc(Cl)c3)n(Cc3ccccc3)[n-]2)cc1NCCN1CCOCC1 (cis-trans isomerization)
NS(=O)(=O)c1ccc(/N=c2/cc(Nc3cccc(Cl)c3)n(Cc3ccccc3)[n-]2)cc1NCCN1CCOCC1 (3D coordinates assigned)
NS(=O)(=O)c1ccc(/N=c2/cc(Nc3cccc(Cl)c3)n(Cc3ccccc3)[n-]2)cc1NCCN1CCOCC1 (nonaromatic ring conformer: 132.7793890529236 kcal/mol)

>  <smiles>  (37) 
NS(=O)(=O)c1ccc(N=c2cc(Nc3cccc(Cl)c3)n(Cc3ccccc3)[nH]2)cc1NCCN1CCOCC1

>  <score_type>  (37) 
oracle

>  <origin>  (37) 
adg

>  <m_score__min__energy>  (37) 
-11.99

>  <m_primary>  (37) 
energy

$$$$
37:0
     RDKit          3D

 29 31  0  0  0  0  0  0  0  0999 V2000
   59.8840   26.6210   47.5920 O   0  0  0  0  0  0  0  0  0  0  0  0
   59.7290   27.7150   48.1940 C   0  0  0  0  0  0  0  0  0  0  0  0
   59.0690   28.8120   47.5770 N   0  0  0  0  0  0  0  0  0  0  0  0
   58.9560   29.8760   48.5050 C   0  0  0  0  0  0  0  0  0  0  0  0
   58.5150   31.0030   48.1570 O   0  0  0  0  0  0  0  0  0  0  0  0
   59.4790   29.5630   49.8410 C   0  0  0  0  0  0  0  0  0  0  0  0
   59.4140   30.3260   50.9410 C   0  0  0  0  0  0  0  0  0  0  0  0
   58.1770   30.8350   51.5580 C   0  0  0  0  0  0  0  0  0  0  0  0
   58.0400   31.9760   52.3240 C   0  0  0  0  0  0  0  0  0  0  0  0
   56.6970   32.0710   52.6210 C   0  0  0  0  0  0  0  0  0  0  0  0
   56.0920   30.9860   52.0050 C   0  0  0  0  0  0  0  0  0  0  0  0
   54.6510   30.6380   52.0180 C   0  0  0  0  0  0  0  0  0  0  0  0
   54.2540   29.3610   52.4490 C   0  0  0  0  0  0  0  0  0  0  0  0
   52.9030   29.0090   52.4700 C   0  0  0  0  0  0  0  0  0  0  0  0
   51.9320   29.9250   52.0620 C   0  0  0  0  0  0  0  0  0  0  0  0
   52.3030   31.2080   51.6250 C   0  0  0  0  0  0  0  0  0  0  0  0
   51.2770   32.1820   51.1920 C   0  0  0  0  0  0  0  0  0  0  0  0
   50.6590   32.8800   52.0390 O   0  0  0  0  0  0  0  0  0  0  0  0
   50.9790   32.3400   49.8430 O   0  0  0  0  0  0  0  0  0  0  0  0
   53.6670   31.5560   51.6070 C   0  0  0  0  0  0  0  0  0  0  0  0
   57.0030   30.2770   51.3750 O   0  0  0  0  0  0  0  0  0  0  0  0
   60.3100   27.9710   49.8720 S   0  0  0  0  0  0  0  0  0  0  0  0
   60.3650   30.5949   51.4240 H   0  0  0  0  0  0  0  0  0  0  0  0
   58.8381   32.6668   52.6335 H   0  0  0  0  0  0  0  0  0  0  0  0
   56.2056   32.8490   53.2238 H   0  0  0  0  0  0  0  0  0  0  0  0
   55.0130   28.6333   52.7722 H   0  0  0  0  0  0  0  0  0  0  0  0
   52.6029   28.0066   52.8092 H   0  0  0  0  0  0  0  0  0  0  0  0
   50.8696   29.6407   52.0827 H   0  0  0  0  0  0  0  0  0  0  0  0
   53.9673   32.5582   51.2673 H   0  0  0  0  0  0  0  0  0  0  0  0
  1  2  2  0
  2  3  1  0
  3  4  1  0
  4  5  2  0
  4  6  1  0
  6  7  2  3
  7  8  1  0
  8  9  2  0
  9 10  1  0
 10 11  2  0
 11 12  1  0
 12 13  2  0
 13 14  1  0
 14 15  2  0
 15 16  1  0
 16 17  1  0
 17 18  2  0
 17 19  1  0
 16 20  2  0
 11 21  1  0
  6 22  1  0
 22  2  1  0
 21  8  1  0
 20 12  1  0
  7 23  1  0
  9 24  1  0
 10 25  1  0
 13 26  1  0
 14 27  1  0
 15 28  1  0
 20 29  1  0
M  CHG  2   3  -1  19  -1
M  END
>  <UniqueID>  (38) 
33

>  <SMILES>  (38) 
O=C1[N-]C(=O)C(=Cc2ccc(-c3cccc(C(=O)[O-])c3)o2)S1

>  <Energy>  (38) 
85.28453928510072

>  <Genealogy>  (38) 
O=C1[N-]C(=O)C(=Cc2ccc(-c3cccc(C(=O)[O-])c3)o2)S1 (protonated)
O=C1[N-]C(=O)C(=Cc2ccc(-c3cccc(C(=O)[O-])c3)o2)S1 (3D coordinates assigned)
O=C1[N-]C(=O)C(=Cc2ccc(-c3cccc(C(=O)[O-])c3)o2)S1 (nonaromatic ring conformer: 85.28453928510072 kcal/mol)

>  <smiles>  (38) 
O=C1NC(=O)C(=Cc2ccc(-c3cccc(C(=O)O)c3)o2)S1

>  <score_type>  (38) 
oracle

>  <origin>  (38) 
adg

>  <m_score__min__energy>  (38) 
-11.92

>  <m_primary>  (38) 
energy

$$$$
38:0
     RDKit          3D

 57 61  0  0  0  0  0  0  0  0999 V2000
   56.3800   31.1089   41.8952 H   0  0  0  0  0  0  0  0  0  0  0  0
   56.6790   30.8360   42.9180 C   0  0  0  0  0  0  0  0  0  0  0  0
   56.2280   29.6820   43.4710 N   0  0  0  0  0  0  0  0  0  0  0  0
   56.5930   29.3180   44.7260 C   0  0  0  0  0  0  0  0  0  0  0  0
   56.1560   28.1960   45.2140 N   0  0  0  0  0  0  0  0  0  0  0  0
   56.9520   26.9810   45.3940 C   0  0  0  0  0  0  0  0  0  0  0  0
   58.0088   27.2558   45.5267 H   0  0  0  0  0  0  0  0  0  0  0  0
   56.8376   26.3430   44.5053 H   0  0  0  0  0  0  0  0  0  0  0  0
   56.4720   26.2100   46.6260 C   0  0  0  0  0  0  0  0  0  0  0  0
   56.3065   26.9173   47.4521 H   0  0  0  0  0  0  0  0  0  0  0  0
   57.2401   25.4723   46.9014 H   0  0  0  0  0  0  0  0  0  0  0  0
   55.2640   25.5260   46.3520 O   0  0  0  0  0  0  0  0  0  0  0  0
   55.4800   24.5150   45.3940 C   0  0  0  0  0  0  0  0  0  0  0  0
   55.6835   23.5626   45.9055 H   0  0  0  0  0  0  0  0  0  0  0  0
   54.5842   24.4090   44.7644 H   0  0  0  0  0  0  0  0  0  0  0  0
   56.3409   24.7843   44.7644 H   0  0  0  0  0  0  0  0  0  0  0  0
   57.4070   30.1350   45.4540 N   0  0  0  0  0  0  0  0  0  0  0  0
   57.8720   31.3160   44.9590 C   0  0  0  0  0  0  0  0  0  0  0  0
   58.7260   32.1860   45.8240 C   0  0  0  0  0  0  0  0  0  0  0  0
   58.7370   33.5820   45.6880 C   0  0  0  0  0  0  0  0  0  0  0  0
   58.1019   34.0600   44.9276 H   0  0  0  0  0  0  0  0  0  0  0  0
   59.5430   34.3680   46.5050 C   0  0  0  0  0  0  0  0  0  0  0  0
   59.5516   35.4587   46.3623 H   0  0  0  0  0  0  0  0  0  0  0  0
   60.3430   33.8030   47.5040 C   0  0  0  0  0  0  0  0  0  0  0  0
   60.3280   32.3880   47.6930 C   0  0  0  0  0  0  0  0  0  0  0  0
   59.5190   31.6100   46.8320 C   0  0  0  0  0  0  0  0  0  0  0  0
   59.5100   30.5170   46.9554 H   0  0  0  0  0  0  0  0  0  0  0  0
   61.1080   31.6650   48.7440 C   0  0  0  0  0  0  0  0  0  0  0  0
   60.7430   30.4500   49.3180 C   0  0  0  0  0  0  0  0  0  0  0  0
   59.8588   29.8451   49.0684 H   0  0  0  0  0  0  0  0  0  0  0  0
   61.7090   30.1510   50.2640 C   0  0  0  0  0  0  0  0  0  0  0  0
   61.7170   29.0290   51.2260 C   0  0  0  0  0  0  0  0  0  0  0  0
   60.6550   28.5500   51.9130 N   0  0  0  0  0  0  0  0  0  0  0  0
   59.2620   28.9770   51.8420 C   0  0  0  0  0  0  0  0  0  0  0  0
   58.8636   29.0991   52.8600 H   0  0  0  0  0  0  0  0  0  0  0  0
   59.1992   29.9356   51.3062 H   0  0  0  0  0  0  0  0  0  0  0  0
   58.6728   28.2182   51.3062 H   0  0  0  0  0  0  0  0  0  0  0  0
   61.0700   27.5540   52.6800 N   0  0  0  0  0  0  0  0  0  0  0  0
   62.3890   27.4240   52.4330 C   0  0  0  0  0  0  0  0  0  0  0  0
   63.2740   26.4520   53.1380 C   0  0  0  0  0  0  0  0  0  0  0  0
   63.1615   26.5755   54.2252 H   0  0  0  0  0  0  0  0  0  0  0  0
   62.9924   25.4272   52.8543 H   0  0  0  0  0  0  0  0  0  0  0  0
   64.3207   26.6365   52.8543 H   0  0  0  0  0  0  0  0  0  0  0  0
   62.8250   28.3290   51.5350 N   0  0  0  0  0  0  0  0  0  0  0  0
   63.7990   28.4680   51.1850 H   0  0  0  0  0  0  0  0  0  0  0  0
   62.6210   31.1840   50.2390 C   0  0  0  0  0  0  0  0  0  0  0  0
   63.5107   31.2580   50.8815 H   0  0  0  0  0  0  0  0  0  0  0  0
   62.2590   32.0900   49.3090 N   0  0  0  0  0  0  0  0  0  0  0  0
   62.9160   33.3680   49.0940 C   0  0  0  0  0  0  0  0  0  0  0  0
   63.7782   33.4610   49.7707 H   0  0  0  0  0  0  0  0  0  0  0  0
   63.2719   33.4402   48.0557 H   0  0  0  0  0  0  0  0  0  0  0  0
   61.9180   34.4730   49.3810 C   0  0  0  0  0  0  0  0  0  0  0  0
   61.2751   34.1705   50.2207 H   0  0  0  0  0  0  0  0  0  0  0  0
   62.4682   35.3911   49.6350 H   0  0  0  0  0  0  0  0  0  0  0  0
   61.1090   34.7240   48.2400 O   0  0  0  0  0  0  0  0  0  0  0  0
   57.5210   31.6760   43.6450 C   0  0  0  0  0  0  0  0  0  0  0  0
   57.9048   32.6052   43.1986 H   0  0  0  0  0  0  0  0  0  0  0  0
  1  2  1  0
  2  3  1  0
  3  4  1  0
  4  5  2  0
  5  6  1  0
  6  7  1  0
  6  8  1  0
  6  9  1  0
  9 10  1  0
  9 11  1  0
  9 12  1  0
 12 13  1  0
 13 14  1  0
 13 15  1  0
 13 16  1  0
  4 17  1  0
 17 18  2  0
 18 19  1  0
 19 20  2  0
 20 21  1  0
 20 22  1  0
 22 23  1  0
 22 24  2  0
 24 25  1  0
 25 26  2  0
 26 27  1  0
 25 28  1  0
 28 29  2  0
 29 30  1  0
 29 31  1  0
 31 32  1  0
 32 33  1  0
 33 34  1  0
 34 35  1  0
 34 36  1  0
 34 37  1  0
 33 38  1  0
 38 39  2  0
 39 40  1  0
 40 41  1  0
 40 42  1  0
 40 43  1  0
 39 44  1  0
 44 45  1  0
 31 46  2  0
 46 47  1  0
 46 48  1  0
 48 49  1  0
 49 50  1  0
 49 51  1  0
 49 52  1  0
 52 53  1  0
 52 54  1  0
 52 55  1  0
 18 56  1  0
 56 57  1  0
 56  2  2  0
 26 19  1  0
 48 28  1  0
 55 24  1  0
 44 32  2  0
M  CHG  2   3  -1  44   1
M  END
>  <UniqueID>  (39) 
34

>  <SMILES>  (39) 
COCC/N=c1\nc(-c2ccc3c(c2)-c2cc(-c4[nH+]c(C)nn4C)cn2CCO3)cc[n-]1

>  <Energy>  (39) 
136.9863963766193

>  <Genealogy>  (39) 
COCCN=c1nc(-c2ccc3c(c2)-c2cc(-c4[nH+]c(C)nn4C)cn2CCO3)cc[n-]1 (protonated)
COCC/N=c1\nc(-c2ccc3c(c2)-c2cc(-c4[nH+]c(C)nn4C)cn2CCO3)cc[n-]1 (cis-trans isomerization)
COCC/N=c1\nc(-c2ccc3c(c2)-c2cc(-c4[nH+]c(C)nn4C)cn2CCO3)cc[n-]1 (3D coordinates assigned)
COCC/N=c1\nc(-c2ccc3c(c2)-c2cc(-c4[nH+]c(C)nn4C)cn2CCO3)cc[n-]1 (nonaromatic ring conformer: 136.9863963766193 kcal/mol)

>  <smiles>  (39) 
COCCN=c1nc(-c2ccc3c(c2)-c2cc(-c4nc(C)nn4C)cn2CCO3)cc[nH]1

>  <score_type>  (39) 
oracle

>  <origin>  (39) 
adg

>  <m_score__min__energy>  (39) 
-8.5800000000000001

>  <m_primary>  (39) 
energy

$$$$
39:0
     RDKit          3D

 55 60  0  0  0  0  0  0  0  0999 V2000
   54.3930   26.7220   46.7500 H   0  0  0  0  0  0  0  0  0  0  0  0
   55.1710   26.5670   46.1210 O   0  0  0  0  0  0  0  0  0  0  0  0
   56.0650   25.5240   46.3430 C   0  0  0  0  0  0  0  0  0  0  0  0
   55.9290   24.6180   47.3260 N   0  0  0  0  0  0  0  0  0  0  0  0
   57.0410   23.8640   47.1880 C   0  0  0  0  0  0  0  0  0  0  0  0
   57.2970   22.8890   47.9430 O   0  0  0  0  0  0  0  0  0  0  0  0
   57.8630   24.2430   46.1860 N   0  0  0  0  0  0  0  0  0  0  0  0
   57.2210   25.2870   45.6340 C   0  0  0  0  0  0  0  0  0  0  0  0
   57.7810   26.1010   44.5440 C   0  0  0  0  0  0  0  0  0  0  0  0
   58.2247   25.5763   43.6850 H   0  0  0  0  0  0  0  0  0  0  0  0
   57.7850   27.4410   44.5310 C   0  0  0  0  0  0  0  0  0  0  0  0
   57.4420   28.2510   43.4490 C   0  0  0  0  0  0  0  0  0  0  0  0
   57.1442   27.8831   42.4560 H   0  0  0  0  0  0  0  0  0  0  0  0
   57.5290   29.5580   43.7990 N   0  0  0  0  0  0  0  0  0  0  0  0
   57.9070   29.5880   45.0660 N   0  0  0  0  0  0  0  0  0  0  0  0
   58.0840   30.6720   45.8560 C   0  0  0  0  0  0  0  0  0  0  0  0
   57.9280   31.8710   45.3810 N   0  0  0  0  0  0  0  0  0  0  0  0
   58.9230   32.9280   45.5390 C   0  0  0  0  0  0  0  0  0  0  0  0
   59.8051   32.3488   45.2286 H   0  0  0  0  0  0  0  0  0  0  0  0
   58.6160   33.8870   46.6750 C   0  0  0  0  0  0  0  0  0  0  0  0
   57.7633   33.6944   47.3427 H   0  0  0  0  0  0  0  0  0  0  0  0
   59.1849   34.2990   47.5215 H   0  0  0  0  0  0  0  0  0  0  0  0
   58.3740   34.3080   45.2330 C   0  0  0  0  0  0  0  0  0  0  0  0
   57.3461   34.4204   44.8578 H   0  0  0  0  0  0  0  0  0  0  0  0
   58.6955   35.1514   44.6043 H   0  0  0  0  0  0  0  0  0  0  0  0
   58.4210   30.4660   47.1610 N   0  0  0  0  0  0  0  0  0  0  0  0
   58.5760   29.1960   47.6530 C   0  0  0  0  0  0  0  0  0  0  0  0
   58.8660   28.9920   48.9040 N   0  0  0  0  0  0  0  0  0  0  0  0
   59.7080   29.8080   49.7370 C   0  0  0  0  0  0  0  0  0  0  0  0
   59.1680   30.9670   50.3060 C   0  0  0  0  0  0  0  0  0  0  0  0
   58.1247   31.2441   50.0946 H   0  0  0  0  0  0  0  0  0  0  0  0
   59.9450   31.7750   51.1410 C   0  0  0  0  0  0  0  0  0  0  0  0
   59.5143   32.6940   51.5652 H   0  0  0  0  0  0  0  0  0  0  0  0
   61.2660   31.4250   51.4420 C   0  0  0  0  0  0  0  0  0  0  0  0
   62.0000   32.2720   52.2890 O   0  0  0  0  0  0  0  0  0  0  0  0
   62.9830   33.2160   51.8600 C   0  0  0  0  0  0  0  0  0  0  0  0
   62.7781   34.1887   52.3309 H   0  0  0  0  0  0  0  0  0  0  0  0
   63.9766   32.8481   52.1557 H   0  0  0  0  0  0  0  0  0  0  0  0
   62.9550   33.3770   50.3640 C   0  0  0  0  0  0  0  0  0  0  0  0
   63.9760   32.8320   49.5670 C   0  0  0  0  0  0  0  0  0  0  0  0
   64.8082   32.2886   50.0384 H   0  0  0  0  0  0  0  0  0  0  0  0
   63.9380   32.9780   48.1760 C   0  0  0  0  0  0  0  0  0  0  0  0
   64.7431   32.5552   47.5572 H   0  0  0  0  0  0  0  0  0  0  0  0
   62.8790   33.6600   47.5720 C   0  0  0  0  0  0  0  0  0  0  0  0
   62.8533   33.7784   46.4787 H   0  0  0  0  0  0  0  0  0  0  0  0
   61.8520   34.1920   48.3570 C   0  0  0  0  0  0  0  0  0  0  0  0
   61.0151   34.7232   47.8801 H   0  0  0  0  0  0  0  0  0  0  0  0
   61.8870   34.0500   49.7460 C   0  0  0  0  0  0  0  0  0  0  0  0
   61.0746   34.4670   50.3594 H   0  0  0  0  0  0  0  0  0  0  0  0
   61.8040   30.2460   50.8930 C   0  0  0  0  0  0  0  0  0  0  0  0
   62.8410   29.9594   51.1219 H   0  0  0  0  0  0  0  0  0  0  0  0
   61.0270   29.4370   50.0580 C   0  0  0  0  0  0  0  0  0  0  0  0
   61.4487   28.5065   49.6502 H   0  0  0  0  0  0  0  0  0  0  0  0
   58.3780   28.1230   46.8350 N   0  0  0  0  0  0  0  0  0  0  0  0
   58.0640   28.3480   45.5370 C   0  0  0  0  0  0  0  0  0  0  0  0
  1  2  1  0
  2  3  1  0
  3  4  1  0
  4  5  1  0
  5  6  2  0
  5  7  1  0
  7  8  1  0
  8  9  1  0
  9 10  1  0
  9 11  2  3
 11 12  1  0
 12 13  1  0
 12 14  2  0
 14 15  1  0
 15 16  1  0
 16 17  2  0
 17 18  1  0
 18 19  1  0
 18 20  1  0
 20 21  1  0
 20 22  1  0
 20 23  1  0
 23 24  1  0
 23 25  1  0
 16 26  1  0
 26 27  1  0
 27 28  2  3
 28 29  1  0
 29 30  2  0
 30 31  1  0
 30 32  1  0
 32 33  1  0
 32 34  2  0
 34 35  1  0
 35 36  1  0
 36 37  1  0
 36 38  1  0
 36 39  1  0
 39 40  2  0
 40 41  1  0
 40 42  1  0
 42 43  1  0
 42 44  2  0
 44 45  1  0
 44 46  1  0
 46 47  1  0
 46 48  2  0
 48 49  1  0
 34 50  1  0
 50 51  1  0
 50 52  2  0
 52 53  1  0
 27 54  1  0
 54 55  2  0
  8  3  2  0
 55 11  1  0
 55 15  1  0
 23 18  1  0
 52 29  1  0
 48 39  1  0
M  CHG  3   4  -1   7  -1  26  -1
M  END
>  <UniqueID>  (40) 
35

>  <SMILES>  (40) 
O=c1[n-]c(O)c(C=c2cnn3/c(=N/C4CC4)[n-]c(=Nc4ccc(OCc5ccccc5)cc4)nc23)[n-]1

>  <Energy>  (40) 
406.1478193142452

>  <Genealogy>  (40) 
O=c1[n-]c(O)c(C=c2cnn3c(=NC4CC4)[n-]c(=Nc4ccc(OCc5ccccc5)cc4)nc23)[n-]1 (protonated)
O=c1[n-]c(O)c(C=c2cnn3/c(=N/C4CC4)[n-]c(=Nc4ccc(OCc5ccccc5)cc4)nc23)[n-]1 (cis-trans isomerization)
O=c1[n-]c(O)c(C=c2cnn3/c(=N/C4CC4)[n-]c(=Nc4ccc(OCc5ccccc5)cc4)nc23)[n-]1 (3D coordinates assigned)
O=c1[n-]c(O)c(C=c2cnn3/c(=N/C4CC4)[n-]c(=Nc4ccc(OCc5ccccc5)cc4)nc23)[n-]1 (nonaromatic ring conformer: 406.1478193142452 kcal/mol)

>  <smiles>  (40) 
O=c1[nH]c(O)c(C=c2cnn3c(=NC4CC4)[nH]c(=Nc4ccc(OCc5ccccc5)cc4)nc23)[nH]1

>  <score_type>  (40) 
oracle

>  <origin>  (40) 
adg

>  <m_score__min__energy>  (40) 
-14.94

>  <m_primary>  (40) 
energy

$$$$
40:0
     RDKit          3D

 29 30  0  0  0  0  0  0  0  0999 V2000
   59.3830   34.5260   48.9960 N   0  0  0  0  0  0  0  0  0  0  0  0
   59.9440   34.5260   47.3620 S   0  0  0  0  0  0  0  0  0  0  0  0
   59.6590   35.8610   46.7350 O   0  0  0  0  0  0  0  0  0  0  0  0
   61.4280   34.2900   47.3400 O   0  0  0  0  0  0  0  0  0  0  0  0
   59.1230   33.2560   46.4590 C   0  0  0  0  0  0  0  0  0  0  0  0
   59.7320   32.0050   46.2910 C   0  0  0  0  0  0  0  0  0  0  0  0
   59.0730   30.9930   45.5870 C   0  0  0  0  0  0  0  0  0  0  0  0
   57.8070   31.2200   45.0330 C   0  0  0  0  0  0  0  0  0  0  0  0
   57.1590   30.1460   44.3360 N   0  0  0  0  0  0  0  0  0  0  0  0
   56.4110   29.0710   44.9250 C   0  0  0  0  0  0  0  0  0  0  0  0
   55.1510   29.1000   44.9060 O   0  0  0  0  0  0  0  0  0  0  0  0
   57.1270   27.9010   45.5030 C   0  0  0  0  0  0  0  0  0  0  0  0
   58.5340   27.9060   45.5640 C   0  0  0  0  0  0  0  0  0  0  0  0
   59.2300   26.8200   46.1010 C   0  0  0  0  0  0  0  0  0  0  0  0
   58.5340   25.7140   46.5870 C   0  0  0  0  0  0  0  0  0  0  0  0
   57.1390   25.6900   46.5380 C   0  0  0  0  0  0  0  0  0  0  0  0
   56.4700   24.6100   47.0160 F   0  0  0  0  0  0  0  0  0  0  0  0
   56.4320   26.7740   46.0030 C   0  0  0  0  0  0  0  0  0  0  0  0
   55.0420   26.7160   45.9780 O   0  0  0  0  0  0  0  0  0  0  0  0
   57.1850   32.4660   45.2280 C   0  0  0  0  0  0  0  0  0  0  0  0
   57.8440   33.4790   45.9340 C   0  0  0  0  0  0  0  0  0  0  0  0
   59.2070   35.5220   49.2570 H   0  0  0  0  0  0  0  0  0  0  0  0
   60.7303   31.8191   46.7139 H   0  0  0  0  0  0  0  0  0  0  0  0
   59.5527   30.0104   45.4672 H   0  0  0  0  0  0  0  0  0  0  0  0
   59.0915   28.7750   45.1845 H   0  0  0  0  0  0  0  0  0  0  0  0
   60.3292   26.8376   46.1404 H   0  0  0  0  0  0  0  0  0  0  0  0
   59.0842   24.8601   47.0091 H   0  0  0  0  0  0  0  0  0  0  0  0
   56.1775   32.6451   44.8245 H   0  0  0  0  0  0  0  0  0  0  0  0
   57.3554   34.4541   46.0770 H   0  0  0  0  0  0  0  0  0  0  0  0
  1  2  1  0
  2  3  2  0
  2  4  2  0
  2  5  1  0
  5  6  2  0
  6  7  1  0
  7  8  2  0
  8  9  1  0
  9 10  1  0
 10 11  2  0
 10 12  1  0
 12 13  2  0
 13 14  1  0
 14 15  2  0
 15 16  1  0
 16 17  1  0
 16 18  2  0
 18 19  1  0
  8 20  1  0
 20 21  2  0
 21  5  1  0
 18 12  1  0
  1 22  1  0
  6 23  1  0
  7 24  1  0
 13 25  1  0
 14 26  1  0
 15 27  1  0
 20 28  1  0
 21 29  1  0
M  CHG  3   1  -1   9  -1  19  -1
M  END
>  <UniqueID>  (41) 
36

>  <SMILES>  (41) 
[NH-]S(=O)(=O)c1ccc([N-]C(=O)c2cccc(F)c2[O-])cc1

>  <Energy>  (41) 
35.965700921559446

>  <Genealogy>  (41) 
[NH-]S(=O)(=O)c1ccc([N-]C(=O)c2cccc(F)c2[O-])cc1 (protonated)
[NH-]S(=O)(=O)c1ccc([N-]C(=O)c2cccc(F)c2[O-])cc1 (3D coordinates assigned)
[NH-]S(=O)(=O)c1ccc([N-]C(=O)c2cccc(F)c2[O-])cc1 (optimized conformer: 35.965700921559446 kcal/mol)

>  <smiles>  (41) 
NS(=O)(=O)c1ccc(NC(=O)c2cccc(F)c2O)cc1

>  <score_type>  (41) 
oracle

>  <origin>  (41) 
adg

>  <m_score__min__energy>  (41) 
-13.390000000000001

>  <m_primary>  (41) 
energy

$$$$
41:0
     RDKit          3D

 54 57  0  0  0  0  0  0  0  0999 V2000
   55.1540   29.3490   44.9210 N   0  0  0  0  0  0  0  0  0  0  0  0
   56.7570   29.5030   44.2960 S   0  0  0  0  0  0  0  0  0  0  0  0
   56.7350   29.3110   42.8050 O   0  0  0  0  0  0  0  0  0  0  0  0
   57.2860   30.8770   44.5990 O   0  0  0  0  0  0  0  0  0  0  0  0
   57.7920   28.2910   45.0400 C   0  0  0  0  0  0  0  0  0  0  0  0
   57.7320   26.9570   44.6140 C   0  0  0  0  0  0  0  0  0  0  0  0
   58.5560   25.9950   45.2030 C   0  0  0  0  0  0  0  0  0  0  0  0
   59.4480   26.3580   46.2140 C   0  0  0  0  0  0  0  0  0  0  0  0
   59.5110   27.6920   46.6520 C   0  0  0  0  0  0  0  0  0  0  0  0
   60.4020   28.0890   47.7050 N   0  0  0  0  0  0  0  0  0  0  0  0
   60.6660   29.4450   48.0930 C   0  0  0  0  0  0  0  0  0  0  0  0
   61.5170   30.1060   47.4390 O   0  0  0  0  0  0  0  0  0  0  0  0
   60.0040   30.0610   49.2660 C   0  0  0  0  0  0  0  0  0  0  0  0
   59.1310   29.3060   50.0670 C   0  0  0  0  0  0  0  0  0  0  0  0
   58.5220   29.8840   51.1860 C   0  0  0  0  0  0  0  0  0  0  0  0
   58.7700   31.2210   51.5070 C   0  0  0  0  0  0  0  0  0  0  0  0
   59.6150   31.9920   50.7020 C   0  0  0  0  0  0  0  0  0  0  0  0
   60.0000   33.6450   51.1590 S   0  0  0  0  0  0  0  0  0  0  0  0
   59.6860   33.8740   52.6110 O   0  0  0  0  0  0  0  0  0  0  0  0
   59.1940   34.6060   50.3310 O   0  0  0  0  0  0  0  0  0  0  0  0
   61.6920   33.8710   50.8830 N   0  0  0  0  0  0  0  0  0  0  0  0
   62.3800   33.5110   49.6840 C   0  0  0  0  0  0  0  0  0  0  0  0
   63.6160   32.8470   49.7470 C   0  0  0  0  0  0  0  0  0  0  0  0
   64.2990   32.5150   48.5760 C   0  0  0  0  0  0  0  0  0  0  0  0
   63.7550   32.8390   47.3320 C   0  0  0  0  0  0  0  0  0  0  0  0
   62.5220   33.4930   47.2570 C   0  0  0  0  0  0  0  0  0  0  0  0
   61.8190   33.8250   48.4220 C   0  0  0  0  0  0  0  0  0  0  0  0
   60.6150   34.5360   48.2820 O   0  0  0  0  0  0  0  0  0  0  0  0
   59.6190   34.2700   47.3360 C   0  0  0  0  0  0  0  0  0  0  0  0
   59.7020   34.8670   46.0710 C   0  0  0  0  0  0  0  0  0  0  0  0
   58.7060   34.6370   45.1180 C   0  0  0  0  0  0  0  0  0  0  0  0
   57.6320   33.7930   45.4150 C   0  0  0  0  0  0  0  0  0  0  0  0
   57.5570   33.1740   46.6660 C   0  0  0  0  0  0  0  0  0  0  0  0
   58.5490   33.4050   47.6240 C   0  0  0  0  0  0  0  0  0  0  0  0
   60.2280   31.4120   49.5840 C   0  0  0  0  0  0  0  0  0  0  0  0
   58.6660   28.6490   46.0750 C   0  0  0  0  0  0  0  0  0  0  0  0
   55.1800   28.5960   45.6460 H   0  0  0  0  0  0  0  0  0  0  0  0
   57.0346   26.6670   43.8142 H   0  0  0  0  0  0  0  0  0  0  0  0
   58.5020   24.9482   44.8693 H   0  0  0  0  0  0  0  0  0  0  0  0
   60.1021   25.5991   46.6682 H   0  0  0  0  0  0  0  0  0  0  0  0
   58.9254   28.2556   49.8132 H   0  0  0  0  0  0  0  0  0  0  0  0
   57.8466   29.2847   51.8143 H   0  0  0  0  0  0  0  0  0  0  0  0
   58.2996   31.6684   52.3950 H   0  0  0  0  0  0  0  0  0  0  0  0
   64.0481   32.5872   50.7246 H   0  0  0  0  0  0  0  0  0  0  0  0
   65.2677   31.9971   48.6335 H   0  0  0  0  0  0  0  0  0  0  0  0
   64.2968   32.5796   46.4105 H   0  0  0  0  0  0  0  0  0  0  0  0
   62.0999   33.7493   46.2741 H   0  0  0  0  0  0  0  0  0  0  0  0
   60.5539   35.5188   45.8273 H   0  0  0  0  0  0  0  0  0  0  0  0
   58.7673   35.1211   44.1322 H   0  0  0  0  0  0  0  0  0  0  0  0
   56.8468   33.6162   44.6652 H   0  0  0  0  0  0  0  0  0  0  0  0
   56.7159   32.5038   46.8973 H   0  0  0  0  0  0  0  0  0  0  0  0
   58.4920   32.9092   48.6043 H   0  0  0  0  0  0  0  0  0  0  0  0
   60.8904   32.0189   48.9493 H   0  0  0  0  0  0  0  0  0  0  0  0
   58.6888   29.6876   46.4366 H   0  0  0  0  0  0  0  0  0  0  0  0
  1  2  1  0
  2  3  2  0
  2  4  2  0
  2  5  1  0
  5  6  2  0
  6  7  1  0
  7  8  2  0
  8  9  1  0
  9 10  1  0
 10 11  1  0
 11 12  2  0
 11 13  1  0
 13 14  2  0
 14 15  1  0
 15 16  2  0
 16 17  1  0
 17 18  1  0
 18 19  2  0
 18 20  2  0
 18 21  1  0
 21 22  1  0
 22 23  2  0
 23 24  1  0
 24 25  2  0
 25 26  1  0
 26 27  2  0
 27 28  1  0
 28 29  1  0
 29 30  2  0
 30 31  1  0
 31 32  2  0
 32 33  1  0
 33 34  2  0
 17 35  2  0
  9 36  2  0
 36  5  1  0
 35 13  1  0
 27 22  1  0
 34 29  1  0
  1 37  1  0
  6 38  1  0
  7 39  1  0
  8 40  1  0
 14 41  1  0
 15 42  1  0
 16 43  1  0
 23 44  1  0
 24 45  1  0
 25 46  1  0
 26 47  1  0
 30 48  1  0
 31 49  1  0
 32 50  1  0
 33 51  1  0
 34 52  1  0
 35 53  1  0
 36 54  1  0
M  CHG  3   1  -1  10  -1  21  -1
M  END
>  <UniqueID>  (42) 
37

>  <SMILES>  (42) 
[NH-]S(=O)(=O)c1cccc([N-]C(=O)c2cccc(S(=O)(=O)[N-]c3ccccc3Oc3ccccc3)c2)c1

>  <Energy>  (42) 
75.04758568791348

>  <Genealogy>  (42) 
[NH-]S(=O)(=O)c1cccc([N-]C(=O)c2cccc(S(=O)(=O)[N-]c3ccccc3Oc3ccccc3)c2)c1 (protonated)
[NH-]S(=O)(=O)c1cccc([N-]C(=O)c2cccc(S(=O)(=O)[N-]c3ccccc3Oc3ccccc3)c2)c1 (3D coordinates assigned)
[NH-]S(=O)(=O)c1cccc([N-]C(=O)c2cccc(S(=O)(=O)[N-]c3ccccc3Oc3ccccc3)c2)c1 (optimized conformer: 75.04758568791348 kcal/mol)

>  <smiles>  (42) 
NS(=O)(=O)c1cccc(NC(=O)c2cccc(S(=O)(=O)Nc3ccccc3Oc3ccccc3)c2)c1

>  <score_type>  (42) 
oracle

>  <origin>  (42) 
adg

>  <m_score__min__energy>  (42) 
-15.33

>  <m_primary>  (42) 
energy

$$$$
42:0
     RDKit          3D

 30 31  0  0  0  0  0  0  0  0999 V2000
   54.7840   26.3440   45.9960 N   0  0  0  0  0  0  0  0  0  0  0  0
   56.2780   25.5210   46.2740 S   0  0  0  0  0  0  0  0  0  0  0  0
   56.2560   24.8760   47.6310 O   0  0  0  0  0  0  0  0  0  0  0  0
   56.4530   24.4520   45.2320 O   0  0  0  0  0  0  0  0  0  0  0  0
   57.6060   26.6750   46.1930 C   0  0  0  0  0  0  0  0  0  0  0  0
   58.7610   26.4950   46.9670 C   0  0  0  0  0  0  0  0  0  0  0  0
   59.8060   27.4190   46.8920 C   0  0  0  0  0  0  0  0  0  0  0  0
   59.7120   28.5170   46.0310 C   0  0  0  0  0  0  0  0  0  0  0  0
   58.5790   28.6890   45.2270 C   0  0  0  0  0  0  0  0  0  0  0  0
   58.5080   29.8310   44.3610 N   0  0  0  0  0  0  0  0  0  0  0  0
   57.3630   30.6690   44.1560 C   0  0  0  0  0  0  0  0  0  0  0  0
   56.3130   30.4270   44.8090 O   0  0  0  0  0  0  0  0  0  0  0  0
   57.4240   31.8410   43.2570 C   0  0  0  0  0  0  0  0  0  0  0  0
   57.9700   33.0020   43.6330 C   0  0  0  0  0  0  0  0  0  0  0  0
   58.1450   33.3440   45.0520 C   0  0  0  0  0  0  0  0  0  0  0  0
   59.2050   34.0560   45.5750 C   0  0  0  0  0  0  0  0  0  0  0  0
   58.9650   34.1390   46.9290 C   0  0  0  0  0  0  0  0  0  0  0  0
   57.7750   33.4740   47.1490 C   0  0  0  0  0  0  0  0  0  0  0  0
   57.3110   33.0110   46.0110 O   0  0  0  0  0  0  0  0  0  0  0  0
   57.5130   27.7780   45.3350 C   0  0  0  0  0  0  0  0  0  0  0  0
   54.6990   27.0800   46.7330 H   0  0  0  0  0  0  0  0  0  0  0  0
   58.8445   25.6247   47.6345 H   0  0  0  0  0  0  0  0  0  0  0  0
   60.7047   27.2827   47.5115 H   0  0  0  0  0  0  0  0  0  0  0  0
   60.5320   29.2488   45.9853 H   0  0  0  0  0  0  0  0  0  0  0  0
   57.0056   31.7548   42.2434 H   0  0  0  0  0  0  0  0  0  0  0  0
   58.2956   33.7173   42.8634 H   0  0  0  0  0  0  0  0  0  0  0  0
   60.0628   34.4708   45.0254 H   0  0  0  0  0  0  0  0  0  0  0  0
   59.5943   34.6349   47.6827 H   0  0  0  0  0  0  0  0  0  0  0  0
   57.2896   33.3508   48.1284 H   0  0  0  0  0  0  0  0  0  0  0  0
   56.5999   27.9329   44.7415 H   0  0  0  0  0  0  0  0  0  0  0  0
  1  2  1  0
  2  3  2  0
  2  4  2  0
  2  5  1  0
  5  6  2  0
  6  7  1  0
  7  8  2  0
  8  9  1  0
  9 10  1  0
 10 11  1  0
 11 12  2  0
 11 13  1  0
 13 14  2  3
 14 15  1  0
 15 16  2  0
 16 17  1  0
 17 18  2  0
 18 19  1  0
  9 20  2  0
 20  5  1  0
 19 15  1  0
  1 21  1  0
  6 22  1  0
  7 23  1  0
  8 24  1  0
 13 25  1  0
 14 26  1  0
 16 27  1  0
 17 28  1  0
 18 29  1  0
 20 30  1  0
M  CHG  2   1  -1  10  -1
M  END
>  <UniqueID>  (43) 
38

>  <SMILES>  (43) 
[NH-]S(=O)(=O)c1cccc([N-]C(=O)C=Cc2ccco2)c1

>  <Energy>  (43) 
58.02432653934521

>  <Genealogy>  (43) 
[NH-]S(=O)(=O)c1cccc([N-]C(=O)C=Cc2ccco2)c1 (protonated)
[NH-]S(=O)(=O)c1cccc([N-]C(=O)C=Cc2ccco2)c1 (3D coordinates assigned)
[NH-]S(=O)(=O)c1cccc([N-]C(=O)C=Cc2ccco2)c1 (optimized conformer: 58.02432653934521 kcal/mol)

>  <smiles>  (43) 
NS(=O)(=O)c1cccc(NC(=O)C=Cc2ccco2)c1

>  <score_type>  (43) 
oracle

>  <origin>  (43) 
adg

>  <m_score__min__energy>  (43) 
-11.529999999999999

>  <m_primary>  (43) 
energy

$$$$
43:0
     RDKit          3D

 40 41  0  0  0  0  0  0  0  0999 V2000
   57.3610   20.4470   47.0020 C   0  0  0  0  0  0  0  0  0  0  0  0
   57.1610   21.7810   47.4580 O   0  0  0  0  0  0  0  0  0  0  0  0
   56.3140   22.7110   46.8370 C   0  0  0  0  0  0  0  0  0  0  0  0
   55.1920   22.2330   46.1500 C   0  0  0  0  0  0  0  0  0  0  0  0
   54.3160   23.1200   45.5210 C   0  0  0  0  0  0  0  0  0  0  0  0
   54.5590   24.4950   45.5630 C   0  0  0  0  0  0  0  0  0  0  0  0
   55.6930   24.9920   46.2280 C   0  0  0  0  0  0  0  0  0  0  0  0
   55.9650   26.3980   46.3160 N   0  0  0  0  0  0  0  0  0  0  0  0
   57.2090   26.9980   46.6970 C   0  0  0  0  0  0  0  0  0  0  0  0
   57.7680   26.6860   47.7830 O   0  0  0  0  0  0  0  0  0  0  0  0
   57.8290   28.0480   45.8130 C   0  0  0  0  0  0  0  0  0  0  0  0
   57.1650   28.1890   44.4970 N   0  0  2  0  0  0  0  0  0  0  0  0
   58.0470   27.8360   43.3700 C   0  0  0  0  0  0  0  0  0  0  0  0
   56.5970   29.5140   44.3150 C   0  0  0  0  0  0  0  0  0  0  0  0
   55.5390   29.8150   44.8530 O   0  0  0  0  0  0  0  0  0  0  0  0
   57.3310   30.5570   43.5190 C   0  0  0  0  0  0  0  0  0  0  0  0
   57.6480   31.7330   44.3860 C   0  0  0  0  0  0  0  0  0  0  0  0
   57.7690   33.0490   43.9590 C   0  0  0  0  0  0  0  0  0  0  0  0
   58.1480   33.9260   44.9830 C   0  0  0  0  0  0  0  0  0  0  0  0
   58.3380   33.3020   46.2090 C   0  0  0  0  0  0  0  0  0  0  0  0
   58.0390   31.6570   46.0190 S   0  0  0  0  0  0  0  0  0  0  0  0
   56.5540   24.0990   46.8790 C   0  0  0  0  0  0  0  0  0  0  0  0
   57.4617   19.7750   47.8670 H   0  0  0  0  0  0  0  0  0  0  0  0
   56.4997   20.1345   46.3933 H   0  0  0  0  0  0  0  0  0  0  0  0
   58.2761   20.4009   46.3933 H   0  0  0  0  0  0  0  0  0  0  0  0
   54.9990   21.1510   46.1053 H   0  0  0  0  0  0  0  0  0  0  0  0
   53.4323   22.7350   44.9910 H   0  0  0  0  0  0  0  0  0  0  0  0
   53.8609   25.1906   45.0743 H   0  0  0  0  0  0  0  0  0  0  0  0
   57.7757   29.0154   46.3338 H   0  0  0  0  0  0  0  0  0  0  0  0
   58.8642   27.7317   45.6174 H   0  0  0  0  0  0  0  0  0  0  0  0
   56.3820   27.4930   44.4860 H   0  0  0  0  0  0  0  0  0  0  0  0
   59.0026   27.4536   43.7581 H   0  0  0  0  0  0  0  0  0  0  0  0
   57.5646   27.0617   42.7554 H   0  0  0  0  0  0  0  0  0  0  0  0
   58.2320   28.7293   42.7554 H   0  0  0  0  0  0  0  0  0  0  0  0
   58.2666   30.1277   43.1312 H   0  0  0  0  0  0  0  0  0  0  0  0
   56.6964   30.8857   42.6828 H   0  0  0  0  0  0  0  0  0  0  0  0
   57.5859   33.3696   42.9228 H   0  0  0  0  0  0  0  0  0  0  0  0
   58.2825   35.0071   44.8306 H   0  0  0  0  0  0  0  0  0  0  0  0
   58.6336   33.7985   47.1450 H   0  0  0  0  0  0  0  0  0  0  0  0
   57.4256   24.4849   47.4281 H   0  0  0  0  0  0  0  0  0  0  0  0
  1  2  1  0
  2  3  1  0
  3  4  2  0
  4  5  1  0
  5  6  2  0
  6  7  1  0
  7  8  1  0
  8  9  1  0
  9 10  2  0
  9 11  1  0
 11 12  1  0
 12 13  1  0
 12 14  1  0
 14 15  2  0
 14 16  1  0
 16 17  1  0
 17 18  2  0
 18 19  1  0
 19 20  2  0
 20 21  1  0
  7 22  2  0
 22  3  1  0
 21 17  1  0
  1 23  1  0
  1 24  1  0
  1 25  1  0
  4 26  1  0
  5 27  1  0
  6 28  1  0
 11 29  1  0
 11 30  1  0
 12 31  1  1
 13 32  1  0
 13 33  1  0
 13 34  1  0
 16 35  1  0
 16 36  1  0
 18 37  1  0
 19 38  1  0
 20 39  1  0
 22 40  1  0
M  CHG  2   8  -1  12   1
M  END
>  <UniqueID>  (44) 
39

>  <SMILES>  (44) 
COc1cccc([N-]C(=O)C[N@H+](C)C(=O)Cc2cccs2)c1

>  <Energy>  (44) 
67.86275538028782

>  <Genealogy>  (44) 
COc1cccc([N-]C(=O)C[NH+](C)C(=O)Cc2cccs2)c1 (protonated)
COc1cccc([N-]C(=O)C[N@H+](C)C(=O)Cc2cccs2)c1 (chirality)
COc1cccc([N-]C(=O)C[N@H+](C)C(=O)Cc2cccs2)c1 (3D coordinates assigned)
COc1cccc([N-]C(=O)C[N@H+](C)C(=O)Cc2cccs2)c1 (optimized conformer: 67.86275538028782 kcal/mol)

>  <smiles>  (44) 
COc1cccc(NC(=O)CN(C)C(=O)Cc2cccs2)c1

>  <score_type>  (44) 
oracle

>  <origin>  (44) 
adg

>  <m_score__min__energy>  (44) 
-7.7800000000000002

>  <m_primary>  (44) 
energy

$$$$
44:0
     RDKit          3D

 51 53  0  0  0  0  0  0  0  0999 V2000
   54.4320   29.9500   44.8420 H   0  0  0  0  0  0  0  0  0  0  0  0
   55.1440   29.3360   44.3820 N   0  0  0  0  0  0  0  0  0  0  0  0
   56.2980   29.1140   44.9250 C   0  0  0  0  0  0  0  0  0  0  0  0
   56.5310   27.9460   45.5820 N   0  0  0  0  0  0  0  0  0  0  0  0
   57.7250   27.6630   46.1720 C   0  0  0  0  0  0  0  0  0  0  0  0
   57.8820   26.3360   46.8540 C   0  0  0  0  0  0  0  0  0  0  0  0
   57.8650   26.4799   47.9444 H   0  0  0  0  0  0  0  0  0  0  0  0
   57.0561   25.6720   46.5588 H   0  0  0  0  0  0  0  0  0  0  0  0
   58.8400   25.8831   46.5588 H   0  0  0  0  0  0  0  0  0  0  0  0
   58.7760   28.6130   46.1070 C   0  0  0  0  0  0  0  0  0  0  0  0
   60.1370   28.3820   46.7280 C   0  0  0  0  0  0  0  0  0  0  0  0
   60.2263   27.3264   47.0242 H   0  0  0  0  0  0  0  0  0  0  0  0
   60.9140   28.6335   45.9911 H   0  0  0  0  0  0  0  0  0  0  0  0
   60.3070   29.2300   47.9070 N   0  0  0  0  0  0  0  0  0  0  0  0
   60.2290   30.2640   47.7830 H   0  0  0  0  0  0  0  0  0  0  0  0
   60.5480   28.6880   49.2140 C   0  0  0  0  0  0  0  0  0  0  0  0
   60.6950   27.4440   49.3660 O   0  0  0  0  0  0  0  0  0  0  0  0
   60.5770   29.5810   50.4220 C   0  0  0  0  0  0  0  0  0  0  0  0
   59.6895   29.3785   51.0395 H   0  0  0  0  0  0  0  0  0  0  0  0
   61.4977   29.3735   50.9870 H   0  0  0  0  0  0  0  0  0  0  0  0
   60.5780   31.0060   50.0320 N   0  0  0  0  0  0  0  0  0  0  0  0
   61.6390   31.8300   50.3410 C   0  0  0  0  0  0  0  0  0  0  0  0
   63.0540   31.2430   51.2280 Cl  0  0  0  0  0  0  0  0  0  0  0  0
   61.6000   33.1800   49.9600 C   0  0  0  0  0  0  0  0  0  0  0  0
   62.9200   34.2850   50.3140 Cl  0  0  0  0  0  0  0  0  0  0  0  0
   60.5160   33.6590   49.3040 N   0  0  0  0  0  0  0  0  0  0  0  0
   59.4530   32.8710   49.0020 C   0  0  0  0  0  0  0  0  0  0  0  0
   58.4180   33.3460   48.3660 N   0  0  0  0  0  0  0  0  0  0  0  0
   58.1010   33.1800   46.9750 C   0  0  0  0  0  0  0  0  0  0  0  0
   56.8920   33.0900   46.6350 O   0  0  0  0  0  0  0  0  0  0  0  0
   59.1290   33.1280   45.9780 N   0  0  0  0  0  0  0  0  0  0  0  0
   60.2840   34.0200   45.9570 C   0  0  0  0  0  0  0  0  0  0  0  0
   60.4737   34.3450   44.9234 H   0  0  0  0  0  0  0  0  0  0  0  0
   60.0753   34.8934   46.5923 H   0  0  0  0  0  0  0  0  0  0  0  0
   61.4990   33.3070   46.4850 C   0  0  0  0  0  0  0  0  0  0  0  0
   61.4430   31.9280   46.7490 C   0  0  0  0  0  0  0  0  0  0  0  0
   60.5080   31.3744   46.5778 H   0  0  0  0  0  0  0  0  0  0  0  0
   62.5730   31.2570   47.2290 C   0  0  0  0  0  0  0  0  0  0  0  0
   62.5240   30.1780   47.4374 H   0  0  0  0  0  0  0  0  0  0  0  0
   63.7640   31.9560   47.4440 C   0  0  0  0  0  0  0  0  0  0  0  0
   64.6510   31.4270   47.8228 H   0  0  0  0  0  0  0  0  0  0  0  0
   63.8290   33.3270   47.1780 C   0  0  0  0  0  0  0  0  0  0  0  0
   64.7677   33.8754   47.3454 H   0  0  0  0  0  0  0  0  0  0  0  0
   62.7010   34.0020   46.6990 C   0  0  0  0  0  0  0  0  0  0  0  0
   62.7555   35.0804   46.4893 H   0  0  0  0  0  0  0  0  0  0  0  0
   59.4840   31.5180   49.3740 C   0  0  0  0  0  0  0  0  0  0  0  0
   58.4980   30.7770   49.0980 O   0  0  0  0  0  0  0  0  0  0  0  0
   58.5470   29.8150   45.4190 C   0  0  0  0  0  0  0  0  0  0  0  0
   59.3510   30.5618   45.3432 H   0  0  0  0  0  0  0  0  0  0  0  0
   57.3090   30.0700   44.8310 C   0  0  0  0  0  0  0  0  0  0  0  0
   57.1313   31.0158   44.2982 H   0  0  0  0  0  0  0  0  0  0  0  0
  1  2  1  0
  2  3  2  3
  3  4  1  0
  4  5  1  0
  5  6  1  0
  6  7  1  0
  6  8  1  0
  6  9  1  0
  5 10  2  0
 10 11  1  0
 11 12  1  0
 11 13  1  0
 11 14  1  0
 14 15  1  0
 14 16  1  0
 16 17  2  0
 16 18  1  0
 18 19  1  0
 18 20  1  0
 18 21  1  0
 21 22  1  0
 22 23  1  0
 22 24  2  0
 24 25  1  0
 24 26  1  0
 26 27  1  0
 27 28  2  0
 28 29  1  0
 29 30  2  0
 29 31  1  0
 31 32  1  0
 32 33  1  0
 32 34  1  0
 32 35  1  0
 35 36  2  0
 36 37  1  0
 36 38  1  0
 38 39  1  0
 38 40  2  0
 40 41  1  0
 40 42  1  0
 42 43  1  0
 42 44  2  0
 44 45  1  0
 27 46  1  0
 46 47  2  0
 10 48  1  0
 48 49  1  0
 48 50  2  0
 50 51  1  0
 50  3  1  0
 46 21  1  0
 44 35  1  0
M  CHG  3   4  -1  26  -1  31  -1
M  END
>  <UniqueID>  (45) 
40

>  <SMILES>  (45) 
Cc1[n-]c(=N)ccc1CNC(=O)Cn1c(Cl)c(Cl)[n-]/c(=N\C(=O)[N-]Cc2ccccc2)c1=O

>  <Energy>  (45) 
59.04734298328612

>  <Genealogy>  (45) 
Cc1[n-]c(=N)ccc1CNC(=O)Cn1c(Cl)c(Cl)[n-]c(=NC(=O)[N-]Cc2ccccc2)c1=O (protonated)
Cc1[n-]c(=N)ccc1CNC(=O)Cn1c(Cl)c(Cl)[n-]/c(=N\C(=O)[N-]Cc2ccccc2)c1=O (cis-trans isomerization)
Cc1[n-]c(=N)ccc1CNC(=O)Cn1c(Cl)c(Cl)[n-]/c(=N\C(=O)[N-]Cc2ccccc2)c1=O (3D coordinates assigned)
Cc1[n-]c(=N)ccc1CNC(=O)Cn1c(Cl)c(Cl)[n-]/c(=N\C(=O)[N-]Cc2ccccc2)c1=O (optimized conformer: 59.04734298328612 kcal/mol)

>  <smiles>  (45) 
Cc1[nH]c(=N)ccc1CNC(=O)Cn1c(Cl)c(Cl)[nH]c(=NC(=O)NCc2ccccc2)c1=O

>  <score_type>  (45) 
oracle

>  <origin>  (45) 
adg

>  <m_score__min__energy>  (45) 
-12.26

>  <m_primary>  (45) 
energy

$$$$
45:0
     RDKit          3D

 31 33  0  0  0  0  0  0  0  0999 V2000
   55.8030   24.8650   45.3200 C   0  0  0  0  0  0  0  0  0  0  0  0
   55.7140   26.2450   45.6450 O   0  0  0  0  0  0  0  0  0  0  0  0
   56.8270   26.9880   46.0440 C   0  0  0  0  0  0  0  0  0  0  0  0
   57.8970   26.4880   46.7100 N   0  0  0  0  0  0  0  0  0  0  0  0
   58.7500   27.4870   46.9140 N   0  0  0  0  0  0  0  0  0  0  0  0
   58.2290   28.6080   46.3860 C   0  0  0  0  0  0  0  0  0  0  0  0
   58.7720   29.8890   46.3640 C   0  0  0  0  0  0  0  0  0  0  0  0
   58.0110   30.9020   45.7310 C   0  0  0  0  0  0  0  0  0  0  0  0
   58.5110   32.2970   45.6760 C   0  0  0  0  0  0  0  0  0  0  0  0
   58.9920   32.8950   46.8550 C   0  0  0  0  0  0  0  0  0  0  0  0
   59.4410   34.2170   46.8530 C   0  0  0  0  0  0  0  0  0  0  0  0
   59.4110   34.9620   45.6770 C   0  0  0  0  0  0  0  0  0  0  0  0
   58.9430   34.3870   44.4950 C   0  0  0  0  0  0  0  0  0  0  0  0
   58.5020   33.0520   44.4730 C   0  0  0  0  0  0  0  0  0  0  0  0
   58.0300   32.4660   43.1680 C   0  0  0  0  0  0  0  0  0  0  0  0
   56.7890   30.5930   45.1810 N   0  0  0  0  0  0  0  0  0  0  0  0
   56.2720   29.3300   45.2110 C   0  0  0  0  0  0  0  0  0  0  0  0
   55.1500   29.0840   44.6930 O   0  0  0  0  0  0  0  0  0  0  0  0
   57.0180   28.3340   45.8280 C   0  0  0  0  0  0  0  0  0  0  0  0
   55.8412   24.2720   46.2457 H   0  0  0  0  0  0  0  0  0  0  0  0
   54.9221   24.5694   44.7313 H   0  0  0  0  0  0  0  0  0  0  0  0
   56.7146   24.6850   44.7313 H   0  0  0  0  0  0  0  0  0  0  0  0
   59.6660   27.3930   47.4060 H   0  0  0  0  0  0  0  0  0  0  0  0
   59.7500   30.1055   46.8186 H   0  0  0  0  0  0  0  0  0  0  0  0
   59.0146   32.3145   47.7891 H   0  0  0  0  0  0  0  0  0  0  0  0
   59.8188   34.6704   47.7813 H   0  0  0  0  0  0  0  0  0  0  0  0
   59.7570   36.0062   45.6799 H   0  0  0  0  0  0  0  0  0  0  0  0
   58.9188   34.9839   43.5713 H   0  0  0  0  0  0  0  0  0  0  0  0
   57.3515   31.6237   43.3684 H   0  0  0  0  0  0  0  0  0  0  0  0
   57.4974   33.2366   42.5913 H   0  0  0  0  0  0  0  0  0  0  0  0
   58.8964   32.1098   42.5913 H   0  0  0  0  0  0  0  0  0  0  0  0
  1  2  1  0
  2  3  1  0
  3  4  2  0
  4  5  1  0
  5  6  1  0
  6  7  1  0
  7  8  2  0
  8  9  1  0
  9 10  2  0
 10 11  1  0
 11 12  2  0
 12 13  1  0
 13 14  2  0
 14 15  1  0
  8 16  1  0
 16 17  1  0
 17 18  2  0
 17 19  1  0
 19  3  1  0
 19  6  2  0
 14  9  1  0
  1 20  1  0
  1 21  1  0
  1 22  1  0
  5 23  1  0
  7 24  1  0
 10 25  1  0
 11 26  1  0
 12 27  1  0
 13 28  1  0
 15 29  1  0
 15 30  1  0
 15 31  1  0
M  CHG  1  16  -1
M  END
>  <UniqueID>  (46) 
41

>  <SMILES>  (46) 
COc1n[nH]c2cc(-c3ccccc3C)[n-]c(=O)c12

>  <Energy>  (46) 
78.72502164579824

>  <Genealogy>  (46) 
COc1n[nH]c2cc(-c3ccccc3C)[n-]c(=O)c12 (protonated)
COc1n[nH]c2cc(-c3ccccc3C)[n-]c(=O)c12 (3D coordinates assigned)
COc1n[nH]c2cc(-c3ccccc3C)[n-]c(=O)c12 (optimized conformer: 78.72502164579824 kcal/mol)

>  <smiles>  (46) 
COc1n[nH]c2cc(-c3ccccc3C)[nH]c(=O)c12

>  <score_type>  (46) 
oracle

>  <origin>  (46) 
adg

>  <m_score__min__energy>  (46) 
-8.7400000000000002

>  <m_primary>  (46) 
energy

$$$$
46:0
     RDKit          3D

 47 50  0  0  0  0  0  0  0  0999 V2000
   52.3500   24.2410   44.9100 C   0  0  0  0  0  0  0  0  0  0  0  0
   53.6420   23.5750   44.8100 N   0  0  0  0  0  0  0  0  0  0  0  0
   54.8570   24.2210   45.2180 C   0  0  0  0  0  0  0  0  0  0  0  0
   54.8040   25.3200   45.8340 O   0  0  0  0  0  0  0  0  0  0  0  0
   56.1750   23.5970   44.9600 C   0  0  0  0  0  0  0  0  0  0  0  0
   56.2680   22.5220   44.0600 C   0  0  0  0  0  0  0  0  0  0  0  0
   57.5020   21.9300   43.7970 C   0  0  0  0  0  0  0  0  0  0  0  0
   58.6390   22.4060   44.4460 C   0  0  0  0  0  0  0  0  0  0  0  0
   58.5370   23.4290   45.3310 N   0  0  0  0  0  0  0  0  0  0  0  0
   57.3480   24.0370   45.6070 C   0  0  0  0  0  0  0  0  0  0  0  0
   57.2780   25.0460   46.5770 O   0  0  0  0  0  0  0  0  0  0  0  0
   57.6900   26.3750   46.3960 C   0  0  0  0  0  0  0  0  0  0  0  0
   58.9260   26.7630   46.9070 C   0  0  0  0  0  0  0  0  0  0  0  0
   59.3810   28.0750   46.7640 C   0  0  0  0  0  0  0  0  0  0  0  0
   58.5920   29.0560   46.1130 C   0  0  0  0  0  0  0  0  0  0  0  0
   57.3240   28.6550   45.6090 C   0  0  0  0  0  0  0  0  0  0  0  0
   56.8820   27.3280   45.7630 C   0  0  0  0  0  0  0  0  0  0  0  0
   56.5280   29.6090   44.9620 C   0  0  0  0  0  0  0  0  0  0  0  0
   55.3940   29.3070   44.5000 O   0  0  0  0  0  0  0  0  0  0  0  0
   56.9780   30.8750   44.8230 N   0  0  0  0  0  0  0  0  0  0  0  0
   58.1850   31.2540   45.2990 C   0  0  0  0  0  0  0  0  0  0  0  0
   59.0040   30.3690   45.9500 N   0  0  0  0  0  0  0  0  0  0  0  0
   60.2870   30.9150   46.4460 C   0  0  0  0  0  0  0  0  0  0  0  0
   60.0500   32.0360   47.4360 C   0  0  0  0  0  0  0  0  0  0  0  0
   60.4730   33.3490   47.1480 C   0  0  0  0  0  0  0  0  0  0  0  0
   61.0710   33.6460   45.9690 F   0  0  0  0  0  0  0  0  0  0  0  0
   60.2750   34.3750   48.0780 C   0  0  0  0  0  0  0  0  0  0  0  0
   59.6580   34.1060   49.3000 C   0  0  0  0  0  0  0  0  0  0  0  0
   59.2350   32.8110   49.5970 C   0  0  0  0  0  0  0  0  0  0  0  0
   59.4270   31.7780   48.6760 C   0  0  0  0  0  0  0  0  0  0  0  0
   59.0010   30.5280   48.9940 F   0  0  0  0  0  0  0  0  0  0  0  0
   52.0881   24.3760   45.9698 H   0  0  0  0  0  0  0  0  0  0  0  0
   52.4047   25.2232   44.4178 H   0  0  0  0  0  0  0  0  0  0  0  0
   51.5817   23.6266   44.4178 H   0  0  0  0  0  0  0  0  0  0  0  0
   53.6660   22.5860   44.4740 H   0  0  0  0  0  0  0  0  0  0  0  0
   55.3628   22.1460   43.5608 H   0  0  0  0  0  0  0  0  0  0  0  0
   57.5774   21.0955   43.0843 H   0  0  0  0  0  0  0  0  0  0  0  0
   59.6198   21.9522   44.2408 H   0  0  0  0  0  0  0  0  0  0  0  0
   59.5523   26.0256   47.4304 H   0  0  0  0  0  0  0  0  0  0  0  0
   60.3679   28.3519   47.1631 H   0  0  0  0  0  0  0  0  0  0  0  0
   55.8920   27.0362   45.3825 H   0  0  0  0  0  0  0  0  0  0  0  0
   58.5165   32.2937   45.1610 H   0  0  0  0  0  0  0  0  0  0  0  0
   60.8533   30.1118   46.9401 H   0  0  0  0  0  0  0  0  0  0  0  0
   60.8530   31.3143   45.5915 H   0  0  0  0  0  0  0  0  0  0  0  0
   60.6070   35.3975   47.8450 H   0  0  0  0  0  0  0  0  0  0  0  0
   59.5053   34.9154   50.0291 H   0  0  0  0  0  0  0  0  0  0  0  0
   58.7479   32.6017   50.5608 H   0  0  0  0  0  0  0  0  0  0  0  0
  1  2  1  0
  2  3  1  0
  3  4  2  0
  3  5  1  0
  5  6  2  0
  6  7  1  0
  7  8  2  0
  8  9  1  0
  9 10  2  0
 10 11  1  0
 11 12  1  0
 12 13  2  0
 13 14  1  0
 14 15  2  0
 15 16  1  0
 16 17  2  0
 16 18  1  0
 18 19  2  0
 18 20  1  0
 20 21  2  0
 21 22  1  0
 22 23  1  0
 23 24  1  0
 24 25  2  0
 25 26  1  0
 25 27  1  0
 27 28  2  0
 28 29  1  0
 29 30  2  0
 30 31  1  0
 10  5  1  0
 17 12  1  0
 30 24  1  0
 22 15  1  0
  1 32  1  0
  1 33  1  0
  1 34  1  0
  2 35  1  0
  6 36  1  0
  7 37  1  0
  8 38  1  0
 13 39  1  0
 14 40  1  0
 17 41  1  0
 21 42  1  0
 23 43  1  0
 23 44  1  0
 27 45  1  0
 28 46  1  0
 29 47  1  0
M  END
>  <UniqueID>  (47) 
42

>  <SMILES>  (47) 
CNC(=O)c1cccnc1Oc1ccc2c(c1)c(=O)ncn2Cc1c(F)cccc1F

>  <Energy>  (47) 
71.44792107135885

>  <Genealogy>  (47) 
CNC(=O)c1cccnc1Oc1ccc2c(c1)c(=O)ncn2Cc1c(F)cccc1F (3D coordinates assigned)
CNC(=O)c1cccnc1Oc1ccc2c(c1)c(=O)ncn2Cc1c(F)cccc1F (optimized conformer: 71.44792107135885 kcal/mol)

>  <smiles>  (47) 
CNC(=O)c1cccnc1Oc1ccc2c(c1)c(=O)ncn2Cc1c(F)cccc1F

>  <score_type>  (47) 
oracle

>  <origin>  (47) 
adg

>  <m_score__min__energy>  (47) 
-8.7699999999999996

>  <m_primary>  (47) 
energy

$$$$
47:0
     RDKit          3D

 57 60  0  0  0  0  0  0  0  0999 V2000
   50.0980   31.9790   50.4410 H   0  0  0  0  0  0  0  0  0  0  0  0
   51.0190   32.3340   50.7810 N   0  0  0  0  0  0  0  0  0  0  0  0
   51.1490   31.8890   52.4460 S   0  0  0  0  0  0  0  0  0  0  0  0
   50.0730   30.8960   52.7860 O   0  0  0  0  0  0  0  0  0  0  0  0
   50.9710   33.1080   53.3080 O   0  0  0  0  0  0  0  0  0  0  0  0
   52.7320   31.1720   52.7350 C   0  0  0  0  0  0  0  0  0  0  0  0
   52.9290   30.3070   53.8190 C   0  0  0  0  0  0  0  0  0  0  0  0
   52.0943   30.0780   54.4978 H   0  0  0  0  0  0  0  0  0  0  0  0
   54.1840   29.7350   54.0390 C   0  0  0  0  0  0  0  0  0  0  0  0
   54.3333   29.0484   54.8854 H   0  0  0  0  0  0  0  0  0  0  0  0
   55.2510   30.0330   53.1860 C   0  0  0  0  0  0  0  0  0  0  0  0
   56.2327   29.5660   53.3538 H   0  0  0  0  0  0  0  0  0  0  0  0
   55.0760   30.9240   52.1180 C   0  0  0  0  0  0  0  0  0  0  0  0
   56.1820   31.1990   51.2420 N   0  0  0  0  0  0  0  0  0  0  0  0
   56.0730   31.9930   50.5760 H   0  0  0  0  0  0  0  0  0  0  0  0
   57.4080   30.4470   51.2430 C   0  0  0  0  0  0  0  0  0  0  0  0
   57.5020   29.3820   51.9080 O   0  0  0  0  0  0  0  0  0  0  0  0
   58.5880   30.9200   50.4970 C   0  0  0  0  0  0  0  0  0  0  0  0
   58.7560   32.2150   50.0460 C   0  0  0  0  0  0  0  0  0  0  0  0
   58.0943   33.0799   50.2016 H   0  0  0  0  0  0  0  0  0  0  0  0
   59.9550   32.1680   49.3510 C   0  0  0  0  0  0  0  0  0  0  0  0
   60.5010   33.1370   48.6770 N   0  0  0  0  0  0  0  0  0  0  0  0
   60.6080   33.2010   47.2460 C   0  0  0  0  0  0  0  0  0  0  0  0
   61.7490   33.3710   46.7330 O   0  0  0  0  0  0  0  0  0  0  0  0
   59.4220   32.9830   46.3770 C   0  0  0  0  0  0  0  0  0  0  0  0
   58.7340   31.7860   46.2640 C   0  0  0  0  0  0  0  0  0  0  0  0
   58.9560   30.8446   46.7880 H   0  0  0  0  0  0  0  0  0  0  0  0
   57.7130   32.0120   45.3610 C   0  0  0  0  0  0  0  0  0  0  0  0
   56.6450   31.1210   45.0040 N   0  0  0  0  0  0  0  0  0  0  0  0
   56.6410   29.6890   45.1020 C   0  0  0  0  0  0  0  0  0  0  0  0
   55.5650   29.0730   44.8820 O   0  0  0  0  0  0  0  0  0  0  0  0
   57.8510   28.9120   45.4330 C   0  0  0  0  0  0  0  0  0  0  0  0
   57.8890   28.0950   46.5750 C   0  0  0  0  0  0  0  0  0  0  0  0
   57.0225   28.0575   47.2516 H   0  0  0  0  0  0  0  0  0  0  0  0
   59.0240   27.3300   46.8540 C   0  0  0  0  0  0  0  0  0  0  0  0
   59.0457   26.6830   47.7434 H   0  0  0  0  0  0  0  0  0  0  0  0
   60.1320   27.3860   46.0040 C   0  0  0  0  0  0  0  0  0  0  0  0
   61.0227   26.7785   46.2221 H   0  0  0  0  0  0  0  0  0  0  0  0
   60.1100   28.2130   44.8770 C   0  0  0  0  0  0  0  0  0  0  0  0
   60.9857   28.2609   44.2130 H   0  0  0  0  0  0  0  0  0  0  0  0
   58.9770   28.9780   44.5940 C   0  0  0  0  0  0  0  0  0  0  0  0
   58.9653   29.6346   43.7115 H   0  0  0  0  0  0  0  0  0  0  0  0
   57.8050   33.3240   44.9540 C   0  0  0  0  0  0  0  0  0  0  0  0
   57.1266   33.8176   44.2426 H   0  0  0  0  0  0  0  0  0  0  0  0
   58.8560   33.9100   45.5630 N   0  0  0  0  0  0  0  0  0  0  0  0
   59.2820   35.2930   45.3490 C   0  0  0  0  0  0  0  0  0  0  0  0
   59.4334   35.7846   46.3213 H   0  0  0  0  0  0  0  0  0  0  0  0
   60.2248   35.3028   44.7824 H   0  0  0  0  0  0  0  0  0  0  0  0
   58.5081   35.8315   44.7824 H   0  0  0  0  0  0  0  0  0  0  0  0
   60.4990   30.9400   49.4260 N   0  0  0  0  0  0  0  0  0  0  0  0
   59.6660   30.1860   50.1290 N   0  0  0  0  0  0  0  0  0  0  0  0
   59.9390   28.7830   50.4280 C   0  0  0  0  0  0  0  0  0  0  0  0
   59.9670   28.6392   51.5182 H   0  0  0  0  0  0  0  0  0  0  0  0
   59.1462   28.1549   49.9955 H   0  0  0  0  0  0  0  0  0  0  0  0
   60.9094   28.4980   49.9955 H   0  0  0  0  0  0  0  0  0  0  0  0
   53.8040   31.4780   51.8860 C   0  0  0  0  0  0  0  0  0  0  0  0
   53.6499   32.1554   51.0331 H   0  0  0  0  0  0  0  0  0  0  0  0
  1  2  1  0
  2  3  1  0
  3  4  2  0
  3  5  2  0
  3  6  1  0
  6  7  2  0
  7  8  1  0
  7  9  1  0
  9 10  1  0
  9 11  2  0
 11 12  1  0
 11 13  1  0
 13 14  1  0
 14 15  1  0
 14 16  1  0
 16 17  2  0
 16 18  1  0
 18 19  2  0
 19 20  1  0
 19 21  1  0
 21 22  2  0
 22 23  1  0
 23 24  2  0
 23 25  1  0
 25 26  2  0
 26 27  1  0
 26 28  1  0
 28 29  1  0
 29 30  1  0
 30 31  2  0
 30 32  1  0
 32 33  2  0
 33 34  1  0
 33 35  1  0
 35 36  1  0
 35 37  2  0
 37 38  1  0
 37 39  1  0
 39 40  1  0
 39 41  2  0
 41 42  1  0
 28 43  2  0
 43 44  1  0
 43 45  1  0
 45 46  1  0
 46 47  1  0
 46 48  1  0
 46 49  1  0
 21 50  1  0
 50 51  1  0
 51 52  1  0
 52 53  1  0
 52 54  1  0
 52 55  1  0
 13 56  2  0
 56 57  1  0
 56  6  1  0
 51 18  1  0
 45 25  1  0
 41 32  1  0
M  CHG  3   2  -1  29  -1  50  -1
M  END
>  <UniqueID>  (48) 
43

>  <SMILES>  (48) 
Cn1cc([N-]C(=O)c2ccccc2)cc1C(=O)/N=c1\cc(C(=O)Nc2cccc(S([NH-])(=O)=O)c2)n(C)[n-]1

>  <Energy>  (48) 
139.15618873123833

>  <Genealogy>  (48) 
Cn1cc([N-]C(=O)c2ccccc2)cc1C(=O)N=c1cc(C(=O)Nc2cccc(S([NH-])(=O)=O)c2)n(C)[n-]1 (protonated)
Cn1cc([N-]C(=O)c2ccccc2)cc1C(=O)/N=c1\cc(C(=O)Nc2cccc(S([NH-])(=O)=O)c2)n(C)[n-]1 (cis-trans isomerization)
Cn1cc([N-]C(=O)c2ccccc2)cc1C(=O)/N=c1\cc(C(=O)Nc2cccc(S([NH-])(=O)=O)c2)n(C)[n-]1 (3D coordinates assigned)
Cn1cc([N-]C(=O)c2ccccc2)cc1C(=O)/N=c1\cc(C(=O)Nc2cccc(S([NH-])(=O)=O)c2)n(C)[n-]1 (optimized conformer: 139.15618873123833 kcal/mol)

>  <smiles>  (48) 
Cn1cc(NC(=O)c2ccccc2)cc1C(=O)N=c1cc(C(=O)Nc2cccc(S(N)(=O)=O)c2)n(C)[nH]1

>  <score_type>  (48) 
oracle

>  <origin>  (48) 
adg

>  <m_score__min__energy>  (48) 
-16.280000000000001

>  <m_primary>  (48) 
energy

$$$$
48:0
     RDKit          3D

 38 40  0  0  0  0  0  0  0  0999 V2000
   56.6630   30.9220   44.5240 O   0  0  0  0  0  0  0  0  0  0  0  0
   56.4480   29.7320   44.8720 C   0  0  0  0  0  0  0  0  0  0  0  0
   55.1380   29.2660   44.8660 O   0  0  0  0  0  0  0  0  0  0  0  0
   57.5600   28.8330   45.2830 C   0  0  0  0  0  0  0  0  0  0  0  0
   57.8140   27.6800   44.5160 C   0  0  0  0  0  0  0  0  0  0  0  0
   58.8460   26.8050   44.8570 C   0  0  0  0  0  0  0  0  0  0  0  0
   59.6430   27.0630   45.9710 C   0  0  0  0  0  0  0  0  0  0  0  0
   60.9400   25.9620   46.3960 Cl  0  0  0  0  0  0  0  0  0  0  0  0
   59.4100   28.2000   46.7470 C   0  0  0  0  0  0  0  0  0  0  0  0
   58.3730   29.0960   46.4180 C   0  0  0  0  0  0  0  0  0  0  0  0
   58.1330   30.2650   47.2170 N   0  0  0  0  0  0  0  0  0  0  0  0
   59.3200   31.4420   47.6810 S   0  0  0  0  0  0  0  0  0  0  0  0
   59.1090   31.8290   49.1170 O   0  0  0  0  0  0  0  0  0  0  0  0
   60.6870   30.8420   47.4990 O   0  0  0  0  0  0  0  0  0  0  0  0
   59.1570   32.8800   46.6600 C   0  0  0  0  0  0  0  0  0  0  0  0
   57.9880   33.0350   45.8960 C   0  0  0  0  0  0  0  0  0  0  0  0
   57.8380   34.1270   45.0400 C   0  0  0  0  0  0  0  0  0  0  0  0
   58.8500   35.0780   44.9340 C   0  0  0  0  0  0  0  0  0  0  0  0
   60.0130   34.9470   45.6950 C   0  0  0  0  0  0  0  0  0  0  0  0
   60.1760   33.8610   46.5710 C   0  0  0  0  0  0  0  0  0  0  0  0
   61.4100   33.7900   47.3790 C   0  0  0  0  0  0  0  0  0  0  0  0
   62.6200   33.3830   46.7960 C   0  0  0  0  0  0  0  0  0  0  0  0
   63.7840   33.3130   47.5670 C   0  0  0  0  0  0  0  0  0  0  0  0
   63.7450   33.6380   48.9250 C   0  0  0  0  0  0  0  0  0  0  0  0
   62.5400   34.0300   49.5160 C   0  0  0  0  0  0  0  0  0  0  0  0
   61.3740   34.1020   48.7480 C   0  0  0  0  0  0  0  0  0  0  0  0
   57.1902   27.4660   43.6356 H   0  0  0  0  0  0  0  0  0  0  0  0
   59.0310   25.9096   44.2453 H   0  0  0  0  0  0  0  0  0  0  0  0
   60.0426   28.3987   47.6247 H   0  0  0  0  0  0  0  0  0  0  0  0
   57.1836   32.2887   45.9733 H   0  0  0  0  0  0  0  0  0  0  0  0
   56.9179   34.2369   44.4473 H   0  0  0  0  0  0  0  0  0  0  0  0
   58.7329   35.9321   44.2508 H   0  0  0  0  0  0  0  0  0  0  0  0
   60.8091   35.7011   45.6079 H   0  0  0  0  0  0  0  0  0  0  0  0
   62.6526   33.1182   45.7288 H   0  0  0  0  0  0  0  0  0  0  0  0
   64.7318   33.0016   47.1037 H   0  0  0  0  0  0  0  0  0  0  0  0
   64.6625   33.5855   49.5295 H   0  0  0  0  0  0  0  0  0  0  0  0
   62.5094   34.2820   50.5863 H   0  0  0  0  0  0  0  0  0  0  0  0
   60.4259   34.4038   49.2171 H   0  0  0  0  0  0  0  0  0  0  0  0
  1  2  2  0
  2  3  1  0
  2  4  1  0
  4  5  2  0
  5  6  1  0
  6  7  2  0
  7  8  1  0
  7  9  1  0
  9 10  2  0
 10 11  1  0
 11 12  1  0
 12 13  2  0
 12 14  2  0
 12 15  1  0
 15 16  2  0
 16 17  1  0
 17 18  2  0
 18 19  1  0
 19 20  2  0
 20 21  1  0
 21 22  2  0
 22 23  1  0
 23 24  2  0
 24 25  1  0
 25 26  2  0
 10  4  1  0
 20 15  1  0
 26 21  1  0
  5 27  1  0
  6 28  1  0
  9 29  1  0
 16 30  1  0
 17 31  1  0
 18 32  1  0
 19 33  1  0
 22 34  1  0
 23 35  1  0
 24 36  1  0
 25 37  1  0
 26 38  1  0
M  CHG  2   3  -1  11  -1
M  END
>  <UniqueID>  (49) 
44

>  <SMILES>  (49) 
O=C([O-])c1ccc(Cl)cc1[N-]S(=O)(=O)c1ccccc1-c1ccccc1

>  <Energy>  (49) 
56.37207518203577

>  <Genealogy>  (49) 
O=C([O-])c1ccc(Cl)cc1[N-]S(=O)(=O)c1ccccc1-c1ccccc1 (protonated)
O=C([O-])c1ccc(Cl)cc1[N-]S(=O)(=O)c1ccccc1-c1ccccc1 (3D coordinates assigned)
O=C([O-])c1ccc(Cl)cc1[N-]S(=O)(=O)c1ccccc1-c1ccccc1 (optimized conformer: 56.37207518203577 kcal/mol)

>  <smiles>  (49) 
O=C(O)c1ccc(Cl)cc1NS(=O)(=O)c1ccccc1-c1ccccc1

>  <score_type>  (49) 
oracle

>  <origin>  (49) 
adg

>  <m_score__min__energy>  (49) 
-12.43

>  <m_primary>  (49) 
energy

$$$$
49:0
     RDKit          3D

 38 39  0  0  0  0  0  0  0  0999 V2000
   57.1240   28.9110   43.0420 N   0  0  0  0  0  0  0  0  0  0  0  0
   56.6010   29.3060   44.6410 S   0  0  0  0  0  0  0  0  0  0  0  0
   55.8930   28.1240   45.2470 O   0  0  0  0  0  0  0  0  0  0  0  0
   55.6450   30.4630   44.5830 O   0  0  0  0  0  0  0  0  0  0  0  0
   57.9980   29.7310   45.6240 C   0  0  0  0  0  0  0  0  0  0  0  0
   58.2420   29.0590   46.8300 C   0  0  0  0  0  0  0  0  0  0  0  0
   59.3450   29.4060   47.6170 C   0  0  0  0  0  0  0  0  0  0  0  0
   60.2020   30.4450   47.2160 C   0  0  0  0  0  0  0  0  0  0  0  0
   61.3560   30.8090   47.9870 N   0  0  0  0  0  0  0  0  0  0  0  0
   62.2720   31.8750   47.7000 C   0  0  0  0  0  0  0  0  0  0  0  0
   63.3150   31.6160   47.0430 O   0  0  0  0  0  0  0  0  0  0  0  0
   62.0070   33.2890   48.1370 C   0  0  0  0  0  0  0  0  0  0  0  0
   60.7640   33.3560   48.9200 N   0  0  0  0  0  0  0  0  0  0  0  0
   59.9400   34.5160   48.5480 C   0  0  0  0  0  0  0  0  0  0  0  0
   59.1720   34.2810   47.2680 C   0  0  0  0  0  0  0  0  0  0  0  0
   57.9640   33.5620   47.2850 C   0  0  0  0  0  0  0  0  0  0  0  0
   57.2420   33.3730   46.1030 C   0  0  0  0  0  0  0  0  0  0  0  0
   57.7170   33.8990   44.8990 C   0  0  0  0  0  0  0  0  0  0  0  0
   58.9150   34.6200   44.8750 C   0  0  0  0  0  0  0  0  0  0  0  0
   59.6400   34.8130   46.0560 C   0  0  0  0  0  0  0  0  0  0  0  0
   59.9670   31.0970   46.0000 C   0  0  0  0  0  0  0  0  0  0  0  0
   58.8650   30.7510   45.2130 C   0  0  0  0  0  0  0  0  0  0  0  0
   56.9890   27.8830   42.9200 H   0  0  0  0  0  0  0  0  0  0  0  0
   58.1540   29.0860   43.0050 H   0  0  0  0  0  0  0  0  0  0  0  0
   57.5644   28.2570   47.1581 H   0  0  0  0  0  0  0  0  0  0  0  0
   59.5424   28.8635   48.5534 H   0  0  0  0  0  0  0  0  0  0  0  0
   62.8454   33.6408   48.7561 H   0  0  0  0  0  0  0  0  0  0  0  0
   61.9038   33.9258   47.2460 H   0  0  0  0  0  0  0  0  0  0  0  0
   60.2110   32.4810   48.7570 H   0  0  0  0  0  0  0  0  0  0  0  0
   59.2246   34.7175   49.3589 H   0  0  0  0  0  0  0  0  0  0  0  0
   60.6125   35.3715   48.3872 H   0  0  0  0  0  0  0  0  0  0  0  0
   57.5859   33.1470   48.2310 H   0  0  0  0  0  0  0  0  0  0  0  0
   56.2978   32.8089   46.1209 H   0  0  0  0  0  0  0  0  0  0  0  0
   57.1486   33.7460   43.9698 H   0  0  0  0  0  0  0  0  0  0  0  0
   59.2876   35.0356   43.9271 H   0  0  0  0  0  0  0  0  0  0  0  0
   60.5801   35.3837   46.0348 H   0  0  0  0  0  0  0  0  0  0  0  0
   60.6539   31.8867   45.6616 H   0  0  0  0  0  0  0  0  0  0  0  0
   58.6781   31.2816   44.2677 H   0  0  0  0  0  0  0  0  0  0  0  0
  1  2  1  0
  2  3  2  0
  2  4  2  0
  2  5  1  0
  5  6  2  0
  6  7  1  0
  7  8  2  0
  8  9  1  0
  9 10  1  0
 10 11  2  0
 10 12  1  0
 12 13  1  0
 13 14  1  0
 14 15  1  0
 15 16  2  0
 16 17  1  0
 17 18  2  0
 18 19  1  0
 19 20  2  0
  8 21  1  0
 21 22  2  0
 22  5  1  0
 20 15  1  0
  1 23  1  0
  1 24  1  0
  6 25  1  0
  7 26  1  0
 12 27  1  0
 12 28  1  0
 13 29  1  0
 14 30  1  0
 14 31  1  0
 16 32  1  0
 17 33  1  0
 18 34  1  0
 19 35  1  0
 20 36  1  0
 21 37  1  0
 22 38  1  0
M  CHG  1   9  -1
M  END
>  <UniqueID>  (50) 
45

>  <SMILES>  (50) 
NS(=O)(=O)c1ccc([N-]C(=O)CNCc2ccccc2)cc1

>  <Energy>  (50) 
40.6648233928406

>  <Genealogy>  (50) 
NS(=O)(=O)c1ccc([N-]C(=O)CNCc2ccccc2)cc1 (protonated)
NS(=O)(=O)c1ccc([N-]C(=O)CNCc2ccccc2)cc1 (3D coordinates assigned)
NS(=O)(=O)c1ccc([N-]C(=O)CNCc2ccccc2)cc1 (optimized conformer: 40.6648233928406 kcal/mol)

>  <smiles>  (50) 
NS(=O)(=O)c1ccc(NC(=O)CNCc2ccccc2)cc1

>  <score_type>  (50) 
oracle

>  <origin>  (50) 
adg

>  <m_score__min__energy>  (50) 
-8.7400000000000002

>  <m_primary>  (50) 
energy

$$$$
50:0
     RDKit          3D

 34 35  0  0  0  0  0  0  0  0999 V2000
   56.5543   30.9039   43.2859 H   0  0  0  0  0  0  0  0  0  0  0  0
   57.3530   30.7740   44.0310 C   0  0  0  0  0  0  0  0  0  0  0  0
   58.1000   31.7860   44.3340 N   0  0  0  0  0  0  0  0  0  0  0  0
   57.5890   32.8470   45.0450 O   0  0  0  0  0  0  0  0  0  0  0  0
   57.7310   32.8990   46.4560 C   0  0  0  0  0  0  0  0  0  0  0  0
   57.4461   33.8983   46.8170 H   0  0  0  0  0  0  0  0  0  0  0  0
   57.0793   32.1434   46.9191 H   0  0  0  0  0  0  0  0  0  0  0  0
   59.1660   32.6210   46.8250 C   0  0  0  0  0  0  0  0  0  0  0  0
   59.5050   31.3790   47.3920 C   0  0  0  0  0  0  0  0  0  0  0  0
   58.7260   30.6176   47.5450 H   0  0  0  0  0  0  0  0  0  0  0  0
   60.8240   31.1060   47.7620 C   0  0  0  0  0  0  0  0  0  0  0  0
   61.0810   30.1286   48.1963 H   0  0  0  0  0  0  0  0  0  0  0  0
   61.8160   32.0700   47.5820 C   0  0  0  0  0  0  0  0  0  0  0  0
   62.8540   31.8510   47.8728 H   0  0  0  0  0  0  0  0  0  0  0  0
   61.4930   33.3130   47.0330 C   0  0  0  0  0  0  0  0  0  0  0  0
   62.2780   34.0709   46.8943 H   0  0  0  0  0  0  0  0  0  0  0  0
   60.1730   33.5990   46.6580 C   0  0  0  0  0  0  0  0  0  0  0  0
   59.8740   34.9000   46.1090 C   0  0  0  0  0  0  0  0  0  0  0  0
   59.6340   35.9440   45.6690 N   0  0  0  0  0  0  0  0  0  0  0  0
   57.5420   29.4460   44.6580 C   0  0  0  0  0  0  0  0  0  0  0  0
   58.8540   28.9990   44.8810 C   0  0  0  0  0  0  0  0  0  0  0  0
   59.7029   29.6349   44.5893 H   0  0  0  0  0  0  0  0  0  0  0  0
   59.0920   27.7560   45.4690 C   0  0  0  0  0  0  0  0  0  0  0  0
   60.1251   27.4179   45.6373 H   0  0  0  0  0  0  0  0  0  0  0  0
   58.0240   26.9410   45.8440 C   0  0  0  0  0  0  0  0  0  0  0  0
   58.2180   25.9620   46.3066 H   0  0  0  0  0  0  0  0  0  0  0  0
   56.7000   27.3660   45.6330 C   0  0  0  0  0  0  0  0  0  0  0  0
   55.5970   26.5770   45.9960 O   0  0  0  0  0  0  0  0  0  0  0  0
   55.5060   25.1720   45.7850 C   0  0  0  0  0  0  0  0  0  0  0  0
   55.4726   24.6568   46.7563 H   0  0  0  0  0  0  0  0  0  0  0  0
   54.5913   24.9449   45.2178 H   0  0  0  0  0  0  0  0  0  0  0  0
   56.3838   24.8288   45.2178 H   0  0  0  0  0  0  0  0  0  0  0  0
   56.4620   28.6170   45.0410 C   0  0  0  0  0  0  0  0  0  0  0  0
   55.1450   29.0210   44.8400 O   0  0  0  0  0  0  0  0  0  0  0  0
  1  2  1  0
  2  3  2  0
  3  4  1  0
  4  5  1  0
  5  6  1  0
  5  7  1  0
  5  8  1  0
  8  9  2  0
  9 10  1  0
  9 11  1  0
 11 12  1  0
 11 13  2  0
 13 14  1  0
 13 15  1  0
 15 16  1  0
 15 17  2  0
 17 18  1  0
 18 19  3  0
  2 20  1  0
 20 21  2  0
 21 22  1  0
 21 23  1  0
 23 24  1  0
 23 25  2  0
 25 26  1  0
 25 27  1  0
 27 28  1  0
 28 29  1  0
 29 30  1  0
 29 31  1  0
 29 32  1  0
 27 33  2  0
 33 34  1  0
 17  8  1  0
 33 20  1  0
M  CHG  1  34  -1
M  END
>  <UniqueID>  (51) 
46

>  <SMILES>  (51) 
COc1cccc(/C=N/OCc2ccccc2C#N)c1[O-]

>  <Energy>  (51) 
32.18969701823849

>  <Genealogy>  (51) 
COc1cccc(C=NOCc2ccccc2C#N)c1[O-] (protonated)
COc1cccc(/C=N/OCc2ccccc2C#N)c1[O-] (cis-trans isomerization)
COc1cccc(/C=N/OCc2ccccc2C#N)c1[O-] (3D coordinates assigned)
COc1cccc(/C=N/OCc2ccccc2C#N)c1[O-] (optimized conformer: 32.18969701823849 kcal/mol)

>  <smiles>  (51) 
COc1cccc(C=NOCc2ccccc2C#N)c1O

>  <score_type>  (51) 
oracle

>  <origin>  (51) 
adg

>  <m_score__min__energy>  (51) 
-11.56

>  <m_primary>  (51) 
energy

$$$$
51:0
     RDKit          3D

 63 67  0  0  0  0  0  0  0  0999 V2000
   61.8410   33.4840   46.3750 C   0  0  0  0  0  0  0  0  0  0  0  0
   61.3290   33.1230   47.7800 C   0  0  1  0  0  0  0  0  0  0  0  0
   60.7650   34.3660   48.5010 C   0  0  0  0  0  0  0  0  0  0  0  0
   59.6370   33.8490   49.3730 C   0  0  0  0  0  0  0  0  0  0  0  0
   59.3180   32.5540   48.7370 C   0  0  0  0  0  0  0  0  0  0  0  0
   58.2860   31.9500   48.9910 O   0  0  0  0  0  0  0  0  0  0  0  0
   60.2450   32.1140   47.7230 N   0  0  2  0  0  0  0  0  0  0  0  0
   60.8330   30.7820   47.9880 C   0  0  2  0  0  0  0  0  0  0  0  0
   59.7770   29.6840   48.1250 C   0  0  0  0  0  0  0  0  0  0  0  0
   59.8990   28.8830   49.0890 O   0  0  0  0  0  0  0  0  0  0  0  0
   58.5840   29.5730   47.3280 N   0  0  0  0  0  0  0  0  0  0  0  0
   58.3440   28.7240   46.2060 C   0  0  0  0  0  0  0  0  0  0  0  0
   58.4130   27.3370   46.3870 C   0  0  0  0  0  0  0  0  0  0  0  0
   58.1630   26.4670   45.3210 C   0  0  0  0  0  0  0  0  0  0  0  0
   58.2470   24.7270   45.5850 S   0  0  0  0  0  0  0  0  0  0  0  0
   59.6470   24.3700   45.9980 O   0  0  0  0  0  0  0  0  0  0  0  0
   57.2980   24.3210   46.6800 O   0  0  0  0  0  0  0  0  0  0  0  0
   57.8300   23.8970   44.1060 N   0  0  0  0  0  0  0  0  0  0  0  0
   56.4300   24.1760   43.7110 C   0  0  0  0  0  0  0  0  0  0  0  0
   55.4990   22.9820   43.9840 C   0  0  0  0  0  0  0  0  0  0  0  0
   55.9010   21.7950   43.3150 O   0  0  0  0  0  0  0  0  0  0  0  0
   57.3130   21.6450   43.2110 C   0  0  0  0  0  0  0  0  0  0  0  0
   58.1110   22.4560   44.2450 C   0  0  0  0  0  0  0  0  0  0  0  0
   57.8610   26.9880   44.0600 C   0  0  0  0  0  0  0  0  0  0  0  0
   57.8240   28.3710   43.8610 C   0  0  0  0  0  0  0  0  0  0  0  0
   58.0840   29.2570   44.9220 C   0  0  0  0  0  0  0  0  0  0  0  0
   58.0740   30.6810   44.6880 N   0  0  0  0  0  0  0  0  0  0  0  0
   58.1660   31.2780   43.3620 C   0  0  0  0  0  0  0  0  0  0  0  0
   57.7330   32.7280   43.5330 C   0  0  0  0  0  0  0  0  0  0  0  0
   57.8380   33.0180   45.0270 C   0  0  0  0  0  0  0  0  0  0  0  0
   57.7500   31.6630   45.7130 C   0  0  0  0  0  0  0  0  0  0  0  0
   61.8430   30.9390   49.1110 C   0  0  0  0  0  0  0  0  0  0  0  0
   62.7380   32.4630   48.7580 S   0  0  0  0  0  0  0  0  0  0  0  0
   62.7372   34.1159   46.4625 H   0  0  0  0  0  0  0  0  0  0  0  0
   62.0935   32.5631   45.8289 H   0  0  0  0  0  0  0  0  0  0  0  0
   61.0584   34.0312   45.8289 H   0  0  0  0  0  0  0  0  0  0  0  0
   61.5430   34.8387   49.1184 H   0  0  0  0  0  0  0  0  0  0  0  0
   60.4152   35.1281   47.7891 H   0  0  0  0  0  0  0  0  0  0  0  0
   59.9679   33.7116   50.4130 H   0  0  0  0  0  0  0  0  0  0  0  0
   58.7781   34.5335   49.4351 H   0  0  0  0  0  0  0  0  0  0  0  0
   59.7530   32.1240   46.7970 H   0  0  0  0  0  0  0  0  0  0  0  0
   61.3956   30.4018   47.1226 H   0  0  0  0  0  0  0  0  0  0  0  0
   58.6661   26.9283   47.3764 H   0  0  0  0  0  0  0  0  0  0  0  0
   56.0679   25.0447   44.2804 H   0  0  0  0  0  0  0  0  0  0  0  0
   56.4178   24.3726   42.6288 H   0  0  0  0  0  0  0  0  0  0  0  0
   55.4888   22.7869   45.0665 H   0  0  0  0  0  0  0  0  0  0  0  0
   54.5025   23.2505   43.6033 H   0  0  0  0  0  0  0  0  0  0  0  0
   57.5575   20.5808   43.3441 H   0  0  0  0  0  0  0  0  0  0  0  0
   57.5993   22.0275   42.2202 H   0  0  0  0  0  0  0  0  0  0  0  0
   57.8286   22.1289   45.2565 H   0  0  0  0  0  0  0  0  0  0  0  0
   59.1846   22.2868   44.0753 H   0  0  0  0  0  0  0  0  0  0  0  0
   57.6517   26.3076   43.2214 H   0  0  0  0  0  0  0  0  0  0  0  0
   57.5890   28.7709   42.8636 H   0  0  0  0  0  0  0  0  0  0  0  0
   59.1998   31.2276   42.9894 H   0  0  0  0  0  0  0  0  0  0  0  0
   57.5346   30.7486   42.6333 H   0  0  0  0  0  0  0  0  0  0  0  0
   58.3974   33.3960   42.9652 H   0  0  0  0  0  0  0  0  0  0  0  0
   56.7119   32.8931   43.1587 H   0  0  0  0  0  0  0  0  0  0  0  0
   58.7977   33.5037   45.2575 H   0  0  0  0  0  0  0  0  0  0  0  0
   57.0437   33.6989   45.3666 H   0  0  0  0  0  0  0  0  0  0  0  0
   58.4713   31.6049   46.5415 H   0  0  0  0  0  0  0  0  0  0  0  0
   56.7519   31.4887   46.1413 H   0  0  0  0  0  0  0  0  0  0  0  0
   61.3290   31.0126   50.0808 H   0  0  0  0  0  0  0  0  0  0  0  0
   62.5217   30.0752   49.1684 H   0  0  0  0  0  0  0  0  0  0  0  0
  2  1  1  6
  2  3  1  0
  3  4  1  0
  4  5  1  0
  5  6  2  0
  5  7  1  0
  7  8  1  0
  8  9  1  0
  9 10  2  0
  9 11  1  0
 11 12  1  0
 12 13  2  0
 13 14  1  0
 14 15  1  0
 15 16  2  0
 15 17  2  0
 15 18  1  0
 18 19  1  0
 19 20  1  0
 20 21  1  0
 21 22  1  0
 22 23  1  0
 14 24  2  0
 24 25  1  0
 25 26  2  0
 26 27  1  0
 27 28  1  0
 28 29  1  0
 29 30  1  0
 30 31  1  0
  8 32  1  0
 32 33  1  0
  7  2  1  0
 26 12  1  0
 31 27  1  0
 33  2  1  0
 23 18  1  0
  1 34  1  0
  1 35  1  0
  1 36  1  0
  3 37  1  0
  3 38  1  0
  4 39  1  0
  4 40  1  0
  7 41  1  6
  8 42  1  6
 13 43  1  0
 19 44  1  0
 19 45  1  0
 20 46  1  0
 20 47  1  0
 22 48  1  0
 22 49  1  0
 23 50  1  0
 23 51  1  0
 24 52  1  0
 25 53  1  0
 28 54  1  0
 28 55  1  0
 29 56  1  0
 29 57  1  0
 30 58  1  0
 30 59  1  0
 31 60  1  0
 31 61  1  0
 32 62  1  0
 32 63  1  0
M  CHG  2   7   1  11  -1
M  END
>  <UniqueID>  (52) 
47

>  <SMILES>  (52) 
C[C@@]12CCC(=O)[N@@H+]1C(C(=O)[N-]c1cc(S(=O)(=O)N3CCOCC3)ccc1N1CCCC1)CS2

>  <Energy>  (52) 
95.97441951589795

>  <Genealogy>  (52) 
CC12CCC(=O)[NH+]1C(C(=O)[N-]c1cc(S(=O)(=O)N3CCOCC3)ccc1N1CCCC1)CS2 (protonated)
C[C@@]12CCC(=O)[N@@H+]1C(C(=O)[N-]c1cc(S(=O)(=O)N3CCOCC3)ccc1N1CCCC1)CS2 (chirality)
C[C@@]12CCC(=O)[N@@H+]1C(C(=O)[N-]c1cc(S(=O)(=O)N3CCOCC3)ccc1N1CCCC1)CS2 (3D coordinates assigned)
C[C@@]12CCC(=O)[N@@H+]1C(C(=O)[N-]c1cc(S(=O)(=O)N3CCOCC3)ccc1N1CCCC1)CS2 (nonaromatic ring conformer: 95.97441951589795 kcal/mol)

>  <smiles>  (52) 
CC12CCC(=O)N1C(C(=O)Nc1cc(S(=O)(=O)N3CCOCC3)ccc1N1CCCC1)CS2

>  <score_type>  (52) 
oracle

>  <origin>  (52) 
adg

>  <m_score__min__energy>  (52) 
-9.7100000000000009

>  <m_primary>  (52) 
energy

$$$$
52:0
     RDKit          3D

 29 30  0  0  0  0  0  0  0  0999 V2000
   55.6990   30.0970   43.8600 C   0  0  0  0  0  0  0  0  0  0  0  0
   55.5900   29.1210   44.8910 O   0  0  0  0  0  0  0  0  0  0  0  0
   56.6070   28.2190   45.2430 C   0  0  0  0  0  0  0  0  0  0  0  0
   57.9680   28.5170   45.0570 C   0  0  0  0  0  0  0  0  0  0  0  0
   58.9470   27.5910   45.4140 C   0  0  0  0  0  0  0  0  0  0  0  0
   58.5920   26.3510   45.9530 C   0  0  0  0  0  0  0  0  0  0  0  0
   59.6170   25.4420   46.2270 O   0  0  0  0  0  0  0  0  0  0  0  0
   57.2270   26.0440   46.1720 C   0  0  0  0  0  0  0  0  0  0  0  0
   56.8130   24.7730   46.8050 C   0  0  0  0  0  0  0  0  0  0  0  0
   55.9140   24.7740   47.6870 O   0  0  0  0  0  0  0  0  0  0  0  0
   57.4540   23.5490   46.4210 N   0  0  0  0  0  0  0  0  0  0  0  0
   57.2640   22.8320   45.1920 C   0  0  0  0  0  0  0  0  0  0  0  0
   58.3520   22.1570   44.6270 C   0  0  0  0  0  0  0  0  0  0  0  0
   58.2020   21.4690   43.4230 C   0  0  0  0  0  0  0  0  0  0  0  0
   56.9620   21.4780   42.7820 C   0  0  0  0  0  0  0  0  0  0  0  0
   55.9200   22.1590   43.3250 N   0  0  0  0  0  0  0  0  0  0  0  0
   56.0400   22.8330   44.5010 C   0  0  0  0  0  0  0  0  0  0  0  0
   56.2440   26.9860   45.8020 C   0  0  0  0  0  0  0  0  0  0  0  0
   54.8940   26.7130   46.0090 O   0  0  0  0  0  0  0  0  0  0  0  0
   55.8104   31.0946   44.3098 H   0  0  0  0  0  0  0  0  0  0  0  0
   56.5780   29.8755   43.2369 H   0  0  0  0  0  0  0  0  0  0  0  0
   54.7928   30.0749   43.2369 H   0  0  0  0  0  0  0  0  0  0  0  0
   58.2621   29.4860   44.6275 H   0  0  0  0  0  0  0  0  0  0  0  0
   60.0091   27.8385   45.2702 H   0  0  0  0  0  0  0  0  0  0  0  0
   59.4660   24.4490   46.3430 H   0  0  0  0  0  0  0  0  0  0  0  0
   59.3282   22.1691   45.1339 H   0  0  0  0  0  0  0  0  0  0  0  0
   59.0513   20.9254   42.9835 H   0  0  0  0  0  0  0  0  0  0  0  0
   56.8287   20.9329   41.8359 H   0  0  0  0  0  0  0  0  0  0  0  0
   55.1780   23.3793   44.9114 H   0  0  0  0  0  0  0  0  0  0  0  0
  1  2  1  0
  2  3  1  0
  3  4  2  0
  4  5  1  0
  5  6  2  0
  6  7  1  0
  6  8  1  0
  8  9  1  0
  9 10  2  0
  9 11  1  0
 11 12  1  0
 12 13  2  0
 13 14  1  0
 14 15  2  0
 15 16  1  0
 16 17  2  0
  8 18  2  0
 18 19  1  0
 18  3  1  0
 17 12  1  0
  1 20  1  0
  1 21  1  0
  1 22  1  0
  4 23  1  0
  5 24  1  0
  7 25  1  0
 13 26  1  0
 14 27  1  0
 15 28  1  0
 17 29  1  0
M  CHG  2  11  -1  19  -1
M  END
>  <UniqueID>  (53) 
48

>  <SMILES>  (53) 
COc1ccc(O)c(C(=O)[N-]c2cccnc2)c1[O-]

>  <Energy>  (53) 
40.765723734345805

>  <Genealogy>  (53) 
COc1ccc(O)c(C(=O)[N-]c2cccnc2)c1[O-] (protonated)
COc1ccc(O)c(C(=O)[N-]c2cccnc2)c1[O-] (3D coordinates assigned)
COc1ccc(O)c(C(=O)[N-]c2cccnc2)c1[O-] (optimized conformer: 40.765723734345805 kcal/mol)

>  <smiles>  (53) 
COc1ccc(O)c(C(=O)Nc2cccnc2)c1O

>  <score_type>  (53) 
oracle

>  <origin>  (53) 
adg

>  <m_score__min__energy>  (53) 
-11.51

>  <m_primary>  (53) 
energy

$$$$
53:0
     RDKit          3D

 63 66  0  0  0  0  0  0  0  0999 V2000
   59.8420   26.3720   47.0690 C   0  0  0  0  0  0  0  0  0  0  0  0
   60.3010   27.4890   46.4960 C   0  0  0  0  0  0  0  0  0  0  0  0
   59.9620   27.8540   45.0780 C   0  0  0  0  0  0  0  0  0  0  0  0
   58.6850   28.5680   45.0420 N   0  0  0  0  0  0  0  0  0  0  0  0
   57.4400   28.0440   44.9450 C   0  0  0  0  0  0  0  0  0  0  0  0
   57.0960   26.5800   44.9680 C   0  0  0  0  0  0  0  0  0  0  0  0
   56.1640   26.2510   46.1060 C   0  0  0  0  0  0  0  0  0  0  0  0
   56.6310   26.0620   47.2610 O   0  0  0  0  0  0  0  0  0  0  0  0
   54.7590   26.0690   45.8980 N   0  0  0  0  0  0  0  0  0  0  0  0
   54.1230   24.7890   45.6150 C   0  0  0  0  0  0  0  0  0  0  0  0
   55.1490   23.8330   45.0760 C   0  0  0  0  0  0  0  0  0  0  0  0
   55.3360   23.7060   43.6890 C   0  0  0  0  0  0  0  0  0  0  0  0
   56.3150   22.8420   43.1870 C   0  0  0  0  0  0  0  0  0  0  0  0
   57.1190   22.1090   44.0660 C   0  0  0  0  0  0  0  0  0  0  0  0
   56.9490   22.2420   45.4470 C   0  0  0  0  0  0  0  0  0  0  0  0
   55.9720   23.1060   45.9530 C   0  0  0  0  0  0  0  0  0  0  0  0
   56.5370   29.0890   44.8950 C   0  0  0  0  0  0  0  0  0  0  0  0
   55.1550   28.9690   44.8150 O   0  0  0  0  0  0  0  0  0  0  0  0
   57.2030   30.2590   44.9390 N   0  0  0  0  0  0  0  0  0  0  0  0
   56.6430   31.6100   44.8520 C   0  0  0  0  0  0  0  0  0  0  0  0
   57.5850   32.5380   44.1300 C   0  0  0  0  0  0  0  0  0  0  0  0
   57.9060   32.2860   42.9380 O   0  0  0  0  0  0  0  0  0  0  0  0
   58.2660   33.5980   44.8140 N   0  0  0  0  0  0  0  0  0  0  0  0
   58.9270   33.4960   46.0810 C   0  0  0  0  0  0  0  0  0  0  0  0
   58.2210   33.1620   47.2470 C   0  0  0  0  0  0  0  0  0  0  0  0
   58.8860   33.0920   48.4740 C   0  0  0  0  0  0  0  0  0  0  0  0
   60.2500   33.3810   48.5500 C   0  0  0  0  0  0  0  0  0  0  0  0
   60.9550   33.7670   47.4050 C   0  0  0  0  0  0  0  0  0  0  0  0
   62.3240   34.0500   47.5210 O   0  0  0  0  0  0  0  0  0  0  0  0
   63.1360   33.7160   48.6170 C   0  0  0  0  0  0  0  0  0  0  0  0
   64.0820   32.6950   48.4660 C   0  0  0  0  0  0  0  0  0  0  0  0
   64.8970   32.3190   49.5390 C   0  0  0  0  0  0  0  0  0  0  0  0
   64.7610   32.9550   50.7760 C   0  0  0  0  0  0  0  0  0  0  0  0
   63.8080   33.9640   50.9410 C   0  0  0  0  0  0  0  0  0  0  0  0
   62.9910   34.3420   49.8700 C   0  0  0  0  0  0  0  0  0  0  0  0
   60.2890   33.8170   46.1680 C   0  0  0  0  0  0  0  0  0  0  0  0
   58.5040   29.9090   45.0130 C   0  0  0  0  0  0  0  0  0  0  0  0
   59.4520   30.7410   45.0430 O   0  0  0  0  0  0  0  0  0  0  0  0
   60.1109   26.1370   48.1094 H   0  0  0  0  0  0  0  0  0  0  0  0
   59.1953   25.6877   46.5001 H   0  0  0  0  0  0  0  0  0  0  0  0
   60.9465   28.1615   47.0800 H   0  0  0  0  0  0  0  0  0  0  0  0
   60.7529   28.4992   44.6679 H   0  0  0  0  0  0  0  0  0  0  0  0
   59.8826   26.9369   44.4758 H   0  0  0  0  0  0  0  0  0  0  0  0
   56.6098   26.3118   44.0184 H   0  0  0  0  0  0  0  0  0  0  0  0
   58.0257   26.0084   45.1061 H   0  0  0  0  0  0  0  0  0  0  0  0
   53.6909   24.3808   46.5406 H   0  0  0  0  0  0  0  0  0  0  0  0
   53.3248   24.9306   44.8714 H   0  0  0  0  0  0  0  0  0  0  0  0
   54.7106   24.2878   42.9959 H   0  0  0  0  0  0  0  0  0  0  0  0
   56.4526   22.7390   42.1005 H   0  0  0  0  0  0  0  0  0  0  0  0
   57.8860   21.4271   43.6700 H   0  0  0  0  0  0  0  0  0  0  0  0
   57.5841   21.6667   46.1367 H   0  0  0  0  0  0  0  0  0  0  0  0
   55.8476   23.2166   47.0403 H   0  0  0  0  0  0  0  0  0  0  0  0
   55.6888   31.5697   44.3063 H   0  0  0  0  0  0  0  0  0  0  0  0
   56.4871   31.9917   45.8718 H   0  0  0  0  0  0  0  0  0  0  0  0
   57.1419   32.9549   47.1949 H   0  0  0  0  0  0  0  0  0  0  0  0
   58.3337   32.8086   49.3821 H   0  0  0  0  0  0  0  0  0  0  0  0
   60.7727   33.3048   49.5149 H   0  0  0  0  0  0  0  0  0  0  0  0
   64.1851   32.1849   47.4969 H   0  0  0  0  0  0  0  0  0  0  0  0
   65.6448   31.5228   49.4091 H   0  0  0  0  0  0  0  0  0  0  0  0
   65.4036   32.6617   51.6192 H   0  0  0  0  0  0  0  0  0  0  0  0
   63.7000   34.4623   51.9157 H   0  0  0  0  0  0  0  0  0  0  0  0
   62.2347   35.1289   50.0069 H   0  0  0  0  0  0  0  0  0  0  0  0
   60.8402   34.1099   45.2622 H   0  0  0  0  0  0  0  0  0  0  0  0
  1  2  2  0
  2  3  1  0
  3  4  1  0
  4  5  1  0
  5  6  1  0
  6  7  1  0
  7  8  2  0
  7  9  1  0
  9 10  1  0
 10 11  1  0
 11 12  2  0
 12 13  1  0
 13 14  2  0
 14 15  1  0
 15 16  2  0
  5 17  2  0
 17 18  1  0
 17 19  1  0
 19 20  1  0
 20 21  1  0
 21 22  2  0
 21 23  1  0
 23 24  1  0
 24 25  2  0
 25 26  1  0
 26 27  2  0
 27 28  1  0
 28 29  1  0
 29 30  1  0
 30 31  2  0
 31 32  1  0
 32 33  2  0
 33 34  1  0
 34 35  2  0
 28 36  2  0
 19 37  1  0
 37 38  2  0
 37  4  1  0
 16 11  1  0
 36 24  1  0
 35 30  1  0
  1 39  1  0
  1 40  1  0
  2 41  1  0
  3 42  1  0
  3 43  1  0
  6 44  1  0
  6 45  1  0
 10 46  1  0
 10 47  1  0
 12 48  1  0
 13 49  1  0
 14 50  1  0
 15 51  1  0
 16 52  1  0
 20 53  1  0
 20 54  1  0
 25 55  1  0
 26 56  1  0
 27 57  1  0
 31 58  1  0
 32 59  1  0
 33 60  1  0
 34 61  1  0
 35 62  1  0
 36 63  1  0
M  CHG  3   9  -1  18  -1  23  -1
M  END
>  <UniqueID>  (54) 
49

>  <SMILES>  (54) 
C=CCn1c(CC(=O)[N-]Cc2ccccc2)c([O-])n(CC(=O)[N-]c2cccc(Oc3ccccc3)c2)c1=O

>  <Energy>  (54) 
107.41003149408326

>  <Genealogy>  (54) 
C=CCn1c(CC(=O)[N-]Cc2ccccc2)c([O-])n(CC(=O)[N-]c2cccc(Oc3ccccc3)c2)c1=O (protonated)
C=CCn1c(CC(=O)[N-]Cc2ccccc2)c([O-])n(CC(=O)[N-]c2cccc(Oc3ccccc3)c2)c1=O (3D coordinates assigned)
C=CCn1c(CC(=O)[N-]Cc2ccccc2)c([O-])n(CC(=O)[N-]c2cccc(Oc3ccccc3)c2)c1=O (optimized conformer: 107.41003149408326 kcal/mol)

>  <smiles>  (54) 
C=CCn1c(CC(=O)NCc2ccccc2)c(O)n(CC(=O)Nc2cccc(Oc3ccccc3)c2)c1=O

>  <score_type>  (54) 
oracle

>  <origin>  (54) 
adg

>  <m_score__min__energy>  (54) 
-16.34

>  <m_primary>  (54) 
energy

$$$$
54:0
     RDKit          3D

 75 80  0  0  0  0  0  0  0  0999 V2000
   57.0140   31.0690   42.2780 O   0  0  0  0  0  0  0  0  0  0  0  0
   57.2980   31.1690   43.7520 S   0  0  0  0  0  0  0  0  0  0  0  0
   56.1330   30.5760   44.4950 O   0  0  0  0  0  0  0  0  0  0  0  0
   58.7970   30.2540   44.1230 C   0  0  0  0  0  0  0  0  0  0  0  0
   58.5610   28.7370   44.2000 C   0  0  0  0  0  0  0  0  0  0  0  0
   58.0360   28.2860   45.5730 C   0  0  0  0  0  0  0  0  0  0  0  0
   59.1450   27.8090   46.4340 N   0  0  0  0  0  0  0  0  0  0  0  0
   58.8430   27.8620   47.8800 C   0  0  0  0  0  0  0  0  0  0  0  0
   58.7980   29.2980   48.4380 C   0  0  0  0  0  0  0  0  0  0  0  0
   59.9570   30.1170   48.0280 N   0  0  0  0  0  0  0  0  0  0  0  0
   61.0360   30.2780   49.0260 C   0  0  0  0  0  0  0  0  0  0  0  0
   60.7280   29.6500   50.3650 C   0  0  0  0  0  0  0  0  0  0  0  0
   61.4810   28.5550   50.8250 C   0  0  0  0  0  0  0  0  0  0  0  0
   61.2210   27.9980   52.0830 C   0  0  0  0  0  0  0  0  0  0  0  0
   60.2150   28.5350   52.8940 C   0  0  0  0  0  0  0  0  0  0  0  0
   59.4720   29.6330   52.4500 C   0  0  0  0  0  0  0  0  0  0  0  0
   59.7300   30.1920   51.1950 C   0  0  0  0  0  0  0  0  0  0  0  0
   60.3790   29.9710   46.6210 C   0  0  0  0  0  0  0  0  0  0  0  0
   60.4130   28.5050   46.1580 C   0  0  0  0  0  0  0  0  0  0  0  0
   57.4900   32.8440   44.1700 N   0  0  0  0  0  0  0  0  0  0  0  0
   58.0930   33.2940   45.3960 C   0  0  0  0  0  0  0  0  0  0  0  0
   57.9190   32.5370   46.5670 C   0  0  0  0  0  0  0  0  0  0  0  0
   58.4980   32.9510   47.7730 C   0  0  0  0  0  0  0  0  0  0  0  0
   59.3060   34.0940   47.8080 C   0  0  0  0  0  0  0  0  0  0  0  0
   59.8970   34.5180   49.0410 N   0  0  0  0  0  0  0  0  0  0  0  0
   60.6970   33.8550   49.8450 C   0  0  0  0  0  0  0  0  0  0  0  0
   62.0420   33.4800   49.5130 C   0  0  0  0  0  0  0  0  0  0  0  0
   62.5510   33.4470   48.1890 C   0  0  0  0  0  0  0  0  0  0  0  0
   63.8860   33.1050   47.9410 C   0  0  0  0  0  0  0  0  0  0  0  0
   64.7270   32.7410   48.9890 C   0  0  0  0  0  0  0  0  0  0  0  0
   64.2270   32.6780   50.2900 C   0  0  0  0  0  0  0  0  0  0  0  0
   62.8900   33.0070   50.5510 C   0  0  0  0  0  0  0  0  0  0  0  0
   62.4040   32.8180   51.8020 N   0  0  0  0  0  0  0  0  0  0  0  0
   61.1080   33.0500   52.1200 C   0  0  0  0  0  0  0  0  0  0  0  0
   60.6700   32.8130   53.4280 C   0  0  0  0  0  0  0  0  0  0  0  0
   59.3470   33.0900   53.7890 C   0  0  0  0  0  0  0  0  0  0  0  0
   58.4540   33.5910   52.8420 C   0  0  0  0  0  0  0  0  0  0  0  0
   58.8790   33.8250   51.5300 C   0  0  0  0  0  0  0  0  0  0  0  0
   60.2140   33.5560   51.1450 C   0  0  0  0  0  0  0  0  0  0  0  0
   59.4690   34.8640   46.6460 C   0  0  0  0  0  0  0  0  0  0  0  0
   58.8630   34.4720   45.4510 C   0  0  0  0  0  0  0  0  0  0  0  0
   59.5369   30.4557   43.3344 H   0  0  0  0  0  0  0  0  0  0  0  0
   59.1538   30.5857   45.1092 H   0  0  0  0  0  0  0  0  0  0  0  0
   57.8248   28.4562   43.4324 H   0  0  0  0  0  0  0  0  0  0  0  0
   59.5295   28.2418   44.0361 H   0  0  0  0  0  0  0  0  0  0  0  0
   57.5382   29.1348   46.0646 H   0  0  0  0  0  0  0  0  0  0  0  0
   57.3270   27.4584   45.4232 H   0  0  0  0  0  0  0  0  0  0  0  0
   57.8642   27.3898   48.0504 H   0  0  0  0  0  0  0  0  0  0  0  0
   59.6533   27.3330   48.4030 H   0  0  0  0  0  0  0  0  0  0  0  0
   57.8802   29.7850   48.0768 H   0  0  0  0  0  0  0  0  0  0  0  0
   58.8213   29.2238   49.5352 H   0  0  0  0  0  0  0  0  0  0  0  0
   61.9495   29.8129   48.6269 H   0  0  0  0  0  0  0  0  0  0  0  0
   61.1536   31.3580   49.1986 H   0  0  0  0  0  0  0  0  0  0  0  0
   62.2776   28.1343   50.1938 H   0  0  0  0  0  0  0  0  0  0  0  0
   61.8085   27.1369   52.4344 H   0  0  0  0  0  0  0  0  0  0  0  0
   60.0089   28.0935   53.8802 H   0  0  0  0  0  0  0  0  0  0  0  0
   58.6836   30.0574   53.0889 H   0  0  0  0  0  0  0  0  0  0  0  0
   59.1487   31.0615   50.8542 H   0  0  0  0  0  0  0  0  0  0  0  0
   59.6741   30.5246   45.9834 H   0  0  0  0  0  0  0  0  0  0  0  0
   61.4016   30.3679   46.5391 H   0  0  0  0  0  0  0  0  0  0  0  0
   60.6037   28.4791   45.0750 H   0  0  0  0  0  0  0  0  0  0  0  0
   61.2103   27.9915   46.7152 H   0  0  0  0  0  0  0  0  0  0  0  0
   57.3470   33.5380   43.4020 H   0  0  0  0  0  0  0  0  0  0  0  0
   57.3237   31.6125   46.5361 H   0  0  0  0  0  0  0  0  0  0  0  0
   58.3178   32.3774   48.6942 H   0  0  0  0  0  0  0  0  0  0  0  0
   61.8882   33.6933   47.3464 H   0  0  0  0  0  0  0  0  0  0  0  0
   64.2728   33.1241   46.9114 H   0  0  0  0  0  0  0  0  0  0  0  0
   65.7829   32.5037   48.7919 H   0  0  0  0  0  0  0  0  0  0  0  0
   64.8855   32.3685   51.1150 H   0  0  0  0  0  0  0  0  0  0  0  0
   61.3684   32.4075   54.1748 H   0  0  0  0  0  0  0  0  0  0  0  0
   59.0106   32.9124   54.8211 H   0  0  0  0  0  0  0  0  0  0  0  0
   57.4130   33.8026   53.1275 H   0  0  0  0  0  0  0  0  0  0  0  0
   58.1684   34.2221   50.7901 H   0  0  0  0  0  0  0  0  0  0  0  0
   60.0768   35.7803   46.6770 H   0  0  0  0  0  0  0  0  0  0  0  0
   58.9876   35.0866   44.5473 H   0  0  0  0  0  0  0  0  0  0  0  0
  1  2  2  0
  2  3  2  0
  2  4  1  0
  4  5  1  0
  5  6  1  0
  6  7  1  0
  7  8  1  0
  8  9  1  0
  9 10  1  0
 10 11  1  0
 11 12  1  0
 12 13  2  0
 13 14  1  0
 14 15  2  0
 15 16  1  0
 16 17  2  0
 10 18  1  0
 18 19  1  0
  2 20  1  0
 20 21  1  0
 21 22  2  0
 22 23  1  0
 23 24  2  0
 24 25  1  0
 25 26  2  3
 26 27  1  0
 27 28  2  0
 28 29  1  0
 29 30  2  0
 30 31  1  0
 31 32  2  0
 32 33  1  0
 33 34  1  0
 34 35  2  0
 35 36  1  0
 36 37  2  0
 37 38  1  0
 38 39  2  0
 24 40  1  0
 40 41  2  0
 19  7  1  0
 41 21  1  0
 17 12  1  0
 39 26  1  0
 32 27  1  0
 39 34  1  0
  4 42  1  0
  4 43  1  0
  5 44  1  0
  5 45  1  0
  6 46  1  0
  6 47  1  0
  8 48  1  0
  8 49  1  0
  9 50  1  0
  9 51  1  0
 11 52  1  0
 11 53  1  0
 13 54  1  0
 14 55  1  0
 15 56  1  0
 16 57  1  0
 17 58  1  0
 18 59  1  0
 18 60  1  0
 19 61  1  0
 19 62  1  0
 20 63  1  0
 22 64  1  0
 23 65  1  0
 28 66  1  0
 29 67  1  0
 30 68  1  0
 31 69  1  0
 35 70  1  0
 36 71  1  0
 37 72  1  0
 38 73  1  0
 40 74  1  0
 41 75  1  0
M  CHG  1  33  -1
M  END
>  <UniqueID>  (55) 
50

>  <SMILES>  (55) 
O=S(=O)(CCCN1CCN(Cc2ccccc2)CC1)Nc1ccc(N=c2c3ccccc3[n-]c3ccccc23)cc1

>  <Energy>  (55) 
119.8172509088848

>  <Genealogy>  (55) 
O=S(=O)(CCCN1CCN(Cc2ccccc2)CC1)Nc1ccc(N=c2c3ccccc3[n-]c3ccccc23)cc1 (protonated)
O=S(=O)(CCCN1CCN(Cc2ccccc2)CC1)Nc1ccc(N=c2c3ccccc3[n-]c3ccccc23)cc1 (3D coordinates assigned)
O=S(=O)(CCCN1CCN(Cc2ccccc2)CC1)Nc1ccc(N=c2c3ccccc3[n-]c3ccccc23)cc1 (nonaromatic ring conformer: 119.8172509088848 kcal/mol)

>  <smiles>  (55) 
O=S(=O)(CCCN1CCN(Cc2ccccc2)CC1)Nc1ccc(N=c2c3ccccc3[nH]c3ccccc23)cc1

>  <score_type>  (55) 
oracle

>  <origin>  (55) 
adg

>  <m_score__min__energy>  (55) 
-11.619999999999999

>  <m_primary>  (55) 
energy

$$$$
55:0
     RDKit          3D

 65 68  0  0  0  0  0  0  0  0999 V2000
   61.1830   30.8990   52.9480 H   0  0  0  0  0  0  0  0  0  0  0  0
   60.7570   31.1600   52.0680 O   0  0  0  0  0  0  0  0  0  0  0  0
   60.5730   30.2480   51.0270 C   0  0  0  0  0  0  0  0  0  0  0  0
   60.9600   28.9140   51.2220 C   0  0  0  0  0  0  0  0  0  0  0  0
   61.5020   28.5540   52.4670 O   0  0  0  0  0  0  0  0  0  0  0  0
   60.7710   27.9300   53.5170 C   0  0  0  0  0  0  0  0  0  0  0  0
   61.1645   28.2659   54.4877 H   0  0  0  0  0  0  0  0  0  0  0  0
   59.7087   28.2040   53.4373 H   0  0  0  0  0  0  0  0  0  0  0  0
   60.8749   26.8378   53.4373 H   0  0  0  0  0  0  0  0  0  0  0  0
   60.7920   27.9830   50.1810 C   0  0  0  0  0  0  0  0  0  0  0  0
   61.0844   26.9340   50.3362 H   0  0  0  0  0  0  0  0  0  0  0  0
   60.2540   28.3800   48.9440 C   0  0  0  0  0  0  0  0  0  0  0  0
   60.0520   27.4290   47.8230 C   0  0  0  0  0  0  0  0  0  0  0  0
   60.7653   27.4541   46.9860 H   0  0  0  0  0  0  0  0  0  0  0  0
   59.0480   26.5400   47.7730 C   0  0  0  0  0  0  0  0  0  0  0  0
   59.1070   25.6356   48.3964 H   0  0  0  0  0  0  0  0  0  0  0  0
   57.8640   26.7360   46.9070 C   0  0  0  0  0  0  0  0  0  0  0  0
   57.3410   27.8810   46.8150 O   0  0  0  0  0  0  0  0  0  0  0  0
   57.2850   25.6070   46.1340 C   0  0  0  0  0  0  0  0  0  0  0  0
   58.0760   24.4840   45.8170 C   0  0  0  0  0  0  0  0  0  0  0  0
   59.1290   24.4519   46.1336 H   0  0  0  0  0  0  0  0  0  0  0  0
   57.5340   23.4110   45.1040 C   0  0  0  0  0  0  0  0  0  0  0  0
   58.1617   22.5416   44.8586 H   0  0  0  0  0  0  0  0  0  0  0  0
   56.1980   23.4410   44.7030 C   0  0  0  0  0  0  0  0  0  0  0  0
   55.7737   22.5953   44.1419 H   0  0  0  0  0  0  0  0  0  0  0  0
   55.3990   24.5430   45.0130 C   0  0  0  0  0  0  0  0  0  0  0  0
   54.3454   24.5624   44.6973 H   0  0  0  0  0  0  0  0  0  0  0  0
   55.9340   25.6230   45.7240 C   0  0  0  0  0  0  0  0  0  0  0  0
   55.1140   26.7130   46.0050 O   0  0  0  0  0  0  0  0  0  0  0  0
   59.8530   29.7130   48.7710 C   0  0  0  0  0  0  0  0  0  0  0  0
   59.4098   30.0264   47.8143 H   0  0  0  0  0  0  0  0  0  0  0  0
   60.0100   30.6550   49.8050 C   0  0  0  0  0  0  0  0  0  0  0  0
   59.6150   31.9950   49.6550 O   0  0  0  0  0  0  0  0  0  0  0  0
   60.4300   33.0200   49.0890 C   0  0  0  0  0  0  0  0  0  0  0  0
   60.2162   33.9722   49.5965 H   0  0  0  0  0  0  0  0  0  0  0  0
   61.4866   32.7443   49.2219 H   0  0  0  0  0  0  0  0  0  0  0  0
   60.1460   33.1750   47.5850 C   0  0  0  0  0  0  0  0  0  0  0  0
   61.1108   33.3454   47.0848 H   0  0  0  0  0  0  0  0  0  0  0  0
   59.5570   31.8820   46.9650 C   0  0  0  0  0  0  0  0  0  0  0  0
   60.0456   31.6969   45.9970 H   0  0  0  0  0  0  0  0  0  0  0  0
   59.7394   31.0536   47.6653 H   0  0  0  0  0  0  0  0  0  0  0  0
   58.0400   31.9940   46.7430 C   0  0  0  0  0  0  0  0  0  0  0  0
   57.6821   31.0597   46.2859 H   0  0  0  0  0  0  0  0  0  0  0  0
   57.5749   32.1738   47.7235 H   0  0  0  0  0  0  0  0  0  0  0  0
   57.6680   33.1290   45.8570 N   0  0  0  0  0  0  0  0  0  0  0  0
   57.4720   32.6850   44.4610 C   0  0  0  0  0  0  0  0  0  0  0  0
   56.4617   32.9692   44.1315 H   0  0  0  0  0  0  0  0  0  0  0  0
   58.2329   33.1671   43.8296 H   0  0  0  0  0  0  0  0  0  0  0  0
   57.6270   31.1880   44.3430 C   0  0  0  0  0  0  0  0  0  0  0  0
   58.9060   30.6120   44.2640 C   0  0  0  0  0  0  0  0  0  0  0  0
   59.7988   31.2531   44.3070 H   0  0  0  0  0  0  0  0  0  0  0  0
   59.0490   29.2280   44.1310 C   0  0  0  0  0  0  0  0  0  0  0  0
   60.0531   28.7824   44.0735 H   0  0  0  0  0  0  0  0  0  0  0  0
   57.9180   28.4100   44.0710 C   0  0  0  0  0  0  0  0  0  0  0  0
   58.0324   27.3209   43.9670 H   0  0  0  0  0  0  0  0  0  0  0  0
   56.6420   28.9740   44.1430 C   0  0  0  0  0  0  0  0  0  0  0  0
   55.7530   28.3279   44.0950 H   0  0  0  0  0  0  0  0  0  0  0  0
   56.4920   30.3590   44.2760 C   0  0  0  0  0  0  0  0  0  0  0  0
   55.2450   30.8910   44.3360 F   0  0  0  0  0  0  0  0  0  0  0  0
   58.5970   34.2880   45.9330 C   0  0  0  0  0  0  0  0  0  0  0  0
   59.3815   34.1638   45.1720 H   0  0  0  0  0  0  0  0  0  0  0  0
   58.0113   35.2026   45.7582 H   0  0  0  0  0  0  0  0  0  0  0  0
   59.2590   34.4090   47.3090 C   0  0  0  0  0  0  0  0  0  0  0  0
   59.8806   35.3162   47.3346 H   0  0  0  0  0  0  0  0  0  0  0  0
   58.4764   34.4679   48.0797 H   0  0  0  0  0  0  0  0  0  0  0  0
  1  2  1  0
  2  3  1  0
  3  4  2  0
  4  5  1  0
  5  6  1  0
  6  7  1  0
  6  8  1  0
  6  9  1  0
  4 10  1  0
 10 11  1  0
 10 12  2  0
 12 13  1  0
 13 14  1  0
 13 15  2  0
 15 16  1  0
 15 17  1  0
 17 18  2  0
 17 19  1  0
 19 20  2  0
 20 21  1  0
 20 22  1  0
 22 23  1  0
 22 24  2  0
 24 25  1  0
 24 26  1  0
 26 27  1  0
 26 28  2  0
 28 29  1  0
 12 30  1  0
 30 31  1  0
 30 32  2  0
 32 33  1  0
 33 34  1  0
 34 35  1  0
 34 36  1  0
 34 37  1  0
 37 38  1  0
 37 39  1  0
 39 40  1  0
 39 41  1  0
 39 42  1  0
 42 43  1  0
 42 44  1  0
 42 45  1  0
 45 46  1  0
 46 47  1  0
 46 48  1  0
 46 49  1  0
 49 50  2  0
 50 51  1  0
 50 52  1  0
 52 53  1  0
 52 54  2  0
 54 55  1  0
 54 56  1  0
 56 57  1  0
 56 58  2  0
 58 59  1  0
 45 60  1  0
 60 61  1  0
 60 62  1  0
 60 63  1  0
 63 64  1  0
 63 65  1  0
 32  3  1  0
 63 37  1  0
 28 19  1  0
 58 49  1  0
M  CHG  1  29  -1
M  END
>  <UniqueID>  (56) 
51

>  <SMILES>  (56) 
COc1cc(/C=C/C(=O)c2ccccc2[O-])cc(OCC2CCN(Cc3ccccc3F)CC2)c1O

>  <Energy>  (56) 
81.2089050550829

>  <Genealogy>  (56) 
COc1cc(C=CC(=O)c2ccccc2[O-])cc(OCC2CCN(Cc3ccccc3F)CC2)c1O (protonated)
COc1cc(/C=C/C(=O)c2ccccc2[O-])cc(OCC2CCN(Cc3ccccc3F)CC2)c1O (cis-trans isomerization)
COc1cc(/C=C/C(=O)c2ccccc2[O-])cc(OCC2CCN(Cc3ccccc3F)CC2)c1O (3D coordinates assigned)
COc1cc(/C=C/C(=O)c2ccccc2[O-])cc(OCC2CCN(Cc3ccccc3F)CC2)c1O (nonaromatic ring conformer: 81.2089050550829 kcal/mol)

>  <smiles>  (56) 
COc1cc(C=CC(=O)c2ccccc2O)cc(OCC2CCN(Cc3ccccc3F)CC2)c1O

>  <score_type>  (56) 
oracle

>  <origin>  (56) 
adg

>  <m_score__min__energy>  (56) 
-12.66

>  <m_primary>  (56) 
energy

$$$$
56:0
     RDKit          3D

 56 58  0  0  0  0  0  0  0  0999 V2000
   58.6150   28.5990   48.1950 C   0  0  0  0  0  0  0  0  0  0  0  0
   59.8090   29.4830   48.3940 C   0  0  0  0  0  0  0  0  0  0  0  0
   60.4340   30.0840   47.2900 C   0  0  0  0  0  0  0  0  0  0  0  0
   61.5450   30.9140   47.4740 C   0  0  0  0  0  0  0  0  0  0  0  0
   62.0460   31.1450   48.7620 C   0  0  0  0  0  0  0  0  0  0  0  0
   63.3710   32.2770   49.0260 S   0  0  0  0  0  0  0  0  0  0  0  0
   63.8780   32.8070   47.7140 O   0  0  0  0  0  0  0  0  0  0  0  0
   64.4900   31.5540   49.7190 O   0  0  0  0  0  0  0  0  0  0  0  0
   62.8360   33.5960   50.0350 N   0  0  0  0  0  0  0  0  0  0  0  0
   62.2610   34.6860   49.2420 C   0  0  0  0  0  0  0  0  0  0  0  0
   61.1850   34.1800   48.3170 C   0  0  0  0  0  0  0  0  0  0  0  0
   59.9540   33.7450   48.8280 C   0  0  0  0  0  0  0  0  0  0  0  0
   58.9180   33.3830   47.9630 C   0  0  0  0  0  0  0  0  0  0  0  0
   59.0970   33.4490   46.5690 C   0  0  0  0  0  0  0  0  0  0  0  0
   57.9740   33.1470   45.6530 C   0  0  0  0  0  0  0  0  0  0  0  0
   56.7840   33.3130   46.0370 O   0  0  0  0  0  0  0  0  0  0  0  0
   58.2340   32.6900   44.3200 N   0  0  0  0  0  0  0  0  0  0  0  0
   57.3970   31.7260   43.6160 C   0  0  0  0  0  0  0  0  0  0  0  0
   57.3990   30.4130   44.3370 C   0  0  0  0  0  0  0  0  0  0  0  0
   56.4140   30.1120   45.0630 O   0  0  0  0  0  0  0  0  0  0  0  0
   58.4780   29.4840   44.1440 N   0  0  0  0  0  0  0  0  0  0  0  0
   58.6190   28.2520   44.8740 C   0  0  0  0  0  0  0  0  0  0  0  0
   59.8780   27.7910   45.2960 C   0  0  0  0  0  0  0  0  0  0  0  0
   59.9890   26.5840   45.9930 C   0  0  0  0  0  0  0  0  0  0  0  0
   58.8500   25.8210   46.2600 C   0  0  0  0  0  0  0  0  0  0  0  0
   57.5940   26.2540   45.8170 C   0  0  0  0  0  0  0  0  0  0  0  0
   56.1520   25.3000   46.1500 S   0  0  0  0  0  0  0  0  0  0  0  0
   54.7510   26.3000   45.9990 N   0  0  0  0  0  0  0  0  0  0  0  0
   56.2140   24.7400   47.5440 O   0  0  0  0  0  0  0  0  0  0  0  0
   56.0640   24.1590   45.1750 O   0  0  0  0  0  0  0  0  0  0  0  0
   57.4840   27.4670   45.1230 C   0  0  0  0  0  0  0  0  0  0  0  0
   60.3490   33.8390   46.0620 C   0  0  0  0  0  0  0  0  0  0  0  0
   61.3860   34.1960   46.9290 C   0  0  0  0  0  0  0  0  0  0  0  0
   61.4520   30.5080   49.8600 C   0  0  0  0  0  0  0  0  0  0  0  0
   60.3420   29.6790   49.6770 C   0  0  0  0  0  0  0  0  0  0  0  0
   58.2123   28.3008   49.1742 H   0  0  0  0  0  0  0  0  0  0  0  0
   57.8438   29.1456   47.6324 H   0  0  0  0  0  0  0  0  0  0  0  0
   58.9127   27.7019   47.6324 H   0  0  0  0  0  0  0  0  0  0  0  0
   60.0486   29.9015   46.2760 H   0  0  0  0  0  0  0  0  0  0  0  0
   62.0266   31.3865   46.6052 H   0  0  0  0  0  0  0  0  0  0  0  0
   61.8267   35.4337   49.9220 H   0  0  0  0  0  0  0  0  0  0  0  0
   63.0610   35.1325   48.6333 H   0  0  0  0  0  0  0  0  0  0  0  0
   59.8029   33.6884   49.9161 H   0  0  0  0  0  0  0  0  0  0  0  0
   57.9559   33.0441   48.3747 H   0  0  0  0  0  0  0  0  0  0  0  0
   56.3674   32.1096   43.5631 H   0  0  0  0  0  0  0  0  0  0  0  0
   57.7962   31.5783   42.6017 H   0  0  0  0  0  0  0  0  0  0  0  0
   59.1450   29.6640   43.3600 H   0  0  0  0  0  0  0  0  0  0  0  0
   60.7795   28.3821   45.0771 H   0  0  0  0  0  0  0  0  0  0  0  0
   60.9755   26.2346   46.3318 H   0  0  0  0  0  0  0  0  0  0  0  0
   58.9397   24.8781   46.8194 H   0  0  0  0  0  0  0  0  0  0  0  0
   54.8710   27.0960   46.6650 H   0  0  0  0  0  0  0  0  0  0  0  0
   56.4987   27.8060   44.7706 H   0  0  0  0  0  0  0  0  0  0  0  0
   60.5139   33.8634   44.9747 H   0  0  0  0  0  0  0  0  0  0  0  0
   62.3640   34.4908   46.5208 H   0  0  0  0  0  0  0  0  0  0  0  0
   61.8610   30.6612   50.8696 H   0  0  0  0  0  0  0  0  0  0  0  0
   59.8841   29.1779   50.5426 H   0  0  0  0  0  0  0  0  0  0  0  0
  1  2  1  0
  2  3  2  0
  3  4  1  0
  4  5  2  0
  5  6  1  0
  6  7  2  0
  6  8  2  0
  6  9  1  0
  9 10  1  0
 10 11  1  0
 11 12  2  0
 12 13  1  0
 13 14  2  0
 14 15  1  0
 15 16  2  0
 15 17  1  0
 17 18  1  0
 18 19  1  0
 19 20  2  0
 19 21  1  0
 21 22  1  0
 22 23  2  0
 23 24  1  0
 24 25  2  0
 25 26  1  0
 26 27  1  0
 27 28  1  0
 27 29  2  0
 27 30  2  0
 26 31  2  0
 14 32  1  0
 32 33  2  0
  5 34  1  0
 34 35  2  0
 35  2  1  0
 33 11  1  0
 31 22  1  0
  1 36  1  0
  1 37  1  0
  1 38  1  0
  3 39  1  0
  4 40  1  0
 10 41  1  0
 10 42  1  0
 12 43  1  0
 13 44  1  0
 18 45  1  0
 18 46  1  0
 21 47  1  0
 23 48  1  0
 24 49  1  0
 25 50  1  0
 28 51  1  0
 31 52  1  0
 32 53  1  0
 33 54  1  0
 34 55  1  0
 35 56  1  0
M  CHG  3   9  -1  17  -1  28  -1
M  END
>  <UniqueID>  (57) 
52

>  <SMILES>  (57) 
Cc1ccc(S(=O)(=O)[N-]Cc2ccc(C(=O)[N-]CC(=O)Nc3cccc(S([NH-])(=O)=O)c3)cc2)cc1

>  <Energy>  (57) 
52.49631907984558

>  <Genealogy>  (57) 
Cc1ccc(S(=O)(=O)[N-]Cc2ccc(C(=O)[N-]CC(=O)Nc3cccc(S([NH-])(=O)=O)c3)cc2)cc1 (protonated)
Cc1ccc(S(=O)(=O)[N-]Cc2ccc(C(=O)[N-]CC(=O)Nc3cccc(S([NH-])(=O)=O)c3)cc2)cc1 (3D coordinates assigned)
Cc1ccc(S(=O)(=O)[N-]Cc2ccc(C(=O)[N-]CC(=O)Nc3cccc(S([NH-])(=O)=O)c3)cc2)cc1 (optimized conformer: 52.49631907984558 kcal/mol)

>  <smiles>  (57) 
Cc1ccc(S(=O)(=O)NCc2ccc(C(=O)NCC(=O)Nc3cccc(S(N)(=O)=O)c3)cc2)cc1

>  <score_type>  (57) 
oracle

>  <origin>  (57) 
adg

>  <m_score__min__energy>  (57) 
-16.010000000000002

>  <m_primary>  (57) 
energy

$$$$
57:0
     RDKit          3D

 35 36  0  0  0  0  0  0  0  0999 V2000
   60.1000   34.2150   49.5750 C   0  0  0  0  0  0  0  0  0  0  0  0
   59.5950   33.8130   48.2210 C   0  0  0  0  0  0  0  0  0  0  0  0
   59.0450   32.5390   48.0210 C   0  0  0  0  0  0  0  0  0  0  0  0
   58.5300   32.1820   46.7720 C   0  0  0  0  0  0  0  0  0  0  0  0
   58.5460   33.0990   45.7090 C   0  0  0  0  0  0  0  0  0  0  0  0
   57.9090   32.7540   44.3890 C   0  0  0  0  0  0  0  0  0  0  0  0
   56.7580   31.8780   44.6060 N   0  0  0  0  0  0  0  0  0  0  0  0
   56.4050   30.8500   43.6700 C   0  0  0  0  0  0  0  0  0  0  0  0
   56.8720   30.8750   42.4990 O   0  0  0  0  0  0  0  0  0  0  0  0
   55.5160   29.7440   44.0730 C   0  0  0  0  0  0  0  0  0  0  0  0
   54.5240   29.4500   43.3560 O   0  0  0  0  0  0  0  0  0  0  0  0
   55.7790   28.9680   45.2490 N   0  0  0  0  0  0  0  0  0  0  0  0
   56.9850   28.2310   45.5010 C   0  0  0  0  0  0  0  0  0  0  0  0
   58.2140   28.7970   45.1370 C   0  0  0  0  0  0  0  0  0  0  0  0
   59.4070   28.1080   45.3740 C   0  0  0  0  0  0  0  0  0  0  0  0
   59.3790   26.8400   45.9590 C   0  0  0  0  0  0  0  0  0  0  0  0
   58.1570   26.2520   46.2960 C   0  0  0  0  0  0  0  0  0  0  0  0
   56.9600   26.9350   46.0590 C   0  0  0  0  0  0  0  0  0  0  0  0
   55.7850   26.3140   46.3310 F   0  0  0  0  0  0  0  0  0  0  0  0
   59.0800   34.3800   45.9160 C   0  0  0  0  0  0  0  0  0  0  0  0
   59.5990   34.7360   47.1650 C   0  0  0  0  0  0  0  0  0  0  0  0
   59.4910   33.7302   50.3523 H   0  0  0  0  0  0  0  0  0  0  0  0
   61.1490   33.9021   49.6828 H   0  0  0  0  0  0  0  0  0  0  0  0
   60.0303   35.3075   49.6828 H   0  0  0  0  0  0  0  0  0  0  0  0
   59.0188   31.8174   48.8508 H   0  0  0  0  0  0  0  0  0  0  0  0
   58.1097   31.1768   46.6208 H   0  0  0  0  0  0  0  0  0  0  0  0
   57.5762   33.6773   43.8921 H   0  0  0  0  0  0  0  0  0  0  0  0
   58.6445   32.2358   43.7562 H   0  0  0  0  0  0  0  0  0  0  0  0
   56.2590   31.9340   45.5220 H   0  0  0  0  0  0  0  0  0  0  0  0
   58.2402   29.7889   44.6622 H   0  0  0  0  0  0  0  0  0  0  0  0
   60.3691   28.5651   45.0994 H   0  0  0  0  0  0  0  0  0  0  0  0
   60.3194   26.3040   46.1545 H   0  0  0  0  0  0  0  0  0  0  0  0
   58.1366   25.2497   46.7487 H   0  0  0  0  0  0  0  0  0  0  0  0
   59.0905   35.1081   45.0915 H   0  0  0  0  0  0  0  0  0  0  0  0
   60.0119   35.7438   47.3197 H   0  0  0  0  0  0  0  0  0  0  0  0
  1  2  1  0
  2  3  2  0
  3  4  1  0
  4  5  2  0
  5  6  1  0
  6  7  1  0
  7  8  1  0
  8  9  2  0
  8 10  1  0
 10 11  2  0
 10 12  1  0
 12 13  1  0
 13 14  2  0
 14 15  1  0
 15 16  2  0
 16 17  1  0
 17 18  2  0
 18 19  1  0
  5 20  1  0
 20 21  2  0
 21  2  1  0
 18 13  1  0
  1 22  1  0
  1 23  1  0
  1 24  1  0
  3 25  1  0
  4 26  1  0
  6 27  1  0
  6 28  1  0
  7 29  1  0
 14 30  1  0
 15 31  1  0
 16 32  1  0
 17 33  1  0
 20 34  1  0
 21 35  1  0
M  CHG  1  12  -1
M  END
>  <UniqueID>  (58) 
53

>  <SMILES>  (58) 
Cc1ccc(CNC(=O)C(=O)[N-]c2ccccc2F)cc1

>  <Energy>  (58) 
36.61077957458835

>  <Genealogy>  (58) 
Cc1ccc(CNC(=O)C(=O)[N-]c2ccccc2F)cc1 (protonated)
Cc1ccc(CNC(=O)C(=O)[N-]c2ccccc2F)cc1 (3D coordinates assigned)
Cc1ccc(CNC(=O)C(=O)[N-]c2ccccc2F)cc1 (optimized conformer: 36.61077957458835 kcal/mol)

>  <smiles>  (58) 
Cc1ccc(CNC(=O)C(=O)Nc2ccccc2F)cc1

>  <score_type>  (58) 
oracle

>  <origin>  (58) 
adg

>  <m_score__min__energy>  (58) 
-9

>  <m_primary>  (58) 
energy

$$$$
58:0
     RDKit          3D

 35 36  0  0  0  0  0  0  0  0999 V2000
   58.5790   34.5390   44.9380 C   0  0  0  0  0  0  0  0  0  0  0  0
   57.6690   33.3210   44.8290 C   0  0  0  0  0  0  0  0  0  0  0  0
   58.1760   32.2040   45.6900 C   0  0  0  0  0  0  0  0  0  0  0  0
   59.0540   32.3790   46.6970 N   0  0  0  0  0  0  0  0  0  0  0  0
   59.2370   31.2010   47.2740 N   0  0  0  0  0  0  0  0  0  0  0  0
   60.1680   30.9710   48.3720 C   0  0  0  0  0  0  0  0  0  0  0  0
   60.7180   29.5510   48.3080 C   0  0  0  0  0  0  0  0  0  0  0  0
   58.4980   30.2590   46.6550 C   0  0  0  0  0  0  0  0  0  0  0  0
   57.7950   30.8720   45.6410 C   0  0  0  0  0  0  0  0  0  0  0  0
   56.6810   30.1040   44.5230 S   0  0  0  0  0  0  0  0  0  0  0  0
   55.6230   31.0940   44.1250 O   0  0  0  0  0  0  0  0  0  0  0  0
   57.4470   29.6350   43.3180 O   0  0  0  0  0  0  0  0  0  0  0  0
   55.9440   28.7490   45.3140 N   0  0  0  0  0  0  0  0  0  0  0  0
   56.5400   27.4840   45.6500 C   0  0  0  0  0  0  0  0  0  0  0  0
   57.9410   27.4150   45.6520 C   0  0  0  0  0  0  0  0  0  0  0  0
   58.5990   26.2230   45.9670 C   0  0  0  0  0  0  0  0  0  0  0  0
   57.8610   25.0820   46.2840 C   0  0  0  0  0  0  0  0  0  0  0  0
   56.4660   25.1330   46.2880 C   0  0  0  0  0  0  0  0  0  0  0  0
   55.7970   26.3220   45.9740 C   0  0  0  0  0  0  0  0  0  0  0  0
   54.4100   26.3190   45.9930 O   0  0  0  0  0  0  0  0  0  0  0  0
   58.7535   34.7726   45.9987 H   0  0  0  0  0  0  0  0  0  0  0  0
   59.5396   34.3241   44.4470 H   0  0  0  0  0  0  0  0  0  0  0  0
   58.1006   35.3993   44.4470 H   0  0  0  0  0  0  0  0  0  0  0  0
   56.6553   33.5970   45.1549 H   0  0  0  0  0  0  0  0  0  0  0  0
   57.6537   32.9827   43.7824 H   0  0  0  0  0  0  0  0  0  0  0  0
   61.0002   31.6865   48.2985 H   0  0  0  0  0  0  0  0  0  0  0  0
   59.6380   31.1076   49.3262 H   0  0  0  0  0  0  0  0  0  0  0  0
   60.8660   29.1688   49.3288 H   0  0  0  0  0  0  0  0  0  0  0  0
   60.0049   28.9053   47.7745 H   0  0  0  0  0  0  0  0  0  0  0  0
   61.6800   29.5541   47.7745 H   0  0  0  0  0  0  0  0  0  0  0  0
   58.4625   29.1904   46.9135 H   0  0  0  0  0  0  0  0  0  0  0  0
   58.5292   28.3104   45.4025 H   0  0  0  0  0  0  0  0  0  0  0  0
   59.6983   26.1843   45.9650 H   0  0  0  0  0  0  0  0  0  0  0  0
   58.3781   24.1430   46.5306 H   0  0  0  0  0  0  0  0  0  0  0  0
   55.8878   24.2318   46.5399 H   0  0  0  0  0  0  0  0  0  0  0  0
  1  2  1  0
  2  3  1  0
  3  4  2  0
  4  5  1  0
  5  6  1  0
  6  7  1  0
  5  8  1  0
  8  9  2  0
  9 10  1  0
 10 11  2  0
 10 12  2  0
 10 13  1  0
 13 14  1  0
 14 15  2  0
 15 16  1  0
 16 17  2  0
 17 18  1  0
 18 19  2  0
 19 20  1  0
  9  3  1  0
 19 14  1  0
  1 21  1  0
  1 22  1  0
  1 23  1  0
  2 24  1  0
  2 25  1  0
  6 26  1  0
  6 27  1  0
  7 28  1  0
  7 29  1  0
  7 30  1  0
  8 31  1  0
 15 32  1  0
 16 33  1  0
 17 34  1  0
 18 35  1  0
M  CHG  2  13  -1  20  -1
M  END
>  <UniqueID>  (59) 
54

>  <SMILES>  (59) 
CCc1nn(CC)cc1S(=O)(=O)[N-]c1ccccc1[O-]

>  <Energy>  (59) 
64.8518599612972

>  <Genealogy>  (59) 
CCc1nn(CC)cc1S(=O)(=O)[N-]c1ccccc1[O-] (protonated)
CCc1nn(CC)cc1S(=O)(=O)[N-]c1ccccc1[O-] (3D coordinates assigned)
CCc1nn(CC)cc1S(=O)(=O)[N-]c1ccccc1[O-] (optimized conformer: 64.8518599612972 kcal/mol)

>  <smiles>  (59) 
CCc1nn(CC)cc1S(=O)(=O)Nc1ccccc1O

>  <score_type>  (59) 
oracle

>  <origin>  (59) 
adg

>  <m_score__min__energy>  (59) 
-13.1

>  <m_primary>  (59) 
energy

$$$$
59:0
     RDKit          3D

 54 57  0  0  0  0  0  0  0  0999 V2000
   60.6660   26.4510   47.1690 C   0  0  0  0  0  0  0  0  0  0  0  0
   59.4340   27.1290   46.6360 C   0  0  0  0  0  0  0  0  0  0  0  0
   58.3620   26.3480   46.1730 C   0  0  0  0  0  0  0  0  0  0  0  0
   57.2090   26.9520   45.6680 C   0  0  0  0  0  0  0  0  0  0  0  0
   57.1050   28.3450   45.6170 C   0  0  0  0  0  0  0  0  0  0  0  0
   55.9190   28.9290   45.0590 N   0  0  0  0  0  0  0  0  0  0  0  0
   55.8790   29.9120   44.0140 C   0  0  0  0  0  0  0  0  0  0  0  0
   55.0910   29.7620   43.0390 O   0  0  0  0  0  0  0  0  0  0  0  0
   56.7870   31.0810   44.0560 C   0  0  0  0  0  0  0  0  0  0  0  0
   57.4100   31.5420   42.8760 C   0  0  0  0  0  0  0  0  0  0  0  0
   58.2490   32.6610   42.9030 C   0  0  0  0  0  0  0  0  0  0  0  0
   58.4720   33.3370   44.1060 C   0  0  0  0  0  0  0  0  0  0  0  0
   59.2700   34.4370   44.1460 N   0  0  0  0  0  0  0  0  0  0  0  0
   59.4780   35.1120   45.3080 C   0  0  0  0  0  0  0  0  0  0  0  0
   58.8630   34.6710   46.4840 C   0  0  0  0  0  0  0  0  0  0  0  0
   58.0640   33.5700   46.4500 N   0  0  0  0  0  0  0  0  0  0  0  0
   57.8530   32.8900   45.2900 C   0  0  0  0  0  0  0  0  0  0  0  0
   57.0210   31.7650   45.2640 C   0  0  0  0  0  0  0  0  0  0  0  0
   58.1880   29.1320   46.0400 C   0  0  0  0  0  0  0  0  0  0  0  0
   59.3480   28.5380   46.5680 C   0  0  0  0  0  0  0  0  0  0  0  0
   60.4620   29.3580   46.9690 N   0  0  0  0  0  0  0  0  0  0  0  0
   60.3190   30.7180   47.4220 C   0  0  0  0  0  0  0  0  0  0  0  0
   59.1670   31.1990   47.6080 O   0  0  0  0  0  0  0  0  0  0  0  0
   61.5030   31.5740   47.6770 C   0  0  0  0  0  0  0  0  0  0  0  0
   61.7300   32.7000   46.8710 C   0  0  0  0  0  0  0  0  0  0  0  0
   62.8390   33.5130   47.0910 C   0  0  0  0  0  0  0  0  0  0  0  0
   63.7320   33.2230   48.1230 C   0  0  0  0  0  0  0  0  0  0  0  0
   63.5250   32.1110   48.9660 C   0  0  0  0  0  0  0  0  0  0  0  0
   64.4460   31.8180   50.0520 N   0  0  0  0  0  0  0  0  0  0  0  0
   64.0930   30.8350   51.0870 C   0  0  0  0  0  0  0  0  0  0  0  0
   65.7530   32.4850   50.1300 C   0  0  0  0  0  0  0  0  0  0  0  0
   62.3950   31.2960   48.7300 C   0  0  0  0  0  0  0  0  0  0  0  0
   60.6444   26.4629   48.2687 H   0  0  0  0  0  0  0  0  0  0  0  0
   60.6944   25.4102   46.8141 H   0  0  0  0  0  0  0  0  0  0  0  0
   61.5604   26.9839   46.8141 H   0  0  0  0  0  0  0  0  0  0  0  0
   58.4316   25.2508   46.2087 H   0  0  0  0  0  0  0  0  0  0  0  0
   56.3776   26.3281   45.3082 H   0  0  0  0  0  0  0  0  0  0  0  0
   57.2339   31.0161   41.9260 H   0  0  0  0  0  0  0  0  0  0  0  0
   58.7329   33.0087   41.9783 H   0  0  0  0  0  0  0  0  0  0  0  0
   60.1266   36.0003   45.3229 H   0  0  0  0  0  0  0  0  0  0  0  0
   59.0239   35.2100   47.4293 H   0  0  0  0  0  0  0  0  0  0  0  0
   56.5473   31.4133   46.1924 H   0  0  0  0  0  0  0  0  0  0  0  0
   58.1283   30.2273   45.9573 H   0  0  0  0  0  0  0  0  0  0  0  0
   61.4140   28.9370   46.9080 H   0  0  0  0  0  0  0  0  0  0  0  0
   61.0273   32.9421   46.0601 H   0  0  0  0  0  0  0  0  0  0  0  0
   63.0119   34.3884   46.4478 H   0  0  0  0  0  0  0  0  0  0  0  0
   64.6080   33.8692   48.2812 H   0  0  0  0  0  0  0  0  0  0  0  0
   64.2517   31.2769   52.0818 H   0  0  0  0  0  0  0  0  0  0  0  0
   63.0363   30.5499   50.9768 H   0  0  0  0  0  0  0  0  0  0  0  0
   64.7269   29.9428   50.9768 H   0  0  0  0  0  0  0  0  0  0  0  0
   66.0301   32.6264   51.1851 H   0  0  0  0  0  0  0  0  0  0  0  0
   66.5119   31.8640   49.6317 H   0  0  0  0  0  0  0  0  0  0  0  0
   65.6954   33.4639   49.6317 H   0  0  0  0  0  0  0  0  0  0  0  0
   62.2090   30.4288   49.3807 H   0  0  0  0  0  0  0  0  0  0  0  0
  1  2  1  0
  2  3  2  0
  3  4  1  0
  4  5  2  0
  5  6  1  0
  6  7  1  0
  7  8  2  0
  7  9  1  0
  9 10  2  0
 10 11  1  0
 11 12  2  0
 12 13  1  0
 13 14  2  0
 14 15  1  0
 15 16  2  0
 16 17  1  0
 17 18  2  0
  5 19  1  0
 19 20  2  0
 20 21  1  0
 21 22  1  0
 22 23  2  0
 22 24  1  0
 24 25  2  0
 25 26  1  0
 26 27  2  0
 27 28  1  0
 28 29  1  0
 29 30  1  0
 29 31  1  0
 28 32  2  0
 20  2  1  0
 32 24  1  0
 18  9  1  0
 17 12  1  0
  1 33  1  0
  1 34  1  0
  1 35  1  0
  3 36  1  0
  4 37  1  0
 10 38  1  0
 11 39  1  0
 14 40  1  0
 15 41  1  0
 18 42  1  0
 19 43  1  0
 21 44  1  0
 25 45  1  0
 26 46  1  0
 27 47  1  0
 30 48  1  0
 30 49  1  0
 30 50  1  0
 31 51  1  0
 31 52  1  0
 31 53  1  0
 32 54  1  0
M  CHG  1   6  -1
M  END
>  <UniqueID>  (60) 
55

>  <SMILES>  (60) 
Cc1ccc([N-]C(=O)c2ccc3nccnc3c2)cc1NC(=O)c1cccc(N(C)C)c1

>  <Energy>  (60) 
75.6955689669577

>  <Genealogy>  (60) 
Cc1ccc([N-]C(=O)c2ccc3nccnc3c2)cc1NC(=O)c1cccc(N(C)C)c1 (protonated)
Cc1ccc([N-]C(=O)c2ccc3nccnc3c2)cc1NC(=O)c1cccc(N(C)C)c1 (3D coordinates assigned)
Cc1ccc([N-]C(=O)c2ccc3nccnc3c2)cc1NC(=O)c1cccc(N(C)C)c1 (optimized conformer: 75.6955689669577 kcal/mol)

>  <smiles>  (60) 
Cc1ccc(NC(=O)c2ccc3nccnc3c2)cc1NC(=O)c1cccc(N(C)C)c1

>  <score_type>  (60) 
oracle

>  <origin>  (60) 
adg

>  <m_score__min__energy>  (60) 
-11.02

>  <m_primary>  (60) 
energy

$$$$
60:0
     RDKit          3D

 57 60  0  0  1  0  0  0  0  0999 V2000
   63.1650   31.9930   48.1500 C   0  0  0  0  0  0  0  0  0  0  0  0
   61.9920   31.3990   48.0080 C   0  0  0  0  0  0  0  0  0  0  0  0
   61.4380   30.8290   46.9230 N   0  0  0  0  0  0  0  0  0  0  0  0
   60.2330   30.3490   47.2300 N   0  0  0  0  0  0  0  0  0  0  0  0
   59.4260   29.6900   46.2530 C   0  0  0  0  0  0  0  0  0  0  0  0
   58.9180   30.3850   45.1510 C   0  0  0  0  0  0  0  0  0  0  0  0
   58.1450   29.6710   44.2520 C   0  0  0  0  0  0  0  0  0  0  0  0
   57.8740   28.3250   44.4180 C   0  0  0  0  0  0  0  0  0  0  0  0
   58.3860   27.6600   45.5140 C   0  0  0  0  0  0  0  0  0  0  0  0
   58.0740   26.2420   45.6490 C   0  0  0  0  0  0  0  0  0  0  0  0
   58.8140   25.5400   46.3830 O   0  0  0  0  0  0  0  0  0  0  0  0
   56.9800   25.6160   44.9930 N   0  0  0  0  0  0  0  0  0  0  0  0
   56.7980   24.1980   45.2240 C   0  0  0  0  0  0  0  0  0  0  0  0
   55.6170   23.9200   46.1250 C   0  0  0  0  0  0  0  0  0  0  0  0
   54.3910   24.6030   45.5350 C   0  0  0  0  0  0  0  0  0  0  0  0
   54.5720   25.9880   45.6610 O   0  0  0  0  0  0  0  0  0  0  0  0
   59.1590   28.3410   46.4290 C   0  0  0  0  0  0  0  0  0  0  0  0
   59.9610   30.5910   48.5290 C   0  0  0  0  0  0  0  0  0  0  0  0
   58.8980   30.2570   49.1130 O   0  0  0  0  0  0  0  0  0  0  0  0
   61.0680   31.2530   49.0210 C   0  0  0  0  0  0  0  0  0  0  0  0
   61.1700   31.6590   50.2780 C   0  0  0  0  0  0  0  0  0  0  0  0
   60.2340   32.5560   50.9020 C   0  0  0  0  0  0  0  0  0  0  0  0
   59.9360   33.8360   50.4270 C   0  0  0  0  0  0  0  0  0  0  0  0
   60.6650   34.5800   48.9630 S   0  0  0  0  0  0  0  0  0  0  0  0
   59.5930   34.2350   47.5520 C   0  0  0  0  0  0  0  0  0  0  0  0
   58.4760   33.4500   47.7460 C   0  0  0  0  0  0  0  0  0  0  0  0
   57.6160   33.1490   46.7100 C   0  0  0  0  0  0  0  0  0  0  0  0
   57.9040   33.6630   45.4490 C   0  0  0  0  0  0  0  0  0  0  0  0
   59.0350   34.4550   45.2610 C   0  0  0  0  0  0  0  0  0  0  0  0
   59.8950   34.7490   46.3200 C   0  0  0  0  0  0  0  0  0  0  0  0
   59.0220   34.3940   51.2530 N   0  0  0  0  0  0  0  0  0  0  0  0
   58.7310   33.5300   52.2230 N   0  0  0  0  0  0  0  0  0  0  0  0
   59.4540   32.4060   52.0320 C   0  0  0  0  0  0  0  0  0  0  0  0
   59.4560   31.3610   52.7380 O   0  0  0  0  0  0  0  0  0  0  0  0
   63.4567   32.4082   49.1260 H   0  0  0  0  0  0  0  0  0  0  0  0
   63.8490   32.0719   47.2921 H   0  0  0  0  0  0  0  0  0  0  0  0
   61.9240   30.7950   46.0000 H   0  0  0  0  0  0  0  0  0  0  0  0
   59.1243   31.4555   45.0046 H   0  0  0  0  0  0  0  0  0  0  0  0
   57.7321   30.1919   43.3755 H   0  0  0  0  0  0  0  0  0  0  0  0
   57.2557   27.7889   43.6829 H   0  0  0  0  0  0  0  0  0  0  0  0
   56.3580   26.1700   44.3840 H   0  0  0  0  0  0  0  0  0  0  0  0
   56.6333   23.6987   44.2578 H   0  0  0  0  0  0  0  0  0  0  0  0
   57.7022   23.8149   45.7197 H   0  0  0  0  0  0  0  0  0  0  0  0
   55.4442   22.8354   46.1870 H   0  0  0  0  0  0  0  0  0  0  0  0
   55.8142   24.3053   47.1362 H   0  0  0  0  0  0  0  0  0  0  0  0
   54.2868   24.3339   44.4735 H   0  0  0  0  0  0  0  0  0  0  0  0
   53.4807   24.2839   46.0636 H   0  0  0  0  0  0  0  0  0  0  0  0
   54.0200   26.2890   46.3990 H   0  0  0  0  0  0  0  0  0  0  0  0
   59.5662   27.8119   47.3032 H   0  0  0  0  0  0  0  0  0  0  0  0
   62.0159   31.2904   50.8769 H   0  0  0  0  0  0  0  0  0  0  0  0
   58.2656   33.0544   48.7506 H   0  0  0  0  0  0  0  0  0  0  0  0
   56.7283   32.5209   46.8758 H   0  0  0  0  0  0  0  0  0  0  0  0
   57.2388   33.4440   44.6008 H   0  0  0  0  0  0  0  0  0  0  0  0
   59.2538   34.8556   44.2602 H   0  0  0  0  0  0  0  0  0  0  0  0
   60.7875   35.3741   46.1693 H   0  0  0  0  0  0  0  0  0  0  0  0
   58.5910   35.3550   51.1700 H   0  0  0  0  0  0  0  0  0  0  0  0
   58.0470   33.7080   53.0040 H   0  0  0  0  0  0  0  0  0  0  0  0
  1  2  2  0
  2  3  1  0
  3  4  1  0
  4  5  1  0
  5  6  2  0
  6  7  1  0
  7  8  2  0
  8  9  1  0
  9 10  1  0
 10 11  2  0
 10 12  1  0
 12 13  1  0
 13 14  1  0
 14 15  1  0
 15 16  1  0
  9 17  2  0
  4 18  1  0
 18 19  2  0
 18 20  1  0
 20 21  2  0
 21 22  1  0
 22 23  2  0
 23 24  1  0
 24 25  1  0
 25 26  2  0
 26 27  1  0
 27 28  2  0
 28 29  1  0
 29 30  2  0
 23 31  1  0
 31 32  1  0
 32 33  1  0
 33 34  2  0
 20  2  1  0
 33 22  1  0
 17  5  1  0
 30 25  1  0
  1 35  1  0
  1 36  1  0
  3 37  1  0
  6 38  1  0
  7 39  1  0
  8 40  1  0
 12 41  1  0
 13 42  1  0
 13 43  1  0
 14 44  1  0
 14 45  1  0
 15 46  1  0
 15 47  1  0
 16 48  1  0
 17 49  1  0
 21 50  1  0
 26 51  1  0
 27 52  1  0
 28 53  1  0
 29 54  1  0
 30 55  1  0
 31 56  1  0
 32 57  1  0
M  END
>  <smiles>  (61) 
C=c1[nH]n(-c2cccc(C(=O)NCCCO)c2)c(=O)c1=Cc1c(Sc2ccccc2)[nH][nH]c1=O

>  <score_type>  (61) 
oracle

>  <origin>  (61) 
adg

>  <m_score__min__energy>  (61) 
-10.4

>  <m_primary>  (61) 
energy

$$$$
61:0
     RDKit          3D

 45 47  0  0  0  0  0  0  0  0999 V2000
   63.7230   33.4610   46.3820 C   0  0  0  0  0  0  0  0  0  0  0  0
   63.9670   33.2590   47.8730 C   0  0  0  0  0  0  0  0  0  0  0  0
   62.7030   33.5060   48.6590 C   0  0  0  0  0  0  0  0  0  0  0  0
   61.5950   34.0980   48.0420 C   0  0  0  0  0  0  0  0  0  0  0  0
   60.4310   34.2970   48.7320 N   0  0  0  0  0  0  0  0  0  0  0  0
   59.2780   34.8910   48.0360 C   0  0  0  0  0  0  0  0  0  0  0  0
   58.6600   33.8860   47.1010 C   0  0  0  0  0  0  0  0  0  0  0  0
   58.9180   32.5170   47.2670 C   0  0  0  0  0  0  0  0  0  0  0  0
   58.3150   31.5770   46.4250 C   0  0  0  0  0  0  0  0  0  0  0  0
   57.4280   31.9940   45.4160 C   0  0  0  0  0  0  0  0  0  0  0  0
   56.8040   31.0650   44.5170 N   0  0  0  0  0  0  0  0  0  0  0  0
   56.4680   29.7010   44.7960 C   0  0  0  0  0  0  0  0  0  0  0  0
   55.2620   29.3380   44.8470 O   0  0  0  0  0  0  0  0  0  0  0  0
   57.5230   28.7520   45.0060 N   0  0  0  0  0  0  0  0  0  0  0  0
   57.3280   27.3300   45.0980 C   0  0  0  0  0  0  0  0  0  0  0  0
   56.7250   26.7920   46.2460 C   0  0  0  0  0  0  0  0  0  0  0  0
   56.5450   25.4110   46.3690 C   0  0  0  0  0  0  0  0  0  0  0  0
   56.9810   24.5540   45.3540 C   0  0  0  0  0  0  0  0  0  0  0  0
   56.7570   22.8210   45.5120 Cl  0  0  0  0  0  0  0  0  0  0  0  0
   57.6040   25.0790   44.2180 C   0  0  0  0  0  0  0  0  0  0  0  0
   57.7850   26.4590   44.0910 C   0  0  0  0  0  0  0  0  0  0  0  0
   57.1870   33.3620   45.2420 C   0  0  0  0  0  0  0  0  0  0  0  0
   57.7880   34.3020   46.0840 C   0  0  0  0  0  0  0  0  0  0  0  0
   60.3390   33.8920   50.0380 C   0  0  0  0  0  0  0  0  0  0  0  0
   59.2720   34.0540   50.6900 O   0  0  0  0  0  0  0  0  0  0  0  0
   61.4010   33.3040   50.6480 N   0  0  0  0  0  0  0  0  0  0  0  0
   62.5700   33.1000   49.9950 C   0  0  0  0  0  0  0  0  0  0  0  0
   63.5250   32.5410   50.5960 O   0  0  0  0  0  0  0  0  0  0  0  0
   62.8829   34.1565   46.2389 H   0  0  0  0  0  0  0  0  0  0  0  0
   64.6278   33.8780   45.9156 H   0  0  0  0  0  0  0  0  0  0  0  0
   63.4823   32.4943   45.9156 H   0  0  0  0  0  0  0  0  0  0  0  0
   64.3044   32.2266   48.0470 H   0  0  0  0  0  0  0  0  0  0  0  0
   64.7351   33.9729   48.2054 H   0  0  0  0  0  0  0  0  0  0  0  0
   61.6612   34.4072   46.9884 H   0  0  0  0  0  0  0  0  0  0  0  0
   58.5289   35.2058   48.7775 H   0  0  0  0  0  0  0  0  0  0  0  0
   59.6191   35.7598   47.4540 H   0  0  0  0  0  0  0  0  0  0  0  0
   59.5982   32.1811   48.0636 H   0  0  0  0  0  0  0  0  0  0  0  0
   58.5354   30.5068   46.5524 H   0  0  0  0  0  0  0  0  0  0  0  0
   58.4780   29.1330   45.1960 H   0  0  0  0  0  0  0  0  0  0  0  0
   56.3922   27.4609   47.0534 H   0  0  0  0  0  0  0  0  0  0  0  0
   56.0596   24.9981   47.2656 H   0  0  0  0  0  0  0  0  0  0  0  0
   57.9526   24.4044   43.4222 H   0  0  0  0  0  0  0  0  0  0  0  0
   58.2865   26.8661   43.2007 H   0  0  0  0  0  0  0  0  0  0  0  0
   56.5191   33.7000   44.4360 H   0  0  0  0  0  0  0  0  0  0  0  0
   57.5762   35.3729   45.9485 H   0  0  0  0  0  0  0  0  0  0  0  0
  1  2  1  0
  2  3  1  0
  3  4  2  0
  4  5  1  0
  5  6  1  0
  6  7  1  0
  7  8  2  0
  8  9  1  0
  9 10  2  0
 10 11  1  0
 11 12  1  0
 12 13  2  0
 12 14  1  0
 14 15  1  0
 15 16  2  0
 16 17  1  0
 17 18  2  0
 18 19  1  0
 18 20  1  0
 20 21  2  0
 10 22  1  0
 22 23  2  0
  5 24  1  0
 24 25  2  0
 24 26  1  0
 26 27  1  0
 27 28  2  0
 27  3  1  0
 23  7  1  0
 21 15  1  0
  1 29  1  0
  1 30  1  0
  1 31  1  0
  2 32  1  0
  2 33  1  0
  4 34  1  0
  6 35  1  0
  6 36  1  0
  8 37  1  0
  9 38  1  0
 14 39  1  0
 16 40  1  0
 17 41  1  0
 20 42  1  0
 21 43  1  0
 22 44  1  0
 23 45  1  0
M  CHG  2  11  -1  26  -1
M  END
>  <UniqueID>  (62) 
56

>  <SMILES>  (62) 
CCc1cn(Cc2ccc([N-]C(=O)Nc3ccc(Cl)cc3)cc2)c(=O)[n-]c1=O

>  <Energy>  (62) 
53.247552556045974

>  <Genealogy>  (62) 
CCc1cn(Cc2ccc([N-]C(=O)Nc3ccc(Cl)cc3)cc2)c(=O)[n-]c1=O (protonated)
CCc1cn(Cc2ccc([N-]C(=O)Nc3ccc(Cl)cc3)cc2)c(=O)[n-]c1=O (3D coordinates assigned)
CCc1cn(Cc2ccc([N-]C(=O)Nc3ccc(Cl)cc3)cc2)c(=O)[n-]c1=O (optimized conformer: 53.247552556045974 kcal/mol)

>  <smiles>  (62) 
CCc1cn(Cc2ccc(NC(=O)Nc3ccc(Cl)cc3)cc2)c(=O)[nH]c1=O

>  <score_type>  (62) 
oracle

>  <origin>  (62) 
adg

>  <m_score__min__energy>  (62) 
-11.09

>  <m_primary>  (62) 
energy

$$$$
62:0
     RDKit          3D

 47 49  0  0  0  0  0  0  0  0999 V2000
   59.9170   34.5450   48.8420 C   0  0  0  0  0  0  0  0  0  0  0  0
   59.6640   34.5320   47.4420 O   0  0  0  0  0  0  0  0  0  0  0  0
   59.0910   33.4550   46.7470 C   0  0  0  0  0  0  0  0  0  0  0  0
   57.9480   33.6090   45.9410 C   0  0  0  0  0  0  0  0  0  0  0  0
   57.4020   32.5130   45.2680 C   0  0  0  0  0  0  0  0  0  0  0  0
   57.9810   31.2420   45.4020 C   0  0  0  0  0  0  0  0  0  0  0  0
   57.4670   30.0940   44.7110 N   0  0  0  0  0  0  0  0  0  0  0  0
   56.1410   29.5560   44.8030 C   0  0  0  0  0  0  0  0  0  0  0  0
   55.1420   30.2570   44.4940 O   0  0  0  0  0  0  0  0  0  0  0  0
   55.9310   28.2110   45.2460 N   0  0  0  0  0  0  0  0  0  0  0  0
   56.9460   27.2960   45.6900 C   0  0  0  0  0  0  0  0  0  0  0  0
   58.3080   27.6450   45.6660 C   0  0  0  0  0  0  0  0  0  0  0  0
   59.2740   26.7480   46.1280 C   0  0  0  0  0  0  0  0  0  0  0  0
   58.8890   25.5040   46.6280 C   0  0  0  0  0  0  0  0  0  0  0  0
   57.5380   25.1570   46.6820 C   0  0  0  0  0  0  0  0  0  0  0  0
   56.5540   26.0560   46.2240 C   0  0  0  0  0  0  0  0  0  0  0  0
   55.1810   25.7530   46.2730 O   0  0  0  0  0  0  0  0  0  0  0  0
   54.5050   24.8330   45.4150 C   0  0  0  0  0  0  0  0  0  0  0  0
   55.4580   23.8070   44.8830 C   0  0  0  0  0  0  0  0  0  0  0  0
   55.9340   23.8210   43.5740 C   0  0  0  0  0  0  0  0  0  0  0  0
   56.9600   22.5020   43.3870 S   0  0  0  0  0  0  0  0  0  0  0  0
   56.7750   21.9920   44.9780 C   0  0  0  0  0  0  0  0  0  0  0  0
   57.3810   20.7570   45.5510 C   0  0  0  0  0  0  0  0  0  0  0  0
   55.9240   22.7900   45.6570 N   0  0  0  0  0  0  0  0  0  0  0  0
   59.1320   31.0910   46.1830 C   0  0  0  0  0  0  0  0  0  0  0  0
   59.6890   32.1910   46.8660 C   0  0  0  0  0  0  0  0  0  0  0  0
   60.8340   32.0670   47.6690 O   0  0  0  0  0  0  0  0  0  0  0  0
   62.1570   32.3770   47.2430 C   0  0  0  0  0  0  0  0  0  0  0  0
   58.9630   34.4960   49.3875 H   0  0  0  0  0  0  0  0  0  0  0  0
   60.5379   33.6776   49.1105 H   0  0  0  0  0  0  0  0  0  0  0  0
   60.4457   35.4715   49.1105 H   0  0  0  0  0  0  0  0  0  0  0  0
   57.4808   34.5997   45.8400 H   0  0  0  0  0  0  0  0  0  0  0  0
   56.5153   32.6470   44.6310 H   0  0  0  0  0  0  0  0  0  0  0  0
   58.6142   28.6291   45.2816 H   0  0  0  0  0  0  0  0  0  0  0  0
   60.3387   27.0227   46.0975 H   0  0  0  0  0  0  0  0  0  0  0  0
   59.6521   24.7945   46.9807 H   0  0  0  0  0  0  0  0  0  0  0  0
   57.2400   24.1774   47.0839 H   0  0  0  0  0  0  0  0  0  0  0  0
   53.7099   24.3274   45.9826 H   0  0  0  0  0  0  0  0  0  0  0  0
   54.0753   25.3890   44.5687 H   0  0  0  0  0  0  0  0  0  0  0  0
   55.6835   24.5623   42.8009 H   0  0  0  0  0  0  0  0  0  0  0  0
   57.3544   20.8111   46.6493 H   0  0  0  0  0  0  0  0  0  0  0  0
   56.8116   19.8785   45.2133 H   0  0  0  0  0  0  0  0  0  0  0  0
   58.4242   20.6698   45.2133 H   0  0  0  0  0  0  0  0  0  0  0  0
   59.6077   30.1026   46.2649 H   0  0  0  0  0  0  0  0  0  0  0  0
   62.7997   32.5276   48.1229 H   0  0  0  0  0  0  0  0  0  0  0  0
   62.5515   31.5470   46.6385 H   0  0  0  0  0  0  0  0  0  0  0  0
   62.1417   33.2959   46.6385 H   0  0  0  0  0  0  0  0  0  0  0  0
  1  2  1  0
  2  3  1  0
  3  4  2  0
  4  5  1  0
  5  6  2  0
  6  7  1  0
  7  8  1  0
  8  9  2  0
  8 10  1  0
 10 11  1  0
 11 12  2  0
 12 13  1  0
 13 14  2  0
 14 15  1  0
 15 16  2  0
 16 17  1  0
 17 18  1  0
 18 19  1  0
 19 20  2  0
 20 21  1  0
 21 22  1  0
 22 23  1  0
 22 24  2  0
  6 25  1  0
 25 26  2  0
 26 27  1  0
 27 28  1  0
 26  3  1  0
 16 11  1  0
 24 19  1  0
  1 29  1  0
  1 30  1  0
  1 31  1  0
  4 32  1  0
  5 33  1  0
 12 34  1  0
 13 35  1  0
 14 36  1  0
 15 37  1  0
 18 38  1  0
 18 39  1  0
 20 40  1  0
 23 41  1  0
 23 42  1  0
 23 43  1  0
 25 44  1  0
 28 45  1  0
 28 46  1  0
 28 47  1  0
M  CHG  2   7  -1  10  -1
M  END
>  <UniqueID>  (63) 
57

>  <SMILES>  (63) 
COc1ccc([N-]C(=O)[N-]c2ccccc2OCc2csc(C)n2)cc1OC

>  <Energy>  (63) 
82.17073321924165

>  <Genealogy>  (63) 
COc1ccc([N-]C(=O)[N-]c2ccccc2OCc2csc(C)n2)cc1OC (protonated)
COc1ccc([N-]C(=O)[N-]c2ccccc2OCc2csc(C)n2)cc1OC (3D coordinates assigned)
COc1ccc([N-]C(=O)[N-]c2ccccc2OCc2csc(C)n2)cc1OC (optimized conformer: 82.17073321924165 kcal/mol)

>  <smiles>  (63) 
COc1ccc(NC(=O)Nc2ccccc2OCc2csc(C)n2)cc1OC

>  <score_type>  (63) 
oracle

>  <origin>  (63) 
adg

>  <m_score__min__energy>  (63) 
-12.23

>  <m_primary>  (63) 
energy

$$$$
63:0
     RDKit          3D

 64 67  0  0  0  0  0  0  0  0999 V2000
   60.1590   27.7910   45.8290 O   0  0  0  0  0  0  0  0  0  0  0  0
   59.0800   27.9030   46.4680 C   0  0  0  0  0  0  0  0  0  0  0  0
   57.7920   28.0370   45.7040 C   0  0  0  0  0  0  0  0  0  0  0  0
   57.6740   29.3720   45.1210 N   0  0  0  0  0  0  0  0  0  0  0  0
   56.3940   29.9560   44.8430 C   0  0  0  0  0  0  0  0  0  0  0  0
   55.3550   29.2440   44.8790 O   0  0  0  0  0  0  0  0  0  0  0  0
   56.2790   31.3300   44.4590 N   0  0  0  0  0  0  0  0  0  0  0  0
   57.1710   32.3880   44.8410 C   0  0  0  0  0  0  0  0  0  0  0  0
   57.0250   33.0720   46.0610 C   0  0  0  0  0  0  0  0  0  0  0  0
   57.8900   34.1220   46.3860 C   0  0  0  0  0  0  0  0  0  0  0  0
   58.8910   34.5080   45.4910 C   0  0  0  0  0  0  0  0  0  0  0  0
   59.0240   33.8490   44.2660 C   0  0  0  0  0  0  0  0  0  0  0  0
   58.1620   32.7970   43.9380 C   0  0  0  0  0  0  0  0  0  0  0  0
   59.1180   27.8490   47.9010 N   0  0  0  0  0  0  0  0  0  0  0  0
   58.7400   28.9230   48.8200 C   0  0  0  0  0  0  0  0  0  0  0  0
   59.6380   30.1780   48.6170 C   0  0  0  0  0  0  0  0  0  0  0  0
   59.8160   30.8940   49.8950 N   0  0  0  0  0  0  0  0  0  0  0  0
   58.9570   31.4370   50.7180 C   0  0  0  0  0  0  0  0  0  0  0  0
   57.8140   30.7720   51.2070 C   0  0  0  0  0  0  0  0  0  0  0  0
   56.9510   31.4360   52.0840 C   0  0  0  0  0  0  0  0  0  0  0  0
   57.2090   32.7160   52.4590 N   0  0  0  0  0  0  0  0  0  0  0  0
   58.2990   33.3850   52.0010 C   0  0  0  0  0  0  0  0  0  0  0  0
   59.1870   32.7580   51.1240 C   0  0  0  0  0  0  0  0  0  0  0  0
   59.0440   31.1250   47.5190 C   0  0  0  0  0  0  0  0  0  0  0  0
   60.0620   31.5520   46.4440 C   0  0  0  0  0  0  0  0  0  0  0  0
   61.3590   31.9470   47.0310 N   0  0  0  0  0  0  0  0  0  0  0  0
   61.2720   33.2470   47.7320 C   0  0  0  0  0  0  0  0  0  0  0  0
   62.3690   33.3720   48.7570 C   0  0  0  0  0  0  0  0  0  0  0  0
   63.7110   33.2190   48.3740 C   0  0  0  0  0  0  0  0  0  0  0  0
   64.7310   33.3170   49.3260 C   0  0  0  0  0  0  0  0  0  0  0  0
   64.4190   33.5690   50.6650 C   0  0  0  0  0  0  0  0  0  0  0  0
   63.0850   33.7240   51.0540 C   0  0  0  0  0  0  0  0  0  0  0  0
   62.0620   33.6270   50.1060 C   0  0  0  0  0  0  0  0  0  0  0  0
   61.9790   30.8810   47.8650 C   0  0  0  0  0  0  0  0  0  0  0  0
   61.0420   29.6980   48.1740 C   0  0  0  0  0  0  0  0  0  0  0  0
   57.7702   27.2880   44.8987 H   0  0  0  0  0  0  0  0  0  0  0  0
   56.9519   27.8777   46.3960 H   0  0  0  0  0  0  0  0  0  0  0  0
   58.5370   29.9080   44.8730 H   0  0  0  0  0  0  0  0  0  0  0  0
   56.2285   32.7805   46.7615 H   0  0  0  0  0  0  0  0  0  0  0  0
   57.7820   34.6447   47.3478 H   0  0  0  0  0  0  0  0  0  0  0  0
   59.5741   35.3302   45.7505 H   0  0  0  0  0  0  0  0  0  0  0  0
   59.8076   34.1578   43.5585 H   0  0  0  0  0  0  0  0  0  0  0  0
   58.2623   32.2888   42.9676 H   0  0  0  0  0  0  0  0  0  0  0  0
   57.6909   29.1989   48.6376 H   0  0  0  0  0  0  0  0  0  0  0  0
   58.8721   28.5626   49.8509 H   0  0  0  0  0  0  0  0  0  0  0  0
   57.6025   29.7370   50.9004 H   0  0  0  0  0  0  0  0  0  0  0  0
   56.0601   30.9202   52.4717 H   0  0  0  0  0  0  0  0  0  0  0  0
   58.4824   34.4213   52.3211 H   0  0  0  0  0  0  0  0  0  0  0  0
   60.0677   33.3019   50.7518 H   0  0  0  0  0  0  0  0  0  0  0  0
   58.2147   30.6008   47.0216 H   0  0  0  0  0  0  0  0  0  0  0  0
   58.7179   32.0421   48.0314 H   0  0  0  0  0  0  0  0  0  0  0  0
   60.2261   30.7092   45.7565 H   0  0  0  0  0  0  0  0  0  0  0  0
   59.6501   32.4245   45.9156 H   0  0  0  0  0  0  0  0  0  0  0  0
   61.3688   34.0606   46.9980 H   0  0  0  0  0  0  0  0  0  0  0  0
   60.3002   33.3093   48.2437 H   0  0  0  0  0  0  0  0  0  0  0  0
   63.9612   33.0213   47.3212 H   0  0  0  0  0  0  0  0  0  0  0  0
   65.7807   33.1955   49.0204 H   0  0  0  0  0  0  0  0  0  0  0  0
   65.2225   33.6453   51.4123 H   0  0  0  0  0  0  0  0  0  0  0  0
   62.8399   33.9226   52.1078 H   0  0  0  0  0  0  0  0  0  0  0  0
   61.0138   33.7505   50.4159 H   0  0  0  0  0  0  0  0  0  0  0  0
   62.8596   30.4937   47.3316 H   0  0  0  0  0  0  0  0  0  0  0  0
   62.2351   31.3426   48.8300 H   0  0  0  0  0  0  0  0  0  0  0  0
   60.9383   29.0801   47.2699 H   0  0  0  0  0  0  0  0  0  0  0  0
   61.4821   29.1194   48.9995 H   0  0  0  0  0  0  0  0  0  0  0  0
  1  2  2  0
  2  3  1  0
  3  4  1  0
  4  5  1  0
  5  6  2  0
  5  7  1  0
  7  8  1  0
  8  9  2  0
  9 10  1  0
 10 11  2  0
 11 12  1  0
 12 13  2  0
  2 14  1  0
 14 15  1  0
 15 16  1  0
 16 17  1  0
 17 18  2  3
 18 19  1  0
 19 20  2  0
 20 21  1  0
 21 22  1  0
 22 23  2  0
 16 24  1  0
 24 25  1  0
 25 26  1  0
 26 27  1  0
 27 28  1  0
 28 29  2  0
 29 30  1  0
 30 31  2  0
 31 32  1  0
 32 33  2  0
 26 34  1  0
 34 35  1  0
 13  8  1  0
 35 16  1  0
 23 18  1  0
 33 28  1  0
  3 36  1  0
  3 37  1  0
  4 38  1  0
  9 39  1  0
 10 40  1  0
 11 41  1  0
 12 42  1  0
 13 43  1  0
 15 44  1  0
 15 45  1  0
 19 46  1  0
 20 47  1  0
 22 48  1  0
 23 49  1  0
 24 50  1  0
 24 51  1  0
 25 52  1  0
 25 53  1  0
 27 54  1  0
 27 55  1  0
 29 56  1  0
 30 57  1  0
 31 58  1  0
 32 59  1  0
 33 60  1  0
 34 61  1  0
 34 62  1  0
 35 63  1  0
 35 64  1  0
M  CHG  3   7  -1  14  -1  21  -1
M  END
>  <UniqueID>  (64) 
58

>  <SMILES>  (64) 
O=C(CNC(=O)[N-]c1ccccc1)[N-]CC1(N=c2cc[n-]cc2)CCN(Cc2ccccc2)CC1

>  <Energy>  (64) 
86.46371028430552

>  <Genealogy>  (64) 
O=C(CNC(=O)[N-]c1ccccc1)[N-]CC1(N=c2cc[n-]cc2)CCN(Cc2ccccc2)CC1 (protonated)
O=C(CNC(=O)[N-]c1ccccc1)[N-]CC1(N=c2cc[n-]cc2)CCN(Cc2ccccc2)CC1 (3D coordinates assigned)
O=C(CNC(=O)[N-]c1ccccc1)[N-]CC1(N=c2cc[n-]cc2)CCN(Cc2ccccc2)CC1 (nonaromatic ring conformer: 86.46371028430552 kcal/mol)

>  <smiles>  (64) 
O=C(CNC(=O)Nc1ccccc1)NCC1(N=c2cc[nH]cc2)CCN(Cc2ccccc2)CC1

>  <score_type>  (64) 
oracle

>  <origin>  (64) 
adg

>  <m_score__min__energy>  (64) 
-13.33

>  <m_primary>  (64) 
energy

$$$$
64:0
     RDKit          3D

 52 55  0  0  0  0  0  0  0  0999 V2000
   60.4710   28.2320   49.5440 O   0  0  0  0  0  0  0  0  0  0  0  0
   59.5940   28.3710   48.6510 C   0  0  0  0  0  0  0  0  0  0  0  0
   59.4830   27.3620   47.6390 N   0  0  0  0  0  0  0  0  0  0  0  0
   58.9730   27.5390   46.3110 C   0  0  0  0  0  0  0  0  0  0  0  0
   58.4340   26.4320   45.6460 C   0  0  0  0  0  0  0  0  0  0  0  0
   57.8580   26.5780   44.3820 C   0  0  0  0  0  0  0  0  0  0  0  0
   57.8060   27.8360   43.7780 C   0  0  0  0  0  0  0  0  0  0  0  0
   58.3420   28.9570   44.4270 C   0  0  0  0  0  0  0  0  0  0  0  0
   58.2300   30.2500   43.8110 N   0  0  0  0  0  0  0  0  0  0  0  0
   58.0310   31.4750   44.5370 C   0  0  0  0  0  0  0  0  0  0  0  0
   58.0500   32.6960   43.8450 C   0  0  0  0  0  0  0  0  0  0  0  0
   57.9020   33.9020   44.5370 C   0  0  0  0  0  0  0  0  0  0  0  0
   57.7570   33.8990   45.9260 C   0  0  0  0  0  0  0  0  0  0  0  0
   57.7630   32.6900   46.6260 C   0  0  0  0  0  0  0  0  0  0  0  0
   57.8950   31.4800   45.9370 C   0  0  0  0  0  0  0  0  0  0  0  0
   58.9060   28.8070   45.7070 C   0  0  0  0  0  0  0  0  0  0  0  0
   58.7510   29.5370   48.6300 N   0  0  0  0  0  0  0  0  0  0  0  0
   58.8710   30.6260   49.5610 C   0  0  0  0  0  0  0  0  0  0  0  0
   58.2940   30.5080   50.8330 C   0  0  0  0  0  0  0  0  0  0  0  0
   58.3720   31.5610   51.7470 C   0  0  0  0  0  0  0  0  0  0  0  0
   59.0160   32.7490   51.3950 C   0  0  0  0  0  0  0  0  0  0  0  0
   59.5900   32.8900   50.1220 C   0  0  0  0  0  0  0  0  0  0  0  0
   60.2400   34.1860   49.7210 C   0  0  0  0  0  0  0  0  0  0  0  0
   61.3180   33.9350   48.7020 C   0  0  0  0  0  0  0  0  0  0  0  0
   62.6310   33.6510   49.1130 C   0  0  0  0  0  0  0  0  0  0  0  0
   63.6380   33.4510   48.1650 C   0  0  0  0  0  0  0  0  0  0  0  0
   63.3450   33.5430   46.8020 C   0  0  0  0  0  0  0  0  0  0  0  0
   62.0440   33.8380   46.3840 C   0  0  0  0  0  0  0  0  0  0  0  0
   61.0330   34.0360   47.3300 C   0  0  0  0  0  0  0  0  0  0  0  0
   59.4990   31.8320   49.2020 C   0  0  0  0  0  0  0  0  0  0  0  0
   58.4641   25.4406   46.1217 H   0  0  0  0  0  0  0  0  0  0  0  0
   57.4449   25.7012   43.8618 H   0  0  0  0  0  0  0  0  0  0  0  0
   57.3417   27.9480   42.7871 H   0  0  0  0  0  0  0  0  0  0  0  0
   58.3130   30.3040   42.7700 H   0  0  0  0  0  0  0  0  0  0  0  0
   58.1820   32.7042   42.7530 H   0  0  0  0  0  0  0  0  0  0  0  0
   57.8998   34.8544   43.9866 H   0  0  0  0  0  0  0  0  0  0  0  0
   57.6381   34.8484   46.4688 H   0  0  0  0  0  0  0  0  0  0  0  0
   57.6637   32.6897   47.7215 H   0  0  0  0  0  0  0  0  0  0  0  0
   57.8925   30.5299   46.4914 H   0  0  0  0  0  0  0  0  0  0  0  0
   59.2970   29.6871   46.2386 H   0  0  0  0  0  0  0  0  0  0  0  0
   57.9740   29.5830   47.9350 H   0  0  0  0  0  0  0  0  0  0  0  0
   57.7759   29.5790   51.1134 H   0  0  0  0  0  0  0  0  0  0  0  0
   57.9251   31.4544   52.7465 H   0  0  0  0  0  0  0  0  0  0  0  0
   59.0736   33.5766   52.1174 H   0  0  0  0  0  0  0  0  0  0  0  0
   59.4807   34.8546   49.2891 H   0  0  0  0  0  0  0  0  0  0  0  0
   60.6893   34.6517   50.6105 H   0  0  0  0  0  0  0  0  0  0  0  0
   62.8674   33.5858   50.1853 H   0  0  0  0  0  0  0  0  0  0  0  0
   64.6627   33.2208   48.4923 H   0  0  0  0  0  0  0  0  0  0  0  0
   64.1386   33.3832   46.0572 H   0  0  0  0  0  0  0  0  0  0  0  0
   61.8154   33.9144   45.3107 H   0  0  0  0  0  0  0  0  0  0  0  0
   60.0109   34.2717   46.9986 H   0  0  0  0  0  0  0  0  0  0  0  0
   59.9222   31.9479   48.1933 H   0  0  0  0  0  0  0  0  0  0  0  0
  1  2  2  0
  2  3  1  0
  3  4  1  0
  4  5  2  0
  5  6  1  0
  6  7  2  0
  7  8  1  0
  8  9  1  0
  9 10  1  0
 10 11  2  0
 11 12  1  0
 12 13  2  0
 13 14  1  0
 14 15  2  0
  8 16  2  0
  2 17  1  0
 17 18  1  0
 18 19  2  0
 19 20  1  0
 20 21  2  0
 21 22  1  0
 22 23  1  0
 23 24  1  0
 24 25  2  0
 25 26  1  0
 26 27  2  0
 27 28  1  0
 28 29  2  0
 22 30  2  0
 16  4  1  0
 30 18  1  0
 15 10  1  0
 29 24  1  0
  5 31  1  0
  6 32  1  0
  7 33  1  0
  9 34  1  0
 11 35  1  0
 12 36  1  0
 13 37  1  0
 14 38  1  0
 15 39  1  0
 16 40  1  0
 17 41  1  0
 19 42  1  0
 20 43  1  0
 21 44  1  0
 23 45  1  0
 23 46  1  0
 25 47  1  0
 26 48  1  0
 27 49  1  0
 28 50  1  0
 29 51  1  0
 30 52  1  0
M  CHG  1   3  -1
M  END
>  <UniqueID>  (65) 
59

>  <SMILES>  (65) 
O=C([N-]c1cccc(Nc2ccccc2)c1)Nc1cccc(Cc2ccccc2)c1

>  <Energy>  (65) 
67.27950247026867

>  <Genealogy>  (65) 
O=C([N-]c1cccc(Nc2ccccc2)c1)Nc1cccc(Cc2ccccc2)c1 (protonated)
O=C([N-]c1cccc(Nc2ccccc2)c1)Nc1cccc(Cc2ccccc2)c1 (3D coordinates assigned)
O=C([N-]c1cccc(Nc2ccccc2)c1)Nc1cccc(Cc2ccccc2)c1 (optimized conformer: 67.27950247026867 kcal/mol)

>  <smiles>  (65) 
O=C(Nc1cccc(Cc2ccccc2)c1)Nc1cccc(Nc2ccccc2)c1

>  <score_type>  (65) 
oracle

>  <origin>  (65) 
adg

>  <m_score__min__energy>  (65) 
-11.27

>  <m_primary>  (65) 
energy

$$$$
65:0
     RDKit          3D

 40 44  0  0  0  0  0  0  0  0999 V2000
   56.4300   31.5310   52.3820 C   0  0  0  0  0  0  0  0  0  0  0  0
   57.5520   31.6830   53.0910 C   0  0  0  0  0  0  0  0  0  0  0  0
   58.9140   31.5670   52.4640 C   0  0  0  0  0  0  0  0  0  0  0  0
   58.8420   31.9200   51.0460 N   0  0  0  0  0  0  0  0  0  0  0  0
   58.8610   31.0450   50.0130 C   0  0  0  0  0  0  0  0  0  0  0  0
   58.9260   29.6640   50.1590 O   0  0  0  0  0  0  0  0  0  0  0  0
   58.9160   31.7190   48.8110 C   0  0  0  0  0  0  0  0  0  0  0  0
   59.0040   33.0740   49.1270 C   0  0  0  0  0  0  0  0  0  0  0  0
   59.0000   33.1540   50.5040 C   0  0  0  0  0  0  0  0  0  0  0  0
   59.2250   34.3230   51.2280 O   0  0  0  0  0  0  0  0  0  0  0  0
   59.7230   33.9330   48.0940 C   0  0  1  0  0  0  0  0  0  0  0  0
   61.0760   33.2380   47.9140 C   0  0  0  0  0  0  0  0  0  0  0  0
   62.3220   33.8500   48.0540 C   0  0  0  0  0  0  0  0  0  0  0  0
   63.4810   33.0840   47.8700 C   0  0  0  0  0  0  0  0  0  0  0  0
   63.3940   31.7170   47.5530 C   0  0  0  0  0  0  0  0  0  0  0  0
   62.1440   31.0960   47.4130 C   0  0  0  0  0  0  0  0  0  0  0  0
   60.9860   31.8530   47.5930 C   0  0  0  0  0  0  0  0  0  0  0  0
   59.5540   31.3200   47.4860 C   0  0  2  0  0  0  0  0  0  0  0  0
   58.8940   32.2500   46.4660 C   0  0  0  0  0  0  0  0  0  0  0  0
   58.2510   31.8390   45.2990 C   0  0  0  0  0  0  0  0  0  0  0  0
   57.6940   32.8060   44.4500 C   0  0  0  0  0  0  0  0  0  0  0  0
   57.7810   34.1720   44.7670 C   0  0  0  0  0  0  0  0  0  0  0  0
   58.4280   34.5920   45.9390 C   0  0  0  0  0  0  0  0  0  0  0  0
   58.9830   33.6340   46.7890 C   0  0  0  0  0  0  0  0  0  0  0  0
   55.4511   31.6230   52.8752 H   0  0  0  0  0  0  0  0  0  0  0  0
   56.4851   31.3139   51.3050 H   0  0  0  0  0  0  0  0  0  0  0  0
   57.4773   31.8997   54.1668 H   0  0  0  0  0  0  0  0  0  0  0  0
   59.6097   32.2491   52.9746 H   0  0  0  0  0  0  0  0  0  0  0  0
   59.2700   30.5308   52.5612 H   0  0  0  0  0  0  0  0  0  0  0  0
   58.8610   35.2170   50.9260 H   0  0  0  0  0  0  0  0  0  0  0  0
   59.7866   35.0005   48.3516 H   0  0  0  0  0  0  0  0  0  0  0  0
   62.3936   34.9185   48.3052 H   0  0  0  0  0  0  0  0  0  0  0  0
   64.4686   33.5569   47.9746 H   0  0  0  0  0  0  0  0  0  0  0  0
   64.3136   31.1297   47.4136 H   0  0  0  0  0  0  0  0  0  0  0  0
   62.0777   30.0265   47.1646 H   0  0  0  0  0  0  0  0  0  0  0  0
   59.4794   30.2491   47.2461 H   0  0  0  0  0  0  0  0  0  0  0  0
   58.1816   30.7703   45.0477 H   0  0  0  0  0  0  0  0  0  0  0  0
   57.1842   32.4922   43.5272 H   0  0  0  0  0  0  0  0  0  0  0  0
   57.3383   34.9182   44.0909 H   0  0  0  0  0  0  0  0  0  0  0  0
   58.4970   35.6620   46.1847 H   0  0  0  0  0  0  0  0  0  0  0  0
  1  2  2  0
  2  3  1  0
  3  4  1  0
  4  5  1  0
  5  6  1  0
  5  7  2  0
  7  8  1  0
  8  9  2  0
  9 10  1  0
  8 11  1  0
 11 12  1  0
 12 13  2  0
 13 14  1  0
 14 15  2  0
 15 16  1  0
 16 17  2  0
 17 18  1  0
 18 19  1  0
 19 20  2  0
 20 21  1  0
 21 22  2  0
 22 23  1  0
 23 24  2  0
  9  4  1  0
 24 11  1  0
 18  7  1  0
 24 19  1  0
 17 12  1  0
  1 25  1  0
  1 26  1  0
  2 27  1  0
  3 28  1  0
  3 29  1  0
 10 30  1  0
 11 31  1  1
 13 32  1  0
 14 33  1  0
 15 34  1  0
 16 35  1  0
 18 36  1  6
 20 37  1  0
 21 38  1  0
 22 39  1  0
 23 40  1  0
M  CHG  1   6  -1
M  END
>  <UniqueID>  (66) 
60

>  <SMILES>  (66) 
C=CCn1c([O-])c2c(c1O)C1c3ccccc3C2c2ccccc21

>  <Energy>  (66) 
125.24503696144029

>  <Genealogy>  (66) 
C=CCn1c([O-])c2c(c1O)C1c3ccccc3C2c2ccccc21 (protonated)
C=CCn1c([O-])c2c(c1O)C1c3ccccc3C2c2ccccc21 (3D coordinates assigned)
C=CCn1c([O-])c2c(c1O)C1c3ccccc3C2c2ccccc21 (nonaromatic ring conformer: 125.24503696144029 kcal/mol)

>  <smiles>  (66) 
C=CCn1c(O)c2c(c1O)C1c3ccccc3C2c2ccccc21

>  <score_type>  (66) 
oracle

>  <origin>  (66) 
adg

>  <m_score__min__energy>  (66) 
-8.3699999999999992

>  <m_primary>  (66) 
energy

$$$$
66:0
     RDKit          3D

 34 36  0  0  0  0  0  0  0  0999 V2000
   57.3980   34.1130   45.7370 C   0  0  0  0  0  0  0  0  0  0  0  0
   57.3150   33.3370   44.5050 N   0  0  0  0  0  0  0  0  0  0  0  0
   57.4500   31.9090   44.4810 C   0  0  0  0  0  0  0  0  0  0  0  0
   57.3940   31.1340   43.0330 S   0  0  0  0  0  0  0  0  0  0  0  0
   57.5020   31.1570   45.7080 N   0  0  0  0  0  0  0  0  0  0  0  0
   58.0370   29.8270   45.8070 C   0  0  0  0  0  0  0  0  0  0  0  0
   59.3620   29.6570   46.2310 C   0  0  0  0  0  0  0  0  0  0  0  0
   59.9170   28.3820   46.3230 C   0  0  0  0  0  0  0  0  0  0  0  0
   59.1550   27.2620   45.9920 C   0  0  0  0  0  0  0  0  0  0  0  0
   57.8290   27.4060   45.5490 C   0  0  0  0  0  0  0  0  0  0  0  0
   57.0420   26.1900   45.2480 C   0  0  0  0  0  0  0  0  0  0  0  0
   57.5250   25.2410   44.3090 C   0  0  0  0  0  0  0  0  0  0  0  0
   56.7740   24.0930   43.9990 C   0  0  0  0  0  0  0  0  0  0  0  0
   55.5480   23.9290   44.6370 C   0  0  0  0  0  0  0  0  0  0  0  0
   54.6760   22.9200   44.4920 N   0  0  0  0  0  0  0  0  0  0  0  0
   53.6790   23.2840   45.3370 C   0  0  0  0  0  0  0  0  0  0  0  0
   52.6440   22.5870   45.4990 O   0  0  0  0  0  0  0  0  0  0  0  0
   53.8760   24.4540   45.9980 N   0  0  0  0  0  0  0  0  0  0  0  0
   55.0740   24.8400   45.5310 C   0  0  0  0  0  0  0  0  0  0  0  0
   55.7860   25.9890   45.8650 C   0  0  0  0  0  0  0  0  0  0  0  0
   57.2780   28.7030   45.4190 C   0  0  0  0  0  0  0  0  0  0  0  0
   56.0090   28.9040   44.8670 O   0  0  0  0  0  0  0  0  0  0  0  0
   57.3257   33.4370   46.6017 H   0  0  0  0  0  0  0  0  0  0  0  0
   58.3585   34.6481   45.7693 H   0  0  0  0  0  0  0  0  0  0  0  0
   56.5724   34.8392   45.7693 H   0  0  0  0  0  0  0  0  0  0  0  0
   57.2130   33.8530   43.6020 H   0  0  0  0  0  0  0  0  0  0  0  0
   57.0220   31.5470   46.5490 H   0  0  0  0  0  0  0  0  0  0  0  0
   59.9684   30.5365   46.4931 H   0  0  0  0  0  0  0  0  0  0  0  0
   60.9577   28.2589   46.6572 H   0  0  0  0  0  0  0  0  0  0  0  0
   59.5953   26.2577   46.0783 H   0  0  0  0  0  0  0  0  0  0  0  0
   58.4961   25.4052   43.8191 H   0  0  0  0  0  0  0  0  0  0  0  0
   57.1431   23.3499   43.2768 H   0  0  0  0  0  0  0  0  0  0  0  0
   55.3843   26.7167   46.5855 H   0  0  0  0  0  0  0  0  0  0  0  0
   55.7560   28.5980   43.9370 H   0  0  0  0  0  0  0  0  0  0  0  0
  1  2  1  0
  2  3  1  0
  3  4  2  0
  3  5  1  0
  5  6  1  0
  6  7  2  0
  7  8  1  0
  8  9  2  0
  9 10  1  0
 10 11  1  0
 11 12  2  0
 12 13  1  0
 13 14  2  0
 14 15  1  0
 15 16  1  0
 16 17  2  0
 16 18  1  0
 18 19  1  0
 19 20  2  0
 10 21  2  0
 21 22  1  0
 21  6  1  0
 20 11  1  0
 19 14  1  0
  1 23  1  0
  1 24  1  0
  1 25  1  0
  2 26  1  0
  5 27  1  0
  7 28  1  0
  8 29  1  0
  9 30  1  0
 12 31  1  0
 13 32  1  0
 20 33  1  0
 22 34  1  0
M  CHG  2  15  -1  18  -1
M  END
>  <UniqueID>  (67) 
61

>  <SMILES>  (67) 
CNC(=S)Nc1cccc(-c2ccc3[n-]c(=O)[n-]c3c2)c1O

>  <Energy>  (67) 
82.80513731586677

>  <Genealogy>  (67) 
CNC(=S)Nc1cccc(-c2ccc3[n-]c(=O)[n-]c3c2)c1O (protonated)
CNC(=S)Nc1cccc(-c2ccc3[n-]c(=O)[n-]c3c2)c1O (3D coordinates assigned)
CNC(=S)Nc1cccc(-c2ccc3[n-]c(=O)[n-]c3c2)c1O (optimized conformer: 82.80513731586677 kcal/mol)

>  <smiles>  (67) 
CNC(=S)Nc1cccc(-c2ccc3[nH]c(=O)[nH]c3c2)c1O

>  <score_type>  (67) 
oracle

>  <origin>  (67) 
adg

>  <m_score__min__energy>  (67) 
-11.300000000000001

>  <m_primary>  (67) 
energy

$$$$
67:0
     RDKit          3D

 60 63  0  0  0  0  0  0  0  0999 V2000
   59.8480   22.1960   44.4720 C   0  0  0  0  0  0  0  0  0  0  0  0
   59.0980   22.2790   45.6640 O   0  0  0  0  0  0  0  0  0  0  0  0
   57.7590   21.8870   45.4260 C   0  0  0  0  0  0  0  0  0  0  0  0
   56.8290   23.0560   45.5790 C   0  0  0  0  0  0  0  0  0  0  0  0
   55.5000   22.8640   45.9740 C   0  0  0  0  0  0  0  0  0  0  0  0
   54.6600   23.9680   46.1040 C   0  0  0  0  0  0  0  0  0  0  0  0
   55.1440   25.2540   45.8450 C   0  0  0  0  0  0  0  0  0  0  0  0
   54.2900   26.3410   45.9910 O   0  0  0  0  0  0  0  0  0  0  0  0
   56.4890   25.4180   45.4490 C   0  0  0  0  0  0  0  0  0  0  0  0
   57.0720   26.7500   45.1590 C   0  0  0  0  0  0  0  0  0  0  0  0
   58.2780   26.8510   44.8020 O   0  0  0  0  0  0  0  0  0  0  0  0
   56.2620   27.9340   45.2650 N   0  0  0  0  0  0  0  0  0  0  0  0
   56.7930   29.2580   45.1040 C   0  0  0  0  0  0  0  0  0  0  0  0
   56.2140   30.1210   44.1600 C   0  0  0  0  0  0  0  0  0  0  0  0
   56.7480   31.3890   43.9320 C   0  0  0  0  0  0  0  0  0  0  0  0
   57.8740   31.8170   44.6440 C   0  0  0  0  0  0  0  0  0  0  0  0
   58.3940   33.1820   44.4380 C   0  0  0  0  0  0  0  0  0  0  0  0
   58.8780   33.4890   43.3180 O   0  0  0  0  0  0  0  0  0  0  0  0
   58.3450   34.1850   45.4630 N   0  0  0  0  0  0  0  0  0  0  0  0
   59.6410   34.5920   46.5450 S   0  0  0  0  0  0  0  0  0  0  0  0
   60.9490   34.1920   45.9220 O   0  0  0  0  0  0  0  0  0  0  0  0
   59.6440   36.0770   46.7680 O   0  0  0  0  0  0  0  0  0  0  0  0
   59.4290   33.8010   48.1060 C   0  0  0  0  0  0  0  0  0  0  0  0
   60.0930   34.3030   49.2350 C   0  0  0  0  0  0  0  0  0  0  0  0
   59.8880   33.7190   50.4900 C   0  0  0  0  0  0  0  0  0  0  0  0
   59.0230   32.6300   50.6210 C   0  0  0  0  0  0  0  0  0  0  0  0
   58.3640   32.1200   49.4990 C   0  0  0  0  0  0  0  0  0  0  0  0
   58.5680   32.7010   48.2430 C   0  0  0  0  0  0  0  0  0  0  0  0
   58.4870   30.9480   45.5540 C   0  0  0  0  0  0  0  0  0  0  0  0
   57.9450   29.6750   45.8170 C   0  0  0  0  0  0  0  0  0  0  0  0
   58.5570   28.8380   46.8800 C   0  0  0  0  0  0  0  0  0  0  0  0
   57.8170   28.2160   47.6900 O   0  0  0  0  0  0  0  0  0  0  0  0
   59.9840   28.8500   47.0620 N   0  0  0  0  0  0  0  0  0  0  0  0
   60.7390   29.7830   47.5730 C   0  0  0  0  0  0  0  0  0  0  0  0
   60.9870   29.9040   48.9580 C   0  0  0  0  0  0  0  0  0  0  0  0
   61.8100   30.9330   49.4210 C   0  0  0  0  0  0  0  0  0  0  0  0
   62.3910   31.8240   48.5180 C   0  0  0  0  0  0  0  0  0  0  0  0
   63.4280   33.1170   49.0890 Cl  0  0  0  0  0  0  0  0  0  0  0  0
   62.1480   31.6620   47.1530 C   0  0  0  0  0  0  0  0  0  0  0  0
   61.3410   30.6570   46.7200 N   0  0  0  0  0  0  0  0  0  0  0  0
   57.2810   24.3140   45.3320 N   0  0  0  0  0  0  0  0  0  0  0  0
   60.9139   22.0780   44.7169 H   0  0  0  0  0  0  0  0  0  0  0  0
   59.5087   21.3299   43.8848 H   0  0  0  0  0  0  0  0  0  0  0  0
   59.7062   23.1153   43.8848 H   0  0  0  0  0  0  0  0  0  0  0  0
   57.6751   21.4902   44.4035 H   0  0  0  0  0  0  0  0  0  0  0  0
   57.4807   21.1152   46.1587 H   0  0  0  0  0  0  0  0  0  0  0  0
   55.1225   21.8515   46.1798 H   0  0  0  0  0  0  0  0  0  0  0  0
   53.6132   23.8275   46.4112 H   0  0  0  0  0  0  0  0  0  0  0  0
   55.2310   27.8340   45.4020 H   0  0  0  0  0  0  0  0  0  0  0  0
   55.3295   29.7934   43.5940 H   0  0  0  0  0  0  0  0  0  0  0  0
   56.2826   32.0547   43.1902 H   0  0  0  0  0  0  0  0  0  0  0  0
   60.7770   35.1585   49.1335 H   0  0  0  0  0  0  0  0  0  0  0  0
   60.4081   34.1175   51.3736 H   0  0  0  0  0  0  0  0  0  0  0  0
   58.8603   32.1733   51.6084 H   0  0  0  0  0  0  0  0  0  0  0  0
   57.6846   31.2613   49.6036 H   0  0  0  0  0  0  0  0  0  0  0  0
   58.0523   32.2948   47.3604 H   0  0  0  0  0  0  0  0  0  0  0  0
   59.4051   31.2638   46.0711 H   0  0  0  0  0  0  0  0  0  0  0  0
   60.5357   29.1936   49.6663 H   0  0  0  0  0  0  0  0  0  0  0  0
   62.0004   31.0412   50.4990 H   0  0  0  0  0  0  0  0  0  0  0  0
   62.6096   32.3477   46.4273 H   0  0  0  0  0  0  0  0  0  0  0  0
  1  2  1  0
  2  3  1  0
  3  4  1  0
  4  5  2  0
  5  6  1  0
  6  7  2  0
  7  8  1  0
  7  9  1  0
  9 10  1  0
 10 11  2  0
 10 12  1  0
 12 13  1  0
 13 14  2  0
 14 15  1  0
 15 16  2  0
 16 17  1  0
 17 18  2  0
 17 19  1  0
 19 20  1  0
 20 21  2  0
 20 22  2  0
 20 23  1  0
 23 24  2  0
 24 25  1  0
 25 26  2  0
 26 27  1  0
 27 28  2  0
 16 29  1  0
 29 30  2  0
 30 31  1  0
 31 32  2  0
 31 33  1  0
 33 34  2  3
 34 35  1  0
 35 36  2  0
 36 37  1  0
 37 38  1  0
 37 39  2  0
 39 40  1  0
  9 41  2  0
 41  4  1  0
 30 13  1  0
 40 34  1  0
 28 23  1  0
  1 42  1  0
  1 43  1  0
  1 44  1  0
  3 45  1  0
  3 46  1  0
  5 47  1  0
  6 48  1  0
 12 49  1  0
 14 50  1  0
 15 51  1  0
 24 52  1  0
 25 53  1  0
 26 54  1  0
 27 55  1  0
 28 56  1  0
 29 57  1  0
 35 58  1  0
 36 59  1  0
 39 60  1  0
M  CHG  3   8  -1  19  -1  40  -1
M  END
>  <UniqueID>  (68) 
62

>  <SMILES>  (68) 
COCc1ccc([O-])c(C(=O)Nc2ccc(C(=O)[N-]S(=O)(=O)c3ccccc3)cc2C(=O)N=c2ccc(Cl)c[n-]2)n1

>  <Energy>  (68) 
88.04718497378688

>  <Genealogy>  (68) 
COCc1ccc([O-])c(C(=O)Nc2ccc(C(=O)[N-]S(=O)(=O)c3ccccc3)cc2C(=O)N=c2ccc(Cl)c[n-]2)n1 (protonated)
COCc1ccc([O-])c(C(=O)Nc2ccc(C(=O)[N-]S(=O)(=O)c3ccccc3)cc2C(=O)N=c2ccc(Cl)c[n-]2)n1 (3D coordinates assigned)
COCc1ccc([O-])c(C(=O)Nc2ccc(C(=O)[N-]S(=O)(=O)c3ccccc3)cc2C(=O)N=c2ccc(Cl)c[n-]2)n1 (optimized conformer: 88.04718497378688 kcal/mol)

>  <smiles>  (68) 
COCc1ccc(O)c(C(=O)Nc2ccc(C(=O)NS(=O)(=O)c3ccccc3)cc2C(=O)N=c2ccc(Cl)c[nH]2)n1

>  <score_type>  (68) 
oracle

>  <origin>  (68) 
adg

>  <m_score__min__energy>  (68) 
-16.75

>  <m_primary>  (68) 
energy

$$$$
68:0
     RDKit          3D

 33 35  0  0  0  0  0  0  0  0999 V2000
   56.6040   29.5140   42.4780 N   0  0  0  0  0  0  0  0  0  0  0  0
   56.5890   30.2450   44.0450 S   0  0  0  0  0  0  0  0  0  0  0  0
   57.2590   31.5890   43.9760 O   0  0  0  0  0  0  0  0  0  0  0  0
   55.1700   30.4360   44.5010 O   0  0  0  0  0  0  0  0  0  0  0  0
   57.4430   29.2050   45.1810 C   0  0  0  0  0  0  0  0  0  0  0  0
   57.3620   27.8150   45.0490 C   0  0  0  0  0  0  0  0  0  0  0  0
   58.0490   26.9700   45.9300 C   0  0  0  0  0  0  0  0  0  0  0  0
   57.9210   25.5500   45.7730 N   0  0  0  0  0  0  0  0  0  0  0  0
   58.9520   24.6930   45.6370 C   0  0  0  0  0  0  0  0  0  0  0  0
   58.4820   23.3970   45.5800 C   0  0  0  0  0  0  0  0  0  0  0  0
   57.1060   23.4680   45.6930 C   0  0  0  0  0  0  0  0  0  0  0  0
   56.7880   24.8090   45.8140 C   0  0  0  0  0  0  0  0  0  0  0  0
   55.4160   25.3400   45.9350 C   0  0  0  0  0  0  0  0  0  0  0  0
   54.4370   24.5480   45.9810 O   0  0  0  0  0  0  0  0  0  0  0  0
   55.1800   26.7080   45.9850 O   0  0  0  0  0  0  0  0  0  0  0  0
   58.8370   27.5260   46.9630 C   0  0  0  0  0  0  0  0  0  0  0  0
   59.5610   26.7130   47.8580 C   0  0  0  0  0  0  0  0  0  0  0  0
   60.3380   27.2900   48.8670 C   0  0  0  0  0  0  0  0  0  0  0  0
   60.4070   28.6780   48.9960 C   0  0  0  0  0  0  0  0  0  0  0  0
   59.7040   29.5000   48.1120 C   0  0  0  0  0  0  0  0  0  0  0  0
   58.9200   28.9360   47.0920 C   0  0  0  0  0  0  0  0  0  0  0  0
   58.2240   29.7630   46.2000 C   0  0  0  0  0  0  0  0  0  0  0  0
   56.2580   28.5350   42.5950 H   0  0  0  0  0  0  0  0  0  0  0  0
   57.6030   29.4480   42.1820 H   0  0  0  0  0  0  0  0  0  0  0  0
   56.7516   27.3802   44.2438 H   0  0  0  0  0  0  0  0  0  0  0  0
   60.0114   24.9836   45.5799 H   0  0  0  0  0  0  0  0  0  0  0  0
   59.0853   22.4842   45.4666 H   0  0  0  0  0  0  0  0  0  0  0  0
   56.4015   22.6232   45.6877 H   0  0  0  0  0  0  0  0  0  0  0  0
   59.5145   25.6182   47.7622 H   0  0  0  0  0  0  0  0  0  0  0  0
   60.8975   26.6471   49.5624 H   0  0  0  0  0  0  0  0  0  0  0  0
   61.0161   29.1255   49.7952 H   0  0  0  0  0  0  0  0  0  0  0  0
   59.7646   30.5935   48.2151 H   0  0  0  0  0  0  0  0  0  0  0  0
   58.2917   30.8562   46.3011 H   0  0  0  0  0  0  0  0  0  0  0  0
  1  2  1  0
  2  3  2  0
  2  4  2  0
  2  5  1  0
  5  6  2  0
  6  7  1  0
  7  8  1  0
  8  9  1  0
  9 10  2  0
 10 11  1  0
 11 12  2  0
 12 13  1  0
 13 14  2  0
 13 15  1  0
  7 16  2  0
 16 17  1  0
 17 18  2  0
 18 19  1  0
 19 20  2  0
 20 21  1  0
 21 22  2  0
 22  5  1  0
 12  8  1  0
 21 16  1  0
  1 23  1  0
  1 24  1  0
  6 25  1  0
  9 26  1  0
 10 27  1  0
 11 28  1  0
 17 29  1  0
 18 30  1  0
 19 31  1  0
 20 32  1  0
 22 33  1  0
M  CHG  1  15  -1
M  END
>  <UniqueID>  (69) 
63

>  <SMILES>  (69) 
NS(=O)(=O)c1cc(-n2cccc2C(=O)[O-])c2ccccc2c1

>  <Energy>  (69) 
71.42532561104044

>  <Genealogy>  (69) 
NS(=O)(=O)c1cc(-n2cccc2C(=O)[O-])c2ccccc2c1 (protonated)
NS(=O)(=O)c1cc(-n2cccc2C(=O)[O-])c2ccccc2c1 (3D coordinates assigned)
NS(=O)(=O)c1cc(-n2cccc2C(=O)[O-])c2ccccc2c1 (optimized conformer: 71.42532561104044 kcal/mol)

>  <smiles>  (69) 
NS(=O)(=O)c1cc(-n2cccc2C(=O)O)c2ccccc2c1

>  <score_type>  (69) 
oracle

>  <origin>  (69) 
adg

>  <m_score__min__energy>  (69) 
-11.050000000000001

>  <m_primary>  (69) 
energy

$$$$
69:0
     RDKit          3D

 39 41  0  0  0  0  0  0  0  0999 V2000
   63.1180   31.6400   47.5190 C   0  0  0  0  0  0  0  0  0  0  0  0
   63.7920   32.9100   47.8500 N   0  0  2  0  0  0  0  0  0  0  0  0
   63.5260   33.2520   49.2710 C   0  0  0  0  0  0  0  0  0  0  0  0
   62.0230   33.4000   49.6420 C   0  0  0  0  0  0  0  0  0  0  0  0
   61.2100   34.3500   48.7420 C   0  0  0  0  0  0  0  0  0  0  0  0
   60.8360   33.8000   47.4130 N   0  0  0  0  0  0  0  0  0  0  0  0
   59.5510   34.3480   46.9320 C   0  0  0  0  0  0  0  0  0  0  0  0
   58.9000   33.4130   45.9570 C   0  0  0  0  0  0  0  0  0  0  0  0
   58.8780   33.5910   44.5740 C   0  0  0  0  0  0  0  0  0  0  0  0
   58.1360   32.5320   44.0970 C   0  0  0  0  0  0  0  0  0  0  0  0
   57.7620   32.1760   42.8060 C   0  0  0  0  0  0  0  0  0  0  0  0
   56.9770   31.0190   42.6580 C   0  0  0  0  0  0  0  0  0  0  0  0
   56.5970   30.2750   43.7990 C   0  0  0  0  0  0  0  0  0  0  0  0
   56.9890   30.6710   45.0480 N   0  0  0  0  0  0  0  0  0  0  0  0
   57.7490   31.7870   45.1750 C   0  0  0  0  0  0  0  0  0  0  0  0
   58.2040   32.3100   46.3240 N   0  0  0  0  0  0  0  0  0  0  0  0
   61.8970   33.7740   46.3760 C   0  0  0  0  0  0  0  0  0  0  0  0
   63.3350   33.9570   46.9060 C   0  0  0  0  0  0  0  0  0  0  0  0
   62.8414   31.1189   48.4474 H   0  0  0  0  0  0  0  0  0  0  0  0
   62.2117   31.8482   46.9314 H   0  0  0  0  0  0  0  0  0  0  0  0
   63.7984   31.0061   46.9314 H   0  0  0  0  0  0  0  0  0  0  0  0
   64.8100   32.7290   47.7040 H   0  0  0  0  0  0  0  0  0  0  0  0
   63.9558   32.4578   49.8992 H   0  0  0  0  0  0  0  0  0  0  0  0
   63.9826   34.2384   49.4401 H   0  0  0  0  0  0  0  0  0  0  0  0
   61.5606   32.4033   49.5884 H   0  0  0  0  0  0  0  0  0  0  0  0
   62.0018   33.8440   50.6482 H   0  0  0  0  0  0  0  0  0  0  0  0
   60.2838   34.6127   49.2741 H   0  0  0  0  0  0  0  0  0  0  0  0
   61.8627   35.2125   48.5418 H   0  0  0  0  0  0  0  0  0  0  0  0
   58.8796   34.4973   47.7905 H   0  0  0  0  0  0  0  0  0  0  0  0
   59.7456   35.3043   46.4244 H   0  0  0  0  0  0  0  0  0  0  0  0
   59.3485   34.3977   43.9927 H   0  0  0  0  0  0  0  0  0  0  0  0
   58.0679   32.7753   41.9358 H   0  0  0  0  0  0  0  0  0  0  0  0
   56.6590   30.6932   41.6566 H   0  0  0  0  0  0  0  0  0  0  0  0
   55.9815   29.3710   43.6811 H   0  0  0  0  0  0  0  0  0  0  0  0
   58.0430   31.9500   47.2910 H   0  0  0  0  0  0  0  0  0  0  0  0
   61.8450   32.8042   45.8595 H   0  0  0  0  0  0  0  0  0  0  0  0
   61.7020   34.6325   45.7165 H   0  0  0  0  0  0  0  0  0  0  0  0
   64.0185   33.9614   46.0441 H   0  0  0  0  0  0  0  0  0  0  0  0
   63.3373   34.9016   47.4696 H   0  0  0  0  0  0  0  0  0  0  0  0
  1  2  1  0
  2  3  1  0
  3  4  1  0
  4  5  1  0
  5  6  1  0
  6  7  1  0
  7  8  1  0
  8  9  2  0
  9 10  1  0
 10 11  2  0
 11 12  1  0
 12 13  2  0
 13 14  1  0
 14 15  2  0
 15 16  1  0
  6 17  1  0
 17 18  1  0
 18  2  1  0
 16  8  1  0
 15 10  1  0
  1 19  1  0
  1 20  1  0
  1 21  1  0
  2 22  1  1
  3 23  1  0
  3 24  1  0
  4 25  1  0
  4 26  1  0
  5 27  1  0
  5 28  1  0
  7 29  1  0
  7 30  1  0
  9 31  1  0
 11 32  1  0
 12 33  1  0
 13 34  1  0
 16 35  1  0
 17 36  1  0
 17 37  1  0
 18 38  1  0
 18 39  1  0
M  CHG  1   2   1
M  END
>  <UniqueID>  (70) 
64

>  <SMILES>  (70) 
C[N@@H+]1CCCN(Cc2cc3cccnc3[nH]2)CC1

>  <Energy>  (70) 
94.40924236214433

>  <Genealogy>  (70) 
C[NH+]1CCCN(Cc2cc3cccnc3[nH]2)CC1 (protonated)
C[N@@H+]1CCCN(Cc2cc3cccnc3[nH]2)CC1 (chirality)
C[N@@H+]1CCCN(Cc2cc3cccnc3[nH]2)CC1 (3D coordinates assigned)
C[N@@H+]1CCCN(Cc2cc3cccnc3[nH]2)CC1 (nonaromatic ring conformer: 94.40924236214433 kcal/mol)

>  <smiles>  (70) 
CN1CCCN(Cc2cc3cccnc3[nH]2)CC1

>  <score_type>  (70) 
oracle

>  <origin>  (70) 
adg

>  <m_score__min__energy>  (70) 
-4.0700000000000003

>  <m_primary>  (70) 
energy

$$$$
70:0
     RDKit          3D

 60 64  0  0  0  0  0  0  0  0999 V2000
   55.4630   29.0320   45.7360 H   0  0  0  0  0  0  0  0  0  0  0  0
   55.1550   29.3430   44.7870 N   0  0  0  0  0  0  0  0  0  0  0  0
   56.0480   30.0170   43.9050 C   0  0  0  0  0  0  0  0  0  0  0  0
   55.9420   29.8320   42.6630 O   0  0  0  0  0  0  0  0  0  0  0  0
   57.0790   30.9440   44.4320 C   0  0  0  0  0  0  0  0  0  0  0  0
   57.4090   32.0880   43.6820 C   0  0  0  0  0  0  0  0  0  0  0  0
   56.9398   32.2487   42.7002 H   0  0  0  0  0  0  0  0  0  0  0  0
   58.3250   33.0210   44.1700 C   0  0  0  0  0  0  0  0  0  0  0  0
   58.5778   33.9078   43.5703 H   0  0  0  0  0  0  0  0  0  0  0  0
   58.9200   32.8310   45.4160 C   0  0  0  0  0  0  0  0  0  0  0  0
   59.6234   33.5799   45.8089 H   0  0  0  0  0  0  0  0  0  0  0  0
   58.6240   31.6910   46.1660 C   0  0  0  0  0  0  0  0  0  0  0  0
   59.0916   31.5495   47.1515 H   0  0  0  0  0  0  0  0  0  0  0  0
   57.7360   30.7260   45.6730 C   0  0  0  0  0  0  0  0  0  0  0  0
   57.5260   29.5390   46.4560 N   0  0  0  0  0  0  0  0  0  0  0  0
   58.4510   28.8070   47.0200 C   0  0  0  0  0  0  0  0  0  0  0  0
   58.5270   27.4420   46.7140 C   0  0  0  0  0  0  0  0  0  0  0  0
   57.3940   26.6840   45.6050 Cl  0  0  0  0  0  0  0  0  0  0  0  0
   59.5190   26.6870   47.2560 N   0  0  0  0  0  0  0  0  0  0  0  0
   60.4360   27.2180   48.0650 N   0  0  0  0  0  0  0  0  0  0  0  0
   60.4110   28.5320   48.4090 C   0  0  0  0  0  0  0  0  0  0  0  0
   61.4210   29.0980   49.1980 O   0  0  0  0  0  0  0  0  0  0  0  0
   61.2100   29.6730   50.4570 C   0  0  0  0  0  0  0  0  0  0  0  0
   60.1670   29.2400   51.2930 C   0  0  0  0  0  0  0  0  0  0  0  0
   59.4713   28.4626   50.9442 H   0  0  0  0  0  0  0  0  0  0  0  0
   60.0110   29.7940   52.5660 C   0  0  0  0  0  0  0  0  0  0  0  0
   59.1964   29.4480   53.2193 H   0  0  0  0  0  0  0  0  0  0  0  0
   60.8880   30.7870   53.0110 C   0  0  0  0  0  0  0  0  0  0  0  0
   60.7624   31.2221   54.0135 H   0  0  0  0  0  0  0  0  0  0  0  0
   61.9250   31.2280   52.1830 C   0  0  0  0  0  0  0  0  0  0  0  0
   62.6228   31.9991   52.5413 H   0  0  0  0  0  0  0  0  0  0  0  0
   62.0780   30.6890   50.8950 C   0  0  0  0  0  0  0  0  0  0  0  0
   63.1280   31.1560   50.0330 N   0  0  0  0  0  0  0  0  0  0  0  0
   64.1140   30.8800   50.2410 H   0  0  0  0  0  0  0  0  0  0  0  0
   62.8890   32.0460   48.9350 C   0  0  0  0  0  0  0  0  0  0  0  0
   63.7200   31.9820   47.8070 C   0  0  0  0  0  0  0  0  0  0  0  0
   64.5361   31.2454   47.7694 H   0  0  0  0  0  0  0  0  0  0  0  0
   63.5160   32.8500   46.7300 C   0  0  0  0  0  0  0  0  0  0  0  0
   64.1686   32.7921   45.8464 H   0  0  0  0  0  0  0  0  0  0  0  0
   62.4860   33.7890   46.7750 C   0  0  0  0  0  0  0  0  0  0  0  0
   62.3137   34.4567   45.9180 H   0  0  0  0  0  0  0  0  0  0  0  0
   61.6720   33.8830   47.9080 C   0  0  0  0  0  0  0  0  0  0  0  0
   60.8665   34.6313   47.9433 H   0  0  0  0  0  0  0  0  0  0  0  0
   61.8790   33.0250   49.0020 C   0  0  0  0  0  0  0  0  0  0  0  0
   61.0830   33.1420   50.1910 N   0  0  0  0  0  0  0  0  0  0  0  0
   59.7120   33.5550   50.2340 C   0  0  0  0  0  0  0  0  0  0  0  0
   59.3460   34.5860   49.6050 O   0  0  0  0  0  0  0  0  0  0  0  0
   58.7340   32.7970   51.0450 C   0  0  0  0  0  0  0  0  0  0  0  0
   58.0640   31.6860   50.5010 C   0  0  0  0  0  0  0  0  0  0  0  0
   58.2631   31.3817   49.4628 H   0  0  0  0  0  0  0  0  0  0  0  0
   57.1460   30.9660   51.2730 C   0  0  0  0  0  0  0  0  0  0  0  0
   56.6126   30.1097   50.8345 H   0  0  0  0  0  0  0  0  0  0  0  0
   56.9050   31.3320   52.6000 C   0  0  0  0  0  0  0  0  0  0  0  0
   56.1969   30.7526   53.2107 H   0  0  0  0  0  0  0  0  0  0  0  0
   57.5620   32.4310   53.1490 C   0  0  0  0  0  0  0  0  0  0  0  0
   57.3644   32.7248   54.1905 H   0  0  0  0  0  0  0  0  0  0  0  0
   58.4730   33.1620   52.3780 C   0  0  0  0  0  0  0  0  0  0  0  0
   58.9887   34.0284   52.8178 H   0  0  0  0  0  0  0  0  0  0  0  0
   59.3910   29.3410   47.9210 C   0  0  0  0  0  0  0  0  0  0  0  0
   59.3192   30.3921   48.2372 H   0  0  0  0  0  0  0  0  0  0  0  0
  1  2  1  0
  2  3  1  0
  3  4  2  0
  3  5  1  0
  5  6  2  0
  6  7  1  0
  6  8  1  0
  8  9  1  0
  8 10  2  0
 10 11  1  0
 10 12  1  0
 12 13  1  0
 12 14  2  0
 14 15  1  0
 15 16  2  0
 16 17  1  0
 17 18  1  0
 17 19  2  0
 19 20  1  0
 20 21  1  0
 21 22  1  0
 22 23  1  0
 23 24  2  0
 24 25  1  0
 24 26  1  0
 26 27  1  0
 26 28  2  0
 28 29  1  0
 28 30  1  0
 30 31  1  0
 30 32  2  0
 32 33  1  0
 33 34  1  0
 33 35  1  0
 35 36  2  0
 36 37  1  0
 36 38  1  0
 38 39  1  0
 38 40  2  0
 40 41  1  0
 40 42  1  0
 42 43  1  0
 42 44  2  0
 44 45  1  0
 45 46  1  0
 46 47  2  0
 46 48  1  0
 48 49  2  0
 49 50  1  0
 49 51  1  0
 51 52  1  0
 51 53  2  0
 53 54  1  0
 53 55  1  0
 55 56  1  0
 55 57  2  0
 57 58  1  0
 21 59  2  0
 59 60  1  0
 14  5  1  0
 59 16  1  0
 32 23  1  0
 44 35  1  0
 57 48  1  0
M  CHG  3   2  -1  20  -1  45  -1
M  END
>  <UniqueID>  (71) 
65

>  <SMILES>  (71) 
[NH-]C(=O)c1ccccc1/N=c1\cc(Oc2ccccc2Nc2ccccc2[N-]C(=O)c2ccccc2)[n-]nc1Cl

>  <Energy>  (71) 
96.5605016254995

>  <Genealogy>  (71) 
[NH-]C(=O)c1ccccc1N=c1cc(Oc2ccccc2Nc2ccccc2[N-]C(=O)c2ccccc2)[n-]nc1Cl (protonated)
[NH-]C(=O)c1ccccc1/N=c1\cc(Oc2ccccc2Nc2ccccc2[N-]C(=O)c2ccccc2)[n-]nc1Cl (cis-trans isomerization)
[NH-]C(=O)c1ccccc1/N=c1\cc(Oc2ccccc2Nc2ccccc2[N-]C(=O)c2ccccc2)[n-]nc1Cl (3D coordinates assigned)
[NH-]C(=O)c1ccccc1/N=c1\cc(Oc2ccccc2Nc2ccccc2[N-]C(=O)c2ccccc2)[n-]nc1Cl (optimized conformer: 96.5605016254995 kcal/mol)

>  <smiles>  (71) 
NC(=O)c1ccccc1N=c1cc(Oc2ccccc2Nc2ccccc2NC(=O)c2ccccc2)[nH]nc1Cl

>  <score_type>  (71) 
oracle

>  <origin>  (71) 
adg

>  <m_score__min__energy>  (71) 
-14.640000000000001

>  <m_primary>  (71) 
energy

$$$$
71:0
     RDKit          3D

 41 43  0  0  0  0  0  0  0  0999 V2000
   55.0770   26.4290   45.9990 O   0  0  0  0  0  0  0  0  0  0  0  0
   55.7320   25.3510   46.0040 C   0  0  0  0  0  0  0  0  0  0  0  0
   57.1680   25.3930   46.0530 N   0  0  0  0  0  0  0  0  0  0  0  0
   57.9280   26.5740   45.7430 C   0  0  0  0  0  0  0  0  0  0  0  0
   57.2520   27.7330   45.3340 C   0  0  0  0  0  0  0  0  0  0  0  0
   57.9620   28.9030   45.0320 C   0  0  0  0  0  0  0  0  0  0  0  0
   57.1100   30.3600   44.5280 S   0  0  0  0  0  0  0  0  0  0  0  0
   57.5720   30.7390   43.1480 O   0  0  0  0  0  0  0  0  0  0  0  0
   55.6310   30.0930   44.4790 O   0  0  0  0  0  0  0  0  0  0  0  0
   57.4540   31.6610   45.6400 N   0  0  0  0  0  0  0  0  0  0  0  0
   57.0330   32.9470   45.0570 C   0  0  0  0  0  0  0  0  0  0  0  0
   57.5940   34.1320   45.8690 C   0  0  0  0  0  0  0  0  0  0  0  0
   58.0890   33.6970   47.1200 O   0  0  0  0  0  0  0  0  0  0  0  0
   59.2020   32.8420   46.9250 C   0  0  0  0  0  0  0  0  0  0  0  0
   58.8920   31.6870   45.9470 C   0  0  0  0  0  0  0  0  0  0  0  0
   59.3560   28.9210   45.1680 C   0  0  0  0  0  0  0  0  0  0  0  0
   60.0340   27.7800   45.6000 C   0  0  0  0  0  0  0  0  0  0  0  0
   59.3280   26.6100   45.9000 C   0  0  0  0  0  0  0  0  0  0  0  0
   60.0210   25.5040   46.3770 O   0  0  0  0  0  0  0  0  0  0  0  0
   55.0090   24.0570   46.0010 C   0  0  0  0  0  0  0  0  0  0  0  0
   55.4590   22.9870   46.7920 C   0  0  0  0  0  0  0  0  0  0  0  0
   54.7730   21.7710   46.7920 C   0  0  0  0  0  0  0  0  0  0  0  0
   53.6290   21.6340   46.0030 C   0  0  0  0  0  0  0  0  0  0  0  0
   52.9970   20.5450   45.9900 O   0  0  0  0  0  0  0  0  0  0  0  0
   53.1940   22.6780   45.2500 N   0  0  0  0  0  0  0  0  0  0  0  0
   53.8460   23.8710   45.2310 C   0  0  0  0  0  0  0  0  0  0  0  0
   57.6700   24.5970   46.5080 H   0  0  0  0  0  0  0  0  0  0  0  0
   56.1553   27.7235   45.2496 H   0  0  0  0  0  0  0  0  0  0  0  0
   57.4035   33.0118   44.0233 H   0  0  0  0  0  0  0  0  0  0  0  0
   55.9343   32.9977   45.0765 H   0  0  0  0  0  0  0  0  0  0  0  0
   58.4110   34.6023   45.3022 H   0  0  0  0  0  0  0  0  0  0  0  0
   56.7825   34.8538   46.0438 H   0  0  0  0  0  0  0  0  0  0  0  0
   60.0358   33.4341   46.5197 H   0  0  0  0  0  0  0  0  0  0  0  0
   59.4590   32.3981   47.8981 H   0  0  0  0  0  0  0  0  0  0  0  0
   59.4605   31.8345   45.0170 H   0  0  0  0  0  0  0  0  0  0  0  0
   59.1795   30.7326   46.4122 H   0  0  0  0  0  0  0  0  0  0  0  0
   59.9181   29.8371   44.9336 H   0  0  0  0  0  0  0  0  0  0  0  0
   61.1288   27.8008   45.7051 H   0  0  0  0  0  0  0  0  0  0  0  0
   56.3573   23.1079   47.4152 H   0  0  0  0  0  0  0  0  0  0  0  0
   55.1294   20.9309   47.4062 H   0  0  0  0  0  0  0  0  0  0  0  0
   53.4625   24.6946   44.6108 H   0  0  0  0  0  0  0  0  0  0  0  0
  1  2  2  0
  2  3  1  0
  3  4  1  0
  4  5  2  0
  5  6  1  0
  6  7  1  0
  7  8  2  0
  7  9  2  0
  7 10  1  0
 10 11  1  0
 11 12  1  0
 12 13  1  0
 13 14  1  0
 14 15  1  0
  6 16  2  0
 16 17  1  0
 17 18  2  0
 18 19  1  0
  2 20  1  0
 20 21  1  0
 21 22  2  0
 22 23  1  0
 23 24  2  0
 23 25  1  0
 25 26  1  0
 18  4  1  0
 26 20  2  0
 15 10  1  0
  3 27  1  0
  5 28  1  0
 11 29  1  0
 11 30  1  0
 12 31  1  0
 12 32  1  0
 14 33  1  0
 14 34  1  0
 15 35  1  0
 15 36  1  0
 16 37  1  0
 17 38  1  0
 21 39  1  0
 22 40  1  0
 26 41  1  0
M  CHG  2  19  -1  25  -1
M  END
>  <UniqueID>  (72) 
66

>  <SMILES>  (72) 
O=C(Nc1cc(S(=O)(=O)N2CCOCC2)ccc1[O-])c1ccc(=O)[n-]c1

>  <Energy>  (72) 
57.82321718124257

>  <Genealogy>  (72) 
O=C(Nc1cc(S(=O)(=O)N2CCOCC2)ccc1[O-])c1ccc(=O)[n-]c1 (protonated)
O=C(Nc1cc(S(=O)(=O)N2CCOCC2)ccc1[O-])c1ccc(=O)[n-]c1 (3D coordinates assigned)
O=C(Nc1cc(S(=O)(=O)N2CCOCC2)ccc1[O-])c1ccc(=O)[n-]c1 (nonaromatic ring conformer: 57.82321718124257 kcal/mol)

>  <smiles>  (72) 
O=C(Nc1cc(S(=O)(=O)N2CCOCC2)ccc1O)c1ccc(=O)[nH]c1

>  <score_type>  (72) 
oracle

>  <origin>  (72) 
adg

>  <m_score__min__energy>  (72) 
-11.41

>  <m_primary>  (72) 
energy

$$$$
72:0
     RDKit          3D

 48 51  0  0  0  0  0  0  0  0999 V2000
   62.1810   32.0200   47.1290 C   0  0  0  0  0  0  0  0  0  0  0  0
   60.8230   31.6220   47.2900 O   0  0  0  0  0  0  0  0  0  0  0  0
   59.7300   32.2520   46.6720 C   0  0  0  0  0  0  0  0  0  0  0  0
   58.9170   31.5850   45.7340 C   0  0  0  0  0  0  0  0  0  0  0  0
   57.8300   32.2420   45.1390 C   0  0  0  0  0  0  0  0  0  0  0  0
   56.9340   31.5000   44.1850 C   0  0  0  0  0  0  0  0  0  0  0  0
   57.5250   30.2110   43.8390 N   0  0  0  0  0  0  0  0  0  0  0  0
   57.2710   29.0330   44.6130 C   0  0  0  0  0  0  0  0  0  0  0  0
   56.0650   28.5560   44.8690 O   0  0  0  0  0  0  0  0  0  0  0  0
   56.1990   27.4750   45.6110 C   0  0  0  0  0  0  0  0  0  0  0  0
   55.1380   26.7080   46.0750 O   0  0  0  0  0  0  0  0  0  0  0  0
   57.5340   27.2350   45.8510 C   0  0  0  0  0  0  0  0  0  0  0  0
   58.1810   26.2350   46.5740 C   0  0  0  0  0  0  0  0  0  0  0  0
   59.5860   26.2770   46.6310 C   0  0  0  0  0  0  0  0  0  0  0  0
   60.3010   27.3050   45.9730 C   0  0  0  0  0  0  0  0  0  0  0  0
   59.6160   28.3010   45.2510 C   0  0  0  0  0  0  0  0  0  0  0  0
   58.2240   28.2310   45.2120 C   0  0  0  0  0  0  0  0  0  0  0  0
   57.5590   33.5730   45.4810 C   0  0  0  0  0  0  0  0  0  0  0  0
   58.3610   34.2400   46.4080 C   0  0  0  0  0  0  0  0  0  0  0  0
   59.4460   33.5820   47.0170 C   0  0  0  0  0  0  0  0  0  0  0  0
   60.2630   34.2100   47.9730 O   0  0  0  0  0  0  0  0  0  0  0  0
   60.0560   34.1760   49.3860 C   0  0  0  0  0  0  0  0  0  0  0  0
   59.7540   32.7740   49.8480 C   0  0  0  0  0  0  0  0  0  0  0  0
   60.8030   31.9050   50.1910 C   0  0  0  0  0  0  0  0  0  0  0  0
   60.5280   30.6020   50.6180 C   0  0  0  0  0  0  0  0  0  0  0  0
   59.2050   30.1610   50.7130 C   0  0  0  0  0  0  0  0  0  0  0  0
   58.1560   31.0240   50.3850 C   0  0  0  0  0  0  0  0  0  0  0  0
   58.4270   32.3270   49.9580 C   0  0  0  0  0  0  0  0  0  0  0  0
   62.6431   32.1554   48.1180 H   0  0  0  0  0  0  0  0  0  0  0  0
   62.7270   31.2441   46.5723 H   0  0  0  0  0  0  0  0  0  0  0  0
   62.2218   32.9679   46.5723 H   0  0  0  0  0  0  0  0  0  0  0  0
   59.1366   30.5409   45.4663 H   0  0  0  0  0  0  0  0  0  0  0  0
   55.9551   31.3356   44.6590 H   0  0  0  0  0  0  0  0  0  0  0  0
   56.8117   32.0967   43.2690 H   0  0  0  0  0  0  0  0  0  0  0  0
   58.1560   30.1540   43.0090 H   0  0  0  0  0  0  0  0  0  0  0  0
   57.6136   25.4412   47.0819 H   0  0  0  0  0  0  0  0  0  0  0  0
   60.1328   25.5045   47.1916 H   0  0  0  0  0  0  0  0  0  0  0  0
   61.3995   27.3264   46.0257 H   0  0  0  0  0  0  0  0  0  0  0  0
   60.1601   29.1063   44.7357 H   0  0  0  0  0  0  0  0  0  0  0  0
   56.7096   34.0952   45.0165 H   0  0  0  0  0  0  0  0  0  0  0  0
   58.1437   35.2874   46.6646 H   0  0  0  0  0  0  0  0  0  0  0  0
   60.9641   34.5350   49.8924 H   0  0  0  0  0  0  0  0  0  0  0  0
   59.2000   34.8211   49.6330 H   0  0  0  0  0  0  0  0  0  0  0  0
   61.8450   32.2508   50.1235 H   0  0  0  0  0  0  0  0  0  0  0  0
   61.3535   29.9236   50.8793 H   0  0  0  0  0  0  0  0  0  0  0  0
   58.9897   29.1349   51.0459 H   0  0  0  0  0  0  0  0  0  0  0  0
   57.1150   30.6772   50.4630 H   0  0  0  0  0  0  0  0  0  0  0  0
   57.5979   33.0050   49.7071 H   0  0  0  0  0  0  0  0  0  0  0  0
  1  2  1  0
  2  3  1  0
  3  4  2  0
  4  5  1  0
  5  6  1  0
  6  7  1  0
  7  8  1  0
  8  9  1  0
  9 10  1  0
 10 11  1  0
 10 12  2  0
 12 13  1  0
 13 14  2  0
 14 15  1  0
 15 16  2  0
 16 17  1  0
  5 18  2  0
 18 19  1  0
 19 20  2  0
 20 21  1  0
 21 22  1  0
 22 23  1  0
 23 24  2  0
 24 25  1  0
 25 26  2  0
 26 27  1  0
 27 28  2  0
 20  3  1  0
 28 23  1  0
 17  8  2  0
 17 12  1  0
  1 29  1  0
  1 30  1  0
  1 31  1  0
  4 32  1  0
  6 33  1  0
  6 34  1  0
  7 35  1  0
 13 36  1  0
 14 37  1  0
 15 38  1  0
 16 39  1  0
 18 40  1  0
 19 41  1  0
 22 42  1  0
 22 43  1  0
 24 44  1  0
 25 45  1  0
 26 46  1  0
 27 47  1  0
 28 48  1  0
M  CHG  1  11  -1
M  END
>  <UniqueID>  (73) 
67

>  <SMILES>  (73) 
COc1cc(CNc2oc([O-])c3ccccc23)ccc1OCc1ccccc1

>  <Energy>  (73) 
85.2718731776949

>  <Genealogy>  (73) 
COc1cc(CNc2oc([O-])c3ccccc23)ccc1OCc1ccccc1 (protonated)
COc1cc(CNc2oc([O-])c3ccccc23)ccc1OCc1ccccc1 (3D coordinates assigned)
COc1cc(CNc2oc([O-])c3ccccc23)ccc1OCc1ccccc1 (optimized conformer: 85.2718731776949 kcal/mol)

>  <smiles>  (73) 
COc1cc(CNc2oc(O)c3ccccc23)ccc1OCc1ccccc1

>  <score_type>  (73) 
oracle

>  <origin>  (73) 
adg

>  <m_score__min__energy>  (73) 
-11.68

>  <m_primary>  (73) 
energy

$$$$
73:0
     RDKit          3D

 42 44  0  0  0  0  0  0  0  0999 V2000
   51.3970   32.7200   50.0690 O   0  0  0  0  0  0  0  0  0  0  0  0
   51.3120   32.3310   51.2630 C   0  0  0  0  0  0  0  0  0  0  0  0
   50.2210   32.7170   52.0330 O   0  0  0  0  0  0  0  0  0  0  0  0
   52.3560   31.4770   51.8430 C   0  0  0  0  0  0  0  0  0  0  0  0
   52.4040   31.0140   53.1550 C   0  0  0  0  0  0  0  0  0  0  0  0
   53.4790   30.2300   53.4370 N   0  0  0  0  0  0  0  0  0  0  0  0
   54.2920   30.0700   52.3610 C   0  0  0  0  0  0  0  0  0  0  0  0
   55.3850   29.3630   52.3310 N   0  0  0  0  0  0  0  0  0  0  0  0
   56.7490   29.8110   52.3740 C   0  0  0  0  0  0  0  0  0  0  0  0
   57.7090   28.9980   52.2970 O   0  0  0  0  0  0  0  0  0  0  0  0
   57.0240   31.2860   52.5760 C   0  0  1  0  0  0  0  0  0  0  0  0
   57.2970   31.5850   54.0500 C   0  0  0  0  0  0  0  0  0  0  0  0
   58.8150   31.5420   54.2260 C   0  0  0  0  0  0  0  0  0  0  0  0
   59.4290   31.5020   52.8270 C   0  0  0  0  0  0  0  0  0  0  0  0
   58.2850   31.7860   51.8510 C   0  0  1  0  0  0  0  0  0  0  0  0
   58.4920   31.2040   50.4610 C   0  0  0  0  0  0  0  0  0  0  0  0
   58.7060   29.9690   50.3300 O   0  0  0  0  0  0  0  0  0  0  0  0
   58.4380   32.0190   49.2810 N   0  0  0  0  0  0  0  0  0  0  0  0
   58.5440   31.6150   48.0460 C   0  0  0  0  0  0  0  0  0  0  0  0
   58.5990   32.5220   46.8800 C   0  0  0  0  0  0  0  0  0  0  0  0
   58.9520   33.8750   47.0180 C   0  0  0  0  0  0  0  0  0  0  0  0
   58.9850   34.7120   45.8990 C   0  0  0  0  0  0  0  0  0  0  0  0
   58.6470   34.2130   44.6400 C   0  0  0  0  0  0  0  0  0  0  0  0
   58.2590   32.8760   44.4980 C   0  0  0  0  0  0  0  0  0  0  0  0
   57.8240   32.2510   42.9180 Cl  0  0  0  0  0  0  0  0  0  0  0  0
   58.2220   32.0360   45.6170 C   0  0  0  0  0  0  0  0  0  0  0  0
   53.6990   30.8830   51.0160 S   0  0  0  0  0  0  0  0  0  0  0  0
   51.6357   31.2619   53.9022 H   0  0  0  0  0  0  0  0  0  0  0  0
   53.6070   29.8010   54.3780 H   0  0  0  0  0  0  0  0  0  0  0  0
   56.1265   31.7844   52.1810 H   0  0  0  0  0  0  0  0  0  0  0  0
   56.9116   32.5810   54.3137 H   0  0  0  0  0  0  0  0  0  0  0  0
   56.7992   30.8537   54.7038 H   0  0  0  0  0  0  0  0  0  0  0  0
   59.1581   32.4386   54.7631 H   0  0  0  0  0  0  0  0  0  0  0  0
   59.1164   30.6606   54.8110 H   0  0  0  0  0  0  0  0  0  0  0  0
   60.2111   32.2696   52.7316 H   0  0  0  0  0  0  0  0  0  0  0  0
   59.8982   30.5283   52.6226 H   0  0  0  0  0  0  0  0  0  0  0  0
   58.2085   32.8580   51.6166 H   0  0  0  0  0  0  0  0  0  0  0  0
   58.5957   30.5321   47.8601 H   0  0  0  0  0  0  0  0  0  0  0  0
   59.2034   34.2771   48.0105 H   0  0  0  0  0  0  0  0  0  0  0  0
   59.2780   35.7663   46.0108 H   0  0  0  0  0  0  0  0  0  0  0  0
   58.6856   34.8709   43.7592 H   0  0  0  0  0  0  0  0  0  0  0  0
   57.8964   30.9911   45.5070 H   0  0  0  0  0  0  0  0  0  0  0  0
  1  2  2  0
  2  3  1  0
  2  4  1  0
  4  5  2  0
  5  6  1  0
  6  7  1  0
  7  8  2  3
  8  9  1  0
  9 10  2  0
  9 11  1  0
 11 12  1  0
 12 13  1  0
 13 14  1  0
 14 15  1  0
 15 16  1  0
 16 17  2  0
 16 18  1  0
 18 19  2  3
 19 20  1  0
 20 21  2  0
 21 22  1  0
 22 23  2  0
 23 24  1  0
 24 25  1  0
 24 26  2  0
  7 27  1  0
 27  4  1  0
 15 11  1  0
 26 20  1  0
  5 28  1  0
  6 29  1  0
 11 30  1  6
 12 31  1  0
 12 32  1  0
 13 33  1  0
 13 34  1  0
 14 35  1  0
 14 36  1  0
 15 37  1  6
 19 38  1  0
 21 39  1  0
 22 40  1  0
 23 41  1  0
 26 42  1  0
M  CHG  1   3  -1
M  END
>  <UniqueID>  (74) 
68

>  <SMILES>  (74) 
O=C([O-])c1c[nH]c(=NC(=O)[C@H]2CCC[C@H]2C(=O)N=Cc2cccc(Cl)c2)s1

>  <Energy>  (74) 
92.82598245782519

>  <Genealogy>  (74) 
O=C([O-])c1c[nH]c(=NC(=O)C2CCCC2C(=O)N=Cc2cccc(Cl)c2)s1 (protonated)
O=C([O-])c1c[nH]c(=NC(=O)[C@H]2CCC[C@H]2C(=O)N=Cc2cccc(Cl)c2)s1 (chirality)
O=C([O-])c1c[nH]c(=NC(=O)[C@H]2CCC[C@H]2C(=O)N=Cc2cccc(Cl)c2)s1 (3D coordinates assigned)
O=C([O-])c1c[nH]c(=NC(=O)[C@H]2CCC[C@H]2C(=O)N=Cc2cccc(Cl)c2)s1 (nonaromatic ring conformer: 92.82598245782519 kcal/mol)

>  <smiles>  (74) 
O=C(O)c1c[nH]c(=NC(=O)C2CCCC2C(=O)N=Cc2cccc(Cl)c2)s1

>  <score_type>  (74) 
oracle

>  <origin>  (74) 
adg

>  <m_score__min__energy>  (74) 
-12.35

>  <m_primary>  (74) 
energy

$$$$
74:0
     RDKit          3D

 63 65  0  0  0  0  0  0  0  0999 V2000
   61.1450   28.9540   44.8900 C   0  0  0  0  0  0  0  0  0  0  0  0
   59.6130   28.9590   44.7880 C   0  0  0  0  0  0  0  0  0  0  0  0
   58.9890   27.6210   44.9100 N   0  0  0  0  0  0  0  0  0  0  0  0
   57.5130   27.6720   44.8650 C   0  0  0  0  0  0  0  0  0  0  0  0
   57.0260   29.1030   44.6950 C   0  0  0  0  0  0  0  0  0  0  0  0
   59.5770   26.7340   46.3050 S   0  0  0  0  0  0  0  0  0  0  0  0
   60.9790   26.2540   46.0510 O   0  0  0  0  0  0  0  0  0  0  0  0
   58.7090   25.5340   46.5700 O   0  0  0  0  0  0  0  0  0  0  0  0
   59.6190   27.7760   47.7270 C   0  0  0  0  0  0  0  0  0  0  0  0
   60.6670   27.6870   48.6550 C   0  0  0  0  0  0  0  0  0  0  0  0
   60.6670   28.4950   49.7960 C   0  0  0  0  0  0  0  0  0  0  0  0
   59.6200   29.4020   50.0180 C   0  0  0  0  0  0  0  0  0  0  0  0
   59.5930   30.4080   51.4640 S   0  0  0  0  0  0  0  0  0  0  0  0
   60.9750   30.9230   51.7560 O   0  0  0  0  0  0  0  0  0  0  0  0
   59.1490   29.5690   52.6300 O   0  0  0  0  0  0  0  0  0  0  0  0
   58.4820   31.7330   51.2690 N   0  0  0  0  0  0  0  0  0  0  0  0
   59.1900   33.0100   51.2090 C   0  0  0  0  0  0  0  0  0  0  0  0
   59.4560   33.3980   49.7850 C   0  0  0  0  0  0  0  0  0  0  0  0
   60.2400   34.3550   49.5380 O   0  0  0  0  0  0  0  0  0  0  0  0
   58.8620   32.6540   48.7120 N   0  0  0  0  0  0  0  0  0  0  0  0
   58.6560   33.1840   47.3910 C   0  0  0  0  0  0  0  0  0  0  0  0
   57.3620   33.5000   46.9350 C   0  0  0  0  0  0  0  0  0  0  0  0
   57.1610   33.9650   45.6320 C   0  0  0  0  0  0  0  0  0  0  0  0
   58.2480   34.1210   44.7660 C   0  0  0  0  0  0  0  0  0  0  0  0
   59.5350   33.7950   45.1990 C   0  0  0  0  0  0  0  0  0  0  0  0
   59.7450   33.3140   46.5030 C   0  0  0  0  0  0  0  0  0  0  0  0
   61.0800   33.0130   46.9370 N   0  0  0  0  0  0  0  0  0  0  0  0
   61.3870   31.6540   47.3820 C   0  0  0  0  0  0  0  0  0  0  0  0
   62.6840   31.6650   48.2060 C   0  0  0  0  0  0  0  0  0  0  0  0
   63.7290   32.3000   47.4900 O   0  0  0  0  0  0  0  0  0  0  0  0
   63.4200   33.6710   47.3130 C   0  0  0  0  0  0  0  0  0  0  0  0
   62.1750   33.8430   46.4270 C   0  0  0  0  0  0  0  0  0  0  0  0
   58.5800   29.4980   49.0830 C   0  0  0  0  0  0  0  0  0  0  0  0
   58.5790   28.6880   47.9450 C   0  0  0  0  0  0  0  0  0  0  0  0
   61.4420   28.9530   45.9492 H   0  0  0  0  0  0  0  0  0  0  0  0
   61.5424   28.0546   44.3970 H   0  0  0  0  0  0  0  0  0  0  0  0
   61.5482   29.8508   44.3970 H   0  0  0  0  0  0  0  0  0  0  0  0
   59.2165   29.5984   45.5905 H   0  0  0  0  0  0  0  0  0  0  0  0
   59.3657   29.3312   43.7828 H   0  0  0  0  0  0  0  0  0  0  0  0
   57.1571   27.0671   44.0180 H   0  0  0  0  0  0  0  0  0  0  0  0
   57.1179   27.2756   45.8120 H   0  0  0  0  0  0  0  0  0  0  0  0
   56.8713   29.5577   45.6846 H   0  0  0  0  0  0  0  0  0  0  0  0
   57.7775   29.6824   44.1387 H   0  0  0  0  0  0  0  0  0  0  0  0
   56.0770   29.1037   44.1387 H   0  0  0  0  0  0  0  0  0  0  0  0
   61.4916   26.9792   48.4845 H   0  0  0  0  0  0  0  0  0  0  0  0
   61.4902   28.4193   50.5217 H   0  0  0  0  0  0  0  0  0  0  0  0
   58.5755   33.7871   51.6870 H   0  0  0  0  0  0  0  0  0  0  0  0
   60.1508   32.9086   51.7350 H   0  0  0  0  0  0  0  0  0  0  0  0
   58.5400   31.6790   48.9150 H   0  0  0  0  0  0  0  0  0  0  0  0
   56.5017   33.3800   47.6098 H   0  0  0  0  0  0  0  0  0  0  0  0
   56.1453   34.2088   45.2870 H   0  0  0  0  0  0  0  0  0  0  0  0
   58.0895   34.4998   43.7455 H   0  0  0  0  0  0  0  0  0  0  0  0
   60.3889   33.9152   44.5161 H   0  0  0  0  0  0  0  0  0  0  0  0
   60.5614   31.2763   48.0030 H   0  0  0  0  0  0  0  0  0  0  0  0
   61.5151   31.0016   46.5057 H   0  0  0  0  0  0  0  0  0  0  0  0
   62.5093   32.2080   49.1465 H   0  0  0  0  0  0  0  0  0  0  0  0
   62.9791   30.6258   48.4134 H   0  0  0  0  0  0  0  0  0  0  0  0
   63.2285   34.1268   48.2956 H   0  0  0  0  0  0  0  0  0  0  0  0
   64.2722   34.1626   46.8209 H   0  0  0  0  0  0  0  0  0  0  0  0
   61.8659   34.8986   46.4337 H   0  0  0  0  0  0  0  0  0  0  0  0
   62.4163   33.5321   45.3998 H   0  0  0  0  0  0  0  0  0  0  0  0
   57.7612   30.2142   49.2462 H   0  0  0  0  0  0  0  0  0  0  0  0
   57.7580   28.7669   47.2172 H   0  0  0  0  0  0  0  0  0  0  0  0
  1  2  1  0
  2  3  1  0
  3  4  1  0
  4  5  1  0
  3  6  1  0
  6  7  2  0
  6  8  2  0
  6  9  1  0
  9 10  2  0
 10 11  1  0
 11 12  2  0
 12 13  1  0
 13 14  2  0
 13 15  2  0
 13 16  1  0
 16 17  1  0
 17 18  1  0
 18 19  2  0
 18 20  1  0
 20 21  1  0
 21 22  2  0
 22 23  1  0
 23 24  2  0
 24 25  1  0
 25 26  2  0
 26 27  1  0
 27 28  1  0
 28 29  1  0
 29 30  1  0
 30 31  1  0
 31 32  1  0
 12 33  1  0
 33 34  2  0
 34  9  1  0
 26 21  1  0
 32 27  1  0
  1 35  1  0
  1 36  1  0
  1 37  1  0
  2 38  1  0
  2 39  1  0
  4 40  1  0
  4 41  1  0
  5 42  1  0
  5 43  1  0
  5 44  1  0
 10 45  1  0
 11 46  1  0
 17 47  1  0
 17 48  1  0
 20 49  1  0
 22 50  1  0
 23 51  1  0
 24 52  1  0
 25 53  1  0
 28 54  1  0
 28 55  1  0
 29 56  1  0
 29 57  1  0
 31 58  1  0
 31 59  1  0
 32 60  1  0
 32 61  1  0
 33 62  1  0
 34 63  1  0
M  CHG  1  16  -1
M  END
>  <UniqueID>  (75) 
69

>  <SMILES>  (75) 
CCN(CC)S(=O)(=O)c1ccc(S(=O)(=O)[N-]CC(=O)Nc2ccccc2N2CCOCC2)cc1

>  <Energy>  (75) 
71.07313456501103

>  <Genealogy>  (75) 
CCN(CC)S(=O)(=O)c1ccc(S(=O)(=O)[N-]CC(=O)Nc2ccccc2N2CCOCC2)cc1 (protonated)
CCN(CC)S(=O)(=O)c1ccc(S(=O)(=O)[N-]CC(=O)Nc2ccccc2N2CCOCC2)cc1 (3D coordinates assigned)
CCN(CC)S(=O)(=O)c1ccc(S(=O)(=O)[N-]CC(=O)Nc2ccccc2N2CCOCC2)cc1 (nonaromatic ring conformer: 71.07313456501103 kcal/mol)

>  <smiles>  (75) 
CCN(CC)S(=O)(=O)c1ccc(S(=O)(=O)NCC(=O)Nc2ccccc2N2CCOCC2)cc1

>  <score_type>  (75) 
oracle

>  <origin>  (75) 
adg

>  <m_score__min__energy>  (75) 
-9.6799999999999997

>  <m_primary>  (75) 
energy

$$$$
75:0
     RDKit          3D

 76 79  0  0  0  0  0  0  0  0999 V2000
   61.0380   29.2800   50.0260 H   0  0  0  0  0  0  0  0  0  0  0  0
   60.7000   29.5210   50.9490 O   0  0  0  0  0  0  0  0  0  0  0  0
   59.7060   30.4810   51.1360 C   0  0  0  0  0  0  0  0  0  0  0  0
   58.3830   30.0790   51.3710 C   0  0  0  0  0  0  0  0  0  0  0  0
   58.1291   29.0087   51.3764 H   0  0  0  0  0  0  0  0  0  0  0  0
   57.3870   31.0300   51.5980 C   0  0  0  0  0  0  0  0  0  0  0  0
   56.3502   30.7080   51.7748 H   0  0  0  0  0  0  0  0  0  0  0  0
   57.7050   32.3900   51.6010 C   0  0  0  0  0  0  0  0  0  0  0  0
   56.9214   33.1374   51.7943 H   0  0  0  0  0  0  0  0  0  0  0  0
   59.0160   32.8010   51.3590 C   0  0  0  0  0  0  0  0  0  0  0  0
   59.2614   33.8732   51.3683 H   0  0  0  0  0  0  0  0  0  0  0  0
   60.0280   31.8560   51.1030 C   0  0  0  0  0  0  0  0  0  0  0  0
   61.4470   32.3240   50.8790 C   0  0  0  0  0  0  0  0  0  0  0  0
   62.1058   31.8138   51.5971 H   0  0  0  0  0  0  0  0  0  0  0  0
   61.4691   33.4147   51.0203 H   0  0  0  0  0  0  0  0  0  0  0  0
   61.9310   32.0280   49.4800 C   0  0  0  0  0  0  0  0  0  0  0  0
   62.2820   30.8460   49.2130 O   0  0  0  0  0  0  0  0  0  0  0  0
   61.9910   33.0050   48.4230 N   0  0  0  0  0  0  0  0  0  0  0  0
   61.0560   33.4060   47.6120 C   0  0  0  0  0  0  0  0  0  0  0  0
   61.2570   34.1400   46.4980 N   0  0  0  0  0  0  0  0  0  0  0  0
   60.1240   34.4510   45.8680 N   0  0  0  0  0  0  0  0  0  0  0  0
   59.0210   33.9460   46.4670 C   0  0  0  0  0  0  0  0  0  0  0  0
   57.6220   34.2260   46.0110 C   0  0  0  0  0  0  0  0  0  0  0  0
   57.6359   35.1160   45.3647 H   0  0  0  0  0  0  0  0  0  0  0  0
   57.0083   34.3800   46.9108 H   0  0  0  0  0  0  0  0  0  0  0  0
   56.9990   33.0600   45.2250 C   0  0  0  0  0  0  0  0  0  0  0  0
   56.0236   33.3881   44.8365 H   0  0  0  0  0  0  0  0  0  0  0  0
   56.9169   32.2153   45.9248 H   0  0  0  0  0  0  0  0  0  0  0  0
   57.8530   32.5700   44.0370 C   0  0  0  0  0  0  0  0  0  0  0  0
   58.8673   32.9798   44.1520 H   0  0  0  0  0  0  0  0  0  0  0  0
   57.3463   32.9189   43.1251 H   0  0  0  0  0  0  0  0  0  0  0  0
   57.9650   31.0420   43.9140 C   0  0  0  0  0  0  0  0  0  0  0  0
   58.7581   30.8035   43.1901 H   0  0  0  0  0  0  0  0  0  0  0  0
   56.9877   30.6606   43.5832 H   0  0  0  0  0  0  0  0  0  0  0  0
   58.2930   30.3830   45.2220 C   0  0  0  0  0  0  0  0  0  0  0  0
   57.3870   29.7260   45.9840 N   0  0  0  0  0  0  0  0  0  0  0  0
   57.9080   29.1950   47.0890 N   0  0  0  0  0  0  0  0  0  0  0  0
   59.2330   29.4260   47.2140 C   0  0  0  0  0  0  0  0  0  0  0  0
   59.9140   28.9890   48.2320 N   0  0  0  0  0  0  0  0  0  0  0  0
   60.4030   27.6540   48.4320 C   0  0  0  0  0  0  0  0  0  0  0  0
   60.5340   27.2260   49.6100 O   0  0  0  0  0  0  0  0  0  0  0  0
   60.6820   26.7250   47.2840 C   0  0  0  0  0  0  0  0  0  0  0  0
   61.0731   25.7746   47.6762 H   0  0  0  0  0  0  0  0  0  0  0  0
   61.4199   27.1981   46.6194 H   0  0  0  0  0  0  0  0  0  0  0  0
   59.4280   26.4550   46.4970 C   0  0  0  0  0  0  0  0  0  0  0  0
   59.2640   27.0100   45.2200 C   0  0  0  0  0  0  0  0  0  0  0  0
   60.0572   27.6400   44.7911 H   0  0  0  0  0  0  0  0  0  0  0  0
   58.0990   26.7670   44.4900 C   0  0  0  0  0  0  0  0  0  0  0  0
   57.9891   27.1825   43.4774 H   0  0  0  0  0  0  0  0  0  0  0  0
   57.0720   25.9970   45.0430 C   0  0  0  0  0  0  0  0  0  0  0  0
   56.1560   25.8082   44.4639 H   0  0  0  0  0  0  0  0  0  0  0  0
   57.2050   25.4640   46.3340 C   0  0  0  0  0  0  0  0  0  0  0  0
   56.0750   24.6830   46.9530 C   0  0  0  0  0  0  0  0  0  0  0  0
   55.7405   25.1935   47.8681 H   0  0  0  0  0  0  0  0  0  0  0  0
   56.4312   23.6704   47.1932 H   0  0  0  0  0  0  0  0  0  0  0  0
   54.9550   24.5820   46.0220 N   0  0  0  0  0  0  0  0  0  0  0  0
   54.6850   23.4260   45.2240 C   0  0  0  0  0  0  0  0  0  0  0  0
   53.5600   23.2860   44.6730 O   0  0  0  0  0  0  0  0  0  0  0  0
   55.7010   22.4770   45.0430 O   0  0  0  0  0  0  0  0  0  0  0  0
   56.6740   22.4690   43.9870 C   0  0  0  0  0  0  0  0  0  0  0  0
   56.6660   21.1150   43.2520 C   0  0  0  0  0  0  0  0  0  0  0  0
   56.6612   20.2980   43.9885 H   0  0  0  0  0  0  0  0  0  0  0  0
   55.7674   21.0454   42.6213 H   0  0  0  0  0  0  0  0  0  0  0  0
   57.5637   21.0348   42.6213 H   0  0  0  0  0  0  0  0  0  0  0  0
   58.0780   22.7780   44.5430 C   0  0  0  0  0  0  0  0  0  0  0  0
   58.0466   22.7711   45.6425 H   0  0  0  0  0  0  0  0  0  0  0  0
   58.7877   22.0146   44.1916 H   0  0  0  0  0  0  0  0  0  0  0  0
   58.4016   23.7689   44.1916 H   0  0  0  0  0  0  0  0  0  0  0  0
   56.2820   23.5730   42.9920 C   0  0  0  0  0  0  0  0  0  0  0  0
   55.9639   24.4690   43.5451 H   0  0  0  0  0  0  0  0  0  0  0  0
   57.1472   23.8206   42.3594 H   0  0  0  0  0  0  0  0  0  0  0  0
   55.4544   23.2195   42.3594 H   0  0  0  0  0  0  0  0  0  0  0  0
   58.3910   25.6880   47.0500 C   0  0  0  0  0  0  0  0  0  0  0  0
   58.5091   25.2578   48.0555 H   0  0  0  0  0  0  0  0  0  0  0  0
   59.8190   30.3650   45.9350 S   0  0  0  0  0  0  0  0  0  0  0  0
   59.4240   33.0890   47.8620 S   0  0  0  0  0  0  0  0  0  0  0  0
  1  2  1  0
  2  3  1  0
  3  4  2  0
  4  5  1  0
  4  6  1  0
  6  7  1  0
  6  8  2  0
  8  9  1  0
  8 10  1  0
 10 11  1  0
 10 12  2  0
 12 13  1  0
 13 14  1  0
 13 15  1  0
 13 16  1  0
 16 17  2  0
 16 18  1  0
 18 19  2  3
 19 20  1  0
 20 21  1  0
 21 22  2  0
 22 23  1  0
 23 24  1  0
 23 25  1  0
 23 26  1  0
 26 27  1  0
 26 28  1  0
 26 29  1  0
 29 30  1  0
 29 31  1  0
 29 32  1  0
 32 33  1  0
 32 34  1  0
 32 35  1  0
 35 36  2  0
 36 37  1  0
 37 38  1  0
 38 39  2  0
 39 40  1  0
 40 41  2  0
 40 42  1  0
 42 43  1  0
 42 44  1  0
 42 45  1  0
 45 46  2  0
 46 47  1  0
 46 48  1  0
 48 49  1  0
 48 50  2  0
 50 51  1  0
 50 52  1  0
 52 53  1  0
 53 54  1  0
 53 55  1  0
 53 56  1  0
 56 57  1  0
 57 58  2  0
 57 59  1  0
 59 60  1  0
 60 61  1  0
 61 62  1  0
 61 63  1  0
 61 64  1  0
 60 65  1  0
 65 66  1  0
 65 67  1  0
 65 68  1  0
 60 69  1  0
 69 70  1  0
 69 71  1  0
 69 72  1  0
 52 73  2  0
 73 74  1  0
 38 75  1  0
 22 76  1  0
 12  3  1  0
 76 19  1  0
 75 35  1  0
 73 45  1  0
M  CHG  3  20  -1  37  -1  56  -1
M  END
>  <UniqueID>  (76) 
70

>  <SMILES>  (76) 
CC(C)(C)OC(=O)[N-]Cc1cccc(CC(=O)/N=c2/[n-]nc(CCCCc3n[n-]c(=NC(=O)Cc4ccccc4O)s3)s2)c1

>  <Energy>  (76) 
140.03476775631586

>  <Genealogy>  (76) 
CC(C)(C)OC(=O)[N-]Cc1cccc(CC(=O)N=c2[n-]nc(CCCCc3n[n-]c(=NC(=O)Cc4ccccc4O)s3)s2)c1 (protonated)
CC(C)(C)OC(=O)[N-]Cc1cccc(CC(=O)/N=c2/[n-]nc(CCCCc3n[n-]c(=NC(=O)Cc4ccccc4O)s3)s2)c1 (cis-trans isomerization)
CC(C)(C)OC(=O)[N-]Cc1cccc(CC(=O)/N=c2/[n-]nc(CCCCc3n[n-]c(=NC(=O)Cc4ccccc4O)s3)s2)c1 (3D coordinates assigned)
CC(C)(C)OC(=O)[N-]Cc1cccc(CC(=O)/N=c2/[n-]nc(CCCCc3n[n-]c(=NC(=O)Cc4ccccc4O)s3)s2)c1 (optimized conformer: 140.03476775631586 kcal/mol)

>  <smiles>  (76) 
CC(C)(C)OC(=O)NCc1cccc(CC(=O)N=c2[nH]nc(CCCCc3n[nH]c(=NC(=O)Cc4ccccc4O)s3)s2)c1

>  <score_type>  (76) 
oracle

>  <origin>  (76) 
adg

>  <m_score__min__energy>  (76) 
-16.640000000000001

>  <m_primary>  (76) 
energy

$$$$
76:0
     RDKit          3D

 45 47  0  0  0  0  0  0  0  0999 V2000
   55.2170   29.2380   45.0130 O   0  0  0  0  0  0  0  0  0  0  0  0
   56.4470   29.0710   44.7930 C   0  0  0  0  0  0  0  0  0  0  0  0
   57.0360   29.5310   43.4950 C   0  0  0  0  0  0  0  0  0  0  0  0
   56.7490   31.0130   43.2280 C   0  0  0  0  0  0  0  0  0  0  0  0
   57.5550   31.9280   44.1180 C   0  0  0  0  0  0  0  0  0  0  0  0
   58.1250   33.1020   43.5990 C   0  0  0  0  0  0  0  0  0  0  0  0
   58.8700   33.9490   44.4230 C   0  0  0  0  0  0  0  0  0  0  0  0
   59.0420   33.6440   45.7780 C   0  0  0  0  0  0  0  0  0  0  0  0
   59.9410   34.7540   46.8070 S   0  0  0  0  0  0  0  0  0  0  0  0
   59.9510   36.1090   46.1570 O   0  0  0  0  0  0  0  0  0  0  0  0
   59.2990   34.8910   48.1610 O   0  0  0  0  0  0  0  0  0  0  0  0
   61.5790   34.2070   46.9850 N   0  0  0  0  0  0  0  0  0  0  0  0
   62.0830   33.2390   47.9190 C   0  0  0  0  0  0  0  0  0  0  0  0
   61.1500   32.4240   48.5770 C   0  0  0  0  0  0  0  0  0  0  0  0
   61.5710   31.4450   49.4820 C   0  0  0  0  0  0  0  0  0  0  0  0
   62.9310   31.2670   49.7350 C   0  0  0  0  0  0  0  0  0  0  0  0
   63.8700   32.0780   49.0970 C   0  0  0  0  0  0  0  0  0  0  0  0
   63.4560   33.0740   48.2040 C   0  0  0  0  0  0  0  0  0  0  0  0
   64.4020   33.8780   47.6640 F   0  0  0  0  0  0  0  0  0  0  0  0
   58.4680   32.4770   46.3040 C   0  0  0  0  0  0  0  0  0  0  0  0
   57.7350   31.6210   45.4770 C   0  0  0  0  0  0  0  0  0  0  0  0
   57.2640   28.3320   45.7120 N   0  0  0  0  0  0  0  0  0  0  0  0
   57.4250   27.0420   45.8380 C   0  0  0  0  0  0  0  0  0  0  0  0
   58.7020   26.5750   45.9130 N   0  0  0  0  0  0  0  0  0  0  0  0
   58.9970   25.2530   46.0090 C   0  0  0  0  0  0  0  0  0  0  0  0
   57.9730   24.3110   46.0290 C   0  0  0  0  0  0  0  0  0  0  0  0
   56.6490   24.7450   45.9990 C   0  0  0  0  0  0  0  0  0  0  0  0
   56.3530   26.1130   45.9290 C   0  0  0  0  0  0  0  0  0  0  0  0
   55.0230   26.5200   46.0010 O   0  0  0  0  0  0  0  0  0  0  0  0
   58.1252   29.3800   43.5258 H   0  0  0  0  0  0  0  0  0  0  0  0
   56.5760   28.9445   42.6861 H   0  0  0  0  0  0  0  0  0  0  0  0
   56.9935   31.2361   42.1790 H   0  0  0  0  0  0  0  0  0  0  0  0
   55.6848   31.1910   43.4422 H   0  0  0  0  0  0  0  0  0  0  0  0
   57.9840   33.3559   42.5380 H   0  0  0  0  0  0  0  0  0  0  0  0
   59.3235   34.8598   44.0049 H   0  0  0  0  0  0  0  0  0  0  0  0
   60.0761   32.5565   48.3789 H   0  0  0  0  0  0  0  0  0  0  0  0
   60.8293   30.8149   49.9947 H   0  0  0  0  0  0  0  0  0  0  0  0
   63.2630   30.4879   50.4370 H   0  0  0  0  0  0  0  0  0  0  0  0
   64.9421   31.9341   49.2967 H   0  0  0  0  0  0  0  0  0  0  0  0
   58.5950   32.2350   47.3695 H   0  0  0  0  0  0  0  0  0  0  0  0
   57.2966   30.7018   45.8927 H   0  0  0  0  0  0  0  0  0  0  0  0
   60.0457   24.9267   46.0710 H   0  0  0  0  0  0  0  0  0  0  0  0
   58.2058   23.2366   46.0680 H   0  0  0  0  0  0  0  0  0  0  0  0
   55.8316   24.0096   46.0304 H   0  0  0  0  0  0  0  0  0  0  0  0
   54.7680   27.4780   46.2110 H   0  0  0  0  0  0  0  0  0  0  0  0
  1  2  2  0
  2  3  1  0
  3  4  1  0
  4  5  1  0
  5  6  2  0
  6  7  1  0
  7  8  2  0
  8  9  1  0
  9 10  2  0
  9 11  2  0
  9 12  1  0
 12 13  1  0
 13 14  2  0
 14 15  1  0
 15 16  2  0
 16 17  1  0
 17 18  2  0
 18 19  1  0
  8 20  1  0
 20 21  2  0
  2 22  1  0
 22 23  2  3
 23 24  1  0
 24 25  1  0
 25 26  2  0
 26 27  1  0
 27 28  2  0
 28 29  1  0
 21  5  1  0
 28 23  1  0
 18 13  1  0
  3 30  1  0
  3 31  1  0
  4 32  1  0
  4 33  1  0
  6 34  1  0
  7 35  1  0
 14 36  1  0
 15 37  1  0
 16 38  1  0
 17 39  1  0
 20 40  1  0
 21 41  1  0
 25 42  1  0
 26 43  1  0
 27 44  1  0
 29 45  1  0
M  CHG  2  12  -1  24  -1
M  END
>  <UniqueID>  (77) 
71

>  <SMILES>  (77) 
O=C(CCc1ccc(S(=O)(=O)[N-]c2ccccc2F)cc1)N=c1[n-]cccc1O

>  <Energy>  (77) 
58.834691817353686

>  <Genealogy>  (77) 
O=C(CCc1ccc(S(=O)(=O)[N-]c2ccccc2F)cc1)N=c1[n-]cccc1O (protonated)
O=C(CCc1ccc(S(=O)(=O)[N-]c2ccccc2F)cc1)N=c1[n-]cccc1O (3D coordinates assigned)
O=C(CCc1ccc(S(=O)(=O)[N-]c2ccccc2F)cc1)N=c1[n-]cccc1O (optimized conformer: 58.834691817353686 kcal/mol)

>  <smiles>  (77) 
O=C(CCc1ccc(S(=O)(=O)Nc2ccccc2F)cc1)N=c1[nH]cccc1O

>  <score_type>  (77) 
oracle

>  <origin>  (77) 
adg

>  <m_score__min__energy>  (77) 
-12.65

>  <m_primary>  (77) 
energy

$$$$
77:0
     RDKit          3D

 38 39  0  0  0  0  0  0  0  0999 V2000
   55.1570   29.2680   44.8480 N   0  0  0  0  0  0  0  0  0  0  0  0
   56.5960   30.1510   44.4780 S   0  0  0  0  0  0  0  0  0  0  0  0
   57.0620   29.7610   43.1020 O   0  0  0  0  0  0  0  0  0  0  0  0
   56.3020   31.6240   44.5050 O   0  0  0  0  0  0  0  0  0  0  0  0
   57.8470   29.7820   45.6610 C   0  0  0  0  0  0  0  0  0  0  0  0
   58.9700   30.6120   45.7770 C   0  0  0  0  0  0  0  0  0  0  0  0
   59.9700   30.3170   46.7080 C   0  0  0  0  0  0  0  0  0  0  0  0
   59.8560   29.1970   47.5410 C   0  0  0  0  0  0  0  0  0  0  0  0
   60.9180   28.9160   48.4640 N   0  0  0  0  0  0  0  0  0  0  0  0
   60.7890   28.3460   49.7720 C   0  0  0  0  0  0  0  0  0  0  0  0
   61.0620   27.1320   49.9780 O   0  0  0  0  0  0  0  0  0  0  0  0
   60.2390   29.1800   50.8800 C   0  0  0  0  0  0  0  0  0  0  0  0
   60.6990   30.5170   50.7280 O   0  0  0  0  0  0  0  0  0  0  0  0
   59.9610   31.5060   50.0720 C   0  0  0  0  0  0  0  0  0  0  0  0
   58.7930   31.2710   49.6590 O   0  0  0  0  0  0  0  0  0  0  0  0
   60.5910   32.8370   49.8160 C   0  0  0  0  0  0  0  0  0  0  0  0
   60.2260   33.3230   48.4350 C   0  0  0  0  0  0  0  0  0  0  0  0
   58.8860   33.6510   48.1590 C   0  0  0  0  0  0  0  0  0  0  0  0
   58.5080   34.0710   46.8810 C   0  0  0  0  0  0  0  0  0  0  0  0
   59.4570   34.1570   45.8630 C   0  0  0  0  0  0  0  0  0  0  0  0
   60.7890   33.8210   46.1180 C   0  0  0  0  0  0  0  0  0  0  0  0
   61.1810   33.4000   47.3940 C   0  0  0  0  0  0  0  0  0  0  0  0
   62.8710   32.9750   47.6430 Cl  0  0  0  0  0  0  0  0  0  0  0  0
   58.7420   28.3480   47.4030 C   0  0  0  0  0  0  0  0  0  0  0  0
   57.7420   28.6440   46.4700 C   0  0  0  0  0  0  0  0  0  0  0  0
   55.3910   28.6190   45.6320 H   0  0  0  0  0  0  0  0  0  0  0  0
   59.0649   31.4988   45.1332 H   0  0  0  0  0  0  0  0  0  0  0  0
   60.8525   30.9690   46.7869 H   0  0  0  0  0  0  0  0  0  0  0  0
   59.1397   29.1622   50.8438 H   0  0  0  0  0  0  0  0  0  0  0  0
   60.5758   28.7798   51.8477 H   0  0  0  0  0  0  0  0  0  0  0  0
   60.2320   33.5599   50.5634 H   0  0  0  0  0  0  0  0  0  0  0  0
   61.6843   32.7390   49.8873 H   0  0  0  0  0  0  0  0  0  0  0  0
   58.1305   33.5763   48.9550 H   0  0  0  0  0  0  0  0  0  0  0  0
   57.4595   34.3343   46.6776 H   0  0  0  0  0  0  0  0  0  0  0  0
   59.1567   34.4896   44.8584 H   0  0  0  0  0  0  0  0  0  0  0  0
   61.5339   33.8877   45.3113 H   0  0  0  0  0  0  0  0  0  0  0  0
   58.6571   27.4487   48.0307 H   0  0  0  0  0  0  0  0  0  0  0  0
   56.8703   27.9803   46.3718 H   0  0  0  0  0  0  0  0  0  0  0  0
  1  2  1  0
  2  3  2  0
  2  4  2  0
  2  5  1  0
  5  6  2  0
  6  7  1  0
  7  8  2  0
  8  9  1  0
  9 10  1  0
 10 11  2  0
 10 12  1  0
 12 13  1  0
 13 14  1  0
 14 15  2  0
 14 16  1  0
 16 17  1  0
 17 18  2  0
 18 19  1  0
 19 20  2  0
 20 21  1  0
 21 22  2  0
 22 23  1  0
  8 24  1  0
 24 25  2  0
 25  5  1  0
 22 17  1  0
  1 26  1  0
  6 27  1  0
  7 28  1  0
 12 29  1  0
 12 30  1  0
 16 31  1  0
 16 32  1  0
 18 33  1  0
 19 34  1  0
 20 35  1  0
 21 36  1  0
 24 37  1  0
 25 38  1  0
M  CHG  2   1  -1   9  -1
M  END
>  <UniqueID>  (78) 
72

>  <SMILES>  (78) 
[NH-]S(=O)(=O)c1ccc([N-]C(=O)COC(=O)Cc2ccccc2Cl)cc1

>  <Energy>  (78) 
37.00814588053765

>  <Genealogy>  (78) 
[NH-]S(=O)(=O)c1ccc([N-]C(=O)COC(=O)Cc2ccccc2Cl)cc1 (protonated)
[NH-]S(=O)(=O)c1ccc([N-]C(=O)COC(=O)Cc2ccccc2Cl)cc1 (3D coordinates assigned)
[NH-]S(=O)(=O)c1ccc([N-]C(=O)COC(=O)Cc2ccccc2Cl)cc1 (optimized conformer: 37.00814588053765 kcal/mol)

>  <smiles>  (78) 
NS(=O)(=O)c1ccc(NC(=O)COC(=O)Cc2ccccc2Cl)cc1

>  <score_type>  (78) 
oracle

>  <origin>  (78) 
adg

>  <m_score__min__energy>  (78) 
-11.380000000000001

>  <m_primary>  (78) 
energy

$$$$
78:0
     RDKit          3D

 52 55  0  0  0  0  0  0  0  0999 V2000
   57.3930   31.5720   43.4530 C   0  0  0  0  0  0  0  0  0  0  0  0
   58.0000   31.7160   44.8160 C   0  0  0  0  0  0  0  0  0  0  0  0
   58.3340   32.9040   45.4680 C   0  0  0  0  0  0  0  0  0  0  0  0
   58.2330   34.2740   44.8620 C   0  0  0  0  0  0  0  0  0  0  0  0
   58.8510   32.6390   46.7000 N   0  0  0  0  0  0  0  0  0  0  0  0
   59.4120   33.6130   47.6450 C   0  0  0  0  0  0  0  0  0  0  0  0
   60.9170   33.5730   47.6060 C   0  0  0  0  0  0  0  0  0  0  0  0
   61.6000   33.8570   46.4110 C   0  0  0  0  0  0  0  0  0  0  0  0
   62.9960   33.8480   46.3790 C   0  0  0  0  0  0  0  0  0  0  0  0
   63.7230   33.5570   47.5360 C   0  0  0  0  0  0  0  0  0  0  0  0
   63.0530   33.2730   48.7310 C   0  0  0  0  0  0  0  0  0  0  0  0
   63.9650   32.9120   50.1830 Cl  0  0  0  0  0  0  0  0  0  0  0  0
   61.6540   33.2810   48.7660 C   0  0  0  0  0  0  0  0  0  0  0  0
   58.8200   31.2930   46.8330 C   0  0  0  0  0  0  0  0  0  0  0  0
   59.2400   30.5210   47.9210 C   0  0  0  0  0  0  0  0  0  0  0  0
   59.1090   29.1250   47.8400 C   0  0  0  0  0  0  0  0  0  0  0  0
   58.5710   28.5100   46.6790 C   0  0  0  0  0  0  0  0  0  0  0  0
   58.4220   27.0380   46.5970 C   0  0  0  0  0  0  0  0  0  0  0  0
   57.4230   26.4860   47.1330 O   0  0  0  0  0  0  0  0  0  0  0  0
   59.3890   26.2330   45.9030 N   0  0  0  0  0  0  0  0  0  0  0  0
   59.4100   24.7760   46.0090 C   0  0  0  0  0  0  0  0  0  0  0  0
   58.3920   24.1740   45.0800 C   0  0  0  0  0  0  0  0  0  0  0  0
   58.2360   22.7800   44.9950 C   0  0  0  0  0  0  0  0  0  0  0  0
   57.3060   22.2290   44.1080 C   0  0  0  0  0  0  0  0  0  0  0  0
   56.5300   23.0620   43.2980 C   0  0  0  0  0  0  0  0  0  0  0  0
   56.6850   24.4500   43.3710 C   0  0  0  0  0  0  0  0  0  0  0  0
   57.6140   25.0050   44.2570 C   0  0  0  0  0  0  0  0  0  0  0  0
   58.1500   29.3200   45.6000 C   0  0  0  0  0  0  0  0  0  0  0  0
   58.2960   30.7030   45.7100 C   0  0  0  0  0  0  0  0  0  0  0  0
   56.3270   31.3191   43.5512 H   0  0  0  0  0  0  0  0  0  0  0  0
   57.4960   32.5195   42.9038 H   0  0  0  0  0  0  0  0  0  0  0  0
   57.9106   30.7717   42.9038 H   0  0  0  0  0  0  0  0  0  0  0  0
   58.1776   35.0260   45.6629 H   0  0  0  0  0  0  0  0  0  0  0  0
   59.1194   34.4659   44.2396 H   0  0  0  0  0  0  0  0  0  0  0  0
   57.3280   34.3338   44.2396 H   0  0  0  0  0  0  0  0  0  0  0  0
   59.0687   34.6219   47.3726 H   0  0  0  0  0  0  0  0  0  0  0  0
   59.0738   33.3611   48.6610 H   0  0  0  0  0  0  0  0  0  0  0  0
   61.0326   34.0873   45.4972 H   0  0  0  0  0  0  0  0  0  0  0  0
   63.5247   34.0706   45.4404 H   0  0  0  0  0  0  0  0  0  0  0  0
   64.8226   33.5512   47.5074 H   0  0  0  0  0  0  0  0  0  0  0  0
   61.1288   33.0576   49.7063 H   0  0  0  0  0  0  0  0  0  0  0  0
   59.6628   30.9958   48.8187 H   0  0  0  0  0  0  0  0  0  0  0  0
   59.4274   28.4999   48.6873 H   0  0  0  0  0  0  0  0  0  0  0  0
   60.0790   26.6860   45.2620 H   0  0  0  0  0  0  0  0  0  0  0  0
   60.4106   24.4063   45.7405 H   0  0  0  0  0  0  0  0  0  0  0  0
   59.1684   24.4873   47.0426 H   0  0  0  0  0  0  0  0  0  0  0  0
   58.8474   22.1202   45.6282 H   0  0  0  0  0  0  0  0  0  0  0  0
   57.1851   21.1373   44.0478 H   0  0  0  0  0  0  0  0  0  0  0  0
   55.7972   22.6261   42.6030 H   0  0  0  0  0  0  0  0  0  0  0  0
   56.0759   25.1055   42.7312 H   0  0  0  0  0  0  0  0  0  0  0  0
   57.7359   26.0970   44.3096 H   0  0  0  0  0  0  0  0  0  0  0  0
   57.7172   28.8702   44.6943 H   0  0  0  0  0  0  0  0  0  0  0  0
  1  2  1  0
  2  3  2  0
  3  4  1  0
  3  5  1  0
  5  6  1  0
  6  7  1  0
  7  8  2  0
  8  9  1  0
  9 10  2  0
 10 11  1  0
 11 12  1  0
 11 13  2  0
  5 14  1  0
 14 15  2  0
 15 16  1  0
 16 17  2  0
 17 18  1  0
 18 19  2  0
 18 20  1  0
 20 21  1  0
 21 22  1  0
 22 23  2  0
 23 24  1  0
 24 25  2  0
 25 26  1  0
 26 27  2  0
 17 28  1  0
 28 29  2  0
 29  2  1  0
 13  7  1  0
 29 14  1  0
 27 22  1  0
  1 30  1  0
  1 31  1  0
  1 32  1  0
  4 33  1  0
  4 34  1  0
  4 35  1  0
  6 36  1  0
  6 37  1  0
  8 38  1  0
  9 39  1  0
 10 40  1  0
 13 41  1  0
 15 42  1  0
 16 43  1  0
 20 44  1  0
 21 45  1  0
 21 46  1  0
 23 47  1  0
 24 48  1  0
 25 49  1  0
 26 50  1  0
 27 51  1  0
 28 52  1  0
M  END
>  <UniqueID>  (79) 
73

>  <SMILES>  (79) 
Cc1c(C)n(Cc2cccc(Cl)c2)c2ccc(C(=O)NCc3ccccc3)cc12

>  <Energy>  (79) 
87.58986908976391

>  <Genealogy>  (79) 
Cc1c(C)n(Cc2cccc(Cl)c2)c2ccc(C(=O)NCc3ccccc3)cc12 (3D coordinates assigned)
Cc1c(C)n(Cc2cccc(Cl)c2)c2ccc(C(=O)NCc3ccccc3)cc12 (optimized conformer: 87.58986908976391 kcal/mol)

>  <smiles>  (79) 
Cc1c(C)n(Cc2cccc(Cl)c2)c2ccc(C(=O)NCc3ccccc3)cc12

>  <score_type>  (79) 
oracle

>  <origin>  (79) 
adg

>  <m_score__min__energy>  (79) 
-9.1999999999999993

>  <m_primary>  (79) 
energy

$$$$
79:0
     RDKit          3D

 54 58  0  0  0  0  0  0  0  0999 V2000
   60.7750   34.5570   47.8970 O   0  0  0  0  0  0  0  0  0  0  0  0
   59.9000   33.6480   47.9120 C   0  0  0  0  0  0  0  0  0  0  0  0
   59.7860   32.7860   49.0560 N   0  0  0  0  0  0  0  0  0  0  0  0
   60.5610   32.9980   50.2760 C   0  0  0  0  0  0  0  0  0  0  0  0
   62.0320   32.9110   49.9750 C   0  0  0  0  0  0  0  0  0  0  0  0
   62.9540   33.7020   50.6820 C   0  0  0  0  0  0  0  0  0  0  0  0
   64.3170   33.6330   50.3780 C   0  0  0  0  0  0  0  0  0  0  0  0
   64.7680   32.7830   49.3620 C   0  0  0  0  0  0  0  0  0  0  0  0
   63.8550   32.0010   48.6490 C   0  0  0  0  0  0  0  0  0  0  0  0
   62.4900   32.0670   48.9490 C   0  0  0  0  0  0  0  0  0  0  0  0
   59.0280   33.4610   46.7290 C   0  0  0  0  0  0  0  0  0  0  0  0
   58.6190   34.5920   46.0000 C   0  0  0  0  0  0  0  0  0  0  0  0
   57.8100   34.4540   44.8730 C   0  0  0  0  0  0  0  0  0  0  0  0
   57.3930   33.1900   44.4630 C   0  0  0  0  0  0  0  0  0  0  0  0
   57.7740   32.0540   45.1860 C   0  0  0  0  0  0  0  0  0  0  0  0
   58.5830   32.1790   46.3340 C   0  0  0  0  0  0  0  0  0  0  0  0
   58.9400   31.0660   47.1160 O   0  0  0  0  0  0  0  0  0  0  0  0
   58.6170   29.7210   46.8820 C   0  0  0  0  0  0  0  0  0  0  0  0
   59.0920   28.7630   47.7850 C   0  0  0  0  0  0  0  0  0  0  0  0
   58.8050   27.4080   47.6030 C   0  0  0  0  0  0  0  0  0  0  0  0
   58.0380   26.9850   46.5050 C   0  0  0  0  0  0  0  0  0  0  0  0
   57.7330   25.5870   46.3200 N   0  0  0  0  0  0  0  0  0  0  0  0
   57.0180   24.8580   47.3790 C   0  0  0  0  0  0  0  0  0  0  0  0
   56.4680   23.5160   46.8890 C   0  0  0  0  0  0  0  0  0  0  0  0
   55.4940   23.7400   45.3600 S   0  0  0  0  0  0  0  0  0  0  0  0
   56.7920   24.5110   44.3100 C   0  0  0  0  0  0  0  0  0  0  0  0
   58.0660   24.9120   45.0590 C   0  0  0  0  0  0  0  0  0  0  0  0
   57.5560   27.9470   45.6010 C   0  0  0  0  0  0  0  0  0  0  0  0
   57.8430   29.3050   45.7870 C   0  0  0  0  0  0  0  0  0  0  0  0
   57.2240   30.4820   44.6600 S   0  0  0  0  0  0  0  0  0  0  0  0
   55.7220   30.4430   44.6600 O   0  0  0  0  0  0  0  0  0  0  0  0
   57.7550   30.1940   43.2830 O   0  0  0  0  0  0  0  0  0  0  0  0
   59.2190   31.9110   48.9850 H   0  0  0  0  0  0  0  0  0  0  0  0
   60.3314   33.9931   50.6847 H   0  0  0  0  0  0  0  0  0  0  0  0
   60.2970   32.2223   51.0098 H   0  0  0  0  0  0  0  0  0  0  0  0
   62.6024   34.3769   51.4763 H   0  0  0  0  0  0  0  0  0  0  0  0
   65.0362   34.2481   50.9386 H   0  0  0  0  0  0  0  0  0  0  0  0
   65.8408   32.7303   49.1246 H   0  0  0  0  0  0  0  0  0  0  0  0
   64.2101   31.3326   47.8508 H   0  0  0  0  0  0  0  0  0  0  0  0
   61.7733   31.4565   48.3801 H   0  0  0  0  0  0  0  0  0  0  0  0
   58.9400   35.5937   46.3217 H   0  0  0  0  0  0  0  0  0  0  0  0
   57.5006   35.3448   44.3067 H   0  0  0  0  0  0  0  0  0  0  0  0
   56.7622   33.0843   43.5681 H   0  0  0  0  0  0  0  0  0  0  0  0
   59.6975   29.0802   48.6468 H   0  0  0  0  0  0  0  0  0  0  0  0
   59.1820   26.6678   48.3240 H   0  0  0  0  0  0  0  0  0  0  0  0
   57.7121   24.6732   48.2121 H   0  0  0  0  0  0  0  0  0  0  0  0
   56.1653   25.4759   47.6970 H   0  0  0  0  0  0  0  0  0  0  0  0
   57.3068   22.8338   46.6866 H   0  0  0  0  0  0  0  0  0  0  0  0
   55.8145   23.0952   47.6673 H   0  0  0  0  0  0  0  0  0  0  0  0
   57.0683   23.7928   43.5240 H   0  0  0  0  0  0  0  0  0  0  0  0
   56.3589   25.4411   43.9134 H   0  0  0  0  0  0  0  0  0  0  0  0
   58.6565   24.0099   45.2768 H   0  0  0  0  0  0  0  0  0  0  0  0
   58.6454   25.6029   44.4290 H   0  0  0  0  0  0  0  0  0  0  0  0
   56.9484   27.6307   44.7403 H   0  0  0  0  0  0  0  0  0  0  0  0
  1  2  2  0
  2  3  1  0
  3  4  1  0
  4  5  1  0
  5  6  2  0
  6  7  1  0
  7  8  2  0
  8  9  1  0
  9 10  2  0
  2 11  1  0
 11 12  2  0
 12 13  1  0
 13 14  2  0
 14 15  1  0
 15 16  2  0
 16 17  1  0
 17 18  1  0
 18 19  2  0
 19 20  1  0
 20 21  2  0
 21 22  1  0
 22 23  1  0
 23 24  1  0
 24 25  1  0
 25 26  1  0
 26 27  1  0
 21 28  1  0
 28 29  2  0
 29 30  1  0
 30 31  2  0
 30 32  2  0
 10  5  1  0
 16 11  1  0
 29 18  1  0
 30 15  1  0
 27 22  1  0
  3 33  1  0
  4 34  1  0
  4 35  1  0
  6 36  1  0
  7 37  1  0
  8 38  1  0
  9 39  1  0
 10 40  1  0
 12 41  1  0
 13 42  1  0
 14 43  1  0
 19 44  1  0
 20 45  1  0
 23 46  1  0
 23 47  1  0
 24 48  1  0
 24 49  1  0
 26 50  1  0
 26 51  1  0
 27 52  1  0
 27 53  1  0
 28 54  1  0
M  END
>  <UniqueID>  (80) 
74

>  <SMILES>  (80) 
O=C(NCc1ccccc1)c1cccc2c1Oc1ccc(N3CCSCC3)cc1S2(=O)=O

>  <Energy>  (80) 
71.75558012297361

>  <Genealogy>  (80) 
O=C(NCc1ccccc1)c1cccc2c1Oc1ccc(N3CCSCC3)cc1S2(=O)=O (3D coordinates assigned)
O=C(NCc1ccccc1)c1cccc2c1Oc1ccc(N3CCSCC3)cc1S2(=O)=O (nonaromatic ring conformer: 71.75558012297361 kcal/mol)

>  <smiles>  (80) 
O=C(NCc1ccccc1)c1cccc2c1Oc1ccc(N3CCSCC3)cc1S2(=O)=O

>  <score_type>  (80) 
oracle

>  <origin>  (80) 
adg

>  <m_score__min__energy>  (80) 
-9.3699999999999992

>  <m_primary>  (80) 
energy

$$$$
80:0
     RDKit          3D

 71 76  0  0  1  0  0  0  0  0999 V2000
   58.8150   21.7870   45.2160 C   0  0  0  0  0  0  0  0  0  0  0  0
   58.2680   23.0950   44.8700 N   0  0  0  0  0  0  0  0  0  0  0  0
   58.4120   24.2180   45.6190 C   0  0  0  0  0  0  0  0  0  0  0  0
   57.7680   25.2520   44.9810 C   0  0  0  0  0  0  0  0  0  0  0  0
   57.6130   26.6120   45.3470 N   0  0  0  0  0  0  0  0  0  0  0  0
   57.5730   27.6340   44.3280 C   0  0  0  0  0  0  0  0  0  0  0  0
   56.8970   28.9160   44.8100 C   0  0  0  0  0  0  0  0  0  0  0  0
   57.7740   29.5800   45.8230 C   0  0  0  0  0  0  0  0  0  0  0  0
   57.7860   30.9300   45.6880 N   0  0  0  0  0  0  0  0  0  0  0  0
   58.5200   31.7310   46.5150 C   0  0  0  0  0  0  0  0  0  0  0  0
   58.4620   33.1310   46.2910 N   0  0  0  0  0  0  0  0  0  0  0  0
   58.6790   34.1380   47.3020 C   0  0  0  0  0  0  0  0  0  0  0  0
   59.5690   35.2650   46.8650 C   0  0  0  0  0  0  0  0  0  0  0  0
   59.3610   35.7300   45.4600 C   0  0  0  0  0  0  0  0  0  0  0  0
   59.2690   34.5480   44.5160 C   0  0  0  0  0  0  0  0  0  0  0  0
   58.1710   33.5840   44.9210 C   0  0  0  0  0  0  0  0  0  0  0  0
   59.2740   31.2350   47.5110 N   0  0  0  0  0  0  0  0  0  0  0  0
   59.2950   29.9070   47.6850 C   0  0  0  0  0  0  0  0  0  0  0  0
   59.9600   29.3120   48.6050 N   0  0  0  0  0  0  0  0  0  0  0  0
   61.0070   29.9530   49.2990 C   0  0  0  0  0  0  0  0  0  0  0  0
   61.7900   30.8380   48.5420 C   0  0  0  0  0  0  0  0  0  0  0  0
   62.8550   31.5020   49.1180 C   0  0  0  0  0  0  0  0  0  0  0  0
   63.1760   31.3130   50.4480 C   0  0  0  0  0  0  0  0  0  0  0  0
   64.5560   32.1730   51.0750 S   0  0  0  0  0  0  0  0  0  0  0  0
   65.1170   31.4060   52.2590 O   0  0  0  0  0  0  0  0  0  0  0  0
   64.0410   33.5270   51.5580 O   0  0  0  0  0  0  0  0  0  0  0  0
   65.7830   32.4550   49.9760 N   0  0  0  0  0  0  0  0  0  0  0  0
   67.0680   32.5020   50.5460 C   0  0  0  0  0  0  0  0  0  0  0  0
   67.9570   33.6860   50.4420 C   0  0  0  0  0  0  0  0  0  0  0  0
   67.2200   33.4560   51.7290 C   0  0  0  0  0  0  0  0  0  0  0  0
   62.4060   30.4490   51.1720 C   0  0  0  0  0  0  0  0  0  0  0  0
   61.3230   29.7620   50.6200 C   0  0  0  0  0  0  0  0  0  0  0  0
   58.5470   29.0750   46.8450 C   0  0  0  0  0  0  0  0  0  0  0  0
   58.7300   27.6400   47.2090 C   0  0  0  0  0  0  0  0  0  0  0  0
   57.5000   26.8930   46.7850 C   0  0  0  0  0  0  0  0  0  0  0  0
   57.2290   24.7220   43.8180 C   0  0  0  0  0  0  0  0  0  0  0  0
   57.5620   23.4250   43.8070 N   0  0  0  0  0  0  0  0  0  0  0  0
   58.8576   21.6852   46.3105 H   0  0  0  0  0  0  0  0  0  0  0  0
   58.1713   20.9984   44.7992 H   0  0  0  0  0  0  0  0  0  0  0  0
   59.8285   21.6915   44.7992 H   0  0  0  0  0  0  0  0  0  0  0  0
   58.9524   24.2888   46.5745 H   0  0  0  0  0  0  0  0  0  0  0  0
   58.6038   27.8711   44.0258 H   0  0  0  0  0  0  0  0  0  0  0  0
   56.9839   27.2425   43.4856 H   0  0  0  0  0  0  0  0  0  0  0  0
   56.7409   29.5932   43.9574 H   0  0  0  0  0  0  0  0  0  0  0  0
   55.9242   28.6744   45.2632 H   0  0  0  0  0  0  0  0  0  0  0  0
   57.7029   34.5588   47.5852 H   0  0  0  0  0  0  0  0  0  0  0  0
   59.1873   33.6401   48.1409 H   0  0  0  0  0  0  0  0  0  0  0  0
   59.3921   36.1185   47.5360 H   0  0  0  0  0  0  0  0  0  0  0  0
   60.5976   34.8776   46.9100 H   0  0  0  0  0  0  0  0  0  0  0  0
   58.4279   36.3100   45.4054 H   0  0  0  0  0  0  0  0  0  0  0  0
   60.2155   36.3559   45.1630 H   0  0  0  0  0  0  0  0  0  0  0  0
   59.0603   34.9187   43.5016 H   0  0  0  0  0  0  0  0  0  0  0  0
   60.2267   34.0080   44.5521 H   0  0  0  0  0  0  0  0  0  0  0  0
   57.1959   34.0923   44.8928 H   0  0  0  0  0  0  0  0  0  0  0  0
   58.1327   32.7287   44.2304 H   0  0  0  0  0  0  0  0  0  0  0  0
   59.8400   31.8090   48.1420 H   0  0  0  0  0  0  0  0  0  0  0  0
   61.5534   31.0042   47.4807 H   0  0  0  0  0  0  0  0  0  0  0  0
   63.4569   32.1920   48.5083 H   0  0  0  0  0  0  0  0  0  0  0  0
   65.6290   32.7140   49.0330 H   0  0  0  0  0  0  0  0  0  0  0  0
   67.2327   31.4388   50.3169 H   0  0  0  0  0  0  0  0  0  0  0  0
   69.0477   33.5479   50.4056 H   0  0  0  0  0  0  0  0  0  0  0  0
   68.0342   34.5300   49.7407 H   0  0  0  0  0  0  0  0  0  0  0  0
   67.7652   33.1382   52.6300 H   0  0  0  0  0  0  0  0  0  0  0  0
   66.5344   34.0435   52.3573 H   0  0  0  0  0  0  0  0  0  0  0  0
   62.6485   30.2876   52.2327 H   0  0  0  0  0  0  0  0  0  0  0  0
   60.7286   29.0738   51.2389 H   0  0  0  0  0  0  0  0  0  0  0  0
   59.6109   27.2330   46.6910 H   0  0  0  0  0  0  0  0  0  0  0  0
   58.8841   27.5378   48.2933 H   0  0  0  0  0  0  0  0  0  0  0  0
   57.4247   25.9493   47.3451 H   0  0  0  0  0  0  0  0  0  0  0  0
   56.6000   27.4920   46.9879 H   0  0  0  0  0  0  0  0  0  0  0  0
   56.6447   25.2597   43.0568 H   0  0  0  0  0  0  0  0  0  0  0  0
  1  2  1  0
  2  3  1  0
  3  4  2  0
  4  5  1  0
  5  6  1  0
  6  7  1  0
  7  8  1  0
  8  9  1  0
  9 10  2  0
 10 11  1  0
 11 12  1  0
 12 13  1  0
 13 14  1  0
 14 15  1  0
 15 16  1  0
 10 17  1  0
 17 18  1  0
 18 19  2  0
 19 20  1  0
 20 21  2  0
 21 22  1  0
 22 23  2  0
 23 24  1  0
 24 25  2  0
 24 26  2  0
 24 27  1  0
 27 28  1  0
 28 29  1  0
 29 30  1  0
 23 31  1  0
 31 32  2  0
 18 33  1  0
 33 34  1  0
 34 35  1  0
  4 36  1  0
 36 37  2  0
 37  2  1  0
 35  5  1  0
 33  8  2  0
 16 11  1  0
 32 20  1  0
 30 28  1  0
  1 38  1  0
  1 39  1  0
  1 40  1  0
  3 41  1  0
  6 42  1  0
  6 43  1  0
  7 44  1  0
  7 45  1  0
 12 46  1  0
 12 47  1  0
 13 48  1  0
 13 49  1  0
 14 50  1  0
 14 51  1  0
 15 52  1  0
 15 53  1  0
 16 54  1  0
 16 55  1  0
 17 56  1  0
 21 57  1  0
 22 58  1  0
 27 59  1  0
 28 60  1  0
 29 61  1  0
 29 62  1  0
 30 63  1  0
 30 64  1  0
 31 65  1  0
 32 66  1  0
 34 67  1  0
 34 68  1  0
 35 69  1  0
 35 70  1  0
 36 71  1  0
M  END
>  <smiles>  (81) 
Cn1cc(N2CCc3nc(N4CCCCC4)[nH]c(=Nc4ccc(S(=O)(=O)NC5CC5)cc4)c3CC2)cn1

>  <score_type>  (81) 
oracle

>  <origin>  (81) 
adg

>  <m_score__min__energy>  (81) 
-7.4800000000000004

>  <m_primary>  (81) 
energy

$$$$
81:0
     RDKit          3D

 55 58  0  0  0  0  0  0  0  0999 V2000
   53.3780   28.1190   52.7890 O   0  0  0  0  0  0  0  0  0  0  0  0
   53.2160   28.9340   53.7350 C   0  0  0  0  0  0  0  0  0  0  0  0
   54.3790   29.2600   54.6330 C   0  0  0  0  0  0  0  0  0  0  0  0
   55.6410   29.4170   53.8270 C   0  0  0  0  0  0  0  0  0  0  0  0
   56.6760   28.4770   53.9480 C   0  0  0  0  0  0  0  0  0  0  0  0
   57.8560   28.6330   53.2180 C   0  0  0  0  0  0  0  0  0  0  0  0
   58.0190   29.7330   52.3720 C   0  0  0  0  0  0  0  0  0  0  0  0
   57.0000   30.6950   52.2600 C   0  0  0  0  0  0  0  0  0  0  0  0
   57.1210   31.8150   51.4210 O   0  0  0  0  0  0  0  0  0  0  0  0
   58.3080   32.2100   50.7930 C   0  0  0  0  0  0  0  0  0  0  0  0
   58.7380   31.5060   49.6650 C   0  0  0  0  0  0  0  0  0  0  0  0
   59.9200   31.8660   49.0130 C   0  0  0  0  0  0  0  0  0  0  0  0
   60.6710   32.9650   49.4660 C   0  0  0  0  0  0  0  0  0  0  0  0
   61.9030   33.3530   48.8390 N   0  0  0  0  0  0  0  0  0  0  0  0
   62.1360   33.4710   47.4320 C   0  0  0  0  0  0  0  0  0  0  0  0
   63.1770   32.9580   46.9440 O   0  0  0  0  0  0  0  0  0  0  0  0
   61.2040   34.1680   46.5930 N   0  0  0  0  0  0  0  0  0  0  0  0
   59.9110   33.7040   46.1790 C   0  0  0  0  0  0  0  0  0  0  0  0
   58.9350   34.6520   45.8510 C   0  0  0  0  0  0  0  0  0  0  0  0
   57.6740   34.2440   45.4090 C   0  0  0  0  0  0  0  0  0  0  0  0
   57.3800   32.8850   45.2830 C   0  0  0  0  0  0  0  0  0  0  0  0
   58.3460   31.9160   45.6060 C   0  0  0  0  0  0  0  0  0  0  0  0
   58.0500   30.4520   45.3990 C   0  0  0  0  0  0  0  0  0  0  0  0
   58.9750   29.9220   44.5190 F   0  0  0  0  0  0  0  0  0  0  0  0
   56.7790   30.2820   44.8760 F   0  0  0  0  0  0  0  0  0  0  0  0
   58.1200   29.7620   46.5960 F   0  0  0  0  0  0  0  0  0  0  0  0
   59.6220   32.3350   46.0260 C   0  0  0  0  0  0  0  0  0  0  0  0
   60.2410   33.6680   50.5980 C   0  0  0  0  0  0  0  0  0  0  0  0
   59.0590   33.3090   51.2550 C   0  0  0  0  0  0  0  0  0  0  0  0
   58.5110   34.2900   52.6080 Cl  0  0  0  0  0  0  0  0  0  0  0  0
   55.8140   30.5270   52.9850 C   0  0  0  0  0  0  0  0  0  0  0  0
   51.9390   29.5630   53.8930 N   0  0  0  0  0  0  0  0  0  0  0  0
   51.5130   30.7890   53.2800 C   0  0  0  0  0  0  0  0  0  0  0  0
   50.8590   31.7910   54.0120 C   0  0  0  0  0  0  0  0  0  0  0  0
   50.4370   32.9530   53.3620 C   0  0  0  0  0  0  0  0  0  0  0  0
   50.6440   33.0990   52.0260 N   0  0  0  0  0  0  0  0  0  0  0  0
   51.2540   32.1340   51.2890 C   0  0  0  0  0  0  0  0  0  0  0  0
   51.4220   32.3040   50.0520 O   0  0  0  0  0  0  0  0  0  0  0  0
   51.6910   30.9570   51.9020 C   0  0  0  0  0  0  0  0  0  0  0  0
   54.1716   30.1990   55.1671 H   0  0  0  0  0  0  0  0  0  0  0  0
   54.5156   28.4373   55.3504 H   0  0  0  0  0  0  0  0  0  0  0  0
   56.5573   27.6144   54.6202 H   0  0  0  0  0  0  0  0  0  0  0  0
   58.6598   27.8876   53.3092 H   0  0  0  0  0  0  0  0  0  0  0  0
   58.9469   29.8465   51.7922 H   0  0  0  0  0  0  0  0  0  0  0  0
   58.1415   30.6623   49.2877 H   0  0  0  0  0  0  0  0  0  0  0  0
   60.2641   31.2880   48.1427 H   0  0  0  0  0  0  0  0  0  0  0  0
   59.1621   35.7245   45.9417 H   0  0  0  0  0  0  0  0  0  0  0  0
   56.9106   34.9957   45.1596 H   0  0  0  0  0  0  0  0  0  0  0  0
   56.3871   32.5707   44.9291 H   0  0  0  0  0  0  0  0  0  0  0  0
   60.4000   31.5864   46.2365 H   0  0  0  0  0  0  0  0  0  0  0  0
   60.8386   34.5112   50.9747 H   0  0  0  0  0  0  0  0  0  0  0  0
   55.0099   31.2721   52.8940 H   0  0  0  0  0  0  0  0  0  0  0  0
   50.6799   31.6626   55.0897 H   0  0  0  0  0  0  0  0  0  0  0  0
   49.9369   33.7505   53.9312 H   0  0  0  0  0  0  0  0  0  0  0  0
   52.1718   30.1676   51.3055 H   0  0  0  0  0  0  0  0  0  0  0  0
  1  2  2  0
  2  3  1  0
  3  4  1  0
  4  5  2  0
  5  6  1  0
  6  7  2  0
  7  8  1  0
  8  9  1  0
  9 10  1  0
 10 11  2  0
 11 12  1  0
 12 13  2  0
 13 14  1  0
 14 15  1  0
 15 16  2  0
 15 17  1  0
 17 18  1  0
 18 19  2  0
 19 20  1  0
 20 21  2  0
 21 22  1  0
 22 23  1  0
 23 24  1  0
 23 25  1  0
 23 26  1  0
 22 27  2  0
 13 28  1  0
 28 29  2  0
 29 30  1  0
  8 31  2  0
  2 32  1  0
 32 33  1  0
 33 34  1  0
 34 35  2  0
 35 36  1  0
 36 37  1  0
 37 38  2  0
 37 39  1  0
 31  4  1  0
 39 33  2  0
 29 10  1  0
 27 18  1  0
  3 40  1  0
  3 41  1  0
  5 42  1  0
  6 43  1  0
  7 44  1  0
 11 45  1  0
 12 46  1  0
 19 47  1  0
 20 48  1  0
 21 49  1  0
 27 50  1  0
 28 51  1  0
 31 52  1  0
 34 53  1  0
 35 54  1  0
 39 55  1  0
M  CHG  4  14  -1  17  -1  32  -1  36  -1
M  END
>  <UniqueID>  (82) 
75

>  <SMILES>  (82) 
O=C(Cc1cccc(Oc2ccc([N-]C(=O)[N-]c3cccc(C(F)(F)F)c3)cc2Cl)c1)[N-]c1cc[n-]c(=O)c1

>  <Energy>  (82) 
80.84046325946679

>  <Genealogy>  (82) 
O=C(Cc1cccc(Oc2ccc([N-]C(=O)[N-]c3cccc(C(F)(F)F)c3)cc2Cl)c1)[N-]c1cc[n-]c(=O)c1 (protonated)
O=C(Cc1cccc(Oc2ccc([N-]C(=O)[N-]c3cccc(C(F)(F)F)c3)cc2Cl)c1)[N-]c1cc[n-]c(=O)c1 (3D coordinates assigned)
O=C(Cc1cccc(Oc2ccc([N-]C(=O)[N-]c3cccc(C(F)(F)F)c3)cc2Cl)c1)[N-]c1cc[n-]c(=O)c1 (optimized conformer: 80.84046325946679 kcal/mol)

>  <smiles>  (82) 
O=C(Cc1cccc(Oc2ccc(NC(=O)Nc3cccc(C(F)(F)F)c3)cc2Cl)c1)Nc1cc[nH]c(=O)c1

>  <score_type>  (82) 
oracle

>  <origin>  (82) 
adg

>  <m_score__min__energy>  (82) 
-16.960000000000001

>  <m_primary>  (82) 
energy

$$$$
82:0
     RDKit          3D

 48 50  0  0  0  0  0  0  0  0999 V2000
   64.7440   33.0440   49.1980 C   0  0  0  0  0  0  0  0  0  0  0  0
   63.4440   33.3610   48.5190 C   0  0  0  0  0  0  0  0  0  0  0  0
   62.2670   33.4910   49.2730 C   0  0  0  0  0  0  0  0  0  0  0  0
   61.0490   33.7480   48.6380 C   0  0  0  0  0  0  0  0  0  0  0  0
   60.9930   33.8700   47.2430 C   0  0  0  0  0  0  0  0  0  0  0  0
   59.4580   34.1680   46.4290 S   0  0  0  0  0  0  0  0  0  0  0  0
   58.5430   34.9520   47.3280 O   0  0  0  0  0  0  0  0  0  0  0  0
   59.7330   34.9770   45.1930 O   0  0  0  0  0  0  0  0  0  0  0  0
   58.6770   32.6450   45.9940 C   0  0  0  0  0  0  0  0  0  0  0  0
   59.1800   31.4260   46.4660 C   0  0  0  0  0  0  0  0  0  0  0  0
   58.5710   30.2600   46.1290 N   0  0  0  0  0  0  0  0  0  0  0  0
   57.4700   30.2530   45.3360 C   0  0  0  0  0  0  0  0  0  0  0  0
   56.6920   28.7000   44.8990 S   0  0  0  0  0  0  0  0  0  0  0  0
   58.2550   27.8750   44.4340 C   0  0  0  0  0  0  0  0  0  0  0  0
   58.9100   27.2160   45.6190 C   0  0  0  0  0  0  0  0  0  0  0  0
   60.0000   27.6780   46.0470 O   0  0  0  0  0  0  0  0  0  0  0  0
   58.3730   26.0340   46.2320 N   0  0  0  0  0  0  0  0  0  0  0  0
   57.2570   25.2730   45.7570 C   0  0  0  0  0  0  0  0  0  0  0  0
   55.9380   25.6630   46.0340 C   0  0  0  0  0  0  0  0  0  0  0  0
   54.8670   24.8890   45.5790 C   0  0  0  0  0  0  0  0  0  0  0  0
   55.1060   23.7160   44.8580 C   0  0  0  0  0  0  0  0  0  0  0  0
   56.4210   23.3060   44.5970 C   0  0  0  0  0  0  0  0  0  0  0  0
   56.7230   21.8140   43.7140 S   0  0  0  0  0  0  0  0  0  0  0  0
   58.4170   21.4690   43.7330 N   0  0  0  0  0  0  0  0  0  0  0  0
   55.9690   20.6830   44.3550 O   0  0  0  0  0  0  0  0  0  0  0  0
   56.2560   21.9590   42.2930 O   0  0  0  0  0  0  0  0  0  0  0  0
   57.4930   24.0800   45.0640 C   0  0  0  0  0  0  0  0  0  0  0  0
   56.9520   31.4220   44.8790 N   0  0  0  0  0  0  0  0  0  0  0  0
   57.5250   32.6120   45.1900 C   0  0  0  0  0  0  0  0  0  0  0  0
   57.0130   33.6770   44.7560 O   0  0  0  0  0  0  0  0  0  0  0  0
   62.1630   33.7170   46.4870 C   0  0  0  0  0  0  0  0  0  0  0  0
   63.3810   33.4590   47.1220 C   0  0  0  0  0  0  0  0  0  0  0  0
   64.6057   33.0777   50.2888 H   0  0  0  0  0  0  0  0  0  0  0  0
   65.0769   32.0384   48.9015 H   0  0  0  0  0  0  0  0  0  0  0  0
   65.5024   33.7835   48.9015 H   0  0  0  0  0  0  0  0  0  0  0  0
   62.3036   33.3902   50.3678 H   0  0  0  0  0  0  0  0  0  0  0  0
   60.1313   33.8549   49.2350 H   0  0  0  0  0  0  0  0  0  0  0  0
   60.0707   31.4131   47.1114 H   0  0  0  0  0  0  0  0  0  0  0  0
   58.0417   27.1097   43.6731 H   0  0  0  0  0  0  0  0  0  0  0  0
   58.9429   28.6388   44.0423 H   0  0  0  0  0  0  0  0  0  0  0  0
   55.7465   26.5800   46.6106 H   0  0  0  0  0  0  0  0  0  0  0  0
   53.8341   25.2037   45.7888 H   0  0  0  0  0  0  0  0  0  0  0  0
   54.2607   23.1132   44.4946 H   0  0  0  0  0  0  0  0  0  0  0  0
   58.8880   22.2780   44.1960 H   0  0  0  0  0  0  0  0  0  0  0  0
   58.5540   20.6420   44.3570 H   0  0  0  0  0  0  0  0  0  0  0  0
   58.5261   23.7475   44.8846 H   0  0  0  0  0  0  0  0  0  0  0  0
   62.1226   33.8002   45.3909 H   0  0  0  0  0  0  0  0  0  0  0  0
   64.2946   33.3322   46.5227 H   0  0  0  0  0  0  0  0  0  0  0  0
  1  2  1  0
  2  3  2  0
  3  4  1  0
  4  5  2  0
  5  6  1  0
  6  7  2  0
  6  8  2  0
  6  9  1  0
  9 10  2  0
 10 11  1  0
 11 12  1  0
 12 13  1  0
 13 14  1  0
 14 15  1  0
 15 16  2  0
 15 17  1  0
 17 18  1  0
 18 19  2  0
 19 20  1  0
 20 21  2  0
 21 22  1  0
 22 23  1  0
 23 24  1  0
 23 25  2  0
 23 26  2  0
 22 27  2  0
 12 28  2  0
 28 29  1  0
 29 30  2  0
  5 31  1  0
 31 32  2  0
 32  2  1  0
 29  9  1  0
 27 18  1  0
  1 33  1  0
  1 34  1  0
  1 35  1  0
  3 36  1  0
  4 37  1  0
 10 38  1  0
 14 39  1  0
 14 40  1  0
 19 41  1  0
 20 42  1  0
 21 43  1  0
 24 44  1  0
 24 45  1  0
 27 46  1  0
 31 47  1  0
 32 48  1  0
M  CHG  2  11  -1  17  -1
M  END
>  <UniqueID>  (83) 
76

>  <SMILES>  (83) 
Cc1ccc(S(=O)(=O)c2c[n-]c(SCC(=O)[N-]c3cccc(S(N)(=O)=O)c3)nc2=O)cc1

>  <Energy>  (83) 
53.751926021264275

>  <Genealogy>  (83) 
Cc1ccc(S(=O)(=O)c2c[n-]c(SCC(=O)[N-]c3cccc(S(N)(=O)=O)c3)nc2=O)cc1 (protonated)
Cc1ccc(S(=O)(=O)c2c[n-]c(SCC(=O)[N-]c3cccc(S(N)(=O)=O)c3)nc2=O)cc1 (3D coordinates assigned)
Cc1ccc(S(=O)(=O)c2c[n-]c(SCC(=O)[N-]c3cccc(S(N)(=O)=O)c3)nc2=O)cc1 (optimized conformer: 53.751926021264275 kcal/mol)

>  <smiles>  (83) 
Cc1ccc(S(=O)(=O)c2c[nH]c(SCC(=O)Nc3cccc(S(N)(=O)=O)c3)nc2=O)cc1

>  <score_type>  (83) 
oracle

>  <origin>  (83) 
adg

>  <m_score__min__energy>  (83) 
-12.99

>  <m_primary>  (83) 
energy

$$$$
83:0
     RDKit          3D

 49 52  0  0  0  0  0  0  0  0999 V2000
   55.6510   29.0520   44.9380 O   0  0  0  0  0  0  0  0  0  0  0  0
   56.6740   29.7780   45.0470 C   0  0  0  0  0  0  0  0  0  0  0  0
   56.5330   31.1940   44.8620 N   0  0  0  0  0  0  0  0  0  0  0  0
   57.5300   32.1890   45.1330 C   0  0  0  0  0  0  0  0  0  0  0  0
   57.4220   33.4390   44.5150 C   0  0  0  0  0  0  0  0  0  0  0  0
   58.3740   34.4310   44.7580 C   0  0  0  0  0  0  0  0  0  0  0  0
   59.4500   34.1770   45.6120 C   0  0  0  0  0  0  0  0  0  0  0  0
   59.5930   32.9180   46.2230 C   0  0  0  0  0  0  0  0  0  0  0  0
   60.7370   32.6440   47.1290 C   0  0  0  0  0  0  0  0  0  0  0  0
   61.8170   33.5410   47.2090 C   0  0  0  0  0  0  0  0  0  0  0  0
   62.8980   33.2790   48.0550 C   0  0  0  0  0  0  0  0  0  0  0  0
   62.9280   32.1090   48.8350 C   0  0  0  0  0  0  0  0  0  0  0  0
   64.0670   31.8200   49.7400 C   0  0  0  0  0  0  0  0  0  0  0  0
   63.9120   30.9970   50.6830 O   0  0  0  0  0  0  0  0  0  0  0  0
   65.3450   32.4480   49.5490 N   0  0  0  0  0  0  0  0  0  0  0  0
   66.4060   32.3010   50.5540 C   0  0  0  0  0  0  0  0  0  0  0  0
   67.5850   33.3010   50.4650 C   0  0  0  0  0  0  0  0  0  0  0  0
   67.5520   34.5430   51.3430 C   0  0  0  0  0  0  0  0  0  0  0  0
   68.5410   33.4180   51.6420 C   0  0  0  0  0  0  0  0  0  0  0  0
   61.8420   31.2210   48.7660 C   0  0  0  0  0  0  0  0  0  0  0  0
   60.7600   31.4840   47.9200 C   0  0  0  0  0  0  0  0  0  0  0  0
   58.6320   31.9240   45.9660 C   0  0  0  0  0  0  0  0  0  0  0  0
   57.9700   29.1560   45.4090 C   0  0  0  0  0  0  0  0  0  0  0  0
   59.0360   29.1660   44.4930 C   0  0  0  0  0  0  0  0  0  0  0  0
   60.2640   28.5900   44.8320 C   0  0  0  0  0  0  0  0  0  0  0  0
   60.4370   27.9910   46.0820 C   0  0  0  0  0  0  0  0  0  0  0  0
   59.3790   27.9600   46.9940 C   0  0  0  0  0  0  0  0  0  0  0  0
   59.5440   27.3690   48.2030 F   0  0  0  0  0  0  0  0  0  0  0  0
   58.1490   28.5340   46.6590 C   0  0  0  0  0  0  0  0  0  0  0  0
   56.5824   33.6417   43.8338 H   0  0  0  0  0  0  0  0  0  0  0  0
   58.2766   35.4149   44.2759 H   0  0  0  0  0  0  0  0  0  0  0  0
   60.1903   34.9667   45.8079 H   0  0  0  0  0  0  0  0  0  0  0  0
   61.8109   34.4571   46.6002 H   0  0  0  0  0  0  0  0  0  0  0  0
   63.7323   33.9937   48.1114 H   0  0  0  0  0  0  0  0  0  0  0  0
   65.5070   32.9520   48.6520 H   0  0  0  0  0  0  0  0  0  0  0  0
   65.9448   32.4154   51.5461 H   0  0  0  0  0  0  0  0  0  0  0  0
   66.8487   31.3115   50.3675 H   0  0  0  0  0  0  0  0  0  0  0  0
   67.7031   33.1117   49.3879 H   0  0  0  0  0  0  0  0  0  0  0  0
   67.9143   35.5045   50.9503 H   0  0  0  0  0  0  0  0  0  0  0  0
   66.7759   35.0706   51.9169 H   0  0  0  0  0  0  0  0  0  0  0  0
   69.6161   33.5688   51.4649 H   0  0  0  0  0  0  0  0  0  0  0  0
   68.7732   32.7987   52.5209 H   0  0  0  0  0  0  0  0  0  0  0  0
   61.8426   30.3104   49.3830 H   0  0  0  0  0  0  0  0  0  0  0  0
   59.9195   30.7759   47.8738 H   0  0  0  0  0  0  0  0  0  0  0  0
   58.7433   30.9288   46.4212 H   0  0  0  0  0  0  0  0  0  0  0  0
   58.9034   29.6294   43.5042 H   0  0  0  0  0  0  0  0  0  0  0  0
   61.0960   28.6086   44.1126 H   0  0  0  0  0  0  0  0  0  0  0  0
   61.4061   27.5438   46.3483 H   0  0  0  0  0  0  0  0  0  0  0  0
   57.3160   28.4993   47.3766 H   0  0  0  0  0  0  0  0  0  0  0  0
  1  2  2  0
  2  3  1  0
  3  4  1  0
  4  5  2  0
  5  6  1  0
  6  7  2  0
  7  8  1  0
  8  9  1  0
  9 10  2  0
 10 11  1  0
 11 12  2  0
 12 13  1  0
 13 14  2  0
 13 15  1  0
 15 16  1  0
 16 17  1  0
 17 18  1  0
 18 19  1  0
 12 20  1  0
 20 21  2  0
  8 22  2  0
  2 23  1  0
 23 24  2  0
 24 25  1  0
 25 26  2  0
 26 27  1  0
 27 28  1  0
 27 29  2  0
 22  4  1  0
 29 23  1  0
 21  9  1  0
 19 17  1  0
  5 30  1  0
  6 31  1  0
  7 32  1  0
 10 33  1  0
 11 34  1  0
 15 35  1  0
 16 36  1  0
 16 37  1  0
 17 38  1  0
 18 39  1  0
 18 40  1  0
 19 41  1  0
 19 42  1  0
 20 43  1  0
 21 44  1  0
 22 45  1  0
 24 46  1  0
 25 47  1  0
 26 48  1  0
 29 49  1  0
M  CHG  1   3  -1
M  END
>  <UniqueID>  (84) 
77

>  <SMILES>  (84) 
O=C([N-]c1cccc(-c2ccc(C(=O)NCC3CC3)cc2)c1)c1cccc(F)c1

>  <Energy>  (84) 
333.7192043069348

>  <Genealogy>  (84) 
O=C([N-]c1cccc(-c2ccc(C(=O)NCC3CC3)cc2)c1)c1cccc(F)c1 (protonated)
O=C([N-]c1cccc(-c2ccc(C(=O)NCC3CC3)cc2)c1)c1cccc(F)c1 (3D coordinates assigned)
O=C([N-]c1cccc(-c2ccc(C(=O)NCC3CC3)cc2)c1)c1cccc(F)c1 (nonaromatic ring conformer: 333.7192043069348 kcal/mol)

>  <smiles>  (84) 
O=C(NCC1CC1)c1ccc(-c2cccc(NC(=O)c3cccc(F)c3)c2)cc1

>  <score_type>  (84) 
oracle

>  <origin>  (84) 
adg

>  <m_score__min__energy>  (84) 
-10.800000000000001

>  <m_primary>  (84) 
energy

$$$$
84:0
     RDKit          3D

 52 54  0  0  0  0  0  0  0  0999 V2000
   56.7303   21.0912   42.2760 H   0  0  0  0  0  0  0  0  0  0  0  0
   56.6410   21.5340   43.2790 C   0  0  0  0  0  0  0  0  0  0  0  0
   55.8010   22.5710   43.5470 N   0  0  0  0  0  0  0  0  0  0  0  0
   55.8710   22.9380   44.8460 C   0  0  0  0  0  0  0  0  0  0  0  0
   55.1820   23.9050   45.3740 N   0  0  0  0  0  0  0  0  0  0  0  0
   55.6840   25.1960   45.7510 C   0  0  0  0  0  0  0  0  0  0  0  0
   54.9020   26.1730   45.9000 O   0  0  0  0  0  0  0  0  0  0  0  0
   57.1720   25.3880   45.8710 C   0  0  0  0  0  0  0  0  0  0  0  0
   57.6197   24.4228   46.1501 H   0  0  0  0  0  0  0  0  0  0  0  0
   57.3219   26.1724   46.6275 H   0  0  0  0  0  0  0  0  0  0  0  0
   57.8710   25.8880   44.5820 C   0  0  2  0  0  0  0  0  0  0  0  0
   58.9435   25.6731   44.6988 H   0  0  0  0  0  0  0  0  0  0  0  0
   57.7120   27.3410   44.4140 N   0  0  0  0  0  0  0  0  0  0  0  0
   57.0520   27.6980   43.6860 H   0  0  0  0  0  0  0  0  0  0  0  0
   58.4390   28.3130   45.1890 C   0  0  0  0  0  0  0  0  0  0  0  0
   59.7170   28.0090   45.6890 C   0  0  0  0  0  0  0  0  0  0  0  0
   60.1838   27.0453   45.4373 H   0  0  0  0  0  0  0  0  0  0  0  0
   60.4000   28.9140   46.5000 C   0  0  0  0  0  0  0  0  0  0  0  0
   61.4040   28.6645   46.8737 H   0  0  0  0  0  0  0  0  0  0  0  0
   59.8160   30.1350   46.8400 C   0  0  0  0  0  0  0  0  0  0  0  0
   60.7090   31.2820   47.8360 S   0  0  0  0  0  0  0  0  0  0  0  0
   61.4270   32.2520   46.9410 O   0  0  0  0  0  0  0  0  0  0  0  0
   61.7270   30.5620   48.6790 O   0  0  0  0  0  0  0  0  0  0  0  0
   59.6000   32.1490   48.8550 N   0  0  0  0  0  0  0  0  0  0  0  0
   58.6350   31.8610   48.5700 H   0  0  0  0  0  0  0  0  0  0  0  0
   59.7310   33.5900   48.6270 C   0  0  0  0  0  0  0  0  0  0  0  0
   59.2466   34.1371   49.4492 H   0  0  0  0  0  0  0  0  0  0  0  0
   60.7966   33.8598   48.5855 H   0  0  0  0  0  0  0  0  0  0  0  0
   59.0710   33.9520   47.3270 C   0  0  0  0  0  0  0  0  0  0  0  0
   57.7580   33.5260   47.0580 C   0  0  0  0  0  0  0  0  0  0  0  0
   57.1999   32.9579   47.8169 H   0  0  0  0  0  0  0  0  0  0  0  0
   57.1590   33.8220   45.8290 C   0  0  0  0  0  0  0  0  0  0  0  0
   56.1293   33.4926   45.6259 H   0  0  0  0  0  0  0  0  0  0  0  0
   57.8680   34.5360   44.8590 C   0  0  0  0  0  0  0  0  0  0  0  0
   57.3940   34.7731   43.8951 H   0  0  0  0  0  0  0  0  0  0  0  0
   59.1790   34.9490   45.1130 C   0  0  0  0  0  0  0  0  0  0  0  0
   59.7378   35.5064   44.3468 H   0  0  0  0  0  0  0  0  0  0  0  0
   59.7810   34.6540   46.3410 C   0  0  0  0  0  0  0  0  0  0  0  0
   60.8156   34.9738   46.5344 H   0  0  0  0  0  0  0  0  0  0  0  0
   58.5460   30.4570   46.3440 C   0  0  0  0  0  0  0  0  0  0  0  0
   58.0875   31.4211   46.6090 H   0  0  0  0  0  0  0  0  0  0  0  0
   57.8500   29.5620   45.5110 C   0  0  0  0  0  0  0  0  0  0  0  0
   56.5770   29.9510   44.9640 N   0  0  0  0  0  0  0  0  0  0  0  0
   55.6700   29.1050   44.8170 O   0  0  0  0  0  0  0  0  0  0  0  0
   56.2760   31.2810   44.7780 O   0  0  0  0  0  0  0  0  0  0  0  0
   57.3860   25.1340   43.3300 C   0  0  0  0  0  0  0  0  0  0  0  0
   56.8144   24.2453   43.6357 H   0  0  0  0  0  0  0  0  0  0  0  0
   56.7432   25.7949   42.7300 H   0  0  0  0  0  0  0  0  0  0  0  0
   58.2540   24.8232   42.7300 H   0  0  0  0  0  0  0  0  0  0  0  0
   56.9590   21.9990   45.7100 S   0  0  0  0  0  0  0  0  0  0  0  0
   57.3780   21.0750   44.3650 C   0  0  0  0  0  0  0  0  0  0  0  0
   58.1076   20.2519   44.3488 H   0  0  0  0  0  0  0  0  0  0  0  0
  1  2  1  0
  2  3  1  0
  3  4  1  0
  4  5  2  0
  5  6  1  0
  6  7  2  0
  6  8  1  0
  8  9  1  0
  8 10  1  0
  8 11  1  0
 11 12  1  1
 11 13  1  0
 13 14  1  0
 13 15  1  0
 15 16  2  0
 16 17  1  0
 16 18  1  0
 18 19  1  0
 18 20  2  0
 20 21  1  0
 21 22  2  0
 21 23  2  0
 21 24  1  0
 24 25  1  0
 24 26  1  0
 26 27  1  0
 26 28  1  0
 26 29  1  0
 29 30  2  0
 30 31  1  0
 30 32  1  0
 32 33  1  0
 32 34  2  0
 34 35  1  0
 34 36  1  0
 36 37  1  0
 36 38  2  0
 38 39  1  0
 20 40  1  0
 40 41  1  0
 40 42  2  0
 42 43  1  0
 43 44  2  0
 43 45  1  0
 11 46  1  0
 46 47  1  0
 46 48  1  0
 46 49  1  0
  4 50  1  0
 50 51  1  0
 51 52  1  0
 51  2  2  0
 42 15  1  0
 38 29  1  0
M  CHG  3   3  -1  43   1  45  -1
M  END
>  <UniqueID>  (85) 
78

>  <SMILES>  (85) 
C[C@H](CC(=O)/N=c1\[n-]ccs1)Nc1ccc(S(=O)(=O)NCc2ccccc2)cc1[N+](=O)[O-]

>  <Energy>  (85) 
87.89593121967826

>  <Genealogy>  (85) 
CC(CC(=O)N=c1[n-]ccs1)Nc1ccc(S(=O)(=O)NCc2ccccc2)cc1[N+](=O)[O-] (protonated)
C[C@H](CC(=O)N=c1[n-]ccs1)Nc1ccc(S(=O)(=O)NCc2ccccc2)cc1[N+](=O)[O-] (chirality)
C[C@H](CC(=O)/N=c1\[n-]ccs1)Nc1ccc(S(=O)(=O)NCc2ccccc2)cc1[N+](=O)[O-] (cis-trans isomerization)
C[C@H](CC(=O)/N=c1\[n-]ccs1)Nc1ccc(S(=O)(=O)NCc2ccccc2)cc1[N+](=O)[O-] (3D coordinates assigned)
C[C@H](CC(=O)/N=c1\[n-]ccs1)Nc1ccc(S(=O)(=O)NCc2ccccc2)cc1[N+](=O)[O-] (optimized conformer: 87.89593121967826 kcal/mol)

>  <smiles>  (85) 
CC(CC(=O)N=c1[nH]ccs1)Nc1ccc(S(=O)(=O)NCc2ccccc2)cc1[N+](=O)[O-]

>  <score_type>  (85) 
oracle

>  <origin>  (85) 
adg

>  <m_score__min__energy>  (85) 
-12.06

>  <m_primary>  (85) 
energy

$$$$
85:0
     RDKit          3D

 43 45  0  0  0  0  0  0  0  0999 V2000
   55.8650   29.3430   45.2160 O   0  0  0  0  0  0  0  0  0  0  0  0
   56.6640   30.0760   44.5750 C   0  0  0  0  0  0  0  0  0  0  0  0
   56.5210   31.4980   44.6720 N   0  0  0  0  0  0  0  0  0  0  0  0
   57.5060   32.4460   45.1060 C   0  0  0  0  0  0  0  0  0  0  0  0
   58.1840   33.1910   44.1340 C   0  0  0  0  0  0  0  0  0  0  0  0
   59.0960   34.1800   44.5080 C   0  0  0  0  0  0  0  0  0  0  0  0
   59.3290   34.4410   45.8580 C   0  0  0  0  0  0  0  0  0  0  0  0
   58.6630   33.7070   46.8460 C   0  0  0  0  0  0  0  0  0  0  0  0
   58.9030   34.0340   48.2230 N   0  0  0  0  0  0  0  0  0  0  0  0
   60.0290   33.6310   49.0140 C   0  0  0  0  0  0  0  0  0  0  0  0
   59.9690   33.7930   50.2620 O   0  0  0  0  0  0  0  0  0  0  0  0
   61.2740   33.0980   48.4090 C   0  0  0  0  0  0  0  0  0  0  0  0
   62.4980   33.7890   48.5350 C   0  0  0  0  0  0  0  0  0  0  0  0
   62.5810   34.9440   49.2420 F   0  0  0  0  0  0  0  0  0  0  0  0
   63.6660   33.2630   47.9730 C   0  0  0  0  0  0  0  0  0  0  0  0
   63.6330   32.0420   47.2990 C   0  0  0  0  0  0  0  0  0  0  0  0
   62.4340   31.3370   47.1890 C   0  0  0  0  0  0  0  0  0  0  0  0
   61.2610   31.8530   47.7460 C   0  0  0  0  0  0  0  0  0  0  0  0
   60.1090   31.1470   47.6170 F   0  0  0  0  0  0  0  0  0  0  0  0
   57.7310   32.7220   46.4680 C   0  0  0  0  0  0  0  0  0  0  0  0
   57.6430   29.4810   43.7080 N   0  0  0  0  0  0  0  0  0  0  0  0
   57.7770   28.0300   43.5680 C   0  0  0  0  0  0  0  0  0  0  0  0
   58.5640   27.4290   44.7060 C   0  0  0  0  0  0  0  0  0  0  0  0
   59.6420   28.1370   45.2620 C   0  0  0  0  0  0  0  0  0  0  0  0
   60.3510   27.6090   46.3460 C   0  0  0  0  0  0  0  0  0  0  0  0
   59.9820   26.3770   46.8910 C   0  0  0  0  0  0  0  0  0  0  0  0
   58.9010   25.6720   46.3560 C   0  0  0  0  0  0  0  0  0  0  0  0
   58.1910   26.1970   45.2720 C   0  0  0  0  0  0  0  0  0  0  0  0
   57.9969   32.9959   43.0677 H   0  0  0  0  0  0  0  0  0  0  0  0
   59.6312   34.7538   43.7371 H   0  0  0  0  0  0  0  0  0  0  0  0
   60.0404   35.2283   46.1479 H   0  0  0  0  0  0  0  0  0  0  0  0
   64.6138   33.8140   48.0628 H   0  0  0  0  0  0  0  0  0  0  0  0
   64.5529   31.6348   46.8540 H   0  0  0  0  0  0  0  0  0  0  0  0
   62.4121   30.3717   46.6620 H   0  0  0  0  0  0  0  0  0  0  0  0
   57.1770   32.1664   47.2390 H   0  0  0  0  0  0  0  0  0  0  0  0
   58.2040   30.0880   43.0710 H   0  0  0  0  0  0  0  0  0  0  0  0
   56.7736   27.5795   43.5516 H   0  0  0  0  0  0  0  0  0  0  0  0
   58.3172   27.8247   42.6320 H   0  0  0  0  0  0  0  0  0  0  0  0
   59.9304   29.1122   44.8427 H   0  0  0  0  0  0  0  0  0  0  0  0
   61.2004   28.1648   46.7699 H   0  0  0  0  0  0  0  0  0  0  0  0
   60.5426   25.9618   47.7415 H   0  0  0  0  0  0  0  0  0  0  0  0
   58.6084   24.7035   46.7878 H   0  0  0  0  0  0  0  0  0  0  0  0
   57.3352   25.6428   44.8593 H   0  0  0  0  0  0  0  0  0  0  0  0
  1  2  2  0
  2  3  1  0
  3  4  1  0
  4  5  2  0
  5  6  1  0
  6  7  2  0
  7  8  1  0
  8  9  1  0
  9 10  1  0
 10 11  2  0
 10 12  1  0
 12 13  2  0
 13 14  1  0
 13 15  1  0
 15 16  2  0
 16 17  1  0
 17 18  2  0
 18 19  1  0
  8 20  2  0
  2 21  1  0
 21 22  1  0
 22 23  1  0
 23 24  2  0
 24 25  1  0
 25 26  2  0
 26 27  1  0
 27 28  2  0
 20  4  1  0
 28 23  1  0
 18 12  1  0
  5 29  1  0
  6 30  1  0
  7 31  1  0
 15 32  1  0
 16 33  1  0
 17 34  1  0
 20 35  1  0
 21 36  1  0
 22 37  1  0
 22 38  1  0
 24 39  1  0
 25 40  1  0
 26 41  1  0
 27 42  1  0
 28 43  1  0
M  CHG  2   3  -1   9  -1
M  END
>  <UniqueID>  (86) 
79

>  <SMILES>  (86) 
O=C([N-]c1cccc([N-]C(=O)c2c(F)cccc2F)c1)NCc1ccccc1

>  <Energy>  (86) 
52.9996730228358

>  <Genealogy>  (86) 
O=C([N-]c1cccc([N-]C(=O)c2c(F)cccc2F)c1)NCc1ccccc1 (protonated)
O=C([N-]c1cccc([N-]C(=O)c2c(F)cccc2F)c1)NCc1ccccc1 (3D coordinates assigned)
O=C([N-]c1cccc([N-]C(=O)c2c(F)cccc2F)c1)NCc1ccccc1 (optimized conformer: 52.9996730228358 kcal/mol)

>  <smiles>  (86) 
O=C(NCc1ccccc1)Nc1cccc(NC(=O)c2c(F)cccc2F)c1

>  <score_type>  (86) 
oracle

>  <origin>  (86) 
adg

>  <m_score__min__energy>  (86) 
-11.69

>  <m_primary>  (86) 
energy

$$$$
86:0
     RDKit          3D

 36 37  0  0  0  0  0  0  0  0999 V2000
   60.8940   31.4350   50.1600 C   0  0  0  0  0  0  0  0  0  0  0  0
   60.0840   30.6420   49.1360 C   0  0  0  0  0  0  0  0  0  0  0  0
   58.9110   31.4840   48.6230 C   0  0  0  0  0  0  0  0  0  0  0  0
   59.6030   29.4490   49.7580 O   0  0  0  0  0  0  0  0  0  0  0  0
   59.0530   29.3510   51.0490 C   0  0  0  0  0  0  0  0  0  0  0  0
   57.7690   29.8420   51.3650 C   0  0  0  0  0  0  0  0  0  0  0  0
   57.2560   29.7270   52.6700 C   0  0  0  0  0  0  0  0  0  0  0  0
   55.9010   30.2400   52.9890 C   0  0  0  0  0  0  0  0  0  0  0  0
   55.7360   30.9740   54.0010 O   0  0  0  0  0  0  0  0  0  0  0  0
   54.7680   29.8740   52.1830 N   0  0  0  0  0  0  0  0  0  0  0  0
   53.5480   30.6340   52.1230 C   0  0  0  0  0  0  0  0  0  0  0  0
   53.1010   31.2170   50.9210 C   0  0  0  0  0  0  0  0  0  0  0  0
   51.8980   31.9290   50.8870 C   0  0  0  0  0  0  0  0  0  0  0  0
   51.1230   32.0550   52.0440 C   0  0  0  0  0  0  0  0  0  0  0  0
   49.9280   32.7640   52.0050 O   0  0  0  0  0  0  0  0  0  0  0  0
   51.5470   31.4620   53.2350 C   0  0  0  0  0  0  0  0  0  0  0  0
   52.7500   30.7500   53.2750 C   0  0  0  0  0  0  0  0  0  0  0  0
   58.0360   29.0970   53.6560 C   0  0  0  0  0  0  0  0  0  0  0  0
   59.3050   28.6060   53.3450 C   0  0  0  0  0  0  0  0  0  0  0  0
   59.8130   28.7310   52.0510 C   0  0  0  0  0  0  0  0  0  0  0  0
   61.4120   28.0960   51.6930 Cl  0  0  0  0  0  0  0  0  0  0  0  0
   60.5917   31.1390   51.1754 H   0  0  0  0  0  0  0  0  0  0  0  0
   61.9651   31.2267   50.0210 H   0  0  0  0  0  0  0  0  0  0  0  0
   60.7085   32.5103   50.0210 H   0  0  0  0  0  0  0  0  0  0  0  0
   60.7208   30.3818   48.2776 H   0  0  0  0  0  0  0  0  0  0  0  0
   58.3483   31.8879   49.4775 H   0  0  0  0  0  0  0  0  0  0  0  0
   59.2951   32.3139   48.0116 H   0  0  0  0  0  0  0  0  0  0  0  0
   58.2476   30.8546   48.0116 H   0  0  0  0  0  0  0  0  0  0  0  0
   57.1619   30.3202   50.5823 H   0  0  0  0  0  0  0  0  0  0  0  0
   54.7920   28.9510   51.6950 H   0  0  0  0  0  0  0  0  0  0  0  0
   53.7010   31.1117   50.0051 H   0  0  0  0  0  0  0  0  0  0  0  0
   51.5605   32.3912   49.9476 H   0  0  0  0  0  0  0  0  0  0  0  0
   50.9337   31.5551   54.1434 H   0  0  0  0  0  0  0  0  0  0  0  0
   53.0742   30.2775   54.2140 H   0  0  0  0  0  0  0  0  0  0  0  0
   57.6438   28.9905   54.6782 H   0  0  0  0  0  0  0  0  0  0  0  0
   59.9084   28.1176   54.1244 H   0  0  0  0  0  0  0  0  0  0  0  0
  1  2  1  0
  2  3  1  0
  2  4  1  0
  4  5  1  0
  5  6  2  0
  6  7  1  0
  7  8  1  0
  8  9  2  0
  8 10  1  0
 10 11  1  0
 11 12  2  0
 12 13  1  0
 13 14  2  0
 14 15  1  0
 14 16  1  0
 16 17  2  0
  7 18  2  0
 18 19  1  0
 19 20  2  0
 20 21  1  0
 20  5  1  0
 17 11  1  0
  1 22  1  0
  1 23  1  0
  1 24  1  0
  2 25  1  0
  3 26  1  0
  3 27  1  0
  3 28  1  0
  6 29  1  0
 10 30  1  0
 12 31  1  0
 13 32  1  0
 16 33  1  0
 17 34  1  0
 18 35  1  0
 19 36  1  0
M  CHG  1  15  -1
M  END
>  <UniqueID>  (87) 
80

>  <SMILES>  (87) 
CC(C)Oc1cc(C(=O)Nc2ccc([O-])cc2)ccc1Cl

>  <Energy>  (87) 
38.338334161168106

>  <Genealogy>  (87) 
CC(C)Oc1cc(C(=O)Nc2ccc([O-])cc2)ccc1Cl (protonated)
CC(C)Oc1cc(C(=O)Nc2ccc([O-])cc2)ccc1Cl (3D coordinates assigned)
CC(C)Oc1cc(C(=O)Nc2ccc([O-])cc2)ccc1Cl (optimized conformer: 38.338334161168106 kcal/mol)

>  <smiles>  (87) 
CC(C)Oc1cc(C(=O)Nc2ccc(O)cc2)ccc1Cl

>  <score_type>  (87) 
oracle

>  <origin>  (87) 
adg

>  <m_score__min__energy>  (87) 
-9.1400000000000006

>  <m_primary>  (87) 
energy

$$$$
87:0
     RDKit          3D

 32 34  0  0  0  0  0  0  0  0999 V2000
   58.6270   27.2030   45.2510 O   0  0  0  0  0  0  0  0  0  0  0  0
   57.4300   27.4920   45.5180 C   0  0  0  0  0  0  0  0  0  0  0  0
   57.0500   28.8600   45.7320 N   0  0  0  0  0  0  0  0  0  0  0  0
   57.9970   29.9640   45.6030 C   0  0  0  0  0  0  0  0  0  0  0  0
   57.7620   30.7020   44.3240 C   0  0  0  0  0  0  0  0  0  0  0  0
   58.2300   31.9760   44.0250 C   0  0  0  0  0  0  0  0  0  0  0  0
   57.8240   32.4280   42.7630 C   0  0  0  0  0  0  0  0  0  0  0  0
   57.0350   31.5170   42.0720 C   0  0  0  0  0  0  0  0  0  0  0  0
   56.8410   30.1490   43.0310 S   0  0  0  0  0  0  0  0  0  0  0  0
   56.4290   26.4180   45.6120 C   0  0  0  0  0  0  0  0  0  0  0  0
   56.6430   25.0830   45.3320 C   0  0  0  0  0  0  0  0  0  0  0  0
   55.4160   24.5010   45.5650 C   0  0  0  0  0  0  0  0  0  0  0  0
   55.1070   23.0400   45.4740 C   0  0  0  0  0  0  0  0  0  0  0  0
   56.1180   22.3600   44.6080 C   0  0  0  0  0  0  0  0  0  0  0  0
   57.4170   22.0590   44.9640 C   0  0  0  0  0  0  0  0  0  0  0  0
   57.9790   21.4730   43.8510 C   0  0  0  0  0  0  0  0  0  0  0  0
   56.9920   21.4560   42.8860 C   0  0  0  0  0  0  0  0  0  0  0  0
   55.8940   21.9950   43.3660 O   0  0  0  0  0  0  0  0  0  0  0  0
   54.5340   25.4320   45.9760 N   0  0  0  0  0  0  0  0  0  0  0  0
   55.1510   26.6040   45.9980 N   0  0  0  0  0  0  0  0  0  0  0  0
   56.0640   29.0850   45.9960 H   0  0  0  0  0  0  0  0  0  0  0  0
   57.8672   30.6543   46.4495 H   0  0  0  0  0  0  0  0  0  0  0  0
   59.0200   29.5597   45.6002 H   0  0  0  0  0  0  0  0  0  0  0  0
   58.8551   32.5685   44.7092 H   0  0  0  0  0  0  0  0  0  0  0  0
   58.1035   33.4115   42.3573 H   0  0  0  0  0  0  0  0  0  0  0  0
   56.6096   31.6651   41.0685 H   0  0  0  0  0  0  0  0  0  0  0  0
   57.5734   24.5984   45.0010 H   0  0  0  0  0  0  0  0  0  0  0  0
   55.1329   22.5981   46.4810 H   0  0  0  0  0  0  0  0  0  0  0  0
   54.1067   22.9076   45.0359 H   0  0  0  0  0  0  0  0  0  0  0  0
   57.9019   22.2475   45.9332 H   0  0  0  0  0  0  0  0  0  0  0  0
   59.0071   21.0948   43.7514 H   0  0  0  0  0  0  0  0  0  0  0  0
   57.1073   21.0524   41.8692 H   0  0  0  0  0  0  0  0  0  0  0  0
  1  2  2  0
  2  3  1  0
  3  4  1  0
  4  5  1  0
  5  6  2  0
  6  7  1  0
  7  8  2  0
  8  9  1  0
  2 10  1  0
 10 11  1  0
 11 12  2  0
 12 13  1  0
 13 14  1  0
 14 15  2  0
 15 16  1  0
 16 17  2  0
 17 18  1  0
 12 19  1  0
 19 20  1  0
  9  5  1  0
 20 10  2  0
 18 14  1  0
  3 21  1  0
  4 22  1  0
  4 23  1  0
  6 24  1  0
  7 25  1  0
  8 26  1  0
 11 27  1  0
 13 28  1  0
 13 29  1  0
 15 30  1  0
 16 31  1  0
 17 32  1  0
M  CHG  1  19  -1
M  END
>  <UniqueID>  (88) 
81

>  <SMILES>  (88) 
O=C(NCc1cccs1)c1cc(Cc2ccco2)[n-]n1

>  <Energy>  (88) 
108.70431226974088

>  <Genealogy>  (88) 
O=C(NCc1cccs1)c1cc(Cc2ccco2)[n-]n1 (protonated)
O=C(NCc1cccs1)c1cc(Cc2ccco2)[n-]n1 (3D coordinates assigned)
O=C(NCc1cccs1)c1cc(Cc2ccco2)[n-]n1 (optimized conformer: 108.70431226974088 kcal/mol)

>  <smiles>  (88) 
O=C(NCc1cccs1)c1cc(Cc2ccco2)[nH]n1

>  <score_type>  (88) 
oracle

>  <origin>  (88) 
adg

>  <m_score__min__energy>  (88) 
-9.2899999999999991

>  <m_primary>  (88) 
energy

$$$$
88:0
     RDKit          3D

 44 47  0  0  0  0  0  0  0  0999 V2000
   60.2900   34.7350   45.6090 O   0  0  0  0  0  0  0  0  0  0  0  0
   60.1970   34.2000   46.7460 C   0  0  0  0  0  0  0  0  0  0  0  0
   58.8390   33.7640   47.2250 C   0  0  0  0  0  0  0  0  0  0  0  0
   58.3170   32.7130   46.3490 N   0  0  0  0  0  0  0  0  0  0  0  0
   57.2850   32.7880   45.4700 C   0  0  0  0  0  0  0  0  0  0  0  0
   56.6410   33.8440   45.2350 O   0  0  0  0  0  0  0  0  0  0  0  0
   57.0200   31.6330   44.8820 O   0  0  0  0  0  0  0  0  0  0  0  0
   57.8810   30.7780   45.3810 C   0  0  0  0  0  0  0  0  0  0  0  0
   58.0210   29.4230   45.0980 C   0  0  0  0  0  0  0  0  0  0  0  0
   59.0280   28.7150   45.7820 C   0  0  0  0  0  0  0  0  0  0  0  0
   59.8580   29.3740   46.7190 C   0  0  0  0  0  0  0  0  0  0  0  0
   59.6900   30.7470   46.9810 C   0  0  0  0  0  0  0  0  0  0  0  0
   58.6840   31.4190   46.2840 C   0  0  0  0  0  0  0  0  0  0  0  0
   61.3900   33.9490   47.5160 N   0  0  0  0  0  0  0  0  0  0  0  0
   61.3390   33.9490   48.9860 C   0  0  0  0  0  0  0  0  0  0  0  0
   62.7370   34.0440   49.6070 C   0  0  0  0  0  0  0  0  0  0  0  0
   63.6500   33.0740   48.9850 N   0  0  0  0  0  0  0  0  0  0  0  0
   64.7080   32.4660   49.7600 C   0  0  0  0  0  0  0  0  0  0  0  0
   66.0010   33.0240   49.7680 C   0  0  0  0  0  0  0  0  0  0  0  0
   67.0210   32.4370   50.5220 C   0  0  0  0  0  0  0  0  0  0  0  0
   66.7640   31.2910   51.2790 C   0  0  0  0  0  0  0  0  0  0  0  0
   65.4850   30.7310   51.2840 C   0  0  0  0  0  0  0  0  0  0  0  0
   64.4610   31.3130   50.5300 C   0  0  0  0  0  0  0  0  0  0  0  0
   63.5790   32.8240   47.5360 C   0  0  0  0  0  0  0  0  0  0  0  0
   62.6840   33.8490   46.8310 C   0  0  0  0  0  0  0  0  0  0  0  0
   58.9210   33.3765   48.2512 H   0  0  0  0  0  0  0  0  0  0  0  0
   58.1543   34.6247   47.2069 H   0  0  0  0  0  0  0  0  0  0  0  0
   57.3689   28.9230   44.3667 H   0  0  0  0  0  0  0  0  0  0  0  0
   59.1702   27.6419   45.5863 H   0  0  0  0  0  0  0  0  0  0  0  0
   60.6406   28.8094   47.2469 H   0  0  0  0  0  0  0  0  0  0  0  0
   60.3278   31.2710   47.7080 H   0  0  0  0  0  0  0  0  0  0  0  0
   60.7419   34.8100   49.3210 H   0  0  0  0  0  0  0  0  0  0  0  0
   60.8856   33.0010   49.3111 H   0  0  0  0  0  0  0  0  0  0  0  0
   63.1312   35.0596   49.4549 H   0  0  0  0  0  0  0  0  0  0  0  0
   62.6622   33.8200   50.6814 H   0  0  0  0  0  0  0  0  0  0  0  0
   66.2096   33.9279   49.1769 H   0  0  0  0  0  0  0  0  0  0  0  0
   68.0286   32.8783   50.5195 H   0  0  0  0  0  0  0  0  0  0  0  0
   67.5688   30.8303   51.8706 H   0  0  0  0  0  0  0  0  0  0  0  0
   65.2824   29.8303   51.8821 H   0  0  0  0  0  0  0  0  0  0  0  0
   63.4555   30.8670   50.5384 H   0  0  0  0  0  0  0  0  0  0  0  0
   64.5927   32.8842   47.1131 H   0  0  0  0  0  0  0  0  0  0  0  0
   63.1474   31.8244   47.3796 H   0  0  0  0  0  0  0  0  0  0  0  0
   63.1781   34.8317   46.8428 H   0  0  0  0  0  0  0  0  0  0  0  0
   62.5163   33.5250   45.7932 H   0  0  0  0  0  0  0  0  0  0  0  0
  1  2  2  0
  2  3  1  0
  3  4  1  0
  4  5  1  0
  5  6  2  0
  5  7  1  0
  7  8  1  0
  8  9  2  0
  9 10  1  0
 10 11  2  0
 11 12  1  0
 12 13  2  0
  2 14  1  0
 14 15  1  0
 15 16  1  0
 16 17  1  0
 17 18  1  0
 18 19  2  0
 19 20  1  0
 20 21  2  0
 21 22  1  0
 22 23  2  0
 17 24  1  0
 24 25  1  0
 13  4  1  0
 25 14  1  0
 13  8  1  0
 23 18  1  0
  3 26  1  0
  3 27  1  0
  9 28  1  0
 10 29  1  0
 11 30  1  0
 12 31  1  0
 15 32  1  0
 15 33  1  0
 16 34  1  0
 16 35  1  0
 19 36  1  0
 20 37  1  0
 21 38  1  0
 22 39  1  0
 23 40  1  0
 24 41  1  0
 24 42  1  0
 25 43  1  0
 25 44  1  0
M  END
>  <UniqueID>  (89) 
82

>  <SMILES>  (89) 
O=C(Cn1c(=O)oc2ccccc21)N1CCN(c2ccccc2)CC1

>  <Energy>  (89) 
92.04546163193464

>  <Genealogy>  (89) 
O=C(Cn1c(=O)oc2ccccc21)N1CCN(c2ccccc2)CC1 (3D coordinates assigned)
O=C(Cn1c(=O)oc2ccccc21)N1CCN(c2ccccc2)CC1 (nonaromatic ring conformer: 92.04546163193464 kcal/mol)

>  <smiles>  (89) 
O=C(Cn1c(=O)oc2ccccc21)N1CCN(c2ccccc2)CC1

>  <score_type>  (89) 
oracle

>  <origin>  (89) 
adg

>  <m_score__min__energy>  (89) 
-8.2200000000000006

>  <m_primary>  (89) 
energy

$$$$
89:0
     RDKit          3D

 29 29  0  0  0  0  0  0  0  0999 V2000
   63.7470   33.1080   47.0740 C   0  0  0  0  0  0  0  0  0  0  0  0
   62.5220   33.6100   46.8930 C   0  0  0  0  0  0  0  0  0  0  0  0
   61.5510   33.7760   48.0280 C   0  0  0  0  0  0  0  0  0  0  0  0
   60.5870   34.7580   47.6860 O   0  0  0  0  0  0  0  0  0  0  0  0
   59.2680   34.2880   47.8900 C   0  0  0  0  0  0  0  0  0  0  0  0
   58.7720   33.5070   46.7000 C   0  0  0  0  0  0  0  0  0  0  0  0
   58.9340   32.1150   46.6420 C   0  0  0  0  0  0  0  0  0  0  0  0
   58.5070   31.4010   45.5200 C   0  0  0  0  0  0  0  0  0  0  0  0
   57.8910   32.0650   44.4480 C   0  0  0  0  0  0  0  0  0  0  0  0
   57.4950   31.2910   43.2520 C   0  0  0  0  0  0  0  0  0  0  0  0
   56.5180   30.3750   43.2170 C   0  0  0  0  0  0  0  0  0  0  0  0
   56.2850   29.3670   44.2640 C   0  0  0  0  0  0  0  0  0  0  0  0
   55.1840   29.3420   44.8710 O   0  0  0  0  0  0  0  0  0  0  0  0
   57.7550   33.4630   44.4940 C   0  0  0  0  0  0  0  0  0  0  0  0
   58.1830   34.1770   45.6170 C   0  0  0  0  0  0  0  0  0  0  0  0
   64.4298   33.0017   46.2182 H   0  0  0  0  0  0  0  0  0  0  0  0
   64.0726   32.8010   48.0788 H   0  0  0  0  0  0  0  0  0  0  0  0
   62.2144   33.9114   45.8808 H   0  0  0  0  0  0  0  0  0  0  0  0
   61.0459   32.8182   48.2214 H   0  0  0  0  0  0  0  0  0  0  0  0
   62.0933   34.0936   48.9308 H   0  0  0  0  0  0  0  0  0  0  0  0
   59.2532   33.6371   48.7766 H   0  0  0  0  0  0  0  0  0  0  0  0
   58.6091   35.1572   48.0326 H   0  0  0  0  0  0  0  0  0  0  0  0
   59.3998   31.5828   47.4845 H   0  0  0  0  0  0  0  0  0  0  0  0
   58.6544   30.3118   45.4764 H   0  0  0  0  0  0  0  0  0  0  0  0
   58.0451   31.4821   42.3188 H   0  0  0  0  0  0  0  0  0  0  0  0
   55.8446   30.3763   42.3472 H   0  0  0  0  0  0  0  0  0  0  0  0
   57.0705   28.6388   44.5144 H   0  0  0  0  0  0  0  0  0  0  0  0
   57.3096   33.9980   43.6423 H   0  0  0  0  0  0  0  0  0  0  0  0
   58.0574   35.2693   45.6518 H   0  0  0  0  0  0  0  0  0  0  0  0
  1  2  2  0
  2  3  1  0
  3  4  1  0
  4  5  1  0
  5  6  1  0
  6  7  2  0
  7  8  1  0
  8  9  2  0
  9 10  1  0
 10 11  2  3
 11 12  1  0
 12 13  2  0
  9 14  1  0
 14 15  2  0
 15  6  1  0
  1 16  1  0
  1 17  1  0
  2 18  1  0
  3 19  1  0
  3 20  1  0
  5 21  1  0
  5 22  1  0
  7 23  1  0
  8 24  1  0
 10 25  1  0
 11 26  1  0
 12 27  1  0
 14 28  1  0
 15 29  1  0
M  END
>  <UniqueID>  (90) 
83

>  <SMILES>  (90) 
C=CCOCc1ccc(C=CC=O)cc1

>  <Energy>  (90) 
32.25791696693781

>  <Genealogy>  (90) 
C=CCOCc1ccc(C=CC=O)cc1 (3D coordinates assigned)
C=CCOCc1ccc(C=CC=O)cc1 (optimized conformer: 32.25791696693781 kcal/mol)

>  <smiles>  (90) 
C=CCOCc1ccc(C=CC=O)cc1

>  <score_type>  (90) 
oracle

>  <origin>  (90) 
adg

>  <m_score__min__energy>  (90) 
-6.04

>  <m_primary>  (90) 
energy

$$$$
90:0
     RDKit          3D

 61 64  0  0  0  0  0  0  0  0999 V2000
   60.5620   27.6910   47.5140 C   0  0  0  0  0  0  0  0  0  0  0  0
   59.8560   28.8730   46.9930 N   0  0  0  0  0  0  0  0  0  0  0  0
   60.6670   30.0890   47.2130 C   0  0  0  0  0  0  0  0  0  0  0  0
   60.0560   30.9490   48.2980 C   0  0  0  0  0  0  0  0  0  0  0  0
   60.6060   30.8850   49.5930 C   0  0  0  0  0  0  0  0  0  0  0  0
   60.1220   31.7000   50.6160 C   0  0  0  0  0  0  0  0  0  0  0  0
   59.0870   32.5960   50.3620 C   0  0  0  0  0  0  0  0  0  0  0  0
   58.5240   32.6740   49.0890 C   0  0  0  0  0  0  0  0  0  0  0  0
   58.9820   31.8470   48.0460 C   0  0  0  0  0  0  0  0  0  0  0  0
   58.3280   31.9870   46.6850 C   0  0  0  0  0  0  0  0  0  0  0  0
   58.3490   33.3910   46.2430 N   0  0  0  0  0  0  0  0  0  0  0  0
   57.1730   33.9200   45.5430 C   0  0  0  0  0  0  0  0  0  0  0  0
   59.5010   34.2290   46.4970 C   0  0  0  0  0  0  0  0  0  0  0  0
   59.3690   35.2960   47.1580 O   0  0  0  0  0  0  0  0  0  0  0  0
   60.8770   33.8640   46.0120 C   0  0  0  0  0  0  0  0  0  0  0  0
   61.8220   33.6910   47.1610 C   0  0  0  0  0  0  0  0  0  0  0  0
   61.6290   34.1660   48.4540 C   0  0  0  0  0  0  0  0  0  0  0  0
   62.6710   33.8290   49.3260 C   0  0  0  0  0  0  0  0  0  0  0  0
   63.6800   33.0850   48.7260 C   0  0  0  0  0  0  0  0  0  0  0  0
   63.2720   32.8440   47.1110 S   0  0  0  0  0  0  0  0  0  0  0  0
   59.5280   28.6900   45.5620 C   0  0  0  0  0  0  0  0  0  0  0  0
   58.0400   28.7320   45.3730 C   0  0  0  0  0  0  0  0  0  0  0  0
   57.4050   29.8050   44.8630 N   0  0  0  0  0  0  0  0  0  0  0  0
   56.1150   29.4150   44.8190 C   0  0  0  0  0  0  0  0  0  0  0  0
   55.1940   30.1620   44.3960 O   0  0  0  0  0  0  0  0  0  0  0  0
   55.8910   28.1630   45.2630 N   0  0  0  0  0  0  0  0  0  0  0  0
   57.1160   27.7250   45.6120 C   0  0  0  0  0  0  0  0  0  0  0  0
   57.3590   26.3980   46.2170 C   0  0  0  0  0  0  0  0  0  0  0  0
   57.6360   26.3280   47.4450 O   0  0  0  0  0  0  0  0  0  0  0  0
   57.2280   25.1440   45.4310 C   0  0  0  0  0  0  0  0  0  0  0  0
   57.0960   25.1720   44.0270 C   0  0  0  0  0  0  0  0  0  0  0  0
   56.9860   23.9820   43.3010 C   0  0  0  0  0  0  0  0  0  0  0  0
   57.0100   22.7490   43.9620 C   0  0  0  0  0  0  0  0  0  0  0  0
   56.8820   21.2570   43.0490 Cl  0  0  0  0  0  0  0  0  0  0  0  0
   57.1580   22.7080   45.3530 C   0  0  0  0  0  0  0  0  0  0  0  0
   57.2670   23.8970   46.0840 C   0  0  0  0  0  0  0  0  0  0  0  0
   60.5496   27.7117   48.6137 H   0  0  0  0  0  0  0  0  0  0  0  0
   60.0609   26.7785   47.1588 H   0  0  0  0  0  0  0  0  0  0  0  0
   61.6030   27.6996   47.1588 H   0  0  0  0  0  0  0  0  0  0  0  0
   61.6836   29.7957   47.5140 H   0  0  0  0  0  0  0  0  0  0  0  0
   60.6984   30.6677   46.2781 H   0  0  0  0  0  0  0  0  0  0  0  0
   61.4275   30.1835   49.8001 H   0  0  0  0  0  0  0  0  0  0  0  0
   60.5581   31.6349   51.6238 H   0  0  0  0  0  0  0  0  0  0  0  0
   58.7125   33.2441   51.1680 H   0  0  0  0  0  0  0  0  0  0  0  0
   57.7118   33.3907   48.8972 H   0  0  0  0  0  0  0  0  0  0  0  0
   58.8741   31.3702   45.9561 H   0  0  0  0  0  0  0  0  0  0  0  0
   57.2824   31.6533   46.7576 H   0  0  0  0  0  0  0  0  0  0  0  0
   56.4279   34.2552   46.2795 H   0  0  0  0  0  0  0  0  0  0  0  0
   57.4732   34.7698   44.9123 H   0  0  0  0  0  0  0  0  0  0  0  0
   56.7363   33.1316   44.9123 H   0  0  0  0  0  0  0  0  0  0  0  0
   60.8212   32.9219   45.4470 H   0  0  0  0  0  0  0  0  0  0  0  0
   61.2497   34.6762   45.3706 H   0  0  0  0  0  0  0  0  0  0  0  0
   60.7470   34.7475   48.7603 H   0  0  0  0  0  0  0  0  0  0  0  0
   62.6894   34.1249   50.3853 H   0  0  0  0  0  0  0  0  0  0  0  0
   64.5900   32.7165   49.2220 H   0  0  0  0  0  0  0  0  0  0  0  0
   59.9937   29.4950   44.9746 H   0  0  0  0  0  0  0  0  0  0  0  0
   59.9101   27.7158   45.2232 H   0  0  0  0  0  0  0  0  0  0  0  0
   57.0795   26.1370   43.4993 H   0  0  0  0  0  0  0  0  0  0  0  0
   56.8802   24.0153   42.2066 H   0  0  0  0  0  0  0  0  0  0  0  0
   57.1888   21.7393   45.8732 H   0  0  0  0  0  0  0  0  0  0  0  0
   57.3840   23.8568   47.1770 H   0  0  0  0  0  0  0  0  0  0  0  0
  1  2  1  0
  2  3  1  0
  3  4  1  0
  4  5  2  0
  5  6  1  0
  6  7  2  0
  7  8  1  0
  8  9  2  0
  9 10  1  0
 10 11  1  0
 11 12  1  0
 11 13  1  0
 13 14  2  0
 13 15  1  0
 15 16  1  0
 16 17  2  0
 17 18  1  0
 18 19  2  0
 19 20  1  0
  2 21  1  0
 21 22  1  0
 22 23  1  0
 23 24  1  0
 24 25  2  0
 24 26  1  0
 26 27  1  0
 27 28  1  0
 28 29  2  0
 28 30  1  0
 30 31  2  0
 31 32  1  0
 32 33  2  0
 33 34  1  0
 33 35  1  0
 35 36  2  0
  9  4  1  0
 20 16  1  0
 27 22  2  0
 36 30  1  0
  1 37  1  0
  1 38  1  0
  1 39  1  0
  3 40  1  0
  3 41  1  0
  5 42  1  0
  6 43  1  0
  7 44  1  0
  8 45  1  0
 10 46  1  0
 10 47  1  0
 12 48  1  0
 12 49  1  0
 12 50  1  0
 15 51  1  0
 15 52  1  0
 17 53  1  0
 18 54  1  0
 19 55  1  0
 21 56  1  0
 21 57  1  0
 31 58  1  0
 32 59  1  0
 35 60  1  0
 36 61  1  0
M  CHG  2  23  -1  26  -1
M  END
>  <UniqueID>  (91) 
84

>  <SMILES>  (91) 
CN(Cc1ccccc1CN(C)C(=O)Cc1cccs1)Cc1[n-]c(=O)[n-]c1C(=O)c1ccc(Cl)cc1

>  <Energy>  (91) 
123.73422285127108

>  <Genealogy>  (91) 
CN(Cc1ccccc1CN(C)C(=O)Cc1cccs1)Cc1[n-]c(=O)[n-]c1C(=O)c1ccc(Cl)cc1 (protonated)
CN(Cc1ccccc1CN(C)C(=O)Cc1cccs1)Cc1[n-]c(=O)[n-]c1C(=O)c1ccc(Cl)cc1 (3D coordinates assigned)
CN(Cc1ccccc1CN(C)C(=O)Cc1cccs1)Cc1[n-]c(=O)[n-]c1C(=O)c1ccc(Cl)cc1 (optimized conformer: 123.73422285127108 kcal/mol)

>  <smiles>  (91) 
CN(Cc1ccccc1CN(C)C(=O)Cc1cccs1)Cc1[nH]c(=O)[nH]c1C(=O)c1ccc(Cl)cc1

>  <score_type>  (91) 
oracle

>  <origin>  (91) 
adg

>  <m_score__min__energy>  (91) 
-13.050000000000001

>  <m_primary>  (91) 
energy

$$$$
91:0
     RDKit          3D

 39 42  0  0  0  0  0  0  0  0999 V2000
   56.9840   27.0790   42.7940 H   0  0  0  0  0  0  0  0  0  0  0  0
   57.7780   27.0690   43.4680 N   0  0  0  0  0  0  0  0  0  0  0  0
   57.6310   26.9720   44.7530 C   0  0  0  0  0  0  0  0  0  0  0  0
   57.4820   28.0190   45.6590 C   0  0  0  0  0  0  0  0  0  0  0  0
   57.4600   29.4820   45.4250 C   0  0  0  0  0  0  0  0  0  0  0  0
   56.4680   30.0200   44.8660 O   0  0  0  0  0  0  0  0  0  0  0  0
   58.5940   30.3340   45.8480 C   0  0  0  0  0  0  0  0  0  0  0  0
   59.7490   29.7060   46.3430 C   0  0  0  0  0  0  0  0  0  0  0  0
   59.8009   28.6075   46.3694 H   0  0  0  0  0  0  0  0  0  0  0  0
   60.8300   30.4570   46.8010 C   0  0  0  0  0  0  0  0  0  0  0  0
   61.7272   29.9486   47.1838 H   0  0  0  0  0  0  0  0  0  0  0  0
   60.7790   31.8500   46.7760 C   0  0  0  0  0  0  0  0  0  0  0  0
   61.6330   32.4359   47.1466 H   0  0  0  0  0  0  0  0  0  0  0  0
   59.6450   32.5070   46.2810 C   0  0  0  0  0  0  0  0  0  0  0  0
   59.6070   33.9100   46.2470 C   0  0  0  0  0  0  0  0  0  0  0  0
   60.4611   34.4909   46.6251 H   0  0  0  0  0  0  0  0  0  0  0  0
   58.4890   34.5700   45.7350 C   0  0  0  0  0  0  0  0  0  0  0  0
   58.4616   35.6695   45.7173 H   0  0  0  0  0  0  0  0  0  0  0  0
   57.4070   33.8400   45.2460 C   0  0  0  0  0  0  0  0  0  0  0  0
   56.5328   34.3663   44.8351 H   0  0  0  0  0  0  0  0  0  0  0  0
   57.4270   32.4440   45.2750 C   0  0  0  0  0  0  0  0  0  0  0  0
   56.5693   31.8784   44.8821 H   0  0  0  0  0  0  0  0  0  0  0  0
   58.5380   31.7520   45.8040 C   0  0  0  0  0  0  0  0  0  0  0  0
   57.4030   27.3870   46.8920 C   0  0  0  0  0  0  0  0  0  0  0  0
   57.2806   27.8932   47.8609 H   0  0  0  0  0  0  0  0  0  0  0  0
   57.5000   26.0560   46.7140 N   0  0  0  0  0  0  0  0  0  0  0  0
   57.4620   25.3370   47.4710 H   0  0  0  0  0  0  0  0  0  0  0  0
   57.6320   25.7980   45.4210 N   0  0  0  0  0  0  0  0  0  0  0  0
   57.7660   24.4710   44.8760 C   0  0  0  0  0  0  0  0  0  0  0  0
   58.7790   23.6170   45.3440 C   0  0  0  0  0  0  0  0  0  0  0  0
   59.4731   23.9681   46.1218 H   0  0  0  0  0  0  0  0  0  0  0  0
   58.9110   22.3240   44.8280 C   0  0  0  0  0  0  0  0  0  0  0  0
   59.7106   21.6641   45.1957 H   0  0  0  0  0  0  0  0  0  0  0  0
   58.0270   21.8700   43.8450 C   0  0  0  0  0  0  0  0  0  0  0  0
   58.1337   20.8545   43.4360 H   0  0  0  0  0  0  0  0  0  0  0  0
   57.0080   22.7060   43.3820 C   0  0  0  0  0  0  0  0  0  0  0  0
   56.3092   22.3458   42.6127 H   0  0  0  0  0  0  0  0  0  0  0  0
   56.8750   24.0000   43.8950 C   0  0  0  0  0  0  0  0  0  0  0  0
   56.0690   24.6532   43.5293 H   0  0  0  0  0  0  0  0  0  0  0  0
  1  2  1  0
  2  3  2  0
  3  4  1  0
  4  5  1  0
  5  6  2  0
  5  7  1  0
  7  8  2  0
  8  9  1  0
  8 10  1  0
 10 11  1  0
 10 12  2  0
 12 13  1  0
 12 14  1  0
 14 15  2  0
 15 16  1  0
 15 17  1  0
 17 18  1  0
 17 19  2  0
 19 20  1  0
 19 21  1  0
 21 22  1  0
 21 23  2  0
  4 24  2  0
 24 25  1  0
 24 26  1  0
 26 27  1  0
 26 28  1  0
 28 29  1  0
 29 30  2  0
 30 31  1  0
 30 32  1  0
 32 33  1  0
 32 34  2  0
 34 35  1  0
 34 36  1  0
 36 37  1  0
 36 38  2  0
 38 39  1  0
 28  3  1  0
 38 29  1  0
 23  7  1  0
 23 14  1  0
M  END
>  <UniqueID>  (92) 
85

>  <SMILES>  (92) 
[H]/N=c1\c(C(=O)c2cccc3ccccc23)c[nH]n1-c1ccccc1

>  <Energy>  (92) 
94.58794932754648

>  <Genealogy>  (92) 
[H]/N=c1\c(C(=O)c2cccc3ccccc23)c[nH]n1-c1ccccc1 (cis-trans isomerization)
[H]/N=c1\c(C(=O)c2cccc3ccccc23)c[nH]n1-c1ccccc1 (3D coordinates assigned)
[H]/N=c1\c(C(=O)c2cccc3ccccc23)c[nH]n1-c1ccccc1 (optimized conformer: 94.58794932754648 kcal/mol)

>  <smiles>  (92) 
N=c1c(C(=O)c2cccc3ccccc23)c[nH]n1-c1ccccc1

>  <score_type>  (92) 
oracle

>  <origin>  (92) 
adg

>  <m_score__min__energy>  (92) 
-8.3200000000000003

>  <m_primary>  (92) 
energy

$$$$
92:0
     RDKit          3D

 41 43  0  0  0  0  0  0  0  0999 V2000
   57.3090   19.9310   46.0520 C   0  0  0  0  0  0  0  0  0  0  0  0
   57.3150   21.3260   46.5890 C   0  0  0  0  0  0  0  0  0  0  0  0
   57.2270   21.6150   47.9010 N   0  0  0  0  0  0  0  0  0  0  0  0
   57.2810   22.9090   48.0110 O   0  0  0  0  0  0  0  0  0  0  0  0
   57.4020   23.4870   46.8400 C   0  0  0  0  0  0  0  0  0  0  0  0
   57.4820   24.7830   46.7270 N   0  0  0  0  0  0  0  0  0  0  0  0
   56.6950   25.8420   45.5980 S   0  0  0  0  0  0  0  0  0  0  0  0
   55.3030   26.1540   46.0720 O   0  0  0  0  0  0  0  0  0  0  0  0
   56.6670   25.2120   44.2340 O   0  0  0  0  0  0  0  0  0  0  0  0
   57.5940   27.3580   45.4850 C   0  0  0  0  0  0  0  0  0  0  0  0
   58.9910   27.3600   45.6110 C   0  0  0  0  0  0  0  0  0  0  0  0
   59.7010   28.5610   45.5500 C   0  0  0  0  0  0  0  0  0  0  0  0
   59.0260   29.7650   45.3450 C   0  0  0  0  0  0  0  0  0  0  0  0
   57.6350   29.7800   45.1860 C   0  0  0  0  0  0  0  0  0  0  0  0
   56.9830   31.0420   44.9870 N   0  0  0  0  0  0  0  0  0  0  0  0
   57.6440   32.2970   44.7760 C   0  0  0  0  0  0  0  0  0  0  0  0
   57.7400   32.7600   43.6060 O   0  0  0  0  0  0  0  0  0  0  0  0
   58.2610   33.0290   45.9130 C   0  0  0  0  0  0  0  0  0  0  0  0
   58.2520   32.4550   47.2000 C   0  0  0  0  0  0  0  0  0  0  0  0
   58.8280   33.1250   48.2840 C   0  0  0  0  0  0  0  0  0  0  0  0
   59.4210   34.3740   48.0990 C   0  0  0  0  0  0  0  0  0  0  0  0
   59.4400   34.9570   46.8310 C   0  0  0  0  0  0  0  0  0  0  0  0
   58.8670   34.2940   45.7400 C   0  0  0  0  0  0  0  0  0  0  0  0
   58.9100   34.8970   44.5250 F   0  0  0  0  0  0  0  0  0  0  0  0
   56.9130   28.5740   45.2910 C   0  0  0  0  0  0  0  0  0  0  0  0
   55.5210   28.5830   45.2390 O   0  0  0  0  0  0  0  0  0  0  0  0
   57.4230   22.4980   45.8540 C   0  0  0  0  0  0  0  0  0  0  0  0
   57.6040   22.5890   44.3670 C   0  0  0  0  0  0  0  0  0  0  0  0
   57.3059   19.2162   46.8881 H   0  0  0  0  0  0  0  0  0  0  0  0
   56.4102   19.7790   45.4363 H   0  0  0  0  0  0  0  0  0  0  0  0
   58.2065   19.7712   45.4363 H   0  0  0  0  0  0  0  0  0  0  0  0
   59.5293   26.4121   45.7584 H   0  0  0  0  0  0  0  0  0  0  0  0
   60.7951   28.5579   45.6638 H   0  0  0  0  0  0  0  0  0  0  0  0
   59.5904   30.7084   45.3081 H   0  0  0  0  0  0  0  0  0  0  0  0
   57.7872   31.4699   47.3535 H   0  0  0  0  0  0  0  0  0  0  0  0
   58.8134   32.6665   49.2838 H   0  0  0  0  0  0  0  0  0  0  0  0
   59.8738   34.8996   48.9527 H   0  0  0  0  0  0  0  0  0  0  0  0
   59.9077   35.9424   46.6886 H   0  0  0  0  0  0  0  0  0  0  0  0
   58.5663   23.0728   44.1437 H   0  0  0  0  0  0  0  0  0  0  0  0
   57.5926   21.5780   43.9337 H   0  0  0  0  0  0  0  0  0  0  0  0
   56.7857   23.1829   43.9337 H   0  0  0  0  0  0  0  0  0  0  0  0
  1  2  1  0
  2  3  1  0
  3  4  1  0
  4  5  1  0
  5  6  2  3
  6  7  1  0
  7  8  2  0
  7  9  2  0
  7 10  1  0
 10 11  2  0
 11 12  1  0
 12 13  2  0
 13 14  1  0
 14 15  1  0
 15 16  1  0
 16 17  2  0
 16 18  1  0
 18 19  2  0
 19 20  1  0
 20 21  2  0
 21 22  1  0
 22 23  2  0
 23 24  1  0
 14 25  2  0
 25 26  1  0
  5 27  1  0
 27 28  1  0
 27  2  2  0
 25 10  1  0
 23 18  1  0
  1 29  1  0
  1 30  1  0
  1 31  1  0
 11 32  1  0
 12 33  1  0
 13 34  1  0
 19 35  1  0
 20 36  1  0
 21 37  1  0
 22 38  1  0
 28 39  1  0
 28 40  1  0
 28 41  1  0
M  CHG  3   3  -1  15  -1  26  -1
M  END
>  <UniqueID>  (93) 
86

>  <SMILES>  (93) 
Cc1[n-]oc(=NS(=O)(=O)c2cccc([N-]C(=O)c3ccccc3F)c2[O-])c1C

>  <Energy>  (93) 
92.49362867605183

>  <Genealogy>  (93) 
Cc1[n-]oc(=NS(=O)(=O)c2cccc([N-]C(=O)c3ccccc3F)c2[O-])c1C (protonated)
Cc1[n-]oc(=NS(=O)(=O)c2cccc([N-]C(=O)c3ccccc3F)c2[O-])c1C (3D coordinates assigned)
Cc1[n-]oc(=NS(=O)(=O)c2cccc([N-]C(=O)c3ccccc3F)c2[O-])c1C (optimized conformer: 92.49362867605183 kcal/mol)

>  <smiles>  (93) 
Cc1[nH]oc(=NS(=O)(=O)c2cccc(NC(=O)c3ccccc3F)c2O)c1C

>  <score_type>  (93) 
oracle

>  <origin>  (93) 
adg

>  <m_score__min__energy>  (93) 
-16.199999999999999

>  <m_primary>  (93) 
energy

$$$$
93:0
     RDKit          3D

 71 74  0  0  0  0  0  0  0  0999 V2000
   58.1690   32.3240   51.3930 C   0  0  0  0  0  0  0  0  0  0  0  0
   58.5580   31.0270   50.6910 C   0  0  0  0  0  0  0  0  0  0  0  0
   59.1360   31.2940   49.4130 O   0  0  0  0  0  0  0  0  0  0  0  0
   60.4750   31.0330   49.1050 C   0  0  0  0  0  0  0  0  0  0  0  0
   60.8640   31.0380   47.9050 O   0  0  0  0  0  0  0  0  0  0  0  0
   61.4380   30.7260   50.1840 C   0  0  0  0  0  0  0  0  0  0  0  0
   61.6770   29.3760   50.4930 C   0  0  0  0  0  0  0  0  0  0  0  0
   62.5270   29.0220   51.5420 C   0  0  0  0  0  0  0  0  0  0  0  0
   63.1460   30.0110   52.3000 C   0  0  0  0  0  0  0  0  0  0  0  0
   62.9410   31.3580   51.9990 C   0  0  0  0  0  0  0  0  0  0  0  0
   62.1140   31.7400   50.9220 C   0  0  0  0  0  0  0  0  0  0  0  0
   61.9710   33.2150   50.5780 C   0  0  0  0  0  0  0  0  0  0  0  0
   62.0680   33.4560   49.1160 N   0  0  0  0  0  0  0  0  0  0  0  0
   61.0240   34.0090   48.3880 C   0  0  0  0  0  0  0  0  0  0  0  0
   59.7250   34.3810   49.0790 C   0  0  0  0  0  0  0  0  0  0  0  0
   61.1750   34.2020   46.9820 C   0  0  0  0  0  0  0  0  0  0  0  0
   60.0720   34.7410   46.0880 C   0  0  0  0  0  0  0  0  0  0  0  0
   59.1270   33.6540   45.6330 C   0  0  0  0  0  0  0  0  0  0  0  0
   58.5900   33.6670   44.3330 C   0  0  0  0  0  0  0  0  0  0  0  0
   57.6840   32.6820   43.9290 C   0  0  0  0  0  0  0  0  0  0  0  0
   57.2670   31.6860   44.8350 C   0  0  0  0  0  0  0  0  0  0  0  0
   56.3400   30.6850   44.4960 O   0  0  0  0  0  0  0  0  0  0  0  0
   56.4300   29.8170   43.3670 C   0  0  0  0  0  0  0  0  0  0  0  0
   57.4400   28.6630   43.5770 C   0  0  0  0  0  0  0  0  0  0  0  0
   58.1780   28.6550   44.8680 N   0  0  0  0  0  0  0  0  0  0  0  0
   59.6060   29.0160   44.7200 C   0  0  0  0  0  0  0  0  0  0  0  0
   60.3850   28.7860   46.0320 C   0  0  0  0  0  0  0  0  0  0  0  0
   59.5090   28.6970   47.1400 O   0  0  0  0  0  0  0  0  0  0  0  0
   58.6970   27.5420   47.0290 C   0  0  0  0  0  0  0  0  0  0  0  0
   58.0230   27.4090   45.6430 C   0  0  0  0  0  0  0  0  0  0  0  0
   57.7890   31.6870   46.1330 C   0  0  0  0  0  0  0  0  0  0  0  0
   58.7080   32.6620   46.5320 C   0  0  0  0  0  0  0  0  0  0  0  0
   62.3820   33.8350   46.3750 C   0  0  0  0  0  0  0  0  0  0  0  0
   63.4120   33.3010   47.1250 C   0  0  0  0  0  0  0  0  0  0  0  0
   63.2470   33.1150   48.4920 C   0  0  0  0  0  0  0  0  0  0  0  0
   64.2070   32.6210   49.1490 O   0  0  0  0  0  0  0  0  0  0  0  0
   58.2126   32.1786   52.4825 H   0  0  0  0  0  0  0  0  0  0  0  0
   58.8672   33.1224   51.1014 H   0  0  0  0  0  0  0  0  0  0  0  0
   57.1466   32.6064   51.1014 H   0  0  0  0  0  0  0  0  0  0  0  0
   59.2885   30.4867   51.3111 H   0  0  0  0  0  0  0  0  0  0  0  0
   57.6524   30.4192   50.5476 H   0  0  0  0  0  0  0  0  0  0  0  0
   61.1881   28.5885   49.9007 H   0  0  0  0  0  0  0  0  0  0  0  0
   62.7075   27.9610   51.7694 H   0  0  0  0  0  0  0  0  0  0  0  0
   63.7991   29.7301   53.1393 H   0  0  0  0  0  0  0  0  0  0  0  0
   63.4303   32.1315   52.6091 H   0  0  0  0  0  0  0  0  0  0  0  0
   60.9917   33.5692   50.9323 H   0  0  0  0  0  0  0  0  0  0  0  0
   62.7916   33.7597   51.0678 H   0  0  0  0  0  0  0  0  0  0  0  0
   59.8651   34.3409   50.1693 H   0  0  0  0  0  0  0  0  0  0  0  0
   59.4314   35.3993   48.7843 H   0  0  0  0  0  0  0  0  0  0  0  0
   58.9369   33.6724   48.7843 H   0  0  0  0  0  0  0  0  0  0  0  0
   59.5005   35.4969   46.6465 H   0  0  0  0  0  0  0  0  0  0  0  0
   60.5429   35.1763   45.1943 H   0  0  0  0  0  0  0  0  0  0  0  0
   58.8853   34.4586   43.6286 H   0  0  0  0  0  0  0  0  0  0  0  0
   57.2950   32.6842   42.9001 H   0  0  0  0  0  0  0  0  0  0  0  0
   55.4368   29.3845   43.1761 H   0  0  0  0  0  0  0  0  0  0  0  0
   56.7843   30.4166   42.5155 H   0  0  0  0  0  0  0  0  0  0  0  0
   56.8856   27.7158   43.5029 H   0  0  0  0  0  0  0  0  0  0  0  0
   58.2086   28.8038   42.8027 H   0  0  0  0  0  0  0  0  0  0  0  0
   57.7410   29.4220   45.4360 H   0  0  0  0  0  0  0  0  0  0  0  0
   60.0510   28.3974   43.9267 H   0  0  0  0  0  0  0  0  0  0  0  0
   59.6678   30.0840   44.4639 H   0  0  0  0  0  0  0  0  0  0  0  0
   60.9562   27.8495   45.9504 H   0  0  0  0  0  0  0  0  0  0  0  0
   61.0598   29.6402   46.1900 H   0  0  0  0  0  0  0  0  0  0  0  0
   59.3240   26.6547   47.2006 H   0  0  0  0  0  0  0  0  0  0  0  0
   57.8960   27.6293   47.7778 H   0  0  0  0  0  0  0  0  0  0  0  0
   58.4907   26.5799   45.0917 H   0  0  0  0  0  0  0  0  0  0  0  0
   56.9504   27.2128   45.7878 H   0  0  0  0  0  0  0  0  0  0  0  0
   57.4730   30.9124   46.8472 H   0  0  0  0  0  0  0  0  0  0  0  0
   59.1052   32.6512   47.5577 H   0  0  0  0  0  0  0  0  0  0  0  0
   62.5114   33.9730   45.2914 H   0  0  0  0  0  0  0  0  0  0  0  0
   64.3602   33.0238   46.6412 H   0  0  0  0  0  0  0  0  0  0  0  0
  1  2  1  0
  2  3  1  0
  3  4  1  0
  4  5  2  0
  4  6  1  0
  6  7  2  0
  7  8  1  0
  8  9  2  0
  9 10  1  0
 10 11  2  0
 11 12  1  0
 12 13  1  0
 13 14  1  0
 14 15  1  0
 14 16  2  0
 16 17  1  0
 17 18  1  0
 18 19  2  0
 19 20  1  0
 20 21  2  0
 21 22  1  0
 22 23  1  0
 23 24  1  0
 24 25  1  0
 25 26  1  0
 26 27  1  0
 27 28  1  0
 28 29  1  0
 29 30  1  0
 21 31  1  0
 31 32  2  0
 16 33  1  0
 33 34  2  0
 34 35  1  0
 35 36  2  0
 11  6  1  0
 35 13  1  0
 32 18  1  0
 30 25  1  0
  1 37  1  0
  1 38  1  0
  1 39  1  0
  2 40  1  0
  2 41  1  0
  7 42  1  0
  8 43  1  0
  9 44  1  0
 10 45  1  0
 12 46  1  0
 12 47  1  0
 15 48  1  0
 15 49  1  0
 15 50  1  0
 17 51  1  0
 17 52  1  0
 19 53  1  0
 20 54  1  0
 23 55  1  0
 23 56  1  0
 24 57  1  0
 24 58  1  0
 25 59  1  0
 26 60  1  0
 26 61  1  0
 27 62  1  0
 27 63  1  0
 29 64  1  0
 29 65  1  0
 30 66  1  0
 30 67  1  0
 31 68  1  0
 32 69  1  0
 33 70  1  0
 34 71  1  0
M  CHG  1  25   1
M  END
>  <UniqueID>  (94) 
87

>  <SMILES>  (94) 
CCOC(=O)c1ccccc1Cn1c(C)c(Cc2ccc(OCC[NH+]3CCOCC3)cc2)ccc1=O

>  <Energy>  (94) 
100.02757187466769

>  <Genealogy>  (94) 
CCOC(=O)c1ccccc1Cn1c(C)c(Cc2ccc(OCC[NH+]3CCOCC3)cc2)ccc1=O (protonated)
CCOC(=O)c1ccccc1Cn1c(C)c(Cc2ccc(OCC[NH+]3CCOCC3)cc2)ccc1=O (3D coordinates assigned)
CCOC(=O)c1ccccc1Cn1c(C)c(Cc2ccc(OCC[NH+]3CCOCC3)cc2)ccc1=O (nonaromatic ring conformer: 100.02757187466769 kcal/mol)

>  <smiles>  (94) 
CCOC(=O)c1ccccc1Cn1c(C)c(Cc2ccc(OCCN3CCOCC3)cc2)ccc1=O

>  <score_type>  (94) 
oracle

>  <origin>  (94) 
adg

>  <m_score__min__energy>  (94) 
-7.4199999999999999

>  <m_primary>  (94) 
energy

$$$$
94:0
     RDKit          3D

 36 37  0  0  0  0  0  0  0  0999 V2000
   61.8130   31.2120   47.6380 C   0  0  0  0  0  0  0  0  0  0  0  0
   60.0800   31.0430   48.0020 S   0  0  0  0  0  0  0  0  0  0  0  0
   59.7310   31.9330   49.1620 O   0  0  0  0  0  0  0  0  0  0  0  0
   59.7750   29.6180   48.3740 O   0  0  0  0  0  0  0  0  0  0  0  0
   59.1420   31.4930   46.5830 C   0  0  0  0  0  0  0  0  0  0  0  0
   59.2620   32.7720   46.0200 C   0  0  0  0  0  0  0  0  0  0  0  0
   58.5350   33.1040   44.8740 C   0  0  0  0  0  0  0  0  0  0  0  0
   57.6910   32.1620   44.2800 C   0  0  0  0  0  0  0  0  0  0  0  0
   57.5670   30.8820   44.8330 C   0  0  0  0  0  0  0  0  0  0  0  0
   56.5470   29.6860   44.0380 S   0  0  0  0  0  0  0  0  0  0  0  0
   55.4310   30.3460   43.2770 O   0  0  0  0  0  0  0  0  0  0  0  0
   57.3880   28.8960   43.0740 O   0  0  0  0  0  0  0  0  0  0  0  0
   55.8790   28.6140   45.2250 N   0  0  0  0  0  0  0  0  0  0  0  0
   56.5500   27.4750   45.7830 C   0  0  0  0  0  0  0  0  0  0  0  0
   57.9400   27.4670   46.0080 C   0  0  0  0  0  0  0  0  0  0  0  0
   58.5780   26.3250   46.5260 C   0  0  0  0  0  0  0  0  0  0  0  0
   60.0460   26.3340   46.7460 C   0  0  0  0  0  0  0  0  0  0  0  0
   60.6420   27.1360   47.7690 N   0  0  0  0  0  0  0  0  0  0  0  0
   60.7890   25.6110   46.0290 O   0  0  0  0  0  0  0  0  0  0  0  0
   57.8020   25.1990   46.8490 C   0  0  0  0  0  0  0  0  0  0  0  0
   56.4210   25.2100   46.6420 C   0  0  0  0  0  0  0  0  0  0  0  0
   55.7960   26.3400   46.1110 C   0  0  0  0  0  0  0  0  0  0  0  0
   54.4210   26.3310   45.9060 O   0  0  0  0  0  0  0  0  0  0  0  0
   58.2900   30.5520   45.9890 C   0  0  0  0  0  0  0  0  0  0  0  0
   62.3814   31.2674   48.5781 H   0  0  0  0  0  0  0  0  0  0  0  0
   62.1518   30.3426   47.0554 H   0  0  0  0  0  0  0  0  0  0  0  0
   61.9774   32.1304   47.0554 H   0  0  0  0  0  0  0  0  0  0  0  0
   59.9294   33.5147   46.4814 H   0  0  0  0  0  0  0  0  0  0  0  0
   58.6273   34.1097   44.4381 H   0  0  0  0  0  0  0  0  0  0  0  0
   57.1229   32.4268   43.3760 H   0  0  0  0  0  0  0  0  0  0  0  0
   58.5336   28.3636   45.7762 H   0  0  0  0  0  0  0  0  0  0  0  0
   61.6820   27.1640   47.8670 H   0  0  0  0  0  0  0  0  0  0  0  0
   60.0670   27.6310   48.4850 H   0  0  0  0  0  0  0  0  0  0  0  0
   58.2851   24.3037   47.2673 H   0  0  0  0  0  0  0  0  0  0  0  0
   55.8223   24.3236   46.8987 H   0  0  0  0  0  0  0  0  0  0  0  0
   58.1877   29.5500   46.4313 H   0  0  0  0  0  0  0  0  0  0  0  0
  1  2  1  0
  2  3  2  0
  2  4  2  0
  2  5  1  0
  5  6  2  0
  6  7  1  0
  7  8  2  0
  8  9  1  0
  9 10  1  0
 10 11  2  0
 10 12  2  0
 10 13  1  0
 13 14  1  0
 14 15  2  0
 15 16  1  0
 16 17  1  0
 17 18  1  0
 17 19  2  0
 16 20  2  0
 20 21  1  0
 21 22  2  0
 22 23  1  0
  9 24  2  0
 24  5  1  0
 22 14  1  0
  1 25  1  0
  1 26  1  0
  1 27  1  0
  6 28  1  0
  7 29  1  0
  8 30  1  0
 15 31  1  0
 18 32  1  0
 18 33  1  0
 20 34  1  0
 21 35  1  0
 24 36  1  0
M  CHG  2  13  -1  23  -1
M  END
>  <UniqueID>  (95) 
88

>  <SMILES>  (95) 
CS(=O)(=O)c1cccc(S(=O)(=O)[N-]c2cc(C(N)=O)ccc2[O-])c1

>  <Energy>  (95) 
37.64601591119037

>  <Genealogy>  (95) 
CS(=O)(=O)c1cccc(S(=O)(=O)[N-]c2cc(C(N)=O)ccc2[O-])c1 (protonated)
CS(=O)(=O)c1cccc(S(=O)(=O)[N-]c2cc(C(N)=O)ccc2[O-])c1 (3D coordinates assigned)
CS(=O)(=O)c1cccc(S(=O)(=O)[N-]c2cc(C(N)=O)ccc2[O-])c1 (optimized conformer: 37.64601591119037 kcal/mol)

>  <smiles>  (95) 
CS(=O)(=O)c1cccc(S(=O)(=O)Nc2cc(C(N)=O)ccc2O)c1

>  <score_type>  (95) 
oracle

>  <origin>  (95) 
adg

>  <m_score__min__energy>  (95) 
-14.369999999999999

>  <m_primary>  (95) 
energy

$$$$
