0:0
     RDKit          3D

 48 50  0  0  0  0  0  0  0  0999 V2000
   55.1450   26.7010   45.9920 N   0  0  0  0  0  0  0  0  0  0  0  0
   56.2270   25.3620   46.1350 S   0  0  0  0  0  0  0  0  0  0  0  0
   55.7560   24.4480   47.2310 O   0  0  0  0  0  0  0  0  0  0  0  0
   56.2460   24.5950   44.8430 O   0  0  0  0  0  0  0  0  0  0  0  0
   57.8450   25.9510   46.5050 C   0  0  0  0  0  0  0  0  0  0  0  0
   58.9690   25.2220   46.1000 C   0  0  0  0  0  0  0  0  0  0  0  0
   60.2510   25.7050   46.3690 C   0  0  0  0  0  0  0  0  0  0  0  0
   60.4180   26.9170   47.0430 C   0  0  0  0  0  0  0  0  0  0  0  0
   59.3000   27.6600   47.4620 C   0  0  0  0  0  0  0  0  0  0  0  0
   59.4930   28.9500   48.1670 C   0  0  0  0  0  0  0  0  0  0  0  0
   58.5440   29.4260   48.8480 O   0  0  0  0  0  0  0  0  0  0  0  0
   60.7310   29.6750   48.0700 N   0  0  0  0  0  0  0  0  0  0  0  0
   60.9720   30.9090   48.8170 C   0  0  0  0  0  0  0  0  0  0  0  0
   60.4160   32.0900   48.0680 C   0  0  0  0  0  0  0  0  0  0  0  0
   60.8900   33.3790   48.3480 C   0  0  0  0  0  0  0  0  0  0  0  0
   60.4010   34.4760   47.6370 C   0  0  0  0  0  0  0  0  0  0  0  0
   59.4410   34.2980   46.6360 C   0  0  0  0  0  0  0  0  0  0  0  0
   58.9890   35.3910   45.9720 F   0  0  0  0  0  0  0  0  0  0  0  0
   58.9610   33.0080   46.3370 C   0  0  0  0  0  0  0  0  0  0  0  0
   57.7520   32.7500   45.0610 S   0  0  0  0  0  0  0  0  0  0  0  0
   58.3800   32.9720   43.7140 O   0  0  0  0  0  0  0  0  0  0  0  0
   56.6540   33.7630   45.2320 O   0  0  0  0  0  0  0  0  0  0  0  0
   57.0720   31.1340   45.0530 N   0  0  0  0  0  0  0  0  0  0  0  0
   56.3300   30.8350   43.8240 C   0  0  0  0  0  0  0  0  0  0  0  0
   56.5050   29.3540   43.5600 C   0  0  0  0  0  0  0  0  0  0  0  0
   57.8560   29.0280   44.1570 C   0  0  0  0  0  0  0  0  0  0  0  0
   58.0750   30.0780   45.2380 C   0  0  0  0  0  0  0  0  0  0  0  0
   59.4470   31.9130   47.0690 C   0  0  0  0  0  0  0  0  0  0  0  0
   58.0110   27.1710   47.1760 C   0  0  0  0  0  0  0  0  0  0  0  0
   54.9970   27.0780   46.9550 H   0  0  0  0  0  0  0  0  0  0  0  0
   58.8421   24.2671   45.5690 H   0  0  0  0  0  0  0  0  0  0  0  0
   61.1322   25.1294   46.0492 H   0  0  0  0  0  0  0  0  0  0  0  0
   61.4313   27.2930   47.2475 H   0  0  0  0  0  0  0  0  0  0  0  0
   61.4720   29.3580   47.4080 H   0  0  0  0  0  0  0  0  0  0  0  0
   60.4829   30.8396   49.7998 H   0  0  0  0  0  0  0  0  0  0  0  0
   62.0562   31.0442   48.9444 H   0  0  0  0  0  0  0  0  0  0  0  0
   61.6493   33.5264   49.1301 H   0  0  0  0  0  0  0  0  0  0  0  0
   60.7727   35.4858   47.8653 H   0  0  0  0  0  0  0  0  0  0  0  0
   55.2644   31.0731   43.9570 H   0  0  0  0  0  0  0  0  0  0  0  0
   56.7033   31.4343   42.9805 H   0  0  0  0  0  0  0  0  0  0  0  0
   55.7107   28.7735   44.0520 H   0  0  0  0  0  0  0  0  0  0  0  0
   56.4465   29.1069   42.4897 H   0  0  0  0  0  0  0  0  0  0  0  0
   57.8518   28.0186   44.5941 H   0  0  0  0  0  0  0  0  0  0  0  0
   58.6550   29.0414   43.4011 H   0  0  0  0  0  0  0  0  0  0  0  0
   57.9574   29.6212   46.2317 H   0  0  0  0  0  0  0  0  0  0  0  0
   59.0895   30.4968   45.1647 H   0  0  0  0  0  0  0  0  0  0  0  0
   59.0634   30.9041   46.8567 H   0  0  0  0  0  0  0  0  0  0  0  0
   57.1273   27.7505   47.4813 H   0  0  0  0  0  0  0  0  0  0  0  0
  1  2  1  0
  2  3  2  0
  2  4  2  0
  2  5  1  0
  5  6  2  0
  6  7  1  0
  7  8  2  0
  8  9  1  0
  9 10  1  0
 10 11  2  0
 10 12  1  0
 12 13  1  0
 13 14  1  0
 14 15  2  0
 15 16  1  0
 16 17  2  0
 17 18  1  0
 17 19  1  0
 19 20  1  0
 20 21  2  0
 20 22  2  0
 20 23  1  0
 23 24  1  0
 24 25  1  0
 25 26  1  0
 26 27  1  0
 19 28  2  0
  9 29  2  0
 29  5  1  0
 28 14  1  0
 27 23  1  0
  1 30  1  0
  6 31  1  0
  7 32  1  0
  8 33  1  0
 12 34  1  0
 13 35  1  0
 13 36  1  0
 15 37  1  0
 16 38  1  0
 24 39  1  0
 24 40  1  0
 25 41  1  0
 25 42  1  0
 26 43  1  0
 26 44  1  0
 27 45  1  0
 27 46  1  0
 28 47  1  0
 29 48  1  0
M  CHG  1   1  -1
M  END
>  <UniqueID>  (1) 
1

>  <SMILES>  (1) 
[NH-]S(=O)(=O)c1cccc(C(=O)NCc2ccc(F)c(S(=O)(=O)N3CCCC3)c2)c1

>  <Energy>  (1) 
52.249814281847804

>  <Genealogy>  (1) 
[NH-]S(=O)(=O)c1cccc(C(=O)NCc2ccc(F)c(S(=O)(=O)N3CCCC3)c2)c1 (protonated)
[NH-]S(=O)(=O)c1cccc(C(=O)NCc2ccc(F)c(S(=O)(=O)N3CCCC3)c2)c1 (3D coordinates assigned)
[NH-]S(=O)(=O)c1cccc(C(=O)NCc2ccc(F)c(S(=O)(=O)N3CCCC3)c2)c1 (nonaromatic ring conformer: 52.249814281847804 kcal/mol)

>  <smiles>  (1) 
NS(=O)(=O)c1cccc(C(=O)NCc2ccc(F)c(S(=O)(=O)N3CCCC3)c2)c1

>  <score_type>  (1) 
oracle

>  <origin>  (1) 
adg

>  <m_score__min__energy>  (1) 
-12.67

>  <m_primary>  (1) 
energy

$$$$
1:0
     RDKit          3D

 44 46  0  0  0  0  0  0  0  0999 V2000
   56.1480   26.0860   46.9660 O   0  0  0  0  0  0  0  0  0  0  0  0
   57.1320   26.7580   46.5600 C   0  0  0  0  0  0  0  0  0  0  0  0
   57.0370   27.4110   45.2130 C   0  0  0  0  0  0  0  0  0  0  0  0
   55.9930   28.4290   45.2450 N   0  0  0  0  0  0  0  0  0  0  0  0
   55.9160   29.5400   44.3440 C   0  0  0  0  0  0  0  0  0  0  0  0
   55.0580   29.5200   43.4240 O   0  0  0  0  0  0  0  0  0  0  0  0
   56.8000   30.7130   44.4750 C   0  0  0  0  0  0  0  0  0  0  0  0
   57.4610   30.9760   45.6860 C   0  0  0  0  0  0  0  0  0  0  0  0
   58.3050   32.0840   45.8020 C   0  0  0  0  0  0  0  0  0  0  0  0
   58.5090   32.9270   44.7050 C   0  0  0  0  0  0  0  0  0  0  0  0
   59.5710   34.3160   44.8520 Cl  0  0  0  0  0  0  0  0  0  0  0  0
   57.8730   32.6560   43.4890 C   0  0  0  0  0  0  0  0  0  0  0  0
   57.0270   31.5490   43.3710 C   0  0  0  0  0  0  0  0  0  0  0  0
   58.3060   26.8130   47.3870 N   0  0  0  0  0  0  0  0  0  0  0  0
   59.3760   27.8140   47.4320 C   0  0  0  0  0  0  0  0  0  0  0  0
   59.5830   28.4990   46.0720 C   0  0  0  0  0  0  0  0  0  0  0  0
   60.7530   29.4850   46.1570 C   0  0  0  0  0  0  0  0  0  0  0  0
   60.6510   30.3660   47.3320 N   0  0  0  0  0  0  0  0  0  0  0  0
   61.6280   31.4160   47.5020 C   0  0  0  0  0  0  0  0  0  0  0  0
   61.5320   32.5740   46.7930 N   0  0  0  0  0  0  0  0  0  0  0  0
   62.4450   33.5680   46.9400 C   0  0  0  0  0  0  0  0  0  0  0  0
   63.5070   33.4110   47.8280 C   0  0  0  0  0  0  0  0  0  0  0  0
   63.5980   32.2210   48.5480 C   0  0  0  0  0  0  0  0  0  0  0  0
   62.6630   31.2510   48.3730 N   0  0  0  0  0  0  0  0  0  0  0  0
   59.4870   30.2680   48.2300 C   0  0  0  0  0  0  0  0  0  0  0  0
   59.1920   28.8070   48.6070 C   0  0  0  0  0  0  0  0  0  0  0  0
   58.0002   27.8798   44.9628 H   0  0  0  0  0  0  0  0  0  0  0  0
   56.7920   26.6548   44.4526 H   0  0  0  0  0  0  0  0  0  0  0  0
   57.3138   30.3071   46.5468 H   0  0  0  0  0  0  0  0  0  0  0  0
   58.8092   32.2931   46.7570 H   0  0  0  0  0  0  0  0  0  0  0  0
   58.0387   33.3150   42.6240 H   0  0  0  0  0  0  0  0  0  0  0  0
   56.5379   31.3328   42.4098 H   0  0  0  0  0  0  0  0  0  0  0  0
   60.3163   27.2822   47.6392 H   0  0  0  0  0  0  0  0  0  0  0  0
   59.8028   27.7371   45.3096 H   0  0  0  0  0  0  0  0  0  0  0  0
   58.6682   29.0454   45.7989 H   0  0  0  0  0  0  0  0  0  0  0  0
   61.6923   28.9161   46.2208 H   0  0  0  0  0  0  0  0  0  0  0  0
   60.7293   30.1169   45.2569 H   0  0  0  0  0  0  0  0  0  0  0  0
   62.3463   34.4965   46.3585 H   0  0  0  0  0  0  0  0  0  0  0  0
   64.2554   34.2067   47.9577 H   0  0  0  0  0  0  0  0  0  0  0  0
   64.4253   32.0675   49.2566 H   0  0  0  0  0  0  0  0  0  0  0  0
   59.6930   30.8398   49.1469 H   0  0  0  0  0  0  0  0  0  0  0  0
   58.6096   30.6746   47.7058 H   0  0  0  0  0  0  0  0  0  0  0  0
   59.8722   28.5135   49.4201 H   0  0  0  0  0  0  0  0  0  0  0  0
   58.1350   28.7586   48.9078 H   0  0  0  0  0  0  0  0  0  0  0  0
  1  2  2  0
  2  3  1  0
  3  4  1  0
  4  5  1  0
  5  6  2  0
  5  7  1  0
  7  8  2  0
  8  9  1  0
  9 10  2  0
 10 11  1  0
 10 12  1  0
 12 13  2  0
  2 14  1  0
 14 15  1  0
 15 16  1  0
 16 17  1  0
 17 18  1  0
 18 19  1  0
 19 20  2  0
 20 21  1  0
 21 22  2  0
 22 23  1  0
 23 24  2  0
 18 25  1  0
 25 26  1  0
 13  7  1  0
 26 15  1  0
 24 19  1  0
  3 27  1  0
  3 28  1  0
  8 29  1  0
  9 30  1  0
 12 31  1  0
 13 32  1  0
 15 33  1  0
 16 34  1  0
 16 35  1  0
 17 36  1  0
 17 37  1  0
 21 38  1  0
 22 39  1  0
 23 40  1  0
 25 41  1  0
 25 42  1  0
 26 43  1  0
 26 44  1  0
M  CHG  2   4  -1  14  -1
M  END
>  <UniqueID>  (2) 
2

>  <SMILES>  (2) 
O=C(C[N-]C(=O)c1ccc(Cl)cc1)[N-]C1CCN(c2ncccn2)CC1

>  <Energy>  (2) 
52.28951596556418

>  <Genealogy>  (2) 
O=C(C[N-]C(=O)c1ccc(Cl)cc1)[N-]C1CCN(c2ncccn2)CC1 (protonated)
O=C(C[N-]C(=O)c1ccc(Cl)cc1)[N-]C1CCN(c2ncccn2)CC1 (3D coordinates assigned)
O=C(C[N-]C(=O)c1ccc(Cl)cc1)[N-]C1CCN(c2ncccn2)CC1 (nonaromatic ring conformer: 52.28951596556418 kcal/mol)

>  <smiles>  (2) 
O=C(CNC(=O)c1ccc(Cl)cc1)NC1CCN(c2ncccn2)CC1

>  <score_type>  (2) 
oracle

>  <origin>  (2) 
adg

>  <m_score__min__energy>  (2) 
-11.57

>  <m_primary>  (2) 
energy

$$$$
2:0
     RDKit          3D

 38 39  0  0  0  0  0  0  0  0999 V2000
   54.3530   26.0010   45.9030 N   0  0  0  0  0  0  0  0  0  0  0  0
   55.7150   25.8310   46.2870 C   0  0  0  0  0  0  0  0  0  0  0  0
   56.0470   24.8510   47.0060 O   0  0  0  0  0  0  0  0  0  0  0  0
   56.7540   26.7980   45.8110 C   0  0  0  0  0  0  0  0  0  0  0  0
   56.1260   28.0000   45.2610 N   0  0  0  0  0  0  0  0  0  0  0  0
   56.7480   29.3020   45.2190 C   0  0  0  0  0  0  0  0  0  0  0  0
   57.9060   29.5890   45.9680 C   0  0  0  0  0  0  0  0  0  0  0  0
   58.4680   30.8770   45.9680 C   0  0  0  0  0  0  0  0  0  0  0  0
   59.6690   31.1640   46.8400 C   0  0  0  0  0  0  0  0  0  0  0  0
   59.2930   31.9260   48.0430 N   0  0  0  0  0  0  0  0  0  0  0  0
   59.8420   33.2930   48.0470 C   0  0  0  0  0  0  0  0  0  0  0  0
   61.3460   33.2630   47.9050 C   0  0  0  0  0  0  0  0  0  0  0  0
   61.9490   33.9410   46.8300 C   0  0  0  0  0  0  0  0  0  0  0  0
   63.3310   33.8750   46.6390 C   0  0  0  0  0  0  0  0  0  0  0  0
   64.1270   33.1430   47.5220 C   0  0  0  0  0  0  0  0  0  0  0  0
   63.5430   32.4820   48.6050 C   0  0  0  0  0  0  0  0  0  0  0  0
   62.1590   32.5400   48.8040 C   0  0  0  0  0  0  0  0  0  0  0  0
   61.6020   31.8700   49.8880 O   0  0  0  0  0  0  0  0  0  0  0  0
   57.8970   31.8750   45.1580 C   0  0  0  0  0  0  0  0  0  0  0  0
   58.4410   33.1540   45.1090 O   0  0  0  0  0  0  0  0  0  0  0  0
   56.7620   31.5920   44.3960 C   0  0  0  0  0  0  0  0  0  0  0  0
   56.1830   30.3210   44.4290 C   0  0  0  0  0  0  0  0  0  0  0  0
   55.0410   30.0800   43.6720 O   0  0  0  0  0  0  0  0  0  0  0  0
   53.7470   26.7080   46.3750 H   0  0  0  0  0  0  0  0  0  0  0  0
   57.3983   27.0814   46.6563 H   0  0  0  0  0  0  0  0  0  0  0  0
   57.3508   26.3172   45.0219 H   0  0  0  0  0  0  0  0  0  0  0  0
   55.1450   27.8970   44.9150 H   0  0  0  0  0  0  0  0  0  0  0  0
   58.3777   28.7925   46.5622 H   0  0  0  0  0  0  0  0  0  0  0  0
   60.1229   30.2106   47.1482 H   0  0  0  0  0  0  0  0  0  0  0  0
   60.3816   31.7671   46.2582 H   0  0  0  0  0  0  0  0  0  0  0  0
   59.7010   31.4220   48.8660 H   0  0  0  0  0  0  0  0  0  0  0  0
   59.4109   33.8581   47.2074 H   0  0  0  0  0  0  0  0  0  0  0  0
   59.5857   33.7751   49.0019 H   0  0  0  0  0  0  0  0  0  0  0  0
   61.3284   34.5266   46.1357 H   0  0  0  0  0  0  0  0  0  0  0  0
   63.7934   34.4010   45.7908 H   0  0  0  0  0  0  0  0  0  0  0  0
   65.2143   33.0868   47.3648 H   0  0  0  0  0  0  0  0  0  0  0  0
   64.1736   31.9135   49.3044 H   0  0  0  0  0  0  0  0  0  0  0  0
   56.3198   32.3764   43.7642 H   0  0  0  0  0  0  0  0  0  0  0  0
  1  2  1  0
  2  3  2  0
  2  4  1  0
  4  5  1  0
  5  6  1  0
  6  7  2  0
  7  8  1  0
  8  9  1  0
  9 10  1  0
 10 11  1  0
 11 12  1  0
 12 13  2  0
 13 14  1  0
 14 15  2  0
 15 16  1  0
 16 17  2  0
 17 18  1  0
  8 19  2  0
 19 20  1  0
 19 21  1  0
 21 22  2  0
 22 23  1  0
 22  6  1  0
 17 12  1  0
  1 24  1  0
  4 25  1  0
  4 26  1  0
  5 27  1  0
  7 28  1  0
  9 29  1  0
  9 30  1  0
 10 31  1  0
 11 32  1  0
 11 33  1  0
 13 34  1  0
 14 35  1  0
 15 36  1  0
 16 37  1  0
 21 38  1  0
M  CHG  4   1  -1  18  -1  20  -1  23  -1
M  END
>  <UniqueID>  (3) 
3

>  <SMILES>  (3) 
[NH-]C(=O)CNc1cc(CNCc2ccccc2[O-])c([O-])cc1[O-]

>  <Energy>  (3) 
35.35443846616696

>  <Genealogy>  (3) 
[NH-]C(=O)CNc1cc(CNCc2ccccc2[O-])c([O-])cc1[O-] (protonated)
[NH-]C(=O)CNc1cc(CNCc2ccccc2[O-])c([O-])cc1[O-] (3D coordinates assigned)
[NH-]C(=O)CNc1cc(CNCc2ccccc2[O-])c([O-])cc1[O-] (optimized conformer: 35.35443846616696 kcal/mol)

>  <smiles>  (3) 
NC(=O)CNc1cc(CNCc2ccccc2O)c(O)cc1O

>  <score_type>  (3) 
oracle

>  <origin>  (3) 
adg

>  <m_score__min__energy>  (3) 
-17.920000000000002

>  <m_primary>  (3) 
energy

$$$$
3:0
     RDKit          3D

 40 42  0  0  0  0  0  0  0  0999 V2000
   56.8440   34.3040   44.9950 O   0  0  0  0  0  0  0  0  0  0  0  0
   58.0660   34.0070   44.8900 C   0  0  0  0  0  0  0  0  0  0  0  0
   58.4870   32.9060   43.9660 C   0  0  0  0  0  0  0  0  0  0  0  0
   57.7320   31.6360   44.2780 C   0  0  0  0  0  0  0  0  0  0  0  0
   58.0830   30.8590   45.4030 C   0  0  0  0  0  0  0  0  0  0  0  0
   57.3490   29.7090   45.7250 C   0  0  0  0  0  0  0  0  0  0  0  0
   56.2550   29.3250   44.9240 C   0  0  0  0  0  0  0  0  0  0  0  0
   55.5220   28.1890   45.2600 O   0  0  0  0  0  0  0  0  0  0  0  0
   55.9090   30.0840   43.7970 C   0  0  0  0  0  0  0  0  0  0  0  0
   54.8360   29.6840   42.9940 O   0  0  0  0  0  0  0  0  0  0  0  0
   56.6420   31.2430   43.4780 C   0  0  0  0  0  0  0  0  0  0  0  0
   59.0550   34.7240   45.6400 N   0  0  0  0  0  0  0  0  0  0  0  0
   59.3490   34.4580   47.0430 C   0  0  0  0  0  0  0  0  0  0  0  0
   60.4860   33.4780   47.1830 C   0  0  0  0  0  0  0  0  0  0  0  0
   61.7990   33.8650   46.8980 C   0  0  0  0  0  0  0  0  0  0  0  0
   62.8210   32.9260   47.0580 C   0  0  0  0  0  0  0  0  0  0  0  0
   64.0200   33.2500   46.8400 O   0  0  0  0  0  0  0  0  0  0  0  0
   62.5210   31.6560   47.4540 N   0  0  0  0  0  0  0  0  0  0  0  0
   61.2340   31.2830   47.7080 C   0  0  0  0  0  0  0  0  0  0  0  0
   60.9200   29.8940   48.1340 C   0  0  0  0  0  0  0  0  0  0  0  0
   60.9170   29.5850   49.5120 C   0  0  0  0  0  0  0  0  0  0  0  0
   60.6280   28.2830   49.9510 C   0  0  0  0  0  0  0  0  0  0  0  0
   60.3530   27.2710   49.0200 C   0  0  0  0  0  0  0  0  0  0  0  0
   60.0940   26.0030   49.4460 F   0  0  0  0  0  0  0  0  0  0  0  0
   60.3680   27.5580   47.6500 C   0  0  0  0  0  0  0  0  0  0  0  0
   60.6500   28.8600   47.1990 C   0  0  0  0  0  0  0  0  0  0  0  0
   60.7600   29.1140   45.4570 Cl  0  0  0  0  0  0  0  0  0  0  0  0
   60.2300   32.1930   47.5610 N   0  0  0  0  0  0  0  0  0  0  0  0
   58.2790   33.2051   42.9281 H   0  0  0  0  0  0  0  0  0  0  0  0
   59.5633   32.7219   44.0991 H   0  0  0  0  0  0  0  0  0  0  0  0
   58.9363   31.1573   46.0298 H   0  0  0  0  0  0  0  0  0  0  0  0
   57.6268   29.1066   46.6025 H   0  0  0  0  0  0  0  0  0  0  0  0
   54.8200   28.7760   42.5450 H   0  0  0  0  0  0  0  0  0  0  0  0
   56.3620   31.8439   42.6002 H   0  0  0  0  0  0  0  0  0  0  0  0
   59.6247   35.4012   47.5374 H   0  0  0  0  0  0  0  0  0  0  0  0
   58.4535   34.0234   47.5113 H   0  0  0  0  0  0  0  0  0  0  0  0
   62.0223   34.8862   46.5554 H   0  0  0  0  0  0  0  0  0  0  0  0
   61.1430   30.3710   50.2476 H   0  0  0  0  0  0  0  0  0  0  0  0
   60.6173   28.0563   51.0273 H   0  0  0  0  0  0  0  0  0  0  0  0
   60.1580   26.7606   46.9219 H   0  0  0  0  0  0  0  0  0  0  0  0
  1  2  2  0
  2  3  1  0
  3  4  1  0
  4  5  2  0
  5  6  1  0
  6  7  2  0
  7  8  1  0
  7  9  1  0
  9 10  1  0
  9 11  2  0
  2 12  1  0
 12 13  1  0
 13 14  1  0
 14 15  2  0
 15 16  1  0
 16 17  2  0
 16 18  1  0
 18 19  1  0
 19 20  1  0
 20 21  2  0
 21 22  1  0
 22 23  2  0
 23 24  1  0
 23 25  1  0
 25 26  2  0
 26 27  1  0
 19 28  2  0
 11  4  1  0
 28 14  1  0
 26 20  1  0
  3 29  1  0
  3 30  1  0
  5 31  1  0
  6 32  1  0
 10 33  1  0
 11 34  1  0
 13 35  1  0
 13 36  1  0
 15 37  1  0
 21 38  1  0
 22 39  1  0
 25 40  1  0
M  CHG  3   8  -1  12  -1  18  -1
M  END
>  <UniqueID>  (4) 
4

>  <SMILES>  (4) 
O=C(Cc1ccc([O-])c(O)c1)[N-]Cc1cc(=O)[n-]c(-c2ccc(F)cc2Cl)n1

>  <Energy>  (4) 
42.76104301802571

>  <Genealogy>  (4) 
O=C(Cc1ccc([O-])c(O)c1)[N-]Cc1cc(=O)[n-]c(-c2ccc(F)cc2Cl)n1 (protonated)
O=C(Cc1ccc([O-])c(O)c1)[N-]Cc1cc(=O)[n-]c(-c2ccc(F)cc2Cl)n1 (3D coordinates assigned)
O=C(Cc1ccc([O-])c(O)c1)[N-]Cc1cc(=O)[n-]c(-c2ccc(F)cc2Cl)n1 (optimized conformer: 42.76104301802571 kcal/mol)

>  <smiles>  (4) 
O=C(Cc1ccc(O)c(O)c1)NCc1cc(=O)[nH]c(-c2ccc(F)cc2Cl)n1

>  <score_type>  (4) 
oracle

>  <origin>  (4) 
adg

>  <m_score__min__energy>  (4) 
-14.77

>  <m_primary>  (4) 
energy

$$$$
4:0
     RDKit          3D

 48 50  0  0  0  0  0  0  0  0999 V2000
   55.6500   28.8570   43.7600 H   0  0  0  0  0  0  0  0  0  0  0  0
   55.4770   29.5040   44.5180 O   0  0  0  0  0  0  0  0  0  0  0  0
   56.0910   30.7360   44.5250 N   0  0  0  0  0  0  0  0  0  0  0  0
   57.3720   30.8680   44.7000 C   0  0  0  0  0  0  0  0  0  0  0  0
   58.2890   29.7700   44.3000 C   0  0  0  0  0  0  0  0  0  0  0  0
   58.9594   29.9462   43.4459 H   0  0  0  0  0  0  0  0  0  0  0  0
   58.3540   28.5710   44.9150 C   0  0  0  0  0  0  0  0  0  0  0  0
   58.5710   28.4610   46.3840 C   0  0  0  0  0  0  0  0  0  0  0  0
   57.9850   27.5400   47.0170 O   0  0  0  0  0  0  0  0  0  0  0  0
   59.4760   29.3850   47.1150 C   0  0  0  0  0  0  0  0  0  0  0  0
   60.5920   29.9420   46.4620 C   0  0  0  0  0  0  0  0  0  0  0  0
   60.7870   29.6953   45.4079 H   0  0  0  0  0  0  0  0  0  0  0  0
   61.4540   30.8060   47.1430 C   0  0  0  0  0  0  0  0  0  0  0  0
   62.3201   31.2403   46.6222 H   0  0  0  0  0  0  0  0  0  0  0  0
   61.2180   31.1190   48.4830 C   0  0  0  0  0  0  0  0  0  0  0  0
   61.8966   31.8009   49.0165 H   0  0  0  0  0  0  0  0  0  0  0  0
   60.1200   30.5660   49.1460 C   0  0  0  0  0  0  0  0  0  0  0  0
   59.9354   30.8123   50.2021 H   0  0  0  0  0  0  0  0  0  0  0  0
   59.2550   29.7000   48.4700 C   0  0  0  0  0  0  0  0  0  0  0  0
   58.3963   29.2619   48.9998 H   0  0  0  0  0  0  0  0  0  0  0  0
   58.1400   27.3330   44.1140 C   0  0  0  0  0  0  0  0  0  0  0  0
   58.1760   26.1300   44.7260 C   0  0  0  0  0  0  0  0  0  0  0  0
   59.0904   25.8653   45.2773 H   0  0  0  0  0  0  0  0  0  0  0  0
   57.0760   25.1430   44.7090 C   0  0  0  0  0  0  0  0  0  0  0  0
   57.0210   24.1930   43.6780 C   0  0  0  0  0  0  0  0  0  0  0  0
   57.8110   24.1694   42.9130 H   0  0  0  0  0  0  0  0  0  0  0  0
   55.9670   23.2760   43.6180 C   0  0  0  0  0  0  0  0  0  0  0  0
   55.9401   22.5215   42.8180 H   0  0  0  0  0  0  0  0  0  0  0  0
   54.9480   23.3170   44.5730 C   0  0  0  0  0  0  0  0  0  0  0  0
   54.1224   22.5915   44.5274 H   0  0  0  0  0  0  0  0  0  0  0  0
   54.9770   24.2790   45.5860 C   0  0  0  0  0  0  0  0  0  0  0  0
   54.1706   24.3151   46.3333 H   0  0  0  0  0  0  0  0  0  0  0  0
   56.0310   25.1960   45.6500 C   0  0  0  0  0  0  0  0  0  0  0  0
   56.0432   25.9620   46.4393 H   0  0  0  0  0  0  0  0  0  0  0  0
   57.8760   27.4480   42.7040 N   0  0  0  0  0  0  0  0  0  0  0  0
   58.3240   26.6020   41.9030 O   0  0  0  0  0  0  0  0  0  0  0  0
   56.9850   28.3930   42.2470 O   0  0  0  0  0  0  0  0  0  0  0  0
   57.8940   32.1520   45.2350 C   0  0  0  0  0  0  0  0  0  0  0  0
   57.8410   32.4320   46.6140 C   0  0  0  0  0  0  0  0  0  0  0  0
   57.4253   31.6862   47.3075 H   0  0  0  0  0  0  0  0  0  0  0  0
   58.3130   33.6510   47.1070 C   0  0  0  0  0  0  0  0  0  0  0  0
   58.2590   33.8651   48.1846 H   0  0  0  0  0  0  0  0  0  0  0  0
   58.8530   34.5980   46.2350 C   0  0  0  0  0  0  0  0  0  0  0  0
   59.2210   35.5584   46.6253 H   0  0  0  0  0  0  0  0  0  0  0  0
   58.9260   34.3260   44.8670 C   0  0  0  0  0  0  0  0  0  0  0  0
   59.3559   35.0712   44.1815 H   0  0  0  0  0  0  0  0  0  0  0  0
   58.4540   33.1090   44.3670 C   0  0  0  0  0  0  0  0  0  0  0  0
   58.5204   32.8977   43.2895 H   0  0  0  0  0  0  0  0  0  0  0  0
  1  2  1  0
  2  3  1  0
  3  4  2  0
  4  5  1  0
  5  6  1  0
  5  7  2  0
  7  8  1  0
  8  9  2  0
  8 10  1  0
 10 11  2  0
 11 12  1  0
 11 13  1  0
 13 14  1  0
 13 15  2  0
 15 16  1  0
 15 17  1  0
 17 18  1  0
 17 19  2  0
 19 20  1  0
  7 21  1  0
 21 22  2  3
 22 23  1  0
 22 24  1  0
 24 25  2  0
 25 26  1  0
 25 27  1  0
 27 28  1  0
 27 29  2  0
 29 30  1  0
 29 31  1  0
 31 32  1  0
 31 33  2  0
 33 34  1  0
 21 35  1  0
 35 36  2  0
 35 37  1  0
  4 38  1  0
 38 39  2  0
 39 40  1  0
 39 41  1  0
 41 42  1  0
 41 43  2  0
 43 44  1  0
 43 45  1  0
 45 46  1  0
 45 47  2  0
 47 48  1  0
 19 10  1  0
 33 24  1  0
 47 38  1  0
M  CHG  2  35   1  37  -1
M  END
>  <UniqueID>  (5) 
5

>  <SMILES>  (5) 
O=C(C(=C/C(=N\O)c1ccccc1)C(=Cc1ccccc1)[N+](=O)[O-])c1ccccc1

>  <Energy>  (5) 
74.70306031105922

>  <Genealogy>  (5) 
O=C(C(=C/C(=N\O)c1ccccc1)C(=Cc1ccccc1)[N+](=O)[O-])c1ccccc1 (cis-trans isomerization)
O=C(C(=C/C(=N\O)c1ccccc1)C(=Cc1ccccc1)[N+](=O)[O-])c1ccccc1 (3D coordinates assigned)
O=C(C(=C/C(=N\O)c1ccccc1)C(=Cc1ccccc1)[N+](=O)[O-])c1ccccc1 (optimized conformer: 74.70306031105922 kcal/mol)

>  <smiles>  (5) 
O=C(C(=CC(=NO)c1ccccc1)C(=Cc1ccccc1)[N+](=O)[O-])c1ccccc1

>  <score_type>  (5) 
oracle

>  <origin>  (5) 
adg

>  <m_score__min__energy>  (5) 
-10.789999999999999

>  <m_primary>  (5) 
energy

$$$$
5:0
     RDKit          3D

 54 57  0  0  0  0  0  0  0  0999 V2000
   56.5450   29.3900   44.1200 C   0  0  0  0  0  0  0  0  0  0  0  0
   57.7090   29.0030   44.6660 C   0  0  0  0  0  0  0  0  0  0  0  0
   58.1980   27.6900   44.7910 C   0  0  0  0  0  0  0  0  0  0  0  0
   57.6030   26.5000   44.5750 C   0  0  0  0  0  0  0  0  0  0  0  0
   57.2220   25.5290   45.6180 C   0  0  0  0  0  0  0  0  0  0  0  0
   55.9800   25.6300   46.2590 C   0  0  0  0  0  0  0  0  0  0  0  0
   55.1110   26.6730   45.9580 O   0  0  0  0  0  0  0  0  0  0  0  0
   55.6190   24.7090   47.1900 N   0  0  0  0  0  0  0  0  0  0  0  0
   56.4380   23.6730   47.5050 C   0  0  0  0  0  0  0  0  0  0  0  0
   56.0840   22.8340   48.3740 O   0  0  0  0  0  0  0  0  0  0  0  0
   57.6340   23.5360   46.8790 N   0  0  0  0  0  0  0  0  0  0  0  0
   58.0410   24.4300   45.9400 C   0  0  0  0  0  0  0  0  0  0  0  0
   59.1480   24.2590   45.3620 O   0  0  0  0  0  0  0  0  0  0  0  0
   59.5080   27.8050   45.2250 C   0  0  0  0  0  0  0  0  0  0  0  0
   59.7550   29.1480   45.4100 C   0  0  0  0  0  0  0  0  0  0  0  0
   61.0530   29.7150   45.8990 C   0  0  0  0  0  0  0  0  0  0  0  0
   58.6680   29.8770   45.0710 N   0  0  0  0  0  0  0  0  0  0  0  0
   58.5630   31.3110   45.1350 C   0  0  0  0  0  0  0  0  0  0  0  0
   57.7090   32.0000   44.2640 C   0  0  0  0  0  0  0  0  0  0  0  0
   57.6140   33.3920   44.3290 C   0  0  0  0  0  0  0  0  0  0  0  0
   58.3650   34.1050   45.2680 C   0  0  0  0  0  0  0  0  0  0  0  0
   59.2170   33.4280   46.1570 C   0  0  0  0  0  0  0  0  0  0  0  0
   60.0130   34.1810   47.1550 C   0  0  0  0  0  0  0  0  0  0  0  0
   59.9640   35.4430   47.1630 O   0  0  0  0  0  0  0  0  0  0  0  0
   60.8520   33.5010   48.1060 N   0  0  0  0  0  0  0  0  0  0  0  0
   61.8420   32.5320   47.6270 C   0  0  0  0  0  0  0  0  0  0  0  0
   63.1690   33.2170   47.2750 C   0  0  0  0  0  0  0  0  0  0  0  0
   64.1110   33.2980   48.4910 C   0  0  0  0  0  0  0  0  0  0  0  0
   63.4420   33.6360   49.7630 N   0  0  0  0  0  0  0  0  0  0  0  0
   62.3460   34.6230   49.7050 C   0  0  0  0  0  0  0  0  0  0  0  0
   60.9550   34.0110   49.4790 C   0  0  0  0  0  0  0  0  0  0  0  0
   59.3220   32.0290   46.0710 C   0  0  0  0  0  0  0  0  0  0  0  0
   56.2817   30.4575   44.0854 H   0  0  0  0  0  0  0  0  0  0  0  0
   55.8547   28.6396   43.7073 H   0  0  0  0  0  0  0  0  0  0  0  0
   57.3827   26.2298   43.5317 H   0  0  0  0  0  0  0  0  0  0  0  0
   60.2171   26.9805   45.3907 H   0  0  0  0  0  0  0  0  0  0  0  0
   61.0605   29.7183   46.9990 H   0  0  0  0  0  0  0  0  0  0  0  0
   61.8852   29.0984   45.5285 H   0  0  0  0  0  0  0  0  0  0  0  0
   61.1662   30.7445   45.5285 H   0  0  0  0  0  0  0  0  0  0  0  0
   57.1117   31.4432   43.5270 H   0  0  0  0  0  0  0  0  0  0  0  0
   56.9462   33.9288   43.6392 H   0  0  0  0  0  0  0  0  0  0  0  0
   58.2886   35.2015   45.3112 H   0  0  0  0  0  0  0  0  0  0  0  0
   62.0222   31.7852   48.4143 H   0  0  0  0  0  0  0  0  0  0  0  0
   61.4473   32.0532   46.7187 H   0  0  0  0  0  0  0  0  0  0  0  0
   63.6651   32.6439   46.4778 H   0  0  0  0  0  0  0  0  0  0  0  0
   62.9474   34.2427   46.9452 H   0  0  0  0  0  0  0  0  0  0  0  0
   64.6025   32.3212   48.6104 H   0  0  0  0  0  0  0  0  0  0  0  0
   64.8193   34.1138   48.2839 H   0  0  0  0  0  0  0  0  0  0  0  0
   64.1630   33.9980   50.4300 H   0  0  0  0  0  0  0  0  0  0  0  0
   62.3290   35.1751   50.6562 H   0  0  0  0  0  0  0  0  0  0  0  0
   62.5500   35.2696   48.8388 H   0  0  0  0  0  0  0  0  0  0  0  0
   60.8004   33.1843   50.1880 H   0  0  0  0  0  0  0  0  0  0  0  0
   60.1885   34.7840   49.6373 H   0  0  0  0  0  0  0  0  0  0  0  0
   60.0061   31.4918   46.7444 H   0  0  0  0  0  0  0  0  0  0  0  0
  1  2  2  0
  2  3  1  0
  3  4  2  3
  4  5  1  0
  5  6  2  0
  6  7  1  0
  6  8  1  0
  8  9  1  0
  9 10  2  0
  9 11  1  0
 11 12  1  0
 12 13  2  0
  3 14  1  0
 14 15  2  0
 15 16  1  0
 15 17  1  0
 17 18  1  0
 18 19  2  0
 19 20  1  0
 20 21  2  0
 21 22  1  0
 22 23  1  0
 23 24  2  0
 23 25  1  0
 25 26  1  0
 26 27  1  0
 27 28  1  0
 28 29  1  0
 29 30  1  0
 30 31  1  0
 22 32  2  0
 17  2  1  0
 32 18  1  0
 12  5  1  0
 31 25  1  0
  1 33  1  0
  1 34  1  0
  4 35  1  0
 14 36  1  0
 16 37  1  0
 16 38  1  0
 16 39  1  0
 19 40  1  0
 20 41  1  0
 21 42  1  0
 26 43  1  0
 26 44  1  0
 27 45  1  0
 27 46  1  0
 28 47  1  0
 28 48  1  0
 29 49  1  0
 30 50  1  0
 30 51  1  0
 31 52  1  0
 31 53  1  0
 32 54  1  0
M  CHG  3   7  -1   8  -1  11  -1
M  END
>  <UniqueID>  (6) 
6

>  <SMILES>  (6) 
C=c1c(=Cc2c([O-])[n-]c(=O)[n-]c2=O)cc(C)n1-c1cccc(C(=O)N2CCCNCC2)c1

>  <Energy>  (6) 
117.29486849671964

>  <Genealogy>  (6) 
C=c1c(=Cc2c([O-])[n-]c(=O)[n-]c2=O)cc(C)n1-c1cccc(C(=O)N2CCCNCC2)c1 (protonated)
C=c1c(=Cc2c([O-])[n-]c(=O)[n-]c2=O)cc(C)n1-c1cccc(C(=O)N2CCCNCC2)c1 (3D coordinates assigned)
C=c1c(=Cc2c([O-])[n-]c(=O)[n-]c2=O)cc(C)n1-c1cccc(C(=O)N2CCCNCC2)c1 (nonaromatic ring conformer: 117.29486849671964 kcal/mol)

>  <smiles>  (6) 
C=c1c(=Cc2c(O)[nH]c(=O)[nH]c2=O)cc(C)n1-c1cccc(C(=O)N2CCCNCC2)c1

>  <score_type>  (6) 
oracle

>  <origin>  (6) 
adg

>  <m_score__min__energy>  (6) 
-15.5

>  <m_primary>  (6) 
energy

$$$$
6:0
     RDKit          3D

 31 32  0  0  0  0  0  0  0  0999 V2000
   57.3330   22.6020   47.8920 O   0  0  0  0  0  0  0  0  0  0  0  0
   56.1060   22.7750   47.6720 C   0  0  0  0  0  0  0  0  0  0  0  0
   55.6090   23.9990   47.1140 N   0  0  0  0  0  0  0  0  0  0  0  0
   56.4330   25.1220   46.7470 C   0  0  0  0  0  0  0  0  0  0  0  0
   57.7810   25.0820   46.9420 N   0  0  0  0  0  0  0  0  0  0  0  0
   58.5940   26.1190   46.6160 C   0  0  0  0  0  0  0  0  0  0  0  0
   58.0590   27.2870   46.0600 C   0  0  0  0  0  0  0  0  0  0  0  0
   58.9410   28.4240   45.7340 C   0  0  0  0  0  0  0  0  0  0  0  0
   59.5990   28.4020   44.6610 O   0  0  0  0  0  0  0  0  0  0  0  0
   59.0430   29.5730   46.5870 N   0  0  0  0  0  0  0  0  0  0  0  0
   59.9750   30.6830   46.4030 C   0  0  0  0  0  0  0  0  0  0  0  0
   59.2420   31.9360   45.9990 C   0  0  0  0  0  0  0  0  0  0  0  0
   58.0940   31.8520   45.1930 C   0  0  0  0  0  0  0  0  0  0  0  0
   57.3910   33.0100   44.8450 C   0  0  0  0  0  0  0  0  0  0  0  0
   57.8290   34.2580   45.2980 C   0  0  0  0  0  0  0  0  0  0  0  0
   58.9730   34.3510   46.0940 C   0  0  0  0  0  0  0  0  0  0  0  0
   59.6810   33.1960   46.4410 C   0  0  0  0  0  0  0  0  0  0  0  0
   56.6740   27.3530   45.8290 C   0  0  0  0  0  0  0  0  0  0  0  0
   56.1600   28.3900   45.3280 O   0  0  0  0  0  0  0  0  0  0  0  0
   55.8580   26.2700   46.1750 C   0  0  0  0  0  0  0  0  0  0  0  0
   54.4850   26.3410   45.9580 O   0  0  0  0  0  0  0  0  0  0  0  0
   55.3981   21.9684   47.9134 H   0  0  0  0  0  0  0  0  0  0  0  0
   54.5750   24.0610   46.9780 H   0  0  0  0  0  0  0  0  0  0  0  0
   59.6775   26.0412   46.7894 H   0  0  0  0  0  0  0  0  0  0  0  0
   60.5087   30.8660   47.3473 H   0  0  0  0  0  0  0  0  0  0  0  0
   60.6858   30.4181   45.6064 H   0  0  0  0  0  0  0  0  0  0  0  0
   57.7469   30.8717   44.8344 H   0  0  0  0  0  0  0  0  0  0  0  0
   56.4926   32.9387   44.2143 H   0  0  0  0  0  0  0  0  0  0  0  0
   57.2723   35.1673   45.0274 H   0  0  0  0  0  0  0  0  0  0  0  0
   59.3174   35.3338   46.4483 H   0  0  0  0  0  0  0  0  0  0  0  0
   60.5853   33.2739   47.0625 H   0  0  0  0  0  0  0  0  0  0  0  0
  1  2  2  0
  2  3  1  0
  3  4  1  0
  4  5  1  0
  5  6  1  0
  6  7  2  0
  7  8  1  0
  8  9  2  0
  8 10  1  0
 10 11  1  0
 11 12  1  0
 12 13  2  0
 13 14  1  0
 14 15  2  0
 15 16  1  0
 16 17  2  0
  7 18  1  0
 18 19  2  0
 18 20  1  0
 20 21  1  0
 20  4  2  0
 17 12  1  0
  2 22  1  0
  3 23  1  0
  6 24  1  0
 11 25  1  0
 11 26  1  0
 13 27  1  0
 14 28  1  0
 15 29  1  0
 16 30  1  0
 17 31  1  0
M  CHG  3   5  -1  10  -1  21  -1
M  END
>  <UniqueID>  (7) 
7

>  <SMILES>  (7) 
O=CNc1[n-]cc(C(=O)[N-]Cc2ccccc2)c(=O)c1[O-]

>  <Energy>  (7) 
36.953040825354634

>  <Genealogy>  (7) 
O=CNc1[n-]cc(C(=O)[N-]Cc2ccccc2)c(=O)c1[O-] (protonated)
O=CNc1[n-]cc(C(=O)[N-]Cc2ccccc2)c(=O)c1[O-] (3D coordinates assigned)
O=CNc1[n-]cc(C(=O)[N-]Cc2ccccc2)c(=O)c1[O-] (optimized conformer: 36.953040825354634 kcal/mol)

>  <smiles>  (7) 
O=CNc1[nH]cc(C(=O)NCc2ccccc2)c(=O)c1O

>  <score_type>  (7) 
oracle

>  <origin>  (7) 
adg

>  <m_score__min__energy>  (7) 
-13.33

>  <m_primary>  (7) 
energy

$$$$
7:0
     RDKit          3D

 57 60  0  0  0  0  0  0  0  0999 V2000
   60.0140   26.1520   46.4740 C   0  0  0  0  0  0  0  0  0  0  0  0
   59.1720   27.2910   45.9570 C   0  0  0  0  0  0  0  0  0  0  0  0
   59.7740   28.5130   45.6000 C   0  0  0  0  0  0  0  0  0  0  0  0
   59.0010   29.5510   45.0630 C   0  0  0  0  0  0  0  0  0  0  0  0
   57.6280   29.3760   44.8510 C   0  0  0  0  0  0  0  0  0  0  0  0
   56.8270   30.4130   44.1710 C   0  0  0  0  0  0  0  0  0  0  0  0
   56.5210   30.2640   42.9490 O   0  0  0  0  0  0  0  0  0  0  0  0
   56.4520   31.6180   44.8700 N   0  0  0  0  0  0  0  0  0  0  0  0
   57.4100   32.5870   45.3090 C   0  0  0  0  0  0  0  0  0  0  0  0
   57.8030   33.6190   44.4400 C   0  0  0  0  0  0  0  0  0  0  0  0
   58.6900   34.6060   44.8750 C   0  0  0  0  0  0  0  0  0  0  0  0
   59.2170   34.5450   46.1700 C   0  0  0  0  0  0  0  0  0  0  0  0
   58.8690   33.4900   47.0320 C   0  0  0  0  0  0  0  0  0  0  0  0
   59.6500   33.3430   48.6140 S   0  0  0  0  0  0  0  0  0  0  0  0
   58.8740   32.3740   49.4700 O   0  0  0  0  0  0  0  0  0  0  0  0
   59.6510   34.6870   49.2940 O   0  0  0  0  0  0  0  0  0  0  0  0
   61.2970   32.7860   48.4290 N   0  0  0  0  0  0  0  0  0  0  0  0
   62.2060   33.9160   48.1990 C   0  0  0  0  0  0  0  0  0  0  0  0
   63.6320   33.3660   48.1340 C   0  0  0  0  0  0  0  0  0  0  0  0
   63.7580   32.4660   47.0430 O   0  0  0  0  0  0  0  0  0  0  0  0
   62.8720   31.3630   47.2060 C   0  0  0  0  0  0  0  0  0  0  0  0
   61.4120   31.8280   47.3260 C   0  0  0  0  0  0  0  0  0  0  0  0
   57.9710   32.5090   46.5970 C   0  0  0  0  0  0  0  0  0  0  0  0
   57.0220   28.1920   45.2830 C   0  0  0  0  0  0  0  0  0  0  0  0
   57.7760   27.1610   45.8720 C   0  0  0  0  0  0  0  0  0  0  0  0
   57.1240   25.9670   46.3480 N   0  0  0  0  0  0  0  0  0  0  0  0
   55.8230   25.5410   45.9130 C   0  0  0  0  0  0  0  0  0  0  0  0
   54.8520   26.3410   46.0200 O   0  0  0  0  0  0  0  0  0  0  0  0
   55.5990   24.1750   45.3190 C   0  0  0  0  0  0  0  0  0  0  0  0
   56.0210   23.0460   46.2290 C   0  0  0  0  0  0  0  0  0  0  0  0
   54.9380   22.3240   47.2890 S   0  0  0  0  0  0  0  0  0  0  0  0
   56.1230   21.8060   48.3460 C   0  0  0  0  0  0  0  0  0  0  0  0
   55.9010   21.1550   49.4030 O   0  0  0  0  0  0  0  0  0  0  0  0
   57.3650   22.1820   47.9460 N   0  0  0  0  0  0  0  0  0  0  0  0
   57.3160   22.8620   46.7640 C   0  0  0  0  0  0  0  0  0  0  0  0
   58.4640   23.3890   46.1880 O   0  0  0  0  0  0  0  0  0  0  0  0
   60.0074   26.1610   47.5739 H   0  0  0  0  0  0  0  0  0  0  0  0
   59.6022   25.1981   46.1126 H   0  0  0  0  0  0  0  0  0  0  0  0
   61.0467   26.2660   46.1126 H   0  0  0  0  0  0  0  0  0  0  0  0
   60.8556   28.6532   45.7433 H   0  0  0  0  0  0  0  0  0  0  0  0
   59.4758   30.5095   44.8063 H   0  0  0  0  0  0  0  0  0  0  0  0
   57.4104   33.6495   43.4129 H   0  0  0  0  0  0  0  0  0  0  0  0
   58.9735   35.4286   44.2020 H   0  0  0  0  0  0  0  0  0  0  0  0
   59.9082   35.3277   46.5159 H   0  0  0  0  0  0  0  0  0  0  0  0
   61.9531   34.4121   47.2504 H   0  0  0  0  0  0  0  0  0  0  0  0
   62.1157   34.6522   49.0113 H   0  0  0  0  0  0  0  0  0  0  0  0
   64.3378   34.1993   48.0017 H   0  0  0  0  0  0  0  0  0  0  0  0
   63.8551   32.8318   49.0693 H   0  0  0  0  0  0  0  0  0  0  0  0
   62.9651   30.6977   46.3350 H   0  0  0  0  0  0  0  0  0  0  0  0
   63.1439   30.8351   48.1319 H   0  0  0  0  0  0  0  0  0  0  0  0
   61.1017   32.3099   46.3871 H   0  0  0  0  0  0  0  0  0  0  0  0
   60.7645   30.9608   47.5226 H   0  0  0  0  0  0  0  0  0  0  0  0
   57.7032   31.6755   47.2630 H   0  0  0  0  0  0  0  0  0  0  0  0
   55.9363   28.0647   45.1600 H   0  0  0  0  0  0  0  0  0  0  0  0
   54.5272   24.0626   45.0987 H   0  0  0  0  0  0  0  0  0  0  0  0
   56.2200   24.1101   44.4134 H   0  0  0  0  0  0  0  0  0  0  0  0
   58.4800   24.3590   45.8820 H   0  0  0  0  0  0  0  0  0  0  0  0
  1  2  1  0
  2  3  2  0
  3  4  1  0
  4  5  2  0
  5  6  1  0
  6  7  2  0
  6  8  1  0
  8  9  1  0
  9 10  2  0
 10 11  1  0
 11 12  2  0
 12 13  1  0
 13 14  1  0
 14 15  2  0
 14 16  2  0
 14 17  1  0
 17 18  1  0
 18 19  1  0
 19 20  1  0
 20 21  1  0
 21 22  1  0
 13 23  2  0
  5 24  1  0
 24 25  2  0
 25 26  1  0
 26 27  1  0
 27 28  2  0
 27 29  1  0
 29 30  1  0
 30 31  1  0
 31 32  1  0
 32 33  2  0
 32 34  1  0
 34 35  1  0
 35 36  1  0
 25  2  1  0
 35 30  2  0
 23  9  1  0
 22 17  1  0
  1 37  1  0
  1 38  1  0
  1 39  1  0
  3 40  1  0
  4 41  1  0
 10 42  1  0
 11 43  1  0
 12 44  1  0
 18 45  1  0
 18 46  1  0
 19 47  1  0
 19 48  1  0
 21 49  1  0
 21 50  1  0
 22 51  1  0
 22 52  1  0
 23 53  1  0
 24 54  1  0
 29 55  1  0
 29 56  1  0
 36 57  1  0
M  CHG  3   8  -1  26  -1  34  -1
M  END
>  <UniqueID>  (8) 
8

>  <SMILES>  (8) 
Cc1ccc(C(=O)[N-]c2cccc(S(=O)(=O)N3CCOCC3)c2)cc1[N-]C(=O)Cc1sc(=O)[n-]c1O

>  <Energy>  (8) 
110.3736059025428

>  <Genealogy>  (8) 
Cc1ccc(C(=O)[N-]c2cccc(S(=O)(=O)N3CCOCC3)c2)cc1[N-]C(=O)Cc1sc(=O)[n-]c1O (protonated)
Cc1ccc(C(=O)[N-]c2cccc(S(=O)(=O)N3CCOCC3)c2)cc1[N-]C(=O)Cc1sc(=O)[n-]c1O (3D coordinates assigned)
Cc1ccc(C(=O)[N-]c2cccc(S(=O)(=O)N3CCOCC3)c2)cc1[N-]C(=O)Cc1sc(=O)[n-]c1O (nonaromatic ring conformer: 110.3736059025428 kcal/mol)

>  <smiles>  (8) 
Cc1ccc(C(=O)Nc2cccc(S(=O)(=O)N3CCOCC3)c2)cc1NC(=O)Cc1sc(=O)[nH]c1O

>  <score_type>  (8) 
oracle

>  <origin>  (8) 
adg

>  <m_score__min__energy>  (8) 
-15.81

>  <m_primary>  (8) 
energy

$$$$
8:0
     RDKit          3D

 55 58  0  0  0  0  0  0  0  0999 V2000
   58.3620   29.7120   45.4130 C   0  0  0  0  0  0  0  0  0  0  0  0
   58.9490   28.9910   46.3820 C   0  0  0  0  0  0  0  0  0  0  0  0
   58.9030   27.6010   46.5190 C   0  0  0  0  0  0  0  0  0  0  0  0
   58.2520   26.7210   45.7340 C   0  0  0  0  0  0  0  0  0  0  0  0
   57.4470   25.6050   46.2590 C   0  0  0  0  0  0  0  0  0  0  0  0
   57.9850   24.4570   46.7080 N   0  0  0  0  0  0  0  0  0  0  0  0
   56.9120   23.7460   47.1160 C   0  0  0  0  0  0  0  0  0  0  0  0
   57.0090   22.5860   47.5970 O   0  0  0  0  0  0  0  0  0  0  0  0
   55.7270   24.3770   46.9750 N   0  0  0  0  0  0  0  0  0  0  0  0
   56.0790   25.5590   46.4440 C   0  0  0  0  0  0  0  0  0  0  0  0
   55.1680   26.5790   46.1800 O   0  0  0  0  0  0  0  0  0  0  0  0
   59.6180   27.2960   47.6690 C   0  0  0  0  0  0  0  0  0  0  0  0
   60.0730   28.4950   48.1800 C   0  0  0  0  0  0  0  0  0  0  0  0
   60.8840   28.6310   49.4320 C   0  0  0  0  0  0  0  0  0  0  0  0
   59.6820   29.5260   47.3950 N   0  0  0  0  0  0  0  0  0  0  0  0
   59.9350   30.9490   47.6630 C   0  0  0  0  0  0  0  0  0  0  0  0
   58.6150   31.7250   47.6860 C   0  0  0  0  0  0  0  0  0  0  0  0
   58.6740   32.9060   46.7460 C   0  0  0  0  0  0  0  0  0  0  0  0
   57.9220   32.8640   45.5590 C   0  0  0  0  0  0  0  0  0  0  0  0
   57.9960   33.9060   44.6330 C   0  0  0  0  0  0  0  0  0  0  0  0
   58.8340   34.9950   44.8730 C   0  0  0  0  0  0  0  0  0  0  0  0
   59.5980   35.0470   46.0400 C   0  0  0  0  0  0  0  0  0  0  0  0
   59.5240   34.0130   46.9830 C   0  0  0  0  0  0  0  0  0  0  0  0
   60.3440   34.1160   48.2040 C   0  0  0  0  0  0  0  0  0  0  0  0
   59.7710   34.4290   49.2830 O   0  0  0  0  0  0  0  0  0  0  0  0
   61.7640   33.8380   48.1880 N   0  0  0  0  0  0  0  0  0  0  0  0
   62.5920   34.2090   49.3430 C   0  0  0  0  0  0  0  0  0  0  0  0
   63.7940   33.2670   49.4540 C   0  0  0  0  0  0  0  0  0  0  0  0
   64.4920   33.1930   48.2260 O   0  0  0  0  0  0  0  0  0  0  0  0
   63.6660   32.5940   47.2470 C   0  0  0  0  0  0  0  0  0  0  0  0
   62.4520   33.4760   46.9420 C   0  0  0  0  0  0  0  0  0  0  0  0
   58.4650   30.8071   45.4032 H   0  0  0  0  0  0  0  0  0  0  0  0
   57.7782   29.2075   44.6291 H   0  0  0  0  0  0  0  0  0  0  0  0
   58.3255   26.8423   44.6432 H   0  0  0  0  0  0  0  0  0  0  0  0
   54.3510   26.7240   46.7610 H   0  0  0  0  0  0  0  0  0  0  0  0
   59.7887   26.2945   48.0908 H   0  0  0  0  0  0  0  0  0  0  0  0
   60.2276   28.5209   50.3078 H   0  0  0  0  0  0  0  0  0  0  0  0
   61.6585   27.8502   49.4538 H   0  0  0  0  0  0  0  0  0  0  0  0
   61.3614   29.6217   49.4538 H   0  0  0  0  0  0  0  0  0  0  0  0
   60.4343   31.0521   48.6377 H   0  0  0  0  0  0  0  0  0  0  0  0
   60.5769   31.3557   46.8677 H   0  0  0  0  0  0  0  0  0  0  0  0
   57.7979   31.0570   47.3759 H   0  0  0  0  0  0  0  0  0  0  0  0
   58.4392   32.0940   48.7072 H   0  0  0  0  0  0  0  0  0  0  0  0
   57.2691   32.0019   45.3580 H   0  0  0  0  0  0  0  0  0  0  0  0
   57.3932   33.8683   43.7136 H   0  0  0  0  0  0  0  0  0  0  0  0
   58.8928   35.8142   44.1413 H   0  0  0  0  0  0  0  0  0  0  0  0
   60.2623   35.9049   46.2206 H   0  0  0  0  0  0  0  0  0  0  0  0
   62.9496   35.2416   49.2174 H   0  0  0  0  0  0  0  0  0  0  0  0
   61.9877   34.1305   50.2588 H   0  0  0  0  0  0  0  0  0  0  0  0
   64.4744   33.6414   50.2330 H   0  0  0  0  0  0  0  0  0  0  0  0
   63.4301   32.2617   49.7127 H   0  0  0  0  0  0  0  0  0  0  0  0
   64.2474   32.4501   46.3244 H   0  0  0  0  0  0  0  0  0  0  0  0
   63.3099   31.6269   47.6317 H   0  0  0  0  0  0  0  0  0  0  0  0
   62.7866   34.3915   46.4322 H   0  0  0  0  0  0  0  0  0  0  0  0
   61.7568   32.9199   46.2959 H   0  0  0  0  0  0  0  0  0  0  0  0
  1  2  2  0
  2  3  1  0
  3  4  2  3
  4  5  1  0
  5  6  1  0
  6  7  1  0
  7  8  2  0
  7  9  1  0
  9 10  1  0
 10 11  1  0
  3 12  1  0
 12 13  2  0
 13 14  1  0
 13 15  1  0
 15 16  1  0
 16 17  1  0
 17 18  1  0
 18 19  2  0
 19 20  1  0
 20 21  2  0
 21 22  1  0
 22 23  2  0
 23 24  1  0
 24 25  2  0
 24 26  1  0
 26 27  1  0
 27 28  1  0
 28 29  1  0
 29 30  1  0
 30 31  1  0
 15  2  1  0
 23 18  1  0
 31 26  1  0
 10  5  2  0
  1 32  1  0
  1 33  1  0
  4 34  1  0
 11 35  1  0
 12 36  1  0
 14 37  1  0
 14 38  1  0
 14 39  1  0
 16 40  1  0
 16 41  1  0
 17 42  1  0
 17 43  1  0
 19 44  1  0
 20 45  1  0
 21 46  1  0
 22 47  1  0
 27 48  1  0
 27 49  1  0
 28 50  1  0
 28 51  1  0
 30 52  1  0
 30 53  1  0
 31 54  1  0
 31 55  1  0
M  CHG  2   6  -1   9  -1
M  END
>  <UniqueID>  (9) 
9

>  <SMILES>  (9) 
C=c1c(=Cc2[n-]c(=O)[n-]c2O)cc(C)n1CCc1ccccc1C(=O)N1CCOCC1

>  <Energy>  (9) 
127.38250292027536

>  <Genealogy>  (9) 
C=c1c(=Cc2[n-]c(=O)[n-]c2O)cc(C)n1CCc1ccccc1C(=O)N1CCOCC1 (protonated)
C=c1c(=Cc2[n-]c(=O)[n-]c2O)cc(C)n1CCc1ccccc1C(=O)N1CCOCC1 (3D coordinates assigned)
C=c1c(=Cc2[n-]c(=O)[n-]c2O)cc(C)n1CCc1ccccc1C(=O)N1CCOCC1 (nonaromatic ring conformer: 127.38250292027536 kcal/mol)

>  <smiles>  (9) 
C=c1c(=Cc2[nH]c(=O)[nH]c2O)cc(C)n1CCc1ccccc1C(=O)N1CCOCC1

>  <score_type>  (9) 
oracle

>  <origin>  (9) 
adg

>  <m_score__min__energy>  (9) 
-14.6

>  <m_primary>  (9) 
energy

$$$$
9:0
     RDKit          3D

 63 66  0  0  1  0  0  0  0  0999 V2000
   58.0180   32.4780   41.3760 C   0  0  0  0  0  0  0  0  0  0  0  0
   58.0570   32.1840   42.8290 C   0  0  0  0  0  0  0  0  0  0  0  0
   58.2390   33.1890   43.7370 N   0  0  0  0  0  0  0  0  0  0  0  0
   58.2930   32.9190   45.0500 C   0  0  0  0  0  0  0  0  0  0  0  0
   58.4900   33.8160   45.9200 N   0  0  0  0  0  0  0  0  0  0  0  0
   59.6470   34.5530   46.1750 C   0  0  0  0  0  0  0  0  0  0  0  0
   59.6670   35.7440   45.6760 O   0  0  0  0  0  0  0  0  0  0  0  0
   60.8210   34.1770   46.9170 C   0  0  0  0  0  0  0  0  0  0  0  0
   61.9470   33.8290   46.1780 C   0  0  0  0  0  0  0  0  0  0  0  0
   63.1140   33.4970   46.8150 C   0  0  0  0  0  0  0  0  0  0  0  0
   63.2670   33.4770   48.1990 C   0  0  0  0  0  0  0  0  0  0  0  0
   64.5060   33.0840   48.7030 N   0  0  0  0  0  0  0  0  0  0  0  0
   64.9440   32.5160   50.2400 S   0  0  0  0  0  0  0  0  0  0  0  0
   65.2480   33.7400   51.0920 O   0  0  0  0  0  0  0  0  0  0  0  0
   66.2340   31.7030   50.1130 O   0  0  0  0  0  0  0  0  0  0  0  0
   63.7300   31.5520   51.0280 C   0  0  0  0  0  0  0  0  0  0  0  0
   63.5990   31.3450   52.3640 C   0  0  0  0  0  0  0  0  0  0  0  0
   62.5980   30.5130   52.8400 C   0  0  0  0  0  0  0  0  0  0  0  0
   61.7160   29.8810   51.9790 C   0  0  0  0  0  0  0  0  0  0  0  0
   61.8340   30.0850   50.6050 C   0  0  0  0  0  0  0  0  0  0  0  0
   60.8730   29.3810   49.7830 C   0  0  0  0  0  0  0  0  0  0  0  0
   61.0360   28.1250   49.6310 O   0  0  0  0  0  0  0  0  0  0  0  0
   59.7650   29.9500   49.1270 N   0  0  0  0  0  0  0  0  0  0  0  0
   58.9080   29.0740   48.3390 C   0  0  0  0  0  0  0  0  0  0  0  0
   59.4080   31.3530   49.1770 C   0  0  0  0  0  0  0  0  0  0  0  0
   62.8270   30.9050   50.1740 C   0  0  0  0  0  0  0  0  0  0  0  0
   62.1470   33.8210   48.9200 C   0  0  0  0  0  0  0  0  0  0  0  0
   60.9520   34.1620   48.2810 C   0  0  0  0  0  0  0  0  0  0  0  0
   58.1600   31.6230   45.4660 C   0  0  0  0  0  0  0  0  0  0  0  0
   57.9710   30.5720   44.5630 C   0  0  0  0  0  0  0  0  0  0  0  0
   57.8650   29.1860   44.9820 C   0  0  0  0  0  0  0  0  0  0  0  0
   58.9700   28.3840   45.0990 C   0  0  0  0  0  0  0  0  0  0  0  0
   58.8950   27.0470   45.4970 C   0  0  0  0  0  0  0  0  0  0  0  0
   57.6880   26.4660   45.7950 C   0  0  0  0  0  0  0  0  0  0  0  0
   56.5570   27.2570   45.6830 C   0  0  0  0  0  0  0  0  0  0  0  0
   55.3500   26.6660   45.9830 O   0  0  0  0  0  0  0  0  0  0  0  0
   56.6390   28.5910   45.2850 C   0  0  0  0  0  0  0  0  0  0  0  0
   57.9260   30.8880   43.2600 N   0  0  0  0  0  0  0  0  0  0  0  0
   57.8747   33.5580   41.2242 H   0  0  0  0  0  0  0  0  0  0  0  0
   58.9655   32.1651   40.9130 H   0  0  0  0  0  0  0  0  0  0  0  0
   57.1848   31.9289   40.9130 H   0  0  0  0  0  0  0  0  0  0  0  0
   61.9005   33.8203   45.0790 H   0  0  0  0  0  0  0  0  0  0  0  0
   63.9828   33.2301   46.1954 H   0  0  0  0  0  0  0  0  0  0  0  0
   65.3300   33.1670   48.0000 H   0  0  0  0  0  0  0  0  0  0  0  0
   64.2867   31.8372   53.0674 H   0  0  0  0  0  0  0  0  0  0  0  0
   62.5020   30.3512   53.9238 H   0  0  0  0  0  0  0  0  0  0  0  0
   60.9288   29.2234   52.3762 H   0  0  0  0  0  0  0  0  0  0  0  0
   58.3001   28.4526   49.0130 H   0  0  0  0  0  0  0  0  0  0  0  0
   58.2464   29.6821   47.7045 H   0  0  0  0  0  0  0  0  0  0  0  0
   59.5305   28.4259   47.7045 H   0  0  0  0  0  0  0  0  0  0  0  0
   59.3265   31.6734   50.2261 H   0  0  0  0  0  0  0  0  0  0  0  0
   60.1836   31.9470   48.6714 H   0  0  0  0  0  0  0  0  0  0  0  0
   58.4428   31.5040   48.6714 H   0  0  0  0  0  0  0  0  0  0  0  0
   62.9283   31.0710   49.0913 H   0  0  0  0  0  0  0  0  0  0  0  0
   62.1930   33.8277   50.0190 H   0  0  0  0  0  0  0  0  0  0  0  0
   60.0813   34.4292   48.8978 H   0  0  0  0  0  0  0  0  0  0  0  0
   58.2029   31.4008   46.5425 H   0  0  0  0  0  0  0  0  0  0  0  0
   59.9575   28.8109   44.8699 H   0  0  0  0  0  0  0  0  0  0  0  0
   59.8167   26.4514   45.5726 H   0  0  0  0  0  0  0  0  0  0  0  0
   57.6216   25.4142   46.1102 H   0  0  0  0  0  0  0  0  0  0  0  0
   55.1400   26.3140   46.8870 H   0  0  0  0  0  0  0  0  0  0  0  0
   55.7178   29.1873   45.2082 H   0  0  0  0  0  0  0  0  0  0  0  0
   57.7880   30.1990   42.4910 H   0  0  0  0  0  0  0  0  0  0  0  0
  1  2  1  0
  2  3  2  0
  3  4  1  0
  4  5  2  0
  5  6  1  0
  6  7  2  0
  6  8  1  0
  8  9  2  0
  9 10  1  0
 10 11  2  0
 11 12  1  0
 12 13  1  0
 13 14  2  0
 13 15  2  0
 13 16  1  0
 16 17  2  0
 17 18  1  0
 18 19  2  0
 19 20  1  0
 20 21  1  0
 21 22  2  0
 21 23  1  0
 23 24  1  0
 23 25  1  0
 20 26  2  0
 11 27  1  0
 27 28  2  0
  4 29  1  0
 29 30  2  0
 30 31  1  0
 31 32  2  0
 32 33  1  0
 33 34  2  0
 34 35  1  0
 35 36  1  0
 35 37  2  0
 30 38  1  0
 38  2  1  0
 28  8  1  0
 37 31  1  0
 26 16  1  0
  1 39  1  0
  1 40  1  0
  1 41  1  0
  9 42  1  0
 10 43  1  0
 12 44  1  0
 17 45  1  0
 18 46  1  0
 19 47  1  0
 24 48  1  0
 24 49  1  0
 24 50  1  0
 25 51  1  0
 25 52  1  0
 25 53  1  0
 26 54  1  0
 27 55  1  0
 28 56  1  0
 29 57  1  0
 32 58  1  0
 33 59  1  0
 34 60  1  0
 36 61  1  0
 37 62  1  0
 38 63  1  0
M  END
>  <smiles>  (10) 
Cc1nc(=NC(=O)c2ccc(NS(=O)(=O)c3cccc(C(=O)N(C)C)c3)cc2)cc(-c2cccc(O)c2)[nH]1

>  <score_type>  (10) 
oracle

>  <origin>  (10) 
adg

>  <m_score__min__energy>  (10) 
-12.09

>  <m_primary>  (10) 
energy

$$$$
10:0
     RDKit          3D

 59 63  0  0  0  0  0  0  0  0999 V2000
   55.9540   29.3190   44.7620 C   0  0  0  0  0  0  0  0  0  0  0  0
   56.7370   30.5270   44.3760 C   0  0  0  0  0  0  0  0  0  0  0  0
   57.0600   30.8980   43.0860 C   0  0  0  0  0  0  0  0  0  0  0  0
   57.7640   32.0790   43.2010 C   0  0  0  0  0  0  0  0  0  0  0  0
   57.8190   32.3510   44.5560 C   0  0  0  0  0  0  0  0  0  0  0  0
   58.4640   33.5130   45.1800 C   0  0  0  0  0  0  0  0  0  0  0  0
   58.7920   34.6020   44.4350 N   0  0  0  0  0  0  0  0  0  0  0  0
   59.3810   35.6850   45.0030 C   0  0  0  0  0  0  0  0  0  0  0  0
   59.6530   35.6920   46.3700 C   0  0  0  0  0  0  0  0  0  0  0  0
   59.3060   34.5680   47.1290 C   0  0  0  0  0  0  0  0  0  0  0  0
   59.5650   34.5230   48.6160 C   0  0  0  0  0  0  0  0  0  0  0  0
   59.6480   33.1470   49.1550 N   0  0  0  0  0  0  0  0  0  0  0  0
   58.3450   32.4480   49.1710 C   0  0  0  0  0  0  0  0  0  0  0  0
   58.5440   30.9490   49.4110 C   0  0  0  0  0  0  0  0  0  0  0  0
   59.3000   30.3300   48.3020 N   0  0  0  0  0  0  0  0  0  0  0  0
   60.0150   28.8180   48.8130 S   0  0  0  0  0  0  0  0  0  0  0  0
   59.6130   28.5360   50.2340 O   0  0  0  0  0  0  0  0  0  0  0  0
   61.5140   28.9300   48.7670 O   0  0  0  0  0  0  0  0  0  0  0  0
   59.5000   27.4760   47.7860 C   0  0  0  0  0  0  0  0  0  0  0  0
   58.1380   27.2200   47.5890 C   0  0  0  0  0  0  0  0  0  0  0  0
   57.7320   26.1440   46.7940 C   0  0  0  0  0  0  0  0  0  0  0  0
   58.6800   25.3070   46.1800 C   0  0  0  0  0  0  0  0  0  0  0  0
   58.2280   24.1660   45.3430 C   0  0  0  0  0  0  0  0  0  0  0  0
   58.9290   22.9920   45.1010 C   0  0  0  0  0  0  0  0  0  0  0  0
   58.1340   22.2240   44.2810 C   0  0  0  0  0  0  0  0  0  0  0  0
   56.9910   22.9650   44.0650 C   0  0  0  0  0  0  0  0  0  0  0  0
   55.8820   22.5470   43.2640 N   0  0  0  0  0  0  0  0  0  0  0  0
   55.9420   21.4800   42.6200 O   0  0  0  0  0  0  0  0  0  0  0  0
   54.7430   23.3160   43.1960 O   0  0  0  0  0  0  0  0  0  0  0  0
   57.0370   24.1480   44.7070 N   0  0  0  0  0  0  0  0  0  0  0  0
   60.0480   25.5780   46.3760 C   0  0  0  0  0  0  0  0  0  0  0  0
   60.4520   26.6560   47.1700 C   0  0  0  0  0  0  0  0  0  0  0  0
   60.3000   31.2260   47.6730 C   0  0  0  0  0  0  0  0  0  0  0  0
   60.7750   32.3450   48.6180 C   0  0  0  0  0  0  0  0  0  0  0  0
   58.7260   33.5030   46.5130 N   0  0  0  0  0  0  0  0  0  0  0  0
   57.1970   31.4110   45.2310 O   0  0  0  0  0  0  0  0  0  0  0  0
   55.9075   29.2472   45.8587 H   0  0  0  0  0  0  0  0  0  0  0  0
   54.9347   29.3976   44.3561 H   0  0  0  0  0  0  0  0  0  0  0  0
   56.4420   28.4206   44.3561 H   0  0  0  0  0  0  0  0  0  0  0  0
   56.8082   30.3628   42.1585 H   0  0  0  0  0  0  0  0  0  0  0  0
   58.1924   32.6793   42.3849 H   0  0  0  0  0  0  0  0  0  0  0  0
   59.6434   36.5563   44.3850 H   0  0  0  0  0  0  0  0  0  0  0  0
   60.1305   36.5629   46.8428 H   0  0  0  0  0  0  0  0  0  0  0  0
   60.5165   35.0358   48.8202 H   0  0  0  0  0  0  0  0  0  0  0  0
   58.7141   35.0152   49.1097 H   0  0  0  0  0  0  0  0  0  0  0  0
   57.7209   32.8638   49.9758 H   0  0  0  0  0  0  0  0  0  0  0  0
   57.8527   32.5904   48.1976 H   0  0  0  0  0  0  0  0  0  0  0  0
   59.1001   30.8058   50.3492 H   0  0  0  0  0  0  0  0  0  0  0  0
   57.5557   30.4699   49.4713 H   0  0  0  0  0  0  0  0  0  0  0  0
   57.3846   27.8676   48.0613 H   0  0  0  0  0  0  0  0  0  0  0  0
   56.6592   25.9502   46.6474 H   0  0  0  0  0  0  0  0  0  0  0  0
   59.9240   22.7278   45.4885 H   0  0  0  0  0  0  0  0  0  0  0  0
   58.3630   21.2254   43.8806 H   0  0  0  0  0  0  0  0  0  0  0  0
   60.8048   24.9366   45.9008 H   0  0  0  0  0  0  0  0  0  0  0  0
   61.5236   26.8604   47.3110 H   0  0  0  0  0  0  0  0  0  0  0  0
   61.1714   30.6252   47.3735 H   0  0  0  0  0  0  0  0  0  0  0  0
   59.8184   31.7049   46.8077 H   0  0  0  0  0  0  0  0  0  0  0  0
   61.3177   31.8901   49.4598 H   0  0  0  0  0  0  0  0  0  0  0  0
   61.4223   33.0206   48.0397 H   0  0  0  0  0  0  0  0  0  0  0  0
  1  2  1  0
  2  3  2  0
  3  4  1  0
  4  5  2  0
  5  6  1  0
  6  7  2  0
  7  8  1  0
  8  9  2  0
  9 10  1  0
 10 11  1  0
 11 12  1  0
 12 13  1  0
 13 14  1  0
 14 15  1  0
 15 16  1  0
 16 17  2  0
 16 18  2  0
 16 19  1  0
 19 20  2  0
 20 21  1  0
 21 22  2  0
 22 23  1  0
 23 24  2  0
 24 25  1  0
 25 26  2  0
 26 27  1  0
 27 28  2  0
 27 29  1  0
 26 30  1  0
 22 31  1  0
 31 32  2  0
 15 33  1  0
 33 34  1  0
 10 35  2  0
  5 36  1  0
 36  2  1  0
 35  6  1  0
 34 12  1  0
 32 19  1  0
 30 23  1  0
  1 37  1  0
  1 38  1  0
  1 39  1  0
  3 40  1  0
  4 41  1  0
  8 42  1  0
  9 43  1  0
 11 44  1  0
 11 45  1  0
 13 46  1  0
 13 47  1  0
 14 48  1  0
 14 49  1  0
 20 50  1  0
 21 51  1  0
 24 52  1  0
 25 53  1  0
 31 54  1  0
 32 55  1  0
 33 56  1  0
 33 57  1  0
 34 58  1  0
 34 59  1  0
M  CHG  3  27   1  29  -1  30  -1
M  END
>  <UniqueID>  (11) 
10

>  <SMILES>  (11) 
Cc1ccc(-c2nccc(CN3CCN(S(=O)(=O)c4ccc(-c5ccc([N+](=O)[O-])[n-]5)cc4)CC3)n2)o1

>  <Energy>  (11) 
126.45132114578844

>  <Genealogy>  (11) 
Cc1ccc(-c2nccc(CN3CCN(S(=O)(=O)c4ccc(-c5ccc([N+](=O)[O-])[n-]5)cc4)CC3)n2)o1 (protonated)
Cc1ccc(-c2nccc(CN3CCN(S(=O)(=O)c4ccc(-c5ccc([N+](=O)[O-])[n-]5)cc4)CC3)n2)o1 (3D coordinates assigned)
Cc1ccc(-c2nccc(CN3CCN(S(=O)(=O)c4ccc(-c5ccc([N+](=O)[O-])[n-]5)cc4)CC3)n2)o1 (nonaromatic ring conformer: 126.45132114578844 kcal/mol)

>  <smiles>  (11) 
Cc1ccc(-c2nccc(CN3CCN(S(=O)(=O)c4ccc(-c5ccc([N+](=O)[O-])[nH]5)cc4)CC3)n2)o1

>  <score_type>  (11) 
oracle

>  <origin>  (11) 
adg

>  <m_score__min__energy>  (11) 
-14.130000000000001

>  <m_primary>  (11) 
energy

$$$$
11:0
     RDKit          3D

 38 40  0  0  0  0  0  0  0  0999 V2000
   56.2260   23.7490   45.2890 O   0  0  0  0  0  0  0  0  0  0  0  0
   56.2340   24.0370   46.5160 C   0  0  0  0  0  0  0  0  0  0  0  0
   55.3470   23.2860   47.4600 C   0  0  0  0  0  0  0  0  0  0  0  0
   54.1180   22.7880   46.7540 C   0  0  0  0  0  0  0  0  0  0  0  0
   53.6070   21.5530   46.9200 N   0  0  0  0  0  0  0  0  0  0  0  0
   52.5760   21.5180   46.0480 C   0  0  0  0  0  0  0  0  0  0  0  0
   51.8330   20.5110   45.9160 O   0  0  0  0  0  0  0  0  0  0  0  0
   52.4100   22.6450   45.3250 N   0  0  0  0  0  0  0  0  0  0  0  0
   53.3970   23.4380   45.7730 C   0  0  0  0  0  0  0  0  0  0  0  0
   53.6280   24.7190   45.2760 O   0  0  0  0  0  0  0  0  0  0  0  0
   57.1530   25.0060   47.0320 N   0  0  0  0  0  0  0  0  0  0  0  0
   57.4110   26.2990   46.4670 C   0  0  0  0  0  0  0  0  0  0  0  0
   58.7240   26.7840   46.4820 C   0  0  0  0  0  0  0  0  0  0  0  0
   59.0250   28.0410   45.9520 C   0  0  0  0  0  0  0  0  0  0  0  0
   58.0040   28.8470   45.4200 C   0  0  0  0  0  0  0  0  0  0  0  0
   58.2730   30.1320   44.8410 N   0  0  0  0  0  0  0  0  0  0  0  0
   57.4910   31.3230   45.0100 C   0  0  0  0  0  0  0  0  0  0  0  0
   56.2550   31.3070   44.7600 O   0  0  0  0  0  0  0  0  0  0  0  0
   58.1440   32.5860   45.4280 C   0  0  0  0  0  0  0  0  0  0  0  0
   58.2570   33.6630   44.5270 C   0  0  0  0  0  0  0  0  0  0  0  0
   58.8730   34.8540   44.9210 C   0  0  0  0  0  0  0  0  0  0  0  0
   59.3830   34.9860   46.2140 C   0  0  0  0  0  0  0  0  0  0  0  0
   59.2760   33.9260   47.1180 C   0  0  0  0  0  0  0  0  0  0  0  0
   59.9740   34.1080   48.8870 Br  0  0  0  0  0  0  0  0  0  0  0  0
   58.6590   32.7310   46.7290 C   0  0  0  0  0  0  0  0  0  0  0  0
   56.6890   28.3660   45.4080 C   0  0  0  0  0  0  0  0  0  0  0  0
   56.3830   27.1130   45.9510 C   0  0  0  0  0  0  0  0  0  0  0  0
   55.0540   26.7070   46.0000 O   0  0  0  0  0  0  0  0  0  0  0  0
   55.9003   22.4281   47.8696 H   0  0  0  0  0  0  0  0  0  0  0  0
   55.0387   23.9640   48.2694 H   0  0  0  0  0  0  0  0  0  0  0  0
   54.5380   25.1580   45.3290 H   0  0  0  0  0  0  0  0  0  0  0  0
   59.5267   26.1693   46.9154 H   0  0  0  0  0  0  0  0  0  0  0  0
   60.0644   28.4010   45.9511 H   0  0  0  0  0  0  0  0  0  0  0  0
   57.8578   33.5659   43.5066 H   0  0  0  0  0  0  0  0  0  0  0  0
   58.9563   35.6896   44.2105 H   0  0  0  0  0  0  0  0  0  0  0  0
   59.8688   35.9240   46.5208 H   0  0  0  0  0  0  0  0  0  0  0  0
   58.5764   31.9002   47.4452 H   0  0  0  0  0  0  0  0  0  0  0  0
   55.8888   28.9789   44.9675 H   0  0  0  0  0  0  0  0  0  0  0  0
  1  2  2  0
  2  3  1  0
  3  4  1  0
  4  5  1  0
  5  6  1  0
  6  7  2  0
  6  8  1  0
  8  9  1  0
  9 10  1  0
  2 11  1  0
 11 12  1  0
 12 13  2  0
 13 14  1  0
 14 15  2  0
 15 16  1  0
 16 17  1  0
 17 18  2  0
 17 19  1  0
 19 20  2  0
 20 21  1  0
 21 22  2  0
 22 23  1  0
 23 24  1  0
 23 25  2  0
 15 26  1  0
 26 27  2  0
 27 28  1  0
  9  4  2  0
 27 12  1  0
 25 19  1  0
  3 29  1  0
  3 30  1  0
 10 31  1  0
 13 32  1  0
 14 33  1  0
 20 34  1  0
 21 35  1  0
 22 36  1  0
 25 37  1  0
 26 38  1  0
M  CHG  5   5  -1   8  -1  11  -1  16  -1  28  -1
M  END
>  <UniqueID>  (12) 
11

>  <SMILES>  (12) 
O=C(Cc1[n-]c(=O)[n-]c1O)[N-]c1ccc([N-]C(=O)c2cccc(Br)c2)cc1[O-]

>  <Energy>  (12) 
78.33477212059407

>  <Genealogy>  (12) 
O=C(Cc1[n-]c(=O)[n-]c1O)[N-]c1ccc([N-]C(=O)c2cccc(Br)c2)cc1[O-] (protonated)
O=C(Cc1[n-]c(=O)[n-]c1O)[N-]c1ccc([N-]C(=O)c2cccc(Br)c2)cc1[O-] (3D coordinates assigned)
O=C(Cc1[n-]c(=O)[n-]c1O)[N-]c1ccc([N-]C(=O)c2cccc(Br)c2)cc1[O-] (optimized conformer: 78.33477212059407 kcal/mol)

>  <smiles>  (12) 
O=C(Cc1[nH]c(=O)[nH]c1O)Nc1ccc(NC(=O)c2cccc(Br)c2)cc1O

>  <score_type>  (12) 
oracle

>  <origin>  (12) 
adg

>  <m_score__min__energy>  (12) 
-19.510000000000002

>  <m_primary>  (12) 
energy

$$$$
12:0
     RDKit          3D

 35 37  0  0  0  0  0  0  0  0999 V2000
   54.3390   26.7180   46.3740 H   0  0  0  0  0  0  0  0  0  0  0  0
   54.4250   25.8460   45.8030 N   0  0  0  0  0  0  0  0  0  0  0  0
   56.0630   25.3140   45.9400 S   0  0  0  0  0  0  0  0  0  0  0  0
   56.3300   24.2420   44.9210 O   0  0  0  0  0  0  0  0  0  0  0  0
   56.2900   24.7430   47.3120 O   0  0  0  0  0  0  0  0  0  0  0  0
   57.1480   26.6750   45.6740 C   0  0  0  0  0  0  0  0  0  0  0  0
   58.5350   26.4840   45.6980 C   0  0  0  0  0  0  0  0  0  0  0  0
   58.9475   25.4809   45.8811 H   0  0  0  0  0  0  0  0  0  0  0  0
   59.3960   27.5640   45.4900 C   0  0  0  0  0  0  0  0  0  0  0  0
   60.4850   27.4120   45.5231 H   0  0  0  0  0  0  0  0  0  0  0  0
   58.8770   28.8370   45.2400 C   0  0  0  0  0  0  0  0  0  0  0  0
   59.5586   29.6881   45.0950 H   0  0  0  0  0  0  0  0  0  0  0  0
   57.4840   29.0340   45.1730 C   0  0  0  0  0  0  0  0  0  0  0  0
   56.9100   30.3320   44.9420 N   0  0  0  0  0  0  0  0  0  0  0  0
   57.4390   31.4810   45.2470 C   0  0  0  0  0  0  0  0  0  0  0  0
   58.6990   31.5650   45.7590 N   0  0  0  0  0  0  0  0  0  0  0  0
   59.2750   32.7620   46.0560 C   0  0  0  0  0  0  0  0  0  0  0  0
   60.6480   32.7860   46.6210 C   0  0  0  0  0  0  0  0  0  0  0  0
   61.5310   33.8550   46.3660 C   0  0  0  0  0  0  0  0  0  0  0  0
   61.2012   34.6984   45.7416 H   0  0  0  0  0  0  0  0  0  0  0  0
   62.8230   33.8510   46.9010 C   0  0  0  0  0  0  0  0  0  0  0  0
   63.5023   34.6926   46.7003 H   0  0  0  0  0  0  0  0  0  0  0  0
   63.2530   32.7820   47.6890 C   0  0  0  0  0  0  0  0  0  0  0  0
   64.2684   32.7837   48.1119 H   0  0  0  0  0  0  0  0  0  0  0  0
   62.3940   31.7110   47.9400 C   0  0  0  0  0  0  0  0  0  0  0  0
   62.7349   30.8669   48.5575 H   0  0  0  0  0  0  0  0  0  0  0  0
   61.1010   31.7090   47.4080 C   0  0  0  0  0  0  0  0  0  0  0  0
   60.4315   30.8589   47.6057 H   0  0  0  0  0  0  0  0  0  0  0  0
   58.5420   33.9390   45.8340 C   0  0  0  0  0  0  0  0  0  0  0  0
   58.9715   34.9216   46.0791 H   0  0  0  0  0  0  0  0  0  0  0  0
   57.2570   33.8380   45.2960 C   0  0  0  0  0  0  0  0  0  0  0  0
   56.5780   34.8750   45.0790 O   0  0  0  0  0  0  0  0  0  0  0  0
   56.7360   32.6170   45.0100 N   0  0  0  0  0  0  0  0  0  0  0  0
   56.6290   27.9510   45.4150 C   0  0  0  0  0  0  0  0  0  0  0  0
   55.5397   28.1035   45.4016 H   0  0  0  0  0  0  0  0  0  0  0  0
  1  2  1  0
  2  3  1  0
  3  4  2  0
  3  5  2  0
  3  6  1  0
  6  7  2  0
  7  8  1  0
  7  9  1  0
  9 10  1  0
  9 11  2  0
 11 12  1  0
 11 13  1  0
 13 14  1  0
 14 15  2  0
 15 16  1  0
 16 17  1  0
 17 18  1  0
 18 19  2  0
 19 20  1  0
 19 21  1  0
 21 22  1  0
 21 23  2  0
 23 24  1  0
 23 25  1  0
 25 26  1  0
 25 27  2  0
 27 28  1  0
 17 29  2  0
 29 30  1  0
 29 31  1  0
 31 32  2  0
 31 33  1  0
 13 34  2  0
 34 35  1  0
 34  6  1  0
 33 15  1  0
 27 18  1  0
M  CHG  3   2  -1  16  -1  33  -1
M  END
>  <UniqueID>  (13) 
12

>  <SMILES>  (13) 
[NH-]S(=O)(=O)c1cccc(/N=c2\[n-]c(-c3ccccc3)cc(=O)[n-]2)c1

>  <Energy>  (13) 
48.38300477411757

>  <Genealogy>  (13) 
[NH-]S(=O)(=O)c1cccc(N=c2[n-]c(-c3ccccc3)cc(=O)[n-]2)c1 (protonated)
[NH-]S(=O)(=O)c1cccc(/N=c2\[n-]c(-c3ccccc3)cc(=O)[n-]2)c1 (cis-trans isomerization)
[NH-]S(=O)(=O)c1cccc(/N=c2\[n-]c(-c3ccccc3)cc(=O)[n-]2)c1 (3D coordinates assigned)
[NH-]S(=O)(=O)c1cccc(/N=c2\[n-]c(-c3ccccc3)cc(=O)[n-]2)c1 (optimized conformer: 48.38300477411757 kcal/mol)

>  <smiles>  (13) 
NS(=O)(=O)c1cccc(N=c2[nH]c(-c3ccccc3)cc(=O)[nH]2)c1

>  <score_type>  (13) 
oracle

>  <origin>  (13) 
adg

>  <m_score__min__energy>  (13) 
-13.66

>  <m_primary>  (13) 
energy

$$$$
13:0
     RDKit          3D

 51 54  0  0  0  0  0  0  0  0999 V2000
   60.2040   33.0050   46.4040 C   0  0  0  0  0  0  0  0  0  0  0  0
   60.1970   31.6820   46.6800 C   0  0  0  0  0  0  0  0  0  0  0  0
   59.4770   30.8000   45.8400 C   0  0  0  0  0  0  0  0  0  0  0  0
   58.8540   31.2370   44.8290 O   0  0  0  0  0  0  0  0  0  0  0  0
   59.4570   29.4260   46.1460 C   0  0  0  0  0  0  0  0  0  0  0  0
   58.8000   28.5410   45.3660 C   0  0  0  0  0  0  0  0  0  0  0  0
   57.9470   27.4440   45.8810 C   0  0  0  0  0  0  0  0  0  0  0  0
   58.5500   26.3750   46.5580 C   0  0  0  0  0  0  0  0  0  0  0  0
   57.7800   25.3120   47.0360 C   0  0  0  0  0  0  0  0  0  0  0  0
   56.3880   25.2930   46.8300 C   0  0  0  0  0  0  0  0  0  0  0  0
   55.5690   24.2520   47.3000 O   0  0  0  0  0  0  0  0  0  0  0  0
   54.8000   23.3720   46.4790 C   0  0  0  0  0  0  0  0  0  0  0  0
   55.6030   22.9090   45.2920 C   0  0  0  0  0  0  0  0  0  0  0  0
   55.3800   23.4610   44.0190 C   0  0  0  0  0  0  0  0  0  0  0  0
   56.1230   23.0210   42.9200 C   0  0  0  0  0  0  0  0  0  0  0  0
   57.0860   22.0210   43.0810 C   0  0  0  0  0  0  0  0  0  0  0  0
   57.3040   21.4570   44.3410 C   0  0  0  0  0  0  0  0  0  0  0  0
   56.5630   21.8950   45.4430 C   0  0  0  0  0  0  0  0  0  0  0  0
   55.7880   26.3450   46.1240 C   0  0  0  0  0  0  0  0  0  0  0  0
   54.4190   26.3340   45.8910 O   0  0  0  0  0  0  0  0  0  0  0  0
   56.5610   27.4090   45.6470 C   0  0  0  0  0  0  0  0  0  0  0  0
   60.1430   28.9910   47.2330 N   0  0  0  0  0  0  0  0  0  0  0  0
   60.8350   29.8310   48.0380 C   0  0  0  0  0  0  0  0  0  0  0  0
   61.4490   29.3540   49.0310 O   0  0  0  0  0  0  0  0  0  0  0  0
   60.8720   31.1740   47.7730 N   0  0  0  0  0  0  0  0  0  0  0  0
   61.6330   32.0230   48.6560 C   0  0  0  0  0  0  0  0  0  0  0  0
   60.9780   32.8270   49.5970 C   0  0  0  0  0  0  0  0  0  0  0  0
   61.7140   33.6490   50.4560 C   0  0  0  0  0  0  0  0  0  0  0  0
   63.1180   33.6750   50.3850 C   0  0  0  0  0  0  0  0  0  0  0  0
   63.8960   34.5450   51.2950 C   0  0  0  0  0  0  0  0  0  0  0  0
   64.6910   34.0460   52.1360 O   0  0  0  0  0  0  0  0  0  0  0  0
   63.7610   35.9270   51.2330 O   0  0  0  0  0  0  0  0  0  0  0  0
   63.7700   32.8620   49.4400 C   0  0  0  0  0  0  0  0  0  0  0  0
   63.0310   32.0410   48.5830 C   0  0  0  0  0  0  0  0  0  0  0  0
   60.7607   33.6989   47.0510 H   0  0  0  0  0  0  0  0  0  0  0  0
   59.6530   33.3879   45.5324 H   0  0  0  0  0  0  0  0  0  0  0  0
   58.9049   28.6410   44.2756 H   0  0  0  0  0  0  0  0  0  0  0  0
   59.6388   26.3731   46.7142 H   0  0  0  0  0  0  0  0  0  0  0  0
   58.2643   24.4853   47.5764 H   0  0  0  0  0  0  0  0  0  0  0  0
   54.4974   22.4970   47.0730 H   0  0  0  0  0  0  0  0  0  0  0  0
   53.9140   23.9133   46.1156 H   0  0  0  0  0  0  0  0  0  0  0  0
   54.6174   24.2427   43.8870 H   0  0  0  0  0  0  0  0  0  0  0  0
   55.9497   23.4622   41.9274 H   0  0  0  0  0  0  0  0  0  0  0  0
   57.6724   21.6778   42.2159 H   0  0  0  0  0  0  0  0  0  0  0  0
   58.0596   20.6674   44.4660 H   0  0  0  0  0  0  0  0  0  0  0  0
   56.7326   21.4437   46.4317 H   0  0  0  0  0  0  0  0  0  0  0  0
   56.0812   28.2238   45.0850 H   0  0  0  0  0  0  0  0  0  0  0  0
   59.8800   32.8119   49.6607 H   0  0  0  0  0  0  0  0  0  0  0  0
   61.1917   34.2787   51.1913 H   0  0  0  0  0  0  0  0  0  0  0  0
   64.8680   32.8723   49.3750 H   0  0  0  0  0  0  0  0  0  0  0  0
   63.5497   31.4070   47.8489 H   0  0  0  0  0  0  0  0  0  0  0  0
  1  2  2  0
  2  3  1  0
  3  4  2  0
  3  5  1  0
  5  6  2  3
  6  7  1  0
  7  8  2  0
  8  9  1  0
  9 10  2  0
 10 11  1  0
 11 12  1  0
 12 13  1  0
 13 14  2  0
 14 15  1  0
 15 16  2  0
 16 17  1  0
 17 18  2  0
 10 19  1  0
 19 20  1  0
 19 21  2  0
  5 22  1  0
 22 23  1  0
 23 24  2  0
 23 25  1  0
 25 26  1  0
 26 27  2  0
 27 28  1  0
 28 29  2  0
 29 30  1  0
 30 31  2  0
 30 32  1  0
 29 33  1  0
 33 34  2  0
 25  2  1  0
 34 26  1  0
 21  7  1  0
 18 13  1  0
  1 35  1  0
  1 36  1  0
  6 37  1  0
  8 38  1  0
  9 39  1  0
 12 40  1  0
 12 41  1  0
 14 42  1  0
 15 43  1  0
 16 44  1  0
 17 45  1  0
 18 46  1  0
 21 47  1  0
 27 48  1  0
 28 49  1  0
 33 50  1  0
 34 51  1  0
M  CHG  3  20  -1  22  -1  32  -1
M  END
>  <UniqueID>  (14) 
13

>  <SMILES>  (14) 
C=c1c(=O)c(=Cc2ccc(OCc3ccccc3)c([O-])c2)[n-]c(=O)n1-c1ccc(C(=O)[O-])cc1

>  <Energy>  (14) 
80.45497276791211

>  <Genealogy>  (14) 
C=c1c(=O)c(=Cc2ccc(OCc3ccccc3)c([O-])c2)[n-]c(=O)n1-c1ccc(C(=O)[O-])cc1 (protonated)
C=c1c(=O)c(=Cc2ccc(OCc3ccccc3)c([O-])c2)[n-]c(=O)n1-c1ccc(C(=O)[O-])cc1 (3D coordinates assigned)
C=c1c(=O)c(=Cc2ccc(OCc3ccccc3)c([O-])c2)[n-]c(=O)n1-c1ccc(C(=O)[O-])cc1 (optimized conformer: 80.45497276791211 kcal/mol)

>  <smiles>  (14) 
C=c1c(=O)c(=Cc2ccc(OCc3ccccc3)c(O)c2)[nH]c(=O)n1-c1ccc(C(=O)O)cc1

>  <score_type>  (14) 
oracle

>  <origin>  (14) 
adg

>  <m_score__min__energy>  (14) 
-13.19

>  <m_primary>  (14) 
energy

$$$$
14:0
     RDKit          3D

 62 65  0  0  0  0  0  0  0  0999 V2000
   57.5980   25.9120   46.7120 C   0  0  0  0  0  0  0  0  0  0  0  0
   58.6900   26.7350   47.3870 C   0  0  0  0  0  0  0  0  0  0  0  0
   58.3200   28.2250   47.5460 C   0  0  0  0  0  0  0  0  0  0  0  0
   59.4770   29.1140   47.3440 N   0  0  0  0  0  0  0  0  0  0  0  0
   60.0770   29.5040   46.1790 C   0  0  0  0  0  0  0  0  0  0  0  0
   59.5130   29.4100   44.7660 C   0  0  0  0  0  0  0  0  0  0  0  0
   58.4640   30.5080   44.4830 C   0  0  0  0  0  0  0  0  0  0  0  0
   57.0020   30.0650   44.6950 C   0  0  0  0  0  0  0  0  0  0  0  0
   56.7250   28.6560   44.3430 N   0  0  0  0  0  0  0  0  0  0  0  0
   57.7700   28.0300   43.5270 C   0  0  0  0  0  0  0  0  0  0  0  0
   59.0920   28.0000   44.2990 C   0  0  0  0  0  0  0  0  0  0  0  0
   61.1610   30.2800   46.4000 N   0  0  0  0  0  0  0  0  0  0  0  0
   61.2540   30.3820   47.7360 C   0  0  0  0  0  0  0  0  0  0  0  0
   62.2860   31.2210   48.4180 C   0  0  0  0  0  0  0  0  0  0  0  0
   60.1960   29.7190   48.3240 C   0  0  0  0  0  0  0  0  0  0  0  0
   59.8530   29.7440   49.7970 C   0  0  0  0  0  0  0  0  0  0  0  0
   58.7010   30.6730   50.0760 C   0  0  0  0  0  0  0  0  0  0  0  0
   57.7120   30.2430   50.7230 O   0  0  0  0  0  0  0  0  0  0  0  0
   58.7390   32.0600   49.7130 N   0  0  0  0  0  0  0  0  0  0  0  0
   59.8980   32.9080   49.7010 C   0  0  0  0  0  0  0  0  0  0  0  0
   60.7980   32.8930   50.7800 C   0  0  0  0  0  0  0  0  0  0  0  0
   61.9130   33.7320   50.7850 C   0  0  0  0  0  0  0  0  0  0  0  0
   62.1580   34.5740   49.7020 C   0  0  0  0  0  0  0  0  0  0  0  0
   61.3050   34.5590   48.5970 C   0  0  0  0  0  0  0  0  0  0  0  0
   60.1790   33.7140   48.5700 C   0  0  0  0  0  0  0  0  0  0  0  0
   59.3170   33.6920   47.3570 C   0  0  0  0  0  0  0  0  0  0  0  0
   59.8800   33.8870   46.0820 C   0  0  0  0  0  0  0  0  0  0  0  0
   59.0730   33.8700   44.9410 C   0  0  0  0  0  0  0  0  0  0  0  0
   57.7020   33.6400   45.0560 C   0  0  0  0  0  0  0  0  0  0  0  0
   57.1350   33.4160   46.3130 C   0  0  0  0  0  0  0  0  0  0  0  0
   57.9370   33.4330   47.4570 C   0  0  0  0  0  0  0  0  0  0  0  0
   56.9688   25.4378   47.4797 H   0  0  0  0  0  0  0  0  0  0  0  0
   56.9782   26.5695   46.0847 H   0  0  0  0  0  0  0  0  0  0  0  0
   58.0593   25.1350   46.0847 H   0  0  0  0  0  0  0  0  0  0  0  0
   58.8784   26.3134   48.3854 H   0  0  0  0  0  0  0  0  0  0  0  0
   59.5801   26.6869   46.7425 H   0  0  0  0  0  0  0  0  0  0  0  0
   57.5463   28.4781   46.8062 H   0  0  0  0  0  0  0  0  0  0  0  0
   57.9576   28.3734   48.5739 H   0  0  0  0  0  0  0  0  0  0  0  0
   60.3736   29.6183   44.1133 H   0  0  0  0  0  0  0  0  0  0  0  0
   58.6663   31.3572   45.1523 H   0  0  0  0  0  0  0  0  0  0  0  0
   58.5614   30.7670   43.4184 H   0  0  0  0  0  0  0  0  0  0  0  0
   56.7512   30.2084   45.7564 H   0  0  0  0  0  0  0  0  0  0  0  0
   56.3904   30.6798   44.0182 H   0  0  0  0  0  0  0  0  0  0  0  0
   55.8260   28.6130   43.8080 H   0  0  0  0  0  0  0  0  0  0  0  0
   57.4703   27.0012   43.2784 H   0  0  0  0  0  0  0  0  0  0  0  0
   57.9047   28.6135   42.6043 H   0  0  0  0  0  0  0  0  0  0  0  0
   58.9753   27.3526   45.1806 H   0  0  0  0  0  0  0  0  0  0  0  0
   59.8727   27.6142   43.6270 H   0  0  0  0  0  0  0  0  0  0  0  0
   62.1720   31.1283   49.5081 H   0  0  0  0  0  0  0  0  0  0  0  0
   63.2893   30.8792   48.1239 H   0  0  0  0  0  0  0  0  0  0  0  0
   62.1562   32.2730   48.1239 H   0  0  0  0  0  0  0  0  0  0  0  0
   59.5797   28.7281   50.1184 H   0  0  0  0  0  0  0  0  0  0  0  0
   60.7317   30.1050   50.3515 H   0  0  0  0  0  0  0  0  0  0  0  0
   60.6222   32.2143   51.6276 H   0  0  0  0  0  0  0  0  0  0  0  0
   62.5992   33.7287   51.6447 H   0  0  0  0  0  0  0  0  0  0  0  0
   63.0246   35.2513   49.7178 H   0  0  0  0  0  0  0  0  0  0  0  0
   61.5147   35.2141   47.7386 H   0  0  0  0  0  0  0  0  0  0  0  0
   60.9627   34.0540   45.9828 H   0  0  0  0  0  0  0  0  0  0  0  0
   59.5200   34.0384   43.9501 H   0  0  0  0  0  0  0  0  0  0  0  0
   57.0676   33.6350   44.1574 H   0  0  0  0  0  0  0  0  0  0  0  0
   56.0552   33.2259   46.4023 H   0  0  0  0  0  0  0  0  0  0  0  0
   57.4869   33.2427   48.4425 H   0  0  0  0  0  0  0  0  0  0  0  0
  1  2  1  0
  2  3  1  0
  3  4  1  0
  4  5  1  0
  5  6  1  0
  6  7  1  0
  7  8  1  0
  8  9  1  0
  9 10  1  0
 10 11  1  0
  5 12  2  0
 12 13  1  0
 13 14  1  0
 13 15  2  0
 15 16  1  0
 16 17  1  0
 17 18  2  0
 17 19  1  0
 19 20  1  0
 20 21  2  0
 21 22  1  0
 22 23  2  0
 23 24  1  0
 24 25  2  0
 25 26  1  0
 26 27  2  0
 27 28  1  0
 28 29  2  0
 29 30  1  0
 30 31  2  0
 15  4  1  0
 25 20  1  0
 31 26  1  0
 11  6  1  0
  1 32  1  0
  1 33  1  0
  1 34  1  0
  2 35  1  0
  2 36  1  0
  3 37  1  0
  3 38  1  0
  6 39  1  0
  7 40  1  0
  7 41  1  0
  8 42  1  0
  8 43  1  0
  9 44  1  0
 10 45  1  0
 10 46  1  0
 11 47  1  0
 11 48  1  0
 14 49  1  0
 14 50  1  0
 14 51  1  0
 16 52  1  0
 16 53  1  0
 21 54  1  0
 22 55  1  0
 23 56  1  0
 24 57  1  0
 27 58  1  0
 28 59  1  0
 29 60  1  0
 30 61  1  0
 31 62  1  0
M  CHG  1  19  -1
M  END
>  <UniqueID>  (15) 
14

>  <SMILES>  (15) 
CCCn1c(C2CCNCC2)nc(C)c1CC(=O)[N-]c1ccccc1-c1ccccc1

>  <Energy>  (15) 
110.94546369415106

>  <Genealogy>  (15) 
CCCn1c(C2CCNCC2)nc(C)c1CC(=O)[N-]c1ccccc1-c1ccccc1 (protonated)
CCCn1c(C2CCNCC2)nc(C)c1CC(=O)[N-]c1ccccc1-c1ccccc1 (3D coordinates assigned)
CCCn1c(C2CCNCC2)nc(C)c1CC(=O)[N-]c1ccccc1-c1ccccc1 (nonaromatic ring conformer: 110.94546369415106 kcal/mol)

>  <smiles>  (15) 
CCCn1c(C2CCNCC2)nc(C)c1CC(=O)Nc1ccccc1-c1ccccc1

>  <score_type>  (15) 
oracle

>  <origin>  (15) 
adg

>  <m_score__min__energy>  (15) 
-10.81

>  <m_primary>  (15) 
energy

$$$$
15:0
     RDKit          3D

 47 49  0  0  0  0  0  0  0  0999 V2000
   59.7310   29.4990   45.5020 C   0  0  0  0  0  0  0  0  0  0  0  0
   58.4140   29.3630   45.2960 C   0  0  0  0  0  0  0  0  0  0  0  0
   57.5710   28.3810   45.8230 C   0  0  0  0  0  0  0  0  0  0  0  0
   57.9160   27.3740   46.6470 C   0  0  0  0  0  0  0  0  0  0  0  0
   57.2750   26.0410   46.6230 C   0  0  0  0  0  0  0  0  0  0  0  0
   57.9040   24.8780   46.8860 N   0  0  0  0  0  0  0  0  0  0  0  0
   56.9280   23.9550   46.7540 C   0  0  0  0  0  0  0  0  0  0  0  0
   57.1330   22.7240   46.9240 O   0  0  0  0  0  0  0  0  0  0  0  0
   55.7160   24.4510   46.4240 N   0  0  0  0  0  0  0  0  0  0  0  0
   55.9480   25.7730   46.3410 C   0  0  0  0  0  0  0  0  0  0  0  0
   54.9590   26.6970   46.0050 O   0  0  0  0  0  0  0  0  0  0  0  0
   56.3060   28.6140   45.4100 N   0  0  0  0  0  0  0  0  0  0  0  0
   56.4040   29.7250   44.6540 C   0  0  0  0  0  0  0  0  0  0  0  0
   55.4030   30.2690   44.1130 O   0  0  0  0  0  0  0  0  0  0  0  0
   57.6610   30.2060   44.5500 N   0  0  0  0  0  0  0  0  0  0  0  0
   58.0630   31.4670   43.9090 C   0  0  0  0  0  0  0  0  0  0  0  0
   57.7540   32.6340   44.8020 C   0  0  0  0  0  0  0  0  0  0  0  0
   56.5850   32.7880   45.2520 O   0  0  0  0  0  0  0  0  0  0  0  0
   58.7780   33.5840   45.1140 N   0  0  0  0  0  0  0  0  0  0  0  0
   59.0860   34.0390   46.4600 C   0  0  0  0  0  0  0  0  0  0  0  0
   60.4140   33.4590   46.8750 C   0  0  0  0  0  0  0  0  0  0  0  0
   61.6000   33.9990   46.3570 C   0  0  0  0  0  0  0  0  0  0  0  0
   62.8330   33.4580   46.7100 C   0  0  0  0  0  0  0  0  0  0  0  0
   62.8990   32.3730   47.5830 C   0  0  0  0  0  0  0  0  0  0  0  0
   61.7240   31.8080   48.1210 C   0  0  0  0  0  0  0  0  0  0  0  0
   61.7890   30.7200   49.0050 O   0  0  0  0  0  0  0  0  0  0  0  0
   62.0600   30.8130   50.4020 C   0  0  0  0  0  0  0  0  0  0  0  0
   60.4640   32.3540   47.7560 C   0  0  0  0  0  0  0  0  0  0  0  0
   59.2330   31.8400   48.2140 O   0  0  0  0  0  0  0  0  0  0  0  0
   58.9340   30.4810   48.5260 C   0  0  0  0  0  0  0  0  0  0  0  0
   60.2804   30.3229   45.0231 H   0  0  0  0  0  0  0  0  0  0  0  0
   60.2628   28.7867   46.1500 H   0  0  0  0  0  0  0  0  0  0  0  0
   58.7184   27.5520   47.3781 H   0  0  0  0  0  0  0  0  0  0  0  0
   55.1450   27.4750   45.3830 H   0  0  0  0  0  0  0  0  0  0  0  0
   59.1441   31.4419   43.7076 H   0  0  0  0  0  0  0  0  0  0  0  0
   57.5040   31.5815   42.9685 H   0  0  0  0  0  0  0  0  0  0  0  0
   59.1409   35.1375   46.4758 H   0  0  0  0  0  0  0  0  0  0  0  0
   58.2999   33.7100   47.1556 H   0  0  0  0  0  0  0  0  0  0  0  0
   61.5557   34.8551   45.6677 H   0  0  0  0  0  0  0  0  0  0  0  0
   63.7583   33.8879   46.2988 H   0  0  0  0  0  0  0  0  0  0  0  0
   63.8785   31.9529   47.8553 H   0  0  0  0  0  0  0  0  0  0  0  0
   61.1687   30.5071   50.9695 H   0  0  0  0  0  0  0  0  0  0  0  0
   62.9017   30.1523   50.6570 H   0  0  0  0  0  0  0  0  0  0  0  0
   62.3186   31.8513   50.6570 H   0  0  0  0  0  0  0  0  0  0  0  0
   58.9059   30.3532   49.6182 H   0  0  0  0  0  0  0  0  0  0  0  0
   57.9556   30.2138   48.1002 H   0  0  0  0  0  0  0  0  0  0  0  0
   59.7099   29.8278   48.1002 H   0  0  0  0  0  0  0  0  0  0  0  0
  1  2  2  0
  2  3  1  0
  3  4  2  3
  4  5  1  0
  5  6  1  0
  6  7  1  0
  7  8  2  0
  7  9  1  0
  9 10  1  0
 10 11  1  0
  3 12  1  0
 12 13  1  0
 13 14  2  0
 13 15  1  0
 15 16  1  0
 16 17  1  0
 17 18  2  0
 17 19  1  0
 19 20  1  0
 20 21  1  0
 21 22  2  0
 22 23  1  0
 23 24  2  0
 24 25  1  0
 25 26  1  0
 26 27  1  0
 25 28  2  0
 28 29  1  0
 29 30  1  0
 15  2  1  0
 28 21  1  0
 10  5  2  0
  1 31  1  0
  1 32  1  0
  4 33  1  0
 11 34  1  0
 16 35  1  0
 16 36  1  0
 20 37  1  0
 20 38  1  0
 22 39  1  0
 23 40  1  0
 24 41  1  0
 27 42  1  0
 27 43  1  0
 27 44  1  0
 30 45  1  0
 30 46  1  0
 30 47  1  0
M  CHG  4   6  -1   9  -1  12  -1  19  -1
M  END
>  <UniqueID>  (16) 
15

>  <SMILES>  (16) 
C=c1c(=Cc2[n-]c(=O)[n-]c2O)[n-]c(=O)n1CC(=O)[N-]Cc1cccc(OC)c1OC

>  <Energy>  (16) 
110.09514137950102

>  <Genealogy>  (16) 
C=c1c(=Cc2[n-]c(=O)[n-]c2O)[n-]c(=O)n1CC(=O)[N-]Cc1cccc(OC)c1OC (protonated)
C=c1c(=Cc2[n-]c(=O)[n-]c2O)[n-]c(=O)n1CC(=O)[N-]Cc1cccc(OC)c1OC (3D coordinates assigned)
C=c1c(=Cc2[n-]c(=O)[n-]c2O)[n-]c(=O)n1CC(=O)[N-]Cc1cccc(OC)c1OC (optimized conformer: 110.09514137950102 kcal/mol)

>  <smiles>  (16) 
C=c1c(=Cc2[nH]c(=O)[nH]c2O)[nH]c(=O)n1CC(=O)NCc1cccc(OC)c1OC

>  <score_type>  (16) 
oracle

>  <origin>  (16) 
adg

>  <m_score__min__energy>  (16) 
-15.199999999999999

>  <m_primary>  (16) 
energy

$$$$
16:0
     RDKit          3D

 57 61  0  0  1  0  0  0  0  0999 V2000
   59.4350   31.1990   51.3750 C   0  0  0  0  0  0  0  0  0  0  0  0
   60.6480   30.5420   51.2020 C   0  0  0  0  0  0  0  0  0  0  0  0
   60.8970   29.9300   49.9910 C   0  0  0  0  0  0  0  0  0  0  0  0
   60.0050   29.9360   48.9420 C   0  0  0  0  0  0  0  0  0  0  0  0
   60.2600   29.2930   47.6590 C   0  0  0  0  0  0  0  0  0  0  0  0
   60.7570   29.9610   46.5610 C   0  0  0  0  0  0  0  0  0  0  0  0
   60.9950   29.3340   45.3460 C   0  0  0  0  0  0  0  0  0  0  0  0
   60.7350   28.0200   45.2140 N   0  0  0  0  0  0  0  0  0  0  0  0
   60.2460   27.3580   46.2920 C   0  0  0  0  0  0  0  0  0  0  0  0
   59.9930   26.0890   46.1730 N   0  0  0  0  0  0  0  0  0  0  0  0
   58.6020   25.6790   46.1420 C   0  0  0  0  0  0  0  0  0  0  0  0
   58.1020   25.9100   44.7310 C   0  0  0  0  0  0  0  0  0  0  0  0
   57.7310   27.3480   44.5950 C   0  0  0  0  0  0  0  0  0  0  0  0
   57.7290   28.0150   43.3950 C   0  0  0  0  0  0  0  0  0  0  0  0
   57.3690   29.3460   43.3880 C   0  0  0  0  0  0  0  0  0  0  0  0
   57.0110   30.0420   44.5260 C   0  0  0  0  0  0  0  0  0  0  0  0
   56.6390   31.4150   44.5150 N   0  0  0  0  0  0  0  0  0  0  0  0
   57.3250   32.3080   45.1550 C   0  0  0  0  0  0  0  0  0  0  0  0
   57.0160   33.6020   45.2070 N   0  0  0  0  0  0  0  0  0  0  0  0
   57.9700   34.1780   45.9640 C   0  0  0  0  0  0  0  0  0  0  0  0
   58.8690   33.2170   46.3740 C   0  0  0  0  0  0  0  0  0  0  0  0
   60.0350   33.4890   47.2110 C   0  0  0  0  0  0  0  0  0  0  0  0
   61.3260   33.2930   46.7720 C   0  0  0  0  0  0  0  0  0  0  0  0
   62.4400   33.5370   47.5310 C   0  0  0  0  0  0  0  0  0  0  0  0
   62.2630   34.0160   48.8340 C   0  0  0  0  0  0  0  0  0  0  0  0
   60.9630   34.2170   49.2900 C   0  0  0  0  0  0  0  0  0  0  0  0
   59.8580   33.9620   48.5000 C   0  0  0  0  0  0  0  0  0  0  0  0
   58.4490   32.0440   45.8560 N   0  0  0  0  0  0  0  0  0  0  0  0
   57.0230   29.3440   45.7150 C   0  0  0  0  0  0  0  0  0  0  0  0
   57.3800   28.0080   45.7520 C   0  0  0  0  0  0  0  0  0  0  0  0
   60.0140   27.9630   47.4720 N   0  0  0  0  0  0  0  0  0  0  0  0
   58.8030   30.5880   49.1130 C   0  0  0  0  0  0  0  0  0  0  0  0
   58.5180   31.2190   50.3290 C   0  0  0  0  0  0  0  0  0  0  0  0
   59.2030   31.6972   52.3279 H   0  0  0  0  0  0  0  0  0  0  0  0
   61.3918   30.5109   52.0118 H   0  0  0  0  0  0  0  0  0  0  0  0
   61.8573   29.4106   49.8565 H   0  0  0  0  0  0  0  0  0  0  0  0
   60.9741   31.0356   46.6513 H   0  0  0  0  0  0  0  0  0  0  0  0
   61.3937   29.9074   44.4961 H   0  0  0  0  0  0  0  0  0  0  0  0
   60.9160   27.5520   44.2980 H   0  0  0  0  0  0  0  0  0  0  0  0
   58.5165   24.6139   46.4032 H   0  0  0  0  0  0  0  0  0  0  0  0
   58.0077   26.2539   46.8675 H   0  0  0  0  0  0  0  0  0  0  0  0
   58.8945   25.6606   44.0101 H   0  0  0  0  0  0  0  0  0  0  0  0
   57.2284   25.2726   44.5295 H   0  0  0  0  0  0  0  0  0  0  0  0
   58.0074   27.5009   42.4632 H   0  0  0  0  0  0  0  0  0  0  0  0
   57.3668   29.8809   42.4268 H   0  0  0  0  0  0  0  0  0  0  0  0
   56.2050   34.0920   44.7620 H   0  0  0  0  0  0  0  0  0  0  0  0
   58.0232   35.2476   46.2155 H   0  0  0  0  0  0  0  0  0  0  0  0
   61.4713   32.9172   45.7484 H   0  0  0  0  0  0  0  0  0  0  0  0
   63.4477   33.3610   47.1267 H   0  0  0  0  0  0  0  0  0  0  0  0
   63.1275   34.2279   49.4803 H   0  0  0  0  0  0  0  0  0  0  0  0
   60.8103   34.5912   50.3131 H   0  0  0  0  0  0  0  0  0  0  0  0
   58.8449   34.1337   48.8927 H   0  0  0  0  0  0  0  0  0  0  0  0
   58.9450   31.1390   46.0070 H   0  0  0  0  0  0  0  0  0  0  0  0
   56.7447   29.8568   46.6475 H   0  0  0  0  0  0  0  0  0  0  0  0
   57.3836   27.4695   46.7111 H   0  0  0  0  0  0  0  0  0  0  0  0
   58.0685   30.6124   48.2945 H   0  0  0  0  0  0  0  0  0  0  0  0
   57.5567   31.7374   50.4595 H   0  0  0  0  0  0  0  0  0  0  0  0
  1  2  2  0
  2  3  1  0
  3  4  2  0
  4  5  1  0
  5  6  1  0
  6  7  2  0
  7  8  1  0
  8  9  1  0
  9 10  2  0
 10 11  1  0
 11 12  1  0
 12 13  1  0
 13 14  2  0
 14 15  1  0
 15 16  2  0
 16 17  1  0
 17 18  2  0
 18 19  1  0
 19 20  1  0
 20 21  2  0
 21 22  1  0
 22 23  2  0
 23 24  1  0
 24 25  2  0
 25 26  1  0
 26 27  2  0
 21 28  1  0
 16 29  1  0
 29 30  2  0
  9 31  1  0
  4 32  1  0
 32 33  2  0
 33  1  1  0
 31  5  2  0
 30 13  1  0
 28 18  1  0
 27 22  1  0
  1 34  1  0
  2 35  1  0
  3 36  1  0
  6 37  1  0
  7 38  1  0
  8 39  1  0
 11 40  1  0
 11 41  1  0
 12 42  1  0
 12 43  1  0
 14 44  1  0
 15 45  1  0
 19 46  1  0
 20 47  1  0
 23 48  1  0
 24 49  1  0
 25 50  1  0
 26 51  1  0
 27 52  1  0
 28 53  1  0
 29 54  1  0
 30 55  1  0
 32 56  1  0
 33 57  1  0
M  END
>  <smiles>  (17) 
c1ccc(-c2cc[nH]c(=NCCc3ccc(N=c4[nH]cc(-c5ccccc5)[nH]4)cc3)n2)cc1

>  <score_type>  (17) 
oracle

>  <origin>  (17) 
adg

>  <m_score__min__energy>  (17) 
-10.06

>  <m_primary>  (17) 
energy

$$$$
17:0
     RDKit          3D

 56 59  0  0  0  0  0  0  0  0999 V2000
   55.6600   30.8463   50.6984 H   0  0  0  0  0  0  0  0  0  0  0  0
   54.7170   30.8750   51.2640 C   0  0  0  0  0  0  0  0  0  0  0  0
   53.7846   31.1759   50.7638 H   0  0  0  0  0  0  0  0  0  0  0  0
   54.7040   30.5430   52.5640 C   0  0  0  0  0  0  0  0  0  0  0  0
   53.5880   30.5320   53.4080 C   0  0  0  0  0  0  0  0  0  0  0  0
   52.3230   30.8700   53.0920 C   0  0  0  0  0  0  0  0  0  0  0  0
   51.5957   30.9716   53.9109 H   0  0  0  0  0  0  0  0  0  0  0  0
   51.8540   31.1120   51.7160 C   0  0  0  0  0  0  0  0  0  0  0  0
   52.0120   30.2260   50.7170 N   0  0  0  0  0  0  0  0  0  0  0  0
   51.3710   30.8050   49.6790 C   0  0  0  0  0  0  0  0  0  0  0  0
   51.3090   30.2750   48.5390 O   0  0  0  0  0  0  0  0  0  0  0  0
   50.7940   31.9920   49.9600 N   0  0  0  0  0  0  0  0  0  0  0  0
   51.0970   32.1680   51.2550 C   0  0  0  0  0  0  0  0  0  0  0  0
   50.6480   33.2450   52.0100 O   0  0  0  0  0  0  0  0  0  0  0  0
   54.0550   30.1670   54.6650 C   0  0  0  0  0  0  0  0  0  0  0  0
   53.4586   30.0699   55.5842 H   0  0  0  0  0  0  0  0  0  0  0  0
   55.4110   29.9500   54.5370 C   0  0  0  0  0  0  0  0  0  0  0  0
   56.3200   29.5630   55.6640 C   0  0  0  0  0  0  0  0  0  0  0  0
   55.8248   29.7738   56.6234 H   0  0  0  0  0  0  0  0  0  0  0  0
   56.5493   28.4892   55.5979 H   0  0  0  0  0  0  0  0  0  0  0  0
   57.2530   30.1419   55.5979 H   0  0  0  0  0  0  0  0  0  0  0  0
   55.8090   30.1830   53.2660 N   0  0  0  0  0  0  0  0  0  0  0  0
   57.1540   30.0600   52.7710 C   0  0  0  0  0  0  0  0  0  0  0  0
   57.8660   28.8670   52.9540 C   0  0  0  0  0  0  0  0  0  0  0  0
   57.3924   28.0195   53.4712 H   0  0  0  0  0  0  0  0  0  0  0  0
   59.1740   28.7510   52.4820 C   0  0  0  0  0  0  0  0  0  0  0  0
   59.7262   27.8101   52.6223 H   0  0  0  0  0  0  0  0  0  0  0  0
   59.7840   29.8260   51.8320 C   0  0  0  0  0  0  0  0  0  0  0  0
   60.8139   29.7256   51.4589 H   0  0  0  0  0  0  0  0  0  0  0  0
   59.0900   31.0370   51.6510 C   0  0  0  0  0  0  0  0  0  0  0  0
   59.7210   32.1880   50.9590 C   0  0  0  0  0  0  0  0  0  0  0  0
   60.2050   33.1320   51.6430 O   0  0  0  0  0  0  0  0  0  0  0  0
   59.8070   32.2370   49.5260 N   0  0  0  0  0  0  0  0  0  0  0  0
   59.5570   31.3900   48.9680 H   0  0  0  0  0  0  0  0  0  0  0  0
   60.3000   33.4310   48.8370 C   0  0  0  0  0  0  0  0  0  0  0  0
   60.6676   34.1494   49.5845 H   0  0  0  0  0  0  0  0  0  0  0  0
   61.1089   33.1285   48.1557 H   0  0  0  0  0  0  0  0  0  0  0  0
   59.1910   34.0970   48.0060 C   0  0  0  0  0  0  0  0  0  0  0  0
   58.2235   33.9207   48.4988 H   0  0  0  0  0  0  0  0  0  0  0  0
   59.4142   35.1721   47.9410 H   0  0  0  0  0  0  0  0  0  0  0  0
   59.1310   33.5580   46.6280 N   0  0  0  0  0  0  0  0  0  0  0  0
   59.4850   32.1180   46.5930 C   0  0  0  0  0  0  0  0  0  0  0  0
   60.1201   31.9290   45.7150 H   0  0  0  0  0  0  0  0  0  0  0  0
   60.0154   31.8741   47.5253 H   0  0  0  0  0  0  0  0  0  0  0  0
   58.2360   31.2230   46.5060 C   0  0  0  0  0  0  0  0  0  0  0  0
   58.5626   30.1729   46.4803 H   0  0  0  0  0  0  0  0  0  0  0  0
   57.6170   31.4492   47.3867 H   0  0  0  0  0  0  0  0  0  0  0  0
   57.4330   31.4710   45.3600 O   0  0  0  0  0  0  0  0  0  0  0  0
   57.5140   32.8080   44.8850 C   0  0  0  0  0  0  0  0  0  0  0  0
   58.3099   32.8602   44.1275 H   0  0  0  0  0  0  0  0  0  0  0  0
   56.5267   33.0641   44.4731 H   0  0  0  0  0  0  0  0  0  0  0  0
   57.8230   33.8350   45.9860 C   0  0  0  0  0  0  0  0  0  0  0  0
   57.8477   34.8408   45.5414 H   0  0  0  0  0  0  0  0  0  0  0  0
   57.0379   33.7686   46.7536 H   0  0  0  0  0  0  0  0  0  0  0  0
   57.7670   31.1390   52.1180 C   0  0  0  0  0  0  0  0  0  0  0  0
   57.2077   32.0745   51.9695 H   0  0  0  0  0  0  0  0  0  0  0  0
  1  2  1  0
  2  3  1  0
  2  4  2  0
  4  5  1  0
  5  6  2  0
  6  7  1  0
  6  8  1  0
  8  9  1  0
  9 10  1  0
 10 11  2  0
 10 12  1  0
 12 13  1  0
 13 14  1  0
  5 15  1  0
 15 16  1  0
 15 17  2  0
 17 18  1  0
 18 19  1  0
 18 20  1  0
 18 21  1  0
 17 22  1  0
 22 23  1  0
 23 24  2  0
 24 25  1  0
 24 26  1  0
 26 27  1  0
 26 28  2  0
 28 29  1  0
 28 30  1  0
 30 31  1  0
 31 32  2  0
 31 33  1  0
 33 34  1  0
 33 35  1  0
 35 36  1  0
 35 37  1  0
 35 38  1  0
 38 39  1  0
 38 40  1  0
 38 41  1  0
 41 42  1  0
 42 43  1  0
 42 44  1  0
 42 45  1  0
 45 46  1  0
 45 47  1  0
 45 48  1  0
 48 49  1  0
 49 50  1  0
 49 51  1  0
 49 52  1  0
 52 53  1  0
 52 54  1  0
 30 55  2  0
 55 56  1  0
 22  4  1  0
 55 23  1  0
 13  8  2  0
 52 41  1  0
M  CHG  3   9  -1  12  -1  14  -1
M  END
>  <UniqueID>  (18) 
16

>  <SMILES>  (18) 
C=c1/c(=C/c2[n-]c(=O)[n-]c2[O-])cc(C)n1-c1cccc(C(=O)NCCN2CCOCC2)c1

>  <Energy>  (18) 
143.47791996915336

>  <Genealogy>  (18) 
C=c1c(=Cc2[n-]c(=O)[n-]c2[O-])cc(C)n1-c1cccc(C(=O)NCCN2CCOCC2)c1 (protonated)
C=c1/c(=C/c2[n-]c(=O)[n-]c2[O-])cc(C)n1-c1cccc(C(=O)NCCN2CCOCC2)c1 (cis-trans isomerization)
C=c1/c(=C/c2[n-]c(=O)[n-]c2[O-])cc(C)n1-c1cccc(C(=O)NCCN2CCOCC2)c1 (3D coordinates assigned)
C=c1/c(=C/c2[n-]c(=O)[n-]c2[O-])cc(C)n1-c1cccc(C(=O)NCCN2CCOCC2)c1 (nonaromatic ring conformer: 143.47791996915336 kcal/mol)

>  <smiles>  (18) 
C=c1c(=Cc2[nH]c(=O)[nH]c2O)cc(C)n1-c1cccc(C(=O)NCCN2CCOCC2)c1

>  <score_type>  (18) 
oracle

>  <origin>  (18) 
adg

>  <m_score__min__energy>  (18) 
-17.289999999999999

>  <m_primary>  (18) 
energy

$$$$
18:0
     RDKit          3D

 70 74  0  0  0  0  0  0  0  0999 V2000
   54.7520   29.6870   43.4060 O   0  0  0  0  0  0  0  0  0  0  0  0
   55.8070   29.8000   44.0880 C   0  0  0  0  0  0  0  0  0  0  0  0
   56.8850   30.7310   43.6350 C   0  0  0  0  0  0  0  0  0  0  0  0
   57.2040   31.6770   44.7000 N   0  0  0  0  0  0  0  0  0  0  0  0
   58.1710   32.7240   44.5260 C   0  0  0  0  0  0  0  0  0  0  0  0
   58.4610   33.1140   43.3620 O   0  0  0  0  0  0  0  0  0  0  0  0
   58.8450   33.3400   45.6930 C   0  0  0  0  0  0  0  0  0  0  0  0
   58.2260   34.3880   46.3990 C   0  0  0  0  0  0  0  0  0  0  0  0
   58.8730   34.9930   47.4790 C   0  0  0  0  0  0  0  0  0  0  0  0
   60.1480   34.5690   47.8600 C   0  0  0  0  0  0  0  0  0  0  0  0
   60.7800   33.5310   47.1660 C   0  0  0  0  0  0  0  0  0  0  0  0
   62.4040   33.0310   47.6230 S   0  0  0  0  0  0  0  0  0  0  0  0
   63.2200   32.7920   46.3820 O   0  0  0  0  0  0  0  0  0  0  0  0
   63.0820   34.1200   48.4090 O   0  0  0  0  0  0  0  0  0  0  0  0
   62.3170   31.5630   48.5620 N   0  0  0  0  0  0  0  0  0  0  0  0
   63.0190   31.5050   49.8460 C   0  0  0  0  0  0  0  0  0  0  0  0
   62.0110   31.2000   50.9530 C   0  0  0  0  0  0  0  0  0  0  0  0
   61.3210   29.8540   50.6950 C   0  0  0  0  0  0  0  0  0  0  0  0
   60.8660   29.6930   49.2620 C   0  0  0  0  0  0  0  0  0  0  0  0
   59.9580   28.6710   48.9470 C   0  0  0  0  0  0  0  0  0  0  0  0
   59.5970   28.4290   47.6190 C   0  0  0  0  0  0  0  0  0  0  0  0
   60.1640   29.1850   46.5920 C   0  0  0  0  0  0  0  0  0  0  0  0
   61.0710   30.2040   46.8900 C   0  0  0  0  0  0  0  0  0  0  0  0
   61.4130   30.4870   48.2270 C   0  0  0  0  0  0  0  0  0  0  0  0
   60.1300   32.9200   46.0860 C   0  0  0  0  0  0  0  0  0  0  0  0
   55.9790   29.0570   45.3030 N   0  0  0  0  0  0  0  0  0  0  0  0
   56.6020   27.7700   45.4080 C   0  0  0  0  0  0  0  0  0  0  0  0
   57.9200   27.5490   44.9700 C   0  0  0  0  0  0  0  0  0  0  0  0
   58.4860   26.2710   45.0620 C   0  0  0  0  0  0  0  0  0  0  0  0
   57.7470   25.2090   45.5950 C   0  0  0  0  0  0  0  0  0  0  0  0
   58.4440   23.5890   45.6500 S   0  0  0  0  0  0  0  0  0  0  0  0
   59.9150   23.6810   45.9500 O   0  0  0  0  0  0  0  0  0  0  0  0
   57.7790   22.8150   46.7530 O   0  0  0  0  0  0  0  0  0  0  0  0
   58.1980   22.7670   44.1290 N   0  0  0  0  0  0  0  0  0  0  0  0
   57.7890   21.3720   44.3760 C   0  0  0  0  0  0  0  0  0  0  0  0
   57.0670   20.7840   43.1500 C   0  0  0  0  0  0  0  0  0  0  0  0
   55.9070   21.5040   42.7440 O   0  0  0  0  0  0  0  0  0  0  0  0
   55.8570   22.8320   43.2400 C   0  0  0  0  0  0  0  0  0  0  0  0
   57.2390   23.5070   43.2780 C   0  0  0  0  0  0  0  0  0  0  0  0
   56.4500   25.4410   46.0760 C   0  0  0  0  0  0  0  0  0  0  0  0
   55.8860   26.7180   45.9900 C   0  0  0  0  0  0  0  0  0  0  0  0
   57.7845   30.1513   43.3805 H   0  0  0  0  0  0  0  0  0  0  0  0
   56.5373   31.2849   42.7506 H   0  0  0  0  0  0  0  0  0  0  0  0
   56.7220   31.5590   45.6190 H   0  0  0  0  0  0  0  0  0  0  0  0
   57.2258   34.7332   46.0984 H   0  0  0  0  0  0  0  0  0  0  0  0
   58.3772   35.8053   48.0307 H   0  0  0  0  0  0  0  0  0  0  0  0
   60.6565   35.0520   48.7074 H   0  0  0  0  0  0  0  0  0  0  0  0
   63.7815   30.7129   49.8136 H   0  0  0  0  0  0  0  0  0  0  0  0
   63.5079   32.4700   50.0452 H   0  0  0  0  0  0  0  0  0  0  0  0
   62.5355   31.1587   51.9190 H   0  0  0  0  0  0  0  0  0  0  0  0
   61.2491   31.9933   50.9691 H   0  0  0  0  0  0  0  0  0  0  0  0
   62.0283   29.0455   50.9319 H   0  0  0  0  0  0  0  0  0  0  0  0
   60.4257   29.8135   51.3329 H   0  0  0  0  0  0  0  0  0  0  0  0
   59.5273   28.0560   49.7509 H   0  0  0  0  0  0  0  0  0  0  0  0
   58.8655   27.6422   47.3829 H   0  0  0  0  0  0  0  0  0  0  0  0
   59.8958   28.9777   45.5455 H   0  0  0  0  0  0  0  0  0  0  0  0
   61.5215   30.7898   46.0752 H   0  0  0  0  0  0  0  0  0  0  0  0
   60.6279   32.1050   45.5402 H   0  0  0  0  0  0  0  0  0  0  0  0
   58.5074   28.3811   44.5545 H   0  0  0  0  0  0  0  0  0  0  0  0
   59.5156   26.1016   44.7138 H   0  0  0  0  0  0  0  0  0  0  0  0
   58.6826   20.7678   44.5913 H   0  0  0  0  0  0  0  0  0  0  0  0
   57.0976   21.3555   45.2314 H   0  0  0  0  0  0  0  0  0  0  0  0
   57.7750   20.7711   42.3083 H   0  0  0  0  0  0  0  0  0  0  0  0
   56.7250   19.7799   43.4412 H   0  0  0  0  0  0  0  0  0  0  0  0
   55.1943   23.4244   42.5920 H   0  0  0  0  0  0  0  0  0  0  0  0
   55.4827   22.7856   44.2733 H   0  0  0  0  0  0  0  0  0  0  0  0
   57.6380   23.5558   42.2541 H   0  0  0  0  0  0  0  0  0  0  0  0
   57.1128   24.5124   43.7060 H   0  0  0  0  0  0  0  0  0  0  0  0
   55.8748   24.6163   46.5221 H   0  0  0  0  0  0  0  0  0  0  0  0
   54.8739   26.8964   46.3821 H   0  0  0  0  0  0  0  0  0  0  0  0
  1  2  2  0
  2  3  1  0
  3  4  1  0
  4  5  1  0
  5  6  2  0
  5  7  1  0
  7  8  2  0
  8  9  1  0
  9 10  2  0
 10 11  1  0
 11 12  1  0
 12 13  2  0
 12 14  2  0
 12 15  1  0
 15 16  1  0
 16 17  1  0
 17 18  1  0
 18 19  1  0
 19 20  2  0
 20 21  1  0
 21 22  2  0
 22 23  1  0
 23 24  2  0
 11 25  2  0
  2 26  1  0
 26 27  1  0
 27 28  2  0
 28 29  1  0
 29 30  2  0
 30 31  1  0
 31 32  2  0
 31 33  2  0
 31 34  1  0
 34 35  1  0
 35 36  1  0
 36 37  1  0
 37 38  1  0
 38 39  1  0
 30 40  1  0
 40 41  2  0
 25  7  1  0
 41 27  1  0
 24 15  1  0
 39 34  1  0
 24 19  1  0
  3 42  1  0
  3 43  1  0
  4 44  1  0
  8 45  1  0
  9 46  1  0
 10 47  1  0
 16 48  1  0
 16 49  1  0
 17 50  1  0
 17 51  1  0
 18 52  1  0
 18 53  1  0
 20 54  1  0
 21 55  1  0
 22 56  1  0
 23 57  1  0
 25 58  1  0
 28 59  1  0
 29 60  1  0
 35 61  1  0
 35 62  1  0
 36 63  1  0
 36 64  1  0
 38 65  1  0
 38 66  1  0
 39 67  1  0
 39 68  1  0
 40 69  1  0
 41 70  1  0
M  CHG  1  26  -1
M  END
>  <UniqueID>  (19) 
17

>  <SMILES>  (19) 
O=C(CNC(=O)c1cccc(S(=O)(=O)N2CCCc3ccccc32)c1)[N-]c1ccc(S(=O)(=O)N2CCOCC2)cc1

>  <Energy>  (19) 
88.81687191146017

>  <Genealogy>  (19) 
O=C(CNC(=O)c1cccc(S(=O)(=O)N2CCCc3ccccc32)c1)[N-]c1ccc(S(=O)(=O)N2CCOCC2)cc1 (protonated)
O=C(CNC(=O)c1cccc(S(=O)(=O)N2CCCc3ccccc32)c1)[N-]c1ccc(S(=O)(=O)N2CCOCC2)cc1 (3D coordinates assigned)
O=C(CNC(=O)c1cccc(S(=O)(=O)N2CCCc3ccccc32)c1)[N-]c1ccc(S(=O)(=O)N2CCOCC2)cc1 (nonaromatic ring conformer: 88.81687191146017 kcal/mol)

>  <smiles>  (19) 
O=C(CNC(=O)c1cccc(S(=O)(=O)N2CCCc3ccccc32)c1)Nc1ccc(S(=O)(=O)N2CCOCC2)cc1

>  <score_type>  (19) 
oracle

>  <origin>  (19) 
adg

>  <m_score__min__energy>  (19) 
-13.24

>  <m_primary>  (19) 
energy

$$$$
19:0
     RDKit          3D

 70 73  0  0  0  0  0  0  0  0999 V2000
   57.3080   24.1080   43.8100 C   0  0  0  0  0  0  0  0  0  0  0  0
   56.3220   22.9300   43.8510 C   0  0  0  0  0  0  0  0  0  0  0  0
   56.5610   22.0300   42.6230 C   0  0  0  0  0  0  0  0  0  0  0  0
   56.5420   22.1430   45.1570 C   0  0  0  0  0  0  0  0  0  0  0  0
   55.0030   23.4900   43.8090 O   0  0  0  0  0  0  0  0  0  0  0  0
   54.1810   23.7920   44.9070 C   0  0  0  0  0  0  0  0  0  0  0  0
   53.3040   22.9830   45.3030 O   0  0  0  0  0  0  0  0  0  0  0  0
   54.3700   25.0180   45.6250 N   0  0  0  0  0  0  0  0  0  0  0  0
   55.5210   25.4540   46.0430 C   0  0  0  0  0  0  0  0  0  0  0  0
   56.0390   26.6570   45.7160 N   0  0  0  0  0  0  0  0  0  0  0  0
   57.2460   26.8640   46.3060 C   0  0  0  0  0  0  0  0  0  0  0  0
   58.0180   28.1380   46.0700 C   0  0  1  0  0  0  0  0  0  0  0  0
   59.2140   28.2910   47.0190 C   0  0  0  0  0  0  0  0  0  0  0  0
   60.4300   28.5860   46.1420 C   0  0  0  0  0  0  0  0  0  0  0  0
   60.0070   28.3400   44.7000 C   0  0  0  0  0  0  0  0  0  0  0  0
   58.5630   28.1710   44.7200 N   0  0  0  0  0  0  0  0  0  0  0  0
   57.7330   28.2330   43.5420 C   0  0  0  0  0  0  0  0  0  0  0  0
   57.8030   27.3120   42.6840 O   0  0  0  0  0  0  0  0  0  0  0  0
   56.7460   29.3620   43.3540 C   0  0  0  0  0  0  0  0  0  0  0  0
   57.2740   30.6920   43.8340 C   0  0  0  0  0  0  0  0  0  0  0  0
   57.4200   30.9510   45.2060 C   0  0  0  0  0  0  0  0  0  0  0  0
   57.9270   32.1790   45.6410 C   0  0  0  0  0  0  0  0  0  0  0  0
   58.3060   33.1620   44.7130 C   0  0  0  0  0  0  0  0  0  0  0  0
   58.9130   34.4630   45.1870 C   0  0  0  0  0  0  0  0  0  0  0  0
   58.8290   34.6420   46.6500 N   0  0  0  0  0  0  0  0  0  0  0  0
   60.1210   34.9460   47.2910 C   0  0  0  0  0  0  0  0  0  0  0  0
   61.0390   33.7480   47.3420 C   0  0  0  0  0  0  0  0  0  0  0  0
   62.4010   33.8820   47.0200 C   0  0  0  0  0  0  0  0  0  0  0  0
   63.2530   32.7740   47.0850 C   0  0  0  0  0  0  0  0  0  0  0  0
   62.7550   31.5290   47.4760 C   0  0  0  0  0  0  0  0  0  0  0  0
   61.4060   31.3890   47.8060 C   0  0  0  0  0  0  0  0  0  0  0  0
   60.5480   32.4920   47.7400 C   0  0  0  0  0  0  0  0  0  0  0  0
   58.1760   32.8950   43.3410 C   0  0  0  0  0  0  0  0  0  0  0  0
   57.6510   31.6770   42.9050 C   0  0  0  0  0  0  0  0  0  0  0  0
   57.7010   25.8020   47.0930 C   0  0  0  0  0  0  0  0  0  0  0  0
   56.5280   24.5950   47.0760 S   0  0  0  0  0  0  0  0  0  0  0  0
   57.5610   24.4103   44.8369 H   0  0  0  0  0  0  0  0  0  0  0  0
   58.2231   23.8020   43.2819 H   0  0  0  0  0  0  0  0  0  0  0  0
   56.8457   24.9549   43.2819 H   0  0  0  0  0  0  0  0  0  0  0  0
   56.8300   21.0172   42.9575 H   0  0  0  0  0  0  0  0  0  0  0  0
   55.6438   21.9847   42.0175 H   0  0  0  0  0  0  0  0  0  0  0  0
   57.3799   22.4457   42.0175 H   0  0  0  0  0  0  0  0  0  0  0  0
   56.3577   22.8024   46.0179 H   0  0  0  0  0  0  0  0  0  0  0  0
   55.8477   21.2905   45.1928 H   0  0  0  0  0  0  0  0  0  0  0  0
   57.5777   21.7741   45.1928 H   0  0  0  0  0  0  0  0  0  0  0  0
   57.2962   28.9503   46.2410 H   0  0  0  0  0  0  0  0  0  0  0  0
   59.0398   29.1217   47.7187 H   0  0  0  0  0  0  0  0  0  0  0  0
   59.3664   27.3800   47.6163 H   0  0  0  0  0  0  0  0  0  0  0  0
   60.7440   29.6324   46.2706 H   0  0  0  0  0  0  0  0  0  0  0  0
   61.2790   27.9433   46.4179 H   0  0  0  0  0  0  0  0  0  0  0  0
   60.2809   29.1999   44.0710 H   0  0  0  0  0  0  0  0  0  0  0  0
   60.5070   27.4533   44.2830 H   0  0  0  0  0  0  0  0  0  0  0  0
   56.5079   29.4450   42.2833 H   0  0  0  0  0  0  0  0  0  0  0  0
   55.8558   29.1247   43.9550 H   0  0  0  0  0  0  0  0  0  0  0  0
   57.1343   30.1847   45.9416 H   0  0  0  0  0  0  0  0  0  0  0  0
   58.0297   32.3765   46.7182 H   0  0  0  0  0  0  0  0  0  0  0  0
   59.9725   34.4830   44.8921 H   0  0  0  0  0  0  0  0  0  0  0  0
   58.3410   35.2801   44.7231 H   0  0  0  0  0  0  0  0  0  0  0  0
   58.1560   35.4220   46.8470 H   0  0  0  0  0  0  0  0  0  0  0  0
   58.4270   33.7800   47.0910 H   0  0  0  0  0  0  0  0  0  0  0  0
   60.6171   35.7462   46.7222 H   0  0  0  0  0  0  0  0  0  0  0  0
   59.9153   35.2530   48.3271 H   0  0  0  0  0  0  0  0  0  0  0  0
   62.7983   34.8616   46.7158 H   0  0  0  0  0  0  0  0  0  0  0  0
   64.3169   32.8836   46.8277 H   0  0  0  0  0  0  0  0  0  0  0  0
   63.4260   30.6587   47.5239 H   0  0  0  0  0  0  0  0  0  0  0  0
   61.0166   30.4089   48.1187 H   0  0  0  0  0  0  0  0  0  0  0  0
   59.4855   32.3763   48.0004 H   0  0  0  0  0  0  0  0  0  0  0  0
   58.4896   33.6499   42.6050 H   0  0  0  0  0  0  0  0  0  0  0  0
   57.5317   31.4872   41.8281 H   0  0  0  0  0  0  0  0  0  0  0  0
   58.6599   25.7621   47.6305 H   0  0  0  0  0  0  0  0  0  0  0  0
  1  2  1  0
  2  3  1  0
  2  4  1  0
  2  5  1  0
  5  6  1  0
  6  7  2  0
  6  8  1  0
  8  9  2  3
  9 10  1  0
 10 11  1  0
 11 12  1  0
 12 13  1  0
 13 14  1  0
 14 15  1  0
 15 16  1  0
 16 17  1  0
 17 18  2  0
 17 19  1  0
 19 20  1  0
 20 21  2  0
 21 22  1  0
 22 23  2  0
 23 24  1  0
 24 25  1  0
 25 26  1  0
 26 27  1  0
 27 28  2  0
 28 29  1  0
 29 30  2  0
 30 31  1  0
 31 32  2  0
 23 33  1  0
 33 34  2  0
 11 35  2  0
 35 36  1  0
 36  9  1  0
 16 12  1  0
 34 20  1  0
 32 27  1  0
  1 37  1  0
  1 38  1  0
  1 39  1  0
  3 40  1  0
  3 41  1  0
  3 42  1  0
  4 43  1  0
  4 44  1  0
  4 45  1  0
 12 46  1  6
 13 47  1  0
 13 48  1  0
 14 49  1  0
 14 50  1  0
 15 51  1  0
 15 52  1  0
 19 53  1  0
 19 54  1  0
 21 55  1  0
 22 56  1  0
 24 57  1  0
 24 58  1  0
 25 59  1  0
 25 60  1  0
 26 61  1  0
 26 62  1  0
 28 63  1  0
 29 64  1  0
 30 65  1  0
 31 66  1  0
 32 67  1  0
 33 68  1  0
 34 69  1  0
 35 70  1  0
M  CHG  2  10  -1  25   1
M  END
>  <UniqueID>  (20) 
18

>  <SMILES>  (20) 
CC(C)(C)OC(=O)N=c1[n-]c([C@H]2CCCN2C(=O)Cc2ccc(C[NH2+]Cc3ccccc3)cc2)cs1

>  <Energy>  (20) 
100.12892078156582

>  <Genealogy>  (20) 
CC(C)(C)OC(=O)N=c1[n-]c(C2CCCN2C(=O)Cc2ccc(C[NH2+]Cc3ccccc3)cc2)cs1 (protonated)
CC(C)(C)OC(=O)N=c1[n-]c([C@H]2CCCN2C(=O)Cc2ccc(C[NH2+]Cc3ccccc3)cc2)cs1 (chirality)
CC(C)(C)OC(=O)N=c1[n-]c([C@H]2CCCN2C(=O)Cc2ccc(C[NH2+]Cc3ccccc3)cc2)cs1 (3D coordinates assigned)
CC(C)(C)OC(=O)N=c1[n-]c([C@H]2CCCN2C(=O)Cc2ccc(C[NH2+]Cc3ccccc3)cc2)cs1 (nonaromatic ring conformer: 100.12892078156582 kcal/mol)

>  <smiles>  (20) 
CC(C)(C)OC(=O)N=c1[nH]c(C2CCCN2C(=O)Cc2ccc(CNCc3ccccc3)cc2)cs1

>  <score_type>  (20) 
oracle

>  <origin>  (20) 
adg

>  <m_score__min__energy>  (20) 
-10.710000000000001

>  <m_primary>  (20) 
energy

$$$$
20:0
     RDKit          3D

 58 62  0  0  0  0  0  0  0  0999 V2000
   56.9080   30.3990   42.8960 O   0  0  0  0  0  0  0  0  0  0  0  0
   57.1560   30.4540   44.1300 C   0  0  0  0  0  0  0  0  0  0  0  0
   56.7300   31.6090   44.8640 N   0  0  0  0  0  0  0  0  0  0  0  0
   57.5770   32.6780   45.3040 C   0  0  0  0  0  0  0  0  0  0  0  0
   57.8580   33.7800   44.4800 C   0  0  0  0  0  0  0  0  0  0  0  0
   58.6720   34.8150   44.9470 C   0  0  0  0  0  0  0  0  0  0  0  0
   59.2230   34.7520   46.2280 C   0  0  0  0  0  0  0  0  0  0  0  0
   58.9750   33.6430   47.0440 C   0  0  0  0  0  0  0  0  0  0  0  0
   59.6340   33.5620   48.6750 S   0  0  0  0  0  0  0  0  0  0  0  0
   59.6790   34.9370   49.2820 O   0  0  0  0  0  0  0  0  0  0  0  0
   58.7350   32.6870   49.5000 O   0  0  0  0  0  0  0  0  0  0  0  0
   61.2460   32.8870   48.6360 N   0  0  0  0  0  0  0  0  0  0  0  0
   61.3310   31.8630   47.5770 C   0  0  0  0  0  0  0  0  0  0  0  0
   62.7670   31.3550   47.4260 C   0  0  0  0  0  0  0  0  0  0  0  0
   63.7550   32.4920   47.1070 C   0  0  0  0  0  0  0  0  0  0  0  0
   63.1400   33.8880   47.2780 C   0  0  0  0  0  0  0  0  0  0  0  0
   62.2750   33.9600   48.5470 C   0  0  0  0  0  0  0  0  0  0  0  0
   58.1560   32.6060   46.5750 C   0  0  0  0  0  0  0  0  0  0  0  0
   57.9520   29.3740   44.7590 C   0  0  0  0  0  0  0  0  0  0  0  0
   59.1410   29.6680   45.4490 C   0  0  0  0  0  0  0  0  0  0  0  0
   59.8940   28.6470   46.0290 C   0  0  0  0  0  0  0  0  0  0  0  0
   59.4840   27.3180   45.9080 C   0  0  0  0  0  0  0  0  0  0  0  0
   58.3130   27.0000   45.2040 C   0  0  0  0  0  0  0  0  0  0  0  0
   57.8970   25.6300   45.0690 N   0  0  0  0  0  0  0  0  0  0  0  0
   57.5500   24.9360   43.8700 C   0  0  0  0  0  0  0  0  0  0  0  0
   57.4920   25.4650   42.7280 O   0  0  0  0  0  0  0  0  0  0  0  0
   57.2560   23.5410   44.1670 C   0  0  0  0  0  0  0  0  0  0  0  0
   56.8800   22.5050   43.3190 C   0  0  0  0  0  0  0  0  0  0  0  0
   56.6650   21.2370   43.8780 C   0  0  0  0  0  0  0  0  0  0  0  0
   56.8360   21.0290   45.2640 C   0  0  0  0  0  0  0  0  0  0  0  0
   57.2130   22.0880   46.1090 C   0  0  0  0  0  0  0  0  0  0  0  0
   57.3810   21.8550   47.4750 O   0  0  0  0  0  0  0  0  0  0  0  0
   57.4130   23.3510   45.5300 C   0  0  0  0  0  0  0  0  0  0  0  0
   57.8120   24.6410   46.1020 C   0  0  0  0  0  0  0  0  0  0  0  0
   58.0880   24.8550   47.3090 O   0  0  0  0  0  0  0  0  0  0  0  0
   57.5530   28.0330   44.6310 C   0  0  0  0  0  0  0  0  0  0  0  0
   57.4365   33.8283   43.4651 H   0  0  0  0  0  0  0  0  0  0  0  0
   58.8794   35.6824   44.3031 H   0  0  0  0  0  0  0  0  0  0  0  0
   59.8529   35.5752   46.5963 H   0  0  0  0  0  0  0  0  0  0  0  0
   60.6755   31.0191   47.8380 H   0  0  0  0  0  0  0  0  0  0  0  0
   61.0145   32.3135   46.6247 H   0  0  0  0  0  0  0  0  0  0  0  0
   63.0731   30.8730   48.3662 H   0  0  0  0  0  0  0  0  0  0  0  0
   62.7875   30.6441   46.5868 H   0  0  0  0  0  0  0  0  0  0  0  0
   64.6192   32.4048   47.7819 H   0  0  0  0  0  0  0  0  0  0  0  0
   64.0457   32.3881   46.0512 H   0  0  0  0  0  0  0  0  0  0  0  0
   63.9485   34.6302   47.3517 H   0  0  0  0  0  0  0  0  0  0  0  0
   62.5012   34.0974   46.4073 H   0  0  0  0  0  0  0  0  0  0  0  0
   62.9363   33.8795   49.4223 H   0  0  0  0  0  0  0  0  0  0  0  0
   61.7359   34.9182   48.5127 H   0  0  0  0  0  0  0  0  0  0  0  0
   57.9674   31.7290   47.2117 H   0  0  0  0  0  0  0  0  0  0  0  0
   59.4801   30.7111   45.5322 H   0  0  0  0  0  0  0  0  0  0  0  0
   60.8129   28.8896   46.5829 H   0  0  0  0  0  0  0  0  0  0  0  0
   60.0818   26.5166   46.3667 H   0  0  0  0  0  0  0  0  0  0  0  0
   56.7547   22.6754   42.2395 H   0  0  0  0  0  0  0  0  0  0  0  0
   56.3613   20.3994   43.2328 H   0  0  0  0  0  0  0  0  0  0  0  0
   56.6725   20.0271   45.6877 H   0  0  0  0  0  0  0  0  0  0  0  0
   57.7710   22.5480   48.1030 H   0  0  0  0  0  0  0  0  0  0  0  0
   56.6352   27.7893   44.0758 H   0  0  0  0  0  0  0  0  0  0  0  0
  1  2  2  0
  2  3  1  0
  3  4  1  0
  4  5  2  0
  5  6  1  0
  6  7  2  0
  7  8  1  0
  8  9  1  0
  9 10  2  0
  9 11  2  0
  9 12  1  0
 12 13  1  0
 13 14  1  0
 14 15  1  0
 15 16  1  0
 16 17  1  0
  8 18  2  0
  2 19  1  0
 19 20  2  0
 20 21  1  0
 21 22  2  0
 22 23  1  0
 23 24  1  0
 24 25  1  0
 25 26  2  0
 25 27  1  0
 27 28  2  0
 28 29  1  0
 29 30  2  0
 30 31  1  0
 31 32  1  0
 31 33  2  0
 33 34  1  0
 34 35  2  0
 23 36  2  0
 18  4  1  0
 36 19  1  0
 17 12  1  0
 34 24  1  0
 33 27  1  0
  5 37  1  0
  6 38  1  0
  7 39  1  0
 13 40  1  0
 13 41  1  0
 14 42  1  0
 14 43  1  0
 15 44  1  0
 15 45  1  0
 16 46  1  0
 16 47  1  0
 17 48  1  0
 17 49  1  0
 18 50  1  0
 20 51  1  0
 21 52  1  0
 22 53  1  0
 28 54  1  0
 29 55  1  0
 30 56  1  0
 32 57  1  0
 36 58  1  0
M  CHG  1   3  -1
M  END
>  <UniqueID>  (21) 
19

>  <SMILES>  (21) 
O=C([N-]c1cccc(S(=O)(=O)N2CCCCC2)c1)c1cccc(N2C(=O)c3cccc(O)c3C2=O)c1

>  <Energy>  (21) 
113.9862175820221

>  <Genealogy>  (21) 
O=C([N-]c1cccc(S(=O)(=O)N2CCCCC2)c1)c1cccc(N2C(=O)c3cccc(O)c3C2=O)c1 (protonated)
O=C([N-]c1cccc(S(=O)(=O)N2CCCCC2)c1)c1cccc(N2C(=O)c3cccc(O)c3C2=O)c1 (3D coordinates assigned)
O=C([N-]c1cccc(S(=O)(=O)N2CCCCC2)c1)c1cccc(N2C(=O)c3cccc(O)c3C2=O)c1 (nonaromatic ring conformer: 113.9862175820221 kcal/mol)

>  <smiles>  (21) 
O=C(Nc1cccc(S(=O)(=O)N2CCCCC2)c1)c1cccc(N2C(=O)c3cccc(O)c3C2=O)c1

>  <score_type>  (21) 
oracle

>  <origin>  (21) 
adg

>  <m_score__min__energy>  (21) 
-13.220000000000001

>  <m_primary>  (21) 
energy

$$$$
21:0
     RDKit          3D

 44 46  0  0  0  0  0  0  0  0999 V2000
   54.3363   24.9168   45.5908 H   0  0  0  0  0  0  0  0  0  0  0  0
   55.4250   24.7720   45.6530 C   0  0  0  0  0  0  0  0  0  0  0  0
   56.1240   25.3070   46.6890 N   0  0  0  0  0  0  0  0  0  0  0  0
   57.4730   25.1460   46.8110 C   0  0  0  0  0  0  0  0  0  0  0  0
   58.1290   25.6780   47.8020 N   0  0  0  0  0  0  0  0  0  0  0  0
   59.1210   26.7120   47.6990 C   0  0  0  0  0  0  0  0  0  0  0  0
   60.2750   26.4860   48.1510 O   0  0  0  0  0  0  0  0  0  0  0  0
   58.8130   28.0510   47.1370 C   0  0  0  0  0  0  0  0  0  0  0  0
   59.6380   29.1500   47.4130 C   0  0  0  0  0  0  0  0  0  0  0  0
   60.5193   29.0308   48.0603 H   0  0  0  0  0  0  0  0  0  0  0  0
   59.3360   30.3950   46.8630 C   0  0  0  0  0  0  0  0  0  0  0  0
   59.9788   31.2607   47.0806 H   0  0  0  0  0  0  0  0  0  0  0  0
   58.2490   30.5430   46.0580 N   0  0  0  0  0  0  0  0  0  0  0  0
   58.0430   31.4870   45.6580 H   0  0  0  0  0  0  0  0  0  0  0  0
   57.4300   29.4980   45.7560 C   0  0  0  0  0  0  0  0  0  0  0  0
   56.3280   29.7300   44.9190 O   0  0  0  0  0  0  0  0  0  0  0  0
   56.4190   30.0980   43.5460 C   0  0  0  0  0  0  0  0  0  0  0  0
   55.4114   30.1253   43.1055 H   0  0  0  0  0  0  0  0  0  0  0  0
   57.0331   29.3612   43.0074 H   0  0  0  0  0  0  0  0  0  0  0  0
   57.0500   31.4530   43.4360 C   0  0  0  0  0  0  0  0  0  0  0  0
   57.4670   31.8490   42.3160 O   0  0  0  0  0  0  0  0  0  0  0  0
   57.1580   32.3260   44.5660 N   0  0  0  0  0  0  0  0  0  0  0  0
   57.7360   33.6630   44.5150 C   0  0  0  0  0  0  0  0  0  0  0  0
   56.9322   34.4075   44.4173 H   0  0  0  0  0  0  0  0  0  0  0  0
   58.4111   33.7402   43.6500 H   0  0  0  0  0  0  0  0  0  0  0  0
   58.5010   33.9170   45.7710 C   0  0  0  0  0  0  0  0  0  0  0  0
   58.3580   33.2190   46.8740 O   0  0  0  0  0  0  0  0  0  0  0  0
   59.1600   33.7220   47.7830 C   0  0  0  0  0  0  0  0  0  0  0  0
   59.2620   33.2120   49.1810 C   0  0  0  0  0  0  0  0  0  0  0  0
   59.0964   34.0398   49.8863 H   0  0  0  0  0  0  0  0  0  0  0  0
   58.5017   32.4339   49.3438 H   0  0  0  0  0  0  0  0  0  0  0  0
   60.2631   32.7862   49.3438 H   0  0  0  0  0  0  0  0  0  0  0  0
   59.8510   34.8010   47.2670 C   0  0  0  0  0  0  0  0  0  0  0  0
   60.5882   35.4287   47.7890 H   0  0  0  0  0  0  0  0  0  0  0  0
   59.4250   34.9280   45.9620 C   0  0  0  0  0  0  0  0  0  0  0  0
   59.7519   35.6773   45.2261 H   0  0  0  0  0  0  0  0  0  0  0  0
   57.7090   28.2250   46.2900 C   0  0  0  0  0  0  0  0  0  0  0  0
   57.0628   27.3697   46.0434 H   0  0  0  0  0  0  0  0  0  0  0  0
   58.1710   24.4260   45.8330 C   0  0  0  0  0  0  0  0  0  0  0  0
   59.2612   24.3010   45.9097 H   0  0  0  0  0  0  0  0  0  0  0  0
   57.4730   23.8680   44.7600 C   0  0  0  0  0  0  0  0  0  0  0  0
   58.0112   23.2959   43.9899 H   0  0  0  0  0  0  0  0  0  0  0  0
   56.0900   24.0380   44.6670 C   0  0  0  0  0  0  0  0  0  0  0  0
   55.1990   23.3450   43.3250 Cl  0  0  0  0  0  0  0  0  0  0  0  0
  1  2  1  0
  2  3  1  0
  3  4  1  0
  4  5  2  0
  5  6  1  0
  6  7  2  0
  6  8  1  0
  8  9  2  0
  9 10  1  0
  9 11  1  0
 11 12  1  0
 11 13  2  0
 13 14  1  0
 13 15  1  0
 15 16  1  0
 16 17  1  0
 17 18  1  0
 17 19  1  0
 17 20  1  0
 20 21  2  0
 20 22  1  0
 22 23  1  0
 23 24  1  0
 23 25  1  0
 23 26  1  0
 26 27  1  0
 27 28  1  0
 28 29  1  0
 29 30  1  0
 29 31  1  0
 29 32  1  0
 28 33  2  0
 33 34  1  0
 33 35  1  0
 35 36  1  0
 15 37  2  0
 37 38  1  0
  4 39  1  0
 39 40  1  0
 39 41  2  0
 41 42  1  0
 41 43  1  0
 43 44  1  0
 43  2  2  0
 37  8  1  0
 35 26  2  0
M  CHG  3   3  -1  13   1  22  -1
M  END
>  <UniqueID>  (22) 
20

>  <SMILES>  (22) 
Cc1ccc(C[N-]C(=O)COc2cc(C(=O)/N=c3/ccc(Cl)c[n-]3)cc[nH+]2)o1

>  <Energy>  (22) 
74.73804070510711

>  <Genealogy>  (22) 
Cc1ccc(C[N-]C(=O)COc2cc(C(=O)N=c3ccc(Cl)c[n-]3)cc[nH+]2)o1 (protonated)
Cc1ccc(C[N-]C(=O)COc2cc(C(=O)/N=c3/ccc(Cl)c[n-]3)cc[nH+]2)o1 (cis-trans isomerization)
Cc1ccc(C[N-]C(=O)COc2cc(C(=O)/N=c3/ccc(Cl)c[n-]3)cc[nH+]2)o1 (3D coordinates assigned)
Cc1ccc(C[N-]C(=O)COc2cc(C(=O)/N=c3/ccc(Cl)c[n-]3)cc[nH+]2)o1 (optimized conformer: 74.73804070510711 kcal/mol)

>  <smiles>  (22) 
Cc1ccc(CNC(=O)COc2cc(C(=O)N=c3ccc(Cl)c[nH]3)ccn2)o1

>  <score_type>  (22) 
oracle

>  <origin>  (22) 
adg

>  <m_score__min__energy>  (22) 
-9.2200000000000006

>  <m_primary>  (22) 
energy

$$$$
22:0
     RDKit          3D

 71 72  0  0  0  0  0  0  0  0999 V2000
   59.6487   34.7904   50.7740 H   0  0  0  0  0  0  0  0  0  0  0  0
   59.3710   33.7530   51.0120 C   0  0  0  0  0  0  0  0  0  0  0  0
   58.6390   33.5410   52.1280 C   0  0  0  0  0  0  0  0  0  0  0  0
   58.9370   34.3310   53.3780 C   0  0  0  0  0  0  0  0  0  0  0  0
   58.7061   33.7189   54.2623 H   0  0  0  0  0  0  0  0  0  0  0  0
   60.0014   34.6081   53.3916 H   0  0  0  0  0  0  0  0  0  0  0  0
   58.3208   35.2421   53.3916 H   0  0  0  0  0  0  0  0  0  0  0  0
   57.5020   32.5460   52.1780 C   0  0  0  0  0  0  0  0  0  0  0  0
   57.2520   32.3273   53.2267 H   0  0  0  0  0  0  0  0  0  0  0  0
   56.6218   32.9693   51.6719 H   0  0  0  0  0  0  0  0  0  0  0  0
   57.8048   31.6175   51.6719 H   0  0  0  0  0  0  0  0  0  0  0  0
   59.8370   32.6670   50.0650 C   0  0  0  0  0  0  0  0  0  0  0  0
   58.9556   32.1211   49.6974 H   0  0  0  0  0  0  0  0  0  0  0  0
   60.3874   33.1575   49.2487 H   0  0  0  0  0  0  0  0  0  0  0  0
   60.7950   31.6620   50.7250 C   0  0  0  0  0  0  0  0  0  0  0  0
   61.8092   31.8389   50.3375 H   0  0  0  0  0  0  0  0  0  0  0  0
   60.7360   31.8185   51.8122 H   0  0  0  0  0  0  0  0  0  0  0  0
   60.4200   30.2140   50.4550 C   0  0  0  0  0  0  0  0  0  0  0  0
   59.2050   29.8350   49.9940 C   0  0  0  0  0  0  0  0  0  0  0  0
   58.4032   29.6884   50.7326 H   0  0  0  0  0  0  0  0  0  0  0  0
   58.8680   29.5980   48.5380 C   0  0  0  0  0  0  0  0  0  0  0  0
   57.8679   30.0051   48.3281 H   0  0  0  0  0  0  0  0  0  0  0  0
   59.6231   30.0992   47.9145 H   0  0  0  0  0  0  0  0  0  0  0  0
   58.8790   28.0980   48.2150 C   0  0  0  0  0  0  0  0  0  0  0  0
   59.5110   27.5811   48.9522 H   0  0  0  0  0  0  0  0  0  0  0  0
   57.8413   27.7353   48.2548 H   0  0  0  0  0  0  0  0  0  0  0  0
   59.4180   27.8180   46.8280 C   0  0  0  0  0  0  0  0  0  0  0  0
   60.3400   28.6530   46.2910 C   0  0  0  0  0  0  0  0  0  0  0  0
   61.3909   28.5336   46.5932 H   0  0  0  0  0  0  0  0  0  0  0  0
   59.9990   29.7390   45.2990 C   0  0  0  0  0  0  0  0  0  0  0  0
   60.9016   30.0050   44.7293 H   0  0  0  0  0  0  0  0  0  0  0  0
   59.2172   29.3673   44.6203 H   0  0  0  0  0  0  0  0  0  0  0  0
   59.4980   30.9290   45.9910 N   0  0  0  0  0  0  0  0  0  0  0  0
   58.4660   31.0760   45.9720 H   0  0  0  0  0  0  0  0  0  0  0  0
   60.3420   31.9110   46.6300 C   0  0  0  0  0  0  0  0  0  0  0  0
   61.6330   31.5740   47.0840 C   0  0  0  0  0  0  0  0  0  0  0  0
   61.9872   30.5366   46.9922 H   0  0  0  0  0  0  0  0  0  0  0  0
   62.4700   32.5420   47.6500 C   0  0  0  0  0  0  0  0  0  0  0  0
   63.7770   32.1900   48.1170 N   0  0  0  0  0  0  0  0  0  0  0  0
   64.5700   32.1520   47.4340 H   0  0  0  0  0  0  0  0  0  0  0  0
   64.1800   32.3460   49.7970 S   0  0  0  0  0  0  0  0  0  0  0  0
   63.3460   33.4430   50.4010 O   0  0  0  0  0  0  0  0  0  0  0  0
   63.8560   31.0570   50.5010 O   0  0  0  0  0  0  0  0  0  0  0  0
   65.9040   32.7500   50.0080 C   0  0  0  0  0  0  0  0  0  0  0  0
   66.1390   32.8051   51.0812 H   0  0  0  0  0  0  0  0  0  0  0  0
   66.5231   31.9726   49.5365 H   0  0  0  0  0  0  0  0  0  0  0  0
   66.1133   33.7215   49.5365 H   0  0  0  0  0  0  0  0  0  0  0  0
   62.0270   33.8620   47.7580 C   0  0  0  0  0  0  0  0  0  0  0  0
   62.7004   34.6362   48.1545 H   0  0  0  0  0  0  0  0  0  0  0  0
   60.7320   34.2010   47.3640 C   0  0  0  0  0  0  0  0  0  0  0  0
   60.3811   35.2375   47.4764 H   0  0  0  0  0  0  0  0  0  0  0  0
   59.8730   33.2290   46.8250 C   0  0  0  0  0  0  0  0  0  0  0  0
   58.5330   33.5760   46.4410 N   0  0  0  0  0  0  0  0  0  0  0  0
   57.9350   33.2710   45.1740 C   0  0  0  0  0  0  0  0  0  0  0  0
   58.3660   33.8210   44.1220 O   0  0  0  0  0  0  0  0  0  0  0  0
   56.8250   32.3590   45.1260 N   0  0  0  0  0  0  0  0  0  0  0  0
   56.8270   31.1940   44.5510 C   0  0  0  0  0  0  0  0  0  0  0  0
   56.7290   30.0200   45.2140 N   0  0  0  0  0  0  0  0  0  0  0  0
   56.8080   28.9610   44.3630 C   0  0  0  0  0  0  0  0  0  0  0  0
   56.7563   27.9194   44.7129 H   0  0  0  0  0  0  0  0  0  0  0  0
   56.9590   29.2890   43.0170 C   0  0  0  0  0  0  0  0  0  0  0  0
   57.0326   28.5770   42.1817 H   0  0  0  0  0  0  0  0  0  0  0  0
   57.0090   30.9690   42.8950 S   0  0  0  0  0  0  0  0  0  0  0  0
   58.8680   26.6510   46.0410 C   0  0  0  0  0  0  0  0  0  0  0  0
   58.5043   25.8793   46.7354 H   0  0  0  0  0  0  0  0  0  0  0  0
   58.0372   26.9950   45.4074 H   0  0  0  0  0  0  0  0  0  0  0  0
   59.6621   26.2292   45.4074 H   0  0  0  0  0  0  0  0  0  0  0  0
   61.4340   29.1350   50.7540 C   0  0  0  0  0  0  0  0  0  0  0  0
   61.5395   29.0227   51.8432 H   0  0  0  0  0  0  0  0  0  0  0  0
   61.0959   28.1832   50.3183 H   0  0  0  0  0  0  0  0  0  0  0  0
   62.4049   29.4134   50.3183 H   0  0  0  0  0  0  0  0  0  0  0  0
  1  2  1  0
  2  3  2  3
  3  4  1  0
  4  5  1  0
  4  6  1  0
  4  7  1  0
  3  8  1  0
  8  9  1  0
  8 10  1  0
  8 11  1  0
  2 12  1  0
 12 13  1  0
 12 14  1  0
 12 15  1  0
 15 16  1  0
 15 17  1  0
 15 18  1  0
 18 19  2  3
 19 20  1  0
 19 21  1  0
 21 22  1  0
 21 23  1  0
 21 24  1  0
 24 25  1  0
 24 26  1  0
 24 27  1  0
 27 28  2  0
 28 29  1  0
 28 30  1  0
 30 31  1  0
 30 32  1  0
 30 33  1  0
 33 34  1  0
 33 35  1  0
 35 36  2  0
 36 37  1  0
 36 38  1  0
 38 39  1  0
 39 40  1  0
 39 41  1  0
 41 42  2  0
 41 43  2  0
 41 44  1  0
 44 45  1  0
 44 46  1  0
 44 47  1  0
 38 48  2  0
 48 49  1  0
 48 50  1  0
 50 51  1  0
 50 52  2  0
 52 53  1  0
 53 54  1  0
 54 55  2  0
 54 56  1  0
 56 57  2  3
 57 58  1  0
 58 59  1  0
 59 60  1  0
 59 61  2  0
 61 62  1  0
 61 63  1  0
 27 64  1  0
 64 65  1  0
 64 66  1  0
 64 67  1  0
 18 68  1  0
 68 69  1  0
 68 70  1  0
 68 71  1  0
 52 35  1  0
 63 57  1  0
M  CHG  2  53  -1  58  -1
M  END
>  <UniqueID>  (23) 
21

>  <SMILES>  (23) 
CC(C)=CCCC(C)=CCC/C(C)=C/CNc1cc(NS(C)(=O)=O)ccc1[N-]C(=O)N=c1[n-]ccs1

>  <Energy>  (23) 
91.69061122785345

>  <Genealogy>  (23) 
CC(C)=CCCC(C)=CCCC(C)=CCNc1cc(NS(C)(=O)=O)ccc1[N-]C(=O)N=c1[n-]ccs1 (protonated)
CC(C)=CCCC(C)=CCC/C(C)=C/CNc1cc(NS(C)(=O)=O)ccc1[N-]C(=O)N=c1[n-]ccs1 (cis-trans isomerization)
CC(C)=CCCC(C)=CCC/C(C)=C/CNc1cc(NS(C)(=O)=O)ccc1[N-]C(=O)N=c1[n-]ccs1 (3D coordinates assigned)
CC(C)=CCCC(C)=CCC/C(C)=C/CNc1cc(NS(C)(=O)=O)ccc1[N-]C(=O)N=c1[n-]ccs1 (optimized conformer: 91.69061122785345 kcal/mol)

>  <smiles>  (23) 
CC(C)=CCCC(C)=CCCC(C)=CCNc1cc(NS(C)(=O)=O)ccc1NC(=O)N=c1[nH]ccs1

>  <score_type>  (23) 
oracle

>  <origin>  (23) 
adg

>  <m_score__min__energy>  (23) 
-12.09

>  <m_primary>  (23) 
energy

$$$$
23:0
     RDKit          3D

 34 36  0  0  0  0  0  0  0  0999 V2000
   52.3002   24.2817   45.3226 H   0  0  0  0  0  0  0  0  0  0  0  0
   53.3740   24.2870   45.5610 C   0  0  0  0  0  0  0  0  0  0  0  0
   54.0470   25.4660   45.6380 N   0  0  0  0  0  0  0  0  0  0  0  0
   55.3770   25.5320   45.9230 C   0  0  0  0  0  0  0  0  0  0  0  0
   55.9340   26.7090   45.9840 N   0  0  0  0  0  0  0  0  0  0  0  0
   57.1950   27.1480   45.4450 C   0  0  0  0  0  0  0  0  0  0  0  0
   58.0880   26.3060   45.1560 O   0  0  0  0  0  0  0  0  0  0  0  0
   57.4050   28.5910   45.1450 C   0  0  0  0  0  0  0  0  0  0  0  0
   58.7000   29.1340   45.1580 C   0  0  0  0  0  0  0  0  0  0  0  0
   59.5594   28.4887   45.3928 H   0  0  0  0  0  0  0  0  0  0  0  0
   58.9010   30.4500   44.8830 N   0  0  0  0  0  0  0  0  0  0  0  0
   59.8750   30.8280   44.9050 H   0  0  0  0  0  0  0  0  0  0  0  0
   57.8600   31.2700   44.5800 C   0  0  0  0  0  0  0  0  0  0  0  0
   58.0860   32.5310   44.3430 N   0  0  0  0  0  0  0  0  0  0  0  0
   58.5670   33.5140   45.2760 C   0  0  0  0  0  0  0  0  0  0  0  0
   59.1520   34.7240   44.8520 C   0  0  0  0  0  0  0  0  0  0  0  0
   59.2251   34.9512   43.7782 H   0  0  0  0  0  0  0  0  0  0  0  0
   59.6400   35.6370   45.7930 C   0  0  0  0  0  0  0  0  0  0  0  0
   60.0819   36.5871   45.4583 H   0  0  0  0  0  0  0  0  0  0  0  0
   59.5670   35.3440   47.1570 C   0  0  0  0  0  0  0  0  0  0  0  0
   59.9429   36.0675   47.8954 H   0  0  0  0  0  0  0  0  0  0  0  0
   59.0170   34.1330   47.5840 C   0  0  0  0  0  0  0  0  0  0  0  0
   58.9676   33.8996   48.6578 H   0  0  0  0  0  0  0  0  0  0  0  0
   58.5290   33.2170   46.6460 C   0  0  0  0  0  0  0  0  0  0  0  0
   58.1126   32.2571   46.9854 H   0  0  0  0  0  0  0  0  0  0  0  0
   56.5950   30.7710   44.5700 N   0  0  0  0  0  0  0  0  0  0  0  0
   56.3420   29.4640   44.8390 C   0  0  0  0  0  0  0  0  0  0  0  0
   55.1510   29.0560   44.8060 O   0  0  0  0  0  0  0  0  0  0  0  0
   56.0780   24.3320   46.1740 C   0  0  0  0  0  0  0  0  0  0  0  0
   57.1479   24.3578   46.4281 H   0  0  0  0  0  0  0  0  0  0  0  0
   55.4020   23.1120   46.0970 C   0  0  0  0  0  0  0  0  0  0  0  0
   55.9418   22.1719   46.2835 H   0  0  0  0  0  0  0  0  0  0  0  0
   54.0440   23.0850   45.7840 C   0  0  0  0  0  0  0  0  0  0  0  0
   53.5077   22.1272   45.7138 H   0  0  0  0  0  0  0  0  0  0  0  0
  1  2  1  0
  2  3  1  0
  3  4  1  0
  4  5  2  3
  5  6  1  0
  6  7  2  0
  6  8  1  0
  8  9  2  0
  9 10  1  0
  9 11  1  0
 11 12  1  0
 11 13  1  0
 13 14  2  0
 14 15  1  0
 15 16  2  0
 16 17  1  0
 16 18  1  0
 18 19  1  0
 18 20  2  0
 20 21  1  0
 20 22  1  0
 22 23  1  0
 22 24  2  0
 24 25  1  0
 13 26  1  0
 26 27  1  0
 27 28  2  0
  4 29  1  0
 29 30  1  0
 29 31  2  0
 31 32  1  0
 31 33  1  0
 33 34  1  0
 33  2  2  0
 27  8  1  0
 24 15  1  0
M  CHG  2   3  -1  26  -1
M  END
>  <UniqueID>  (24) 
22

>  <SMILES>  (24) 
O=C(N=c1cccc[n-]1)c1c[nH]/c(=N/c2ccccc2)[n-]c1=O

>  <Energy>  (24) 
55.020761923507315

>  <Genealogy>  (24) 
O=C(N=c1cccc[n-]1)c1c[nH]c(=Nc2ccccc2)[n-]c1=O (protonated)
O=C(N=c1cccc[n-]1)c1c[nH]/c(=N/c2ccccc2)[n-]c1=O (cis-trans isomerization)
O=C(N=c1cccc[n-]1)c1c[nH]/c(=N/c2ccccc2)[n-]c1=O (3D coordinates assigned)
O=C(N=c1cccc[n-]1)c1c[nH]/c(=N/c2ccccc2)[n-]c1=O (optimized conformer: 55.020761923507315 kcal/mol)

>  <smiles>  (24) 
O=C(N=c1cccc[nH]1)c1c[nH]c(=Nc2ccccc2)[nH]c1=O

>  <score_type>  (24) 
oracle

>  <origin>  (24) 
adg

>  <m_score__min__energy>  (24) 
-11.09

>  <m_primary>  (24) 
energy

$$$$
24:0
     RDKit          3D

 31 32  0  0  0  0  0  0  0  0999 V2000
   58.5960   27.2810   48.0440 O   0  0  0  0  0  0  0  0  0  0  0  0
   58.7410   27.2950   46.7920 C   0  0  0  0  0  0  0  0  0  0  0  0
   59.5550   26.2960   46.1640 N   0  0  0  0  0  0  0  0  0  0  0  0
   59.1010   24.9370   45.8860 C   0  0  0  0  0  0  0  0  0  0  0  0
   57.6620   24.7260   46.3700 C   0  0  0  0  0  0  0  0  0  0  0  0
   57.0760   23.4480   45.8210 C   0  0  0  0  0  0  0  0  0  0  0  0
   56.6100   23.4150   44.4940 C   0  0  0  0  0  0  0  0  0  0  0  0
   56.0300   22.2530   43.9760 C   0  0  0  0  0  0  0  0  0  0  0  0
   55.5760   22.2290   42.6630 O   0  0  0  0  0  0  0  0  0  0  0  0
   55.9060   21.1150   44.7780 C   0  0  0  0  0  0  0  0  0  0  0  0
   56.3580   21.1390   46.1000 C   0  0  0  0  0  0  0  0  0  0  0  0
   56.9400   22.2990   46.6250 C   0  0  0  0  0  0  0  0  0  0  0  0
   57.3790   22.2960   47.9460 O   0  0  0  0  0  0  0  0  0  0  0  0
   58.0670   28.3300   45.9650 C   0  0  0  0  0  0  0  0  0  0  0  0
   58.7970   29.4530   45.5290 C   0  0  0  0  0  0  0  0  0  0  0  0
   58.1910   30.4350   44.7410 C   0  0  0  0  0  0  0  0  0  0  0  0
   56.8510   30.3120   44.3770 C   0  0  0  0  0  0  0  0  0  0  0  0
   56.1100   29.2070   44.8000 C   0  0  0  0  0  0  0  0  0  0  0  0
   54.7730   29.0940   44.4330 O   0  0  0  0  0  0  0  0  0  0  0  0
   56.7070   28.2160   45.5910 C   0  0  0  0  0  0  0  0  0  0  0  0
   55.9390   27.1310   46.0020 O   0  0  0  0  0  0  0  0  0  0  0  0
   59.1451   24.7583   44.8015 H   0  0  0  0  0  0  0  0  0  0  0  0
   59.7561   24.2336   46.4208 H   0  0  0  0  0  0  0  0  0  0  0  0
   57.6578   24.6781   47.4689 H   0  0  0  0  0  0  0  0  0  0  0  0
   57.0506   25.5677   46.0127 H   0  0  0  0  0  0  0  0  0  0  0  0
   56.7025   24.3091   43.8599 H   0  0  0  0  0  0  0  0  0  0  0  0
   55.4525   20.2003   44.3684 H   0  0  0  0  0  0  0  0  0  0  0  0
   56.2562   20.2433   46.7304 H   0  0  0  0  0  0  0  0  0  0  0  0
   59.8549   29.5580   45.8117 H   0  0  0  0  0  0  0  0  0  0  0  0
   58.7726   31.3070   44.4072 H   0  0  0  0  0  0  0  0  0  0  0  0
   56.3770   31.0863   43.7559 H   0  0  0  0  0  0  0  0  0  0  0  0
  1  2  2  0
  2  3  1  0
  3  4  1  0
  4  5  1  0
  5  6  1  0
  6  7  2  0
  7  8  1  0
  8  9  1  0
  8 10  2  0
 10 11  1  0
 11 12  2  0
 12 13  1  0
  2 14  1  0
 14 15  2  0
 15 16  1  0
 16 17  2  0
 17 18  1  0
 18 19  1  0
 18 20  2  0
 20 21  1  0
 12  6  1  0
 20 14  1  0
  4 22  1  0
  4 23  1  0
  5 24  1  0
  5 25  1  0
  7 26  1  0
 10 27  1  0
 11 28  1  0
 15 29  1  0
 16 30  1  0
 17 31  1  0
M  CHG  5   3  -1   9  -1  13  -1  19  -1  21  -1
M  END
>  <UniqueID>  (25) 
23

>  <SMILES>  (25) 
O=C([N-]CCc1cc([O-])ccc1[O-])c1cccc([O-])c1[O-]

>  <Energy>  (25) 
30.764192883745853

>  <Genealogy>  (25) 
O=C([N-]CCc1cc([O-])ccc1[O-])c1cccc([O-])c1[O-] (protonated)
O=C([N-]CCc1cc([O-])ccc1[O-])c1cccc([O-])c1[O-] (3D coordinates assigned)
O=C([N-]CCc1cc([O-])ccc1[O-])c1cccc([O-])c1[O-] (optimized conformer: 30.764192883745853 kcal/mol)

>  <smiles>  (25) 
O=C(NCCc1cc(O)ccc1O)c1cccc(O)c1O

>  <score_type>  (25) 
oracle

>  <origin>  (25) 
adg

>  <m_score__min__energy>  (25) 
-18.190000000000001

>  <m_primary>  (25) 
energy

$$$$
25:0
     RDKit          3D

 67 67  0  0  0  0  0  0  0  0999 V2000
   61.7610   26.0400   46.2220 H   0  0  0  0  0  0  0  0  0  0  0  0
   60.8380   25.7720   46.5440 O   0  0  0  0  0  0  0  0  0  0  0  0
   59.7030   26.5040   46.2100 C   0  0  0  0  0  0  0  0  0  0  0  0
   59.8190   27.7890   45.6700 C   0  0  0  0  0  0  0  0  0  0  0  0
   60.8132   28.2385   45.5303 H   0  0  0  0  0  0  0  0  0  0  0  0
   58.6740   28.5020   45.3080 C   0  0  0  0  0  0  0  0  0  0  0  0
   58.7717   29.5207   44.9048 H   0  0  0  0  0  0  0  0  0  0  0  0
   57.3960   27.9300   45.4540 C   0  0  0  0  0  0  0  0  0  0  0  0
   56.2180   28.6730   45.0900 N   0  0  0  0  0  0  0  0  0  0  0  0
   56.1820   29.9440   44.4250 C   0  0  0  0  0  0  0  0  0  0  0  0
   55.1330   30.6380   44.4990 O   0  0  0  0  0  0  0  0  0  0  0  0
   57.3260   30.4350   43.5770 C   0  0  0  0  0  0  0  0  0  0  0  0
   56.9244   30.9041   42.6667 H   0  0  0  0  0  0  0  0  0  0  0  0
   57.9647   29.5780   43.3170 H   0  0  0  0  0  0  0  0  0  0  0  0
   58.1700   31.4620   44.3410 C   0  0  0  0  0  0  0  0  0  0  0  0
   58.6992   32.1011   43.6189 H   0  0  0  0  0  0  0  0  0  0  0  0
   58.8874   30.9223   44.9766 H   0  0  0  0  0  0  0  0  0  0  0  0
   57.2870   32.3430   45.2390 C   0  0  0  0  0  0  0  0  0  0  0  0
   56.4397   31.7450   45.6057 H   0  0  0  0  0  0  0  0  0  0  0  0
   56.9319   33.1980   44.6450 H   0  0  0  0  0  0  0  0  0  0  0  0
   58.0620   32.8730   46.4200 C   0  0  0  0  0  0  0  0  0  0  0  0
   58.5451   32.1418   47.0848 H   0  0  0  0  0  0  0  0  0  0  0  0
   58.2040   34.1830   46.7180 C   0  0  0  0  0  0  0  0  0  0  0  0
   57.2935   34.7581   46.9421 H   0  0  0  0  0  0  0  0  0  0  0  0
   59.5230   34.9120   46.7650 C   0  0  0  0  0  0  0  0  0  0  0  0
   59.8455   35.0061   47.8124 H   0  0  0  0  0  0  0  0  0  0  0  0
   59.3918   35.9062   46.3130 H   0  0  0  0  0  0  0  0  0  0  0  0
   60.5760   34.1660   45.9900 C   0  0  0  0  0  0  0  0  0  0  0  0
   60.5277   34.1867   44.8913 H   0  0  0  0  0  0  0  0  0  0  0  0
   61.5750   33.4740   46.5730 C   0  0  0  0  0  0  0  0  0  0  0  0
   61.3025   32.5975   47.1793 H   0  0  0  0  0  0  0  0  0  0  0  0
   63.0410   33.8150   46.4540 C   0  0  0  0  0  0  0  0  0  0  0  0
   63.1448   34.8327   46.0495 H   0  0  0  0  0  0  0  0  0  0  0  0
   63.5227   33.0902   45.7813 H   0  0  0  0  0  0  0  0  0  0  0  0
   63.7050   33.7470   47.8000 C   0  0  0  0  0  0  0  0  0  0  0  0
   64.7951   33.6102   47.8545 H   0  0  0  0  0  0  0  0  0  0  0  0
   63.0010   33.8490   48.9360 C   0  0  0  0  0  0  0  0  0  0  0  0
   62.5041   34.8006   49.1760 H   0  0  0  0  0  0  0  0  0  0  0  0
   62.8740   32.6930   49.8910 C   0  0  0  0  0  0  0  0  0  0  0  0
   63.3825   32.9475   50.8326 H   0  0  0  0  0  0  0  0  0  0  0  0
   63.3346   31.8069   49.4298 H   0  0  0  0  0  0  0  0  0  0  0  0
   61.4260   32.3840   50.1810 C   0  0  0  0  0  0  0  0  0  0  0  0
   61.2051   31.5231   50.8291 H   0  0  0  0  0  0  0  0  0  0  0  0
   60.3860   33.0910   49.7000 C   0  0  0  0  0  0  0  0  0  0  0  0
   60.5992   34.0566   49.2182 H   0  0  0  0  0  0  0  0  0  0  0  0
   58.9490   32.6450   49.7790 C   0  0  0  0  0  0  0  0  0  0  0  0
   58.4174   32.9774   48.8752 H   0  0  0  0  0  0  0  0  0  0  0  0
   58.4900   33.0871   50.6756 H   0  0  0  0  0  0  0  0  0  0  0  0
   58.8610   31.1140   49.8820 C   0  0  0  0  0  0  0  0  0  0  0  0
   57.8929   30.8476   50.3311 H   0  0  0  0  0  0  0  0  0  0  0  0
   59.7060   30.7758   50.4997 H   0  0  0  0  0  0  0  0  0  0  0  0
   58.9780   30.4140   48.5170 C   0  0  0  0  0  0  0  0  0  0  0  0
   58.8110   31.1617   47.7277 H   0  0  0  0  0  0  0  0  0  0  0  0
   58.2252   29.6121   48.5009 H   0  0  0  0  0  0  0  0  0  0  0  0
   60.3500   29.7500   48.2770 C   0  0  0  0  0  0  0  0  0  0  0  0
   60.1905   28.6883   48.0374 H   0  0  0  0  0  0  0  0  0  0  0  0
   60.9452   29.8739   49.1937 H   0  0  0  0  0  0  0  0  0  0  0  0
   61.1250   30.4000   47.1300 C   0  0  0  0  0  0  0  0  0  0  0  0
   61.9068   31.0557   47.5409 H   0  0  0  0  0  0  0  0  0  0  0  0
   61.5900   29.6178   46.5120 H   0  0  0  0  0  0  0  0  0  0  0  0
   60.4357   30.9941   46.5120 H   0  0  0  0  0  0  0  0  0  0  0  0
   57.2720   26.6500   46.0500 C   0  0  0  0  0  0  0  0  0  0  0  0
   55.9520   26.0130   46.2930 C   0  0  0  0  0  0  0  0  0  0  0  0
   54.8800   26.6150   46.0140 O   0  0  0  0  0  0  0  0  0  0  0  0
   55.8820   24.7300   46.8290 O   0  0  0  0  0  0  0  0  0  0  0  0
   58.4360   25.9490   46.4170 C   0  0  0  0  0  0  0  0  0  0  0  0
   58.3481   24.9516   46.8726 H   0  0  0  0  0  0  0  0  0  0  0  0
  1  2  1  0
  2  3  1  0
  3  4  2  0
  4  5  1  0
  4  6  1  0
  6  7  1  0
  6  8  2  0
  8  9  1  0
  9 10  1  0
 10 11  2  0
 10 12  1  0
 12 13  1  0
 12 14  1  0
 12 15  1  0
 15 16  1  0
 15 17  1  0
 15 18  1  0
 18 19  1  0
 18 20  1  0
 18 21  1  0
 21 22  1  0
 21 23  2  0
 23 24  1  0
 23 25  1  0
 25 26  1  0
 25 27  1  0
 25 28  1  0
 28 29  1  0
 28 30  2  0
 30 31  1  0
 30 32  1  0
 32 33  1  0
 32 34  1  0
 32 35  1  0
 35 36  1  0
 35 37  2  3
 37 38  1  0
 37 39  1  0
 39 40  1  0
 39 41  1  0
 39 42  1  0
 42 43  1  0
 42 44  2  3
 44 45  1  0
 44 46  1  0
 46 47  1  0
 46 48  1  0
 46 49  1  0
 49 50  1  0
 49 51  1  0
 49 52  1  0
 52 53  1  0
 52 54  1  0
 52 55  1  0
 55 56  1  0
 55 57  1  0
 55 58  1  0
 58 59  1  0
 58 60  1  0
 58 61  1  0
  8 62  1  0
 62 63  1  0
 63 64  2  0
 63 65  1  0
 62 66  2  0
 66 67  1  0
 66  3  1  0
M  CHG  2   9  -1  65  -1
M  END
>  <UniqueID>  (26) 
24

>  <SMILES>  (26) 
CCCCCC=CCC=CC/C=C\C/C=C\CCCC(=O)[N-]c1ccc(O)cc1C(=O)[O-]

>  <Energy>  (26) 
50.746760561877174

>  <Genealogy>  (26) 
CCCCCC=CCC=CCC=CCC=CCCCC(=O)[N-]c1ccc(O)cc1C(=O)[O-] (protonated)
CCCCCC=CCC=CC/C=C\C/C=C\CCCC(=O)[N-]c1ccc(O)cc1C(=O)[O-] (cis-trans isomerization)
CCCCCC=CCC=CC/C=C\C/C=C\CCCC(=O)[N-]c1ccc(O)cc1C(=O)[O-] (3D coordinates assigned)
CCCCCC=CCC=CC/C=C\C/C=C\CCCC(=O)[N-]c1ccc(O)cc1C(=O)[O-] (optimized conformer: 50.746760561877174 kcal/mol)

>  <smiles>  (26) 
CCCCCC=CCC=CCC=CCC=CCCCC(=O)Nc1ccc(O)cc1C(=O)O

>  <score_type>  (26) 
oracle

>  <origin>  (26) 
adg

>  <m_score__min__energy>  (26) 
-12.99

>  <m_primary>  (26) 
energy

$$$$
26:0
     RDKit          3D

 52 54  0  0  0  0  0  0  0  0999 V2000
   58.8960   33.2900   49.4760 O   0  0  0  0  0  0  0  0  0  0  0  0
   59.5590   32.5130   48.8030 C   0  0  0  0  0  0  0  0  0  0  0  0
   59.1890   31.0490   48.8390 C   0  0  0  0  0  0  0  0  0  0  0  0
   60.6240   29.9910   48.8210 S   0  0  0  0  0  0  0  0  0  0  0  0
   61.9770   30.8740   48.3510 O   0  0  0  0  0  0  0  0  0  0  0  0
   60.4000   28.5860   47.7460 C   0  0  0  0  0  0  0  0  0  0  0  0
   59.4200   28.9190   46.6580 C   0  0  0  0  0  0  0  0  0  0  0  0
   58.1410   28.3340   46.6590 C   0  0  0  0  0  0  0  0  0  0  0  0
   57.2300   28.6290   45.6410 C   0  0  0  0  0  0  0  0  0  0  0  0
   57.5880   29.5080   44.6110 C   0  0  0  0  0  0  0  0  0  0  0  0
   56.3460   29.9040   43.2160 Br  0  0  0  0  0  0  0  0  0  0  0  0
   58.8580   30.0950   44.6020 C   0  0  0  0  0  0  0  0  0  0  0  0
   59.7720   29.8010   45.6190 C   0  0  0  0  0  0  0  0  0  0  0  0
   60.5700   33.0160   47.8810 N   0  0  2  0  0  0  0  0  0  0  0  0
   61.3200   34.1630   48.4640 C   0  0  0  0  0  0  0  0  0  0  0  0
   62.2200   33.7290   49.5980 C   0  0  0  0  0  0  0  0  0  0  0  0
   61.7160   33.6100   50.9040 C   0  0  0  0  0  0  0  0  0  0  0  0
   62.5570   33.2210   51.9520 C   0  0  0  0  0  0  0  0  0  0  0  0
   63.9070   32.9480   51.7030 C   0  0  0  0  0  0  0  0  0  0  0  0
   64.4200   33.0720   50.4070 C   0  0  0  0  0  0  0  0  0  0  0  0
   66.1200   32.7600   50.1010 Cl  0  0  0  0  0  0  0  0  0  0  0  0
   63.5770   33.4550   49.3560 C   0  0  0  0  0  0  0  0  0  0  0  0
   59.9460   33.2980   46.5530 C   0  0  2  0  0  0  0  0  0  0  0  0
   60.0430   34.7830   46.1330 C   0  0  0  0  0  0  0  0  0  0  0  0
   59.1870   34.9690   44.8770 C   0  0  0  0  0  0  0  0  0  0  0  0
   57.8710   33.7920   45.0290 S   0  0  0  0  0  0  0  0  0  0  0  0
   57.7450   32.9450   43.7940 O   0  0  0  0  0  0  0  0  0  0  0  0
   56.5630   34.4610   45.3510 O   0  0  0  0  0  0  0  0  0  0  0  0
   58.4750   32.8540   46.4050 C   0  0  0  0  0  0  0  0  0  0  0  0
   58.6146   30.8512   49.7560 H   0  0  0  0  0  0  0  0  0  0  0  0
   58.5956   30.8285   47.9395 H   0  0  0  0  0  0  0  0  0  0  0  0
   62.7090   30.5410   48.9310 H   0  0  0  0  0  0  0  0  0  0  0  0
   61.3661   28.3154   47.2950 H   0  0  0  0  0  0  0  0  0  0  0  0
   60.0115   27.7414   48.3340 H   0  0  0  0  0  0  0  0  0  0  0  0
   57.8564   27.6412   47.4646 H   0  0  0  0  0  0  0  0  0  0  0  0
   56.2303   28.1701   45.6487 H   0  0  0  0  0  0  0  0  0  0  0  0
   59.1377   30.7880   43.7948 H   0  0  0  0  0  0  0  0  0  0  0  0
   60.7710   30.2613   45.6069 H   0  0  0  0  0  0  0  0  0  0  0  0
   61.2600   32.2450   47.7220 H   0  0  0  0  0  0  0  0  0  0  0  0
   61.9359   34.6223   47.6768 H   0  0  0  0  0  0  0  0  0  0  0  0
   60.5888   34.8807   48.8643 H   0  0  0  0  0  0  0  0  0  0  0  0
   60.6555   33.8236   51.1033 H   0  0  0  0  0  0  0  0  0  0  0  0
   62.1570   33.1296   52.9726 H   0  0  0  0  0  0  0  0  0  0  0  0
   64.5654   32.6356   52.5270 H   0  0  0  0  0  0  0  0  0  0  0  0
   63.9792   33.5418   48.3359 H   0  0  0  0  0  0  0  0  0  0  0  0
   60.5547   32.6746   45.8815 H   0  0  0  0  0  0  0  0  0  0  0  0
   59.6662   35.4264   46.9417 H   0  0  0  0  0  0  0  0  0  0  0  0
   61.0886   35.0584   45.9307 H   0  0  0  0  0  0  0  0  0  0  0  0
   58.7855   35.9922   44.8325 H   0  0  0  0  0  0  0  0  0  0  0  0
   59.7701   34.8154   43.9570 H   0  0  0  0  0  0  0  0  0  0  0  0
   57.9041   33.0869   47.3160 H   0  0  0  0  0  0  0  0  0  0  0  0
   58.3770   31.7694   46.2497 H   0  0  0  0  0  0  0  0  0  0  0  0
  1  2  2  0
  2  3  1  0
  3  4  1  0
  4  5  1  6
  4  6  1  0
  6  7  1  0
  7  8  2  0
  8  9  1  0
  9 10  2  0
 10 11  1  0
 10 12  1  0
 12 13  2  0
  2 14  1  0
 14 15  1  0
 15 16  1  0
 16 17  2  0
 17 18  1  0
 18 19  2  0
 19 20  1  0
 20 21  1  0
 20 22  2  0
 14 23  1  0
 23 24  1  0
 24 25  1  0
 25 26  1  0
 26 27  2  0
 26 28  2  0
 26 29  1  0
 13  7  1  0
 22 16  1  0
 29 23  1  0
  3 30  1  0
  3 31  1  0
  5 32  1  0
  6 33  1  0
  6 34  1  0
  8 35  1  0
  9 36  1  0
 12 37  1  0
 13 38  1  0
 14 39  1  6
 15 40  1  0
 15 41  1  0
 17 42  1  0
 18 43  1  0
 19 44  1  0
 22 45  1  0
 23 46  1  6
 24 47  1  0
 24 48  1  0
 25 49  1  0
 25 50  1  0
 29 51  1  0
 29 52  1  0
M  CHG  2   4   1  14   1
M  END
>  <UniqueID>  (27) 
25

>  <SMILES>  (27) 
O=C(C[S@@+](O)Cc1ccc(Br)cc1)[N@H+](Cc1cccc(Cl)c1)C1CCS(=O)(=O)C1

>  <Energy>  (27) 
49.504003920778416

>  <Genealogy>  (27) 
O=C(C[S+](O)Cc1ccc(Br)cc1)[NH+](Cc1cccc(Cl)c1)C1CCS(=O)(=O)C1 (protonated)
O=C(C[S@@+](O)Cc1ccc(Br)cc1)[N@H+](Cc1cccc(Cl)c1)C1CCS(=O)(=O)C1 (chirality)
O=C(C[S@@+](O)Cc1ccc(Br)cc1)[N@H+](Cc1cccc(Cl)c1)C1CCS(=O)(=O)C1 (3D coordinates assigned)
O=C(C[S@@+](O)Cc1ccc(Br)cc1)[N@H+](Cc1cccc(Cl)c1)C1CCS(=O)(=O)C1 (nonaromatic ring conformer: 49.504003920778416 kcal/mol)

>  <smiles>  (27) 
O=C(C[S+]([O-])Cc1ccc(Br)cc1)N(Cc1cccc(Cl)c1)C1CCS(=O)(=O)C1

>  <score_type>  (27) 
oracle

>  <origin>  (27) 
adg

>  <m_score__min__energy>  (27) 
-6.6299999999999999

>  <m_primary>  (27) 
energy

$$$$
27:0
     RDKit          3D

 45 47  0  0  0  0  0  0  0  0999 V2000
   57.8973   29.6762   44.8960 H   0  0  0  0  0  0  0  0  0  0  0  0
   57.7150   28.6040   44.7310 C   0  0  0  0  0  0  0  0  0  0  0  0
   57.1237   28.2737   43.8643 H   0  0  0  0  0  0  0  0  0  0  0  0
   58.2140   27.6990   45.5870 C   0  0  0  0  0  0  0  0  0  0  0  0
   58.0670   26.3110   45.5090 C   0  0  0  0  0  0  0  0  0  0  0  0
   57.3900   25.6090   44.5800 C   0  0  0  0  0  0  0  0  0  0  0  0
   57.7660   25.6146   43.5463 H   0  0  0  0  0  0  0  0  0  0  0  0
   56.1660   24.8300   44.8770 C   0  0  0  0  0  0  0  0  0  0  0  0
   55.0820   25.3960   45.5710 C   0  0  0  0  0  0  0  0  0  0  0  0
   55.1300   26.7190   46.0010 O   0  0  0  0  0  0  0  0  0  0  0  0
   53.9820   24.6450   45.8430 N   0  0  0  0  0  0  0  0  0  0  0  0
   53.1780   25.0780   46.3510 H   0  0  0  0  0  0  0  0  0  0  0  0
   53.9220   23.3370   45.4760 C   0  0  0  0  0  0  0  0  0  0  0  0
   52.8980   22.6520   45.7350 O   0  0  0  0  0  0  0  0  0  0  0  0
   54.9690   22.7620   44.8320 N   0  0  0  0  0  0  0  0  0  0  0  0
   56.0870   23.4720   44.5320 C   0  0  0  0  0  0  0  0  0  0  0  0
   57.0400   22.9030   43.9360 O   0  0  0  0  0  0  0  0  0  0  0  0
   58.7230   25.7850   46.6160 C   0  0  0  0  0  0  0  0  0  0  0  0
   58.8047   24.7224   46.8883 H   0  0  0  0  0  0  0  0  0  0  0  0
   59.2520   26.8570   47.3070 C   0  0  0  0  0  0  0  0  0  0  0  0
   60.0290   26.7490   48.5840 C   0  0  0  0  0  0  0  0  0  0  0  0
   59.3438   26.8442   49.4393 H   0  0  0  0  0  0  0  0  0  0  0  0
   60.5331   25.7722   48.6250 H   0  0  0  0  0  0  0  0  0  0  0  0
   60.7804   27.5513   48.6250 H   0  0  0  0  0  0  0  0  0  0  0  0
   58.9350   28.0180   46.6910 N   0  0  0  0  0  0  0  0  0  0  0  0
   59.3180   29.3320   47.1280 C   0  0  0  0  0  0  0  0  0  0  0  0
   58.9610   29.7760   48.4090 C   0  0  0  0  0  0  0  0  0  0  0  0
   58.4078   29.1088   49.0863 H   0  0  0  0  0  0  0  0  0  0  0  0
   59.3060   31.0640   48.8280 C   0  0  0  0  0  0  0  0  0  0  0  0
   59.0338   31.4025   49.8386 H   0  0  0  0  0  0  0  0  0  0  0  0
   59.9980   31.9270   47.9650 C   0  0  0  0  0  0  0  0  0  0  0  0
   60.3410   33.2900   48.4080 C   0  0  0  0  0  0  0  0  0  0  0  0
   59.4580   34.1860   48.3690 O   0  0  0  0  0  0  0  0  0  0  0  0
   61.6510   33.6330   48.8770 N   0  0  0  0  0  0  0  0  0  0  0  0
   63.1430   33.0940   48.1720 S   0  0  0  0  0  0  0  0  0  0  0  0
   63.4380   33.8750   46.9230 O   0  0  0  0  0  0  0  0  0  0  0  0
   63.0050   31.6410   47.8190 O   0  0  0  0  0  0  0  0  0  0  0  0
   64.4900   33.2580   49.3280 C   0  0  0  0  0  0  0  0  0  0  0  0
   64.0994   33.2104   50.3552 H   0  0  0  0  0  0  0  0  0  0  0  0
   65.2094   32.4408   49.1711 H   0  0  0  0  0  0  0  0  0  0  0  0
   64.9923   34.2239   49.1711 H   0  0  0  0  0  0  0  0  0  0  0  0
   60.3840   31.4700   46.6960 C   0  0  0  0  0  0  0  0  0  0  0  0
   60.9602   32.1278   46.0287 H   0  0  0  0  0  0  0  0  0  0  0  0
   60.0390   30.1810   46.2760 C   0  0  0  0  0  0  0  0  0  0  0  0
   60.4250   29.7530   45.0480 F   0  0  0  0  0  0  0  0  0  0  0  0
  1  2  1  0
  2  3  1  0
  2  4  2  0
  4  5  1  0
  5  6  2  0
  6  7  1  0
  6  8  1  0
  8  9  2  0
  9 10  1  0
  9 11  1  0
 11 12  1  0
 11 13  1  0
 13 14  2  0
 13 15  1  0
 15 16  1  0
 16 17  2  0
  5 18  1  0
 18 19  1  0
 18 20  2  0
 20 21  1  0
 21 22  1  0
 21 23  1  0
 21 24  1  0
 20 25  1  0
 25 26  1  0
 26 27  2  0
 27 28  1  0
 27 29  1  0
 29 30  1  0
 29 31  2  0
 31 32  1  0
 32 33  2  0
 32 34  1  0
 34 35  1  0
 35 36  2  0
 35 37  2  0
 35 38  1  0
 38 39  1  0
 38 40  1  0
 38 41  1  0
 31 42  1  0
 42 43  1  0
 42 44  2  0
 44 45  1  0
 25  4  1  0
 44 26  1  0
 16  8  1  0
M  CHG  3  10  -1  15  -1  34  -1
M  END
>  <UniqueID>  (28) 
26

>  <SMILES>  (28) 
C=c1/c(=C/c2c([O-])[nH]c(=O)[n-]c2=O)cc(C)n1-c1ccc(C(=O)[N-]S(C)(=O)=O)cc1F

>  <Energy>  (28) 
95.5330808835718

>  <Genealogy>  (28) 
C=c1c(=Cc2c([O-])[nH]c(=O)[n-]c2=O)cc(C)n1-c1ccc(C(=O)[N-]S(C)(=O)=O)cc1F (protonated)
C=c1/c(=C/c2c([O-])[nH]c(=O)[n-]c2=O)cc(C)n1-c1ccc(C(=O)[N-]S(C)(=O)=O)cc1F (cis-trans isomerization)
C=c1/c(=C/c2c([O-])[nH]c(=O)[n-]c2=O)cc(C)n1-c1ccc(C(=O)[N-]S(C)(=O)=O)cc1F (3D coordinates assigned)
C=c1/c(=C/c2c([O-])[nH]c(=O)[n-]c2=O)cc(C)n1-c1ccc(C(=O)[N-]S(C)(=O)=O)cc1F (optimized conformer: 95.5330808835718 kcal/mol)

>  <smiles>  (28) 
C=c1c(=Cc2c(O)[nH]c(=O)[nH]c2=O)cc(C)n1-c1ccc(C(=O)NS(C)(=O)=O)cc1F

>  <score_type>  (28) 
oracle

>  <origin>  (28) 
adg

>  <m_score__min__energy>  (28) 
-14.42

>  <m_primary>  (28) 
energy

$$$$
28:0
     RDKit          3D

 55 58  0  0  0  0  0  0  0  0999 V2000
   55.5710   31.6380   52.0080 C   0  0  0  0  0  0  0  0  0  0  0  0
   55.1950   30.4720   52.5560 C   0  0  0  0  0  0  0  0  0  0  0  0
   53.8840   30.0500   52.7960 C   0  0  0  0  0  0  0  0  0  0  0  0
   52.7520   30.7560   52.6020 C   0  0  0  0  0  0  0  0  0  0  0  0
   52.1260   30.9680   51.2850 C   0  0  0  0  0  0  0  0  0  0  0  0
   52.1360   30.0430   50.3070 N   0  0  0  0  0  0  0  0  0  0  0  0
   51.3920   30.6090   49.3310 C   0  0  0  0  0  0  0  0  0  0  0  0
   51.1750   30.0410   48.2290 O   0  0  0  0  0  0  0  0  0  0  0  0
   50.8890   31.8250   49.6350 N   0  0  0  0  0  0  0  0  0  0  0  0
   51.3510   32.0330   50.8790 C   0  0  0  0  0  0  0  0  0  0  0  0
   51.0280   33.1500   51.6400 O   0  0  0  0  0  0  0  0  0  0  0  0
   53.9770   28.7710   53.3290 C   0  0  0  0  0  0  0  0  0  0  0  0
   55.3230   28.4660   53.3940 C   0  0  0  0  0  0  0  0  0  0  0  0
   55.8820   27.1720   53.9040 C   0  0  0  0  0  0  0  0  0  0  0  0
   56.0620   29.4940   52.9240 N   0  0  0  0  0  0  0  0  0  0  0  0
   57.4980   29.5320   52.8570 C   0  0  0  0  0  0  0  0  0  0  0  0
   58.1470   29.3480   51.6270 C   0  0  0  0  0  0  0  0  0  0  0  0
   59.5530   29.3540   51.5490 C   0  0  0  0  0  0  0  0  0  0  0  0
   60.2570   29.1380   50.2580 C   0  0  0  0  0  0  0  0  0  0  0  0
   60.4460   27.9510   49.8650 O   0  0  0  0  0  0  0  0  0  0  0  0
   60.6670   30.2490   49.4180 N   0  0  0  0  0  0  0  0  0  0  0  0
   60.1680   30.0610   48.0370 C   0  0  0  0  0  0  0  0  0  0  0  0
   60.5290   31.2670   47.1620 C   0  0  0  0  0  0  0  0  0  0  0  0
   60.0570   32.5170   47.7720 N   0  0  0  0  0  0  0  0  0  0  0  0
   60.0820   33.7320   46.9890 C   0  0  0  0  0  0  0  0  0  0  0  0
   59.2740   34.9360   47.3750 C   0  0  0  0  0  0  0  0  0  0  0  0
   60.8080   33.7950   45.9600 O   0  0  0  0  0  0  0  0  0  0  0  0
   59.4570   32.4720   49.1130 C   0  0  0  0  0  0  0  0  0  0  0  0
   60.2730   31.5490   50.0390 C   0  0  0  0  0  0  0  0  0  0  0  0
   60.2970   29.5390   52.7280 C   0  0  0  0  0  0  0  0  0  0  0  0
   59.6520   29.7240   53.9540 C   0  0  0  0  0  0  0  0  0  0  0  0
   58.2580   29.7200   54.0210 C   0  0  0  0  0  0  0  0  0  0  0  0
   57.6450   29.8750   55.2220 F   0  0  0  0  0  0  0  0  0  0  0  0
   56.6390   31.8608   51.8679 H   0  0  0  0  0  0  0  0  0  0  0  0
   54.8111   32.3708   51.6989 H   0  0  0  0  0  0  0  0  0  0  0  0
   52.2652   31.2017   53.4820 H   0  0  0  0  0  0  0  0  0  0  0  0
   53.1415   28.1262   53.6391 H   0  0  0  0  0  0  0  0  0  0  0  0
   55.8788   27.1794   55.0040 H   0  0  0  0  0  0  0  0  0  0  0  0
   55.2642   26.3373   53.5411 H   0  0  0  0  0  0  0  0  0  0  0  0
   56.9132   27.0497   53.5411 H   0  0  0  0  0  0  0  0  0  0  0  0
   57.5517   29.1975   50.7144 H   0  0  0  0  0  0  0  0  0  0  0  0
   61.7120   30.2270   49.3400 H   0  0  0  0  0  0  0  0  0  0  0  0
   60.6224   29.1553   47.6090 H   0  0  0  0  0  0  0  0  0  0  0  0
   59.0730   29.9607   48.0670 H   0  0  0  0  0  0  0  0  0  0  0  0
   61.6218   31.3133   47.0456 H   0  0  0  0  0  0  0  0  0  0  0  0
   60.0430   31.1485   46.1823 H   0  0  0  0  0  0  0  0  0  0  0  0
   59.2252   35.0087   48.4715 H   0  0  0  0  0  0  0  0  0  0  0  0
   59.7480   35.8415   46.9682 H   0  0  0  0  0  0  0  0  0  0  0  0
   58.2564   34.8405   46.9682 H   0  0  0  0  0  0  0  0  0  0  0  0
   59.4409   33.4871   49.5366 H   0  0  0  0  0  0  0  0  0  0  0  0
   58.4330   32.0787   49.0314 H   0  0  0  0  0  0  0  0  0  0  0  0
   61.1890   32.0809   50.3355 H   0  0  0  0  0  0  0  0  0  0  0  0
   59.6243   31.3064   50.8936 H   0  0  0  0  0  0  0  0  0  0  0  0
   61.3962   29.5381   52.6849 H   0  0  0  0  0  0  0  0  0  0  0  0
   60.2447   29.8732   54.8686 H   0  0  0  0  0  0  0  0  0  0  0  0
  1  2  2  0
  2  3  1  0
  3  4  2  3
  4  5  1  0
  5  6  1  0
  6  7  1  0
  7  8  2  0
  7  9  1  0
  9 10  1  0
 10 11  1  0
  3 12  1  0
 12 13  2  0
 13 14  1  0
 13 15  1  0
 15 16  1  0
 16 17  2  0
 17 18  1  0
 18 19  1  0
 19 20  2  0
 19 21  1  0
 21 22  1  0
 22 23  1  0
 23 24  1  0
 24 25  1  0
 25 26  1  0
 25 27  2  0
 24 28  1  0
 28 29  1  0
 18 30  2  0
 30 31  1  0
 31 32  2  0
 32 33  1  0
 15  2  1  0
 32 16  1  0
 10  5  2  0
 29 21  1  0
  1 34  1  0
  1 35  1  0
  4 36  1  0
 12 37  1  0
 14 38  1  0
 14 39  1  0
 14 40  1  0
 17 41  1  0
 21 42  1  0
 22 43  1  0
 22 44  1  0
 23 45  1  0
 23 46  1  0
 26 47  1  0
 26 48  1  0
 26 49  1  0
 28 50  1  0
 28 51  1  0
 29 52  1  0
 29 53  1  0
 30 54  1  0
 31 55  1  0
M  CHG  4   6  -1   9  -1  11  -1  21   1
M  END
>  <UniqueID>  (29) 
27

>  <SMILES>  (29) 
C=c1c(=Cc2[n-]c(=O)[n-]c2[O-])cc(C)n1-c1cc(C(=O)[NH+]2CCN(C(C)=O)CC2)ccc1F

>  <Energy>  (29) 
139.85137200568957

>  <Genealogy>  (29) 
C=c1c(=Cc2[n-]c(=O)[n-]c2[O-])cc(C)n1-c1cc(C(=O)[NH+]2CCN(C(C)=O)CC2)ccc1F (protonated)
C=c1c(=Cc2[n-]c(=O)[n-]c2[O-])cc(C)n1-c1cc(C(=O)[NH+]2CCN(C(C)=O)CC2)ccc1F (3D coordinates assigned)
C=c1c(=Cc2[n-]c(=O)[n-]c2[O-])cc(C)n1-c1cc(C(=O)[NH+]2CCN(C(C)=O)CC2)ccc1F (nonaromatic ring conformer: 139.85137200568957 kcal/mol)

>  <smiles>  (29) 
C=c1c(=Cc2[nH]c(=O)[nH]c2O)cc(C)n1-c1cc(C(=O)N2CCN(C(C)=O)CC2)ccc1F

>  <score_type>  (29) 
oracle

>  <origin>  (29) 
adg

>  <m_score__min__energy>  (29) 
-16

>  <m_primary>  (29) 
energy

$$$$
29:0
     RDKit          3D

 46 49  0  0  0  0  0  0  0  0999 V2000
   54.0380   26.3330   46.4120 H   0  0  0  0  0  0  0  0  0  0  0  0
   54.9640   26.4680   46.0250 O   0  0  0  0  0  0  0  0  0  0  0  0
   55.9810   25.5550   46.2840 C   0  0  0  0  0  0  0  0  0  0  0  0
   55.8310   24.4740   47.0680 N   0  0  0  0  0  0  0  0  0  0  0  0
   57.0320   23.8660   46.9680 C   0  0  0  0  0  0  0  0  0  0  0  0
   57.3010   22.7910   47.5650 O   0  0  0  0  0  0  0  0  0  0  0  0
   57.9220   24.4960   46.1700 N   0  0  0  0  0  0  0  0  0  0  0  0
   57.2530   25.5880   45.7560 C   0  0  0  0  0  0  0  0  0  0  0  0
   57.8020   26.5530   44.7870 C   0  0  0  0  0  0  0  0  0  0  0  0
   57.7713   26.2876   43.7199 H   0  0  0  0  0  0  0  0  0  0  0  0
   58.3390   27.7400   45.1280 C   0  0  0  0  0  0  0  0  0  0  0  0
   59.5660   27.9430   45.7470 C   0  0  0  0  0  0  0  0  0  0  0  0
   60.2695   27.1663   46.0814 H   0  0  0  0  0  0  0  0  0  0  0  0
   59.7310   29.3100   45.8610 C   0  0  0  0  0  0  0  0  0  0  0  0
   60.9260   29.9750   46.4710 C   0  0  0  0  0  0  0  0  0  0  0  0
   60.8494   29.9324   47.5675 H   0  0  0  0  0  0  0  0  0  0  0  0
   61.8399   29.4557   46.1468 H   0  0  0  0  0  0  0  0  0  0  0  0
   60.9665   31.0254   46.1468 H   0  0  0  0  0  0  0  0  0  0  0  0
   58.6610   29.9580   45.3480 N   0  0  0  0  0  0  0  0  0  0  0  0
   58.4960   31.3860   45.2910 C   0  0  0  0  0  0  0  0  0  0  0  0
   57.8880   31.9820   44.1770 C   0  0  0  0  0  0  0  0  0  0  0  0
   57.5359   31.3559   43.3439 H   0  0  0  0  0  0  0  0  0  0  0  0
   57.7280   33.3700   44.1220 C   0  0  0  0  0  0  0  0  0  0  0  0
   57.2459   33.8327   43.2482 H   0  0  0  0  0  0  0  0  0  0  0  0
   58.1790   34.1700   45.1740 C   0  0  0  0  0  0  0  0  0  0  0  0
   58.0441   35.2608   45.1298 H   0  0  0  0  0  0  0  0  0  0  0  0
   58.8040   33.5870   46.2880 C   0  0  0  0  0  0  0  0  0  0  0  0
   59.2540   34.4430   47.4410 C   0  0  0  0  0  0  0  0  0  0  0  0
   59.1045   35.5028   47.1869 H   0  0  0  0  0  0  0  0  0  0  0  0
   58.6638   34.1838   48.3324 H   0  0  0  0  0  0  0  0  0  0  0  0
   60.7090   34.2020   47.7290 C   0  0  0  0  0  0  0  0  0  0  0  0
   61.1890   34.2140   49.0480 C   0  0  0  0  0  0  0  0  0  0  0  0
   60.5018   34.4305   49.8792 H   0  0  0  0  0  0  0  0  0  0  0  0
   62.5000   33.9590   49.3020 N   0  0  0  0  0  0  0  0  0  0  0  0
   63.3800   33.6800   48.3040 C   0  0  0  0  0  0  0  0  0  0  0  0
   64.4356   33.4817   48.5415 H   0  0  0  0  0  0  0  0  0  0  0  0
   62.9450   33.6450   46.9780 C   0  0  0  0  0  0  0  0  0  0  0  0
   63.6524   33.4164   46.1672 H   0  0  0  0  0  0  0  0  0  0  0  0
   61.6030   33.9030   46.6910 C   0  0  0  0  0  0  0  0  0  0  0  0
   61.2472   33.8717   45.6506 H   0  0  0  0  0  0  0  0  0  0  0  0
   58.9510   32.1920   46.3440 C   0  0  0  0  0  0  0  0  0  0  0  0
   59.4267   31.7279   47.2206 H   0  0  0  0  0  0  0  0  0  0  0  0
   57.8040   29.0110   44.8910 C   0  0  0  0  0  0  0  0  0  0  0  0
   56.6100   29.2820   44.3410 C   0  0  0  0  0  0  0  0  0  0  0  0
   56.2924   30.3260   44.2027 H   0  0  0  0  0  0  0  0  0  0  0  0
   55.9491   28.4601   44.0286 H   0  0  0  0  0  0  0  0  0  0  0  0
  1  2  1  0
  2  3  1  0
  3  4  1  0
  4  5  1  0
  5  6  2  0
  5  7  1  0
  7  8  1  0
  8  9  1  0
  9 10  1  0
  9 11  2  0
 11 12  1  0
 12 13  1  0
 12 14  2  0
 14 15  1  0
 15 16  1  0
 15 17  1  0
 15 18  1  0
 14 19  1  0
 19 20  1  0
 20 21  2  0
 21 22  1  0
 21 23  1  0
 23 24  1  0
 23 25  2  0
 25 26  1  0
 25 27  1  0
 27 28  1  0
 28 29  1  0
 28 30  1  0
 28 31  1  0
 31 32  2  0
 32 33  1  0
 32 34  1  0
 34 35  2  0
 35 36  1  0
 35 37  1  0
 37 38  1  0
 37 39  2  0
 39 40  1  0
 27 41  2  0
 41 42  1  0
 19 43  1  0
 43 44  2  0
 44 45  1  0
 44 46  1  0
  8  3  2  0
 43 11  1  0
 41 20  1  0
 39 31  1  0
M  CHG  2   4  -1   7  -1
M  END
>  <UniqueID>  (30) 
28

>  <SMILES>  (30) 
C=c1/c(=C/c2[n-]c(=O)[n-]c2O)cc(C)n1-c1cccc(Cc2cccnc2)c1

>  <Energy>  (30) 
119.41779197187823

>  <Genealogy>  (30) 
C=c1c(=Cc2[n-]c(=O)[n-]c2O)cc(C)n1-c1cccc(Cc2cccnc2)c1 (protonated)
C=c1/c(=C/c2[n-]c(=O)[n-]c2O)cc(C)n1-c1cccc(Cc2cccnc2)c1 (cis-trans isomerization)
C=c1/c(=C/c2[n-]c(=O)[n-]c2O)cc(C)n1-c1cccc(Cc2cccnc2)c1 (3D coordinates assigned)
C=c1/c(=C/c2[n-]c(=O)[n-]c2O)cc(C)n1-c1cccc(Cc2cccnc2)c1 (optimized conformer: 119.41779197187823 kcal/mol)

>  <smiles>  (30) 
C=c1c(=Cc2[nH]c(=O)[nH]c2O)cc(C)n1-c1cccc(Cc2cccnc2)c1

>  <score_type>  (30) 
oracle

>  <origin>  (30) 
adg

>  <m_score__min__energy>  (30) 
-14.619999999999999

>  <m_primary>  (30) 
energy

$$$$
30:0
     RDKit          3D

 45 48  0  0  0  0  0  0  0  0999 V2000
   57.6150   21.1450   47.1010 O   0  0  0  0  0  0  0  0  0  0  0  0
   57.4250   21.7080   45.9880 C   0  0  0  0  0  0  0  0  0  0  0  0
   56.8070   23.0510   45.9540 C   0  0  0  0  0  0  0  0  0  0  0  0
   55.4110   23.2280   45.9580 C   0  0  0  0  0  0  0  0  0  0  0  0
   54.5240   22.1510   45.9060 O   0  0  0  0  0  0  0  0  0  0  0  0
   54.8970   24.4810   45.9840 N   0  0  0  0  0  0  0  0  0  0  0  0
   55.6890   25.5810   45.9840 C   0  0  0  0  0  0  0  0  0  0  0  0
   55.1520   26.7210   46.0240 O   0  0  0  0  0  0  0  0  0  0  0  0
   57.0520   25.4510   45.9470 N   0  0  0  0  0  0  0  0  0  0  0  0
   57.8890   26.6260   45.9350 C   0  0  0  0  0  0  0  0  0  0  0  0
   58.4570   27.0790   44.7340 C   0  0  0  0  0  0  0  0  0  0  0  0
   59.2680   28.2170   44.7210 C   0  0  0  0  0  0  0  0  0  0  0  0
   59.5230   28.9200   45.9150 C   0  0  0  0  0  0  0  0  0  0  0  0
   60.3290   30.0680   45.9560 O   0  0  0  0  0  0  0  0  0  0  0  0
   60.1810   31.1240   46.9000 C   0  0  0  0  0  0  0  0  0  0  0  0
   59.3110   32.1940   46.3100 C   0  0  0  0  0  0  0  0  0  0  0  0
   58.1350   31.8510   45.6230 C   0  0  0  0  0  0  0  0  0  0  0  0
   57.3450   32.8470   45.0400 C   0  0  0  0  0  0  0  0  0  0  0  0
   57.7310   34.1880   45.1280 C   0  0  0  0  0  0  0  0  0  0  0  0
   58.9090   34.5350   45.7960 C   0  0  0  0  0  0  0  0  0  0  0  0
   59.7020   33.5420   46.3800 C   0  0  0  0  0  0  0  0  0  0  0  0
   58.9540   28.4650   47.1110 C   0  0  0  0  0  0  0  0  0  0  0  0
   58.1430   27.3270   47.1240 C   0  0  0  0  0  0  0  0  0  0  0  0
   57.6190   24.2020   45.9310 C   0  0  0  0  0  0  0  0  0  0  0  0
   58.8750   24.0780   45.9000 O   0  0  0  0  0  0  0  0  0  0  0  0
   57.7650   21.0020   44.6960 C   0  0  0  0  0  0  0  0  0  0  0  0
   56.5800   20.6740   43.8010 C   0  0  0  0  0  0  0  0  0  0  0  0
   57.5330   21.7960   43.4190 C   0  0  0  0  0  0  0  0  0  0  0  0
   54.6550   21.3000   46.4370 H   0  0  0  0  0  0  0  0  0  0  0  0
   58.2627   26.5352   43.7978 H   0  0  0  0  0  0  0  0  0  0  0  0
   59.7088   28.5651   43.7752 H   0  0  0  0  0  0  0  0  0  0  0  0
   59.7149   30.7350   47.8173 H   0  0  0  0  0  0  0  0  0  0  0  0
   61.1684   31.5430   47.1439 H   0  0  0  0  0  0  0  0  0  0  0  0
   57.8344   30.7959   45.5432 H   0  0  0  0  0  0  0  0  0  0  0  0
   56.4192   32.5752   44.5118 H   0  0  0  0  0  0  0  0  0  0  0  0
   57.1073   34.9705   44.6713 H   0  0  0  0  0  0  0  0  0  0  0  0
   59.2125   35.5902   45.8624 H   0  0  0  0  0  0  0  0  0  0  0  0
   60.6341   33.8168   46.8954 H   0  0  0  0  0  0  0  0  0  0  0  0
   59.1470   29.0079   48.0480 H   0  0  0  0  0  0  0  0  0  0  0  0
   57.7020   26.9793   48.0699 H   0  0  0  0  0  0  0  0  0  0  0  0
   58.6106   20.4366   45.1147 H   0  0  0  0  0  0  0  0  0  0  0  0
   56.5708   19.7391   43.2214 H   0  0  0  0  0  0  0  0  0  0  0  0
   55.4929   20.5935   43.9485 H   0  0  0  0  0  0  0  0  0  0  0  0
   58.2131   21.6726   42.5633 H   0  0  0  0  0  0  0  0  0  0  0  0
   57.4209   22.8629   43.1759 H   0  0  0  0  0  0  0  0  0  0  0  0
  1  2  2  0
  2  3  1  0
  3  4  2  0
  4  5  1  0
  4  6  1  0
  6  7  1  0
  7  8  2  0
  7  9  1  0
  9 10  1  0
 10 11  2  0
 11 12  1  0
 12 13  2  0
 13 14  1  0
 14 15  1  0
 15 16  1  0
 16 17  2  0
 17 18  1  0
 18 19  2  0
 19 20  1  0
 20 21  2  0
 13 22  1  0
 22 23  2  0
  9 24  1  0
 24 25  2  0
  2 26  1  0
 26 27  1  0
 27 28  1  0
 24  3  1  0
 28 26  1  0
 23 10  1  0
 21 16  1  0
  5 29  1  0
 11 30  1  0
 12 31  1  0
 15 32  1  0
 15 33  1  0
 17 34  1  0
 18 35  1  0
 19 36  1  0
 20 37  1  0
 21 38  1  0
 22 39  1  0
 23 40  1  0
 26 41  1  0
 27 42  1  0
 27 43  1  0
 28 44  1  0
 28 45  1  0
M  CHG  1   6  -1
M  END
>  <UniqueID>  (31) 
29

>  <SMILES>  (31) 
O=C(c1c(O)[n-]c(=O)n(-c2ccc(OCc3ccccc3)cc2)c1=O)C1CC1

>  <Energy>  (31) 
331.2119278031876

>  <Genealogy>  (31) 
O=C(c1c(O)[n-]c(=O)n(-c2ccc(OCc3ccccc3)cc2)c1=O)C1CC1 (protonated)
O=C(c1c(O)[n-]c(=O)n(-c2ccc(OCc3ccccc3)cc2)c1=O)C1CC1 (3D coordinates assigned)
O=C(c1c(O)[n-]c(=O)n(-c2ccc(OCc3ccccc3)cc2)c1=O)C1CC1 (nonaromatic ring conformer: 331.2119278031876 kcal/mol)

>  <smiles>  (31) 
O=C(c1c(O)[nH]c(=O)n(-c2ccc(OCc3ccccc3)cc2)c1=O)C1CC1

>  <score_type>  (31) 
oracle

>  <origin>  (31) 
adg

>  <m_score__min__energy>  (31) 
-9.7699999999999996

>  <m_primary>  (31) 
energy

$$$$
31:0
     RDKit          3D

 58 61  0  0  0  0  0  0  0  0999 V2000
   60.0460   22.9800   45.6030 O   0  0  0  0  0  0  0  0  0  0  0  0
   58.8850   23.4700   45.5590 C   0  0  0  0  0  0  0  0  0  0  0  0
   58.5500   24.5950   46.3840 N   0  0  0  0  0  0  0  0  0  0  0  0
   58.3680   25.9550   45.9640 C   0  0  0  0  0  0  0  0  0  0  0  0
   58.4570   26.9670   46.9290 C   0  0  0  0  0  0  0  0  0  0  0  0
   58.2210   28.3000   46.5820 C   0  0  0  0  0  0  0  0  0  0  0  0
   57.8880   28.6370   45.2660 C   0  0  0  0  0  0  0  0  0  0  0  0
   57.4950   30.3080   44.8710 S   0  0  0  0  0  0  0  0  0  0  0  0
   56.0490   30.4470   44.4860 O   0  0  0  0  0  0  0  0  0  0  0  0
   58.3450   30.7470   43.7120 O   0  0  0  0  0  0  0  0  0  0  0  0
   57.8370   31.3060   46.2480 N   0  0  0  0  0  0  0  0  0  0  0  0
   59.1620   31.7760   46.5360 C   0  0  0  0  0  0  0  0  0  0  0  0
   59.5010   33.1320   46.3870 C   0  0  0  0  0  0  0  0  0  0  0  0
   60.7910   33.5760   46.6940 C   0  0  0  0  0  0  0  0  0  0  0  0
   61.7580   32.6750   47.1680 C   0  0  0  0  0  0  0  0  0  0  0  0
   63.1190   33.1510   47.5020 C   0  0  0  0  0  0  0  0  0  0  0  0
   63.9530   33.3300   46.5720 O   0  0  0  0  0  0  0  0  0  0  0  0
   63.5140   33.3970   48.8640 N   0  0  0  0  0  0  0  0  0  0  0  0
   62.6490   34.1970   49.7470 C   0  0  0  0  0  0  0  0  0  0  0  0
   62.8930   33.8780   51.2410 C   0  0  0  0  0  0  0  0  0  0  0  0
   63.9640   32.9780   51.4670 O   0  0  0  0  0  0  0  0  0  0  0  0
   65.1030   33.3960   50.7480 C   0  0  0  0  0  0  0  0  0  0  0  0
   64.8960   33.1030   49.2630 C   0  0  0  0  0  0  0  0  0  0  0  0
   61.4260   31.3160   47.2910 C   0  0  0  0  0  0  0  0  0  0  0  0
   60.1400   30.8700   46.9710 C   0  0  0  0  0  0  0  0  0  0  0  0
   57.7880   27.6290   44.2970 C   0  0  0  0  0  0  0  0  0  0  0  0
   58.0190   26.2940   44.6440 C   0  0  0  0  0  0  0  0  0  0  0  0
   57.8810   22.8710   44.7130 N   0  0  0  0  0  0  0  0  0  0  0  0
   58.1300   21.5600   44.0940 C   0  0  0  0  0  0  0  0  0  0  0  0
   57.2850   21.4020   42.8250 C   0  0  0  0  0  0  0  0  0  0  0  0
   55.9290   21.7060   43.0780 O   0  0  0  0  0  0  0  0  0  0  0  0
   55.8040   23.0760   43.4080 C   0  0  0  0  0  0  0  0  0  0  0  0
   56.5040   23.3800   44.7370 C   0  0  0  0  0  0  0  0  0  0  0  0
   58.7145   26.7104   47.9672 H   0  0  0  0  0  0  0  0  0  0  0  0
   58.2974   29.0871   47.3466 H   0  0  0  0  0  0  0  0  0  0  0  0
   57.0240   31.7720   46.7110 H   0  0  0  0  0  0  0  0  0  0  0  0
   58.7474   33.8478   46.0269 H   0  0  0  0  0  0  0  0  0  0  0  0
   61.0497   34.6372   46.5634 H   0  0  0  0  0  0  0  0  0  0  0  0
   62.8539   35.2637   49.5735 H   0  0  0  0  0  0  0  0  0  0  0  0
   61.6030   33.9497   49.5131 H   0  0  0  0  0  0  0  0  0  0  0  0
   63.1150   34.8195   51.7647 H   0  0  0  0  0  0  0  0  0  0  0  0
   61.9812   33.3912   51.6173 H   0  0  0  0  0  0  0  0  0  0  0  0
   65.2531   34.4761   50.8923 H   0  0  0  0  0  0  0  0  0  0  0  0
   65.9885   32.8540   51.1114 H   0  0  0  0  0  0  0  0  0  0  0  0
   65.5829   33.7272   48.6726 H   0  0  0  0  0  0  0  0  0  0  0  0
   65.0975   32.0370   49.0813 H   0  0  0  0  0  0  0  0  0  0  0  0
   62.1822   30.5980   47.6412 H   0  0  0  0  0  0  0  0  0  0  0  0
   59.8939   29.8017   47.0610 H   0  0  0  0  0  0  0  0  0  0  0  0
   57.5270   27.8888   43.2605 H   0  0  0  0  0  0  0  0  0  0  0  0
   57.9275   25.5061   43.8819 H   0  0  0  0  0  0  0  0  0  0  0  0
   59.1955   21.4784   43.8330 H   0  0  0  0  0  0  0  0  0  0  0  0
   57.8553   20.7693   44.8077 H   0  0  0  0  0  0  0  0  0  0  0  0
   57.6679   22.0833   42.0509 H   0  0  0  0  0  0  0  0  0  0  0  0
   57.3525   20.3574   42.4871 H   0  0  0  0  0  0  0  0  0  0  0  0
   56.2615   23.6821   42.6122 H   0  0  0  0  0  0  0  0  0  0  0  0
   54.7359   23.3194   43.5075 H   0  0  0  0  0  0  0  0  0  0  0  0
   56.5216   24.4680   44.8978 H   0  0  0  0  0  0  0  0  0  0  0  0
   55.9539   22.8885   45.5530 H   0  0  0  0  0  0  0  0  0  0  0  0
  1  2  2  0
  2  3  1  0
  3  4  1  0
  4  5  2  0
  5  6  1  0
  6  7  2  0
  7  8  1  0
  8  9  2  0
  8 10  2  0
  8 11  1  0
 11 12  1  0
 12 13  2  0
 13 14  1  0
 14 15  2  0
 15 16  1  0
 16 17  2  0
 16 18  1  0
 18 19  1  0
 19 20  1  0
 20 21  1  0
 21 22  1  0
 22 23  1  0
 15 24  1  0
 24 25  2  0
  7 26  1  0
 26 27  2  0
  2 28  1  0
 28 29  1  0
 29 30  1  0
 30 31  1  0
 31 32  1  0
 32 33  1  0
 27  4  1  0
 33 28  1  0
 25 12  1  0
 23 18  1  0
  5 34  1  0
  6 35  1  0
 11 36  1  0
 13 37  1  0
 14 38  1  0
 19 39  1  0
 19 40  1  0
 20 41  1  0
 20 42  1  0
 22 43  1  0
 22 44  1  0
 23 45  1  0
 23 46  1  0
 24 47  1  0
 25 48  1  0
 26 49  1  0
 27 50  1  0
 29 51  1  0
 29 52  1  0
 30 53  1  0
 30 54  1  0
 32 55  1  0
 32 56  1  0
 33 57  1  0
 33 58  1  0
M  CHG  1   3  -1
M  END
>  <UniqueID>  (32) 
30

>  <SMILES>  (32) 
O=C([N-]c1ccc(S(=O)(=O)Nc2ccc(C(=O)N3CCOCC3)cc2)cc1)N1CCOCC1

>  <Energy>  (32) 
79.4602267477143

>  <Genealogy>  (32) 
O=C([N-]c1ccc(S(=O)(=O)Nc2ccc(C(=O)N3CCOCC3)cc2)cc1)N1CCOCC1 (protonated)
O=C([N-]c1ccc(S(=O)(=O)Nc2ccc(C(=O)N3CCOCC3)cc2)cc1)N1CCOCC1 (3D coordinates assigned)
O=C([N-]c1ccc(S(=O)(=O)Nc2ccc(C(=O)N3CCOCC3)cc2)cc1)N1CCOCC1 (nonaromatic ring conformer: 79.4602267477143 kcal/mol)

>  <smiles>  (32) 
O=C(Nc1ccc(S(=O)(=O)Nc2ccc(C(=O)N3CCOCC3)cc2)cc1)N1CCOCC1

>  <score_type>  (32) 
oracle

>  <origin>  (32) 
adg

>  <m_score__min__energy>  (32) 
-11.99

>  <m_primary>  (32) 
energy

$$$$
32:0
     RDKit          3D

 54 56  0  0  0  0  0  0  0  0999 V2000
   63.3530   33.9120   46.3520 C   0  0  0  0  0  0  0  0  0  0  0  0
   63.0280   33.3390   47.7080 C   0  0  0  0  0  0  0  0  0  0  0  0
   64.1450   33.0160   48.6720 C   0  0  0  0  0  0  0  0  0  0  0  0
   61.7360   33.1180   48.0250 C   0  0  0  0  0  0  0  0  0  0  0  0
   60.6660   34.1780   47.9130 C   0  0  0  0  0  0  0  0  0  0  0  0
   59.7280   33.8680   46.7730 C   0  0  0  0  0  0  0  0  0  0  0  0
   59.2530   32.5570   46.5970 C   0  0  0  0  0  0  0  0  0  0  0  0
   58.3470   32.2540   45.5630 C   0  0  0  0  0  0  0  0  0  0  0  0
   57.8510   30.8690   45.3590 C   0  0  0  0  0  0  0  0  0  0  0  0
   56.6960   30.6960   44.8800 O   0  0  0  0  0  0  0  0  0  0  0  0
   58.6520   29.7320   45.7230 N   0  0  0  0  0  0  0  0  0  0  0  0
   58.3520   28.3900   45.3190 C   0  0  0  0  0  0  0  0  0  0  0  0
   58.2190   27.3510   46.1720 N   0  0  0  0  0  0  0  0  0  0  0  0
   57.9170   26.1980   45.5140 C   0  0  0  0  0  0  0  0  0  0  0  0
   57.7000   24.9080   46.2490 C   0  0  0  0  0  0  0  0  0  0  0  0
   56.3290   24.8490   46.8730 C   0  0  0  0  0  0  0  0  0  0  0  0
   56.2030   24.4810   48.0710 O   0  0  0  0  0  0  0  0  0  0  0  0
   55.1560   25.2700   46.1620 N   0  0  0  0  0  0  0  0  0  0  0  0
   54.3560   24.4380   45.2670 C   0  0  0  0  0  0  0  0  0  0  0  0
   55.2140   23.3890   44.6110 C   0  0  0  0  0  0  0  0  0  0  0  0
   55.4700   22.1680   45.2550 C   0  0  0  0  0  0  0  0  0  0  0  0
   56.2740   21.2020   44.6400 C   0  0  0  0  0  0  0  0  0  0  0  0
   56.8240   21.4470   43.3800 C   0  0  0  0  0  0  0  0  0  0  0  0
   56.5650   22.6560   42.7290 C   0  0  0  0  0  0  0  0  0  0  0  0
   55.7630   23.6250   43.3410 C   0  0  0  0  0  0  0  0  0  0  0  0
   57.7950   26.3200   44.1330 C   0  0  0  0  0  0  0  0  0  0  0  0
   58.0870   27.9270   43.7260 S   0  0  0  0  0  0  0  0  0  0  0  0
   57.9310   33.2830   44.7010 C   0  0  0  0  0  0  0  0  0  0  0  0
   58.3880   34.5890   44.8820 C   0  0  0  0  0  0  0  0  0  0  0  0
   59.2750   34.8880   45.9160 C   0  0  0  0  0  0  0  0  0  0  0  0
   59.7020   36.2010   46.0870 O   0  0  0  0  0  0  0  0  0  0  0  0
   63.8923   34.8628   46.4754 H   0  0  0  0  0  0  0  0  0  0  0  0
   63.9832   33.2026   45.7956 H   0  0  0  0  0  0  0  0  0  0  0  0
   62.4207   34.0888   45.7956 H   0  0  0  0  0  0  0  0  0  0  0  0
   63.7803   33.1215   49.7044 H   0  0  0  0  0  0  0  0  0  0  0  0
   64.4846   31.9829   48.5068 H   0  0  0  0  0  0  0  0  0  0  0  0
   64.9836   33.7084   48.5068 H   0  0  0  0  0  0  0  0  0  0  0  0
   61.4478   32.1183   48.3821 H   0  0  0  0  0  0  0  0  0  0  0  0
   60.0940   34.2148   48.8519 H   0  0  0  0  0  0  0  0  0  0  0  0
   61.1472   35.1485   47.7220 H   0  0  0  0  0  0  0  0  0  0  0  0
   59.5927   31.7595   47.2742 H   0  0  0  0  0  0  0  0  0  0  0  0
   59.4750   29.8690   46.3490 H   0  0  0  0  0  0  0  0  0  0  0  0
   57.8068   24.0720   45.5421 H   0  0  0  0  0  0  0  0  0  0  0  0
   58.4474   24.8402   47.0532 H   0  0  0  0  0  0  0  0  0  0  0  0
   53.5612   23.9449   45.8458 H   0  0  0  0  0  0  0  0  0  0  0  0
   53.9175   25.0768   44.4862 H   0  0  0  0  0  0  0  0  0  0  0  0
   55.0370   21.9701   46.2466 H   0  0  0  0  0  0  0  0  0  0  0  0
   56.4732   20.2479   45.1499 H   0  0  0  0  0  0  0  0  0  0  0  0
   57.4606   20.6889   42.9004 H   0  0  0  0  0  0  0  0  0  0  0  0
   56.9925   22.8461   41.7335 H   0  0  0  0  0  0  0  0  0  0  0  0
   55.5619   24.5754   42.8250 H   0  0  0  0  0  0  0  0  0  0  0  0
   57.5508   25.5091   43.4311 H   0  0  0  0  0  0  0  0  0  0  0  0
   57.2390   33.0569   43.8763 H   0  0  0  0  0  0  0  0  0  0  0  0
   58.0470   35.3867   44.2058 H   0  0  0  0  0  0  0  0  0  0  0  0
  1  2  1  0
  2  3  1  0
  2  4  2  3
  4  5  1  0
  5  6  1  0
  6  7  2  0
  7  8  1  0
  8  9  1  0
  9 10  2  0
  9 11  1  0
 11 12  1  0
 12 13  2  0
 13 14  1  0
 14 15  1  0
 15 16  1  0
 16 17  2  0
 16 18  1  0
 18 19  1  0
 19 20  1  0
 20 21  2  0
 21 22  1  0
 22 23  2  0
 23 24  1  0
 24 25  2  0
 14 26  2  0
 26 27  1  0
  8 28  2  0
 28 29  1  0
 29 30  2  0
 30 31  1  0
 30  6  1  0
 27 12  1  0
 25 20  1  0
  1 32  1  0
  1 33  1  0
  1 34  1  0
  3 35  1  0
  3 36  1  0
  3 37  1  0
  4 38  1  0
  5 39  1  0
  5 40  1  0
  7 41  1  0
 11 42  1  0
 15 43  1  0
 15 44  1  0
 19 45  1  0
 19 46  1  0
 21 47  1  0
 22 48  1  0
 23 49  1  0
 24 50  1  0
 25 51  1  0
 26 52  1  0
 28 53  1  0
 29 54  1  0
M  CHG  2  18  -1  31  -1
M  END
>  <UniqueID>  (33) 
31

>  <SMILES>  (33) 
CC(C)=CCc1cc(C(=O)Nc2nc(CC(=O)[N-]Cc3ccccc3)cs2)ccc1[O-]

>  <Energy>  (33) 
80.60310428672585

>  <Genealogy>  (33) 
CC(C)=CCc1cc(C(=O)Nc2nc(CC(=O)[N-]Cc3ccccc3)cs2)ccc1[O-] (protonated)
CC(C)=CCc1cc(C(=O)Nc2nc(CC(=O)[N-]Cc3ccccc3)cs2)ccc1[O-] (3D coordinates assigned)
CC(C)=CCc1cc(C(=O)Nc2nc(CC(=O)[N-]Cc3ccccc3)cs2)ccc1[O-] (optimized conformer: 80.60310428672585 kcal/mol)

>  <smiles>  (33) 
CC(C)=CCc1cc(C(=O)Nc2nc(CC(=O)NCc3ccccc3)cs2)ccc1O

>  <score_type>  (33) 
oracle

>  <origin>  (33) 
adg

>  <m_score__min__energy>  (33) 
-11.869999999999999

>  <m_primary>  (33) 
energy

$$$$
33:0
     RDKit          3D

 56 57  0  0  0  0  0  0  0  0999 V2000
   59.5890   35.1730   46.0500 C   0  0  0  0  0  0  0  0  0  0  0  0
   58.9600   34.9090   44.8990 C   0  0  0  0  0  0  0  0  0  0  0  0
   58.8850   33.5160   44.3300 C   0  0  0  0  0  0  0  0  0  0  0  0
   57.6090   32.7810   44.8000 C   0  0  1  0  0  0  0  0  0  0  0  0
   57.4960   31.4620   44.1600 N   0  0  0  0  0  0  0  0  0  0  0  0
   56.5750   30.3790   44.3940 C   0  0  0  0  0  0  0  0  0  0  0  0
   55.3540   30.6580   44.5300 O   0  0  0  0  0  0  0  0  0  0  0  0
   56.9890   28.9390   44.4800 C   0  0  0  0  0  0  0  0  0  0  0  0
   56.0120   28.1820   45.2500 N   0  0  0  0  0  0  0  0  0  0  0  0
   56.3060   26.9120   45.8320 C   0  0  0  0  0  0  0  0  0  0  0  0
   55.3740   26.1710   46.2470 O   0  0  0  0  0  0  0  0  0  0  0  0
   57.6370   26.4930   45.9060 O   0  0  0  0  0  0  0  0  0  0  0  0
   58.4280   26.5970   47.0880 C   0  0  0  0  0  0  0  0  0  0  0  0
   59.4020   27.7410   46.9710 C   0  0  0  0  0  0  0  0  0  0  0  0
   59.8340   28.1870   45.7090 C   0  0  0  0  0  0  0  0  0  0  0  0
   60.6870   29.2910   45.6050 C   0  0  0  0  0  0  0  0  0  0  0  0
   61.1150   29.9580   46.7590 C   0  0  0  0  0  0  0  0  0  0  0  0
   60.6920   29.5190   48.0190 C   0  0  0  0  0  0  0  0  0  0  0  0
   59.8420   28.4120   48.1280 C   0  0  0  0  0  0  0  0  0  0  0  0
   57.4760   32.6820   46.3070 C   0  0  0  0  0  0  0  0  0  0  0  0
   56.6960   33.4530   46.9250 O   0  0  0  0  0  0  0  0  0  0  0  0
   58.2420   31.6910   47.0800 C   0  0  0  0  0  0  0  0  0  0  0  0
   58.0730   30.4600   46.8760 O   0  0  0  0  0  0  0  0  0  0  0  0
   59.1580   32.1330   48.0410 O   0  0  0  0  0  0  0  0  0  0  0  0
   58.8350   32.3730   49.3800 C   0  0  0  0  0  0  0  0  0  0  0  0
   57.8160   31.8420   49.8990 O   0  0  0  0  0  0  0  0  0  0  0  0
   59.7030   33.2000   50.1660 N   0  0  0  0  0  0  0  0  0  0  0  0
   60.6490   34.1580   49.5960 C   0  0  0  0  0  0  0  0  0  0  0  0
   61.7250   33.4600   48.8040 C   0  0  0  0  0  0  0  0  0  0  0  0
   62.4850   32.4310   49.3890 C   0  0  0  0  0  0  0  0  0  0  0  0
   63.4910   31.7920   48.6560 C   0  0  0  0  0  0  0  0  0  0  0  0
   63.7440   32.1720   47.3350 C   0  0  0  0  0  0  0  0  0  0  0  0
   62.9920   33.1950   46.7460 C   0  0  0  0  0  0  0  0  0  0  0  0
   61.9860   33.8390   47.4770 C   0  0  0  0  0  0  0  0  0  0  0  0
   59.6231   36.2031   46.4345 H   0  0  0  0  0  0  0  0  0  0  0  0
   60.0721   34.3600   46.6118 H   0  0  0  0  0  0  0  0  0  0  0  0
   58.4827   35.7348   44.3510 H   0  0  0  0  0  0  0  0  0  0  0  0
   58.8778   33.5782   43.2318 H   0  0  0  0  0  0  0  0  0  0  0  0
   59.7596   32.9506   44.6841 H   0  0  0  0  0  0  0  0  0  0  0  0
   56.7631   33.4041   44.4740 H   0  0  0  0  0  0  0  0  0  0  0  0
   57.0571   28.5189   43.4656 H   0  0  0  0  0  0  0  0  0  0  0  0
   57.9675   28.8751   44.9784 H   0  0  0  0  0  0  0  0  0  0  0  0
   57.7684   26.7697   47.9512 H   0  0  0  0  0  0  0  0  0  0  0  0
   58.9914   25.6619   47.2231 H   0  0  0  0  0  0  0  0  0  0  0  0
   59.4998   27.6656   44.7999 H   0  0  0  0  0  0  0  0  0  0  0  0
   61.0218   29.6353   44.6154 H   0  0  0  0  0  0  0  0  0  0  0  0
   61.7839   30.8273   46.6756 H   0  0  0  0  0  0  0  0  0  0  0  0
   61.0280   30.0447   48.9250 H   0  0  0  0  0  0  0  0  0  0  0  0
   59.5170   28.0655   49.1201 H   0  0  0  0  0  0  0  0  0  0  0  0
   60.1055   34.8468   48.9326 H   0  0  0  0  0  0  0  0  0  0  0  0
   61.1262   34.7075   50.4208 H   0  0  0  0  0  0  0  0  0  0  0  0
   62.2875   32.1273   50.4276 H   0  0  0  0  0  0  0  0  0  0  0  0
   64.0835   30.9896   49.1199 H   0  0  0  0  0  0  0  0  0  0  0  0
   64.5335   31.6675   46.7587 H   0  0  0  0  0  0  0  0  0  0  0  0
   63.1917   33.4939   45.7064 H   0  0  0  0  0  0  0  0  0  0  0  0
   61.3987   34.6438   47.0107 H   0  0  0  0  0  0  0  0  0  0  0  0
  1  2  2  0
  2  3  1  0
  3  4  1  0
  4  5  1  0
  5  6  1  0
  6  7  2  0
  6  8  1  0
  8  9  1  0
  9 10  1  0
 10 11  2  0
 10 12  1  0
 12 13  1  0
 13 14  1  0
 14 15  2  0
 15 16  1  0
 16 17  2  0
 17 18  1  0
 18 19  2  0
  4 20  1  0
 20 21  2  0
 20 22  1  0
 22 23  2  0
 22 24  1  0
 24 25  1  0
 25 26  2  0
 25 27  1  0
 27 28  1  0
 28 29  1  0
 29 30  2  0
 30 31  1  0
 31 32  2  0
 32 33  1  0
 33 34  2  0
 19 14  1  0
 34 29  1  0
  1 35  1  0
  1 36  1  0
  2 37  1  0
  3 38  1  0
  3 39  1  0
  4 40  1  6
  8 41  1  0
  8 42  1  0
 13 43  1  0
 13 44  1  0
 15 45  1  0
 16 46  1  0
 17 47  1  0
 18 48  1  0
 19 49  1  0
 28 50  1  0
 28 51  1  0
 30 52  1  0
 31 53  1  0
 32 54  1  0
 33 55  1  0
 34 56  1  0
M  CHG  3   5  -1   9  -1  27  -1
M  END
>  <UniqueID>  (34) 
32

>  <SMILES>  (34) 
C=CC[C@@H]([N-]C(=O)C[N-]C(=O)OCc1ccccc1)C(=O)C(=O)OC(=O)[N-]Cc1ccccc1

>  <Energy>  (34) 
48.90810106727454

>  <Genealogy>  (34) 
C=CCC([N-]C(=O)C[N-]C(=O)OCc1ccccc1)C(=O)C(=O)OC(=O)[N-]Cc1ccccc1 (protonated)
C=CC[C@@H]([N-]C(=O)C[N-]C(=O)OCc1ccccc1)C(=O)C(=O)OC(=O)[N-]Cc1ccccc1 (chirality)
C=CC[C@@H]([N-]C(=O)C[N-]C(=O)OCc1ccccc1)C(=O)C(=O)OC(=O)[N-]Cc1ccccc1 (3D coordinates assigned)
C=CC[C@@H]([N-]C(=O)C[N-]C(=O)OCc1ccccc1)C(=O)C(=O)OC(=O)[N-]Cc1ccccc1 (optimized conformer: 48.90810106727454 kcal/mol)

>  <smiles>  (34) 
C=CCC(NC(=O)CNC(=O)OCc1ccccc1)C(=O)C(=O)OC(=O)NCc1ccccc1

>  <score_type>  (34) 
oracle

>  <origin>  (34) 
adg

>  <m_score__min__energy>  (34) 
-12.859999999999999

>  <m_primary>  (34) 
energy

$$$$
34:0
     RDKit          3D

 41 43  0  0  0  0  0  0  0  0999 V2000
   56.5210   29.7090   52.3420 O   0  0  0  0  0  0  0  0  0  0  0  0
   57.1000   30.7630   52.7100 C   0  0  0  0  0  0  0  0  0  0  0  0
   57.0080   31.1530   54.0420 O   0  0  0  0  0  0  0  0  0  0  0  0
   57.8640   31.5810   51.7420 C   0  0  0  0  0  0  0  0  0  0  0  0
   58.3320   32.8570   52.1010 C   0  0  0  0  0  0  0  0  0  0  0  0
   59.0550   33.6270   51.1860 C   0  0  0  0  0  0  0  0  0  0  0  0
   59.3200   33.1370   49.9020 C   0  0  0  0  0  0  0  0  0  0  0  0
   60.2250   34.1250   48.7610 S   0  0  0  0  0  0  0  0  0  0  0  0
   59.4150   35.3040   48.3020 O   0  0  0  0  0  0  0  0  0  0  0  0
   61.4710   34.6280   49.4340 O   0  0  0  0  0  0  0  0  0  0  0  0
   60.6690   33.1680   47.3830 N   0  0  0  0  0  0  0  0  0  0  0  0
   59.7960   32.8250   46.2990 C   0  0  0  0  0  0  0  0  0  0  0  0
   59.4340   33.7550   45.3090 C   0  0  0  0  0  0  0  0  0  0  0  0
   58.5700   33.3810   44.2780 C   0  0  0  0  0  0  0  0  0  0  0  0
   58.0700   32.0790   44.2170 C   0  0  0  0  0  0  0  0  0  0  0  0
   58.4340   31.1330   45.1870 C   0  0  0  0  0  0  0  0  0  0  0  0
   57.8860   29.8050   45.1150 N   0  0  0  0  0  0  0  0  0  0  0  0
   58.3570   28.6970   45.9000 C   0  0  0  0  0  0  0  0  0  0  0  0
   59.5190   28.7220   46.3940 O   0  0  0  0  0  0  0  0  0  0  0  0
   57.5220   27.4840   46.0730 C   0  0  0  0  0  0  0  0  0  0  0  0
   58.0900   26.3190   46.6150 C   0  0  0  0  0  0  0  0  0  0  0  0
   57.3200   25.1640   46.7660 C   0  0  0  0  0  0  0  0  0  0  0  0
   55.9780   25.1830   46.3850 C   0  0  0  0  0  0  0  0  0  0  0  0
   55.2700   24.1490   46.5090 O   0  0  0  0  0  0  0  0  0  0  0  0
   55.4310   26.3210   45.8830 N   0  0  0  0  0  0  0  0  0  0  0  0
   56.1560   27.4620   45.7230 C   0  0  0  0  0  0  0  0  0  0  0  0
   55.5210   28.5990   45.2380 O   0  0  0  0  0  0  0  0  0  0  0  0
   59.2850   31.5220   46.2370 C   0  0  0  0  0  0  0  0  0  0  0  0
   58.8580   31.8670   49.5370 C   0  0  0  0  0  0  0  0  0  0  0  0
   58.1350   31.0940   50.4500 C   0  0  0  0  0  0  0  0  0  0  0  0
   58.1280   33.2514   53.1074 H   0  0  0  0  0  0  0  0  0  0  0  0
   59.4179   34.6239   51.4765 H   0  0  0  0  0  0  0  0  0  0  0  0
   59.8323   34.7797   45.3467 H   0  0  0  0  0  0  0  0  0  0  0  0
   58.2822   34.1150   43.5109 H   0  0  0  0  0  0  0  0  0  0  0  0
   57.3867   31.7932   43.4037 H   0  0  0  0  0  0  0  0  0  0  0  0
   57.1830   29.6070   44.3690 H   0  0  0  0  0  0  0  0  0  0  0  0
   59.1463   26.3167   46.9219 H   0  0  0  0  0  0  0  0  0  0  0  0
   57.7669   24.2486   47.1811 H   0  0  0  0  0  0  0  0  0  0  0  0
   59.5523   30.7952   47.0182 H   0  0  0  0  0  0  0  0  0  0  0  0
   59.0644   31.4765   48.5296 H   0  0  0  0  0  0  0  0  0  0  0  0
   57.7750   30.0970   50.1561 H   0  0  0  0  0  0  0  0  0  0  0  0
  1  2  2  0
  2  3  1  0
  2  4  1  0
  4  5  2  0
  5  6  1  0
  6  7  2  0
  7  8  1  0
  8  9  2  0
  8 10  2  0
  8 11  1  0
 11 12  1  0
 12 13  2  0
 13 14  1  0
 14 15  2  0
 15 16  1  0
 16 17  1  0
 17 18  1  0
 18 19  2  0
 18 20  1  0
 20 21  1  0
 21 22  2  0
 22 23  1  0
 23 24  2  0
 23 25  1  0
 25 26  1  0
 26 27  1  0
 16 28  2  0
  7 29  1  0
 29 30  2  0
 30  4  1  0
 28 12  1  0
 26 20  2  0
  5 31  1  0
  6 32  1  0
 13 33  1  0
 14 34  1  0
 15 35  1  0
 17 36  1  0
 21 37  1  0
 22 38  1  0
 28 39  1  0
 29 40  1  0
 30 41  1  0
M  CHG  4   3  -1  11  -1  25  -1  27  -1
M  END
>  <UniqueID>  (35) 
33

>  <SMILES>  (35) 
O=C([O-])c1ccc(S(=O)(=O)[N-]c2cccc(NC(=O)c3ccc(=O)[n-]c3[O-])c2)cc1

>  <Energy>  (35) 
56.181389427807574

>  <Genealogy>  (35) 
O=C([O-])c1ccc(S(=O)(=O)[N-]c2cccc(NC(=O)c3ccc(=O)[n-]c3[O-])c2)cc1 (protonated)
O=C([O-])c1ccc(S(=O)(=O)[N-]c2cccc(NC(=O)c3ccc(=O)[n-]c3[O-])c2)cc1 (3D coordinates assigned)
O=C([O-])c1ccc(S(=O)(=O)[N-]c2cccc(NC(=O)c3ccc(=O)[n-]c3[O-])c2)cc1 (optimized conformer: 56.181389427807574 kcal/mol)

>  <smiles>  (35) 
O=C(O)c1ccc(S(=O)(=O)Nc2cccc(NC(=O)c3ccc(=O)[nH]c3O)c2)cc1

>  <score_type>  (35) 
oracle

>  <origin>  (35) 
adg

>  <m_score__min__energy>  (35) 
-16.350000000000001

>  <m_primary>  (35) 
energy

$$$$
35:0
     RDKit          3D

 45 47  0  0  0  0  0  0  0  0999 V2000
   57.9319   32.6943   42.6882 H   0  0  0  0  0  0  0  0  0  0  0  0
   57.4820   31.8320   43.2020 C   0  0  0  0  0  0  0  0  0  0  0  0
   57.5600   31.7220   44.6010 C   0  0  0  0  0  0  0  0  0  0  0  0
   58.2460   32.7490   45.4300 C   0  0  0  0  0  0  0  0  0  0  0  0
   58.6870   33.9600   44.8740 C   0  0  0  0  0  0  0  0  0  0  0  0
   58.5466   34.1587   43.8012 H   0  0  0  0  0  0  0  0  0  0  0  0
   59.3030   34.9090   45.6860 C   0  0  0  0  0  0  0  0  0  0  0  0
   59.6469   35.8593   45.2515 H   0  0  0  0  0  0  0  0  0  0  0  0
   59.4820   34.6690   47.0110 N   0  0  0  0  0  0  0  0  0  0  0  0
   59.9470   35.4050   47.5900 H   0  0  0  0  0  0  0  0  0  0  0  0
   59.0820   33.5040   47.5960 C   0  0  0  0  0  0  0  0  0  0  0  0
   59.2870   33.3520   48.8790 N   0  0  0  0  0  0  0  0  0  0  0  0
   60.3720   33.8300   49.6900 C   0  0  0  0  0  0  0  0  0  0  0  0
   61.2430   34.6110   49.2230 O   0  0  0  0  0  0  0  0  0  0  0  0
   60.3770   33.5230   51.1490 C   0  0  0  0  0  0  0  0  0  0  0  0
   60.3617   34.4622   51.7214 H   0  0  0  0  0  0  0  0  0  0  0  0
   59.4885   32.9255   51.4010 H   0  0  0  0  0  0  0  0  0  0  0  0
   61.2845   32.9548   51.4010 H   0  0  0  0  0  0  0  0  0  0  0  0
   58.4330   32.5300   46.8060 C   0  0  0  0  0  0  0  0  0  0  0  0
   58.0733   31.5987   47.2679 H   0  0  0  0  0  0  0  0  0  0  0  0
   57.0050   30.6350   45.2090 N   0  0  0  0  0  0  0  0  0  0  0  0
   56.3660   29.6500   44.5240 C   0  0  0  0  0  0  0  0  0  0  0  0
   55.8710   28.6480   45.1940 N   0  0  0  0  0  0  0  0  0  0  0  0
   56.5960   27.4490   45.6180 C   0  0  0  0  0  0  0  0  0  0  0  0
   56.3299   27.2122   46.6587 H   0  0  0  0  0  0  0  0  0  0  0  0
   56.3206   26.6112   44.9606 H   0  0  0  0  0  0  0  0  0  0  0  0
   58.1180   27.6860   45.5220 C   0  0  0  0  0  0  0  0  0  0  0  0
   58.2767   28.3523   44.6613 H   0  0  0  0  0  0  0  0  0  0  0  0
   58.6650   28.3790   46.7930 C   0  0  0  0  0  0  0  0  0  0  0  0
   59.4736   29.0654   46.5015 H   0  0  0  0  0  0  0  0  0  0  0  0
   57.8318   28.9183   47.2673 H   0  0  0  0  0  0  0  0  0  0  0  0
   59.2170   27.3700   47.8170 C   0  0  0  0  0  0  0  0  0  0  0  0
   60.2893   27.2141   47.6279 H   0  0  0  0  0  0  0  0  0  0  0  0
   59.0616   27.7731   48.8286 H   0  0  0  0  0  0  0  0  0  0  0  0
   58.5440   26.1330   47.7140 O   0  0  0  0  0  0  0  0  0  0  0  0
   58.9160   25.4660   46.5180 C   0  0  0  0  0  0  0  0  0  0  0  0
   59.9363   25.0741   46.6417 H   0  0  0  0  0  0  0  0  0  0  0  0
   58.1776   24.6678   46.3516 H   0  0  0  0  0  0  0  0  0  0  0  0
   58.8900   26.3750   45.2660 C   0  0  0  0  0  0  0  0  0  0  0  0
   59.9243   26.6209   44.9836 H   0  0  0  0  0  0  0  0  0  0  0  0
   58.3774   25.8298   44.4598 H   0  0  0  0  0  0  0  0  0  0  0  0
   56.2660   29.7450   43.1220 C   0  0  0  0  0  0  0  0  0  0  0  0
   55.7480   28.9628   42.5477 H   0  0  0  0  0  0  0  0  0  0  0  0
   56.8300   30.8400   42.4700 C   0  0  0  0  0  0  0  0  0  0  0  0
   56.7607   30.9221   41.3753 H   0  0  0  0  0  0  0  0  0  0  0  0
  1  2  1  0
  2  3  2  0
  3  4  1  0
  4  5  1  0
  5  6  1  0
  5  7  2  0
  7  8  1  0
  7  9  1  0
  9 10  1  0
  9 11  1  0
 11 12  2  0
 12 13  1  0
 13 14  2  0
 13 15  1  0
 15 16  1  0
 15 17  1  0
 15 18  1  0
 11 19  1  0
 19 20  1  0
  3 21  1  0
 21 22  1  0
 22 23  2  0
 23 24  1  0
 24 25  1  0
 24 26  1  0
 24 27  1  0
 27 28  1  0
 27 29  1  0
 29 30  1  0
 29 31  1  0
 29 32  1  0
 32 33  1  0
 32 34  1  0
 32 35  1  0
 35 36  1  0
 36 37  1  0
 36 38  1  0
 36 39  1  0
 39 40  1  0
 39 41  1  0
 22 42  1  0
 42 43  1  0
 42 44  2  0
 44 45  1  0
 44  2  1  0
 19  4  2  0
 39 27  1  0
M  CHG  1  21  -1
M  END
>  <UniqueID>  (36) 
34

>  <SMILES>  (36) 
CC(=O)/N=c1\cc(-c2ccc/c(=N\CC3CCOCC3)[n-]2)cc[nH]1

>  <Energy>  (36) 
64.21598682979867

>  <Genealogy>  (36) 
CC(=O)N=c1cc(-c2cccc(=NCC3CCOCC3)[n-]2)cc[nH]1 (protonated)
CC(=O)/N=c1\cc(-c2ccc/c(=N\CC3CCOCC3)[n-]2)cc[nH]1 (cis-trans isomerization)
CC(=O)/N=c1\cc(-c2ccc/c(=N\CC3CCOCC3)[n-]2)cc[nH]1 (3D coordinates assigned)
CC(=O)/N=c1\cc(-c2ccc/c(=N\CC3CCOCC3)[n-]2)cc[nH]1 (nonaromatic ring conformer: 64.21598682979867 kcal/mol)

>  <smiles>  (36) 
CC(=O)N=c1cc(-c2cccc(=NCC3CCOCC3)[nH]2)cc[nH]1

>  <score_type>  (36) 
oracle

>  <origin>  (36) 
adg

>  <m_score__min__energy>  (36) 
-9.9199999999999999

>  <m_primary>  (36) 
energy

$$$$
36:0
     RDKit          3D

 48 51  0  0  0  0  0  0  0  0999 V2000
   58.8310   30.5010   45.7390 C   0  0  0  0  0  0  0  0  0  0  0  0
   59.2820   29.6110   46.6380 C   0  0  0  0  0  0  0  0  0  0  0  0
   58.7710   28.3250   46.8840 C   0  0  0  0  0  0  0  0  0  0  0  0
   57.8780   27.5810   46.2020 C   0  0  0  0  0  0  0  0  0  0  0  0
   57.3650   26.2670   46.6160 C   0  0  0  0  0  0  0  0  0  0  0  0
   58.1540   25.2620   47.0350 N   0  0  0  0  0  0  0  0  0  0  0  0
   57.2870   24.2420   47.2170 C   0  0  0  0  0  0  0  0  0  0  0  0
   57.6520   23.1100   47.6290 O   0  0  0  0  0  0  0  0  0  0  0  0
   56.0030   24.5270   46.9160 N   0  0  0  0  0  0  0  0  0  0  0  0
   56.0670   25.8080   46.5210 C   0  0  0  0  0  0  0  0  0  0  0  0
   54.9660   26.5230   46.0600 O   0  0  0  0  0  0  0  0  0  0  0  0
   59.3660   27.8900   48.0560 C   0  0  0  0  0  0  0  0  0  0  0  0
   60.2500   28.8730   48.4460 C   0  0  0  0  0  0  0  0  0  0  0  0
   61.0560   28.8260   49.7100 C   0  0  0  0  0  0  0  0  0  0  0  0
   60.2170   29.9110   47.5780 N   0  0  0  0  0  0  0  0  0  0  0  0
   60.9400   31.1500   47.7220 C   0  0  0  0  0  0  0  0  0  0  0  0
   62.2430   31.2480   47.2070 C   0  0  0  0  0  0  0  0  0  0  0  0
   62.9820   32.4220   47.3590 C   0  0  0  0  0  0  0  0  0  0  0  0
   62.4300   33.5120   48.0350 C   0  0  0  0  0  0  0  0  0  0  0  0
   61.1370   33.4300   48.5570 C   0  0  0  0  0  0  0  0  0  0  0  0
   60.3780   32.2610   48.3970 C   0  0  0  0  0  0  0  0  0  0  0  0
   59.0170   32.2250   48.9660 C   0  0  0  0  0  0  0  0  0  0  0  0
   58.0420   32.5090   48.2190 O   0  0  0  0  0  0  0  0  0  0  0  0
   58.7780   31.8100   50.3220 N   0  0  0  0  0  0  0  0  0  0  0  0
   57.4420   31.6810   50.8780 C   0  0  0  0  0  0  0  0  0  0  0  0
   57.6400   31.2230   52.3160 C   0  0  0  0  0  0  0  0  0  0  0  0
   59.0560   30.6560   52.3740 C   0  0  0  0  0  0  0  0  0  0  0  0
   59.8040   31.2990   51.2140 C   0  0  0  0  0  0  0  0  0  0  0  0
   59.3206   31.4812   45.6422 H   0  0  0  0  0  0  0  0  0  0  0  0
   57.9720   30.2497   45.0995 H   0  0  0  0  0  0  0  0  0  0  0  0
   57.5005   27.9922   45.2542 H   0  0  0  0  0  0  0  0  0  0  0  0
   54.0280   26.3040   46.3690 H   0  0  0  0  0  0  0  0  0  0  0  0
   59.1705   26.9409   48.5766 H   0  0  0  0  0  0  0  0  0  0  0  0
   60.3805   28.8654   50.5773 H   0  0  0  0  0  0  0  0  0  0  0  0
   61.6370   27.8924   49.7399 H   0  0  0  0  0  0  0  0  0  0  0  0
   61.7416   29.6857   49.7399 H   0  0  0  0  0  0  0  0  0  0  0  0
   62.6855   30.3907   46.6785 H   0  0  0  0  0  0  0  0  0  0  0  0
   63.9994   32.4887   46.9462 H   0  0  0  0  0  0  0  0  0  0  0  0
   63.0140   34.4362   48.1566 H   0  0  0  0  0  0  0  0  0  0  0  0
   60.7108   34.2881   49.0974 H   0  0  0  0  0  0  0  0  0  0  0  0
   56.9200   32.6489   50.8516 H   0  0  0  0  0  0  0  0  0  0  0  0
   56.8294   30.9696   50.3048 H   0  0  0  0  0  0  0  0  0  0  0  0
   57.5378   32.0725   53.0072 H   0  0  0  0  0  0  0  0  0  0  0  0
   56.8894   30.4755   52.6125 H   0  0  0  0  0  0  0  0  0  0  0  0
   59.5344   30.9154   53.3300 H   0  0  0  0  0  0  0  0  0  0  0  0
   59.0577   29.5585   52.3002 H   0  0  0  0  0  0  0  0  0  0  0  0
   60.4413   32.1193   51.5758 H   0  0  0  0  0  0  0  0  0  0  0  0
   60.4629   30.5794   50.7061 H   0  0  0  0  0  0  0  0  0  0  0  0
  1  2  2  0
  2  3  1  0
  3  4  2  3
  4  5  1  0
  5  6  1  0
  6  7  1  0
  7  8  2  0
  7  9  1  0
  9 10  1  0
 10 11  1  0
  3 12  1  0
 12 13  2  0
 13 14  1  0
 13 15  1  0
 15 16  1  0
 16 17  2  0
 17 18  1  0
 18 19  2  0
 19 20  1  0
 20 21  2  0
 21 22  1  0
 22 23  2  0
 22 24  1  0
 24 25  1  0
 25 26  1  0
 26 27  1  0
 27 28  1  0
 15  2  1  0
 21 16  1  0
 28 24  1  0
 10  5  2  0
  1 29  1  0
  1 30  1  0
  4 31  1  0
 11 32  1  0
 12 33  1  0
 14 34  1  0
 14 35  1  0
 14 36  1  0
 17 37  1  0
 18 38  1  0
 19 39  1  0
 20 40  1  0
 25 41  1  0
 25 42  1  0
 26 43  1  0
 26 44  1  0
 27 45  1  0
 27 46  1  0
 28 47  1  0
 28 48  1  0
M  CHG  2   6  -1   9  -1
M  END
>  <UniqueID>  (37) 
35

>  <SMILES>  (37) 
C=c1c(=Cc2[n-]c(=O)[n-]c2O)cc(C)n1-c1ccccc1C(=O)N1CCCC1

>  <Energy>  (37) 
129.89270931794567

>  <Genealogy>  (37) 
C=c1c(=Cc2[n-]c(=O)[n-]c2O)cc(C)n1-c1ccccc1C(=O)N1CCCC1 (protonated)
C=c1c(=Cc2[n-]c(=O)[n-]c2O)cc(C)n1-c1ccccc1C(=O)N1CCCC1 (3D coordinates assigned)
C=c1c(=Cc2[n-]c(=O)[n-]c2O)cc(C)n1-c1ccccc1C(=O)N1CCCC1 (nonaromatic ring conformer: 129.89270931794567 kcal/mol)

>  <smiles>  (37) 
C=c1c(=Cc2[nH]c(=O)[nH]c2O)cc(C)n1-c1ccccc1C(=O)N1CCCC1

>  <score_type>  (37) 
oracle

>  <origin>  (37) 
adg

>  <m_score__min__energy>  (37) 
-13.4

>  <m_primary>  (37) 
energy

$$$$
37:0
     RDKit          3D

 63 66  0  0  0  0  0  0  0  0999 V2000
   57.9500   32.4360   41.3190 C   0  0  0  0  0  0  0  0  0  0  0  0
   57.7480   31.6700   42.6200 C   0  0  0  0  0  0  0  0  0  0  0  0
   57.0180   30.4640   42.3840 O   0  0  0  0  0  0  0  0  0  0  0  0
   56.3870   29.7310   43.3960 C   0  0  0  0  0  0  0  0  0  0  0  0
   55.1310   29.6460   43.4250 O   0  0  0  0  0  0  0  0  0  0  0  0
   57.2130   29.0920   44.4400 C   0  0  0  0  0  0  0  0  0  0  0  0
   57.3870   29.7430   45.9830 S   0  0  0  0  0  0  0  0  0  0  0  0
   58.3660   28.5250   46.5820 C   0  0  0  0  0  0  0  0  0  0  0  0
   58.7960   28.4610   47.9460 N   0  0  0  0  0  0  0  0  0  0  0  0
   60.1600   28.3070   48.3540 C   0  0  0  0  0  0  0  0  0  0  0  0
   60.5410   27.1890   48.7940 O   0  0  0  0  0  0  0  0  0  0  0  0
   61.1380   29.4480   48.3110 C   0  0  0  0  0  0  0  0  0  0  0  0
   60.3830   30.9090   47.5160 S   0  0  0  0  0  0  0  0  0  0  0  0
   59.5910   31.5020   49.0280 C   0  0  0  0  0  0  0  0  0  0  0  0
   58.9380   30.5870   49.7920 N   0  0  0  0  0  0  0  0  0  0  0  0
   58.3810   30.9260   50.9830 C   0  0  0  0  0  0  0  0  0  0  0  0
   57.7190   29.9610   51.7560 C   0  0  0  0  0  0  0  0  0  0  0  0
   57.1550   30.3130   52.9850 C   0  0  0  0  0  0  0  0  0  0  0  0
   57.2530   31.6270   53.4510 C   0  0  0  0  0  0  0  0  0  0  0  0
   57.9110   32.5920   52.6890 C   0  0  0  0  0  0  0  0  0  0  0  0
   58.4760   32.2500   51.4450 C   0  0  0  0  0  0  0  0  0  0  0  0
   59.1260   33.1930   50.6350 C   0  0  0  0  0  0  0  0  0  0  0  0
   59.2220   34.3880   51.0330 O   0  0  0  0  0  0  0  0  0  0  0  0
   59.6580   32.8210   49.4220 N   0  0  0  0  0  0  0  0  0  0  0  0
   60.2320   33.8510   48.5260 C   0  0  0  0  0  0  0  0  0  0  0  0
   59.4020   33.9900   47.2740 C   0  0  0  0  0  0  0  0  0  0  0  0
   58.1030   33.4540   47.2240 C   0  0  0  0  0  0  0  0  0  0  0  0
   57.3380   33.5640   46.0580 C   0  0  0  0  0  0  0  0  0  0  0  0
   57.8680   34.1940   44.9300 C   0  0  0  0  0  0  0  0  0  0  0  0
   59.1580   34.7290   44.9720 C   0  0  0  0  0  0  0  0  0  0  0  0
   59.9210   34.6340   46.1380 C   0  0  0  0  0  0  0  0  0  0  0  0
   58.5540   27.5420   45.6020 C   0  0  0  0  0  0  0  0  0  0  0  0
   59.2650   26.2720   45.8520 C   0  0  0  0  0  0  0  0  0  0  0  0
   60.5190   26.2610   45.9970 O   0  0  0  0  0  0  0  0  0  0  0  0
   58.5390   25.0860   45.9710 O   0  0  0  0  0  0  0  0  0  0  0  0
   57.2870   25.0200   46.6420 C   0  0  0  0  0  0  0  0  0  0  0  0
   57.9410   27.8870   44.3710 C   0  0  0  0  0  0  0  0  0  0  0  0
   58.1050   27.0850   43.1090 C   0  0  0  0  0  0  0  0  0  0  0  0
   58.2245   33.4769   41.5452 H   0  0  0  0  0  0  0  0  0  0  0  0
   58.7541   31.9631   40.7361 H   0  0  0  0  0  0  0  0  0  0  0  0
   57.0172   32.4212   40.7361 H   0  0  0  0  0  0  0  0  0  0  0  0
   58.7297   31.4206   43.0491 H   0  0  0  0  0  0  0  0  0  0  0  0
   57.1772   32.2999   43.3182 H   0  0  0  0  0  0  0  0  0  0  0  0
   61.4360   29.7081   49.3374 H   0  0  0  0  0  0  0  0  0  0  0  0
   62.0178   29.1403   47.7268 H   0  0  0  0  0  0  0  0  0  0  0  0
   58.8830   29.5990   49.4550 H   0  0  0  0  0  0  0  0  0  0  0  0
   57.6436   28.9250   51.3941 H   0  0  0  0  0  0  0  0  0  0  0  0
   56.6329   29.5546   53.5868 H   0  0  0  0  0  0  0  0  0  0  0  0
   56.8105   31.9004   54.4202 H   0  0  0  0  0  0  0  0  0  0  0  0
   57.9890   33.6243   53.0610 H   0  0  0  0  0  0  0  0  0  0  0  0
   60.2550   34.8162   49.0532 H   0  0  0  0  0  0  0  0  0  0  0  0
   61.2506   33.5465   48.2435 H   0  0  0  0  0  0  0  0  0  0  0  0
   57.6863   32.9457   48.1061 H   0  0  0  0  0  0  0  0  0  0  0  0
   56.3178   33.1538   46.0296 H   0  0  0  0  0  0  0  0  0  0  0  0
   57.2705   34.2690   44.0095 H   0  0  0  0  0  0  0  0  0  0  0  0
   59.5741   35.2267   44.0837 H   0  0  0  0  0  0  0  0  0  0  0  0
   60.9326   35.0652   46.1672 H   0  0  0  0  0  0  0  0  0  0  0  0
   57.4529   25.0287   47.7294 H   0  0  0  0  0  0  0  0  0  0  0  0
   56.6725   25.8870   46.3578 H   0  0  0  0  0  0  0  0  0  0  0  0
   56.7671   24.0932   46.3578 H   0  0  0  0  0  0  0  0  0  0  0  0
   58.3193   26.0371   43.3658 H   0  0  0  0  0  0  0  0  0  0  0  0
   57.1779   27.1358   42.5192 H   0  0  0  0  0  0  0  0  0  0  0  0
   58.9378   27.4957   42.5192 H   0  0  0  0  0  0  0  0  0  0  0  0
  1  2  1  0
  2  3  1  0
  3  4  1  0
  4  5  2  0
  4  6  1  0
  6  7  1  0
  7  8  1  0
  8  9  1  0
  9 10  1  0
 10 11  2  0
 10 12  1  0
 12 13  1  0
 13 14  1  0
 14 15  2  0
 15 16  1  0
 16 17  2  0
 17 18  1  0
 18 19  2  0
 19 20  1  0
 20 21  2  0
 21 22  1  0
 22 23  2  0
 22 24  1  0
 24 25  1  0
 25 26  1  0
 26 27  2  0
 27 28  1  0
 28 29  2  0
 29 30  1  0
 30 31  2  0
  8 32  2  0
 32 33  1  0
 33 34  2  0
 33 35  1  0
 35 36  1  0
 32 37  1  0
 37 38  1  0
 37  6  2  0
 24 14  1  0
 31 26  1  0
 21 16  1  0
  1 39  1  0
  1 40  1  0
  1 41  1  0
  2 42  1  0
  2 43  1  0
 12 44  1  0
 12 45  1  0
 15 46  1  0
 17 47  1  0
 18 48  1  0
 19 49  1  0
 20 50  1  0
 25 51  1  0
 25 52  1  0
 27 53  1  0
 28 54  1  0
 29 55  1  0
 30 56  1  0
 31 57  1  0
 36 58  1  0
 36 59  1  0
 36 60  1  0
 38 61  1  0
 38 62  1  0
 38 63  1  0
M  CHG  2   9  -1  15   1
M  END
>  <UniqueID>  (38) 
36

>  <SMILES>  (38) 
CCOC(=O)c1sc([N-]C(=O)CSc2[nH+]c3ccccc3c(=O)n2Cc2ccccc2)c(C(=O)OC)c1C

>  <Energy>  (38) 
104.28968556477774

>  <Genealogy>  (38) 
CCOC(=O)c1sc([N-]C(=O)CSc2[nH+]c3ccccc3c(=O)n2Cc2ccccc2)c(C(=O)OC)c1C (protonated)
CCOC(=O)c1sc([N-]C(=O)CSc2[nH+]c3ccccc3c(=O)n2Cc2ccccc2)c(C(=O)OC)c1C (3D coordinates assigned)
CCOC(=O)c1sc([N-]C(=O)CSc2[nH+]c3ccccc3c(=O)n2Cc2ccccc2)c(C(=O)OC)c1C (optimized conformer: 104.28968556477774 kcal/mol)

>  <smiles>  (38) 
CCOC(=O)c1sc(NC(=O)CSc2nc3ccccc3c(=O)n2Cc2ccccc2)c(C(=O)OC)c1C

>  <score_type>  (38) 
oracle

>  <origin>  (38) 
adg

>  <m_score__min__energy>  (38) 
-8.7699999999999996

>  <m_primary>  (38) 
energy

$$$$
38:0
     RDKit          3D

 46 47  0  0  0  0  0  0  0  0999 V2000
   54.7560   25.1910   45.6220 C   0  0  0  0  0  0  0  0  0  0  0  0
   55.1410   26.5210   45.9580 O   0  0  0  0  0  0  0  0  0  0  0  0
   56.4630   26.9940   45.9560 C   0  0  0  0  0  0  0  0  0  0  0  0
   57.5380   26.1960   46.3990 C   0  0  0  0  0  0  0  0  0  0  0  0
   58.8330   26.7200   46.4470 C   0  0  0  0  0  0  0  0  0  0  0  0
   59.0690   28.0390   46.0550 C   0  0  0  0  0  0  0  0  0  0  0  0
   58.0140   28.8340   45.6040 C   0  0  0  0  0  0  0  0  0  0  0  0
   56.7160   28.3160   45.5300 C   0  0  0  0  0  0  0  0  0  0  0  0
   55.6940   29.1430   45.0530 O   0  0  0  0  0  0  0  0  0  0  0  0
   55.6970   29.7010   43.7420 C   0  0  0  0  0  0  0  0  0  0  0  0
   56.6400   30.9010   43.7020 C   0  0  0  0  0  0  0  0  0  0  0  0
   56.7410   31.5380   45.0090 N   0  0  0  0  0  0  0  0  0  0  0  0
   57.3290   32.8240   45.2300 C   0  0  0  0  0  0  0  0  0  0  0  0
   57.0040   33.7960   44.4970 O   0  0  0  0  0  0  0  0  0  0  0  0
   58.2780   33.0260   46.3490 C   0  0  0  0  0  0  0  0  0  0  0  0
   58.9980   34.2300   46.4650 C   0  0  0  0  0  0  0  0  0  0  0  0
   59.9470   34.3930   47.4770 C   0  0  0  0  0  0  0  0  0  0  0  0
   60.2030   33.3570   48.3890 C   0  0  0  0  0  0  0  0  0  0  0  0
   61.2590   33.5210   49.4520 C   0  0  0  0  0  0  0  0  0  0  0  0
   62.3840   34.2870   48.9130 N   0  0  0  0  0  0  0  0  0  0  0  0
   63.4430   33.2590   47.9950 S   0  0  0  0  0  0  0  0  0  0  0  0
   62.7630   31.6200   47.8310 C   0  0  0  0  0  0  0  0  0  0  0  0
   63.6700   33.8430   46.6290 O   0  0  0  0  0  0  0  0  0  0  0  0
   64.7600   33.1600   48.7120 O   0  0  0  0  0  0  0  0  0  0  0  0
   59.4510   32.1740   48.3070 C   0  0  0  0  0  0  0  0  0  0  0  0
   58.5080   32.0050   47.2880 C   0  0  0  0  0  0  0  0  0  0  0  0
   54.5889   24.6138   46.5434 H   0  0  0  0  0  0  0  0  0  0  0  0
   53.8282   25.2159   45.0316 H   0  0  0  0  0  0  0  0  0  0  0  0
   55.5536   24.7165   45.0316 H   0  0  0  0  0  0  0  0  0  0  0  0
   57.3566   25.1561   46.7083 H   0  0  0  0  0  0  0  0  0  0  0  0
   59.6671   26.0924   46.7940 H   0  0  0  0  0  0  0  0  0  0  0  0
   60.0874   28.4522   46.1016 H   0  0  0  0  0  0  0  0  0  0  0  0
   58.2042   29.8752   45.3046 H   0  0  0  0  0  0  0  0  0  0  0  0
   56.0376   28.9428   43.0215 H   0  0  0  0  0  0  0  0  0  0  0  0
   54.6793   30.0254   43.4792 H   0  0  0  0  0  0  0  0  0  0  0  0
   57.6389   30.5617   43.3904 H   0  0  0  0  0  0  0  0  0  0  0  0
   56.2384   31.6349   42.9878 H   0  0  0  0  0  0  0  0  0  0  0  0
   58.8120   35.0482   45.7537 H   0  0  0  0  0  0  0  0  0  0  0  0
   60.4984   35.3412   47.5600 H   0  0  0  0  0  0  0  0  0  0  0  0
   60.8315   34.0554   50.3132 H   0  0  0  0  0  0  0  0  0  0  0  0
   61.6122   32.5296   49.7719 H   0  0  0  0  0  0  0  0  0  0  0  0
   62.5865   31.1946   48.8299 H   0  0  0  0  0  0  0  0  0  0  0  0
   61.8118   31.6710   47.2809 H   0  0  0  0  0  0  0  0  0  0  0  0
   63.4710   30.9827   47.2809 H   0  0  0  0  0  0  0  0  0  0  0  0
   59.6044   31.3758   49.0482 H   0  0  0  0  0  0  0  0  0  0  0  0
   57.9411   31.0647   47.2206 H   0  0  0  0  0  0  0  0  0  0  0  0
  1  2  1  0
  2  3  1  0
  3  4  2  0
  4  5  1  0
  5  6  2  0
  6  7  1  0
  7  8  2  0
  8  9  1  0
  9 10  1  0
 10 11  1  0
 11 12  1  0
 12 13  1  0
 13 14  2  0
 13 15  1  0
 15 16  2  0
 16 17  1  0
 17 18  2  0
 18 19  1  0
 19 20  1  0
 20 21  1  0
 21 22  1  0
 21 23  2  0
 21 24  2  0
 18 25  1  0
 25 26  2  0
  8  3  1  0
 26 15  1  0
  1 27  1  0
  1 28  1  0
  1 29  1  0
  4 30  1  0
  5 31  1  0
  6 32  1  0
  7 33  1  0
 10 34  1  0
 10 35  1  0
 11 36  1  0
 11 37  1  0
 16 38  1  0
 17 39  1  0
 19 40  1  0
 19 41  1  0
 22 42  1  0
 22 43  1  0
 22 44  1  0
 25 45  1  0
 26 46  1  0
M  CHG  2  12  -1  20  -1
M  END
>  <UniqueID>  (39) 
37

>  <SMILES>  (39) 
COc1ccccc1OCC[N-]C(=O)c1ccc(C[N-]S(C)(=O)=O)cc1

>  <Energy>  (39) 
42.23206082290188

>  <Genealogy>  (39) 
COc1ccccc1OCC[N-]C(=O)c1ccc(C[N-]S(C)(=O)=O)cc1 (protonated)
COc1ccccc1OCC[N-]C(=O)c1ccc(C[N-]S(C)(=O)=O)cc1 (3D coordinates assigned)
COc1ccccc1OCC[N-]C(=O)c1ccc(C[N-]S(C)(=O)=O)cc1 (optimized conformer: 42.23206082290188 kcal/mol)

>  <smiles>  (39) 
COc1ccccc1OCCNC(=O)c1ccc(CNS(C)(=O)=O)cc1

>  <score_type>  (39) 
oracle

>  <origin>  (39) 
adg

>  <m_score__min__energy>  (39) 
-10.84

>  <m_primary>  (39) 
energy

$$$$
39:0
     RDKit          3D

 50 52  0  0  0  0  0  0  0  0999 V2000
   60.2040   29.9550   45.9850 C   0  0  0  0  0  0  0  0  0  0  0  0
   59.2770   30.8520   45.6240 C   0  0  0  0  0  0  0  0  0  0  0  0
   58.2250   30.6470   44.7280 C   0  0  0  0  0  0  0  0  0  0  0  0
   57.8780   29.4930   44.1280 C   0  0  0  0  0  0  0  0  0  0  0  0
   57.4430   28.2900   44.8670 C   0  0  0  0  0  0  0  0  0  0  0  0
   56.1010   28.1500   45.2480 C   0  0  0  0  0  0  0  0  0  0  0  0
   55.1600   29.1100   44.8800 O   0  0  0  0  0  0  0  0  0  0  0  0
   55.7070   27.0660   45.9700 N   0  0  0  0  0  0  0  0  0  0  0  0
   56.6000   26.1080   46.3360 C   0  0  0  0  0  0  0  0  0  0  0  0
   56.2200   25.1110   47.0050 O   0  0  0  0  0  0  0  0  0  0  0  0
   57.9040   26.2280   45.9860 N   0  0  0  0  0  0  0  0  0  0  0  0
   58.3470   27.2930   45.2690 C   0  0  0  0  0  0  0  0  0  0  0  0
   59.5720   27.3840   44.9910 O   0  0  0  0  0  0  0  0  0  0  0  0
   57.5550   31.8590   44.6260 C   0  0  0  0  0  0  0  0  0  0  0  0
   58.2080   32.7400   45.4670 C   0  0  0  0  0  0  0  0  0  0  0  0
   57.7900   34.1600   45.7090 C   0  0  0  0  0  0  0  0  0  0  0  0
   59.2410   32.1270   46.0810 N   0  0  0  0  0  0  0  0  0  0  0  0
   60.1450   32.7430   47.0150 C   0  0  0  0  0  0  0  0  0  0  0  0
   61.3530   33.2660   46.5290 C   0  0  0  0  0  0  0  0  0  0  0  0
   62.2870   33.8250   47.3990 C   0  0  0  0  0  0  0  0  0  0  0  0
   62.0280   33.8640   48.7690 C   0  0  0  0  0  0  0  0  0  0  0  0
   60.8250   33.3630   49.2700 C   0  0  0  0  0  0  0  0  0  0  0  0
   59.8610   32.8030   48.4070 C   0  0  0  0  0  0  0  0  0  0  0  0
   58.5810   32.3080   48.9830 C   0  0  0  0  0  0  0  0  0  0  0  0
   57.4840   32.7700   48.5610 O   0  0  0  0  0  0  0  0  0  0  0  0
   58.5770   31.3210   49.9760 O   0  0  0  0  0  0  0  0  0  0  0  0
   57.5640   31.2440   50.9770 C   0  0  0  0  0  0  0  0  0  0  0  0
   57.3830   29.9130   51.4100 O   0  0  0  0  0  0  0  0  0  0  0  0
   58.1950   29.6460   52.5380 C   0  0  0  0  0  0  0  0  0  0  0  0
   59.5970   29.2650   52.0720 C   0  0  0  0  0  0  0  0  0  0  0  0
   59.6010   28.9410   50.7070 O   0  0  0  0  0  0  0  0  0  0  0  0
   60.9888   30.2339   46.7035 H   0  0  0  0  0  0  0  0  0  0  0  0
   60.1804   28.9395   45.5629 H   0  0  0  0  0  0  0  0  0  0  0  0
   57.9206   29.4431   43.0300 H   0  0  0  0  0  0  0  0  0  0  0  0
   54.7030   26.9690   46.2430 H   0  0  0  0  0  0  0  0  0  0  0  0
   56.6773   32.0753   43.9992 H   0  0  0  0  0  0  0  0  0  0  0  0
   57.7351   34.3466   46.7917 H   0  0  0  0  0  0  0  0  0  0  0  0
   58.5258   34.8410   45.2564 H   0  0  0  0  0  0  0  0  0  0  0  0
   56.8026   34.3338   45.2564 H   0  0  0  0  0  0  0  0  0  0  0  0
   61.5649   33.2344   45.4501 H   0  0  0  0  0  0  0  0  0  0  0  0
   63.2285   34.2355   47.0053 H   0  0  0  0  0  0  0  0  0  0  0  0
   62.7734   34.2905   49.4564 H   0  0  0  0  0  0  0  0  0  0  0  0
   60.6269   33.4057   50.3512 H   0  0  0  0  0  0  0  0  0  0  0  0
   57.8586   31.8651   51.8358 H   0  0  0  0  0  0  0  0  0  0  0  0
   56.6179   31.6053   50.5476 H   0  0  0  0  0  0  0  0  0  0  0  0
   58.2498   30.5433   53.1719 H   0  0  0  0  0  0  0  0  0  0  0  0
   57.7611   28.8168   53.1161 H   0  0  0  0  0  0  0  0  0  0  0  0
   60.2760   30.1134   52.2426 H   0  0  0  0  0  0  0  0  0  0  0  0
   59.9296   28.3853   52.6426 H   0  0  0  0  0  0  0  0  0  0  0  0
   58.7300   29.2500   50.3350 H   0  0  0  0  0  0  0  0  0  0  0  0
  1  2  2  0
  2  3  1  0
  3  4  2  3
  4  5  1  0
  5  6  2  0
  6  7  1  0
  6  8  1  0
  8  9  1  0
  9 10  2  0
  9 11  1  0
 11 12  1  0
 12 13  2  0
  3 14  1  0
 14 15  2  0
 15 16  1  0
 15 17  1  0
 17 18  1  0
 18 19  2  0
 19 20  1  0
 20 21  2  0
 21 22  1  0
 22 23  2  0
 23 24  1  0
 24 25  2  0
 24 26  1  0
 26 27  1  0
 27 28  1  0
 28 29  1  0
 29 30  1  0
 30 31  1  0
 17  2  1  0
 23 18  1  0
 12  5  1  0
  1 32  1  0
  1 33  1  0
  4 34  1  0
  8 35  1  0
 14 36  1  0
 16 37  1  0
 16 38  1  0
 16 39  1  0
 19 40  1  0
 20 41  1  0
 21 42  1  0
 22 43  1  0
 27 44  1  0
 27 45  1  0
 29 46  1  0
 29 47  1  0
 30 48  1  0
 30 49  1  0
 31 50  1  0
M  CHG  2   7  -1  11  -1
M  END
>  <UniqueID>  (40) 
38

>  <SMILES>  (40) 
C=c1c(=Cc2c([O-])[nH]c(=O)[n-]c2=O)cc(C)n1-c1ccccc1C(=O)OCOCCO

>  <Energy>  (40) 
94.46492874961001

>  <Genealogy>  (40) 
C=c1c(=Cc2c([O-])[nH]c(=O)[n-]c2=O)cc(C)n1-c1ccccc1C(=O)OCOCCO (protonated)
C=c1c(=Cc2c([O-])[nH]c(=O)[n-]c2=O)cc(C)n1-c1ccccc1C(=O)OCOCCO (3D coordinates assigned)
C=c1c(=Cc2c([O-])[nH]c(=O)[n-]c2=O)cc(C)n1-c1ccccc1C(=O)OCOCCO (optimized conformer: 94.46492874961001 kcal/mol)

>  <smiles>  (40) 
C=c1c(=Cc2c(O)[nH]c(=O)[nH]c2=O)cc(C)n1-c1ccccc1C(=O)OCOCCO

>  <score_type>  (40) 
oracle

>  <origin>  (40) 
adg

>  <m_score__min__energy>  (40) 
-14.01

>  <m_primary>  (40) 
energy

$$$$
40:0
     RDKit          3D

 53 55  0  0  0  0  0  0  0  0999 V2000
   63.3900   33.8620   46.3980 C   0  0  0  0  0  0  0  0  0  0  0  0
   62.8800   34.1380   47.6980 O   0  0  0  0  0  0  0  0  0  0  0  0
   61.8510   33.3940   48.2790 C   0  0  0  0  0  0  0  0  0  0  0  0
   61.1330   33.8910   49.3220 N   0  0  0  0  0  0  0  0  0  0  0  0
   60.1340   33.1680   49.8860 C   0  0  0  0  0  0  0  0  0  0  0  0
   59.8300   31.8970   49.3990 C   0  0  0  0  0  0  0  0  0  0  0  0
   60.5750   31.3860   48.3200 C   0  0  0  0  0  0  0  0  0  0  0  0
   60.3090   30.0750   47.7580 N   0  0  0  0  0  0  0  0  0  0  0  0
   60.7430   29.7450   46.3930 C   0  0  0  0  0  0  0  0  0  0  0  0
   59.5200   29.4590   45.4970 C   0  0  0  0  0  0  0  0  0  0  0  0
   58.3130   29.0910   46.2800 N   0  0  0  0  0  0  0  0  0  0  0  0
   57.3080   28.4210   45.4280 C   0  0  0  0  0  0  0  0  0  0  0  0
   56.3160   29.4160   44.8760 C   0  0  0  0  0  0  0  0  0  0  0  0
   55.1480   29.0280   44.6080 O   0  0  0  0  0  0  0  0  0  0  0  0
   56.6810   30.7660   44.5550 N   0  0  0  0  0  0  0  0  0  0  0  0
   57.7220   31.1690   43.6160 C   0  0  0  0  0  0  0  0  0  0  0  0
   57.7430   32.6920   43.4660 C   0  0  0  0  0  0  0  0  0  0  0  0
   58.1830   33.3440   44.7470 C   0  0  0  0  0  0  0  0  0  0  0  0
   59.2560   34.2510   44.7460 C   0  0  0  0  0  0  0  0  0  0  0  0
   59.6470   34.8820   45.9310 C   0  0  0  0  0  0  0  0  0  0  0  0
   58.9630   34.6200   47.1220 C   0  0  0  0  0  0  0  0  0  0  0  0
   57.8860   33.7290   47.1290 C   0  0  0  0  0  0  0  0  0  0  0  0
   57.4930   33.0960   45.9450 C   0  0  0  0  0  0  0  0  0  0  0  0
   58.6740   28.2390   47.4300 C   0  0  0  0  0  0  0  0  0  0  0  0
   59.4720   29.0770   48.4520 C   0  0  1  0  0  0  0  0  0  0  0  0
   60.3390   28.1710   49.3340 C   0  0  0  0  0  0  0  0  0  0  0  0
   61.5660   32.1580   47.7940 N   0  0  0  0  0  0  0  0  0  0  0  0
   64.3543   33.3401   46.4856 H   0  0  0  0  0  0  0  0  0  0  0  0
   62.6774   33.2264   45.8519 H   0  0  0  0  0  0  0  0  0  0  0  0
   63.5324   34.8062   45.8519 H   0  0  0  0  0  0  0  0  0  0  0  0
   59.5627   33.5845   50.7287 H   0  0  0  0  0  0  0  0  0  0  0  0
   59.0213   31.3038   49.8508 H   0  0  0  0  0  0  0  0  0  0  0  0
   61.3076   30.5924   45.9768 H   0  0  0  0  0  0  0  0  0  0  0  0
   61.3795   28.8485   46.4267 H   0  0  0  0  0  0  0  0  0  0  0  0
   59.2964   30.3604   44.9075 H   0  0  0  0  0  0  0  0  0  0  0  0
   59.7720   28.6048   44.8514 H   0  0  0  0  0  0  0  0  0  0  0  0
   57.8203   27.9224   44.5920 H   0  0  0  0  0  0  0  0  0  0  0  0
   56.7637   27.6867   46.0400 H   0  0  0  0  0  0  0  0  0  0  0  0
   58.6989   30.8278   43.9892 H   0  0  0  0  0  0  0  0  0  0  0  0
   57.5135   30.7162   42.6354 H   0  0  0  0  0  0  0  0  0  0  0  0
   58.4419   32.9664   42.6621 H   0  0  0  0  0  0  0  0  0  0  0  0
   56.7277   33.0383   43.2224 H   0  0  0  0  0  0  0  0  0  0  0  0
   59.7908   34.4656   43.8090 H   0  0  0  0  0  0  0  0  0  0  0  0
   60.4931   35.5849   45.9262 H   0  0  0  0  0  0  0  0  0  0  0  0
   59.2726   35.1154   48.0541 H   0  0  0  0  0  0  0  0  0  0  0  0
   57.3471   33.5254   48.0661 H   0  0  0  0  0  0  0  0  0  0  0  0
   56.6402   32.4013   45.9523 H   0  0  0  0  0  0  0  0  0  0  0  0
   57.7591   27.8541   47.9042 H   0  0  0  0  0  0  0  0  0  0  0  0
   59.2879   27.3938   47.0854 H   0  0  0  0  0  0  0  0  0  0  0  0
   58.7575   29.6079   49.0982 H   0  0  0  0  0  0  0  0  0  0  0  0
   60.1338   28.3854   50.3932 H   0  0  0  0  0  0  0  0  0  0  0  0
   60.1037   27.1178   49.1208 H   0  0  0  0  0  0  0  0  0  0  0  0
   61.4015   28.3597   49.1208 H   0  0  0  0  0  0  0  0  0  0  0  0
  1  2  1  0
  2  3  1  0
  3  4  2  0
  4  5  1  0
  5  6  2  0
  6  7  1  0
  7  8  1  0
  8  9  1  0
  9 10  1  0
 10 11  1  0
 11 12  1  0
 12 13  1  0
 13 14  2  0
 13 15  1  0
 15 16  1  0
 16 17  1  0
 17 18  1  0
 18 19  2  0
 19 20  1  0
 20 21  2  0
 21 22  1  0
 22 23  2  0
 11 24  1  0
 24 25  1  0
 25 26  1  0
  7 27  2  0
 27  3  1  0
 25  8  1  0
 23 18  1  0
  1 28  1  0
  1 29  1  0
  1 30  1  0
  5 31  1  0
  6 32  1  0
  9 33  1  0
  9 34  1  0
 10 35  1  0
 10 36  1  0
 12 37  1  0
 12 38  1  0
 16 39  1  0
 16 40  1  0
 17 41  1  0
 17 42  1  0
 19 43  1  0
 20 44  1  0
 21 45  1  0
 22 46  1  0
 23 47  1  0
 24 48  1  0
 24 49  1  0
 25 50  1  1
 26 51  1  0
 26 52  1  0
 26 53  1  0
M  CHG  1  15  -1
M  END
>  <UniqueID>  (41) 
39

>  <SMILES>  (41) 
COc1nccc(N2CCN(CC(=O)[N-]CCc3ccccc3)C[C@H]2C)n1

>  <Energy>  (41) 
56.772242947379915

>  <Genealogy>  (41) 
COc1nccc(N2CCN(CC(=O)[N-]CCc3ccccc3)CC2C)n1 (protonated)
COc1nccc(N2CCN(CC(=O)[N-]CCc3ccccc3)C[C@H]2C)n1 (chirality)
COc1nccc(N2CCN(CC(=O)[N-]CCc3ccccc3)C[C@H]2C)n1 (3D coordinates assigned)
COc1nccc(N2CCN(CC(=O)[N-]CCc3ccccc3)C[C@H]2C)n1 (nonaromatic ring conformer: 56.772242947379915 kcal/mol)

>  <smiles>  (41) 
COc1nccc(N2CCN(CC(=O)NCCc3ccccc3)CC2C)n1

>  <score_type>  (41) 
oracle

>  <origin>  (41) 
adg

>  <m_score__min__energy>  (41) 
-9.5299999999999994

>  <m_primary>  (41) 
energy

$$$$
41:0
     RDKit          3D

 70 74  0  0  0  0  0  0  0  0999 V2000
   62.7030   33.7360   54.1410 C   0  0  0  0  0  0  0  0  0  0  0  0
   63.7890   33.4890   53.2560 O   0  0  0  0  0  0  0  0  0  0  0  0
   63.6740   33.4610   51.8560 C   0  0  0  0  0  0  0  0  0  0  0  0
   62.4450   33.8180   51.2830 C   0  0  0  0  0  0  0  0  0  0  0  0
   62.2760   33.8020   49.8940 C   0  0  0  0  0  0  0  0  0  0  0  0
   63.3410   33.4390   49.0570 C   0  0  0  0  0  0  0  0  0  0  0  0
   63.1140   33.3950   47.3120 S   0  0  0  0  0  0  0  0  0  0  0  0
   63.7720   34.5890   46.6750 O   0  0  0  0  0  0  0  0  0  0  0  0
   63.7520   32.1600   46.7390 O   0  0  0  0  0  0  0  0  0  0  0  0
   61.4190   33.4270   46.9520 N   0  0  0  0  0  0  0  0  0  0  0  0
   60.6420   34.6570   46.7790 C   0  0  0  0  0  0  0  0  0  0  0  0
   59.2560   34.1470   46.5110 C   0  0  0  0  0  0  0  0  0  0  0  0
   58.2630   34.8620   46.2340 O   0  0  0  0  0  0  0  0  0  0  0  0
   59.2650   32.6990   46.5440 C   0  0  0  0  0  0  0  0  0  0  0  0
   58.2440   31.7850   46.3070 C   0  0  0  0  0  0  0  0  0  0  0  0
   58.5530   30.4080   46.3330 C   0  0  0  0  0  0  0  0  0  0  0  0
   57.5450   29.4350   46.0280 N   0  0  0  0  0  0  0  0  0  0  0  0
   56.5930   29.5160   44.5790 S   0  0  0  0  0  0  0  0  0  0  0  0
   57.3950   28.5960   43.2810 C   0  0  0  0  0  0  0  0  0  0  0  0
   56.4760   30.9510   44.1500 O   0  0  0  0  0  0  0  0  0  0  0  0
   55.2170   28.9660   44.8300 O   0  0  0  0  0  0  0  0  0  0  0  0
   59.8850   29.9960   46.6030 C   0  0  0  0  0  0  0  0  0  0  0  0
   60.2340   28.6050   46.6220 N   0  0  0  0  0  0  0  0  0  0  0  0
   60.3960   27.9230   47.9100 C   0  0  0  0  0  0  0  0  0  0  0  0
   59.2580   26.9150   48.1230 C   0  0  0  0  0  0  0  0  0  0  0  0
   58.8470   26.1510   46.8280 C   0  0  0  0  0  0  0  0  0  0  0  0
   57.4130   26.5440   46.3840 C   0  0  0  0  0  0  0  0  0  0  0  0
   56.7770   25.4970   45.5050 C   0  0  0  0  0  0  0  0  0  0  0  0
   55.5510   24.9230   45.8840 C   0  0  0  0  0  0  0  0  0  0  0  0
   54.9540   23.9480   45.0810 C   0  0  0  0  0  0  0  0  0  0  0  0
   55.5780   23.5340   43.8980 C   0  0  0  0  0  0  0  0  0  0  0  0
   56.8030   24.0890   43.5180 C   0  0  0  0  0  0  0  0  0  0  0  0
   57.4020   25.0700   44.3170 C   0  0  0  0  0  0  0  0  0  0  0  0
   59.8870   26.3350   45.6920 C   0  0  0  0  0  0  0  0  0  0  0  0
   60.1280   27.8220   45.3860 C   0  0  0  0  0  0  0  0  0  0  0  0
   60.8840   30.9540   46.8600 C   0  0  0  0  0  0  0  0  0  0  0  0
   60.5480   32.3040   46.8080 C   0  0  0  0  0  0  0  0  0  0  0  0
   64.5720   33.0760   49.6210 C   0  0  0  0  0  0  0  0  0  0  0  0
   64.7430   33.0870   51.0110 C   0  0  0  0  0  0  0  0  0  0  0  0
   63.0522   33.6566   55.1811 H   0  0  0  0  0  0  0  0  0  0  0  0
   62.3077   34.7470   53.9631 H   0  0  0  0  0  0  0  0  0  0  0  0
   61.9093   32.9954   53.9631 H   0  0  0  0  0  0  0  0  0  0  0  0
   61.6065   34.1132   51.9309 H   0  0  0  0  0  0  0  0  0  0  0  0
   61.3042   34.0752   49.4571 H   0  0  0  0  0  0  0  0  0  0  0  0
   60.6674   35.2720   47.6907 H   0  0  0  0  0  0  0  0  0  0  0  0
   61.0280   35.3040   45.9775 H   0  0  0  0  0  0  0  0  0  0  0  0
   57.2186   32.1275   46.1038 H   0  0  0  0  0  0  0  0  0  0  0  0
   57.2180   28.7780   46.7730 H   0  0  0  0  0  0  0  0  0  0  0  0
   58.0565   27.8371   43.7243 H   0  0  0  0  0  0  0  0  0  0  0  0
   56.6348   28.1012   42.6587 H   0  0  0  0  0  0  0  0  0  0  0  0
   57.9888   29.2816   42.6587 H   0  0  0  0  0  0  0  0  0  0  0  0
   61.3590   27.3915   47.9211 H   0  0  0  0  0  0  0  0  0  0  0  0
   60.3698   28.6697   48.7173 H   0  0  0  0  0  0  0  0  0  0  0  0
   59.5824   26.1783   48.8726 H   0  0  0  0  0  0  0  0  0  0  0  0
   58.3782   27.4881   48.4510 H   0  0  0  0  0  0  0  0  0  0  0  0
   58.8345   25.0763   47.0620 H   0  0  0  0  0  0  0  0  0  0  0  0
   56.7900   26.6788   47.2805 H   0  0  0  0  0  0  0  0  0  0  0  0
   57.4852   27.4736   45.8003 H   0  0  0  0  0  0  0  0  0  0  0  0
   55.0604   25.2424   46.8153 H   0  0  0  0  0  0  0  0  0  0  0  0
   53.9922   23.5049   45.3787 H   0  0  0  0  0  0  0  0  0  0  0  0
   55.1026   22.7696   43.2658 H   0  0  0  0  0  0  0  0  0  0  0  0
   57.2956   23.7556   42.5927 H   0  0  0  0  0  0  0  0  0  0  0  0
   58.3646   25.5092   44.0160 H   0  0  0  0  0  0  0  0  0  0  0  0
   60.8375   25.8744   45.9992 H   0  0  0  0  0  0  0  0  0  0  0  0
   59.4953   25.8542   44.7835 H   0  0  0  0  0  0  0  0  0  0  0  0
   61.0623   27.9244   44.8146 H   0  0  0  0  0  0  0  0  0  0  0  0
   59.2753   28.2016   44.8039 H   0  0  0  0  0  0  0  0  0  0  0  0
   61.9116   30.6415   47.0976 H   0  0  0  0  0  0  0  0  0  0  0  0
   65.4074   32.7812   48.9689 H   0  0  0  0  0  0  0  0  0  0  0  0
   65.7126   32.8036   51.4463 H   0  0  0  0  0  0  0  0  0  0  0  0
  1  2  1  0
  2  3  1  0
  3  4  2  0
  4  5  1  0
  5  6  2  0
  6  7  1  0
  7  8  2  0
  7  9  2  0
  7 10  1  0
 10 11  1  0
 11 12  1  0
 12 13  2  0
 12 14  1  0
 14 15  2  0
 15 16  1  0
 16 17  1  0
 17 18  1  0
 18 19  1  0
 18 20  2  0
 18 21  2  0
 16 22  2  0
 22 23  1  0
 23 24  1  0
 24 25  1  0
 25 26  1  0
 26 27  1  0
 27 28  1  0
 28 29  2  0
 29 30  1  0
 30 31  2  0
 31 32  1  0
 32 33  2  0
 26 34  1  0
 34 35  1  0
 22 36  1  0
 36 37  2  0
  6 38  1  0
 38 39  2  0
 39  3  1  0
 37 10  1  0
 37 14  1  0
 35 23  1  0
 33 28  1  0
  1 40  1  0
  1 41  1  0
  1 42  1  0
  4 43  1  0
  5 44  1  0
 11 45  1  0
 11 46  1  0
 15 47  1  0
 17 48  1  0
 19 49  1  0
 19 50  1  0
 19 51  1  0
 24 52  1  0
 24 53  1  0
 25 54  1  0
 25 55  1  0
 26 56  1  0
 27 57  1  0
 27 58  1  0
 29 59  1  0
 30 60  1  0
 31 61  1  0
 32 62  1  0
 33 63  1  0
 34 64  1  0
 34 65  1  0
 35 66  1  0
 35 67  1  0
 36 68  1  0
 38 69  1  0
 39 70  1  0
M  END
>  <UniqueID>  (42) 
40

>  <SMILES>  (42) 
COc1ccc(S(=O)(=O)N2CC(=O)c3cc(NS(C)(=O)=O)c(N4CCC(Cc5ccccc5)CC4)cc32)cc1

>  <Energy>  (42) 
102.3383323777569

>  <Genealogy>  (42) 
COc1ccc(S(=O)(=O)N2CC(=O)c3cc(NS(C)(=O)=O)c(N4CCC(Cc5ccccc5)CC4)cc32)cc1 (3D coordinates assigned)
COc1ccc(S(=O)(=O)N2CC(=O)c3cc(NS(C)(=O)=O)c(N4CCC(Cc5ccccc5)CC4)cc32)cc1 (nonaromatic ring conformer: 102.3383323777569 kcal/mol)

>  <smiles>  (42) 
COc1ccc(S(=O)(=O)N2CC(=O)c3cc(NS(C)(=O)=O)c(N4CCC(Cc5ccccc5)CC4)cc32)cc1

>  <score_type>  (42) 
oracle

>  <origin>  (42) 
adg

>  <m_score__min__energy>  (42) 
-10.619999999999999

>  <m_primary>  (42) 
energy

$$$$
42:0
     RDKit          3D

 32 33  0  0  0  0  0  0  0  0999 V2000
   58.7576   32.6120   42.0075 H   0  0  0  0  0  0  0  0  0  0  0  0
   57.9800   32.3670   42.7460 C   0  0  0  0  0  0  0  0  0  0  0  0
   55.8930   29.6290   43.9410 C   0  0  0  0  0  0  0  0  0  0  0  0
   54.7150   29.4900   43.5140 O   0  0  0  0  0  0  0  0  0  0  0  0
   56.2430   29.1510   45.2470 N   0  0  0  0  0  0  0  0  0  0  0  0
   56.8910   28.0680   45.5810 C   0  0  0  0  0  0  0  0  0  0  0  0
   58.2490   28.1430   45.6450 N   0  0  0  0  0  0  0  0  0  0  0  0
   59.0270   27.0770   45.9710 C   0  0  0  0  0  0  0  0  0  0  0  0
   60.1210   27.1860   46.0066 H   0  0  0  0  0  0  0  0  0  0  0  0
   58.4410   25.8470   46.2600 C   0  0  0  0  0  0  0  0  0  0  0  0
   59.0663   24.9760   46.5056 H   0  0  0  0  0  0  0  0  0  0  0  0
   57.0520   25.7340   46.2340 C   0  0  0  0  0  0  0  0  0  0  0  0
   56.5770   24.7693   46.4658 H   0  0  0  0  0  0  0  0  0  0  0  0
   56.2600   26.8400   45.9150 C   0  0  0  0  0  0  0  0  0  0  0  0
   54.8790   26.7050   45.9900 O   0  0  0  0  0  0  0  0  0  0  0  0
   57.9500   33.0720   43.8870 C   0  0  0  0  0  0  0  0  0  0  0  0
   57.7050   34.1419   43.8149 H   0  0  0  0  0  0  0  0  0  0  0  0
   56.9710   30.0910   43.0470 C   0  0  0  0  0  0  0  0  0  0  0  0
   57.8082   29.3979   42.8777 H   0  0  0  0  0  0  0  0  0  0  0  0
   57.0280   31.2770   42.4200 C   0  0  0  0  0  0  0  0  0  0  0  0
   56.3141   31.4539   41.6020 H   0  0  0  0  0  0  0  0  0  0  0  0
   58.2200   32.5250   45.2330 C   0  0  0  0  0  0  0  0  0  0  0  0
   58.1750   33.3360   46.3780 C   0  0  0  0  0  0  0  0  0  0  0  0
   57.8948   34.3962   46.2911 H   0  0  0  0  0  0  0  0  0  0  0  0
   58.4860   32.7960   47.6260 C   0  0  0  0  0  0  0  0  0  0  0  0
   58.4344   33.4212   48.5296 H   0  0  0  0  0  0  0  0  0  0  0  0
   58.8630   31.4560   47.7180 C   0  0  0  0  0  0  0  0  0  0  0  0
   59.1050   31.0202   48.6986 H   0  0  0  0  0  0  0  0  0  0  0  0
   58.9320   30.6870   46.5980 N   0  0  0  0  0  0  0  0  0  0  0  0
   59.2260   29.6880   46.6810 H   0  0  0  0  0  0  0  0  0  0  0  0
   58.6320   31.1920   45.3680 C   0  0  0  0  0  0  0  0  0  0  0  0
   58.7135   30.5510   44.4778 H   0  0  0  0  0  0  0  0  0  0  0  0
  1  2  1  0
  2  3  1  0
  3  4  2  0
  3  5  1  0
  5  6  2  0
  6  7  1  0
  7  8  1  0
  8  9  1  0
  8 10  2  0
 10 11  1  0
 10 12  1  0
 12 13  1  0
 12 14  2  0
 14 15  1  0
  2 16  2  0
 16 17  1  0
 16 18  1  0
 18 19  1  0
 18 20  2  0
 20 21  1  0
 20 22  1  0
 22 23  2  0
 23 24  1  0
 23 25  1  0
 25 26  1  0
 25 27  2  0
 27 28  1  0
 27 29  1  0
 29 30  1  0
 29 31  2  0
 31 32  1  0
 14  6  1  0
 31 22  1  0
M  CHG  3   7  -1  15  -1  29   1
M  END
>  <UniqueID>  (43) 
41

>  <SMILES>  (43) 
O=C(C=C/C=C\c1ccc[nH+]c1)/N=c1/[n-]cccc1[O-]

>  <Energy>  (43) 
54.97216474925945

>  <Genealogy>  (43) 
O=C(C=CC=Cc1ccc[nH+]c1)N=c1[n-]cccc1[O-] (protonated)
O=C(C=C/C=C\c1ccc[nH+]c1)/N=c1/[n-]cccc1[O-] (cis-trans isomerization)
O=C(C=C/C=C\c1ccc[nH+]c1)/N=c1/[n-]cccc1[O-] (3D coordinates assigned)
O=C(C=C/C=C\c1ccc[nH+]c1)/N=c1/[n-]cccc1[O-] (optimized conformer: 54.97216474925945 kcal/mol)

>  <smiles>  (43) 
O=C(C=CC=Cc1cccnc1)N=c1[nH]cccc1O

>  <score_type>  (43) 
oracle

>  <origin>  (43) 
adg

>  <m_score__min__energy>  (43) 
-10.800000000000001

>  <m_primary>  (43) 
energy

$$$$
43:0
     RDKit          3D

 54 57  0  0  1  0  0  0  0  0999 V2000
   66.7490   32.7010   50.1620 C   0  0  0  0  0  0  0  0  0  0  0  0
   65.4950   33.1040   50.0230 C   0  0  0  0  0  0  0  0  0  0  0  0
   64.3670   32.1860   50.0950 C   0  0  0  0  0  0  0  0  0  0  0  0
   64.3120   31.1110   50.9550 C   0  0  0  0  0  0  0  0  0  0  0  0
   63.2620   30.2710   51.0090 N   0  0  0  0  0  0  0  0  0  0  0  0
   62.2360   30.5010   50.1870 C   0  0  0  0  0  0  0  0  0  0  0  0
   61.2190   29.7290   50.2040 N   0  0  0  0  0  0  0  0  0  0  0  0
   61.9440   33.7570   47.8770 C   0  0  0  0  0  0  0  0  0  0  0  0
   59.3990   30.4620   48.7140 C   0  0  0  0  0  0  0  0  0  0  0  0
   59.6070   28.0490   47.3310 C   0  0  0  0  0  0  0  0  0  0  0  0
   58.6620   29.0030   46.9400 C   0  0  0  0  0  0  0  0  0  0  0  0
   57.8210   28.6820   45.8120 C   0  0  0  0  0  0  0  0  0  0  0  0
   56.9660   27.7530   45.9750 O   0  0  0  0  0  0  0  0  0  0  0  0
   57.9190   29.3540   44.5630 N   0  0  0  0  0  0  0  0  0  0  0  0
   58.8820   30.4230   44.3300 C   0  0  0  0  0  0  0  0  0  0  0  0
   58.0540   31.6420   43.9470 C   0  0  0  0  0  0  0  0  0  0  0  0
   57.2410   31.3350   42.7950 N   0  0  0  0  0  0  0  0  0  0  0  0
   56.3450   30.2330   42.9890 C   0  0  0  0  0  0  0  0  0  0  0  0
   57.0440   28.9840   43.4680 C   0  0  0  0  0  0  0  0  0  0  0  0
   58.5770   30.1940   47.6420 C   0  0  0  0  0  0  0  0  0  0  0  0
   61.6930   33.7080   46.5140 C   0  0  0  0  0  0  0  0  0  0  0  0
   62.2320   31.5280   49.3300 N   0  0  0  0  0  0  0  0  0  0  0  0
   63.2720   32.3700   49.2680 C   0  0  0  0  0  0  0  0  0  0  0  0
   63.2210   33.3580   48.4140 N   0  0  0  0  0  0  0  0  0  0  0  0
   60.3300   29.5390   49.1090 C   0  0  0  0  0  0  0  0  0  0  0  0
   60.4320   28.3390   48.4200 C   0  0  0  0  0  0  0  0  0  0  0  0
   60.4650   34.0910   46.0120 C   0  0  0  0  0  0  0  0  0  0  0  0
   59.5020   34.5230   46.8990 C   0  0  0  0  0  0  0  0  0  0  0  0
   59.7240   34.5800   48.2530 C   0  0  0  0  0  0  0  0  0  0  0  0
   60.9630   34.1920   48.7460 C   0  0  0  0  0  0  0  0  0  0  0  0
   61.2280   34.2330   50.0750 F   0  0  0  0  0  0  0  0  0  0  0  0
   67.5709   33.4295   50.1004 H   0  0  0  0  0  0  0  0  0  0  0  0
   66.9686   31.6378   50.3391 H   0  0  0  0  0  0  0  0  0  0  0  0
   65.2984   34.1718   49.8466 H   0  0  0  0  0  0  0  0  0  0  0  0
   65.1640   30.9314   51.6272 H   0  0  0  0  0  0  0  0  0  0  0  0
   63.2240   29.4600   51.6620 H   0  0  0  0  0  0  0  0  0  0  0  0
   59.3077   31.4168   49.2525 H   0  0  0  0  0  0  0  0  0  0  0  0
   59.6983   27.0934   46.7939 H   0  0  0  0  0  0  0  0  0  0  0  0
   59.4616   30.6237   45.2431 H   0  0  0  0  0  0  0  0  0  0  0  0
   59.6037   30.1571   43.5436 H   0  0  0  0  0  0  0  0  0  0  0  0
   57.4041   31.9219   44.7892 H   0  0  0  0  0  0  0  0  0  0  0  0
   58.7267   32.4783   43.7059 H   0  0  0  0  0  0  0  0  0  0  0  0
   56.6550   32.1760   42.5990 H   0  0  0  0  0  0  0  0  0  0  0  0
   55.5908   30.5214   43.7360 H   0  0  0  0  0  0  0  0  0  0  0  0
   55.8895   30.0029   42.0145 H   0  0  0  0  0  0  0  0  0  0  0  0
   56.3016   28.2501   43.8147 H   0  0  0  0  0  0  0  0  0  0  0  0
   57.6245   28.5326   42.6499 H   0  0  0  0  0  0  0  0  0  0  0  0
   57.8340   30.9450   47.3354 H   0  0  0  0  0  0  0  0  0  0  0  0
   62.4789   33.3611   45.8269 H   0  0  0  0  0  0  0  0  0  0  0  0
   61.4140   31.6780   48.7010 H   0  0  0  0  0  0  0  0  0  0  0  0
   61.1803   27.5985   48.7390 H   0  0  0  0  0  0  0  0  0  0  0  0
   60.2603   34.0524   44.9319 H   0  0  0  0  0  0  0  0  0  0  0  0
   58.5215   34.8329   46.5084 H   0  0  0  0  0  0  0  0  0  0  0  0
   58.9341   34.9270   48.9353 H   0  0  0  0  0  0  0  0  0  0  0  0
  1  2  2  0
  2  3  1  0
  3  4  2  0
  4  5  1  0
  5  6  1  0
  6  7  2  0
  7  8  1  0
  8  9  2  0
  9 10  1  0
 10 11  2  0
 11 12  1  0
 12 13  2  0
 12 14  1  0
 14 15  1  0
 15 16  1  0
 16 17  1  0
 17 18  1  0
 18 19  1  0
 11 20  1  0
 20 21  2  0
  6 22  1  0
 22 23  1  0
 23 24  2  0
 24 25  1  0
 25 26  2  0
 26 27  1  0
 27 28  2  0
 28 29  1  0
 29 30  2  0
 30 31  1  0
 23  3  1  0
 30 25  1  0
 21  8  1  0
 19 14  1  0
  1 32  1  0
  1 33  1  0
  2 34  1  0
  4 35  1  0
  5 36  1  0
  9 37  1  0
 10 38  1  0
 15 39  1  0
 15 40  1  0
 16 41  1  0
 16 42  1  0
 17 43  1  0
 18 44  1  0
 18 45  1  0
 19 46  1  0
 19 47  1  0
 20 48  1  0
 21 49  1  0
 22 50  1  0
 26 51  1  0
 27 52  1  0
 28 53  1  0
 29 54  1  0
M  END
>  <smiles>  (44) 
C=Cc1c[nH]c(=Nc2ccc(C(=O)N3CCNCC3)cc2)[nH]c1=Nc1ccccc1F

>  <score_type>  (44) 
oracle

>  <origin>  (44) 
adg

>  <m_score__min__energy>  (44) 
-9.2300000000000004

>  <m_primary>  (44) 
energy

$$$$
44:0
     RDKit          3D

 68 71  0  0  0  0  0  0  0  0999 V2000
   56.0830   25.6320   45.6770 C   0  0  0  0  0  0  0  0  0  0  0  0
   56.0250   27.0540   45.6520 O   0  0  0  0  0  0  0  0  0  0  0  0
   57.0920   27.8970   45.9970 C   0  0  0  0  0  0  0  0  0  0  0  0
   58.2090   27.4330   46.7200 C   0  0  0  0  0  0  0  0  0  0  0  0
   59.2500   28.3020   47.0490 C   0  0  0  0  0  0  0  0  0  0  0  0
   59.1920   29.6530   46.6720 C   0  0  0  0  0  0  0  0  0  0  0  0
   60.2860   30.5800   47.0230 C   0  0  0  0  0  0  0  0  0  0  0  0
   60.5390   31.7460   46.3880 N   0  0  0  0  0  0  0  0  0  0  0  0
   61.5800   32.2630   47.0170 N   0  0  0  0  0  0  0  0  0  0  0  0
   61.9360   31.4430   47.9910 N   0  0  0  0  0  0  0  0  0  0  0  0
   63.0100   31.7000   48.9370 C   0  0  0  0  0  0  0  0  0  0  0  0
   62.4470   32.0140   50.2960 C   0  0  0  0  0  0  0  0  0  0  0  0
   62.8970   33.0220   50.9070 O   0  0  0  0  0  0  0  0  0  0  0  0
   61.3970   31.2180   50.8950 N   0  0  0  0  0  0  0  0  0  0  0  0
   60.1030   31.8190   51.2510 C   0  0  0  0  0  0  0  0  0  0  0  0
   59.8930   33.1160   50.5250 C   0  0  0  0  0  0  0  0  0  0  0  0
   59.7100   34.1690   51.1930 O   0  0  0  0  0  0  0  0  0  0  0  0
   59.9510   33.1750   49.0920 N   0  0  0  0  0  0  0  0  0  0  0  0
   59.7970   34.4270   48.3500 C   0  0  0  0  0  0  0  0  0  0  0  0
   59.0090   34.2030   47.0870 C   0  0  0  0  0  0  0  0  0  0  0  0
   59.4840   34.6990   45.8600 C   0  0  0  0  0  0  0  0  0  0  0  0
   58.7500   34.4990   44.6850 C   0  0  0  0  0  0  0  0  0  0  0  0
   57.5430   33.7910   44.7260 C   0  0  0  0  0  0  0  0  0  0  0  0
   57.0710   33.2830   45.9410 C   0  0  0  0  0  0  0  0  0  0  0  0
   57.7990   33.4880   47.1180 C   0  0  0  0  0  0  0  0  0  0  0  0
   61.5810   29.8110   51.1320 C   0  0  0  0  0  0  0  0  0  0  0  0
   62.7740   29.3570   51.7180 C   0  0  0  0  0  0  0  0  0  0  0  0
   62.9610   27.9970   51.9970 C   0  0  0  0  0  0  0  0  0  0  0  0
   64.2490   27.5190   52.5990 C   0  0  0  0  0  0  0  0  0  0  0  0
   61.9590   27.0810   51.6500 C   0  0  0  0  0  0  0  0  0  0  0  0
   60.7790   27.5210   51.0410 C   0  0  0  0  0  0  0  0  0  0  0  0
   60.5840   28.8830   50.7650 C   0  0  0  0  0  0  0  0  0  0  0  0
   59.3150   29.3370   50.0960 C   0  0  0  0  0  0  0  0  0  0  0  0
   61.1580   30.3750   48.0250 N   0  0  0  0  0  0  0  0  0  0  0  0
   58.0820   30.1140   45.9440 C   0  0  0  0  0  0  0  0  0  0  0  0
   57.0330   29.2420   45.5990 C   0  0  0  0  0  0  0  0  0  0  0  0
   55.9140   29.6760   44.8680 O   0  0  0  0  0  0  0  0  0  0  0  0
   55.9260   29.9750   43.4750 C   0  0  0  0  0  0  0  0  0  0  0  0
   56.0972   25.2839   46.7204 H   0  0  0  0  0  0  0  0  0  0  0  0
   55.2009   25.2200   45.1650 H   0  0  0  0  0  0  0  0  0  0  0  0
   56.9957   25.2932   45.1650 H   0  0  0  0  0  0  0  0  0  0  0  0
   58.2607   26.3781   47.0273 H   0  0  0  0  0  0  0  0  0  0  0  0
   60.1206   27.9265   47.6067 H   0  0  0  0  0  0  0  0  0  0  0  0
   63.6519   30.8095   49.0074 H   0  0  0  0  0  0  0  0  0  0  0  0
   63.5966   32.5617   48.5857 H   0  0  0  0  0  0  0  0  0  0  0  0
   59.2963   31.1214   50.9814 H   0  0  0  0  0  0  0  0  0  0  0  0
   60.0955   32.0183   52.3328 H   0  0  0  0  0  0  0  0  0  0  0  0
   60.1690   32.3080   48.5500 H   0  0  0  0  0  0  0  0  0  0  0  0
   59.2691   35.1578   48.9803 H   0  0  0  0  0  0  0  0  0  0  0  0
   60.7948   34.8047   48.0822 H   0  0  0  0  0  0  0  0  0  0  0  0
   60.4371   35.2469   45.8233 H   0  0  0  0  0  0  0  0  0  0  0  0
   59.1215   34.8981   43.7296 H   0  0  0  0  0  0  0  0  0  0  0  0
   56.9657   33.6341   43.8029 H   0  0  0  0  0  0  0  0  0  0  0  0
   56.1257   32.7213   45.9710 H   0  0  0  0  0  0  0  0  0  0  0  0
   57.4232   33.0882   48.0713 H   0  0  0  0  0  0  0  0  0  0  0  0
   63.5697   30.0768   51.9604 H   0  0  0  0  0  0  0  0  0  0  0  0
   64.1736   27.5470   53.6961 H   0  0  0  0  0  0  0  0  0  0  0  0
   64.4465   26.4877   52.2712 H   0  0  0  0  0  0  0  0  0  0  0  0
   65.0715   28.1718   52.2712 H   0  0  0  0  0  0  0  0  0  0  0  0
   62.1011   26.0101   51.8576 H   0  0  0  0  0  0  0  0  0  0  0  0
   59.9976   26.7934   50.7763 H   0  0  0  0  0  0  0  0  0  0  0  0
   58.5716   29.6030   50.8619 H   0  0  0  0  0  0  0  0  0  0  0  0
   59.5254   30.2156   49.4685 H   0  0  0  0  0  0  0  0  0  0  0  0
   58.9203   28.5243   49.4685 H   0  0  0  0  0  0  0  0  0  0  0  0
   58.0325   31.1700   45.6400 H   0  0  0  0  0  0  0  0  0  0  0  0
   55.9697   31.0651   43.3343 H   0  0  0  0  0  0  0  0  0  0  0  0
   56.8062   29.5094   43.0076 H   0  0  0  0  0  0  0  0  0  0  0  0
   55.0113   29.5814   43.0076 H   0  0  0  0  0  0  0  0  0  0  0  0
  1  2  1  0
  2  3  1  0
  3  4  2  0
  4  5  1  0
  5  6  2  0
  6  7  1  0
  7  8  1  0
  8  9  2  0
  9 10  1  0
 10 11  1  0
 11 12  1  0
 12 13  2  0
 12 14  1  0
 14 15  1  0
 15 16  1  0
 16 17  2  0
 16 18  1  0
 18 19  1  0
 19 20  1  0
 20 21  2  0
 21 22  1  0
 22 23  2  0
 23 24  1  0
 24 25  2  0
 14 26  1  0
 26 27  2  0
 27 28  1  0
 28 29  1  0
 28 30  2  0
 30 31  1  0
 31 32  2  0
 32 33  1  0
 10 34  1  0
  6 35  1  0
 35 36  2  0
 36 37  1  0
 37 38  1  0
 36  3  1  0
 34  7  2  0
 25 20  1  0
 32 26  1  0
  1 39  1  0
  1 40  1  0
  1 41  1  0
  4 42  1  0
  5 43  1  0
 11 44  1  0
 11 45  1  0
 15 46  1  0
 15 47  1  0
 18 48  1  0
 19 49  1  0
 19 50  1  0
 21 51  1  0
 22 52  1  0
 23 53  1  0
 24 54  1  0
 25 55  1  0
 27 56  1  0
 29 57  1  0
 29 58  1  0
 29 59  1  0
 30 60  1  0
 31 61  1  0
 33 62  1  0
 33 63  1  0
 33 64  1  0
 35 65  1  0
 38 66  1  0
 38 67  1  0
 38 68  1  0
M  END
>  <UniqueID>  (45) 
42

>  <SMILES>  (45) 
COc1ccc(-c2nnn(CC(=O)N(CC(=O)NCc3ccccc3)c3cc(C)ccc3C)n2)cc1OC

>  <Energy>  (45) 
99.8427794541918

>  <Genealogy>  (45) 
COc1ccc(-c2nnn(CC(=O)N(CC(=O)NCc3ccccc3)c3cc(C)ccc3C)n2)cc1OC (3D coordinates assigned)
COc1ccc(-c2nnn(CC(=O)N(CC(=O)NCc3ccccc3)c3cc(C)ccc3C)n2)cc1OC (optimized conformer: 99.8427794541918 kcal/mol)

>  <smiles>  (45) 
COc1ccc(-c2nnn(CC(=O)N(CC(=O)NCc3ccccc3)c3cc(C)ccc3C)n2)cc1OC

>  <score_type>  (45) 
oracle

>  <origin>  (45) 
adg

>  <m_score__min__energy>  (45) 
-9.3200000000000003

>  <m_primary>  (45) 
energy

$$$$
45:0
     RDKit          3D

 56 59  0  0  0  0  0  0  0  0999 V2000
   59.8319   35.6969   45.8229 H   0  0  0  0  0  0  0  0  0  0  0  0
   59.8150   34.6500   46.1600 C   0  0  0  0  0  0  0  0  0  0  0  0
   60.7700   34.2730   47.0260 C   0  0  0  0  0  0  0  0  0  0  0  0
   62.4090   33.8290   46.4360 S   0  0  0  0  0  0  0  0  0  0  0  0
   62.8040   33.3370   48.1150 C   0  0  0  0  0  0  0  0  0  0  0  0
   63.8850   32.7620   48.4050 O   0  0  0  0  0  0  0  0  0  0  0  0
   61.8240   33.6140   49.1030 N   0  0  0  0  0  0  0  0  0  0  0  0
   60.6760   34.1720   48.4880 C   0  0  0  0  0  0  0  0  0  0  0  0
   59.7130   34.6000   49.1760 O   0  0  0  0  0  0  0  0  0  0  0  0
   58.7470   33.7910   45.6200 C   0  0  0  0  0  0  0  0  0  0  0  0
   58.8690   32.9680   44.6050 O   0  0  0  0  0  0  0  0  0  0  0  0
   57.7060   32.4010   44.3780 C   0  0  0  0  0  0  0  0  0  0  0  0
   57.4950   31.4150   43.3020 C   0  0  0  0  0  0  0  0  0  0  0  0
   58.2022   31.3991   42.4596 H   0  0  0  0  0  0  0  0  0  0  0  0
   56.4830   30.5380   43.3020 C   0  0  0  0  0  0  0  0  0  0  0  0
   55.7698   30.5501   42.4647 H   0  0  0  0  0  0  0  0  0  0  0  0
   56.2910   29.5520   44.3910 C   0  0  0  0  0  0  0  0  0  0  0  0
   55.1390   29.3480   44.8560 O   0  0  0  0  0  0  0  0  0  0  0  0
   57.3930   28.8250   44.9510 N   0  0  0  0  0  0  0  0  0  0  0  0
   58.5760   28.3770   44.2210 C   0  0  0  0  0  0  0  0  0  0  0  0
   58.5066   27.2925   44.0504 H   0  0  0  0  0  0  0  0  0  0  0  0
   58.6236   28.9106   43.2602 H   0  0  0  0  0  0  0  0  0  0  0  0
   59.8480   28.6810   45.0190 C   0  0  0  0  0  0  0  0  0  0  0  0
   60.4135   27.7491   45.1666 H   0  0  0  0  0  0  0  0  0  0  0  0
   60.4531   29.4085   44.4581 H   0  0  0  0  0  0  0  0  0  0  0  0
   59.5040   29.2680   46.3600 C   0  0  0  0  0  0  0  0  0  0  0  0
   59.4800   30.6600   46.5410 C   0  0  0  0  0  0  0  0  0  0  0  0
   59.6867   31.3259   45.6902 H   0  0  0  0  0  0  0  0  0  0  0  0
   59.1950   31.2040   47.7960 C   0  0  0  0  0  0  0  0  0  0  0  0
   59.1737   32.2958   47.9286 H   0  0  0  0  0  0  0  0  0  0  0  0
   58.9360   30.3620   48.8870 C   0  0  0  0  0  0  0  0  0  0  0  0
   58.5720   31.0500   50.4720 S   0  0  0  0  0  0  0  0  0  0  0  0
   57.7640   32.3050   50.2930 O   0  0  0  0  0  0  0  0  0  0  0  0
   57.7410   30.0720   51.2550 O   0  0  0  0  0  0  0  0  0  0  0  0
   60.0240   31.4210   51.3690 N   0  0  0  0  0  0  0  0  0  0  0  0
   60.0920   32.8600   51.6690 C   0  0  0  0  0  0  0  0  0  0  0  0
   59.9388   33.4303   50.7409 H   0  0  0  0  0  0  0  0  0  0  0  0
   59.3091   33.1068   52.4012 H   0  0  0  0  0  0  0  0  0  0  0  0
   61.4660   33.2260   52.2680 C   0  0  0  0  0  0  0  0  0  0  0  0
   62.0341   33.8121   51.5307 H   0  0  0  0  0  0  0  0  0  0  0  0
   61.3014   33.8108   53.1850 H   0  0  0  0  0  0  0  0  0  0  0  0
   62.2040   32.0660   52.6030 O   0  0  0  0  0  0  0  0  0  0  0  0
   62.4880   31.3230   51.4300 C   0  0  0  0  0  0  0  0  0  0  0  0
   63.1742   31.9068   50.7989 H   0  0  0  0  0  0  0  0  0  0  0  0
   62.9394   30.3681   51.7374 H   0  0  0  0  0  0  0  0  0  0  0  0
   61.2160   31.0040   50.6170 C   0  0  0  0  0  0  0  0  0  0  0  0
   61.2504   31.5439   49.6592 H   0  0  0  0  0  0  0  0  0  0  0  0
   61.1668   29.9208   50.4317 H   0  0  0  0  0  0  0  0  0  0  0  0
   58.9740   28.9720   48.7130 C   0  0  0  0  0  0  0  0  0  0  0  0
   58.7771   28.3074   49.5671 H   0  0  0  0  0  0  0  0  0  0  0  0
   59.2610   28.4270   47.4590 C   0  0  0  0  0  0  0  0  0  0  0  0
   59.2969   27.3350   47.3316 H   0  0  0  0  0  0  0  0  0  0  0  0
   56.7700   32.8800   45.2810 C   0  0  0  0  0  0  0  0  0  0  0  0
   55.7088   32.5983   45.3490 H   0  0  0  0  0  0  0  0  0  0  0  0
   57.4440   33.7830   46.0770 C   0  0  0  0  0  0  0  0  0  0  0  0
   57.0286   34.3752   46.9057 H   0  0  0  0  0  0  0  0  0  0  0  0
  1  2  1  0
  2  3  2  3
  3  4  1  0
  4  5  1  0
  5  6  2  0
  5  7  1  0
  7  8  1  0
  8  9  2  0
  2 10  1  0
 10 11  1  0
 11 12  1  0
 12 13  1  0
 13 14  1  0
 13 15  2  0
 15 16  1  0
 15 17  1  0
 17 18  2  0
 17 19  1  0
 19 20  1  0
 20 21  1  0
 20 22  1  0
 20 23  1  0
 23 24  1  0
 23 25  1  0
 23 26  1  0
 26 27  2  0
 27 28  1  0
 27 29  1  0
 29 30  1  0
 29 31  2  0
 31 32  1  0
 32 33  2  0
 32 34  2  0
 32 35  1  0
 35 36  1  0
 36 37  1  0
 36 38  1  0
 36 39  1  0
 39 40  1  0
 39 41  1  0
 39 42  1  0
 42 43  1  0
 43 44  1  0
 43 45  1  0
 43 46  1  0
 46 47  1  0
 46 48  1  0
 31 49  1  0
 49 50  1  0
 49 51  2  0
 51 52  1  0
 12 53  2  0
 53 54  1  0
 53 55  1  0
 55 56  1  0
  8  3  1  0
 55 10  2  0
 51 26  1  0
 46 35  1  0
M  CHG  2   7  -1  19  -1
M  END
>  <UniqueID>  (46) 
43

>  <SMILES>  (46) 
O=C(/C=C/c1ccc(C=C2SC(=O)[N-]C2=O)o1)[N-]CCc1ccc(S(=O)(=O)N2CCOCC2)cc1

>  <Energy>  (46) 
110.57793351085209

>  <Genealogy>  (46) 
O=C(C=Cc1ccc(C=C2SC(=O)[N-]C2=O)o1)[N-]CCc1ccc(S(=O)(=O)N2CCOCC2)cc1 (protonated)
O=C(/C=C/c1ccc(C=C2SC(=O)[N-]C2=O)o1)[N-]CCc1ccc(S(=O)(=O)N2CCOCC2)cc1 (cis-trans isomerization)
O=C(/C=C/c1ccc(C=C2SC(=O)[N-]C2=O)o1)[N-]CCc1ccc(S(=O)(=O)N2CCOCC2)cc1 (3D coordinates assigned)
O=C(/C=C/c1ccc(C=C2SC(=O)[N-]C2=O)o1)[N-]CCc1ccc(S(=O)(=O)N2CCOCC2)cc1 (nonaromatic ring conformer: 110.57793351085209 kcal/mol)

>  <smiles>  (46) 
O=C(C=Cc1ccc(C=C2SC(=O)NC2=O)o1)NCCc1ccc(S(=O)(=O)N2CCOCC2)cc1

>  <score_type>  (46) 
oracle

>  <origin>  (46) 
adg

>  <m_score__min__energy>  (46) 
-14.84

>  <m_primary>  (46) 
energy

$$$$
46:0
     RDKit          3D

 43 45  0  0  0  0  0  0  0  0999 V2000
   57.3840   20.8580   43.5190 N   0  0  0  0  0  0  0  0  0  0  0  0
   57.0420   22.1090   43.7120 C   0  0  0  0  0  0  0  0  0  0  0  0
   55.8830   22.6550   43.2400 N   0  0  0  0  0  0  0  0  0  0  0  0
   55.8680   23.9280   43.6170 N   0  0  0  0  0  0  0  0  0  0  0  0
   56.9850   24.2190   44.3200 C   0  0  0  0  0  0  0  0  0  0  0  0
   57.3500   25.4890   44.8980 N   0  0  0  0  0  0  0  0  0  0  0  0
   58.3570   26.3400   44.3090 C   0  0  0  0  0  0  0  0  0  0  0  0
   59.2330   27.0200   45.3670 C   0  0  0  0  0  0  0  0  0  0  0  0
   58.5470   27.2950   46.5520 N   0  0  0  0  0  0  0  0  0  0  0  0
   58.3990   28.6470   46.8830 C   0  0  0  0  0  0  0  0  0  0  0  0
   57.8980   29.4380   45.7350 C   0  0  0  0  0  0  0  0  0  0  0  0
   58.5670   30.4740   45.1410 C   0  0  0  0  0  0  0  0  0  0  0  0
   57.9920   31.1660   44.0710 C   0  0  0  0  0  0  0  0  0  0  0  0
   56.7280   30.7990   43.6050 C   0  0  0  0  0  0  0  0  0  0  0  0
   56.0460   29.7470   44.2080 C   0  0  0  0  0  0  0  0  0  0  0  0
   54.7840   29.3450   43.7770 O   0  0  0  0  0  0  0  0  0  0  0  0
   56.6320   29.0830   45.2550 C   0  0  0  0  0  0  0  0  0  0  0  0
   57.6620   26.3380   47.0850 C   0  0  0  0  0  0  0  0  0  0  0  0
   56.6250   25.8510   46.1080 C   0  0  0  0  0  0  0  0  0  0  0  0
   57.7490   23.0770   44.3950 C   0  0  0  0  0  0  0  0  0  0  0  0
   59.0360   22.9000   45.0460 C   0  0  0  0  0  0  0  0  0  0  0  0
   59.8940   21.8320   44.6700 N   0  0  0  0  0  0  0  0  0  0  0  0
   59.4580   23.6680   45.9620 O   0  0  0  0  0  0  0  0  0  0  0  0
   57.7630   20.3710   44.3530 H   0  0  0  0  0  0  0  0  0  0  0  0
   55.1310   22.1910   42.6880 H   0  0  0  0  0  0  0  0  0  0  0  0
   55.1030   24.5870   43.3970 H   0  0  0  0  0  0  0  0  0  0  0  0
   58.9990   25.7297   43.6568 H   0  0  0  0  0  0  0  0  0  0  0  0
   57.8418   27.1282   43.7404 H   0  0  0  0  0  0  0  0  0  0  0  0
   60.0801   26.3575   45.5985 H   0  0  0  0  0  0  0  0  0  0  0  0
   59.5646   27.9820   44.9492 H   0  0  0  0  0  0  0  0  0  0  0  0
   57.6853   28.7346   47.7154 H   0  0  0  0  0  0  0  0  0  0  0  0
   59.3855   29.0413   47.1680 H   0  0  0  0  0  0  0  0  0  0  0  0
   59.5628   30.7637   45.5077 H   0  0  0  0  0  0  0  0  0  0  0  0
   58.5341   31.9977   43.5973 H   0  0  0  0  0  0  0  0  0  0  0  0
   56.2724   31.3405   42.7629 H   0  0  0  0  0  0  0  0  0  0  0  0
   54.6980   28.9620   42.8220 H   0  0  0  0  0  0  0  0  0  0  0  0
   56.0932   28.2498   45.7299 H   0  0  0  0  0  0  0  0  0  0  0  0
   58.2511   25.4730   47.4238 H   0  0  0  0  0  0  0  0  0  0  0  0
   57.1194   26.8291   47.9062 H   0  0  0  0  0  0  0  0  0  0  0  0
   56.0989   24.9747   46.5146 H   0  0  0  0  0  0  0  0  0  0  0  0
   55.8675   26.6229   45.9073 H   0  0  0  0  0  0  0  0  0  0  0  0
   60.7670   22.1200   44.1340 H   0  0  0  0  0  0  0  0  0  0  0  0
   59.7070   20.8270   44.8890 H   0  0  0  0  0  0  0  0  0  0  0  0
  1  2  2  3
  2  3  1  0
  3  4  1  0
  4  5  1  0
  5  6  1  0
  6  7  1  0
  7  8  1  0
  8  9  1  0
  9 10  1  0
 10 11  1  0
 11 12  2  0
 12 13  1  0
 13 14  2  0
 14 15  1  0
 15 16  1  0
 15 17  2  0
  9 18  1  0
 18 19  1  0
  5 20  2  0
 20 21  1  0
 21 22  1  0
 21 23  2  0
 20  2  1  0
 19  6  1  0
 17 11  1  0
  1 24  1  0
  3 25  1  0
  4 26  1  0
  7 27  1  0
  7 28  1  0
  8 29  1  0
  8 30  1  0
 10 31  1  0
 10 32  1  0
 12 33  1  0
 13 34  1  0
 14 35  1  0
 16 36  1  0
 17 37  1  0
 18 38  1  0
 18 39  1  0
 19 40  1  0
 19 41  1  0
 22 42  1  0
 22 43  1  0
M  END
>  <smiles>  (47) 
N=c1[nH][nH]c(N2CCN(Cc3cccc(O)c3)CC2)c1C(N)=O

>  <score_type>  (47) 
oracle

>  <origin>  (47) 
adg

>  <m_score__min__energy>  (47) 
-7.8300000000000001

>  <m_primary>  (47) 
energy

$$$$
47:0
     RDKit          3D

 65 68  0  0  0  0  0  0  0  0999 V2000
   59.1790   34.6480   45.4620 C   0  0  0  0  0  0  0  0  0  0  0  0
   59.1060   33.8950   46.5640 C   0  0  0  0  0  0  0  0  0  0  0  0
   60.0560   32.7570   46.8110 C   0  0  0  0  0  0  0  0  0  0  0  0
   59.5150   31.4730   46.2380 C   0  0  0  0  0  0  0  0  0  0  0  0
   60.3660   30.3800   46.0290 C   0  0  0  0  0  0  0  0  0  0  0  0
   59.8780   29.2050   45.4540 C   0  0  0  0  0  0  0  0  0  0  0  0
   58.5270   29.1070   45.0750 C   0  0  0  0  0  0  0  0  0  0  0  0
   58.0170   27.9520   44.4640 O   0  0  0  0  0  0  0  0  0  0  0  0
   57.1370   27.0450   45.0700 C   0  0  0  0  0  0  0  0  0  0  0  0
   56.0810   27.4580   45.6240 O   0  0  0  0  0  0  0  0  0  0  0  0
   57.4510   25.5960   45.0310 C   0  0  0  0  0  0  0  0  0  0  0  0
   57.0460   24.8460   43.9100 C   0  0  0  0  0  0  0  0  0  0  0  0
   57.3430   23.4870   43.8170 C   0  0  0  0  0  0  0  0  0  0  0  0
   58.0340   22.8500   44.8480 C   0  0  0  0  0  0  0  0  0  0  0  0
   58.4260   23.5700   45.9790 C   0  0  0  0  0  0  0  0  0  0  0  0
   58.1570   24.9480   46.0770 C   0  0  0  0  0  0  0  0  0  0  0  0
   58.5060   25.6730   47.2670 N   0  0  0  0  0  0  0  0  0  0  0  0
   59.6870   26.4610   47.4680 C   0  0  0  0  0  0  0  0  0  0  0  0
   60.7840   26.0320   47.0190 O   0  0  0  0  0  0  0  0  0  0  0  0
   59.6630   27.7320   48.2250 C   0  0  0  0  0  0  0  0  0  0  0  0
   60.7830   28.1230   48.9770 C   0  0  0  0  0  0  0  0  0  0  0  0
   60.7730   29.3280   49.6840 C   0  0  0  0  0  0  0  0  0  0  0  0
   59.6370   30.1480   49.6700 C   0  0  0  0  0  0  0  0  0  0  0  0
   59.6200   31.6560   50.5860 S   0  0  0  0  0  0  0  0  0  0  0  0
   58.7580   32.6580   49.8680 O   0  0  0  0  0  0  0  0  0  0  0  0
   61.0190   32.2070   50.6360 O   0  0  0  0  0  0  0  0  0  0  0  0
   59.0290   31.4410   52.2230 N   0  0  0  0  0  0  0  0  0  0  0  0
   59.1440   30.0430   52.6940 C   0  0  0  0  0  0  0  0  0  0  0  0
   57.8070   29.2870   52.6550 C   0  0  0  0  0  0  0  0  0  0  0  0
   56.9880   29.7870   51.6230 O   0  0  0  0  0  0  0  0  0  0  0  0
   56.5470   31.0890   51.9540 C   0  0  0  0  0  0  0  0  0  0  0  0
   57.6880   32.0230   52.4230 C   0  0  0  0  0  0  0  0  0  0  0  0
   58.5160   29.7580   48.9260 C   0  0  0  0  0  0  0  0  0  0  0  0
   58.5250   28.5570   48.2110 C   0  0  0  0  0  0  0  0  0  0  0  0
   57.6690   30.2010   45.2650 C   0  0  0  0  0  0  0  0  0  0  0  0
   56.3290   30.0710   44.8650 O   0  0  0  0  0  0  0  0  0  0  0  0
   55.8970   29.9500   43.5130 C   0  0  0  0  0  0  0  0  0  0  0  0
   58.1680   31.3820   45.8500 C   0  0  0  0  0  0  0  0  0  0  0  0
   58.4679   35.4737   45.3120 H   0  0  0  0  0  0  0  0  0  0  0  0
   59.9502   34.4420   44.7052 H   0  0  0  0  0  0  0  0  0  0  0  0
   58.3289   34.1144   47.3109 H   0  0  0  0  0  0  0  0  0  0  0  0
   61.0220   32.9845   46.3367 H   0  0  0  0  0  0  0  0  0  0  0  0
   60.1817   32.6326   47.8967 H   0  0  0  0  0  0  0  0  0  0  0  0
   61.4248   30.4479   46.3196 H   0  0  0  0  0  0  0  0  0  0  0  0
   60.5537   28.3514   45.2965 H   0  0  0  0  0  0  0  0  0  0  0  0
   56.4892   25.3378   43.0988 H   0  0  0  0  0  0  0  0  0  0  0  0
   57.0321   22.9163   42.9295 H   0  0  0  0  0  0  0  0  0  0  0  0
   58.2706   21.7786   44.7701 H   0  0  0  0  0  0  0  0  0  0  0  0
   58.9488   23.0562   46.7991 H   0  0  0  0  0  0  0  0  0  0  0  0
   61.6728   27.4770   49.0095 H   0  0  0  0  0  0  0  0  0  0  0  0
   61.6619   29.6346   50.2548 H   0  0  0  0  0  0  0  0  0  0  0  0
   59.8648   29.5147   52.0526 H   0  0  0  0  0  0  0  0  0  0  0  0
   59.4751   30.0741   53.7425 H   0  0  0  0  0  0  0  0  0  0  0  0
   58.0001   28.2186   52.4785 H   0  0  0  0  0  0  0  0  0  0  0  0
   57.2917   29.4250   53.6170 H   0  0  0  0  0  0  0  0  0  0  0  0
   56.0751   31.5338   51.0655 H   0  0  0  0  0  0  0  0  0  0  0  0
   55.8425   30.9900   52.7930 H   0  0  0  0  0  0  0  0  0  0  0  0
   57.6262   32.9637   51.8562 H   0  0  0  0  0  0  0  0  0  0  0  0
   57.5575   32.1848   53.5032 H   0  0  0  0  0  0  0  0  0  0  0  0
   57.6235   30.4006   48.9043 H   0  0  0  0  0  0  0  0  0  0  0  0
   57.6376   28.2561   47.6348 H   0  0  0  0  0  0  0  0  0  0  0  0
   54.8380   29.6534   43.4916 H   0  0  0  0  0  0  0  0  0  0  0  0
   56.0175   30.9165   43.0017 H   0  0  0  0  0  0  0  0  0  0  0  0
   56.5020   29.1867   43.0017 H   0  0  0  0  0  0  0  0  0  0  0  0
   57.4970   32.2399   46.0041 H   0  0  0  0  0  0  0  0  0  0  0  0
  1  2  2  0
  2  3  1  0
  3  4  1  0
  4  5  2  0
  5  6  1  0
  6  7  2  0
  7  8  1  0
  8  9  1  0
  9 10  2  0
  9 11  1  0
 11 12  2  0
 12 13  1  0
 13 14  2  0
 14 15  1  0
 15 16  2  0
 16 17  1  0
 17 18  1  0
 18 19  2  0
 18 20  1  0
 20 21  2  0
 21 22  1  0
 22 23  2  0
 23 24  1  0
 24 25  2  0
 24 26  2  0
 24 27  1  0
 27 28  1  0
 28 29  1  0
 29 30  1  0
 30 31  1  0
 31 32  1  0
 23 33  1  0
 33 34  2  0
  7 35  1  0
 35 36  1  0
 36 37  1  0
 35 38  2  0
 38  4  1  0
 16 11  1  0
 34 20  1  0
 32 27  1  0
  1 39  1  0
  1 40  1  0
  2 41  1  0
  3 42  1  0
  3 43  1  0
  5 44  1  0
  6 45  1  0
 12 46  1  0
 13 47  1  0
 14 48  1  0
 15 49  1  0
 21 50  1  0
 22 51  1  0
 28 52  1  0
 28 53  1  0
 29 54  1  0
 29 55  1  0
 31 56  1  0
 31 57  1  0
 32 58  1  0
 32 59  1  0
 33 60  1  0
 34 61  1  0
 37 62  1  0
 37 63  1  0
 37 64  1  0
 38 65  1  0
M  CHG  1  17  -1
M  END
>  <UniqueID>  (48) 
44

>  <SMILES>  (48) 
C=CCc1ccc(OC(=O)c2ccccc2[N-]C(=O)c2ccc(S(=O)(=O)N3CCOCC3)cc2)c(OC)c1

>  <Energy>  (48) 
89.58779740809243

>  <Genealogy>  (48) 
C=CCc1ccc(OC(=O)c2ccccc2[N-]C(=O)c2ccc(S(=O)(=O)N3CCOCC3)cc2)c(OC)c1 (protonated)
C=CCc1ccc(OC(=O)c2ccccc2[N-]C(=O)c2ccc(S(=O)(=O)N3CCOCC3)cc2)c(OC)c1 (3D coordinates assigned)
C=CCc1ccc(OC(=O)c2ccccc2[N-]C(=O)c2ccc(S(=O)(=O)N3CCOCC3)cc2)c(OC)c1 (nonaromatic ring conformer: 89.58779740809243 kcal/mol)

>  <smiles>  (48) 
C=CCc1ccc(OC(=O)c2ccccc2NC(=O)c2ccc(S(=O)(=O)N3CCOCC3)cc2)c(OC)c1

>  <score_type>  (48) 
oracle

>  <origin>  (48) 
adg

>  <m_score__min__energy>  (48) 
-10.949999999999999

>  <m_primary>  (48) 
energy

$$$$
48:0
     RDKit          3D

 42 45  0  0  0  0  0  0  0  0999 V2000
   60.5510   33.1540   46.7500 C   0  0  0  0  0  0  0  0  0  0  0  0
   59.3270   33.4470   46.0070 N   0  0  0  0  0  0  0  0  0  0  0  0
   58.9800   34.6610   45.5320 C   0  0  0  0  0  0  0  0  0  0  0  0
   57.7660   34.5840   44.8810 C   0  0  0  0  0  0  0  0  0  0  0  0
   57.3540   33.2690   44.9650 C   0  0  0  0  0  0  0  0  0  0  0  0
   58.3360   32.5910   45.6650 C   0  0  0  0  0  0  0  0  0  0  0  0
   58.2880   31.1470   45.9770 C   0  0  0  0  0  0  0  0  0  0  0  0
   57.3900   30.3080   45.3970 N   0  0  0  0  0  0  0  0  0  0  0  0
   57.6900   29.1260   45.9520 C   0  0  0  0  0  0  0  0  0  0  0  0
   57.0780   27.8960   45.7250 C   0  0  0  0  0  0  0  0  0  0  0  0
   57.5690   26.7710   46.4200 C   0  0  0  0  0  0  0  0  0  0  0  0
   56.9280   25.5050   46.2120 N   0  0  0  0  0  0  0  0  0  0  0  0
   55.5280   25.2880   45.9980 C   0  0  0  0  0  0  0  0  0  0  0  0
   54.7190   26.2540   45.9750 O   0  0  0  0  0  0  0  0  0  0  0  0
   55.0220   23.8940   45.8050 C   0  0  0  0  0  0  0  0  0  0  0  0
   56.0640   23.0610   45.1070 C   0  0  0  0  0  0  0  0  0  0  0  0
   55.9300   22.7860   43.7340 C   0  0  0  0  0  0  0  0  0  0  0  0
   56.9050   22.0440   43.0630 C   0  0  0  0  0  0  0  0  0  0  0  0
   58.0260   21.5770   43.7510 C   0  0  0  0  0  0  0  0  0  0  0  0
   58.1790   21.8550   45.1120 C   0  0  0  0  0  0  0  0  0  0  0  0
   57.2050   22.6000   45.7940 C   0  0  0  0  0  0  0  0  0  0  0  0
   57.3720   22.8850   47.1500 O   0  0  0  0  0  0  0  0  0  0  0  0
   58.6350   26.9310   47.3490 C   0  0  0  0  0  0  0  0  0  0  0  0
   59.2260   28.1920   47.5500 C   0  0  0  0  0  0  0  0  0  0  0  0
   58.7220   29.2660   46.8250 C   0  0  0  0  0  0  0  0  0  0  0  0
   59.1240   30.5440   46.8640 N   0  0  0  0  0  0  0  0  0  0  0  0
   60.3453   33.2032   47.8295 H   0  0  0  0  0  0  0  0  0  0  0  0
   60.9054   32.1457   46.4899 H   0  0  0  0  0  0  0  0  0  0  0  0
   61.3235   33.8926   46.4899 H   0  0  0  0  0  0  0  0  0  0  0  0
   59.5772   35.5776   45.6468 H   0  0  0  0  0  0  0  0  0  0  0  0
   57.2303   35.4100   44.3903 H   0  0  0  0  0  0  0  0  0  0  0  0
   56.4261   32.8434   44.5553 H   0  0  0  0  0  0  0  0  0  0  0  0
   56.2356   27.8043   45.0236 H   0  0  0  0  0  0  0  0  0  0  0  0
   54.7965   23.4491   46.7854 H   0  0  0  0  0  0  0  0  0  0  0  0
   54.1104   23.9222   45.1901 H   0  0  0  0  0  0  0  0  0  0  0  0
   55.0520   23.1575   43.1853 H   0  0  0  0  0  0  0  0  0  0  0  0
   56.7891   21.8274   41.9908 H   0  0  0  0  0  0  0  0  0  0  0  0
   58.7901   20.9893   43.2212 H   0  0  0  0  0  0  0  0  0  0  0  0
   59.0656   21.4887   45.6502 H   0  0  0  0  0  0  0  0  0  0  0  0
   57.2650   23.8240   47.5130 H   0  0  0  0  0  0  0  0  0  0  0  0
   59.0002   26.0613   47.9149 H   0  0  0  0  0  0  0  0  0  0  0  0
   60.0586   28.3236   48.2568 H   0  0  0  0  0  0  0  0  0  0  0  0
  1  2  1  0
  2  3  1  0
  3  4  2  0
  4  5  1  0
  5  6  2  0
  6  7  1  0
  7  8  2  0
  8  9  1  0
  9 10  2  0
 10 11  1  0
 11 12  1  0
 12 13  1  0
 13 14  2  0
 13 15  1  0
 15 16  1  0
 16 17  2  0
 17 18  1  0
 18 19  2  0
 19 20  1  0
 20 21  2  0
 21 22  1  0
 11 23  2  0
 23 24  1  0
 24 25  2  0
 25 26  1  0
  6  2  1  0
 26  7  1  0
 25  9  1  0
 21 16  1  0
  1 27  1  0
  1 28  1  0
  1 29  1  0
  3 30  1  0
  4 31  1  0
  5 32  1  0
 10 33  1  0
 15 34  1  0
 15 35  1  0
 17 36  1  0
 18 37  1  0
 19 38  1  0
 20 39  1  0
 22 40  1  0
 23 41  1  0
 24 42  1  0
M  CHG  2  12  -1  26  -1
M  END
>  <UniqueID>  (49) 
45

>  <SMILES>  (49) 
Cn1cccc1-c1nc2cc([N-]C(=O)Cc3ccccc3O)ccc2[n-]1

>  <Energy>  (49) 
108.40507503657734

>  <Genealogy>  (49) 
Cn1cccc1-c1nc2cc([N-]C(=O)Cc3ccccc3O)ccc2[n-]1 (protonated)
Cn1cccc1-c1nc2cc([N-]C(=O)Cc3ccccc3O)ccc2[n-]1 (3D coordinates assigned)
Cn1cccc1-c1nc2cc([N-]C(=O)Cc3ccccc3O)ccc2[n-]1 (optimized conformer: 108.40507503657734 kcal/mol)

>  <smiles>  (49) 
Cn1cccc1-c1nc2cc(NC(=O)Cc3ccccc3O)ccc2[nH]1

>  <score_type>  (49) 
oracle

>  <origin>  (49) 
adg

>  <m_score__min__energy>  (49) 
-12.24

>  <m_primary>  (49) 
energy

$$$$
49:0
     RDKit          3D

 57 61  0  0  0  0  0  0  0  0999 V2000
   59.9100   25.7900   46.2520 O   0  0  0  0  0  0  0  0  0  0  0  0
   59.4320   26.9110   46.5760 C   0  0  0  0  0  0  0  0  0  0  0  0
   58.5300   27.5970   45.6900 N   0  0  0  0  0  0  0  0  0  0  0  0
   57.4420   28.1780   46.0260 N   0  0  0  0  0  0  0  0  0  0  0  0
   57.0400   29.4950   45.6230 C   0  0  0  0  0  0  0  0  0  0  0  0
   55.9350   29.8450   44.8570 C   0  0  0  0  0  0  0  0  0  0  0  0
   54.9330   28.9720   44.4530 O   0  0  0  0  0  0  0  0  0  0  0  0
   55.9650   31.1510   44.4970 N   0  0  0  0  0  0  0  0  0  0  0  0
   57.1210   31.6080   45.0200 C   0  0  0  0  0  0  0  0  0  0  0  0
   57.6360   32.8970   44.8970 C   0  0  0  0  0  0  0  0  0  0  0  0
   58.8890   33.1670   45.4780 C   0  0  0  0  0  0  0  0  0  0  0  0
   59.6030   32.1520   46.1610 C   0  0  0  0  0  0  0  0  0  0  0  0
   61.1810   32.5040   46.8670 S   0  0  0  0  0  0  0  0  0  0  0  0
   61.8640   33.5640   46.0480 O   0  0  0  0  0  0  0  0  0  0  0  0
   62.0290   31.2630   46.8230 O   0  0  0  0  0  0  0  0  0  0  0  0
   61.0450   33.0470   48.5210 N   0  0  0  0  0  0  0  0  0  0  0  0
   59.6320   33.2480   48.8850 C   0  0  0  0  0  0  0  0  0  0  0  0
   59.4880   33.4850   50.4020 C   0  0  0  0  0  0  0  0  0  0  0  0
   60.7440   33.7390   50.9990 O   0  0  0  0  0  0  0  0  0  0  0  0
   61.5710   32.5920   50.8880 C   0  0  0  0  0  0  0  0  0  0  0  0
   61.6720   32.0810   49.4350 C   0  0  0  0  0  0  0  0  0  0  0  0
   59.0540   30.8580   46.2710 C   0  0  0  0  0  0  0  0  0  0  0  0
   57.8100   30.6260   45.6880 C   0  0  0  0  0  0  0  0  0  0  0  0
   59.7410   27.4870   47.9060 C   0  0  0  0  0  0  0  0  0  0  0  0
   60.6960   26.8810   48.7420 C   0  0  0  0  0  0  0  0  0  0  0  0
   60.9900   27.4250   49.9960 C   0  0  0  0  0  0  0  0  0  0  0  0
   60.3390   28.5880   50.4430 C   0  0  0  0  0  0  0  0  0  0  0  0
   60.6510   29.1650   51.7720 C   0  0  0  0  0  0  0  0  0  0  0  0
   61.8410   29.4760   52.0550 O   0  0  0  0  0  0  0  0  0  0  0  0
   59.5960   29.3630   52.7300 N   0  0  0  0  0  0  0  0  0  0  0  0
   58.5460   30.1230   52.5980 C   0  0  0  0  0  0  0  0  0  0  0  0
   58.6100   31.4550   53.0230 C   0  0  0  0  0  0  0  0  0  0  0  0
   57.4870   32.2750   52.8890 C   0  0  0  0  0  0  0  0  0  0  0  0
   56.3150   31.7620   52.3320 C   0  0  0  0  0  0  0  0  0  0  0  0
   56.2830   30.4290   51.9180 C   0  0  0  0  0  0  0  0  0  0  0  0
   57.3870   29.6470   52.0570 N   0  0  0  0  0  0  0  0  0  0  0  0
   59.3860   29.1940   49.6060 C   0  0  0  0  0  0  0  0  0  0  0  0
   59.0910   28.6510   48.3520 C   0  0  0  0  0  0  0  0  0  0  0  0
   57.0795   33.6804   44.3616 H   0  0  0  0  0  0  0  0  0  0  0  0
   59.3184   34.1768   45.4009 H   0  0  0  0  0  0  0  0  0  0  0  0
   59.2407   34.1223   48.3442 H   0  0  0  0  0  0  0  0  0  0  0  0
   59.0650   32.3456   48.6128 H   0  0  0  0  0  0  0  0  0  0  0  0
   58.8291   34.3498   50.5695 H   0  0  0  0  0  0  0  0  0  0  0  0
   59.0611   32.5796   50.8581 H   0  0  0  0  0  0  0  0  0  0  0  0
   62.5799   32.8476   51.2440 H   0  0  0  0  0  0  0  0  0  0  0  0
   61.1211   31.7927   51.4953 H   0  0  0  0  0  0  0  0  0  0  0  0
   62.7310   31.9571   49.1646 H   0  0  0  0  0  0  0  0  0  0  0  0
   61.1524   31.1149   49.3535 H   0  0  0  0  0  0  0  0  0  0  0  0
   59.5908   30.0570   46.8003 H   0  0  0  0  0  0  0  0  0  0  0  0
   61.2159   25.9715   48.4065 H   0  0  0  0  0  0  0  0  0  0  0  0
   61.7380   26.9382   50.6391 H   0  0  0  0  0  0  0  0  0  0  0  0
   59.5379   31.8533   53.4594 H   0  0  0  0  0  0  0  0  0  0  0  0
   57.5266   33.3227   53.2218 H   0  0  0  0  0  0  0  0  0  0  0  0
   55.4263   32.4006   52.2203 H   0  0  0  0  0  0  0  0  0  0  0  0
   55.3648   30.0112   51.4794 H   0  0  0  0  0  0  0  0  0  0  0  0
   58.8673   30.1044   49.9410 H   0  0  0  0  0  0  0  0  0  0  0  0
   58.3438   29.1388   47.7087 H   0  0  0  0  0  0  0  0  0  0  0  0
  1  2  2  0
  2  3  1  0
  3  4  2  3
  4  5  1  0
  5  6  2  0
  6  7  1  0
  6  8  1  0
  8  9  1  0
  9 10  2  0
 10 11  1  0
 11 12  2  0
 12 13  1  0
 13 14  2  0
 13 15  2  0
 13 16  1  0
 16 17  1  0
 17 18  1  0
 18 19  1  0
 19 20  1  0
 20 21  1  0
 12 22  1  0
 22 23  2  0
  2 24  1  0
 24 25  2  0
 25 26  1  0
 26 27  2  0
 27 28  1  0
 28 29  2  0
 28 30  1  0
 30 31  2  3
 31 32  1  0
 32 33  2  0
 33 34  1  0
 34 35  2  0
 35 36  1  0
 27 37  1  0
 37 38  2  0
 23  5  1  0
 38 24  1  0
 23  9  1  0
 36 31  1  0
 21 16  1  0
 10 39  1  0
 11 40  1  0
 17 41  1  0
 17 42  1  0
 18 43  1  0
 18 44  1  0
 20 45  1  0
 20 46  1  0
 21 47  1  0
 21 48  1  0
 22 49  1  0
 25 50  1  0
 26 51  1  0
 32 52  1  0
 33 53  1  0
 34 54  1  0
 35 55  1  0
 37 56  1  0
 38 57  1  0
M  CHG  3   7  -1   8  -1  36  -1
M  END
>  <UniqueID>  (50) 
46

>  <SMILES>  (50) 
O=C(N=Nc1c([O-])[n-]c2ccc(S(=O)(=O)N3CCOCC3)cc12)c1ccc(C(=O)N=c2cccc[n-]2)cc1

>  <Energy>  (50) 
120.49190626154713

>  <Genealogy>  (50) 
O=C(N=Nc1c([O-])[n-]c2ccc(S(=O)(=O)N3CCOCC3)cc12)c1ccc(C(=O)N=c2cccc[n-]2)cc1 (protonated)
O=C(N=Nc1c([O-])[n-]c2ccc(S(=O)(=O)N3CCOCC3)cc12)c1ccc(C(=O)N=c2cccc[n-]2)cc1 (3D coordinates assigned)
O=C(N=Nc1c([O-])[n-]c2ccc(S(=O)(=O)N3CCOCC3)cc12)c1ccc(C(=O)N=c2cccc[n-]2)cc1 (nonaromatic ring conformer: 120.49190626154713 kcal/mol)

>  <smiles>  (50) 
O=C(N=Nc1c(O)[nH]c2ccc(S(=O)(=O)N3CCOCC3)cc12)c1ccc(C(=O)N=c2cccc[nH]2)cc1

>  <score_type>  (50) 
oracle

>  <origin>  (50) 
adg

>  <m_score__min__energy>  (50) 
-15.1

>  <m_primary>  (50) 
energy

$$$$
50:0
     RDKit          3D

 44 47  0  0  0  0  0  0  0  0999 V2000
   50.4170   33.8550   51.6280 H   0  0  0  0  0  0  0  0  0  0  0  0
   50.7010   33.1090   52.2540 O   0  0  0  0  0  0  0  0  0  0  0  0
   51.4450   32.0170   51.8110 C   0  0  0  0  0  0  0  0  0  0  0  0
   52.2650   31.3370   52.7200 C   0  0  0  0  0  0  0  0  0  0  0  0
   52.3010   31.6604   53.7708 H   0  0  0  0  0  0  0  0  0  0  0  0
   53.0410   30.2460   52.3000 C   0  0  0  0  0  0  0  0  0  0  0  0
   53.8840   29.5340   53.2830 C   0  0  0  0  0  0  0  0  0  0  0  0
   53.5927   29.5993   54.3417 H   0  0  0  0  0  0  0  0  0  0  0  0
   54.9770   28.8140   52.9860 C   0  0  0  0  0  0  0  0  0  0  0  0
   54.8409   27.7382   52.8012 H   0  0  0  0  0  0  0  0  0  0  0  0
   56.3470   29.3530   52.8880 C   0  0  0  0  0  0  0  0  0  0  0  0
   57.1060   29.2740   53.8900 O   0  0  0  0  0  0  0  0  0  0  0  0
   56.7710   30.0600   51.7140 N   0  0  0  0  0  0  0  0  0  0  0  0
   57.4380   31.3290   51.6690 C   0  0  0  0  0  0  0  0  0  0  0  0
   57.3860   32.2380   52.7400 C   0  0  0  0  0  0  0  0  0  0  0  0
   56.7903   31.9994   53.6334 H   0  0  0  0  0  0  0  0  0  0  0  0
   58.0890   33.4440   52.6730 C   0  0  0  0  0  0  0  0  0  0  0  0
   58.0407   34.1543   53.5115 H   0  0  0  0  0  0  0  0  0  0  0  0
   58.8530   33.7500   51.5440 C   0  0  0  0  0  0  0  0  0  0  0  0
   59.4070   34.6992   51.4979 H   0  0  0  0  0  0  0  0  0  0  0  0
   58.9160   32.8510   50.4690 C   0  0  0  0  0  0  0  0  0  0  0  0
   59.7690   33.1590   49.3020 C   0  0  0  0  0  0  0  0  0  0  0  0
   61.1060   33.2930   49.5120 N   0  0  0  0  0  0  0  0  0  0  0  0
   61.9600   33.5290   48.5160 N   0  0  0  0  0  0  0  0  0  0  0  0
   61.5450   33.6490   47.2320 C   0  0  0  0  0  0  0  0  0  0  0  0
   62.3950   33.8630   46.3260 O   0  0  0  0  0  0  0  0  0  0  0  0
   60.1770   33.5390   46.9330 C   0  0  0  0  0  0  0  0  0  0  0  0
   59.7020   33.6740   45.6140 C   0  0  0  0  0  0  0  0  0  0  0  0
   60.4118   33.8432   44.7908 H   0  0  0  0  0  0  0  0  0  0  0  0
   58.3340   33.5940   45.3470 C   0  0  0  0  0  0  0  0  0  0  0  0
   57.9706   33.6915   44.3133 H   0  0  0  0  0  0  0  0  0  0  0  0
   57.4270   33.3910   46.3860 C   0  0  0  0  0  0  0  0  0  0  0  0
   56.3494   33.3409   46.1710 H   0  0  0  0  0  0  0  0  0  0  0  0
   57.8820   33.2510   47.6990 C   0  0  0  0  0  0  0  0  0  0  0  0
   57.1589   33.0998   48.5140 H   0  0  0  0  0  0  0  0  0  0  0  0
   59.2620   33.3020   47.9880 C   0  0  0  0  0  0  0  0  0  0  0  0
   58.2270   31.6300   50.5520 C   0  0  0  0  0  0  0  0  0  0  0  0
   58.3080   30.9025   49.7309 H   0  0  0  0  0  0  0  0  0  0  0  0
   52.9480   29.8060   50.9690 C   0  0  0  0  0  0  0  0  0  0  0  0
   53.5194   28.9247   50.6423 H   0  0  0  0  0  0  0  0  0  0  0  0
   52.1330   30.4830   50.0590 C   0  0  0  0  0  0  0  0  0  0  0  0
   52.0800   30.1456   49.0134 H   0  0  0  0  0  0  0  0  0  0  0  0
   51.3840   31.5890   50.4740 C   0  0  0  0  0  0  0  0  0  0  0  0
   50.5810   32.2550   49.5560 O   0  0  0  0  0  0  0  0  0  0  0  0
  1  2  1  0
  2  3  1  0
  3  4  2  0
  4  5  1  0
  4  6  1  0
  6  7  1  0
  7  8  1  0
  7  9  2  0
  9 10  1  0
  9 11  1  0
 11 12  2  0
 11 13  1  0
 13 14  1  0
 14 15  2  0
 15 16  1  0
 15 17  1  0
 17 18  1  0
 17 19  2  0
 19 20  1  0
 19 21  1  0
 21 22  1  0
 22 23  2  0
 23 24  1  0
 24 25  1  0
 25 26  2  0
 25 27  1  0
 27 28  2  0
 28 29  1  0
 28 30  1  0
 30 31  1  0
 30 32  2  0
 32 33  1  0
 32 34  1  0
 34 35  1  0
 34 36  2  0
 21 37  2  0
 37 38  1  0
  6 39  2  0
 39 40  1  0
 39 41  1  0
 41 42  1  0
 41 43  2  0
 43 44  1  0
 43  3  1  0
 37 14  1  0
 36 22  1  0
 36 27  1  0
M  CHG  3  13  -1  24  -1  44  -1
M  END
>  <UniqueID>  (51) 
47

>  <SMILES>  (51) 
O=C(/C=C\c1ccc([O-])c(O)c1)[N-]c1cccc(-c2n[n-]c(=O)c3ccccc23)c1

>  <Energy>  (51) 
73.07441886353367

>  <Genealogy>  (51) 
O=C(C=Cc1ccc([O-])c(O)c1)[N-]c1cccc(-c2n[n-]c(=O)c3ccccc23)c1 (protonated)
O=C(/C=C\c1ccc([O-])c(O)c1)[N-]c1cccc(-c2n[n-]c(=O)c3ccccc23)c1 (cis-trans isomerization)
O=C(/C=C\c1ccc([O-])c(O)c1)[N-]c1cccc(-c2n[n-]c(=O)c3ccccc23)c1 (3D coordinates assigned)
O=C(/C=C\c1ccc([O-])c(O)c1)[N-]c1cccc(-c2n[n-]c(=O)c3ccccc23)c1 (optimized conformer: 73.07441886353367 kcal/mol)

>  <smiles>  (51) 
O=C(C=Cc1ccc(O)c(O)c1)Nc1cccc(-c2n[nH]c(=O)c3ccccc23)c1

>  <score_type>  (51) 
oracle

>  <origin>  (51) 
adg

>  <m_score__min__energy>  (51) 
-16.140000000000001

>  <m_primary>  (51) 
energy

$$$$
51:0
     RDKit          3D

 46 49  0  0  0  0  0  0  0  0999 V2000
   57.0330   26.7430   47.0530 O   0  0  0  0  0  0  0  0  0  0  0  0
   57.7910   27.3900   46.2840 C   0  0  0  0  0  0  0  0  0  0  0  0
   59.1210   26.8990   46.0620 N   0  0  0  0  0  0  0  0  0  0  0  0
   60.3540   27.6830   46.1100 C   0  0  0  0  0  0  0  0  0  0  0  0
   60.4070   28.5280   47.3570 C   0  0  0  0  0  0  0  0  0  0  0  0
   60.7660   29.8850   47.2850 C   0  0  0  0  0  0  0  0  0  0  0  0
   60.8010   30.6670   48.4440 C   0  0  0  0  0  0  0  0  0  0  0  0
   60.4890   30.0990   49.6820 C   0  0  0  0  0  0  0  0  0  0  0  0
   60.5220   30.8600   50.8040 F   0  0  0  0  0  0  0  0  0  0  0  0
   60.1470   28.7470   49.7640 C   0  0  0  0  0  0  0  0  0  0  0  0
   60.1100   27.9620   48.6080 C   0  0  0  0  0  0  0  0  0  0  0  0
   57.2900   28.6330   45.6590 C   0  0  0  0  0  0  0  0  0  0  0  0
   57.9330   29.8560   45.8930 C   0  0  0  0  0  0  0  0  0  0  0  0
   57.4300   31.0160   45.2810 C   0  0  0  0  0  0  0  0  0  0  0  0
   58.0790   32.3390   45.4640 C   0  0  0  0  0  0  0  0  0  0  0  0
   58.3440   33.1480   44.3450 C   0  0  0  0  0  0  0  0  0  0  0  0
   58.9450   34.4000   44.5000 C   0  0  0  0  0  0  0  0  0  0  0  0
   59.2900   34.8590   45.7710 C   0  0  0  0  0  0  0  0  0  0  0  0
   59.0450   34.0610   46.9010 C   0  0  0  0  0  0  0  0  0  0  0  0
   59.3550   34.5210   48.2240 N   0  0  0  0  0  0  0  0  0  0  0  0
   60.4520   34.0750   49.0310 C   0  0  0  0  0  0  0  0  0  0  0  0
   60.2650   33.8930   50.2620 O   0  0  0  0  0  0  0  0  0  0  0  0
   61.7700   33.7590   48.4470 C   0  0  0  0  0  0  0  0  0  0  0  0
   62.9360   33.5170   49.1660 C   0  0  0  0  0  0  0  0  0  0  0  0
   64.0300   33.1880   48.3560 C   0  0  0  0  0  0  0  0  0  0  0  0
   63.7310   33.1550   47.0000 C   0  0  0  0  0  0  0  0  0  0  0  0
   62.1050   33.5340   46.8110 S   0  0  0  0  0  0  0  0  0  0  0  0
   58.4200   32.8180   46.7450 C   0  0  0  0  0  0  0  0  0  0  0  0
   56.3330   30.9160   44.4820 N   0  0  0  0  0  0  0  0  0  0  0  0
   55.7110   29.7280   44.2770 C   0  0  0  0  0  0  0  0  0  0  0  0
   54.6940   29.6690   43.5380 O   0  0  0  0  0  0  0  0  0  0  0  0
   56.1880   28.6010   44.8650 N   0  0  0  0  0  0  0  0  0  0  0  0
   61.2158   26.9994   46.1015 H   0  0  0  0  0  0  0  0  0  0  0  0
   60.3816   28.3478   45.2340 H   0  0  0  0  0  0  0  0  0  0  0  0
   61.0204   30.3337   46.3134 H   0  0  0  0  0  0  0  0  0  0  0  0
   61.0745   31.7306   48.3809 H   0  0  0  0  0  0  0  0  0  0  0  0
   59.9065   28.2995   50.7397 H   0  0  0  0  0  0  0  0  0  0  0  0
   59.8471   26.8962   48.6782 H   0  0  0  0  0  0  0  0  0  0  0  0
   58.8172   29.9068   46.5453 H   0  0  0  0  0  0  0  0  0  0  0  0
   58.0760   32.7924   43.3391 H   0  0  0  0  0  0  0  0  0  0  0  0
   59.1465   35.0250   43.6175 H   0  0  0  0  0  0  0  0  0  0  0  0
   59.7553   35.8487   45.8890 H   0  0  0  0  0  0  0  0  0  0  0  0
   62.9931   33.5780   50.2628 H   0  0  0  0  0  0  0  0  0  0  0  0
   65.0323   32.9756   48.7562 H   0  0  0  0  0  0  0  0  0  0  0  0
   64.4370   32.9211   46.1895 H   0  0  0  0  0  0  0  0  0  0  0  0
   58.1925   32.2084   47.6320 H   0  0  0  0  0  0  0  0  0  0  0  0
  1  2  2  0
  2  3  1  0
  3  4  1  0
  4  5  1  0
  5  6  2  0
  6  7  1  0
  7  8  2  0
  8  9  1  0
  8 10  1  0
 10 11  2  0
  2 12  1  0
 12 13  2  0
 13 14  1  0
 14 15  1  0
 15 16  2  0
 16 17  1  0
 17 18  2  0
 18 19  1  0
 19 20  1  0
 20 21  1  0
 21 22  2  0
 21 23  1  0
 23 24  2  0
 24 25  1  0
 25 26  2  0
 26 27  1  0
 19 28  2  0
 14 29  2  0
 29 30  1  0
 30 31  2  0
 30 32  1  0
 11  5  1  0
 32 12  1  0
 28 15  1  0
 27 23  1  0
  4 33  1  0
  4 34  1  0
  6 35  1  0
  7 36  1  0
 10 37  1  0
 11 38  1  0
 13 39  1  0
 16 40  1  0
 17 41  1  0
 18 42  1  0
 24 43  1  0
 25 44  1  0
 26 45  1  0
 28 46  1  0
M  CHG  3   3  -1  20  -1  32  -1
M  END
>  <UniqueID>  (52) 
48

>  <SMILES>  (52) 
O=C([N-]Cc1ccc(F)cc1)c1cc(-c2cccc([N-]C(=O)c3cccs3)c2)nc(=O)[n-]1

>  <Energy>  (52) 
87.79574375904295

>  <Genealogy>  (52) 
O=C([N-]Cc1ccc(F)cc1)c1cc(-c2cccc([N-]C(=O)c3cccs3)c2)nc(=O)[n-]1 (protonated)
O=C([N-]Cc1ccc(F)cc1)c1cc(-c2cccc([N-]C(=O)c3cccs3)c2)nc(=O)[n-]1 (3D coordinates assigned)
O=C([N-]Cc1ccc(F)cc1)c1cc(-c2cccc([N-]C(=O)c3cccs3)c2)nc(=O)[n-]1 (optimized conformer: 87.79574375904295 kcal/mol)

>  <smiles>  (52) 
O=C(NCc1ccc(F)cc1)c1cc(-c2cccc(NC(=O)c3cccs3)c2)nc(=O)[nH]1

>  <score_type>  (52) 
oracle

>  <origin>  (52) 
adg

>  <m_score__min__energy>  (52) 
-13.49

>  <m_primary>  (52) 
energy

$$$$
52:0
     RDKit          3D

 51 54  0  0  0  0  0  0  0  0999 V2000
   56.6560   34.0860   44.8330 O   0  0  0  0  0  0  0  0  0  0  0  0
   57.7380   33.4450   44.8970 C   0  0  0  0  0  0  0  0  0  0  0  0
   58.1820   32.7400   43.7310 N   0  0  0  0  0  0  0  0  0  0  0  0
   57.3990   31.7820   42.9640 C   0  0  0  0  0  0  0  0  0  0  0  0
   57.0380   30.6250   43.8390 C   0  0  0  0  0  0  0  0  0  0  0  0
   55.8550   29.9120   43.8000 C   0  0  0  0  0  0  0  0  0  0  0  0
   55.9020   28.9110   44.6980 N   0  0  0  0  0  0  0  0  0  0  0  0
   57.1020   28.9840   45.3060 C   0  0  0  0  0  0  0  0  0  0  0  0
   57.5720   28.0230   46.3480 C   0  0  0  0  0  0  0  0  0  0  0  0
   57.4860   26.6650   45.8300 N   0  0  0  0  0  0  0  0  0  0  0  0
   56.2440   25.9780   45.6710 C   0  0  0  0  0  0  0  0  0  0  0  0
   55.1610   26.5330   46.0020 O   0  0  0  0  0  0  0  0  0  0  0  0
   56.2350   24.5730   45.1570 C   0  0  0  0  0  0  0  0  0  0  0  0
   57.6170   23.9580   44.9780 C   0  0  0  0  0  0  0  0  0  0  0  0
   56.8210   24.4010   43.7610 C   0  0  0  0  0  0  0  0  0  0  0  0
   57.8440   30.0310   44.7900 C   0  0  0  0  0  0  0  0  0  0  0  0
   58.4680   33.4180   46.1830 C   0  0  0  0  0  0  0  0  0  0  0  0
   58.8300   34.4950   46.9740 C   0  0  0  0  0  0  0  0  0  0  0  0
   59.3850   33.9490   48.1130 C   0  0  0  0  0  0  0  0  0  0  0  0
   59.8260   34.6870   49.2080 O   0  0  0  0  0  0  0  0  0  0  0  0
   59.4120   32.6000   48.0490 N   0  0  0  0  0  0  0  0  0  0  0  0
   59.7990   31.6760   49.1330 C   0  0  0  0  0  0  0  0  0  0  0  0
   58.7330   30.6260   49.4330 C   0  0  0  0  0  0  0  0  0  0  0  0
   59.4800   29.4700   50.0800 C   0  0  0  0  0  0  0  0  0  0  0  0
   60.9140   29.5430   49.5600 C   0  0  0  0  0  0  0  0  0  0  0  0
   61.0390   30.8520   48.7840 C   0  0  0  0  0  0  0  0  0  0  0  0
   58.8080   32.2740   46.8830 C   0  0  0  0  0  0  0  0  0  0  0  0
   56.4816   32.2664   42.5984 H   0  0  0  0  0  0  0  0  0  0  0  0
   57.9897   31.4256   42.1072 H   0  0  0  0  0  0  0  0  0  0  0  0
   55.0050   30.1294   43.1365 H   0  0  0  0  0  0  0  0  0  0  0  0
   55.1470   28.2110   44.8820 H   0  0  0  0  0  0  0  0  0  0  0  0
   58.6157   28.2495   46.6116 H   0  0  0  0  0  0  0  0  0  0  0  0
   56.9395   28.1147   47.2433 H   0  0  0  0  0  0  0  0  0  0  0  0
   55.3016   24.2691   45.6533 H   0  0  0  0  0  0  0  0  0  0  0  0
   58.5123   24.5194   45.2835 H   0  0  0  0  0  0  0  0  0  0  0  0
   58.0971   23.0199   45.2934 H   0  0  0  0  0  0  0  0  0  0  0  0
   57.1404   25.2828   43.1863 H   0  0  0  0  0  0  0  0  0  0  0  0
   56.4869   23.9162   42.8319 H   0  0  0  0  0  0  0  0  0  0  0  0
   58.8633   30.3284   45.0772 H   0  0  0  0  0  0  0  0  0  0  0  0
   58.7019   35.5628   46.7427 H   0  0  0  0  0  0  0  0  0  0  0  0
   59.4620   35.6130   49.3940 H   0  0  0  0  0  0  0  0  0  0  0  0
   59.9663   32.3470   49.9884 H   0  0  0  0  0  0  0  0  0  0  0  0
   57.9770   31.0303   50.1223 H   0  0  0  0  0  0  0  0  0  0  0  0
   58.1991   30.3120   48.5240 H   0  0  0  0  0  0  0  0  0  0  0  0
   59.4661   29.5726   51.1751 H   0  0  0  0  0  0  0  0  0  0  0  0
   59.0138   28.5045   49.8340 H   0  0  0  0  0  0  0  0  0  0  0  0
   61.6224   29.5331   50.4015 H   0  0  0  0  0  0  0  0  0  0  0  0
   61.1436   28.6808   48.9167 H   0  0  0  0  0  0  0  0  0  0  0  0
   61.9506   31.3885   49.0859 H   0  0  0  0  0  0  0  0  0  0  0  0
   61.1076   30.6707   47.7012 H   0  0  0  0  0  0  0  0  0  0  0  0
   58.6149   31.2466   46.5406 H   0  0  0  0  0  0  0  0  0  0  0  0
  1  2  2  0
  2  3  1  0
  3  4  1  0
  4  5  1  0
  5  6  2  0
  6  7  1  0
  7  8  1  0
  8  9  1  0
  9 10  1  0
 10 11  1  0
 11 12  2  0
 11 13  1  0
 13 14  1  0
 14 15  1  0
  8 16  2  0
  2 17  1  0
 17 18  1  0
 18 19  2  0
 19 20  1  0
 19 21  1  0
 21 22  1  0
 22 23  1  0
 23 24  1  0
 24 25  1  0
 25 26  1  0
 21 27  1  0
 16  5  1  0
 27 17  2  0
 15 13  1  0
 26 22  1  0
  4 28  1  0
  4 29  1  0
  6 30  1  0
  7 31  1  0
  9 32  1  0
  9 33  1  0
 13 34  1  0
 14 35  1  0
 14 36  1  0
 15 37  1  0
 15 38  1  0
 16 39  1  0
 18 40  1  0
 20 41  1  0
 22 42  1  0
 23 43  1  0
 23 44  1  0
 24 45  1  0
 24 46  1  0
 25 47  1  0
 25 48  1  0
 26 49  1  0
 26 50  1  0
 27 51  1  0
M  CHG  2   3  -1  10  -1
M  END
>  <UniqueID>  (53) 
49

>  <SMILES>  (53) 
O=C([N-]Cc1c[nH]c(C[N-]C(=O)C2CC2)c1)c1cc(O)n(C2CCCC2)c1

>  <Energy>  (53) 
366.825693841738

>  <Genealogy>  (53) 
O=C([N-]Cc1c[nH]c(C[N-]C(=O)C2CC2)c1)c1cc(O)n(C2CCCC2)c1 (protonated)
O=C([N-]Cc1c[nH]c(C[N-]C(=O)C2CC2)c1)c1cc(O)n(C2CCCC2)c1 (3D coordinates assigned)
O=C([N-]Cc1c[nH]c(C[N-]C(=O)C2CC2)c1)c1cc(O)n(C2CCCC2)c1 (nonaromatic ring conformer: 366.825693841738 kcal/mol)

>  <smiles>  (53) 
O=C(NCc1c[nH]c(CNC(=O)C2CC2)c1)c1cc(O)n(C2CCCC2)c1

>  <score_type>  (53) 
oracle

>  <origin>  (53) 
adg

>  <m_score__min__energy>  (53) 
-11.77

>  <m_primary>  (53) 
energy

$$$$
53:0
     RDKit          3D

 54 56  0  0  0  0  0  0  0  0999 V2000
   59.1964   34.8933   43.8571 H   0  0  0  0  0  0  0  0  0  0  0  0
   58.7790   34.1280   44.5280 C   0  0  0  0  0  0  0  0  0  0  0  0
   59.1050   34.1420   45.8840 C   0  0  0  0  0  0  0  0  0  0  0  0
   59.9420   35.1030   46.3510 F   0  0  0  0  0  0  0  0  0  0  0  0
   58.5690   33.1530   46.7290 C   0  0  0  0  0  0  0  0  0  0  0  0
   58.8750   33.0920   48.1730 C   0  0  0  0  0  0  0  0  0  0  0  0
   58.5640   32.0580   48.8240 O   0  0  0  0  0  0  0  0  0  0  0  0
   59.5020   34.1920   48.8410 N   0  0  0  0  0  0  0  0  0  0  0  0
   60.9480   34.3530   48.9510 C   0  0  0  0  0  0  0  0  0  0  0  0
   61.2069   34.6049   49.9900 H   0  0  0  0  0  0  0  0  0  0  0  0
   61.2702   35.1594   48.2758 H   0  0  0  0  0  0  0  0  0  0  0  0
   61.6460   33.0820   48.5610 C   0  0  0  0  0  0  0  0  0  0  0  0
   62.4090   32.8430   47.4330 C   0  0  0  0  0  0  0  0  0  0  0  0
   62.7200   33.8210   46.3460 C   0  0  0  0  0  0  0  0  0  0  0  0
   63.0248   34.7795   46.7914 H   0  0  0  0  0  0  0  0  0  0  0  0
   63.5379   33.4294   45.7234 H   0  0  0  0  0  0  0  0  0  0  0  0
   61.8261   33.9737   45.7234 H   0  0  0  0  0  0  0  0  0  0  0  0
   62.8450   31.5690   47.4470 N   0  0  0  0  0  0  0  0  0  0  0  0
   62.3860   31.0220   48.5370 O   0  0  0  0  0  0  0  0  0  0  0  0
   61.6710   31.8760   49.2350 C   0  0  0  0  0  0  0  0  0  0  0  0
   61.0040   31.5480   50.5310 C   0  0  0  0  0  0  0  0  0  0  0  0
   61.6476   31.8645   51.3650 H   0  0  0  0  0  0  0  0  0  0  0  0
   60.0403   32.0750   50.5911 H   0  0  0  0  0  0  0  0  0  0  0  0
   60.8330   30.4630   50.5911 H   0  0  0  0  0  0  0  0  0  0  0  0
   57.7360   32.2130   46.2010 N   0  0  0  0  0  0  0  0  0  0  0  0
   57.3870   32.1750   44.8850 C   0  0  0  0  0  0  0  0  0  0  0  0
   56.5910   31.2160   44.4980 N   0  0  0  0  0  0  0  0  0  0  0  0
   56.5980   29.8040   44.7750 C   0  0  0  0  0  0  0  0  0  0  0  0
   55.5290   29.1520   44.9010 O   0  0  0  0  0  0  0  0  0  0  0  0
   57.9090   29.0990   44.9930 C   0  0  0  0  0  0  0  0  0  0  0  0
   57.8902   28.1327   44.4678 H   0  0  0  0  0  0  0  0  0  0  0  0
   58.7186   29.7327   44.6018 H   0  0  0  0  0  0  0  0  0  0  0  0
   58.1470   28.8630   46.4330 N   0  0  0  0  0  0  0  0  0  0  0  0
   58.1010   27.4260   46.8000 C   0  0  0  0  0  0  0  0  0  0  0  0
   57.3663   27.3012   47.6091 H   0  0  0  0  0  0  0  0  0  0  0  0
   57.8305   26.8777   45.8855 H   0  0  0  0  0  0  0  0  0  0  0  0
   59.4530   26.8430   47.2800 C   0  0  1  0  0  0  0  0  0  0  0  0
   59.1581   25.9196   47.7999 H   0  0  0  0  0  0  0  0  0  0  0  0
   60.3830   26.4870   46.1140 C   0  0  0  0  0  0  0  0  0  0  0  0
   61.3419   26.1199   46.5087 H   0  0  0  0  0  0  0  0  0  0  0  0
   59.9160   25.7040   45.4984 H   0  0  0  0  0  0  0  0  0  0  0  0
   60.5582   27.3816   45.4984 H   0  0  0  0  0  0  0  0  0  0  0  0
   60.1460   27.6200   48.2500 O   0  0  0  0  0  0  0  0  0  0  0  0
   59.8530   29.0100   48.2490 C   0  0  2  0  0  0  0  0  0  0  0  0
   60.8059   29.5318   48.4212 H   0  0  0  0  0  0  0  0  0  0  0  0
   58.8900   29.3480   49.3920 C   0  0  0  0  0  0  0  0  0  0  0  0
   59.3895   29.1727   50.3562 H   0  0  0  0  0  0  0  0  0  0  0  0
   58.5920   30.4044   49.3201 H   0  0  0  0  0  0  0  0  0  0  0  0
   57.9972   28.7095   49.3201 H   0  0  0  0  0  0  0  0  0  0  0  0
   59.3650   29.5530   46.8950 C   0  0  0  0  0  0  0  0  0  0  0  0
   59.1478   30.6262   46.9996 H   0  0  0  0  0  0  0  0  0  0  0  0
   60.1577   29.3795   46.1523 H   0  0  0  0  0  0  0  0  0  0  0  0
   57.9250   33.1470   44.0170 C   0  0  0  0  0  0  0  0  0  0  0  0
   57.6745   33.1333   42.9460 H   0  0  0  0  0  0  0  0  0  0  0  0
  1  2  1  0
  2  3  1  0
  3  4  1  0
  3  5  2  0
  5  6  1  0
  6  7  2  0
  6  8  1  0
  8  9  1  0
  9 10  1  0
  9 11  1  0
  9 12  1  0
 12 13  1  0
 13 14  1  0
 14 15  1  0
 14 16  1  0
 14 17  1  0
 13 18  2  0
 18 19  1  0
 19 20  1  0
 20 21  1  0
 21 22  1  0
 21 23  1  0
 21 24  1  0
  5 25  1  0
 25 26  1  0
 26 27  2  0
 27 28  1  0
 28 29  2  0
 28 30  1  0
 30 31  1  0
 30 32  1  0
 30 33  1  0
 33 34  1  0
 34 35  1  0
 34 36  1  0
 34 37  1  0
 37 38  1  1
 37 39  1  0
 39 40  1  0
 39 41  1  0
 39 42  1  0
 37 43  1  0
 43 44  1  0
 44 45  1  1
 44 46  1  0
 46 47  1  0
 46 48  1  0
 46 49  1  0
 44 50  1  0
 50 51  1  0
 50 52  1  0
 26 53  1  0
 53 54  1  0
 53  2  2  0
 20 12  2  0
 50 33  1  0
M  CHG  2   8  -1  25  -1
M  END
>  <UniqueID>  (54) 
50

>  <SMILES>  (54) 
Cc1noc(C)c1C[N-]C(=O)c1[n-]/c(=N/C(=O)CN2C[C@@H](C)O[C@H](C)C2)ccc1F

>  <Energy>  (54) 
104.21372654072648

>  <Genealogy>  (54) 
Cc1noc(C)c1C[N-]C(=O)c1[n-]c(=NC(=O)CN2CC(C)OC(C)C2)ccc1F (protonated)
Cc1noc(C)c1C[N-]C(=O)c1[n-]c(=NC(=O)CN2C[C@@H](C)O[C@H](C)C2)ccc1F (chirality)
Cc1noc(C)c1C[N-]C(=O)c1[n-]/c(=N/C(=O)CN2C[C@@H](C)O[C@H](C)C2)ccc1F (cis-trans isomerization)
Cc1noc(C)c1C[N-]C(=O)c1[n-]/c(=N/C(=O)CN2C[C@@H](C)O[C@H](C)C2)ccc1F (3D coordinates assigned)
Cc1noc(C)c1C[N-]C(=O)c1[n-]/c(=N/C(=O)CN2C[C@@H](C)O[C@H](C)C2)ccc1F (nonaromatic ring conformer: 104.21372654072648 kcal/mol)

>  <smiles>  (54) 
Cc1noc(C)c1CNC(=O)c1[nH]c(=NC(=O)CN2CC(C)OC(C)C2)ccc1F

>  <score_type>  (54) 
oracle

>  <origin>  (54) 
adg

>  <m_score__min__energy>  (54) 
-12.17

>  <m_primary>  (54) 
energy

$$$$
54:0
     RDKit          3D

 42 43  0  0  0  0  0  0  0  0999 V2000
   66.6600   31.7740   50.5490 C   0  0  0  0  0  0  0  0  0  0  0  0
   65.9650   33.0700   50.1540 C   0  0  0  0  0  0  0  0  0  0  0  0
   64.2630   33.0720   50.6960 S   0  0  0  0  0  0  0  0  0  0  0  0
   63.7970   34.4950   50.8290 O   0  0  0  0  0  0  0  0  0  0  0  0
   64.1440   32.4010   52.0350 O   0  0  0  0  0  0  0  0  0  0  0  0
   63.2530   32.2630   49.5400 N   0  0  0  0  0  0  0  0  0  0  0  0
   62.3200   32.8960   48.6540 C   0  0  0  0  0  0  0  0  0  0  0  0
   62.7180   33.1460   47.3330 C   0  0  0  0  0  0  0  0  0  0  0  0
   61.8420   33.7610   46.4340 C   0  0  0  0  0  0  0  0  0  0  0  0
   60.5630   34.1410   46.8500 C   0  0  0  0  0  0  0  0  0  0  0  0
   59.4320   34.9190   45.6910 S   0  0  0  0  0  0  0  0  0  0  0  0
   57.9810   33.9030   46.1530 C   0  0  0  0  0  0  0  0  0  0  0  0
   57.3330   33.2330   44.9430 C   0  0  0  0  0  0  0  0  0  0  0  0
   57.0330   31.8380   45.2360 N   0  0  0  0  0  0  0  0  0  0  0  0
   57.5810   30.7480   44.4870 C   0  0  0  0  0  0  0  0  0  0  0  0
   58.0870   30.9690   43.3540 O   0  0  0  0  0  0  0  0  0  0  0  0
   57.5460   29.3700   45.0450 C   0  0  0  0  0  0  0  0  0  0  0  0
   58.7510   28.7330   45.4030 C   0  0  0  0  0  0  0  0  0  0  0  0
   58.7460   27.4400   45.9320 C   0  0  0  0  0  0  0  0  0  0  0  0
   57.5400   26.7610   46.1090 C   0  0  0  0  0  0  0  0  0  0  0  0
   56.3350   27.3720   45.7610 C   0  0  0  0  0  0  0  0  0  0  0  0
   55.1390   26.6870   45.9420 O   0  0  0  0  0  0  0  0  0  0  0  0
   56.3290   28.6700   45.2300 C   0  0  0  0  0  0  0  0  0  0  0  0
   55.1090   29.2490   44.8910 O   0  0  0  0  0  0  0  0  0  0  0  0
   60.1540   33.8870   48.1640 C   0  0  0  0  0  0  0  0  0  0  0  0
   61.0290   33.2730   49.0650 C   0  0  0  0  0  0  0  0  0  0  0  0
   66.7002   31.6990   51.6457 H   0  0  0  0  0  0  0  0  0  0  0  0
   66.0994   30.9189   50.1433 H   0  0  0  0  0  0  0  0  0  0  0  0
   67.6824   31.7678   50.1433 H   0  0  0  0  0  0  0  0  0  0  0  0
   66.4917   33.9169   50.6181 H   0  0  0  0  0  0  0  0  0  0  0  0
   65.9846   33.1591   49.0578 H   0  0  0  0  0  0  0  0  0  0  0  0
   63.7262   32.8563   47.0020 H   0  0  0  0  0  0  0  0  0  0  0  0
   62.1598   33.9462   45.3973 H   0  0  0  0  0  0  0  0  0  0  0  0
   58.3053   33.1230   46.8576 H   0  0  0  0  0  0  0  0  0  0  0  0
   57.2342   34.5704   46.6079 H   0  0  0  0  0  0  0  0  0  0  0  0
   56.4002   33.7597   44.6932 H   0  0  0  0  0  0  0  0  0  0  0  0
   58.0308   33.2775   44.0938 H   0  0  0  0  0  0  0  0  0  0  0  0
   59.7066   29.2600   45.2643 H   0  0  0  0  0  0  0  0  0  0  0  0
   59.6943   26.9565   46.2094 H   0  0  0  0  0  0  0  0  0  0  0  0
   57.5393   25.7421   46.5237 H   0  0  0  0  0  0  0  0  0  0  0  0
   59.1421   34.1710   48.4885 H   0  0  0  0  0  0  0  0  0  0  0  0
   60.7064   33.0840   50.0995 H   0  0  0  0  0  0  0  0  0  0  0  0
  1  2  1  0
  2  3  1  0
  3  4  2  0
  3  5  2  0
  3  6  1  0
  6  7  1  0
  7  8  2  0
  8  9  1  0
  9 10  2  0
 10 11  1  0
 11 12  1  0
 12 13  1  0
 13 14  1  0
 14 15  1  0
 15 16  2  0
 15 17  1  0
 17 18  2  0
 18 19  1  0
 19 20  2  0
 20 21  1  0
 21 22  1  0
 21 23  2  0
 23 24  1  0
 10 25  1  0
 25 26  2  0
 26  7  1  0
 23 17  1  0
  1 27  1  0
  1 28  1  0
  1 29  1  0
  2 30  1  0
  2 31  1  0
  8 32  1  0
  9 33  1  0
 12 34  1  0
 12 35  1  0
 13 36  1  0
 13 37  1  0
 18 38  1  0
 19 39  1  0
 20 40  1  0
 25 41  1  0
 26 42  1  0
M  CHG  4   6  -1  14  -1  22  -1  24  -1
M  END
>  <UniqueID>  (55) 
51

>  <SMILES>  (55) 
CCS(=O)(=O)[N-]c1ccc(SCC[N-]C(=O)c2cccc([O-])c2[O-])cc1

>  <Energy>  (55) 
33.23230177958034

>  <Genealogy>  (55) 
CCS(=O)(=O)[N-]c1ccc(SCC[N-]C(=O)c2cccc([O-])c2[O-])cc1 (protonated)
CCS(=O)(=O)[N-]c1ccc(SCC[N-]C(=O)c2cccc([O-])c2[O-])cc1 (3D coordinates assigned)
CCS(=O)(=O)[N-]c1ccc(SCC[N-]C(=O)c2cccc([O-])c2[O-])cc1 (optimized conformer: 33.23230177958034 kcal/mol)

>  <smiles>  (55) 
CCS(=O)(=O)Nc1ccc(SCCNC(=O)c2cccc(O)c2O)cc1

>  <score_type>  (55) 
oracle

>  <origin>  (55) 
adg

>  <m_score__min__energy>  (55) 
-17.07

>  <m_primary>  (55) 
energy

$$$$
55:0
     RDKit          3D

 62 65  0  0  0  0  0  0  0  0999 V2000
   56.3030   21.0800   47.6170 C   0  0  0  0  0  0  0  0  0  0  0  0
   57.2610   22.0490   47.2090 O   0  0  0  0  0  0  0  0  0  0  0  0
   56.9480   23.3680   46.8400 C   0  0  0  0  0  0  0  0  0  0  0  0
   56.1800   23.5720   45.6870 C   0  0  0  0  0  0  0  0  0  0  0  0
   55.8350   24.8670   45.2830 C   0  0  0  0  0  0  0  0  0  0  0  0
   56.2340   25.9780   46.0450 C   0  0  0  0  0  0  0  0  0  0  0  0
   55.8890   27.3130   45.6490 N   0  0  0  0  0  0  0  0  0  0  0  0
   56.8010   28.2980   45.1450 C   0  0  0  0  0  0  0  0  0  0  0  0
   57.1230   28.2580   43.9260 O   0  0  0  0  0  0  0  0  0  0  0  0
   57.4680   29.3040   46.0460 C   0  0  0  0  0  0  0  0  0  0  0  0
   57.6810   30.6120   45.3430 C   0  0  0  0  0  0  0  0  0  0  0  0
   57.8950   30.7160   43.9680 C   0  0  0  0  0  0  0  0  0  0  0  0
   58.0580   32.3490   43.5900 S   0  0  0  0  0  0  0  0  0  0  0  0
   57.8220   32.8440   45.1760 C   0  0  0  0  0  0  0  0  0  0  0  0
   57.8330   34.0920   45.5440 N   0  0  0  0  0  0  0  0  0  0  0  0
   58.9580   34.9880   45.5850 C   0  0  0  0  0  0  0  0  0  0  0  0
   59.4060   35.4220   44.4890 O   0  0  0  0  0  0  0  0  0  0  0  0
   59.5930   35.4360   46.8890 C   0  0  0  0  0  0  0  0  0  0  0  0
   59.3500   34.4610   48.0620 C   0  0  0  0  0  0  0  0  0  0  0  0
   59.3950   33.0330   47.6540 N   0  0  0  0  0  0  0  0  0  0  0  0
   59.0080   32.1270   48.7830 C   0  0  0  0  0  0  0  0  0  0  0  0
   59.9610   30.9380   48.9990 C   0  0  0  0  0  0  0  0  0  0  0  0
   60.3590   30.3700   47.7080 N   0  0  0  0  0  0  0  0  0  0  0  0
   60.3850   28.9420   47.5120 C   0  0  0  0  0  0  0  0  0  0  0  0
   60.3470   28.0710   48.6170 C   0  0  0  0  0  0  0  0  0  0  0  0
   60.3420   26.6820   48.4250 C   0  0  0  0  0  0  0  0  0  0  0  0
   60.3760   26.1510   47.1320 C   0  0  0  0  0  0  0  0  0  0  0  0
   60.4240   27.0090   46.0280 C   0  0  0  0  0  0  0  0  0  0  0  0
   60.4330   28.3990   46.2120 C   0  0  0  0  0  0  0  0  0  0  0  0
   60.5050   29.2140   45.1270 F   0  0  0  0  0  0  0  0  0  0  0  0
   60.8220   31.2650   46.6440 C   0  0  0  0  0  0  0  0  0  0  0  0
   60.7300   32.7300   47.0890 C   0  0  0  0  0  0  0  0  0  0  0  0
   57.6370   31.7980   46.0100 N   0  0  0  0  0  0  0  0  0  0  0  0
   57.0370   25.7850   47.1740 C   0  0  0  0  0  0  0  0  0  0  0  0
   57.3840   24.4890   47.5790 C   0  0  0  0  0  0  0  0  0  0  0  0
   56.2652   21.0418   48.7157 H   0  0  0  0  0  0  0  0  0  0  0  0
   55.3128   21.3559   47.2254 H   0  0  0  0  0  0  0  0  0  0  0  0
   56.5902   20.0930   47.2254 H   0  0  0  0  0  0  0  0  0  0  0  0
   55.8453   22.7080   45.0942 H   0  0  0  0  0  0  0  0  0  0  0  0
   55.2485   25.0156   44.3643 H   0  0  0  0  0  0  0  0  0  0  0  0
   56.8325   29.4712   46.9281 H   0  0  0  0  0  0  0  0  0  0  0  0
   58.4499   28.9062   46.3420 H   0  0  0  0  0  0  0  0  0  0  0  0
   57.9479   29.8789   43.2564 H   0  0  0  0  0  0  0  0  0  0  0  0
   60.6779   35.5294   46.7334 H   0  0  0  0  0  0  0  0  0  0  0  0
   59.1258   36.3934   47.1632 H   0  0  0  0  0  0  0  0  0  0  0  0
   60.1242   34.6314   48.8246 H   0  0  0  0  0  0  0  0  0  0  0  0
   58.3393   34.6593   48.4483 H   0  0  0  0  0  0  0  0  0  0  0  0
   58.7040   32.8930   46.8780 H   0  0  0  0  0  0  0  0  0  0  0  0
   58.9840   32.7213   49.7083 H   0  0  0  0  0  0  0  0  0  0  0  0
   58.0282   31.7007   48.5218 H   0  0  0  0  0  0  0  0  0  0  0  0
   60.8568   31.2828   49.5364 H   0  0  0  0  0  0  0  0  0  0  0  0
   59.4449   30.1656   49.5882 H   0  0  0  0  0  0  0  0  0  0  0  0
   60.3211   28.4822   49.6369 H   0  0  0  0  0  0  0  0  0  0  0  0
   60.3112   26.0083   49.2940 H   0  0  0  0  0  0  0  0  0  0  0  0
   60.3650   25.0612   46.9831 H   0  0  0  0  0  0  0  0  0  0  0  0
   60.4548   26.5912   45.0109 H   0  0  0  0  0  0  0  0  0  0  0  0
   61.8680   31.0264   46.4013 H   0  0  0  0  0  0  0  0  0  0  0  0
   60.1830   31.1233   45.7599 H   0  0  0  0  0  0  0  0  0  0  0  0
   61.4961   32.9216   47.8548 H   0  0  0  0  0  0  0  0  0  0  0  0
   60.8917   33.3726   46.2110 H   0  0  0  0  0  0  0  0  0  0  0  0
   57.3972   26.6530   47.7456 H   0  0  0  0  0  0  0  0  0  0  0  0
   58.0002   24.3443   48.4787 H   0  0  0  0  0  0  0  0  0  0  0  0
  1  2  1  0
  2  3  1  0
  3  4  2  0
  4  5  1  0
  5  6  2  0
  6  7  1  0
  7  8  1  0
  8  9  2  0
  8 10  1  0
 10 11  1  0
 11 12  2  0
 12 13  1  0
 13 14  1  0
 14 15  2  3
 15 16  1  0
 16 17  2  0
 16 18  1  0
 18 19  1  0
 19 20  1  0
 20 21  1  0
 21 22  1  0
 22 23  1  0
 23 24  1  0
 24 25  2  0
 25 26  1  0
 26 27  2  0
 27 28  1  0
 28 29  2  0
 29 30  1  0
 23 31  1  0
 31 32  1  0
 14 33  1  0
  6 34  1  0
 34 35  2  0
 35  3  1  0
 33 11  1  0
 32 20  1  0
 29 24  1  0
  1 36  1  0
  1 37  1  0
  1 38  1  0
  4 39  1  0
  5 40  1  0
 10 41  1  0
 10 42  1  0
 12 43  1  0
 18 44  1  0
 18 45  1  0
 19 46  1  0
 19 47  1  0
 20 48  1  0
 21 49  1  0
 21 50  1  0
 22 51  1  0
 22 52  1  0
 25 53  1  0
 26 54  1  0
 27 55  1  0
 28 56  1  0
 31 57  1  0
 31 58  1  0
 32 59  1  0
 32 60  1  0
 34 61  1  0
 35 62  1  0
M  CHG  3   7  -1  20   1  33  -1
M  END
>  <UniqueID>  (56) 
52

>  <SMILES>  (56) 
COc1ccc([N-]C(=O)Cc2csc(=NC(=O)CC[NH+]3CCN(c4ccccc4F)CC3)[n-]2)cc1

>  <Energy>  (56) 
115.00430776541938

>  <Genealogy>  (56) 
COc1ccc([N-]C(=O)Cc2csc(=NC(=O)CC[NH+]3CCN(c4ccccc4F)CC3)[n-]2)cc1 (protonated)
COc1ccc([N-]C(=O)Cc2csc(=NC(=O)CC[NH+]3CCN(c4ccccc4F)CC3)[n-]2)cc1 (3D coordinates assigned)
COc1ccc([N-]C(=O)Cc2csc(=NC(=O)CC[NH+]3CCN(c4ccccc4F)CC3)[n-]2)cc1 (nonaromatic ring conformer: 115.00430776541938 kcal/mol)

>  <smiles>  (56) 
COc1ccc(NC(=O)Cc2csc(=NC(=O)CCN3CCN(c4ccccc4F)CC3)[nH]2)cc1

>  <score_type>  (56) 
oracle

>  <origin>  (56) 
adg

>  <m_score__min__energy>  (56) 
-9.7599999999999998

>  <m_primary>  (56) 
energy

$$$$
56:0
     RDKit          3D

 90 95  0  0  0  0  0  0  0  0999 V2000
   63.4490   32.9290   54.0140 O   0  0  0  0  0  0  0  0  0  0  0  0
   63.2170   32.2410   52.9860 C   0  0  0  0  0  0  0  0  0  0  0  0
   63.3900   30.7530   53.0150 C   0  0  0  0  0  0  0  0  0  0  0  0
   62.2400   30.0660   52.3340 C   0  0  0  0  0  0  0  0  0  0  0  0
   62.4360   29.4120   51.1060 C   0  0  0  0  0  0  0  0  0  0  0  0
   61.3670   28.7780   50.4630 C   0  0  0  0  0  0  0  0  0  0  0  0
   60.0900   28.8160   51.0330 C   0  0  0  0  0  0  0  0  0  0  0  0
   59.8850   29.4750   52.2500 C   0  0  0  0  0  0  0  0  0  0  0  0
   60.9530   30.1020   52.9000 C   0  0  0  0  0  0  0  0  0  0  0  0
   62.8880   32.8810   51.7460 N   0  0  0  0  0  0  0  0  0  0  0  0
   61.5590   33.3870   51.4280 C   0  0  0  0  0  0  0  0  0  0  0  0
   61.1130   32.9180   50.0290 C   0  0  2  0  0  0  0  0  0  0  0  0
   61.5220   33.9170   48.9910 C   0  0  0  0  0  0  0  0  0  0  0  0
   61.8800   35.0680   49.3500 O   0  0  0  0  0  0  0  0  0  0  0  0
   61.4120   33.6120   47.5890 N   0  0  0  0  0  0  0  0  0  0  0  0
   62.6510   33.1660   46.9290 C   0  0  0  0  0  0  0  0  0  0  0  0
   63.3790   32.1130   47.7120 C   0  0  0  0  0  0  0  0  0  0  0  0
   62.9860   30.9200   47.6280 O   0  0  0  0  0  0  0  0  0  0  0  0
   64.4280   32.4560   48.6390 N   0  0  0  0  0  0  0  0  0  0  0  0
   64.6980   31.6560   49.8330 C   0  0  0  0  0  0  0  0  0  0  0  0
   66.0440   32.0040   50.4880 C   0  0  0  0  0  0  0  0  0  0  0  0
   66.3780   33.4380   50.2990 N   0  0  0  0  0  0  0  0  0  0  0  0
   67.8320   33.7030   50.4010 C   0  0  0  0  0  0  0  0  0  0  0  0
   68.2880   33.9690   51.8550 C   0  0  0  0  0  0  0  0  0  0  0  0
   67.3750   33.4130   52.7780 O   0  0  0  0  0  0  0  0  0  0  0  0
   66.1380   34.0980   52.7030 C   0  0  0  0  0  0  0  0  0  0  0  0
   65.6480   34.2980   51.2470 C   0  0  0  0  0  0  0  0  0  0  0  0
   60.1100   33.5280   46.9440 C   0  0  0  0  0  0  0  0  0  0  0  0
   59.9120   34.1800   45.7110 C   0  0  0  0  0  0  0  0  0  0  0  0
   58.6770   34.1590   45.0660 C   0  0  0  0  0  0  0  0  0  0  0  0
   57.6020   33.4970   45.6470 C   0  0  0  0  0  0  0  0  0  0  0  0
   57.7640   32.8310   46.8580 C   0  0  0  0  0  0  0  0  0  0  0  0
   59.0120   32.8070   47.5120 C   0  0  0  0  0  0  0  0  0  0  0  0
   59.1400   32.0570   48.7420 N   0  0  0  0  0  0  0  0  0  0  0  0
   58.8610   30.6180   48.8170 C   0  0  0  0  0  0  0  0  0  0  0  0
   59.0470   29.9540   47.4730 C   0  0  0  0  0  0  0  0  0  0  0  0
   60.2080   30.2030   46.7210 C   0  0  0  0  0  0  0  0  0  0  0  0
   60.3770   29.6040   45.4720 C   0  0  0  0  0  0  0  0  0  0  0  0
   59.3870   28.7650   44.9570 C   0  0  0  0  0  0  0  0  0  0  0  0
   58.2110   28.5220   45.6860 C   0  0  0  0  0  0  0  0  0  0  0  0
   57.1840   27.6600   45.1810 N   0  0  0  0  0  0  0  0  0  0  0  0
   56.4230   26.7460   45.9810 C   0  0  0  0  0  0  0  0  0  0  0  0
   55.1700   26.7000   45.8730 O   0  0  0  0  0  0  0  0  0  0  0  0
   57.0670   25.9670   46.9900 N   0  0  0  0  0  0  0  0  0  0  0  0
   57.9860   24.8800   46.6670 C   0  0  0  0  0  0  0  0  0  0  0  0
   58.1740   24.6540   45.1800 C   0  0  0  0  0  0  0  0  0  0  0  0
   59.2520   25.3690   45.9870 C   0  0  0  0  0  0  0  0  0  0  0  0
   58.0610   29.0990   46.9530 C   0  0  0  0  0  0  0  0  0  0  0  0
   59.6330   32.7050   49.9130 C   0  0  0  0  0  0  0  0  0  0  0  0
   58.8260   33.0880   50.8000 O   0  0  0  0  0  0  0  0  0  0  0  0
   64.3244   30.4889   52.4981 H   0  0  0  0  0  0  0  0  0  0  0  0
   63.4248   30.4236   54.0640 H   0  0  0  0  0  0  0  0  0  0  0  0
   63.4357   29.3983   50.6473 H   0  0  0  0  0  0  0  0  0  0  0  0
   61.5304   28.2509   49.5114 H   0  0  0  0  0  0  0  0  0  0  0  0
   59.2463   28.3273   50.5238 H   0  0  0  0  0  0  0  0  0  0  0  0
   58.8803   29.5001   52.6972 H   0  0  0  0  0  0  0  0  0  0  0  0
   60.7863   30.6234   53.8541 H   0  0  0  0  0  0  0  0  0  0  0  0
   60.8437   33.0167   52.1772 H   0  0  0  0  0  0  0  0  0  0  0  0
   61.5897   34.4865   51.4372 H   0  0  0  0  0  0  0  0  0  0  0  0
   61.6088   31.9492   49.8688 H   0  0  0  0  0  0  0  0  0  0  0  0
   62.3951   32.7556   45.9410 H   0  0  0  0  0  0  0  0  0  0  0  0
   63.3162   34.0383   46.8480 H   0  0  0  0  0  0  0  0  0  0  0  0
   64.8600   33.4090   48.5940 H   0  0  0  0  0  0  0  0  0  0  0  0
   63.8950   31.8323   50.5638 H   0  0  0  0  0  0  0  0  0  0  0  0
   64.7419   30.6014   49.5235 H   0  0  0  0  0  0  0  0  0  0  0  0
   65.9854   31.7881   51.5650 H   0  0  0  0  0  0  0  0  0  0  0  0
   66.8295   31.3978   50.0132 H   0  0  0  0  0  0  0  0  0  0  0  0
   68.3772   32.8290   50.0152 H   0  0  0  0  0  0  0  0  0  0  0  0
   68.0476   34.6077   49.8136 H   0  0  0  0  0  0  0  0  0  0  0  0
   69.2784   33.5164   52.0106 H   0  0  0  0  0  0  0  0  0  0  0  0
   68.3335   35.0562   52.0163 H   0  0  0  0  0  0  0  0  0  0  0  0
   65.3814   33.5177   53.2515 H   0  0  0  0  0  0  0  0  0  0  0  0
   66.2856   35.0957   53.1420 H   0  0  0  0  0  0  0  0  0  0  0  0
   64.5765   34.0545   51.1957 H   0  0  0  0  0  0  0  0  0  0  0  0
   65.8302   35.3460   50.9667 H   0  0  0  0  0  0  0  0  0  0  0  0
   60.7516   34.7180   45.2467 H   0  0  0  0  0  0  0  0  0  0  0  0
   58.5530   34.6660   44.0977 H   0  0  0  0  0  0  0  0  0  0  0  0
   56.6213   33.4995   45.1487 H   0  0  0  0  0  0  0  0  0  0  0  0
   56.9048   32.3154   47.3117 H   0  0  0  0  0  0  0  0  0  0  0  0
   59.5470   30.1570   49.5428 H   0  0  0  0  0  0  0  0  0  0  0  0
   57.8154   30.4821   49.1306 H   0  0  0  0  0  0  0  0  0  0  0  0
   60.9857   30.8720   47.1181 H   0  0  0  0  0  0  0  0  0  0  0  0
   61.2923   29.7933   44.8919 H   0  0  0  0  0  0  0  0  0  0  0  0
   59.5287   28.2913   43.9744 H   0  0  0  0  0  0  0  0  0  0  0  0
   57.7532   24.2295   47.5230 H   0  0  0  0  0  0  0  0  0  0  0  0
   58.3560   23.6393   44.7963 H   0  0  0  0  0  0  0  0  0  0  0  0
   57.5921   24.8907   44.2770 H   0  0  0  0  0  0  0  0  0  0  0  0
   60.2120   24.8705   46.1866 H   0  0  0  0  0  0  0  0  0  0  0  0
   59.7712   26.3356   45.9092 H   0  0  0  0  0  0  0  0  0  0  0  0
   57.1616   28.8805   47.5474 H   0  0  0  0  0  0  0  0  0  0  0  0
  1  2  2  0
  2  3  1  0
  3  4  1  0
  4  5  2  0
  5  6  1  0
  6  7  2  0
  7  8  1  0
  8  9  2  0
  2 10  1  0
 10 11  1  0
 11 12  1  0
 12 13  1  0
 13 14  2  0
 13 15  1  0
 15 16  1  0
 16 17  1  0
 17 18  2  0
 17 19  1  0
 19 20  1  0
 20 21  1  0
 21 22  1  0
 22 23  1  0
 23 24  1  0
 24 25  1  0
 25 26  1  0
 26 27  1  0
 15 28  1  0
 28 29  2  0
 29 30  1  0
 30 31  2  0
 31 32  1  0
 32 33  2  0
 33 34  1  0
 34 35  1  0
 35 36  1  0
 36 37  2  0
 37 38  1  0
 38 39  2  0
 39 40  1  0
 40 41  1  0
 41 42  1  0
 42 43  2  0
 42 44  1  0
 44 45  1  0
 45 46  1  0
 46 47  1  0
 40 48  2  0
 34 49  1  0
 49 50  2  0
  9  4  1  0
 49 12  1  0
 27 22  1  0
 33 28  1  0
 48 36  1  0
 47 45  1  0
  3 51  1  0
  3 52  1  0
  5 53  1  0
  6 54  1  0
  7 55  1  0
  8 56  1  0
  9 57  1  0
 11 58  1  0
 11 59  1  0
 12 60  1  6
 16 61  1  0
 16 62  1  0
 19 63  1  0
 20 64  1  0
 20 65  1  0
 21 66  1  0
 21 67  1  0
 23 68  1  0
 23 69  1  0
 24 70  1  0
 24 71  1  0
 26 72  1  0
 26 73  1  0
 27 74  1  0
 27 75  1  0
 29 76  1  0
 30 77  1  0
 31 78  1  0
 32 79  1  0
 35 80  1  0
 35 81  1  0
 37 82  1  0
 38 83  1  0
 39 84  1  0
 45 85  1  0
 46 86  1  0
 46 87  1  0
 47 88  1  0
 47 89  1  0
 48 90  1  0
M  CHG  3  10  -1  41  -1  44  -1
M  END
>  <UniqueID>  (57) 
53

>  <SMILES>  (57) 
O=C(Cc1ccccc1)[N-]C[C@@H]1C(=O)N(CC(=O)NCCN2CCOCC2)c2ccccc2N(Cc2cccc([N-]C(=O)[N-]C3CC3)c2)C1=O

>  <Energy>  (57) 
391.27478483848233

>  <Genealogy>  (57) 
O=C(Cc1ccccc1)[N-]CC1C(=O)N(CC(=O)NCCN2CCOCC2)c2ccccc2N(Cc2cccc([N-]C(=O)[N-]C3CC3)c2)C1=O (protonated)
O=C(Cc1ccccc1)[N-]C[C@@H]1C(=O)N(CC(=O)NCCN2CCOCC2)c2ccccc2N(Cc2cccc([N-]C(=O)[N-]C3CC3)c2)C1=O (chirality)
O=C(Cc1ccccc1)[N-]C[C@@H]1C(=O)N(CC(=O)NCCN2CCOCC2)c2ccccc2N(Cc2cccc([N-]C(=O)[N-]C3CC3)c2)C1=O (3D coordinates assigned)
O=C(Cc1ccccc1)[N-]C[C@@H]1C(=O)N(CC(=O)NCCN2CCOCC2)c2ccccc2N(Cc2cccc([N-]C(=O)[N-]C3CC3)c2)C1=O (nonaromatic ring conformer: 391.27478483848233 kcal/mol)

>  <smiles>  (57) 
O=C(Cc1ccccc1)NCC1C(=O)N(CC(=O)NCCN2CCOCC2)c2ccccc2N(Cc2cccc(NC(=O)NC3CC3)c2)C1=O

>  <score_type>  (57) 
oracle

>  <origin>  (57) 
adg

>  <m_score__min__energy>  (57) 
-12.48

>  <m_primary>  (57) 
energy

$$$$
57:0
     RDKit          3D

 46 49  0  0  0  0  0  0  0  0999 V2000
   61.0787   28.2290   47.3667 H   0  0  0  0  0  0  0  0  0  0  0  0
   60.2590   27.8790   46.7220 C   0  0  0  0  0  0  0  0  0  0  0  0
   60.2074   26.8216   46.4232 H   0  0  0  0  0  0  0  0  0  0  0  0
   59.3220   28.7420   46.3000 C   0  0  0  0  0  0  0  0  0  0  0  0
   58.2130   28.4700   45.4780 C   0  0  0  0  0  0  0  0  0  0  0  0
   57.7320   27.3110   44.9880 C   0  0  0  0  0  0  0  0  0  0  0  0
   57.5396   27.2643   43.9060 H   0  0  0  0  0  0  0  0  0  0  0  0
   57.4410   26.0990   45.7770 C   0  0  0  0  0  0  0  0  0  0  0  0
   56.1410   25.8240   46.2340 C   0  0  0  0  0  0  0  0  0  0  0  0
   55.1020   26.7160   45.9840 O   0  0  0  0  0  0  0  0  0  0  0  0
   55.8910   24.6790   46.9240 N   0  0  0  0  0  0  0  0  0  0  0  0
   54.9230   24.4890   47.2700 H   0  0  0  0  0  0  0  0  0  0  0  0
   56.8830   23.7780   47.1640 C   0  0  0  0  0  0  0  0  0  0  0  0
   56.6370   22.7220   47.8050 O   0  0  0  0  0  0  0  0  0  0  0  0
   58.1390   24.0110   46.7060 N   0  0  0  0  0  0  0  0  0  0  0  0
   58.4380   25.1410   46.0150 C   0  0  0  0  0  0  0  0  0  0  0  0
   59.6150   25.3200   45.6000 O   0  0  0  0  0  0  0  0  0  0  0  0
   57.6040   29.6910   45.2330 C   0  0  0  0  0  0  0  0  0  0  0  0
   56.7174   29.8662   44.6059 H   0  0  0  0  0  0  0  0  0  0  0  0
   58.3210   30.6440   45.9250 C   0  0  0  0  0  0  0  0  0  0  0  0
   57.9870   32.1040   45.9590 C   0  0  0  0  0  0  0  0  0  0  0  0
   57.9105   32.4384   47.0041 H   0  0  0  0  0  0  0  0  0  0  0  0
   58.7782   32.6731   45.4489 H   0  0  0  0  0  0  0  0  0  0  0  0
   57.0271   32.2725   45.4489 H   0  0  0  0  0  0  0  0  0  0  0  0
   59.3540   30.0710   46.5790 N   0  0  0  0  0  0  0  0  0  0  0  0
   60.3290   30.7740   47.3680 C   0  0  0  0  0  0  0  0  0  0  0  0
   61.5490   31.1620   46.7980 C   0  0  0  0  0  0  0  0  0  0  0  0
   61.7550   30.9390   45.7407 H   0  0  0  0  0  0  0  0  0  0  0  0
   62.5050   31.8310   47.5670 C   0  0  0  0  0  0  0  0  0  0  0  0
   63.4582   32.1347   47.1096 H   0  0  0  0  0  0  0  0  0  0  0  0
   62.2580   32.1190   48.9210 C   0  0  0  0  0  0  0  0  0  0  0  0
   63.2740   32.8300   49.7400 C   0  0  0  0  0  0  0  0  0  0  0  0
   62.8970   33.8950   50.5800 C   0  0  0  0  0  0  0  0  0  0  0  0
   61.8426   34.2045   50.6301 H   0  0  0  0  0  0  0  0  0  0  0  0
   63.8540   34.5620   51.3510 C   0  0  0  0  0  0  0  0  0  0  0  0
   63.5497   35.3910   52.0069 H   0  0  0  0  0  0  0  0  0  0  0  0
   65.1950   34.1780   51.2900 C   0  0  0  0  0  0  0  0  0  0  0  0
   65.9464   34.7057   51.8957 H   0  0  0  0  0  0  0  0  0  0  0  0
   65.5820   33.1240   50.4600 C   0  0  0  0  0  0  0  0  0  0  0  0
   66.6385   32.8212   50.4135 H   0  0  0  0  0  0  0  0  0  0  0  0
   64.6280   32.4520   49.6870 C   0  0  0  0  0  0  0  0  0  0  0  0
   64.9389   31.6232   49.0340 H   0  0  0  0  0  0  0  0  0  0  0  0
   61.0330   31.7220   49.4890 C   0  0  0  0  0  0  0  0  0  0  0  0
   60.8248   31.9402   50.5469 H   0  0  0  0  0  0  0  0  0  0  0  0
   60.0790   31.0520   48.7170 C   0  0  0  0  0  0  0  0  0  0  0  0
   59.1269   30.7417   49.1722 H   0  0  0  0  0  0  0  0  0  0  0  0
  1  2  1  0
  2  3  1  0
  2  4  2  0
  4  5  1  0
  5  6  2  0
  6  7  1  0
  6  8  1  0
  8  9  2  0
  9 10  1  0
  9 11  1  0
 11 12  1  0
 11 13  1  0
 13 14  2  0
 13 15  1  0
 15 16  1  0
 16 17  2  0
  5 18  1  0
 18 19  1  0
 18 20  2  0
 20 21  1  0
 21 22  1  0
 21 23  1  0
 21 24  1  0
 20 25  1  0
 25 26  1  0
 26 27  2  0
 27 28  1  0
 27 29  1  0
 29 30  1  0
 29 31  2  0
 31 32  1  0
 32 33  2  0
 33 34  1  0
 33 35  1  0
 35 36  1  0
 35 37  2  0
 37 38  1  0
 37 39  1  0
 39 40  1  0
 39 41  2  0
 41 42  1  0
 31 43  1  0
 43 44  1  0
 43 45  2  0
 45 46  1  0
 25  4  1  0
 45 26  1  0
 16  8  1  0
 41 32  1  0
M  CHG  2  10  -1  15  -1
M  END
>  <UniqueID>  (58) 
54

>  <SMILES>  (58) 
C=c1/c(=C\c2c([O-])[nH]c(=O)[n-]c2=O)cc(C)n1-c1ccc(-c2ccccc2)cc1

>  <Energy>  (58) 
105.01903548901761

>  <Genealogy>  (58) 
C=c1c(=Cc2c([O-])[nH]c(=O)[n-]c2=O)cc(C)n1-c1ccc(-c2ccccc2)cc1 (protonated)
C=c1/c(=C\c2c([O-])[nH]c(=O)[n-]c2=O)cc(C)n1-c1ccc(-c2ccccc2)cc1 (cis-trans isomerization)
C=c1/c(=C\c2c([O-])[nH]c(=O)[n-]c2=O)cc(C)n1-c1ccc(-c2ccccc2)cc1 (3D coordinates assigned)
C=c1/c(=C\c2c([O-])[nH]c(=O)[n-]c2=O)cc(C)n1-c1ccc(-c2ccccc2)cc1 (optimized conformer: 105.01903548901761 kcal/mol)

>  <smiles>  (58) 
C=c1c(=Cc2c(O)[nH]c(=O)[nH]c2=O)cc(C)n1-c1ccc(-c2ccccc2)cc1

>  <score_type>  (58) 
oracle

>  <origin>  (58) 
adg

>  <m_score__min__energy>  (58) 
-13.859999999999999

>  <m_primary>  (58) 
energy

$$$$
58:0
     RDKit          3D

 58 61  0  0  0  0  0  0  0  0999 V2000
   57.3350   24.5730   47.9100 C   0  0  0  0  0  0  0  0  0  0  0  0
   58.4760   24.8590   47.1090 O   0  0  0  0  0  0  0  0  0  0  0  0
   58.5800   25.9500   46.2320 C   0  0  0  0  0  0  0  0  0  0  0  0
   59.4280   27.0440   46.5000 C   0  0  0  0  0  0  0  0  0  0  0  0
   59.4640   28.1460   45.6380 C   0  0  0  0  0  0  0  0  0  0  0  0
   60.3250   29.2450   45.9520 N   0  0  0  0  0  0  0  0  0  0  0  0
   59.9100   30.4990   47.0760 S   0  0  0  0  0  0  0  0  0  0  0  0
   58.9770   29.9280   48.1070 O   0  0  0  0  0  0  0  0  0  0  0  0
   61.1550   30.9550   47.7820 O   0  0  0  0  0  0  0  0  0  0  0  0
   59.1600   31.8900   46.2780 C   0  0  0  0  0  0  0  0  0  0  0  0
   58.4780   31.6790   45.0670 C   0  0  0  0  0  0  0  0  0  0  0  0
   57.8370   32.7360   44.4180 C   0  0  0  0  0  0  0  0  0  0  0  0
   57.8680   34.0160   44.9680 C   0  0  0  0  0  0  0  0  0  0  0  0
   58.5470   34.2460   46.1650 C   0  0  0  0  0  0  0  0  0  0  0  0
   59.2010   33.1950   46.8320 C   0  0  0  0  0  0  0  0  0  0  0  0
   59.9310   33.5050   48.0820 C   0  0  0  0  0  0  0  0  0  0  0  0
   59.2790   33.7300   49.1380 O   0  0  0  0  0  0  0  0  0  0  0  0
   61.3710   33.4810   48.1300 N   0  0  0  0  0  0  0  0  0  0  0  0
   62.1800   33.9390   46.9950 C   0  0  0  0  0  0  0  0  0  0  0  0
   63.3600   32.9770   46.7410 C   0  0  0  0  0  0  0  0  0  0  0  0
   63.7990   32.2370   47.9430 N   0  0  0  0  0  0  0  0  0  0  0  0
   63.5520   32.9840   49.1820 C   0  0  0  0  0  0  0  0  0  0  0  0
   62.0440   33.1730   49.3990 C   0  0  0  0  0  0  0  0  0  0  0  0
   58.6970   28.1320   44.4660 C   0  0  0  0  0  0  0  0  0  0  0  0
   57.8720   27.0440   44.1800 C   0  0  0  0  0  0  0  0  0  0  0  0
   57.8000   25.9550   45.0610 C   0  0  0  0  0  0  0  0  0  0  0  0
   56.9280   24.8510   44.7620 N   0  0  0  0  0  0  0  0  0  0  0  0
   57.3420   23.8610   43.7600 C   0  0  0  0  0  0  0  0  0  0  0  0
   56.4360   22.6260   43.8200 C   0  0  0  0  0  0  0  0  0  0  0  0
   55.0800   23.0190   43.7270 O   0  0  0  0  0  0  0  0  0  0  0  0
   54.6790   23.6740   44.9190 C   0  0  0  0  0  0  0  0  0  0  0  0
   55.5710   24.8380   45.2440 C   0  0  0  0  0  0  0  0  0  0  0  0
   55.1470   25.7530   46.0010 O   0  0  0  0  0  0  0  0  0  0  0  0
   57.6072   24.6412   48.9736 H   0  0  0  0  0  0  0  0  0  0  0  0
   56.5395   25.2995   47.6878 H   0  0  0  0  0  0  0  0  0  0  0  0
   56.9763   23.5572   47.6878 H   0  0  0  0  0  0  0  0  0  0  0  0
   60.0673   27.0313   47.3950 H   0  0  0  0  0  0  0  0  0  0  0  0
   58.4491   30.6715   44.6265 H   0  0  0  0  0  0  0  0  0  0  0  0
   57.3066   32.5581   43.4709 H   0  0  0  0  0  0  0  0  0  0  0  0
   57.3567   34.8458   44.4580 H   0  0  0  0  0  0  0  0  0  0  0  0
   58.5709   35.2598   46.5912 H   0  0  0  0  0  0  0  0  0  0  0  0
   61.5485   33.9809   46.0953 H   0  0  0  0  0  0  0  0  0  0  0  0
   62.5813   34.9365   47.2271 H   0  0  0  0  0  0  0  0  0  0  0  0
   63.0534   32.2468   45.9775 H   0  0  0  0  0  0  0  0  0  0  0  0
   64.2111   33.5942   46.4175 H   0  0  0  0  0  0  0  0  0  0  0  0
   63.2740   31.3310   47.9920 H   0  0  0  0  0  0  0  0  0  0  0  0
   63.9738   32.4271   50.0316 H   0  0  0  0  0  0  0  0  0  0  0  0
   64.0289   33.9723   49.1049 H   0  0  0  0  0  0  0  0  0  0  0  0
   61.6206   32.2477   49.8169 H   0  0  0  0  0  0  0  0  0  0  0  0
   61.8892   34.0116   50.0938 H   0  0  0  0  0  0  0  0  0  0  0  0
   58.7453   28.9816   43.7689 H   0  0  0  0  0  0  0  0  0  0  0  0
   57.2737   27.0401   43.2570 H   0  0  0  0  0  0  0  0  0  0  0  0
   57.2758   24.3103   42.7581 H   0  0  0  0  0  0  0  0  0  0  0  0
   58.3771   23.5536   43.9698 H   0  0  0  0  0  0  0  0  0  0  0  0
   56.6793   21.9541   42.9837 H   0  0  0  0  0  0  0  0  0  0  0  0
   56.5974   22.1043   44.7749 H   0  0  0  0  0  0  0  0  0  0  0  0
   53.6487   24.0388   44.7953 H   0  0  0  0  0  0  0  0  0  0  0  0
   54.7463   22.9510   45.7453 H   0  0  0  0  0  0  0  0  0  0  0  0
  1  2  1  0
  2  3  1  0
  3  4  2  0
  4  5  1  0
  5  6  1  0
  6  7  1  0
  7  8  2  0
  7  9  2  0
  7 10  1  0
 10 11  2  0
 11 12  1  0
 12 13  2  0
 13 14  1  0
 14 15  2  0
 15 16  1  0
 16 17  2  0
 16 18  1  0
 18 19  1  0
 19 20  1  0
 20 21  1  0
 21 22  1  0
 22 23  1  0
  5 24  2  0
 24 25  1  0
 25 26  2  0
 26 27  1  0
 27 28  1  0
 28 29  1  0
 29 30  1  0
 30 31  1  0
 31 32  1  0
 32 33  2  0
 26  3  1  0
 32 27  1  0
 15 10  1  0
 23 18  1  0
  1 34  1  0
  1 35  1  0
  1 36  1  0
  4 37  1  0
 11 38  1  0
 12 39  1  0
 13 40  1  0
 14 41  1  0
 19 42  1  0
 19 43  1  0
 20 44  1  0
 20 45  1  0
 21 46  1  0
 22 47  1  0
 22 48  1  0
 23 49  1  0
 23 50  1  0
 24 51  1  0
 25 52  1  0
 28 53  1  0
 28 54  1  0
 29 55  1  0
 29 56  1  0
 31 57  1  0
 31 58  1  0
M  CHG  1   6  -1
M  END
>  <UniqueID>  (59) 
55

>  <SMILES>  (59) 
COc1cc([N-]S(=O)(=O)c2ccccc2C(=O)N2CCNCC2)ccc1N1CCOCC1=O

>  <Energy>  (59) 
88.68230162517214

>  <Genealogy>  (59) 
COc1cc([N-]S(=O)(=O)c2ccccc2C(=O)N2CCNCC2)ccc1N1CCOCC1=O (protonated)
COc1cc([N-]S(=O)(=O)c2ccccc2C(=O)N2CCNCC2)ccc1N1CCOCC1=O (3D coordinates assigned)
COc1cc([N-]S(=O)(=O)c2ccccc2C(=O)N2CCNCC2)ccc1N1CCOCC1=O (nonaromatic ring conformer: 88.68230162517214 kcal/mol)

>  <smiles>  (59) 
COc1cc(NS(=O)(=O)c2ccccc2C(=O)N2CCNCC2)ccc1N1CCOCC1=O

>  <score_type>  (59) 
oracle

>  <origin>  (59) 
adg

>  <m_score__min__energy>  (59) 
-10.66

>  <m_primary>  (59) 
energy

$$$$
59:0
     RDKit          3D

 53 55  0  0  0  0  0  0  0  0999 V2000
   59.3389   30.7359   44.0882 H   0  0  0  0  0  0  0  0  0  0  0  0
   58.6640   30.0290   44.5930 C   0  0  0  0  0  0  0  0  0  0  0  0
   57.2540   30.4170   44.8100 C   0  0  0  0  0  0  0  0  0  0  0  0
   56.3400   29.5720   44.6190 O   0  0  0  0  0  0  0  0  0  0  0  0
   56.8890   31.7280   45.2720 N   0  0  0  0  0  0  0  0  0  0  0  0
   57.6920   32.7330   45.4640 C   0  0  0  0  0  0  0  0  0  0  0  0
   58.2170   33.0710   46.6600 N   0  0  0  0  0  0  0  0  0  0  0  0
   59.0750   34.1190   46.5560 C   0  0  0  0  0  0  0  0  0  0  0  0
   59.7680   34.6970   47.7550 C   0  0  0  0  0  0  0  0  0  0  0  0
   60.8320   34.8452   47.5184 H   0  0  0  0  0  0  0  0  0  0  0  0
   59.2910   35.6558   48.0062 H   0  0  0  0  0  0  0  0  0  0  0  0
   59.6510   33.7760   48.9460 C   0  0  0  0  0  0  0  0  0  0  0  0
   59.4050   34.2650   50.0340 O   0  0  0  0  0  0  0  0  0  0  0  0
   59.8770   32.3440   48.8030 N   0  0  0  0  0  0  0  0  0  0  0  0
   59.4180   32.0750   47.8970 H   0  0  0  0  0  0  0  0  0  0  0  0
   59.1850   31.5100   49.8180 C   0  0  0  0  0  0  0  0  0  0  0  0
   59.9153   31.2600   50.6017 H   0  0  0  0  0  0  0  0  0  0  0  0
   58.3357   32.1154   50.1677 H   0  0  0  0  0  0  0  0  0  0  0  0
   58.5700   30.1900   49.3090 C   0  0  0  0  0  0  0  0  0  0  0  0
   57.9281   29.7933   50.1094 H   0  0  0  0  0  0  0  0  0  0  0  0
   58.0439   30.4604   48.3816 H   0  0  0  0  0  0  0  0  0  0  0  0
   59.5470   29.0720   48.9010 C   0  0  0  0  0  0  0  0  0  0  0  0
   59.9502   28.6216   49.8200 H   0  0  0  0  0  0  0  0  0  0  0  0
   58.9654   28.3715   48.2838 H   0  0  0  0  0  0  0  0  0  0  0  0
   60.7300   29.5170   48.0340 C   0  0  0  0  0  0  0  0  0  0  0  0
   61.3108   28.6290   47.7439 H   0  0  0  0  0  0  0  0  0  0  0  0
   60.3268   30.0362   47.1520 H   0  0  0  0  0  0  0  0  0  0  0  0
   61.6550   30.4930   48.7750 C   0  0  0  0  0  0  0  0  0  0  0  0
   61.6088   30.2613   49.8493 H   0  0  0  0  0  0  0  0  0  0  0  0
   62.6595   30.3568   48.3478 H   0  0  0  0  0  0  0  0  0  0  0  0
   61.2980   31.9800   48.5880 C   0  0  0  0  0  0  0  0  0  0  0  0
   61.9046   32.5625   49.2970 H   0  0  0  0  0  0  0  0  0  0  0  0
   61.5016   32.2008   47.5298 H   0  0  0  0  0  0  0  0  0  0  0  0
   59.2230   34.6340   45.2700 C   0  0  0  0  0  0  0  0  0  0  0  0
   59.8554   35.4872   44.9834 H   0  0  0  0  0  0  0  0  0  0  0  0
   58.2620   33.7190   44.2310 S   0  0  0  0  0  0  0  0  0  0  0  0
   59.1460   28.8450   44.9910 C   0  0  0  0  0  0  0  0  0  0  0  0
   60.2362   28.6982   44.9907 H   0  0  0  0  0  0  0  0  0  0  0  0
   58.2850   27.7220   45.4320 C   0  0  0  0  0  0  0  0  0  0  0  0
   57.8180   27.6080   46.7560 C   0  0  0  0  0  0  0  0  0  0  0  0
   58.0850   28.3746   47.4983 H   0  0  0  0  0  0  0  0  0  0  0  0
   57.0180   26.5270   47.1310 C   0  0  0  0  0  0  0  0  0  0  0  0
   56.6521   26.4498   48.1655 H   0  0  0  0  0  0  0  0  0  0  0  0
   56.6800   25.5430   46.1990 C   0  0  0  0  0  0  0  0  0  0  0  0
   55.8760   24.4770   46.5860 O   0  0  0  0  0  0  0  0  0  0  0  0
   57.1460   25.6280   44.8800 C   0  0  0  0  0  0  0  0  0  0  0  0
   56.7820   24.6180   43.9750 O   0  0  0  0  0  0  0  0  0  0  0  0
   57.0230   23.2280   44.1750 C   0  0  0  0  0  0  0  0  0  0  0  0
   57.0601   23.0137   45.2533 H   0  0  0  0  0  0  0  0  0  0  0  0
   56.2125   22.6452   43.7131 H   0  0  0  0  0  0  0  0  0  0  0  0
   57.9824   22.9520   43.7131 H   0  0  0  0  0  0  0  0  0  0  0  0
   57.9570   26.7170   44.5050 C   0  0  0  0  0  0  0  0  0  0  0  0
   58.3381   26.7819   43.4752 H   0  0  0  0  0  0  0  0  0  0  0  0
  1  2  1  0
  2  3  1  0
  3  4  2  0
  3  5  1  0
  5  6  2  3
  6  7  1  0
  7  8  1  0
  8  9  1  0
  9 10  1  0
  9 11  1  0
  9 12  1  0
 12 13  2  0
 12 14  1  0
 14 15  1  0
 14 16  1  0
 16 17  1  0
 16 18  1  0
 16 19  1  0
 19 20  1  0
 19 21  1  0
 19 22  1  0
 22 23  1  0
 22 24  1  0
 22 25  1  0
 25 26  1  0
 25 27  1  0
 25 28  1  0
 28 29  1  0
 28 30  1  0
 28 31  1  0
 31 32  1  0
 31 33  1  0
  8 34  2  0
 34 35  1  0
 34 36  1  0
  2 37  2  0
 37 38  1  0
 37 39  1  0
 39 40  2  0
 40 41  1  0
 40 42  1  0
 42 43  1  0
 42 44  2  0
 44 45  1  0
 44 46  1  0
 46 47  1  0
 47 48  1  0
 48 49  1  0
 48 50  1  0
 48 51  1  0
 46 52  2  0
 52 53  1  0
 36  6  1  0
 52 39  1  0
 31 14  1  0
M  CHG  3   7  -1  14   1  45  -1
M  END
>  <UniqueID>  (60) 
56

>  <SMILES>  (60) 
COc1cc(/C=C/C(=O)N=c2[n-]c(CC(=O)[NH+]3CCCCCC3)cs2)ccc1[O-]

>  <Energy>  (60) 
97.70097795203448

>  <Genealogy>  (60) 
COc1cc(C=CC(=O)N=c2[n-]c(CC(=O)[NH+]3CCCCCC3)cs2)ccc1[O-] (protonated)
COc1cc(/C=C/C(=O)N=c2[n-]c(CC(=O)[NH+]3CCCCCC3)cs2)ccc1[O-] (cis-trans isomerization)
COc1cc(/C=C/C(=O)N=c2[n-]c(CC(=O)[NH+]3CCCCCC3)cs2)ccc1[O-] (3D coordinates assigned)
COc1cc(/C=C/C(=O)N=c2[n-]c(CC(=O)[NH+]3CCCCCC3)cs2)ccc1[O-] (nonaromatic ring conformer: 97.70097795203448 kcal/mol)

>  <smiles>  (60) 
COc1cc(C=CC(=O)N=c2[nH]c(CC(=O)N3CCCCCC3)cs2)ccc1O

>  <score_type>  (60) 
oracle

>  <origin>  (60) 
adg

>  <m_score__min__energy>  (60) 
-9.4000000000000004

>  <m_primary>  (60) 
energy

$$$$
60:0
     RDKit          3D

 60 64  0  0  0  0  0  0  0  0999 V2000
   60.9910   32.8370   50.6110 H   0  0  0  0  0  0  0  0  0  0  0  0
   60.4030   33.2610   51.3200 O   0  0  0  0  0  0  0  0  0  0  0  0
   59.2210   32.6550   51.7490 C   0  0  0  0  0  0  0  0  0  0  0  0
   58.9410   32.5610   53.1210 C   0  0  0  0  0  0  0  0  0  0  0  0
   59.6474   32.9772   53.8544 H   0  0  0  0  0  0  0  0  0  0  0  0
   57.7670   31.9400   53.5590 C   0  0  0  0  0  0  0  0  0  0  0  0
   57.5486   31.8746   54.6351 H   0  0  0  0  0  0  0  0  0  0  0  0
   56.8720   31.4030   52.6320 C   0  0  0  0  0  0  0  0  0  0  0  0
   55.9534   30.9074   52.9792 H   0  0  0  0  0  0  0  0  0  0  0  0
   57.1410   31.4940   51.2630 C   0  0  0  0  0  0  0  0  0  0  0  0
   56.4381   31.0586   50.5375 H   0  0  0  0  0  0  0  0  0  0  0  0
   58.3050   32.1390   50.8080 C   0  0  0  0  0  0  0  0  0  0  0  0
   58.5710   32.2540   49.3270 C   0  0  0  0  0  0  0  0  0  0  0  0
   58.4152   33.2971   49.0146 H   0  0  0  0  0  0  0  0  0  0  0  0
   57.8802   31.5824   48.7962 H   0  0  0  0  0  0  0  0  0  0  0  0
   59.9400   31.8590   49.0030 N   0  0  0  0  0  0  0  0  0  0  0  0
   60.5830   30.6590   49.4520 C   0  0  0  0  0  0  0  0  0  0  0  0
   61.4300   30.7310   50.3800 O   0  0  0  0  0  0  0  0  0  0  0  0
   60.2600   29.3450   48.8770 C   0  0  0  0  0  0  0  0  0  0  0  0
   60.7640   28.1800   49.4670 C   0  0  0  0  0  0  0  0  0  0  0  0
   61.4163   28.2491   50.3500 H   0  0  0  0  0  0  0  0  0  0  0  0
   60.4390   26.9290   48.9350 C   0  0  0  0  0  0  0  0  0  0  0  0
   60.8276   26.0143   49.4064 H   0  0  0  0  0  0  0  0  0  0  0  0
   59.6210   26.8380   47.8050 C   0  0  0  0  0  0  0  0  0  0  0  0
   59.3485   25.8507   47.4038 H   0  0  0  0  0  0  0  0  0  0  0  0
   59.1450   28.0050   47.1790 C   0  0  0  0  0  0  0  0  0  0  0  0
   58.2510   27.9510   46.0530 N   0  0  0  0  0  0  0  0  0  0  0  0
   57.5550   28.9350   45.5620 C   0  0  0  0  0  0  0  0  0  0  0  0
   58.0420   30.2000   45.6500 N   0  0  0  0  0  0  0  0  0  0  0  0
   57.3450   31.2410   45.1300 C   0  0  0  0  0  0  0  0  0  0  0  0
   57.8470   32.5680   45.2530 N   0  0  0  0  0  0  0  0  0  0  0  0
   57.6030   33.7510   46.1000 C   0  0  0  0  0  0  0  0  0  0  0  0
   56.5860   34.1538   45.9842 H   0  0  0  0  0  0  0  0  0  0  0  0
   57.6658   33.6094   47.1890 H   0  0  0  0  0  0  0  0  0  0  0  0
   58.6450   34.6190   45.4630 C   0  0  0  0  0  0  0  0  0  0  0  0
   58.4535   35.6242   45.0593 H   0  0  0  0  0  0  0  0  0  0  0  0
   59.8100   34.9760   46.3930 C   0  0  0  0  0  0  0  0  0  0  0  0
   60.1540   35.9977   46.1746 H   0  0  0  0  0  0  0  0  0  0  0  0
   59.4757   34.9182   47.4394 H   0  0  0  0  0  0  0  0  0  0  0  0
   60.8820   34.0580   46.1840 O   0  0  0  0  0  0  0  0  0  0  0  0
   61.8120   33.6920   47.1680 C   0  0  0  0  0  0  0  0  0  0  0  0
   62.8130   32.7730   46.8290 C   0  0  0  0  0  0  0  0  0  0  0  0
   62.8503   32.3573   45.8113 H   0  0  0  0  0  0  0  0  0  0  0  0
   63.7650   32.3800   47.7740 C   0  0  0  0  0  0  0  0  0  0  0  0
   64.5478   31.6581   47.4981 H   0  0  0  0  0  0  0  0  0  0  0  0
   63.7230   32.9040   49.0700 C   0  0  0  0  0  0  0  0  0  0  0  0
   64.9220   32.4150   50.2530 Cl  0  0  0  0  0  0  0  0  0  0  0  0
   62.7280   33.8210   49.4200 C   0  0  0  0  0  0  0  0  0  0  0  0
   62.6951   34.2334   50.4392 H   0  0  0  0  0  0  0  0  0  0  0  0
   61.7740   34.2150   48.4760 C   0  0  0  0  0  0  0  0  0  0  0  0
   60.9914   34.9356   48.7556 H   0  0  0  0  0  0  0  0  0  0  0  0
   58.8780   33.4070   44.6110 C   0  0  0  0  0  0  0  0  0  0  0  0
   58.6740   33.5905   43.5458 H   0  0  0  0  0  0  0  0  0  0  0  0
   59.9019   33.0064   44.5769 H   0  0  0  0  0  0  0  0  0  0  0  0
   56.1590   31.0200   44.5110 N   0  0  0  0  0  0  0  0  0  0  0  0
   55.6710   29.7580   44.4120 C   0  0  0  0  0  0  0  0  0  0  0  0
   54.7094   29.5778   43.9092 H   0  0  0  0  0  0  0  0  0  0  0  0
   56.3690   28.7190   44.9330 N   0  0  0  0  0  0  0  0  0  0  0  0
   59.4620   29.2550   47.7290 C   0  0  0  0  0  0  0  0  0  0  0  0
   59.0813   30.1720   47.2556 H   0  0  0  0  0  0  0  0  0  0  0  0
  1  2  1  0
  2  3  1  0
  3  4  2  0
  4  5  1  0
  4  6  1  0
  6  7  1  0
  6  8  2  0
  8  9  1  0
  8 10  1  0
 10 11  1  0
 10 12  2  0
 12 13  1  0
 13 14  1  0
 13 15  1  0
 13 16  1  0
 16 17  1  0
 17 18  2  0
 17 19  1  0
 19 20  2  0
 20 21  1  0
 20 22  1  0
 22 23  1  0
 22 24  2  0
 24 25  1  0
 24 26  1  0
 26 27  1  0
 27 28  2  0
 28 29  1  0
 29 30  2  0
 30 31  1  0
 31 32  1  0
 32 33  1  0
 32 34  1  0
 32 35  1  0
 35 36  1  0
 35 37  1  0
 37 38  1  0
 37 39  1  0
 37 40  1  0
 40 41  1  0
 41 42  2  0
 42 43  1  0
 42 44  1  0
 44 45  1  0
 44 46  2  0
 46 47  1  0
 46 48  1  0
 48 49  1  0
 48 50  2  0
 50 51  1  0
 35 52  1  0
 52 53  1  0
 52 54  1  0
 30 55  1  0
 55 56  2  0
 56 57  1  0
 56 58  1  0
 26 59  2  0
 59 60  1  0
 12  3  1  0
 59 19  1  0
 58 28  1  0
 52 31  1  0
 50 41  1  0
M  CHG  2  16  -1  58  -1
M  END
>  <UniqueID>  (61) 
57

>  <SMILES>  (61) 
O=C([N-]Cc1ccccc1O)c1cccc(/N=c2/nc(N3CC(COc4ccc(Cl)cc4)C3)nc[n-]2)c1

>  <Energy>  (61) 
119.12018281667838

>  <Genealogy>  (61) 
O=C([N-]Cc1ccccc1O)c1cccc(N=c2nc(N3CC(COc4ccc(Cl)cc4)C3)nc[n-]2)c1 (protonated)
O=C([N-]Cc1ccccc1O)c1cccc(/N=c2/nc(N3CC(COc4ccc(Cl)cc4)C3)nc[n-]2)c1 (cis-trans isomerization)
O=C([N-]Cc1ccccc1O)c1cccc(/N=c2/nc(N3CC(COc4ccc(Cl)cc4)C3)nc[n-]2)c1 (3D coordinates assigned)
O=C([N-]Cc1ccccc1O)c1cccc(/N=c2/nc(N3CC(COc4ccc(Cl)cc4)C3)nc[n-]2)c1 (nonaromatic ring conformer: 119.12018281667838 kcal/mol)

>  <smiles>  (61) 
O=C(NCc1ccccc1O)c1cccc(N=c2nc(N3CC(COc4ccc(Cl)cc4)C3)nc[nH]2)c1

>  <score_type>  (61) 
oracle

>  <origin>  (61) 
adg

>  <m_score__min__energy>  (61) 
-12.43

>  <m_primary>  (61) 
energy

$$$$
61:0
     RDKit          3D

 40 42  0  0  0  0  0  0  0  0999 V2000
   59.0690   22.9600   45.4970 O   0  0  0  0  0  0  0  0  0  0  0  0
   58.2770   23.9100   45.7350 C   0  0  0  0  0  0  0  0  0  0  0  0
   58.8080   25.1490   46.2260 N   0  0  0  0  0  0  0  0  0  0  0  0
   58.5050   26.4440   45.6920 C   0  0  0  0  0  0  0  0  0  0  0  0
   58.3330   27.5210   46.5700 C   0  0  0  0  0  0  0  0  0  0  0  0
   57.9560   28.7750   46.0820 C   0  0  0  0  0  0  0  0  0  0  0  0
   57.7650   28.9670   44.7070 C   0  0  0  0  0  0  0  0  0  0  0  0
   57.1720   30.5100   44.0950 S   0  0  0  0  0  0  0  0  0  0  0  0
   56.8200   30.3660   42.6400 O   0  0  0  0  0  0  0  0  0  0  0  0
   55.9170   30.8760   44.8370 O   0  0  0  0  0  0  0  0  0  0  0  0
   58.3500   31.7950   44.2830 N   0  0  0  0  0  0  0  0  0  0  0  0
   58.8920   31.8710   45.6540 C   0  0  0  0  0  0  0  0  0  0  0  0
   57.9780   32.6550   46.6260 C   0  0  0  0  0  0  0  0  0  0  0  0
   56.9120   33.3210   45.9800 O   0  0  0  0  0  0  0  0  0  0  0  0
   57.4040   34.0490   44.8800 C   0  0  0  0  0  0  0  0  0  0  0  0
   57.8710   33.0950   43.7670 C   0  0  0  0  0  0  0  0  0  0  0  0
   58.0070   27.9090   43.8210 C   0  0  0  0  0  0  0  0  0  0  0  0
   58.3770   26.6550   44.3100 C   0  0  0  0  0  0  0  0  0  0  0  0
   56.8230   23.7150   45.5150 C   0  0  0  0  0  0  0  0  0  0  0  0
   55.8510   24.4210   46.2600 C   0  0  0  0  0  0  0  0  0  0  0  0
   56.1950   25.2580   47.3230 O   0  0  0  0  0  0  0  0  0  0  0  0
   54.5350   24.2720   45.9580 N   0  0  0  0  0  0  0  0  0  0  0  0
   54.1270   23.4380   44.9710 C   0  0  0  0  0  0  0  0  0  0  0  0
   52.9010   23.3220   44.7130 O   0  0  0  0  0  0  0  0  0  0  0  0
   55.0380   22.7240   44.2640 N   0  0  0  0  0  0  0  0  0  0  0  0
   56.3670   22.8380   44.5130 C   0  0  0  0  0  0  0  0  0  0  0  0
   57.1830   22.1700   43.8220 O   0  0  0  0  0  0  0  0  0  0  0  0
   58.4953   27.3794   47.6487 H   0  0  0  0  0  0  0  0  0  0  0  0
   57.8088   29.6134   46.7788 H   0  0  0  0  0  0  0  0  0  0  0  0
   59.0160   30.8479   46.0386 H   0  0  0  0  0  0  0  0  0  0  0  0
   59.8497   32.4093   45.5985 H   0  0  0  0  0  0  0  0  0  0  0  0
   57.5564   31.9476   47.3552 H   0  0  0  0  0  0  0  0  0  0  0  0
   58.5993   33.4257   47.1056 H   0  0  0  0  0  0  0  0  0  0  0  0
   56.6062   34.6978   44.4894 H   0  0  0  0  0  0  0  0  0  0  0  0
   58.2597   34.6564   45.2098 H   0  0  0  0  0  0  0  0  0  0  0  0
   57.0272   32.9121   43.0854 H   0  0  0  0  0  0  0  0  0  0  0  0
   58.7165   33.5769   43.2542 H   0  0  0  0  0  0  0  0  0  0  0  0
   57.9052   28.0669   42.7372 H   0  0  0  0  0  0  0  0  0  0  0  0
   58.5690   25.8288   43.6096 H   0  0  0  0  0  0  0  0  0  0  0  0
   57.1470   25.5320   47.5240 H   0  0  0  0  0  0  0  0  0  0  0  0
  1  2  2  0
  2  3  1  0
  3  4  1  0
  4  5  2  0
  5  6  1  0
  6  7  2  0
  7  8  1  0
  8  9  2  0
  8 10  2  0
  8 11  1  0
 11 12  1  0
 12 13  1  0
 13 14  1  0
 14 15  1  0
 15 16  1  0
  7 17  1  0
 17 18  2  0
  2 19  1  0
 19 20  2  0
 20 21  1  0
 20 22  1  0
 22 23  1  0
 23 24  2  0
 23 25  1  0
 25 26  1  0
 26 27  2  0
 18  4  1  0
 26 19  1  0
 16 11  1  0
  5 28  1  0
  6 29  1  0
 12 30  1  0
 12 31  1  0
 13 32  1  0
 13 33  1  0
 15 34  1  0
 15 35  1  0
 16 36  1  0
 16 37  1  0
 17 38  1  0
 18 39  1  0
 21 40  1  0
M  CHG  3   3  -1  22  -1  25  -1
M  END
>  <UniqueID>  (62) 
58

>  <SMILES>  (62) 
O=C([N-]c1ccc(S(=O)(=O)N2CCOCC2)cc1)c1c(O)[n-]c(=O)[n-]c1=O

>  <Energy>  (62) 
63.18075549522414

>  <Genealogy>  (62) 
O=C([N-]c1ccc(S(=O)(=O)N2CCOCC2)cc1)c1c(O)[n-]c(=O)[n-]c1=O (protonated)
O=C([N-]c1ccc(S(=O)(=O)N2CCOCC2)cc1)c1c(O)[n-]c(=O)[n-]c1=O (3D coordinates assigned)
O=C([N-]c1ccc(S(=O)(=O)N2CCOCC2)cc1)c1c(O)[n-]c(=O)[n-]c1=O (nonaromatic ring conformer: 63.18075549522414 kcal/mol)

>  <smiles>  (62) 
O=C(Nc1ccc(S(=O)(=O)N2CCOCC2)cc1)c1c(O)[nH]c(=O)[nH]c1=O

>  <score_type>  (62) 
oracle

>  <origin>  (62) 
adg

>  <m_score__min__energy>  (62) 
-13.56

>  <m_primary>  (62) 
energy

$$$$
62:0
     RDKit          3D

 37 39  0  0  0  0  0  0  0  0999 V2000
   59.4720   30.6590   49.0350 C   0  0  0  0  0  0  0  0  0  0  0  0
   59.5320   30.6920   47.4850 C   0  0  1  0  0  0  0  0  0  0  0  0
   59.2850   32.1490   47.0840 C   0  0  0  0  0  0  0  0  0  0  0  0
   58.1440   32.5480   46.8980 O   0  0  0  0  0  0  0  0  0  0  0  0
   60.4140   33.1610   46.9960 C   0  0  0  0  0  0  0  0  0  0  0  0
   61.7660   32.6390   47.4400 C   0  0  0  0  0  0  0  0  0  0  0  0
   62.6500   33.4430   47.6930 O   0  0  0  0  0  0  0  0  0  0  0  0
   62.0690   31.1680   47.5720 C   0  0  0  0  0  0  0  0  0  0  0  0
   60.9370   30.3640   46.9820 C   0  0  0  0  0  0  0  0  0  0  0  0
   61.1480   29.7180   45.8110 C   0  0  0  0  0  0  0  0  0  0  0  0
   60.0550   29.0770   45.0010 C   0  0  0  0  0  0  0  0  0  0  0  0
   58.6620   29.6700   45.3070 C   0  0  1  0  0  0  0  0  0  0  0  0
   57.5330   28.8700   44.6020 C   0  0  2  0  0  0  0  0  0  0  0  0
   56.2170   29.6050   44.6880 C   0  0  0  0  0  0  0  0  0  0  0  0
   55.1500   28.9590   44.8630 O   0  0  0  0  0  0  0  0  0  0  0  0
   56.1580   30.9850   44.5260 O   0  0  0  0  0  0  0  0  0  0  0  0
   57.4090   27.4200   45.1250 C   0  0  0  0  0  0  0  0  0  0  0  0
   57.6220   27.2880   46.6090 C   0  0  0  0  0  0  0  0  0  0  0  0
   57.2510   26.2290   47.1830 O   0  0  0  0  0  0  0  0  0  0  0  0
   58.3360   28.3200   47.3860 C   0  0  0  0  0  0  0  0  0  0  0  0
   58.7590   28.0180   48.5320 O   0  0  0  0  0  0  0  0  0  0  0  0
   58.4470   29.7400   46.8380 C   0  0  1  0  0  0  0  0  0  0  0  0
   60.3657   31.1505   49.4471 H   0  0  0  0  0  0  0  0  0  0  0  0
   58.5711   31.1885   49.3784 H   0  0  0  0  0  0  0  0  0  0  0  0
   59.4367   29.6146   49.3784 H   0  0  0  0  0  0  0  0  0  0  0  0
   60.4998   33.4891   45.9496 H   0  0  0  0  0  0  0  0  0  0  0  0
   60.1541   33.9783   47.6848 H   0  0  0  0  0  0  0  0  0  0  0  0
   63.0011   30.9365   47.0356 H   0  0  0  0  0  0  0  0  0  0  0  0
   62.1835   30.9123   48.6357 H   0  0  0  0  0  0  0  0  0  0  0  0
   62.1782   29.6586   45.4301 H   0  0  0  0  0  0  0  0  0  0  0  0
   60.2743   29.2259   43.9334 H   0  0  0  0  0  0  0  0  0  0  0  0
   60.0275   28.0095   45.2650 H   0  0  0  0  0  0  0  0  0  0  0  0
   58.6190   30.6923   44.9033 H   0  0  0  0  0  0  0  0  0  0  0  0
   57.8138   28.7897   43.5415 H   0  0  0  0  0  0  0  0  0  0  0  0
   58.1588   26.8008   44.6108 H   0  0  0  0  0  0  0  0  0  0  0  0
   56.3791   27.0928   44.9193 H   0  0  0  0  0  0  0  0  0  0  0  0
   57.4945   30.2135   47.1181 H   0  0  0  0  0  0  0  0  0  0  0  0
  2  1  1  1
  2  3  1  0
  3  4  2  0
  3  5  1  0
  5  6  1  0
  6  7  2  0
  6  8  1  0
  8  9  1  0
  9 10  2  0
 10 11  1  0
 11 12  1  0
 12 13  1  0
 13 14  1  0
 14 15  2  0
 14 16  1  0
 13 17  1  0
 17 18  1  0
 18 19  2  0
 18 20  1  0
 20 21  2  0
 20 22  1  0
  9  2  1  0
 22 12  1  0
 22  2  1  0
  1 23  1  0
  1 24  1  0
  1 25  1  0
  5 26  1  0
  5 27  1  0
  8 28  1  0
  8 29  1  0
 10 30  1  0
 11 31  1  0
 11 32  1  0
 12 33  1  6
 13 34  1  6
 17 35  1  0
 17 36  1  0
 22 37  1  6
M  CHG  1  16  -1
M  END
>  <UniqueID>  (63) 
59

>  <SMILES>  (63) 
C[C@@]12C(=O)CC(=O)CC1=CC[C@H]1C(C(=O)[O-])CC(=O)C(=O)C12

>  <Energy>  (63) 
55.612383757699334

>  <Genealogy>  (63) 
CC12C(=O)CC(=O)CC1=CCC1C(C(=O)[O-])CC(=O)C(=O)C12 (protonated)
C[C@@]12C(=O)CC(=O)CC1=CC[C@H]1C(C(=O)[O-])CC(=O)C(=O)C12 (chirality)
C[C@@]12C(=O)CC(=O)CC1=CC[C@H]1C(C(=O)[O-])CC(=O)C(=O)C12 (3D coordinates assigned)
C[C@@]12C(=O)CC(=O)CC1=CC[C@H]1C(C(=O)[O-])CC(=O)C(=O)C12 (nonaromatic ring conformer: 55.612383757699334 kcal/mol)

>  <smiles>  (63) 
CC12C(=O)CC(=O)CC1=CCC1C(C(=O)O)CC(=O)C(=O)C12

>  <score_type>  (63) 
oracle

>  <origin>  (63) 
adg

>  <m_score__min__energy>  (63) 
-10.25

>  <m_primary>  (63) 
energy

$$$$
63:0
     RDKit          3D

 64 67  0  0  0  0  0  0  0  0999 V2000
   60.0160   29.3910   44.6800 H   0  0  0  0  0  0  0  0  0  0  0  0
   60.4970   29.6490   45.5330 O   0  0  0  0  0  0  0  0  0  0  0  0
   59.9990   29.3080   46.7910 C   0  0  0  0  0  0  0  0  0  0  0  0
   60.3120   30.1160   47.8940 C   0  0  0  0  0  0  0  0  0  0  0  0
   60.9398   31.0080   47.7517 H   0  0  0  0  0  0  0  0  0  0  0  0
   59.8360   29.8030   49.1760 C   0  0  0  0  0  0  0  0  0  0  0  0
   60.1820   30.6780   50.3580 C   0  0  0  0  0  0  0  0  0  0  0  0
   61.0160   31.3398   50.0814 H   0  0  0  0  0  0  0  0  0  0  0  0
   60.4622   30.0276   51.1997 H   0  0  0  0  0  0  0  0  0  0  0  0
   59.0320   31.5030   50.7720 N   0  0  0  0  0  0  0  0  0  0  0  0
   58.9870   32.9140   50.4710 C   0  0  0  0  0  0  0  0  0  0  0  0
   58.9500   33.7370   51.4270 O   0  0  0  0  0  0  0  0  0  0  0  0
   58.9250   33.4120   49.0360 C   0  0  0  0  0  0  0  0  0  0  0  0
   58.3694   34.3611   49.0575 H   0  0  0  0  0  0  0  0  0  0  0  0
   60.3410   33.6570   48.4870 C   0  0  0  0  0  0  0  0  0  0  0  0
   60.8887   34.3024   49.1895 H   0  0  0  0  0  0  0  0  0  0  0  0
   60.8386   32.6823   48.3762 H   0  0  0  0  0  0  0  0  0  0  0  0
   60.3080   34.3390   47.1040 C   0  0  0  0  0  0  0  0  0  0  0  0
   60.4082   35.4248   47.2491 H   0  0  0  0  0  0  0  0  0  0  0  0
   61.1368   33.9175   46.5163 H   0  0  0  0  0  0  0  0  0  0  0  0
   59.0100   34.0700   46.3140 C   0  0  0  0  0  0  0  0  0  0  0  0
   58.2556   34.8170   46.6019 H   0  0  0  0  0  0  0  0  0  0  0  0
   59.2402   34.1378   45.2405 H   0  0  0  0  0  0  0  0  0  0  0  0
   58.4570   32.6700   46.5980 C   0  0  0  0  0  0  0  0  0  0  0  0
   57.5292   32.5335   46.0231 H   0  0  0  0  0  0  0  0  0  0  0  0
   59.2253   31.9401   46.3032 H   0  0  0  0  0  0  0  0  0  0  0  0
   58.1490   32.4500   48.0970 C   0  0  0  0  0  0  0  0  0  0  0  0
   57.0713   32.6014   48.2569 H   0  0  0  0  0  0  0  0  0  0  0  0
   58.4680   31.4272   48.3462 H   0  0  0  0  0  0  0  0  0  0  0  0
   57.9250   30.9090   51.4870 C   0  0  0  0  0  0  0  0  0  0  0  0
   58.1090   29.7790   52.3040 C   0  0  0  0  0  0  0  0  0  0  0  0
   59.1108   29.3358   52.4041 H   0  0  0  0  0  0  0  0  0  0  0  0
   57.0310   29.2150   52.9890 C   0  0  0  0  0  0  0  0  0  0  0  0
   57.1881   28.3342   53.6289 H   0  0  0  0  0  0  0  0  0  0  0  0
   55.7540   29.7660   52.8640 C   0  0  0  0  0  0  0  0  0  0  0  0
   54.9115   29.3276   53.4190 H   0  0  0  0  0  0  0  0  0  0  0  0
   55.5410   30.8770   52.0330 C   0  0  0  0  0  0  0  0  0  0  0  0
   54.2130   31.5140   51.9290 C   0  0  0  0  0  0  0  0  0  0  0  0
   54.1526   32.5922   52.1385 H   0  0  0  0  0  0  0  0  0  0  0  0
   53.0740   30.8860   51.6000 C   0  0  0  0  0  0  0  0  0  0  0  0
   52.9810   29.8281   51.8868 H   0  0  0  0  0  0  0  0  0  0  0  0
   51.9360   31.4950   50.8860 C   0  0  0  0  0  0  0  0  0  0  0  0
   51.3970   30.8660   49.9390 O   0  0  0  0  0  0  0  0  0  0  0  0
   51.4070   32.7210   51.2730 O   0  0  0  0  0  0  0  0  0  0  0  0
   56.6330   31.4570   51.3690 C   0  0  0  0  0  0  0  0  0  0  0  0
   56.4777   32.3516   50.7481 H   0  0  0  0  0  0  0  0  0  0  0  0
   59.0670   28.6440   49.3480 C   0  0  0  0  0  0  0  0  0  0  0  0
   58.7084   28.3720   50.3517 H   0  0  0  0  0  0  0  0  0  0  0  0
   58.7520   27.8320   48.2580 C   0  0  0  0  0  0  0  0  0  0  0  0
   58.1464   26.9268   48.4126 H   0  0  0  0  0  0  0  0  0  0  0  0
   59.1990   28.1560   46.9630 C   0  0  0  0  0  0  0  0  0  0  0  0
   58.8320   27.2750   45.8220 C   0  0  0  0  0  0  0  0  0  0  0  0
   58.8490   26.0230   45.9700 O   0  0  0  0  0  0  0  0  0  0  0  0
   58.3260   27.8340   44.6010 N   0  0  0  0  0  0  0  0  0  0  0  0
   57.7460   28.9860   44.4030 C   0  0  0  0  0  0  0  0  0  0  0  0
   58.4850   29.9700   43.8170 N   0  0  0  0  0  0  0  0  0  0  0  0
   57.9930   31.2120   43.5750 C   0  0  0  0  0  0  0  0  0  0  0  0
   58.6314   31.9741   43.1041 H   0  0  0  0  0  0  0  0  0  0  0  0
   56.6790   31.5220   43.9230 C   0  0  0  0  0  0  0  0  0  0  0  0
   56.2791   32.5313   43.7458 H   0  0  0  0  0  0  0  0  0  0  0  0
   55.8790   30.5370   44.4980 C   0  0  0  0  0  0  0  0  0  0  0  0
   54.8390   30.7679   44.7719 H   0  0  0  0  0  0  0  0  0  0  0  0
   56.3910   29.2560   44.7290 C   0  0  0  0  0  0  0  0  0  0  0  0
   55.5310   28.2810   45.2190 O   0  0  0  0  0  0  0  0  0  0  0  0
  1  2  1  0
  2  3  1  0
  3  4  2  0
  4  5  1  0
  4  6  1  0
  6  7  1  0
  7  8  1  0
  7  9  1  0
  7 10  1  0
 10 11  1  0
 11 12  2  0
 11 13  1  0
 13 14  1  0
 13 15  1  0
 15 16  1  0
 15 17  1  0
 15 18  1  0
 18 19  1  0
 18 20  1  0
 18 21  1  0
 21 22  1  0
 21 23  1  0
 21 24  1  0
 24 25  1  0
 24 26  1  0
 24 27  1  0
 27 28  1  0
 27 29  1  0
 10 30  1  0
 30 31  2  0
 31 32  1  0
 31 33  1  0
 33 34  1  0
 33 35  2  0
 35 36  1  0
 35 37  1  0
 37 38  1  0
 38 39  1  0
 38 40  2  3
 40 41  1  0
 40 42  1  0
 42 43  2  0
 42 44  1  0
 37 45  2  0
 45 46  1  0
  6 47  2  0
 47 48  1  0
 47 49  1  0
 49 50  1  0
 49 51  2  0
 51 52  1  0
 52 53  2  0
 52 54  1  0
 54 55  2  0
 55 56  1  0
 56 57  1  0
 57 58  1  0
 57 59  2  0
 59 60  1  0
 59 61  1  0
 61 62  1  0
 61 63  2  0
 63 64  1  0
 51  3  1  0
 63 55  1  0
 27 13  1  0
 45 30  1  0
M  CHG  3  44  -1  56  -1  64  -1
M  END
>  <UniqueID>  (64) 
60

>  <SMILES>  (64) 
O=C([O-])C=Cc1cccc(N(Cc2ccc(C(=O)/N=c3/[n-]cccc3[O-])c(O)c2)C(=O)C2CCCCC2)c1

>  <Energy>  (64) 
100.08954945012896

>  <Genealogy>  (64) 
O=C([O-])C=Cc1cccc(N(Cc2ccc(C(=O)N=c3[n-]cccc3[O-])c(O)c2)C(=O)C2CCCCC2)c1 (protonated)
O=C([O-])C=Cc1cccc(N(Cc2ccc(C(=O)/N=c3/[n-]cccc3[O-])c(O)c2)C(=O)C2CCCCC2)c1 (cis-trans isomerization)
O=C([O-])C=Cc1cccc(N(Cc2ccc(C(=O)/N=c3/[n-]cccc3[O-])c(O)c2)C(=O)C2CCCCC2)c1 (3D coordinates assigned)
O=C([O-])C=Cc1cccc(N(Cc2ccc(C(=O)/N=c3/[n-]cccc3[O-])c(O)c2)C(=O)C2CCCCC2)c1 (nonaromatic ring conformer: 100.08954945012896 kcal/mol)

>  <smiles>  (64) 
O=C(O)C=Cc1cccc(N(Cc2ccc(C(=O)N=c3[nH]cccc3O)c(O)c2)C(=O)C2CCCCC2)c1

>  <score_type>  (64) 
oracle

>  <origin>  (64) 
adg

>  <m_score__min__energy>  (64) 
-18.18

>  <m_primary>  (64) 
energy

$$$$
64:0
     RDKit          3D

 25 26  0  0  0  0  0  0  0  0999 V2000
   58.1280   32.5980   47.3520 C   0  0  0  0  0  0  0  0  0  0  0  0
   58.9390   31.6750   46.4510 C   0  0  0  0  0  0  0  0  0  0  0  0
   58.3720   31.6540   45.0990 N   0  0  0  0  0  0  0  0  0  0  0  0
   57.7560   30.6320   44.4660 C   0  0  0  0  0  0  0  0  0  0  0  0
   57.6400   29.2580   44.9860 C   0  0  0  0  0  0  0  0  0  0  0  0
   58.8120   28.5520   45.2940 C   0  0  0  0  0  0  0  0  0  0  0  0
   58.7420   27.2380   45.7650 C   0  0  0  0  0  0  0  0  0  0  0  0
   57.5020   26.6230   45.9410 C   0  0  0  0  0  0  0  0  0  0  0  0
   56.3260   27.3230   45.6580 C   0  0  0  0  0  0  0  0  0  0  0  0
   55.0960   26.7050   45.8500 O   0  0  0  0  0  0  0  0  0  0  0  0
   56.3830   28.6450   45.1910 C   0  0  0  0  0  0  0  0  0  0  0  0
   55.1860   29.3270   44.9610 O   0  0  0  0  0  0  0  0  0  0  0  0
   57.1800   31.0360   43.3170 N   0  0  0  0  0  0  0  0  0  0  0  0
   57.4230   32.3320   43.1950 N   0  0  0  0  0  0  0  0  0  0  0  0
   58.1360   32.6980   44.2760 C   0  0  0  0  0  0  0  0  0  0  0  0
   58.5960   34.2430   44.5630 S   0  0  0  0  0  0  0  0  0  0  0  0
   58.3376   32.3594   48.4052 H   0  0  0  0  0  0  0  0  0  0  0  0
   58.4051   33.6433   47.1507 H   0  0  0  0  0  0  0  0  0  0  0  0
   57.0557   32.4576   47.1507 H   0  0  0  0  0  0  0  0  0  0  0  0
   59.9772   32.0353   46.4032 H   0  0  0  0  0  0  0  0  0  0  0  0
   58.9115   30.6565   46.8657 H   0  0  0  0  0  0  0  0  0  0  0  0
   59.7917   29.0351   45.1642 H   0  0  0  0  0  0  0  0  0  0  0  0
   59.6658   26.6879   45.9973 H   0  0  0  0  0  0  0  0  0  0  0  0
   57.4500   25.5856   46.3031 H   0  0  0  0  0  0  0  0  0  0  0  0
   54.3850   28.8920   44.5210 H   0  0  0  0  0  0  0  0  0  0  0  0
  1  2  1  0
  2  3  1  0
  3  4  1  0
  4  5  1  0
  5  6  2  0
  6  7  1  0
  7  8  2  0
  8  9  1  0
  9 10  1  0
  9 11  2  0
 11 12  1  0
  4 13  2  0
 13 14  1  0
 14 15  1  0
 15 16  2  0
 15  3  1  0
 11  5  1  0
  1 17  1  0
  1 18  1  0
  1 19  1  0
  2 20  1  0
  2 21  1  0
  6 22  1  0
  7 23  1  0
  8 24  1  0
 12 25  1  0
M  CHG  2  10  -1  14  -1
M  END
>  <UniqueID>  (65) 
61

>  <SMILES>  (65) 
CCn1c(-c2cccc([O-])c2O)n[n-]c1=S

>  <Energy>  (65) 
65.23507949983886

>  <Genealogy>  (65) 
CCn1c(-c2cccc([O-])c2O)n[n-]c1=S (protonated)
CCn1c(-c2cccc([O-])c2O)n[n-]c1=S (3D coordinates assigned)
CCn1c(-c2cccc([O-])c2O)n[n-]c1=S (optimized conformer: 65.23507949983886 kcal/mol)

>  <smiles>  (65) 
CCn1c(-c2cccc(O)c2O)n[nH]c1=S

>  <score_type>  (65) 
oracle

>  <origin>  (65) 
adg

>  <m_score__min__energy>  (65) 
-11.99

>  <m_primary>  (65) 
energy

$$$$
65:0
     RDKit          3D

 31 32  0  0  0  0  0  0  0  0999 V2000
   57.3130   28.9600   43.3620 C   0  0  0  0  0  0  0  0  0  0  0  0
   56.5250   29.1970   44.9410 S   0  0  0  0  0  0  0  0  0  0  0  0
   56.3980   27.8640   45.6210 O   0  0  0  0  0  0  0  0  0  0  0  0
   55.1510   29.7790   44.7600 O   0  0  0  0  0  0  0  0  0  0  0  0
   57.4860   30.2420   45.9380 N   0  0  0  0  0  0  0  0  0  0  0  0
   57.8050   31.6110   45.6570 C   0  0  0  0  0  0  0  0  0  0  0  0
   57.3740   32.1610   44.4440 C   0  0  0  0  0  0  0  0  0  0  0  0
   57.6500   33.4950   44.1320 C   0  0  0  0  0  0  0  0  0  0  0  0
   58.3690   34.2890   45.0270 C   0  0  0  0  0  0  0  0  0  0  0  0
   58.8330   33.7490   46.2390 C   0  0  0  0  0  0  0  0  0  0  0  0
   59.5500   34.5550   47.1890 N   0  0  0  0  0  0  0  0  0  0  0  0
   60.8200   34.1970   47.7620 C   0  0  0  0  0  0  0  0  0  0  0  0
   61.8960   33.7820   46.9560 C   0  0  0  0  0  0  0  0  0  0  0  0
   63.1120   33.4110   47.5390 C   0  0  0  0  0  0  0  0  0  0  0  0
   63.2610   33.4370   48.9280 C   0  0  0  0  0  0  0  0  0  0  0  0
   64.9220   32.9290   49.7220 Br  0  0  0  0  0  0  0  0  0  0  0  0
   62.1890   33.8270   49.7370 C   0  0  0  0  0  0  0  0  0  0  0  0
   60.9720   34.1970   49.1570 C   0  0  0  0  0  0  0  0  0  0  0  0
   58.5310   32.4150   46.5560 C   0  0  0  0  0  0  0  0  0  0  0  0
   58.3560   28.6463   43.5161 H   0  0  0  0  0  0  0  0  0  0  0  0
   56.7762   28.1836   42.7972 H   0  0  0  0  0  0  0  0  0  0  0  0
   57.2936   29.9037   42.7972 H   0  0  0  0  0  0  0  0  0  0  0  0
   56.8138   31.5384   43.7309 H   0  0  0  0  0  0  0  0  0  0  0  0
   57.3001   33.9199   43.1796 H   0  0  0  0  0  0  0  0  0  0  0  0
   58.5734   35.3419   44.7828 H   0  0  0  0  0  0  0  0  0  0  0  0
   59.1200   35.4610   47.4840 H   0  0  0  0  0  0  0  0  0  0  0  0
   61.7804   33.7492   45.8626 H   0  0  0  0  0  0  0  0  0  0  0  0
   63.9529   33.0981   46.9026 H   0  0  0  0  0  0  0  0  0  0  0  0
   62.3035   33.8426   50.8309 H   0  0  0  0  0  0  0  0  0  0  0  0
   60.1279   34.4901   49.7985 H   0  0  0  0  0  0  0  0  0  0  0  0
   58.8648   31.9941   47.5159 H   0  0  0  0  0  0  0  0  0  0  0  0
  1  2  1  0
  2  3  2  0
  2  4  2  0
  2  5  1  0
  5  6  1  0
  6  7  2  0
  7  8  1  0
  8  9  2  0
  9 10  1  0
 10 11  1  0
 11 12  1  0
 12 13  2  0
 13 14  1  0
 14 15  2  0
 15 16  1  0
 15 17  1  0
 17 18  2  0
 10 19  2  0
 19  6  1  0
 18 12  1  0
  1 20  1  0
  1 21  1  0
  1 22  1  0
  7 23  1  0
  8 24  1  0
  9 25  1  0
 11 26  1  0
 13 27  1  0
 14 28  1  0
 17 29  1  0
 18 30  1  0
 19 31  1  0
M  CHG  1   5  -1
M  END
>  <UniqueID>  (66) 
62

>  <SMILES>  (66) 
CS(=O)(=O)[N-]c1cccc(Nc2ccc(Br)cc2)c1

>  <Energy>  (66) 
35.606543478870826

>  <Genealogy>  (66) 
CS(=O)(=O)[N-]c1cccc(Nc2ccc(Br)cc2)c1 (protonated)
CS(=O)(=O)[N-]c1cccc(Nc2ccc(Br)cc2)c1 (3D coordinates assigned)
CS(=O)(=O)[N-]c1cccc(Nc2ccc(Br)cc2)c1 (optimized conformer: 35.606543478870826 kcal/mol)

>  <smiles>  (66) 
CS(=O)(=O)Nc1cccc(Nc2ccc(Br)cc2)c1

>  <score_type>  (66) 
oracle

>  <origin>  (66) 
adg

>  <m_score__min__energy>  (66) 
-9.5999999999999996

>  <m_primary>  (66) 
energy

$$$$
66:0
     RDKit          3D

 49 51  0  0  0  0  0  0  0  0999 V2000
   60.9720   29.7320   52.9700 H   0  0  0  0  0  0  0  0  0  0  0  0
   61.3840   29.7980   52.0470 O   0  0  0  0  0  0  0  0  0  0  0  0
   61.1010   28.8930   51.0230 C   0  0  0  0  0  0  0  0  0  0  0  0
   61.1470   27.5210   51.2450 C   0  0  0  0  0  0  0  0  0  0  0  0
   61.3534   27.0306   52.2077 H   0  0  0  0  0  0  0  0  0  0  0  0
   60.8320   26.7380   49.7850 S   0  0  0  0  0  0  0  0  0  0  0  0
   60.6340   28.1820   48.9290 C   0  0  0  0  0  0  0  0  0  0  0  0
   60.4890   28.2810   47.6330 N   0  0  0  0  0  0  0  0  0  0  0  0
   59.2270   28.3860   46.9570 C   0  0  0  0  0  0  0  0  0  0  0  0
   58.8040   29.6030   46.3980 C   0  0  0  0  0  0  0  0  0  0  0  0
   59.4455   30.4928   46.4801 H   0  0  0  0  0  0  0  0  0  0  0  0
   57.5670   29.6940   45.7340 C   0  0  0  0  0  0  0  0  0  0  0  0
   57.1250   30.9900   45.1470 C   0  0  0  0  0  0  0  0  0  0  0  0
   56.1820   31.0190   44.3130 O   0  0  0  0  0  0  0  0  0  0  0  0
   57.7910   32.2170   45.4870 N   0  0  0  0  0  0  0  0  0  0  0  0
   57.8560   32.6200   46.9010 C   0  0  0  0  0  0  0  0  0  0  0  0
   56.8796   32.4238   47.3680 H   0  0  0  0  0  0  0  0  0  0  0  0
   58.6588   32.0370   47.3759 H   0  0  0  0  0  0  0  0  0  0  0  0
   58.1960   34.1090   47.0790 C   0  0  0  0  0  0  0  0  0  0  0  0
   57.2854   34.6998   46.9006 H   0  0  0  0  0  0  0  0  0  0  0  0
   58.5768   34.2385   48.1028 H   0  0  0  0  0  0  0  0  0  0  0  0
   59.2440   34.5750   46.1590 N   0  0  0  0  0  0  0  0  0  0  0  0
   60.5700   33.9980   46.4480 C   0  0  0  0  0  0  0  0  0  0  0  0
   60.7133   33.9356   47.5368 H   0  0  0  0  0  0  0  0  0  0  0  0
   60.6345   32.9904   46.0114 H   0  0  0  0  0  0  0  0  0  0  0  0
   61.3512   34.6375   46.0114 H   0  0  0  0  0  0  0  0  0  0  0  0
   58.8210   34.3760   44.7620 C   0  0  0  0  0  0  0  0  0  0  0  0
   57.9008   34.9533   44.5891 H   0  0  0  0  0  0  0  0  0  0  0  0
   59.6461   34.7141   44.1179 H   0  0  0  0  0  0  0  0  0  0  0  0
   58.5470   32.9080   44.4210 C   0  0  0  0  0  0  0  0  0  0  0  0
   57.9648   32.8639   43.4887 H   0  0  0  0  0  0  0  0  0  0  0  0
   59.5169   32.4006   44.3127 H   0  0  0  0  0  0  0  0  0  0  0  0
   56.7670   28.5330   45.6110 C   0  0  0  0  0  0  0  0  0  0  0  0
   55.5230   28.6000   44.9880 O   0  0  0  0  0  0  0  0  0  0  0  0
   57.2080   27.3080   46.1380 C   0  0  0  0  0  0  0  0  0  0  0  0
   56.3470   26.0800   46.0260 C   0  0  0  0  0  0  0  0  0  0  0  0
   56.0927   25.7174   47.0329 H   0  0  0  0  0  0  0  0  0  0  0  0
   55.4239   26.3278   45.4816 H   0  0  0  0  0  0  0  0  0  0  0  0
   56.8946   25.2966   45.4816 H   0  0  0  0  0  0  0  0  0  0  0  0
   58.4380   27.2430   46.8080 C   0  0  0  0  0  0  0  0  0  0  0  0
   58.7846   26.2837   47.2198 H   0  0  0  0  0  0  0  0  0  0  0  0
   60.8000   29.2640   49.7380 N   0  0  0  0  0  0  0  0  0  0  0  0
   60.7120   30.6570   49.2680 C   0  0  0  0  0  0  0  0  0  0  0  0
   60.7643   31.3350   50.1326 H   0  0  0  0  0  0  0  0  0  0  0  0
   59.7587   30.7942   48.7365 H   0  0  0  0  0  0  0  0  0  0  0  0
   61.8600   30.9710   48.3130 C   0  0  0  0  0  0  0  0  0  0  0  0
   62.7619   31.2177   48.8924 H   0  0  0  0  0  0  0  0  0  0  0  0
   62.0598   30.0945   47.6791 H   0  0  0  0  0  0  0  0  0  0  0  0
   61.5859   31.8272   47.6791 H   0  0  0  0  0  0  0  0  0  0  0  0
  1  2  1  0
  2  3  1  0
  3  4  2  0
  4  5  1  0
  4  6  1  0
  6  7  1  0
  7  8  2  0
  8  9  1  0
  9 10  2  0
 10 11  1  0
 10 12  1  0
 12 13  1  0
 13 14  2  0
 13 15  1  0
 15 16  1  0
 16 17  1  0
 16 18  1  0
 16 19  1  0
 19 20  1  0
 19 21  1  0
 19 22  1  0
 22 23  1  0
 23 24  1  0
 23 25  1  0
 23 26  1  0
 22 27  1  0
 27 28  1  0
 27 29  1  0
 27 30  1  0
 30 31  1  0
 30 32  1  0
 12 33  2  0
 33 34  1  0
 33 35  1  0
 35 36  1  0
 36 37  1  0
 36 38  1  0
 36 39  1  0
 35 40  2  0
 40 41  1  0
  7 42  1  0
 42 43  1  0
 43 44  1  0
 43 45  1  0
 43 46  1  0
 46 47  1  0
 46 48  1  0
 46 49  1  0
 42  3  1  0
 40  9  1  0
 30 15  1  0
M  CHG  1  34  -1
M  END
>  <UniqueID>  (67) 
63

>  <SMILES>  (67) 
CCn1c(O)cs/c1=N\c1cc(C)c([O-])c(C(=O)N2CCN(C)CC2)c1

>  <Energy>  (67) 
96.53329844612608

>  <Genealogy>  (67) 
CCn1c(O)csc1=Nc1cc(C)c([O-])c(C(=O)N2CCN(C)CC2)c1 (protonated)
CCn1c(O)cs/c1=N\c1cc(C)c([O-])c(C(=O)N2CCN(C)CC2)c1 (cis-trans isomerization)
CCn1c(O)cs/c1=N\c1cc(C)c([O-])c(C(=O)N2CCN(C)CC2)c1 (3D coordinates assigned)
CCn1c(O)cs/c1=N\c1cc(C)c([O-])c(C(=O)N2CCN(C)CC2)c1 (nonaromatic ring conformer: 96.53329844612608 kcal/mol)

>  <smiles>  (67) 
CCn1c(O)csc1=Nc1cc(C)c(O)c(C(=O)N2CCN(C)CC2)c1

>  <score_type>  (67) 
oracle

>  <origin>  (67) 
adg

>  <m_score__min__energy>  (67) 
-9.9199999999999999

>  <m_primary>  (67) 
energy

$$$$
67:0
     RDKit          3D

 53 56  0  0  0  0  0  0  0  0999 V2000
   55.9700   31.2890   44.7150 O   0  0  0  0  0  0  0  0  0  0  0  0
   57.0560   31.4110   44.0860 C   0  0  0  0  0  0  0  0  0  0  0  0
   57.7900   32.7150   44.1300 C   0  0  0  0  0  0  0  0  0  0  0  0
   58.3360   32.9450   45.5120 C   0  0  0  0  0  0  0  0  0  0  0  0
   59.0980   34.0850   45.7900 C   0  0  0  0  0  0  0  0  0  0  0  0
   59.6340   34.2800   47.0630 C   0  0  0  0  0  0  0  0  0  0  0  0
   59.4300   33.3390   48.0930 C   0  0  0  0  0  0  0  0  0  0  0  0
   58.7030   32.1490   47.7930 C   0  0  0  0  0  0  0  0  0  0  0  0
   58.1520   31.9820   46.5150 C   0  0  0  0  0  0  0  0  0  0  0  0
   58.5130   31.0920   48.6950 O   0  0  0  0  0  0  0  0  0  0  0  0
   59.2870   30.8620   49.8610 C   0  0  0  0  0  0  0  0  0  0  0  0
   58.9440   31.8790   50.9030 C   0  0  0  0  0  0  0  0  0  0  0  0
   58.3180   31.4870   52.1000 C   0  0  0  0  0  0  0  0  0  0  0  0
   58.0250   32.4350   53.0820 C   0  0  0  0  0  0  0  0  0  0  0  0
   58.3540   33.7760   52.8810 C   0  0  0  0  0  0  0  0  0  0  0  0
   58.9740   34.1740   51.6940 C   0  0  0  0  0  0  0  0  0  0  0  0
   59.2620   33.2330   50.6900 C   0  0  0  0  0  0  0  0  0  0  0  0
   59.9320   33.6860   49.4520 C   0  0  0  0  0  0  0  0  0  0  0  0
   60.9160   34.4750   49.5600 O   0  0  0  0  0  0  0  0  0  0  0  0
   57.6220   30.2960   43.3920 N   0  0  0  0  0  0  0  0  0  0  0  0
   57.0230   28.9630   43.4200 C   0  0  0  0  0  0  0  0  0  0  0  0
   57.7670   28.0310   44.4100 C   0  0  0  0  0  0  0  0  0  0  0  0
   58.6170   28.7420   45.3940 N   0  0  0  0  0  0  0  0  0  0  0  0
   60.0270   28.8480   44.9810 C   0  0  0  0  0  0  0  0  0  0  0  0
   60.8040   29.7260   45.9810 C   0  0  0  0  0  0  0  0  0  0  0  0
   60.5570   29.3770   47.3950 N   0  0  0  0  0  0  0  0  0  0  0  0
   59.7320   28.1760   47.5800 C   0  0  0  0  0  0  0  0  0  0  0  0
   58.4170   28.2850   46.7930 C   0  0  0  0  0  0  0  0  0  0  0  0
   58.6200   32.6915   43.4085 H   0  0  0  0  0  0  0  0  0  0  0  0
   57.0982   33.5304   43.8722 H   0  0  0  0  0  0  0  0  0  0  0  0
   59.2752   34.8309   45.0012 H   0  0  0  0  0  0  0  0  0  0  0  0
   60.2264   35.1841   47.2669 H   0  0  0  0  0  0  0  0  0  0  0  0
   57.5642   31.0787   46.2946 H   0  0  0  0  0  0  0  0  0  0  0  0
   59.0735   29.8550   50.2488 H   0  0  0  0  0  0  0  0  0  0  0  0
   60.3551   30.9429   49.6109 H   0  0  0  0  0  0  0  0  0  0  0  0
   58.0586   30.4305   52.2628 H   0  0  0  0  0  0  0  0  0  0  0  0
   57.5339   32.1242   54.0159 H   0  0  0  0  0  0  0  0  0  0  0  0
   58.1250   34.5204   53.6578 H   0  0  0  0  0  0  0  0  0  0  0  0
   59.2387   35.2311   51.5439 H   0  0  0  0  0  0  0  0  0  0  0  0
   58.4540   30.4560   42.7880 H   0  0  0  0  0  0  0  0  0  0  0  0
   55.9714   29.0494   43.7309 H   0  0  0  0  0  0  0  0  0  0  0  0
   57.0969   28.5283   42.4122 H   0  0  0  0  0  0  0  0  0  0  0  0
   57.0170   27.4454   44.9619 H   0  0  0  0  0  0  0  0  0  0  0  0
   58.4399   27.4034   43.8072 H   0  0  0  0  0  0  0  0  0  0  0  0
   60.4750   27.8437   44.9532 H   0  0  0  0  0  0  0  0  0  0  0  0
   60.0775   29.3066   43.9824 H   0  0  0  0  0  0  0  0  0  0  0  0
   61.8794   29.6142   45.7785 H   0  0  0  0  0  0  0  0  0  0  0  0
   60.4553   30.7596   45.8395 H   0  0  0  0  0  0  0  0  0  0  0  0
   60.0720   30.1810   47.8630 H   0  0  0  0  0  0  0  0  0  0  0  0
   60.2913   27.2974   47.2262 H   0  0  0  0  0  0  0  0  0  0  0  0
   59.4934   28.0759   48.6491 H   0  0  0  0  0  0  0  0  0  0  0  0
   57.9364   27.2957   46.7738 H   0  0  0  0  0  0  0  0  0  0  0  0
   57.7907   29.0346   47.2988 H   0  0  0  0  0  0  0  0  0  0  0  0
  1  2  2  0
  2  3  1  0
  3  4  1  0
  4  5  2  0
  5  6  1  0
  6  7  2  0
  7  8  1  0
  8  9  2  0
  8 10  1  0
 10 11  1  0
 11 12  1  0
 12 13  2  0
 13 14  1  0
 14 15  2  0
 15 16  1  0
 16 17  2  0
 17 18  1  0
 18 19  2  0
  2 20  1  0
 20 21  1  0
 21 22  1  0
 22 23  1  0
 23 24  1  0
 24 25  1  0
 25 26  1  0
 26 27  1  0
 27 28  1  0
  9  4  1  0
 17 12  1  0
 28 23  1  0
 18  7  1  0
  3 29  1  0
  3 30  1  0
  5 31  1  0
  6 32  1  0
  9 33  1  0
 11 34  1  0
 11 35  1  0
 13 36  1  0
 14 37  1  0
 15 38  1  0
 16 39  1  0
 20 40  1  0
 21 41  1  0
 21 42  1  0
 22 43  1  0
 22 44  1  0
 24 45  1  0
 24 46  1  0
 25 47  1  0
 25 48  1  0
 26 49  1  0
 27 50  1  0
 27 51  1  0
 28 52  1  0
 28 53  1  0
M  END
>  <UniqueID>  (68) 
64

>  <SMILES>  (68) 
O=C(Cc1ccc2c(c1)OCc1ccccc1C2=O)NCCN1CCNCC1

>  <Energy>  (68) 
76.95970052033229

>  <Genealogy>  (68) 
O=C(Cc1ccc2c(c1)OCc1ccccc1C2=O)NCCN1CCNCC1 (3D coordinates assigned)
O=C(Cc1ccc2c(c1)OCc1ccccc1C2=O)NCCN1CCNCC1 (nonaromatic ring conformer: 76.95970052033229 kcal/mol)

>  <smiles>  (68) 
O=C(Cc1ccc2c(c1)OCc1ccccc1C2=O)NCCN1CCNCC1

>  <score_type>  (68) 
oracle

>  <origin>  (68) 
adg

>  <m_score__min__energy>  (68) 
-8.3399999999999999

>  <m_primary>  (68) 
energy

$$$$
68:0
     RDKit          3D

 39 41  0  0  0  0  0  0  0  0999 V2000
   65.3350   33.0500   47.9030 H   0  0  0  0  0  0  0  0  0  0  0  0
   64.8780   33.2490   48.7860 O   0  0  0  0  0  0  0  0  0  0  0  0
   63.5010   33.4420   48.8800 C   0  0  0  0  0  0  0  0  0  0  0  0
   62.9220   33.5910   50.1440 C   0  0  0  0  0  0  0  0  0  0  0  0
   63.5526   33.5465   51.0442 H   0  0  0  0  0  0  0  0  0  0  0  0
   61.5470   33.7960   50.2680 C   0  0  0  0  0  0  0  0  0  0  0  0
   61.0981   33.9177   51.2648 H   0  0  0  0  0  0  0  0  0  0  0  0
   60.7400   33.8470   49.1300 C   0  0  0  0  0  0  0  0  0  0  0  0
   59.6590   34.0220   49.2343 H   0  0  0  0  0  0  0  0  0  0  0  0
   61.3000   33.6760   47.8500 C   0  0  0  0  0  0  0  0  0  0  0  0
   60.4630   33.7610   46.6300 C   0  0  0  0  0  0  0  0  0  0  0  0
   60.6024   34.6290   45.9688 H   0  0  0  0  0  0  0  0  0  0  0  0
   59.5400   32.8400   46.2790 C   0  0  0  0  0  0  0  0  0  0  0  0
   59.2750   31.7970   47.1060 N   0  0  0  0  0  0  0  0  0  0  0  0
   58.3770   30.8320   46.7920 C   0  0  0  0  0  0  0  0  0  0  0  0
   58.1470   29.9200   47.6290 O   0  0  0  0  0  0  0  0  0  0  0  0
   57.7150   30.8660   45.5940 N   0  0  0  0  0  0  0  0  0  0  0  0
   56.7730   29.8610   45.2830 N   0  0  0  0  0  0  0  0  0  0  0  0
   57.1180   28.6100   44.6750 C   0  0  0  0  0  0  0  0  0  0  0  0
   57.0800   28.5030   43.4180 O   0  0  0  0  0  0  0  0  0  0  0  0
   57.4830   27.4310   45.5070 C   0  0  0  0  0  0  0  0  0  0  0  0
   58.8440   27.1100   45.6910 C   0  0  0  0  0  0  0  0  0  0  0  0
   59.6181   27.7315   45.2172 H   0  0  0  0  0  0  0  0  0  0  0  0
   59.2200   26.0120   46.4680 C   0  0  0  0  0  0  0  0  0  0  0  0
   60.2856   25.7738   46.6014 H   0  0  0  0  0  0  0  0  0  0  0  0
   58.2490   25.2170   47.0750 C   0  0  0  0  0  0  0  0  0  0  0  0
   58.5484   24.3531   47.6867 H   0  0  0  0  0  0  0  0  0  0  0  0
   56.8970   25.5180   46.9060 C   0  0  0  0  0  0  0  0  0  0  0  0
   56.1331   24.8888   47.3862 H   0  0  0  0  0  0  0  0  0  0  0  0
   56.5060   26.6160   46.1290 C   0  0  0  0  0  0  0  0  0  0  0  0
   55.1480   26.8760   45.9870 O   0  0  0  0  0  0  0  0  0  0  0  0
   57.9150   31.9130   44.7240 C   0  0  0  0  0  0  0  0  0  0  0  0
   57.2410   31.9770   43.5590 C   0  0  0  0  0  0  0  0  0  0  0  0
   56.5123   31.1943   43.3014 H   0  0  0  0  0  0  0  0  0  0  0  0
   57.4195   32.8120   42.8655 H   0  0  0  0  0  0  0  0  0  0  0  0
   58.8510   32.9200   45.0530 C   0  0  0  0  0  0  0  0  0  0  0  0
   59.0660   33.8840   44.2610 O   0  0  0  0  0  0  0  0  0  0  0  0
   62.6920   33.4910   47.7300 C   0  0  0  0  0  0  0  0  0  0  0  0
   63.2700   33.3460   46.4730 O   0  0  0  0  0  0  0  0  0  0  0  0
  1  2  1  0
  2  3  1  0
  3  4  2  0
  4  5  1  0
  4  6  1  0
  6  7  1  0
  6  8  2  0
  8  9  1  0
  8 10  1  0
 10 11  1  0
 11 12  1  0
 11 13  2  0
 13 14  1  0
 14 15  1  0
 15 16  2  0
 15 17  1  0
 17 18  1  0
 18 19  1  0
 19 20  2  0
 19 21  1  0
 21 22  2  0
 22 23  1  0
 22 24  1  0
 24 25  1  0
 24 26  2  0
 26 27  1  0
 26 28  1  0
 28 29  1  0
 28 30  2  0
 30 31  1  0
 17 32  1  0
 32 33  2  0
 33 34  1  0
 33 35  1  0
 32 36  1  0
 36 37  2  0
 10 38  2  0
 38 39  1  0
 38  3  1  0
 36 13  1  0
 30 21  1  0
M  CHG  4  14  -1  18  -1  31  -1  39  -1
M  END
>  <UniqueID>  (69) 
65

>  <SMILES>  (69) 
C=c1c(=O)/c(=C/c2cccc(O)c2[O-])[n-]c(=O)n1[N-]C(=O)c1ccccc1[O-]

>  <Energy>  (69) 
65.97082292196431

>  <Genealogy>  (69) 
C=c1c(=O)c(=Cc2cccc(O)c2[O-])[n-]c(=O)n1[N-]C(=O)c1ccccc1[O-] (protonated)
C=c1c(=O)/c(=C/c2cccc(O)c2[O-])[n-]c(=O)n1[N-]C(=O)c1ccccc1[O-] (cis-trans isomerization)
C=c1c(=O)/c(=C/c2cccc(O)c2[O-])[n-]c(=O)n1[N-]C(=O)c1ccccc1[O-] (3D coordinates assigned)
C=c1c(=O)/c(=C/c2cccc(O)c2[O-])[n-]c(=O)n1[N-]C(=O)c1ccccc1[O-] (optimized conformer: 65.97082292196431 kcal/mol)

>  <smiles>  (69) 
C=c1c(=O)c(=Cc2cccc(O)c2O)[nH]c(=O)n1NC(=O)c1ccccc1O

>  <score_type>  (69) 
oracle

>  <origin>  (69) 
adg

>  <m_score__min__energy>  (69) 
-15.49

>  <m_primary>  (69) 
energy

$$$$
69:0
     RDKit          3D

 66 70  0  0  0  0  0  0  0  0999 V2000
   56.6330   29.9500   42.6330 C   0  0  0  0  0  0  0  0  0  0  0  0
   57.2300   30.5480   43.8200 N   0  0  0  0  0  0  0  0  0  0  0  0
   57.6920   31.9080   43.8220 C   0  0  0  0  0  0  0  0  0  0  0  0
   57.5220   32.6190   42.7900 O   0  0  0  0  0  0  0  0  0  0  0  0
   58.3200   32.5110   45.0250 C   0  0  0  0  0  0  0  0  0  0  0  0
   59.0140   33.7290   44.9110 C   0  0  0  0  0  0  0  0  0  0  0  0
   59.5790   34.3320   46.0360 C   0  0  0  0  0  0  0  0  0  0  0  0
   59.4530   33.7340   47.2920 C   0  0  0  0  0  0  0  0  0  0  0  0
   58.7640   32.5190   47.4310 C   0  0  0  0  0  0  0  0  0  0  0  0
   58.6010   31.8880   48.7610 C   0  0  0  0  0  0  0  0  0  0  0  0
   57.7280   32.3440   49.5510 O   0  0  0  0  0  0  0  0  0  0  0  0
   59.3740   30.7480   49.1660 N   0  0  0  0  0  0  0  0  0  0  0  0
   59.3890   29.4760   48.5010 C   0  0  0  0  0  0  0  0  0  0  0  0
   58.5740   29.3090   47.3780 C   0  0  0  0  0  0  0  0  0  0  0  0
   58.5900   28.1170   46.6420 C   0  0  0  0  0  0  0  0  0  0  0  0
   57.7140   28.0140   45.5090 N   0  0  0  0  0  0  0  0  0  0  0  0
   56.2950   27.8520   45.5750 C   0  0  0  0  0  0  0  0  0  0  0  0
   55.5360   28.7540   45.1380 O   0  0  0  0  0  0  0  0  0  0  0  0
   55.7580   26.6490   46.1390 N   0  0  0  0  0  0  0  0  0  0  0  0
   56.0610   25.2760   45.7200 C   0  0  2  0  0  0  0  0  0  0  0  0
   56.7350   24.4860   46.8760 C   0  0  0  0  0  0  0  0  0  0  0  0
   57.0800   23.0570   46.3990 C   0  0  1  0  0  0  0  0  0  0  0  0
   55.7870   22.3340   45.9590 C   0  0  0  0  0  0  0  0  0  0  0  0
   55.1280   23.1080   44.7940 C   0  0  2  0  0  0  0  0  0  0  0  0
   56.1070   23.1850   43.6040 C   0  0  0  0  0  0  0  0  0  0  0  0
   57.3970   23.9120   44.0450 C   0  0  2  0  0  0  0  0  0  0  0  0
   58.0570   23.1330   45.2040 C   0  0  0  0  0  0  0  0  0  0  0  0
   57.0430   25.3380   44.5230 C   0  0  0  0  0  0  0  0  0  0  0  0
   54.7730   24.5360   45.2620 C   0  0  0  0  0  0  0  0  0  0  0  0
   59.5070   27.0970   46.9960 C   0  0  0  0  0  0  0  0  0  0  0  0
   59.7200   25.8670   46.1530 C   0  0  0  0  0  0  0  0  0  0  0  0
   60.2590   27.2340   48.1720 C   0  0  0  0  0  0  0  0  0  0  0  0
   60.1840   28.3970   48.9510 C   0  0  0  0  0  0  0  0  0  0  0  0
   60.9800   28.4600   50.2280 C   0  0  0  0  0  0  0  0  0  0  0  0
   58.2300   31.8960   46.2890 C   0  0  0  0  0  0  0  0  0  0  0  0
   55.8858   29.2016   42.9357 H   0  0  0  0  0  0  0  0  0  0  0  0
   56.1456   30.7330   42.0336 H   0  0  0  0  0  0  0  0  0  0  0  0
   57.4168   29.4639   42.0336 H   0  0  0  0  0  0  0  0  0  0  0  0
   57.2640   29.9740   44.6920 H   0  0  0  0  0  0  0  0  0  0  0  0
   59.1124   34.2105   43.9269 H   0  0  0  0  0  0  0  0  0  0  0  0
   60.1252   35.2812   45.9331 H   0  0  0  0  0  0  0  0  0  0  0  0
   59.8954   34.2171   48.1757 H   0  0  0  0  0  0  0  0  0  0  0  0
   57.9085   30.1276   47.0666 H   0  0  0  0  0  0  0  0  0  0  0  0
   57.6571   25.0018   47.1823 H   0  0  0  0  0  0  0  0  0  0  0  0
   56.0431   24.4280   47.7292 H   0  0  0  0  0  0  0  0  0  0  0  0
   57.5504   22.5006   47.2231 H   0  0  0  0  0  0  0  0  0  0  0  0
   56.0329   21.3143   45.6278 H   0  0  0  0  0  0  0  0  0  0  0  0
   55.0884   22.2883   46.8074 H   0  0  0  0  0  0  0  0  0  0  0  0
   54.2125   22.5855   44.4796 H   0  0  0  0  0  0  0  0  0  0  0  0
   56.3561   22.1677   43.2676 H   0  0  0  0  0  0  0  0  0  0  0  0
   55.6375   23.7395   42.7781 H   0  0  0  0  0  0  0  0  0  0  0  0
   58.0947   23.9689   43.1965 H   0  0  0  0  0  0  0  0  0  0  0  0
   58.3038   22.1153   44.8675 H   0  0  0  0  0  0  0  0  0  0  0  0
   58.9763   23.6505   45.5156 H   0  0  0  0  0  0  0  0  0  0  0  0
   57.9626   25.8550   44.8345 H   0  0  0  0  0  0  0  0  0  0  0  0
   56.5652   25.8841   43.6963 H   0  0  0  0  0  0  0  0  0  0  0  0
   54.3107   25.0883   44.4306 H   0  0  0  0  0  0  0  0  0  0  0  0
   54.0689   24.4771   46.1051 H   0  0  0  0  0  0  0  0  0  0  0  0
   59.8709   24.9957   46.8073 H   0  0  0  0  0  0  0  0  0  0  0  0
   58.8374   25.7003   45.5181 H   0  0  0  0  0  0  0  0  0  0  0  0
   60.6073   26.0068   45.5181 H   0  0  0  0  0  0  0  0  0  0  0  0
   60.9198   26.4137   48.4889 H   0  0  0  0  0  0  0  0  0  0  0  0
   60.2972   28.4060   51.0887 H   0  0  0  0  0  0  0  0  0  0  0  0
   61.6830   27.6147   50.2640 H   0  0  0  0  0  0  0  0  0  0  0  0
   61.5412   29.4054   50.2640 H   0  0  0  0  0  0  0  0  0  0  0  0
   57.7365   30.9175   46.3839 H   0  0  0  0  0  0  0  0  0  0  0  0
  1  2  1  0
  2  3  1  0
  3  4  2  0
  3  5  1  0
  5  6  2  0
  6  7  1  0
  7  8  2  0
  8  9  1  0
  9 10  1  0
 10 11  2  0
 10 12  1  0
 12 13  1  0
 13 14  2  0
 14 15  1  0
 15 16  1  0
 16 17  1  0
 17 18  2  0
 17 19  1  0
 20 19  1  1
 20 21  1  0
 21 22  1  0
 22 23  1  0
 23 24  1  0
 24 25  1  0
 25 26  1  0
 26 27  1  0
 26 28  1  0
 24 29  1  0
 15 30  2  0
 30 31  1  0
 30 32  1  0
 32 33  2  0
 33 34  1  0
  9 35  2  0
 35  5  1  0
 33 13  1  0
 28 20  1  0
 29 20  1  0
 27 22  1  0
  1 36  1  0
  1 37  1  0
  1 38  1  0
  2 39  1  0
  6 40  1  0
  7 41  1  0
  8 42  1  0
 14 43  1  0
 21 44  1  0
 21 45  1  0
 22 46  1  1
 23 47  1  0
 23 48  1  0
 24 49  1  6
 25 50  1  0
 25 51  1  0
 26 52  1  6
 27 53  1  0
 27 54  1  0
 28 55  1  0
 28 56  1  0
 29 57  1  0
 29 58  1  0
 31 59  1  0
 31 60  1  0
 31 61  1  0
 32 62  1  0
 34 63  1  0
 34 64  1  0
 34 65  1  0
 35 66  1  0
M  CHG  3  12  -1  16  -1  19  -1
M  END
>  <UniqueID>  (70) 
66

>  <SMILES>  (70) 
CNC(=O)c1cccc(C(=O)[N-]c2cc([N-]C(=O)[N-]C34CC5CC(CC(C5)C3)C4)c(C)cc2C)c1

>  <Energy>  (70) 
83.24265007913162

>  <Genealogy>  (70) 
CNC(=O)c1cccc(C(=O)[N-]c2cc([N-]C(=O)[N-]C34CC5CC(CC(C5)C3)C4)c(C)cc2C)c1 (protonated)
CNC(=O)c1cccc(C(=O)[N-]c2cc([N-]C(=O)[N-]C34CC5CC(CC(C5)C3)C4)c(C)cc2C)c1 (3D coordinates assigned)
CNC(=O)c1cccc(C(=O)[N-]c2cc([N-]C(=O)[N-]C34CC5CC(CC(C5)C3)C4)c(C)cc2C)c1 (nonaromatic ring conformer: 83.24265007913162 kcal/mol)

>  <smiles>  (70) 
CNC(=O)c1cccc(C(=O)Nc2cc(NC(=O)NC34CC5CC(CC(C5)C3)C4)c(C)cc2C)c1

>  <score_type>  (70) 
oracle

>  <origin>  (70) 
adg

>  <m_score__min__energy>  (70) 
-14.960000000000001

>  <m_primary>  (70) 
energy

$$$$
70:0
     RDKit          3D

 58 61  0  0  0  0  0  0  0  0999 V2000
   67.7810   32.8030   51.9860 H   0  0  0  0  0  0  0  0  0  0  0  0
   68.4800   33.2410   51.4350 O   0  0  0  0  0  0  0  0  0  0  0  0
   67.8890   33.4990   50.1920 C   0  0  0  0  0  0  0  0  0  0  0  0
   68.5137   33.0680   49.3958 H   0  0  0  0  0  0  0  0  0  0  0  0
   67.8032   34.5869   50.0534 H   0  0  0  0  0  0  0  0  0  0  0  0
   66.4920   32.8750   50.1330 C   0  0  0  0  0  0  0  0  0  0  0  0
   66.5555   31.9183   49.5939 H   0  0  0  0  0  0  0  0  0  0  0  0
   65.8298   33.5864   49.6179 H   0  0  0  0  0  0  0  0  0  0  0  0
   65.9240   32.6250   51.4800 N   0  0  0  0  0  0  0  0  0  0  0  0
   65.0250   31.4500   51.5420 C   0  0  0  0  0  0  0  0  0  0  0  0
   64.7326   31.2803   52.5888 H   0  0  0  0  0  0  0  0  0  0  0  0
   65.5675   30.5829   51.1372 H   0  0  0  0  0  0  0  0  0  0  0  0
   63.7560   31.6560   50.6980 C   0  0  0  0  0  0  0  0  0  0  0  0
   62.9555   31.0075   51.0835 H   0  0  0  0  0  0  0  0  0  0  0  0
   63.9793   31.4011   49.6515 H   0  0  0  0  0  0  0  0  0  0  0  0
   63.3170   33.0570   50.7630 N   0  0  0  0  0  0  0  0  0  0  0  0
   62.6660   33.6730   49.6330 C   0  0  0  0  0  0  0  0  0  0  0  0
   62.9320   34.8710   49.3410 O   0  0  0  0  0  0  0  0  0  0  0  0
   61.7100   32.9240   48.7900 C   0  0  0  0  0  0  0  0  0  0  0  0
   62.1650   32.2130   47.6670 C   0  0  0  0  0  0  0  0  0  0  0  0
   63.2366   32.2120   47.4187 H   0  0  0  0  0  0  0  0  0  0  0  0
   61.2660   31.5070   46.8630 C   0  0  0  0  0  0  0  0  0  0  0  0
   61.6337   30.9465   45.9908 H   0  0  0  0  0  0  0  0  0  0  0  0
   59.8960   31.5110   47.1650 C   0  0  0  0  0  0  0  0  0  0  0  0
   58.9720   30.7880   46.3320 N   0  0  0  0  0  0  0  0  0  0  0  0
   58.2660   31.3070   45.3020 C   0  0  0  0  0  0  0  0  0  0  0  0
   58.3230   32.7360   44.8540 C   0  0  0  0  0  0  0  0  0  0  0  0
   58.3493   33.3954   45.7341 H   0  0  0  0  0  0  0  0  0  0  0  0
   59.2282   32.8949   44.2496 H   0  0  0  0  0  0  0  0  0  0  0  0
   57.4333   32.9665   44.2496 H   0  0  0  0  0  0  0  0  0  0  0  0
   57.4610   30.3420   44.7360 C   0  0  0  0  0  0  0  0  0  0  0  0
   56.7574   30.4820   43.9022 H   0  0  0  0  0  0  0  0  0  0  0  0
   57.7080   29.1610   45.4190 C   0  0  0  0  0  0  0  0  0  0  0  0
   57.1280   27.9920   45.0790 C   0  0  0  0  0  0  0  0  0  0  0  0
   56.5491   27.9706   44.1439 H   0  0  0  0  0  0  0  0  0  0  0  0
   57.2040   26.7390   45.8550 C   0  0  0  0  0  0  0  0  0  0  0  0
   56.0330   26.1270   46.3240 C   0  0  0  0  0  0  0  0  0  0  0  0
   54.7920   26.7160   46.1110 O   0  0  0  0  0  0  0  0  0  0  0  0
   56.1060   24.9520   47.0010 N   0  0  0  0  0  0  0  0  0  0  0  0
   57.3000   24.3420   47.2210 C   0  0  0  0  0  0  0  0  0  0  0  0
   57.3440   23.2570   47.8550 O   0  0  0  0  0  0  0  0  0  0  0  0
   58.4460   24.9010   46.7530 N   0  0  0  0  0  0  0  0  0  0  0  0
   58.4250   26.0750   46.0700 C   0  0  0  0  0  0  0  0  0  0  0  0
   59.5050   26.5530   45.6300 O   0  0  0  0  0  0  0  0  0  0  0  0
   58.6280   29.4780   46.4330 C   0  0  0  0  0  0  0  0  0  0  0  0
   59.0310   28.6890   47.4420 C   0  0  0  0  0  0  0  0  0  0  0  0
   59.7622   29.0625   48.1740 H   0  0  0  0  0  0  0  0  0  0  0  0
   58.6299   27.6691   47.5366 H   0  0  0  0  0  0  0  0  0  0  0  0
   59.4360   32.2340   48.2730 C   0  0  0  0  0  0  0  0  0  0  0  0
   58.3621   32.2461   48.5108 H   0  0  0  0  0  0  0  0  0  0  0  0
   60.3340   32.9400   49.0780 C   0  0  0  0  0  0  0  0  0  0  0  0
   59.9623   33.5112   49.9415 H   0  0  0  0  0  0  0  0  0  0  0  0
   63.7450   33.8640   51.9080 C   0  0  0  0  0  0  0  0  0  0  0  0
   63.2955   33.4565   52.8255 H   0  0  0  0  0  0  0  0  0  0  0  0
   63.4172   34.9024   51.7520 H   0  0  0  0  0  0  0  0  0  0  0  0
   65.2830   33.8430   52.0440 C   0  0  0  0  0  0  0  0  0  0  0  0
   65.5365   33.9039   53.1126 H   0  0  0  0  0  0  0  0  0  0  0  0
   65.6649   34.6990   51.4684 H   0  0  0  0  0  0  0  0  0  0  0  0
  1  2  1  0
  2  3  1  0
  3  4  1  0
  3  5  1  0
  3  6  1  0
  6  7  1  0
  6  8  1  0
  6  9  1  0
  9 10  1  0
 10 11  1  0
 10 12  1  0
 10 13  1  0
 13 14  1  0
 13 15  1  0
 13 16  1  0
 16 17  1  0
 17 18  2  0
 17 19  1  0
 19 20  2  0
 20 21  1  0
 20 22  1  0
 22 23  1  0
 22 24  2  0
 24 25  1  0
 25 26  1  0
 26 27  1  0
 27 28  1  0
 27 29  1  0
 27 30  1  0
 26 31  2  0
 31 32  1  0
 31 33  1  0
 33 34  2  0
 34 35  1  0
 34 36  1  0
 36 37  2  0
 37 38  1  0
 37 39  1  0
 39 40  1  0
 40 41  2  0
 40 42  1  0
 42 43  1  0
 43 44  2  0
 33 45  1  0
 45 46  2  0
 46 47  1  0
 46 48  1  0
 24 49  1  0
 49 50  1  0
 49 51  2  0
 51 52  1  0
 16 53  1  0
 53 54  1  0
 53 55  1  0
 53 56  1  0
 56 57  1  0
 56 58  1  0
 56  9  1  0
 51 19  1  0
 45 25  1  0
 43 36  1  0
M  CHG  3  38  -1  39  -1  42  -1
M  END
>  <UniqueID>  (71) 
67

>  <SMILES>  (71) 
C=c1/c(=C\c2c([O-])[n-]c(=O)[n-]c2=O)cc(C)n1-c1ccc(C(=O)N2CCN(CCO)CC2)cc1

>  <Energy>  (71) 
123.39100099979792

>  <Genealogy>  (71) 
C=c1c(=Cc2c([O-])[n-]c(=O)[n-]c2=O)cc(C)n1-c1ccc(C(=O)N2CCN(CCO)CC2)cc1 (protonated)
C=c1/c(=C\c2c([O-])[n-]c(=O)[n-]c2=O)cc(C)n1-c1ccc(C(=O)N2CCN(CCO)CC2)cc1 (cis-trans isomerization)
C=c1/c(=C\c2c([O-])[n-]c(=O)[n-]c2=O)cc(C)n1-c1ccc(C(=O)N2CCN(CCO)CC2)cc1 (3D coordinates assigned)
C=c1/c(=C\c2c([O-])[n-]c(=O)[n-]c2=O)cc(C)n1-c1ccc(C(=O)N2CCN(CCO)CC2)cc1 (nonaromatic ring conformer: 123.39100099979792 kcal/mol)

>  <smiles>  (71) 
C=c1c(=Cc2c(O)[nH]c(=O)[nH]c2=O)cc(C)n1-c1ccc(C(=O)N2CCN(CCO)CC2)cc1

>  <score_type>  (71) 
oracle

>  <origin>  (71) 
adg

>  <m_score__min__energy>  (71) 
-15.51

>  <m_primary>  (71) 
energy

$$$$
71:0
     RDKit          3D

 55 59  0  0  0  0  0  0  0  0999 V2000
   54.7670   27.0910   46.4480 H   0  0  0  0  0  0  0  0  0  0  0  0
   54.6180   26.1710   45.9760 N   0  0  0  0  0  0  0  0  0  0  0  0
   56.0200   25.2090   46.2870 S   0  0  0  0  0  0  0  0  0  0  0  0
   55.9200   24.5900   47.6530 O   0  0  0  0  0  0  0  0  0  0  0  0
   56.1030   24.1240   45.2490 O   0  0  0  0  0  0  0  0  0  0  0  0
   57.4550   26.2100   46.2000 C   0  0  0  0  0  0  0  0  0  0  0  0
   57.8600   27.2090   44.9090 S   0  0  0  0  0  0  0  0  0  0  0  0
   59.2820   27.7840   45.6000 C   0  0  0  0  0  0  0  0  0  0  0  0
   60.3700   28.9930   44.8540 S   0  0  0  0  0  0  0  0  0  0  0  0
   59.1030   30.2690   44.8710 C   0  0  0  0  0  0  0  0  0  0  0  0
   58.2780   30.4290   43.7500 C   0  0  0  0  0  0  0  0  0  0  0  0
   58.4360   29.8033   42.8592 H   0  0  0  0  0  0  0  0  0  0  0  0
   57.2550   31.3810   43.7600 C   0  0  0  0  0  0  0  0  0  0  0  0
   56.6195   31.5142   42.8721 H   0  0  0  0  0  0  0  0  0  0  0  0
   57.0390   32.1630   44.8960 C   0  0  0  0  0  0  0  0  0  0  0  0
   56.2271   32.9051   44.9061 H   0  0  0  0  0  0  0  0  0  0  0  0
   57.8530   32.0040   46.0200 C   0  0  0  0  0  0  0  0  0  0  0  0
   57.6586   32.5982   46.9251 H   0  0  0  0  0  0  0  0  0  0  0  0
   58.9210   31.0870   46.0000 C   0  0  0  0  0  0  0  0  0  0  0  0
   59.6840   30.8370   47.1860 N   0  0  0  0  0  0  0  0  0  0  0  0
   59.6870   31.4860   48.3190 C   0  0  0  0  0  0  0  0  0  0  0  0
   59.1110   30.9470   49.5880 C   0  0  0  0  0  0  0  0  0  0  0  0
   58.6650   29.7700   49.6570 O   0  0  0  0  0  0  0  0  0  0  0  0
   58.9870   31.8380   50.7650 C   0  0  0  0  0  0  0  0  0  0  0  0
   58.6160   31.3290   52.0240 C   0  0  0  0  0  0  0  0  0  0  0  0
   58.4631   30.2475   52.1539 H   0  0  0  0  0  0  0  0  0  0  0  0
   58.4410   32.1920   53.1100 C   0  0  0  0  0  0  0  0  0  0  0  0
   58.1598   31.7876   54.0936 H   0  0  0  0  0  0  0  0  0  0  0  0
   58.6230   33.5680   52.9470 C   0  0  0  0  0  0  0  0  0  0  0  0
   58.4777   34.2456   53.8012 H   0  0  0  0  0  0  0  0  0  0  0  0
   58.9890   34.0850   51.7020 C   0  0  0  0  0  0  0  0  0  0  0  0
   59.1269   35.1691   51.5767 H   0  0  0  0  0  0  0  0  0  0  0  0
   59.1810   33.2240   50.6110 C   0  0  0  0  0  0  0  0  0  0  0  0
   59.5790   33.7500   49.2920 C   0  0  0  0  0  0  0  0  0  0  0  0
   59.3330   34.9490   48.9830 O   0  0  0  0  0  0  0  0  0  0  0  0
   60.3320   32.8630   48.3270 C   0  0  1  0  0  0  0  0  0  0  0  0
   60.2821   33.2981   47.3179 H   0  0  0  0  0  0  0  0  0  0  0  0
   61.7720   32.7700   48.7010 N   0  0  0  0  0  0  0  0  0  0  0  0
   62.6510   32.8240   47.5050 C   0  0  0  0  0  0  0  0  0  0  0  0
   62.5982   31.8576   46.9822 H   0  0  0  0  0  0  0  0  0  0  0  0
   62.2991   33.6451   46.8632 H   0  0  0  0  0  0  0  0  0  0  0  0
   64.1180   33.1080   47.8760 C   0  0  0  0  0  0  0  0  0  0  0  0
   64.7783   32.5070   47.2334 H   0  0  0  0  0  0  0  0  0  0  0  0
   64.3247   34.1785   47.7297 H   0  0  0  0  0  0  0  0  0  0  0  0
   64.3520   32.7740   49.2270 O   0  0  0  0  0  0  0  0  0  0  0  0
   63.6450   33.6670   50.0670 C   0  0  0  0  0  0  0  0  0  0  0  0
   63.6775   33.2816   51.0968 H   0  0  0  0  0  0  0  0  0  0  0  0
   64.1278   34.6520   49.9855 H   0  0  0  0  0  0  0  0  0  0  0  0
   62.1670   33.8360   49.6490 C   0  0  0  0  0  0  0  0  0  0  0  0
   61.5290   33.7799   50.5433 H   0  0  0  0  0  0  0  0  0  0  0  0
   62.0454   34.8126   49.1576 H   0  0  0  0  0  0  0  0  0  0  0  0
   59.4560   27.1990   46.8460 C   0  0  0  0  0  0  0  0  0  0  0  0
   60.3163   27.4077   47.4989 H   0  0  0  0  0  0  0  0  0  0  0  0
   58.4260   26.3170   47.1870 C   0  0  0  0  0  0  0  0  0  0  0  0
   58.3887   25.7654   48.1380 H   0  0  0  0  0  0  0  0  0  0  0  0
  1  2  1  0
  2  3  1  0
  3  4  2  0
  3  5  2  0
  3  6  1  0
  6  7  1  0
  7  8  1  0
  8  9  1  0
  9 10  1  0
 10 11  2  0
 11 12  1  0
 11 13  1  0
 13 14  1  0
 13 15  2  0
 15 16  1  0
 15 17  1  0
 17 18  1  0
 17 19  2  0
 19 20  1  0
 20 21  2  0
 21 22  1  0
 22 23  2  0
 22 24  1  0
 24 25  2  0
 25 26  1  0
 25 27  1  0
 27 28  1  0
 27 29  2  0
 29 30  1  0
 29 31  1  0
 31 32  1  0
 31 33  2  0
 33 34  1  0
 34 35  2  0
 34 36  1  0
 36 37  1  6
 36 38  1  0
 38 39  1  0
 39 40  1  0
 39 41  1  0
 39 42  1  0
 42 43  1  0
 42 44  1  0
 42 45  1  0
 45 46  1  0
 46 47  1  0
 46 48  1  0
 46 49  1  0
 49 50  1  0
 49 51  1  0
  8 52  2  0
 52 53  1  0
 52 54  1  0
 54 55  1  0
 54  6  2  0
 19 10  1  0
 36 21  1  0
 49 38  1  0
 33 24  1  0
M  CHG  1   2  -1
M  END
>  <UniqueID>  (72) 
68

>  <SMILES>  (72) 
[NH-]S(=O)(=O)c1ccc(Sc2ccccc2/N=C2\C(=O)c3ccccc3C(=O)[C@H]2N2CCOCC2)s1

>  <Energy>  (72) 
110.15105821906795

>  <Genealogy>  (72) 
[NH-]S(=O)(=O)c1ccc(Sc2ccccc2N=C2C(=O)c3ccccc3C(=O)C2N2CCOCC2)s1 (protonated)
[NH-]S(=O)(=O)c1ccc(Sc2ccccc2N=C2C(=O)c3ccccc3C(=O)[C@H]2N2CCOCC2)s1 (chirality)
[NH-]S(=O)(=O)c1ccc(Sc2ccccc2/N=C2\C(=O)c3ccccc3C(=O)[C@H]2N2CCOCC2)s1 (cis-trans isomerization)
[NH-]S(=O)(=O)c1ccc(Sc2ccccc2/N=C2\C(=O)c3ccccc3C(=O)[C@H]2N2CCOCC2)s1 (3D coordinates assigned)
[NH-]S(=O)(=O)c1ccc(Sc2ccccc2/N=C2\C(=O)c3ccccc3C(=O)[C@H]2N2CCOCC2)s1 (nonaromatic ring conformer: 110.15105821906795 kcal/mol)

>  <smiles>  (72) 
NS(=O)(=O)c1ccc(Sc2ccccc2N=C2C(=O)c3ccccc3C(=O)C2N2CCOCC2)s1

>  <score_type>  (72) 
oracle

>  <origin>  (72) 
adg

>  <m_score__min__energy>  (72) 
-13.07

>  <m_primary>  (72) 
energy

$$$$
72:0
     RDKit          3D

 39 41  0  0  0  0  0  0  0  0999 V2000
   55.7750   29.7080   46.0090 H   0  0  0  0  0  0  0  0  0  0  0  0
   55.8690   28.9890   45.3050 O   0  0  0  0  0  0  0  0  0  0  0  0
   56.3800   27.7290   45.6180 C   0  0  0  0  0  0  0  0  0  0  0  0
   55.5290   26.7390   45.9950 N   0  0  0  0  0  0  0  0  0  0  0  0
   55.9830   25.4950   46.2850 C   0  0  0  0  0  0  0  0  0  0  0  0
   55.1780   24.5970   46.6350 O   0  0  0  0  0  0  0  0  0  0  0  0
   57.3100   25.2140   46.1890 N   0  0  0  0  0  0  0  0  0  0  0  0
   58.2060   26.1620   45.8130 C   0  0  0  0  0  0  0  0  0  0  0  0
   59.4210   25.8540   45.7250 O   0  0  0  0  0  0  0  0  0  0  0  0
   57.7630   27.4710   45.5280 C   0  0  0  0  0  0  0  0  0  0  0  0
   58.6940   28.5680   45.1760 C   0  0  0  0  0  0  0  0  0  0  0  0
   59.3207   28.4737   44.2769 H   0  0  0  0  0  0  0  0  0  0  0  0
   58.7870   29.6400   45.9060 N   0  0  0  0  0  0  0  0  0  0  0  0
   58.4540   30.9590   45.4430 C   0  0  0  0  0  0  0  0  0  0  0  0
   57.9510   31.1550   44.1380 C   0  0  0  0  0  0  0  0  0  0  0  0
   57.8047   30.2918   43.4721 H   0  0  0  0  0  0  0  0  0  0  0  0
   57.6390   32.4380   43.6900 C   0  0  0  0  0  0  0  0  0  0  0  0
   57.2421   32.5820   42.6743 H   0  0  0  0  0  0  0  0  0  0  0  0
   57.8280   33.5390   44.5240 C   0  0  0  0  0  0  0  0  0  0  0  0
   57.5811   34.5487   44.1642 H   0  0  0  0  0  0  0  0  0  0  0  0
   58.3300   33.3630   45.8150 C   0  0  0  0  0  0  0  0  0  0  0  0
   58.4834   34.2381   46.4636 H   0  0  0  0  0  0  0  0  0  0  0  0
   58.6420   32.0760   46.2950 C   0  0  0  0  0  0  0  0  0  0  0  0
   59.2270   31.9120   47.6540 C   0  0  0  0  0  0  0  0  0  0  0  0
   60.0360   30.9680   47.8770 O   0  0  0  0  0  0  0  0  0  0  0  0
   58.8960   32.8550   48.7780 C   0  0  0  0  0  0  0  0  0  0  0  0
   59.2950   32.4481   49.7189 H   0  0  0  0  0  0  0  0  0  0  0  0
   57.8027   32.9603   48.8382 H   0  0  0  0  0  0  0  0  0  0  0  0
   59.6280   34.5080   48.4810 S   0  0  0  0  0  0  0  0  0  0  0  0
   61.2670   33.8840   48.1180 C   0  0  0  0  0  0  0  0  0  0  0  0
   62.1310   33.4600   49.0640 N   0  0  0  0  0  0  0  0  0  0  0  0
   63.3040   33.0480   48.5180 C   0  0  0  0  0  0  0  0  0  0  0  0
   64.4350   32.5470   49.3590 C   0  0  0  0  0  0  0  0  0  0  0  0
   64.1791   32.6604   50.4228 H   0  0  0  0  0  0  0  0  0  0  0  0
   64.6150   31.4849   49.1363 H   0  0  0  0  0  0  0  0  0  0  0  0
   65.3426   33.1273   49.1363 H   0  0  0  0  0  0  0  0  0  0  0  0
   63.3800   33.1470   47.1310 C   0  0  0  0  0  0  0  0  0  0  0  0
   64.2404   32.8609   46.5082 H   0  0  0  0  0  0  0  0  0  0  0  0
   61.9270   33.7800   46.5770 S   0  0  0  0  0  0  0  0  0  0  0  0
  1  2  1  0
  2  3  1  0
  3  4  1  0
  4  5  1  0
  5  6  2  0
  5  7  1  0
  7  8  1  0
  8  9  2  0
  8 10  1  0
 10 11  1  0
 11 12  1  0
 11 13  2  0
 13 14  1  0
 14 15  2  0
 15 16  1  0
 15 17  1  0
 17 18  1  0
 17 19  2  0
 19 20  1  0
 19 21  1  0
 21 22  1  0
 21 23  2  0
 23 24  1  0
 24 25  2  0
 24 26  1  0
 26 27  1  0
 26 28  1  0
 26 29  1  0
 29 30  1  0
 30 31  2  0
 31 32  1  0
 32 33  1  0
 33 34  1  0
 33 35  1  0
 33 36  1  0
 32 37  2  0
 37 38  1  0
 37 39  1  0
 10  3  2  0
 23 14  1  0
 39 30  1  0
M  CHG  2   4  -1   7  -1
M  END
>  <UniqueID>  (73) 
69

>  <SMILES>  (73) 
Cc1csc(SCC(=O)c2ccccc2/N=C/c2c(O)[n-]c(=O)[n-]c2=O)n1

>  <Energy>  (73) 
75.50516716458148

>  <Genealogy>  (73) 
Cc1csc(SCC(=O)c2ccccc2N=Cc2c(O)[n-]c(=O)[n-]c2=O)n1 (protonated)
Cc1csc(SCC(=O)c2ccccc2/N=C/c2c(O)[n-]c(=O)[n-]c2=O)n1 (cis-trans isomerization)
Cc1csc(SCC(=O)c2ccccc2/N=C/c2c(O)[n-]c(=O)[n-]c2=O)n1 (3D coordinates assigned)
Cc1csc(SCC(=O)c2ccccc2/N=C/c2c(O)[n-]c(=O)[n-]c2=O)n1 (optimized conformer: 75.50516716458148 kcal/mol)

>  <smiles>  (73) 
Cc1csc(SCC(=O)c2ccccc2N=Cc2c(O)[nH]c(=O)[nH]c2=O)n1

>  <score_type>  (73) 
oracle

>  <origin>  (73) 
adg

>  <m_score__min__energy>  (73) 
-12.82

>  <m_primary>  (73) 
energy

$$$$
73:0
     RDKit          3D

 33 35  0  0  0  0  0  0  0  0999 V2000
   56.2120   23.4220   43.4310 C   0  0  0  0  0  0  0  0  0  0  0  0
   56.4370   22.9240   44.7920 N   0  0  0  0  0  0  0  0  0  0  0  0
   56.8390   21.5360   45.0270 C   0  0  0  0  0  0  0  0  0  0  0  0
   56.0800   23.7440   45.9150 C   0  0  0  0  0  0  0  0  0  0  0  0
   55.3450   23.2710   46.8220 O   0  0  0  0  0  0  0  0  0  0  0  0
   56.5490   25.1340   46.0310 C   0  0  0  0  0  0  0  0  0  0  0  0
   57.8470   25.4850   46.0650 N   0  0  0  0  0  0  0  0  0  0  0  0
   57.8160   26.8350   46.1280 C   0  0  0  0  0  0  0  0  0  0  0  0
   59.0530   27.6740   46.1330 C   0  0  0  0  0  0  0  0  0  0  0  0
   58.7030   29.0910   45.8160 C   0  0  0  0  0  0  0  0  0  0  0  0
   58.8010   30.0990   46.7160 N   0  0  0  0  0  0  0  0  0  0  0  0
   58.3580   31.2680   46.1870 C   0  0  0  0  0  0  0  0  0  0  0  0
   58.3390   32.4860   46.8690 C   0  0  0  0  0  0  0  0  0  0  0  0
   57.8460   33.6230   46.2050 C   0  0  0  0  0  0  0  0  0  0  0  0
   57.3820   33.5300   44.8780 C   0  0  0  0  0  0  0  0  0  0  0  0
   57.4050   32.2990   44.2020 C   0  0  0  0  0  0  0  0  0  0  0  0
   57.8980   31.1880   44.8820 C   0  0  0  0  0  0  0  0  0  0  0  0
   58.0390   29.6050   44.3420 S   0  0  0  0  0  0  0  0  0  0  0  0
   56.5720   27.3620   46.0980 N   0  0  0  0  0  0  0  0  0  0  0  0
   55.7840   26.2770   46.0350 C   0  0  0  0  0  0  0  0  0  0  0  0
   54.3990   26.3380   45.9340 O   0  0  0  0  0  0  0  0  0  0  0  0
   55.7595   24.4236   43.4772 H   0  0  0  0  0  0  0  0  0  0  0  0
   57.1724   23.4778   42.8975 H   0  0  0  0  0  0  0  0  0  0  0  0
   55.5354   22.7382   42.8975 H   0  0  0  0  0  0  0  0  0  0  0  0
   56.8934   21.3483   46.1095 H   0  0  0  0  0  0  0  0  0  0  0  0
   56.1001   20.8586   44.5740 H   0  0  0  0  0  0  0  0  0  0  0  0
   57.8255   21.3583   44.5740 H   0  0  0  0  0  0  0  0  0  0  0  0
   59.5224   27.6271   47.1267 H   0  0  0  0  0  0  0  0  0  0  0  0
   59.7534   27.2939   45.3747 H   0  0  0  0  0  0  0  0  0  0  0  0
   58.7024   32.5547   47.9050 H   0  0  0  0  0  0  0  0  0  0  0  0
   57.8224   34.5919   46.7252 H   0  0  0  0  0  0  0  0  0  0  0  0
   56.9995   34.4266   44.3684 H   0  0  0  0  0  0  0  0  0  0  0  0
   57.0443   32.2149   43.1662 H   0  0  0  0  0  0  0  0  0  0  0  0
  1  2  1  0
  2  3  1  0
  2  4  1  0
  4  5  2  0
  4  6  1  0
  6  7  1  0
  7  8  2  0
  8  9  1  0
  9 10  1  0
 10 11  2  0
 11 12  1  0
 12 13  2  0
 13 14  1  0
 14 15  2  0
 15 16  1  0
 16 17  2  0
 17 18  1  0
  8 19  1  0
 19 20  1  0
 20 21  1  0
 20  6  2  0
 18 10  1  0
 17 12  1  0
  1 22  1  0
  1 23  1  0
  1 24  1  0
  3 25  1  0
  3 26  1  0
  3 27  1  0
  9 28  1  0
  9 29  1  0
 13 30  1  0
 14 31  1  0
 15 32  1  0
 16 33  1  0
M  CHG  2  19  -1  21  -1
M  END
>  <UniqueID>  (74) 
70

>  <SMILES>  (74) 
CN(C)C(=O)c1nc(Cc2nc3ccccc3s2)[n-]c1[O-]

>  <Energy>  (74) 
98.14063643019418

>  <Genealogy>  (74) 
CN(C)C(=O)c1nc(Cc2nc3ccccc3s2)[n-]c1[O-] (protonated)
CN(C)C(=O)c1nc(Cc2nc3ccccc3s2)[n-]c1[O-] (3D coordinates assigned)
CN(C)C(=O)c1nc(Cc2nc3ccccc3s2)[n-]c1[O-] (optimized conformer: 98.14063643019418 kcal/mol)

>  <smiles>  (74) 
CN(C)C(=O)c1nc(Cc2nc3ccccc3s2)[nH]c1O

>  <score_type>  (74) 
oracle

>  <origin>  (74) 
adg

>  <m_score__min__energy>  (74) 
-12.65

>  <m_primary>  (74) 
energy

$$$$
74:0
     RDKit          3D

 88 92  0  0  0  0  0  0  0  0999 V2000
   68.5040   26.1130   50.0020 C   0  0  0  0  0  0  0  0  0  0  0  0
   68.3070   27.6000   50.3000 C   0  0  0  0  0  0  0  0  0  0  0  0
   66.9380   27.8430   50.8090 N   0  0  0  0  0  0  0  0  0  0  0  0
   66.8870   29.0610   51.6460 C   0  0  0  0  0  0  0  0  0  0  0  0
   65.4500   29.3290   52.1420 C   0  0  0  0  0  0  0  0  0  0  0  0
   64.5260   28.2470   51.7420 N   0  0  0  0  0  0  0  0  0  0  0  0
   63.1830   28.4940   52.3070 C   0  0  0  0  0  0  0  0  0  0  0  0
   62.1310   28.4640   51.2290 C   0  0  0  0  0  0  0  0  0  0  0  0
   61.7600   29.6490   50.5740 C   0  0  0  0  0  0  0  0  0  0  0  0
   60.7560   29.6340   49.6010 C   0  0  0  0  0  0  0  0  0  0  0  0
   60.0890   28.4360   49.2860 C   0  0  0  0  0  0  0  0  0  0  0  0
   59.0310   28.3960   48.3100 N   0  0  0  0  0  0  0  0  0  0  0  0
   59.0550   27.5670   47.1310 C   0  0  0  0  0  0  0  0  0  0  0  0
   59.9910   26.7510   46.9370 O   0  0  0  0  0  0  0  0  0  0  0  0
   57.9730   27.6920   46.1010 C   0  0  0  0  0  0  0  0  0  0  0  0
   57.9080   29.0980   45.5710 C   0  0  0  0  0  0  0  0  0  0  0  0
   58.9920   29.9730   45.7420 C   0  0  0  0  0  0  0  0  0  0  0  0
   58.9310   31.2770   45.2430 C   0  0  0  0  0  0  0  0  0  0  0  0
   57.7910   31.7240   44.5630 C   0  0  0  0  0  0  0  0  0  0  0  0
   57.7450   33.0780   44.0960 N   0  0  0  0  0  0  0  0  0  0  0  0
   57.4350   34.2440   44.8710 C   0  0  0  0  0  0  0  0  0  0  0  0
   56.4530   34.9490   44.5120 O   0  0  0  0  0  0  0  0  0  0  0  0
   58.1400   34.5410   46.1830 C   0  0  0  0  0  0  0  0  0  0  0  0
   59.6290   34.9060   45.9360 C   0  0  0  0  0  0  0  0  0  0  0  0
   60.6010   33.7730   46.2880 C   0  0  0  0  0  0  0  0  0  0  0  0
   60.3720   33.2720   47.6570 N   0  0  0  0  0  0  0  0  0  0  0  0
   61.4280   32.6230   48.4030 C   0  0  0  0  0  0  0  0  0  0  0  0
   61.3180   32.4980   49.6580 O   0  0  0  0  0  0  0  0  0  0  0  0
   62.6770   32.0970   47.7320 C   0  0  0  0  0  0  0  0  0  0  0  0
   63.8580   33.0690   47.8670 C   0  0  0  0  0  0  0  0  0  0  0  0
   64.3320   33.1660   49.2950 C   0  0  0  0  0  0  0  0  0  0  0  0
   63.6980   34.0310   50.2030 C   0  0  0  0  0  0  0  0  0  0  0  0
   64.1270   34.0970   51.5310 C   0  0  0  0  0  0  0  0  0  0  0  0
   65.1800   33.2900   51.9710 C   0  0  0  0  0  0  0  0  0  0  0  0
   65.8090   32.4210   51.0750 C   0  0  0  0  0  0  0  0  0  0  0  0
   65.3880   32.3560   49.7430 C   0  0  0  0  0  0  0  0  0  0  0  0
   59.0490   33.4350   48.2800 C   0  0  0  0  0  0  0  0  0  0  0  0
   57.9590   33.3980   47.2120 C   0  0  0  0  0  0  0  0  0  0  0  0
   56.6830   30.8700   44.4390 C   0  0  0  0  0  0  0  0  0  0  0  0
   56.7450   29.5600   44.9320 C   0  0  0  0  0  0  0  0  0  0  0  0
   60.4900   27.2470   49.9130 C   0  0  0  0  0  0  0  0  0  0  0  0
   61.4960   27.2590   50.8830 C   0  0  0  0  0  0  0  0  0  0  0  0
   65.0620   26.9470   52.1980 C   0  0  0  0  0  0  0  0  0  0  0  0
   66.4480   26.6780   51.5780 C   0  0  0  0  0  0  0  0  0  0  0  0
   68.5778   25.5561   50.9478 H   0  0  0  0  0  0  0  0  0  0  0  0
   67.6476   25.7387   49.4219 H   0  0  0  0  0  0  0  0  0  0  0  0
   69.4283   25.9746   49.4219 H   0  0  0  0  0  0  0  0  0  0  0  0
   69.0381   27.9186   51.0576 H   0  0  0  0  0  0  0  0  0  0  0  0
   68.4521   28.1739   49.3729 H   0  0  0  0  0  0  0  0  0  0  0  0
   67.5490   28.9291   52.5145 H   0  0  0  0  0  0  0  0  0  0  0  0
   67.2149   29.9181   51.0395 H   0  0  0  0  0  0  0  0  0  0  0  0
   65.4591   29.4032   53.2395 H   0  0  0  0  0  0  0  0  0  0  0  0
   65.0985   30.2672   51.6879 H   0  0  0  0  0  0  0  0  0  0  0  0
   62.9573   27.7166   53.0518 H   0  0  0  0  0  0  0  0  0  0  0  0
   63.1770   29.4892   52.7755 H   0  0  0  0  0  0  0  0  0  0  0  0
   62.2619   30.5944   50.8276 H   0  0  0  0  0  0  0  0  0  0  0  0
   60.4862   30.5639   49.0790 H   0  0  0  0  0  0  0  0  0  0  0  0
   58.2940   29.1350   48.3640 H   0  0  0  0  0  0  0  0  0  0  0  0
   58.1826   27.0017   45.2706 H   0  0  0  0  0  0  0  0  0  0  0  0
   57.0083   27.4434   46.5674 H   0  0  0  0  0  0  0  0  0  0  0  0
   59.8936   29.6309   46.2712 H   0  0  0  0  0  0  0  0  0  0  0  0
   59.7840   31.9569   45.3852 H   0  0  0  0  0  0  0  0  0  0  0  0
   57.6631   35.4229   46.6355 H   0  0  0  0  0  0  0  0  0  0  0  0
   59.7549   35.1553   44.8721 H   0  0  0  0  0  0  0  0  0  0  0  0
   59.8684   35.7548   46.5934 H   0  0  0  0  0  0  0  0  0  0  0  0
   60.4597   32.9463   45.5762 H   0  0  0  0  0  0  0  0  0  0  0  0
   61.6265   34.1668   46.2308 H   0  0  0  0  0  0  0  0  0  0  0  0
   62.9519   31.1382   48.1958 H   0  0  0  0  0  0  0  0  0  0  0  0
   62.4600   31.9743   46.6606 H   0  0  0  0  0  0  0  0  0  0  0  0
   64.6875   32.7134   47.2382 H   0  0  0  0  0  0  0  0  0  0  0  0
   63.5233   34.0663   47.5455 H   0  0  0  0  0  0  0  0  0  0  0  0
   62.8600   34.6591   49.8666 H   0  0  0  0  0  0  0  0  0  0  0  0
   63.6344   34.7863   52.2326 H   0  0  0  0  0  0  0  0  0  0  0  0
   65.5124   33.3386   53.0184 H   0  0  0  0  0  0  0  0  0  0  0  0
   66.6385   31.7857   51.4190 H   0  0  0  0  0  0  0  0  0  0  0  0
   65.8858   31.6680   49.0438 H   0  0  0  0  0  0  0  0  0  0  0  0
   58.8822   32.6192   48.9988 H   0  0  0  0  0  0  0  0  0  0  0  0
   59.0121   34.4041   48.7992 H   0  0  0  0  0  0  0  0  0  0  0  0
   58.0047   32.4326   46.6868 H   0  0  0  0  0  0  0  0  0  0  0  0
   56.9846   33.5268   47.7060 H   0  0  0  0  0  0  0  0  0  0  0  0
   55.7641   31.2305   43.9536 H   0  0  0  0  0  0  0  0  0  0  0  0
   55.8797   28.8904   44.8184 H   0  0  0  0  0  0  0  0  0  0  0  0
   60.0084   26.2968   49.6388 H   0  0  0  0  0  0  0  0  0  0  0  0
   61.7918   26.3220   51.3774 H   0  0  0  0  0  0  0  0  0  0  0  0
   65.1535   26.9592   53.2941 H   0  0  0  0  0  0  0  0  0  0  0  0
   64.3731   26.1506   51.8800 H   0  0  0  0  0  0  0  0  0  0  0  0
   67.1626   26.4569   52.3845 H   0  0  0  0  0  0  0  0  0  0  0  0
   66.3561   25.8257   50.8887 H   0  0  0  0  0  0  0  0  0  0  0  0
  1  2  1  0
  2  3  1  0
  3  4  1  0
  4  5  1  0
  5  6  1  0
  6  7  1  0
  7  8  1  0
  8  9  2  0
  9 10  1  0
 10 11  2  0
 11 12  1  0
 12 13  1  0
 13 14  2  0
 13 15  1  0
 15 16  1  0
 16 17  2  0
 17 18  1  0
 18 19  2  0
 19 20  1  0
 20 21  1  0
 21 22  2  0
 21 23  1  0
 23 24  1  0
 24 25  1  0
 25 26  1  0
 26 27  1  0
 27 28  2  0
 27 29  1  0
 29 30  1  0
 30 31  1  0
 31 32  2  0
 32 33  1  0
 33 34  2  0
 34 35  1  0
 35 36  2  0
 26 37  1  0
 37 38  1  0
 19 39  1  0
 39 40  2  0
 11 41  1  0
 41 42  2  0
  6 43  1  0
 43 44  1  0
 44  3  1  0
 42  8  1  0
 40 16  1  0
 38 23  1  0
 36 31  1  0
  1 45  1  0
  1 46  1  0
  1 47  1  0
  2 48  1  0
  2 49  1  0
  4 50  1  0
  4 51  1  0
  5 52  1  0
  5 53  1  0
  7 54  1  0
  7 55  1  0
  9 56  1  0
 10 57  1  0
 12 58  1  0
 15 59  1  0
 15 60  1  0
 17 61  1  0
 18 62  1  0
 23 63  1  0
 24 64  1  0
 24 65  1  0
 25 66  1  0
 25 67  1  0
 29 68  1  0
 29 69  1  0
 30 70  1  0
 30 71  1  0
 32 72  1  0
 33 73  1  0
 34 74  1  0
 35 75  1  0
 36 76  1  0
 37 77  1  0
 37 78  1  0
 38 79  1  0
 38 80  1  0
 39 81  1  0
 40 82  1  0
 41 83  1  0
 42 84  1  0
 43 85  1  0
 43 86  1  0
 44 87  1  0
 44 88  1  0
M  CHG  1  20  -1
M  END
>  <UniqueID>  (75) 
71

>  <SMILES>  (75) 
CCN1CCN(Cc2ccc(NC(=O)Cc3ccc([N-]C(=O)C4CCN(C(=O)CCc5ccccc5)CC4)cc3)cc2)CC1

>  <Energy>  (75) 
107.6772238671536

>  <Genealogy>  (75) 
CCN1CCN(Cc2ccc(NC(=O)Cc3ccc([N-]C(=O)C4CCN(C(=O)CCc5ccccc5)CC4)cc3)cc2)CC1 (protonated)
CCN1CCN(Cc2ccc(NC(=O)Cc3ccc([N-]C(=O)C4CCN(C(=O)CCc5ccccc5)CC4)cc3)cc2)CC1 (3D coordinates assigned)
CCN1CCN(Cc2ccc(NC(=O)Cc3ccc([N-]C(=O)C4CCN(C(=O)CCc5ccccc5)CC4)cc3)cc2)CC1 (nonaromatic ring conformer: 107.6772238671536 kcal/mol)

>  <smiles>  (75) 
CCN1CCN(Cc2ccc(NC(=O)Cc3ccc(NC(=O)C4CCN(C(=O)CCc5ccccc5)CC4)cc3)cc2)CC1

>  <score_type>  (75) 
oracle

>  <origin>  (75) 
adg

>  <m_score__min__energy>  (75) 
-12.77

>  <m_primary>  (75) 
energy

$$$$
75:0
     RDKit          3D

 46 49  0  0  0  0  0  0  0  0999 V2000
   58.3700   23.5780   45.2960 C   0  0  0  0  0  0  0  0  0  0  0  0
   57.0920   23.5070   44.5220 C   0  0  0  0  0  0  0  0  0  0  0  0
   56.9070   22.8450   43.3270 C   0  0  0  0  0  0  0  0  0  0  0  0
   55.5880   23.0540   42.9840 C   0  0  0  0  0  0  0  0  0  0  0  0
   54.9970   23.7870   43.9010 O   0  0  0  0  0  0  0  0  0  0  0  0
   55.8700   24.0820   44.8390 C   0  0  0  0  0  0  0  0  0  0  0  0
   55.5540   24.9030   46.0280 C   0  0  0  0  0  0  0  0  0  0  0  0
   55.2420   24.3390   47.1090 O   0  0  0  0  0  0  0  0  0  0  0  0
   55.5200   26.3360   45.9720 N   0  0  0  0  0  0  0  0  0  0  0  0
   56.6170   27.2220   45.7000 C   0  0  0  0  0  0  0  0  0  0  0  0
   57.9170   26.7430   45.8940 C   0  0  0  0  0  0  0  0  0  0  0  0
   59.0200   27.5510   45.6130 C   0  0  0  0  0  0  0  0  0  0  0  0
   58.8330   28.8450   45.1250 C   0  0  0  0  0  0  0  0  0  0  0  0
   57.5400   29.3360   44.8990 C   0  0  0  0  0  0  0  0  0  0  0  0
   57.3250   30.9980   44.3410 S   0  0  0  0  0  0  0  0  0  0  0  0
   55.9560   31.4900   44.7190 O   0  0  0  0  0  0  0  0  0  0  0  0
   57.4510   31.0650   42.8430 O   0  0  0  0  0  0  0  0  0  0  0  0
   58.5250   32.0120   45.0860 N   0  0  0  0  0  0  0  0  0  0  0  0
   58.2960   32.1380   46.5280 C   0  0  0  0  0  0  0  0  0  0  0  0
   59.5190   32.7100   47.1840 C   0  0  0  0  0  0  0  0  0  0  0  0
   59.3930   33.7230   48.1720 C   0  0  0  0  0  0  0  0  0  0  0  0
   60.5330   34.2670   48.7910 C   0  0  0  0  0  0  0  0  0  0  0  0
   61.7800   33.7860   48.3970 C   0  0  0  0  0  0  0  0  0  0  0  0
   62.9830   34.1760   48.8460 N   0  0  0  0  0  0  0  0  0  0  0  0
   63.8890   33.4460   48.1550 C   0  0  0  0  0  0  0  0  0  0  0  0
   63.2540   32.5880   47.2620 C   0  0  0  0  0  0  0  0  0  0  0  0
   61.9080   32.8220   47.4330 C   0  0  0  0  0  0  0  0  0  0  0  0
   60.8020   32.2620   46.7990 C   0  0  0  0  0  0  0  0  0  0  0  0
   56.4270   28.5150   45.1640 C   0  0  0  0  0  0  0  0  0  0  0  0
   55.1460   28.9710   44.8730 O   0  0  0  0  0  0  0  0  0  0  0  0
   58.1475   23.5656   46.3732 H   0  0  0  0  0  0  0  0  0  0  0  0
   59.0010   22.7135   45.0420 H   0  0  0  0  0  0  0  0  0  0  0  0
   58.9014   24.5070   45.0420 H   0  0  0  0  0  0  0  0  0  0  0  0
   57.6563   22.2694   42.7639 H   0  0  0  0  0  0  0  0  0  0  0  0
   55.1022   22.6648   42.0771 H   0  0  0  0  0  0  0  0  0  0  0  0
   58.0712   25.7212   46.2711 H   0  0  0  0  0  0  0  0  0  0  0  0
   60.0379   27.1673   45.7764 H   0  0  0  0  0  0  0  0  0  0  0  0
   59.7048   29.4827   44.9167 H   0  0  0  0  0  0  0  0  0  0  0  0
   57.4394   32.8049   46.7058 H   0  0  0  0  0  0  0  0  0  0  0  0
   58.0842   31.1455   46.9523 H   0  0  0  0  0  0  0  0  0  0  0  0
   58.3940   34.0856   48.4558 H   0  0  0  0  0  0  0  0  0  0  0  0
   60.4430   35.0470   49.5613 H   0  0  0  0  0  0  0  0  0  0  0  0
   63.1850   34.8980   49.5720 H   0  0  0  0  0  0  0  0  0  0  0  0
   64.9791   33.5206   48.2819 H   0  0  0  0  0  0  0  0  0  0  0  0
   63.7259   31.8761   46.5688 H   0  0  0  0  0  0  0  0  0  0  0  0
   60.9238   31.4935   46.0214 H   0  0  0  0  0  0  0  0  0  0  0  0
  1  2  1  0
  2  3  1  0
  3  4  2  0
  4  5  1  0
  5  6  1  0
  6  7  1  0
  7  8  2  0
  7  9  1  0
  9 10  1  0
 10 11  2  0
 11 12  1  0
 12 13  2  0
 13 14  1  0
 14 15  1  0
 15 16  2  0
 15 17  2  0
 15 18  1  0
 18 19  1  0
 19 20  1  0
 20 21  2  0
 21 22  1  0
 22 23  2  0
 23 24  1  0
 24 25  1  0
 25 26  2  0
 26 27  1  0
 27 28  2  0
 14 29  2  0
 29 30  1  0
  6  2  2  0
 29 10  1  0
 28 20  1  0
 27 23  1  0
  1 31  1  0
  1 32  1  0
  1 33  1  0
  3 34  1  0
  4 35  1  0
 11 36  1  0
 12 37  1  0
 13 38  1  0
 19 39  1  0
 19 40  1  0
 21 41  1  0
 22 42  1  0
 24 43  1  0
 25 44  1  0
 26 45  1  0
 28 46  1  0
M  CHG  3   9  -1  18  -1  30  -1
M  END
>  <UniqueID>  (76) 
72

>  <SMILES>  (76) 
Cc1ccoc1C(=O)[N-]c1cccc(S(=O)(=O)[N-]Cc2ccc3[nH]ccc3c2)c1[O-]

>  <Energy>  (76) 
112.33213380751906

>  <Genealogy>  (76) 
Cc1ccoc1C(=O)[N-]c1cccc(S(=O)(=O)[N-]Cc2ccc3[nH]ccc3c2)c1[O-] (protonated)
Cc1ccoc1C(=O)[N-]c1cccc(S(=O)(=O)[N-]Cc2ccc3[nH]ccc3c2)c1[O-] (3D coordinates assigned)
Cc1ccoc1C(=O)[N-]c1cccc(S(=O)(=O)[N-]Cc2ccc3[nH]ccc3c2)c1[O-] (optimized conformer: 112.33213380751906 kcal/mol)

>  <smiles>  (76) 
Cc1ccoc1C(=O)Nc1cccc(S(=O)(=O)NCc2ccc3[nH]ccc3c2)c1O

>  <score_type>  (76) 
oracle

>  <origin>  (76) 
adg

>  <m_score__min__energy>  (76) 
-16.68

>  <m_primary>  (76) 
energy

$$$$
76:0
     RDKit          3D

 44 45  0  0  0  0  0  0  0  0999 V2000
   60.6720   30.6830   48.0280 C   0  0  0  0  0  0  0  0  0  0  0  0
   61.7940   31.5800   47.4870 C   0  0  0  0  0  0  0  0  0  0  0  0
   61.3490   32.9530   47.1510 N   0  0  0  0  0  0  0  0  0  0  0  0
   62.4680   33.8000   46.6760 C   0  0  0  0  0  0  0  0  0  0  0  0
   63.7730   33.4390   47.3820 C   0  0  0  0  0  0  0  0  0  0  0  0
   60.5740   33.5720   48.2530 C   0  0  0  0  0  0  0  0  0  0  0  0
   59.1220   33.6140   47.9070 C   0  0  0  0  0  0  0  0  0  0  0  0
   58.6680   34.5430   47.1220 N   0  0  0  0  0  0  0  0  0  0  0  0
   59.1850   34.8510   45.8200 C   0  0  0  0  0  0  0  0  0  0  0  0
   59.8990   35.8810   45.6880 O   0  0  0  0  0  0  0  0  0  0  0  0
   58.8930   33.9740   44.6240 C   0  0  0  0  0  0  0  0  0  0  0  0
   57.4610   33.4240   44.6170 C   0  0  0  0  0  0  0  0  0  0  0  0
   57.4740   31.9350   44.7750 C   0  0  0  0  0  0  0  0  0  0  0  0
   56.3060   31.2380   44.7410 N   0  0  0  0  0  0  0  0  0  0  0  0
   56.2870   29.8830   44.8440 C   0  0  0  0  0  0  0  0  0  0  0  0
   55.1830   29.2770   44.8130 O   0  0  0  0  0  0  0  0  0  0  0  0
   57.4950   29.1790   44.9800 C   0  0  0  0  0  0  0  0  0  0  0  0
   57.5440   27.7780   45.0920 C   0  0  0  0  0  0  0  0  0  0  0  0
   58.7760   27.1290   45.2220 C   0  0  0  0  0  0  0  0  0  0  0  0
   59.9630   27.8700   45.2410 C   0  0  0  0  0  0  0  0  0  0  0  0
   59.9240   29.2630   45.1300 C   0  0  0  0  0  0  0  0  0  0  0  0
   58.6950   29.9210   45.0020 C   0  0  0  0  0  0  0  0  0  0  0  0
   58.6550   31.2750   44.8950 N   0  0  0  0  0  0  0  0  0  0  0  0
   60.6895   30.6970   49.1278 H   0  0  0  0  0  0  0  0  0  0  0  0
   59.7004   31.0561   47.6720 H   0  0  0  0  0  0  0  0  0  0  0  0
   60.8221   29.6531   47.6720 H   0  0  0  0  0  0  0  0  0  0  0  0
   62.5831   31.6477   48.2504 H   0  0  0  0  0  0  0  0  0  0  0  0
   62.1514   31.1204   46.5537 H   0  0  0  0  0  0  0  0  0  0  0  0
   62.5938   33.6539   45.5930 H   0  0  0  0  0  0  0  0  0  0  0  0
   62.2295   34.8500   46.9010 H   0  0  0  0  0  0  0  0  0  0  0  0
   63.6242   33.4802   48.4711 H   0  0  0  0  0  0  0  0  0  0  0  0
   64.0780   32.4228   47.0917 H   0  0  0  0  0  0  0  0  0  0  0  0
   64.5569   34.1540   47.0917 H   0  0  0  0  0  0  0  0  0  0  0  0
   60.7113   32.9801   49.1700 H   0  0  0  0  0  0  0  0  0  0  0  0
   60.9339   34.5996   48.4096 H   0  0  0  0  0  0  0  0  0  0  0  0
   58.4369   32.8576   48.3174 H   0  0  0  0  0  0  0  0  0  0  0  0
   59.0450   34.5666   43.7098 H   0  0  0  0  0  0  0  0  0  0  0  0
   59.5752   33.1126   44.6743 H   0  0  0  0  0  0  0  0  0  0  0  0
   56.8964   33.8719   45.4480 H   0  0  0  0  0  0  0  0  0  0  0  0
   56.9857   33.6773   43.6579 H   0  0  0  0  0  0  0  0  0  0  0  0
   56.6130   27.1924   45.0773 H   0  0  0  0  0  0  0  0  0  0  0  0
   58.8121   26.0331   45.3096 H   0  0  0  0  0  0  0  0  0  0  0  0
   60.9295   27.3549   45.3436 H   0  0  0  0  0  0  0  0  0  0  0  0
   60.8591   29.8421   45.1432 H   0  0  0  0  0  0  0  0  0  0  0  0
  1  2  1  0
  2  3  1  0
  3  4  1  0
  4  5  1  0
  3  6  1  0
  6  7  1  0
  7  8  2  3
  8  9  1  0
  9 10  2  0
  9 11  1  0
 11 12  1  0
 12 13  1  0
 13 14  2  0
 14 15  1  0
 15 16  2  0
 15 17  1  0
 17 18  2  0
 18 19  1  0
 19 20  2  0
 20 21  1  0
 21 22  2  0
 22 23  1  0
 23 13  1  0
 22 17  1  0
  1 24  1  0
  1 25  1  0
  1 26  1  0
  2 27  1  0
  2 28  1  0
  4 29  1  0
  4 30  1  0
  5 31  1  0
  5 32  1  0
  5 33  1  0
  6 34  1  0
  6 35  1  0
  7 36  1  0
 11 37  1  0
 11 38  1  0
 12 39  1  0
 12 40  1  0
 18 41  1  0
 19 42  1  0
 20 43  1  0
 21 44  1  0
M  CHG  1  23  -1
M  END
>  <UniqueID>  (77) 
73

>  <SMILES>  (77) 
CCN(CC)CC=NC(=O)CCc1nc(=O)c2ccccc2[n-]1

>  <Energy>  (77) 
44.714379253993435

>  <Genealogy>  (77) 
CCN(CC)CC=NC(=O)CCc1nc(=O)c2ccccc2[n-]1 (protonated)
CCN(CC)CC=NC(=O)CCc1nc(=O)c2ccccc2[n-]1 (3D coordinates assigned)
CCN(CC)CC=NC(=O)CCc1nc(=O)c2ccccc2[n-]1 (optimized conformer: 44.714379253993435 kcal/mol)

>  <smiles>  (77) 
CCN(CC)CC=NC(=O)CCc1nc(=O)c2ccccc2[nH]1

>  <score_type>  (77) 
oracle

>  <origin>  (77) 
adg

>  <m_score__min__energy>  (77) 
-9.2599999999999998

>  <m_primary>  (77) 
energy

$$$$
77:0
     RDKit          3D

 42 44  0  0  0  0  0  0  0  0999 V2000
   59.4175   35.9388   45.7048 H   0  0  0  0  0  0  0  0  0  0  0  0
   59.1600   34.8850   45.8870 C   0  0  0  0  0  0  0  0  0  0  0  0
   59.0240   34.4180   47.1960 C   0  0  0  0  0  0  0  0  0  0  0  0
   59.1637   35.1060   48.0429 H   0  0  0  0  0  0  0  0  0  0  0  0
   58.7100   33.0750   47.4300 C   0  0  0  0  0  0  0  0  0  0  0  0
   58.5190   32.4930   49.0730 Cl  0  0  0  0  0  0  0  0  0  0  0  0
   58.5270   32.2010   46.3510 C   0  0  0  0  0  0  0  0  0  0  0  0
   58.2983   31.1412   46.5371 H   0  0  0  0  0  0  0  0  0  0  0  0
   58.6340   32.6710   45.0360 C   0  0  0  0  0  0  0  0  0  0  0  0
   58.3800   31.7660   43.9510 N   0  0  0  0  0  0  0  0  0  0  0  0
   57.1760   31.0130   43.7390 C   0  0  0  0  0  0  0  0  0  0  0  0
   56.6640   30.9990   42.5900 O   0  0  0  0  0  0  0  0  0  0  0  0
   56.5290   30.2790   44.7930 N   0  0  0  0  0  0  0  0  0  0  0  0
   56.9410   29.1600   45.3190 C   0  0  0  0  0  0  0  0  0  0  0  0
   58.1900   29.0570   45.8510 N   0  0  0  0  0  0  0  0  0  0  0  0
   58.6060   27.9280   46.4730 C   0  0  0  0  0  0  0  0  0  0  0  0
   59.8780   27.9000   47.0520 O   0  0  0  0  0  0  0  0  0  0  0  0
   60.4200   28.9390   47.8250 C   0  0  0  0  0  0  0  0  0  0  0  0
   60.3570   28.9390   49.2280 C   0  0  0  0  0  0  0  0  0  0  0  0
   59.9034   28.0866   49.7549 H   0  0  0  0  0  0  0  0  0  0  0  0
   60.8660   30.0130   49.9570 C   0  0  0  0  0  0  0  0  0  0  0  0
   60.8128   30.0002   51.0556 H   0  0  0  0  0  0  0  0  0  0  0  0
   61.4460   31.1110   49.3010 C   0  0  0  0  0  0  0  0  0  0  0  0
   61.9790   32.2610   50.1150 C   0  0  0  0  0  0  0  0  0  0  0  0
   61.8731   32.0325   51.1858 H   0  0  0  0  0  0  0  0  0  0  0  0
   63.0414   32.4175   49.8768 H   0  0  0  0  0  0  0  0  0  0  0  0
   61.4117   33.1728   49.8768 H   0  0  0  0  0  0  0  0  0  0  0  0
   61.5160   31.1170   47.8870 C   0  0  0  0  0  0  0  0  0  0  0  0
   62.1180   32.2780   47.1390 C   0  0  0  0  0  0  0  0  0  0  0  0
   62.5015   33.0177   47.8572 H   0  0  0  0  0  0  0  0  0  0  0  0
   62.9433   31.9186   46.5068 H   0  0  0  0  0  0  0  0  0  0  0  0
   61.3487   32.7454   46.5068 H   0  0  0  0  0  0  0  0  0  0  0  0
   60.9940   30.0290   47.1660 C   0  0  0  0  0  0  0  0  0  0  0  0
   61.0381   30.0359   46.0669 H   0  0  0  0  0  0  0  0  0  0  0  0
   57.7590   26.8170   46.5250 C   0  0  0  0  0  0  0  0  0  0  0  0
   58.0804   25.8860   47.0148 H   0  0  0  0  0  0  0  0  0  0  0  0
   56.4950   26.9180   45.9400 C   0  0  0  0  0  0  0  0  0  0  0  0
   55.7110   25.9320   45.9670 O   0  0  0  0  0  0  0  0  0  0  0  0
   56.1090   28.0820   45.3490 N   0  0  0  0  0  0  0  0  0  0  0  0
   55.1530   28.1530   44.9280 H   0  0  0  0  0  0  0  0  0  0  0  0
   58.9700   34.0180   44.8080 C   0  0  0  0  0  0  0  0  0  0  0  0
   59.0833   34.3891   43.7787 H   0  0  0  0  0  0  0  0  0  0  0  0
  1  2  1  0
  2  3  2  0
  3  4  1  0
  3  5  1  0
  5  6  1  0
  5  7  2  0
  7  8  1  0
  7  9  1  0
  9 10  1  0
 10 11  1  0
 11 12  2  0
 11 13  1  0
 13 14  2  0
 14 15  1  0
 15 16  1  0
 16 17  1  0
 17 18  1  0
 18 19  2  0
 19 20  1  0
 19 21  1  0
 21 22  1  0
 21 23  2  0
 23 24  1  0
 24 25  1  0
 24 26  1  0
 24 27  1  0
 23 28  1  0
 28 29  1  0
 29 30  1  0
 29 31  1  0
 29 32  1  0
 28 33  2  0
 33 34  1  0
 16 35  2  0
 35 36  1  0
 35 37  1  0
 37 38  2  0
 37 39  1  0
 39 40  1  0
  9 41  2  0
 41 42  1  0
 41  2  1  0
 39 14  1  0
 33 18  1  0
M  CHG  2  10  -1  15  -1
M  END
>  <UniqueID>  (78) 
74

>  <SMILES>  (78) 
Cc1ccc(Oc2cc(=O)[nH]/c(=N/C(=O)[N-]c3cccc(Cl)c3)[n-]2)cc1C

>  <Energy>  (78) 
58.12781142591658

>  <Genealogy>  (78) 
Cc1ccc(Oc2cc(=O)[nH]c(=NC(=O)[N-]c3cccc(Cl)c3)[n-]2)cc1C (protonated)
Cc1ccc(Oc2cc(=O)[nH]/c(=N/C(=O)[N-]c3cccc(Cl)c3)[n-]2)cc1C (cis-trans isomerization)
Cc1ccc(Oc2cc(=O)[nH]/c(=N/C(=O)[N-]c3cccc(Cl)c3)[n-]2)cc1C (3D coordinates assigned)
Cc1ccc(Oc2cc(=O)[nH]/c(=N/C(=O)[N-]c3cccc(Cl)c3)[n-]2)cc1C (optimized conformer: 58.12781142591658 kcal/mol)

>  <smiles>  (78) 
Cc1ccc(Oc2cc(=O)[nH]c(=NC(=O)Nc3cccc(Cl)c3)[nH]2)cc1C

>  <score_type>  (78) 
oracle

>  <origin>  (78) 
adg

>  <m_score__min__energy>  (78) 
-11.1

>  <m_primary>  (78) 
energy

$$$$
78:0
     RDKit          3D

 51 54  0  0  0  0  0  0  0  0999 V2000
   57.3990   32.2750   44.9590 C   0  0  0  0  0  0  0  0  0  0  0  0
   57.9670   31.8700   46.2890 C   0  0  0  0  0  0  0  0  0  0  0  0
   58.1300   30.5600   46.7480 C   0  0  0  0  0  0  0  0  0  0  0  0
   57.7920   29.3430   46.0700 N   0  0  0  0  0  0  0  0  0  0  0  0
   58.7040   28.6470   45.2100 C   0  0  0  0  0  0  0  0  0  0  0  0
   59.8040   29.1720   44.8860 O   0  0  0  0  0  0  0  0  0  0  0  0
   58.3190   27.3250   44.6210 C   0  0  0  0  0  0  0  0  0  0  0  0
   57.1960   26.7190   45.4030 C   0  0  0  0  0  0  0  0  0  0  0  0
   57.2350   25.4910   45.9520 N   0  0  0  0  0  0  0  0  0  0  0  0
   56.0060   25.3570   46.4970 C   0  0  0  0  0  0  0  0  0  0  0  0
   55.6520   24.3220   47.1200 O   0  0  0  0  0  0  0  0  0  0  0  0
   55.1870   26.4160   46.3200 N   0  0  0  0  0  0  0  0  0  0  0  0
   55.9540   27.2670   45.6200 C   0  0  0  0  0  0  0  0  0  0  0  0
   55.5250   28.5160   45.1850 O   0  0  0  0  0  0  0  0  0  0  0  0
   58.7980   30.6520   47.9490 C   0  0  0  0  0  0  0  0  0  0  0  0
   59.2580   29.6620   48.8170 C   0  0  0  0  0  0  0  0  0  0  0  0
   59.9320   30.0720   49.9810 C   0  0  0  0  0  0  0  0  0  0  0  0
   60.1320   31.4450   50.2460 C   0  0  0  0  0  0  0  0  0  0  0  0
   59.6570   32.4210   49.3510 C   0  0  0  0  0  0  0  0  0  0  0  0
   58.9810   31.9900   48.2050 C   0  0  0  0  0  0  0  0  0  0  0  0
   58.4620   32.7440   47.2080 N   0  0  0  0  0  0  0  0  0  0  0  0
   58.5230   34.2070   47.0900 C   0  0  0  0  0  0  0  0  0  0  0  0
   59.8120   34.6530   46.4500 C   0  0  0  0  0  0  0  0  0  0  0  0
   60.0020   35.8710   46.1910 O   0  0  0  0  0  0  0  0  0  0  0  0
   60.8390   33.7110   46.1230 N   0  0  0  0  0  0  0  0  0  0  0  0
   62.2590   33.9380   46.3510 C   0  0  0  0  0  0  0  0  0  0  0  0
   62.6380   33.3870   47.6950 C   0  0  0  0  0  0  0  0  0  0  0  0
   63.0000   32.0370   47.8320 C   0  0  0  0  0  0  0  0  0  0  0  0
   63.3940   31.5360   49.0770 C   0  0  0  0  0  0  0  0  0  0  0  0
   63.4420   32.3800   50.1890 C   0  0  0  0  0  0  0  0  0  0  0  0
   63.0940   33.7280   50.0590 C   0  0  0  0  0  0  0  0  0  0  0  0
   62.6990   34.2330   48.8160 C   0  0  0  0  0  0  0  0  0  0  0  0
   56.5125   32.9071   45.1160 H   0  0  0  0  0  0  0  0  0  0  0  0
   58.1556   32.8386   44.3934 H   0  0  0  0  0  0  0  0  0  0  0  0
   57.1128   31.3760   44.3934 H   0  0  0  0  0  0  0  0  0  0  0  0
   56.7940   29.0330   46.0890 H   0  0  0  0  0  0  0  0  0  0  0  0
   57.9990   27.4708   43.5787 H   0  0  0  0  0  0  0  0  0  0  0  0
   59.1866   26.6497   44.6561 H   0  0  0  0  0  0  0  0  0  0  0  0
   59.0988   28.5958   48.5983 H   0  0  0  0  0  0  0  0  0  0  0  0
   60.3060   29.3186   50.6899 H   0  0  0  0  0  0  0  0  0  0  0  0
   60.6630   31.7533   51.1587 H   0  0  0  0  0  0  0  0  0  0  0  0
   59.8128   33.4922   49.5469 H   0  0  0  0  0  0  0  0  0  0  0  0
   57.6794   34.5520   46.4741 H   0  0  0  0  0  0  0  0  0  0  0  0
   58.4704   34.6386   48.1004 H   0  0  0  0  0  0  0  0  0  0  0  0
   62.8428   33.4318   45.5680 H   0  0  0  0  0  0  0  0  0  0  0  0
   62.4699   35.0172   46.3215 H   0  0  0  0  0  0  0  0  0  0  0  0
   62.9736   31.3711   46.9569 H   0  0  0  0  0  0  0  0  0  0  0  0
   63.6666   30.4754   49.1807 H   0  0  0  0  0  0  0  0  0  0  0  0
   63.7536   31.9842   51.1669 H   0  0  0  0  0  0  0  0  0  0  0  0
   63.1309   34.3920   50.9352 H   0  0  0  0  0  0  0  0  0  0  0  0
   62.4351   35.2961   48.7152 H   0  0  0  0  0  0  0  0  0  0  0  0
  1  2  1  0
  2  3  2  0
  3  4  1  0
  4  5  1  0
  5  6  2  0
  5  7  1  0
  7  8  1  0
  8  9  1  0
  9 10  1  0
 10 11  2  0
 10 12  1  0
 12 13  1  0
 13 14  1  0
  3 15  1  0
 15 16  2  0
 16 17  1  0
 17 18  2  0
 18 19  1  0
 19 20  2  0
 20 21  1  0
 21 22  1  0
 22 23  1  0
 23 24  2  0
 23 25  1  0
 25 26  1  0
 26 27  1  0
 27 28  2  0
 28 29  1  0
 29 30  2  0
 30 31  1  0
 31 32  2  0
 21  2  1  0
 32 27  1  0
 13  8  2  0
 20 15  1  0
  1 33  1  0
  1 34  1  0
  1 35  1  0
  4 36  1  0
  7 37  1  0
  7 38  1  0
 16 39  1  0
 17 40  1  0
 18 41  1  0
 19 42  1  0
 22 43  1  0
 22 44  1  0
 26 45  1  0
 26 46  1  0
 28 47  1  0
 29 48  1  0
 30 49  1  0
 31 50  1  0
 32 51  1  0
M  CHG  4   9  -1  12  -1  14  -1  25  -1
M  END
>  <UniqueID>  (79) 
75

>  <SMILES>  (79) 
Cc1c(NC(=O)Cc2[n-]c(=O)[n-]c2[O-])c2ccccc2n1CC(=O)[N-]Cc1ccccc1

>  <Energy>  (79) 
117.2909223601632

>  <Genealogy>  (79) 
Cc1c(NC(=O)Cc2[n-]c(=O)[n-]c2[O-])c2ccccc2n1CC(=O)[N-]Cc1ccccc1 (protonated)
Cc1c(NC(=O)Cc2[n-]c(=O)[n-]c2[O-])c2ccccc2n1CC(=O)[N-]Cc1ccccc1 (3D coordinates assigned)
Cc1c(NC(=O)Cc2[n-]c(=O)[n-]c2[O-])c2ccccc2n1CC(=O)[N-]Cc1ccccc1 (optimized conformer: 117.2909223601632 kcal/mol)

>  <smiles>  (79) 
Cc1c(NC(=O)Cc2[nH]c(=O)[nH]c2O)c2ccccc2n1CC(=O)NCc1ccccc1

>  <score_type>  (79) 
oracle

>  <origin>  (79) 
adg

>  <m_score__min__energy>  (79) 
-18.120000000000001

>  <m_primary>  (79) 
energy

$$$$
79:0
     RDKit          3D

 47 49  0  0  0  0  0  0  0  0999 V2000
   57.2942   32.1350   43.0581 H   0  0  0  0  0  0  0  0  0  0  0  0
   57.5420   31.1600   43.5030 C   0  0  0  0  0  0  0  0  0  0  0  0
   57.5094   30.2498   42.8862 H   0  0  0  0  0  0  0  0  0  0  0  0
   57.8840   31.0810   44.7980 C   0  0  0  0  0  0  0  0  0  0  0  0
   58.2300   29.9370   45.5360 C   0  0  0  0  0  0  0  0  0  0  0  0
   58.4010   28.6530   45.1570 C   0  0  0  0  0  0  0  0  0  0  0  0
   59.1882   28.4463   44.4170 H   0  0  0  0  0  0  0  0  0  0  0  0
   57.6210   27.5050   45.6520 C   0  0  0  0  0  0  0  0  0  0  0  0
   56.2160   27.5200   45.6240 C   0  0  0  0  0  0  0  0  0  0  0  0
   55.5270   28.6380   45.1710 O   0  0  0  0  0  0  0  0  0  0  0  0
   55.5200   26.4310   46.0410 N   0  0  0  0  0  0  0  0  0  0  0  0
   56.1600   25.3140   46.4740 C   0  0  0  0  0  0  0  0  0  0  0  0
   55.4960   24.3170   46.8570 O   0  0  0  0  0  0  0  0  0  0  0  0
   57.5180   25.2690   46.4880 N   0  0  0  0  0  0  0  0  0  0  0  0
   58.2580   26.3330   46.0820 C   0  0  0  0  0  0  0  0  0  0  0  0
   59.5150   26.2560   46.1040 O   0  0  0  0  0  0  0  0  0  0  0  0
   58.4030   30.4140   46.8350 C   0  0  0  0  0  0  0  0  0  0  0  0
   58.9140   29.6540   48.0190 C   0  0  0  0  0  0  0  0  0  0  0  0
   58.5815   30.1486   48.9435 H   0  0  0  0  0  0  0  0  0  0  0  0
   58.5227   28.6263   47.9918 H   0  0  0  0  0  0  0  0  0  0  0  0
   60.0134   29.6286   47.9918 H   0  0  0  0  0  0  0  0  0  0  0  0
   58.2160   31.7450   46.8610 N   0  0  0  0  0  0  0  0  0  0  0  0
   57.8990   32.1450   45.6410 N   0  0  0  0  0  0  0  0  0  0  0  0
   57.5960   33.5510   45.3420 C   0  0  0  0  0  0  0  0  0  0  0  0
   58.0379   33.8092   44.3683 H   0  0  0  0  0  0  0  0  0  0  0  0
   56.5020   33.6650   45.3282 H   0  0  0  0  0  0  0  0  0  0  0  0
   58.1560   34.5050   46.4080 C   0  0  0  0  0  0  0  0  0  0  0  0
   57.6528   35.4783   46.3102 H   0  0  0  0  0  0  0  0  0  0  0  0
   57.9709   34.0522   47.3932 H   0  0  0  0  0  0  0  0  0  0  0  0
   59.6360   34.7120   46.2710 C   0  0  0  0  0  0  0  0  0  0  0  0
   60.0790   35.8500   45.9590 O   0  0  0  0  0  0  0  0  0  0  0  0
   60.5330   33.6110   46.4730 N   0  0  0  0  0  0  0  0  0  0  0  0
   60.1380   32.6580   46.6420 H   0  0  0  0  0  0  0  0  0  0  0  0
   61.9820   33.7440   46.3730 C   0  0  0  0  0  0  0  0  0  0  0  0
   62.3752   32.9561   45.7137 H   0  0  0  0  0  0  0  0  0  0  0  0
   62.2253   34.7337   45.9592 H   0  0  0  0  0  0  0  0  0  0  0  0
   62.6070   33.6120   47.7330 C   0  0  0  0  0  0  0  0  0  0  0  0
   63.8790   33.0290   47.8680 C   0  0  0  0  0  0  0  0  0  0  0  0
   64.4267   32.6946   46.9746 H   0  0  0  0  0  0  0  0  0  0  0  0
   64.4500   32.8730   49.1350 C   0  0  0  0  0  0  0  0  0  0  0  0
   65.4450   32.4152   49.2366 H   0  0  0  0  0  0  0  0  0  0  0  0
   63.7580   33.2980   50.2720 C   0  0  0  0  0  0  0  0  0  0  0  0
   64.1974   33.1526   51.2699 H   0  0  0  0  0  0  0  0  0  0  0  0
   62.5070   33.9080   50.1410 C   0  0  0  0  0  0  0  0  0  0  0  0
   61.9725   34.2613   51.0351 H   0  0  0  0  0  0  0  0  0  0  0  0
   61.9340   34.0700   48.8770 C   0  0  0  0  0  0  0  0  0  0  0  0
   60.9530   34.5577   48.7779 H   0  0  0  0  0  0  0  0  0  0  0  0
  1  2  1  0
  2  3  1  0
  2  4  2  0
  4  5  1  0
  5  6  2  0
  6  7  1  0
  6  8  1  0
  8  9  2  0
  9 10  1  0
  9 11  1  0
 11 12  1  0
 12 13  2  0
 12 14  1  0
 14 15  1  0
 15 16  2  0
  5 17  1  0
 17 18  1  0
 18 19  1  0
 18 20  1  0
 18 21  1  0
 17 22  2  0
 22 23  1  0
 23 24  1  0
 24 25  1  0
 24 26  1  0
 24 27  1  0
 27 28  1  0
 27 29  1  0
 27 30  1  0
 30 31  2  0
 30 32  1  0
 32 33  1  0
 32 34  1  0
 34 35  1  0
 34 36  1  0
 34 37  1  0
 37 38  2  0
 38 39  1  0
 38 40  1  0
 40 41  1  0
 40 42  2  0
 42 43  1  0
 42 44  1  0
 44 45  1  0
 44 46  2  0
 46 47  1  0
 23  4  1  0
 46 37  1  0
 15  8  1  0
M  CHG  3  10  -1  11  -1  14  -1
M  END
>  <UniqueID>  (80) 
76

>  <SMILES>  (80) 
C=c1/c(=C\c2c([O-])[n-]c(=O)[n-]c2=O)c(C)nn1CCC(=O)NCc1ccccc1

>  <Energy>  (80) 
85.732488373836

>  <Genealogy>  (80) 
C=c1c(=Cc2c([O-])[n-]c(=O)[n-]c2=O)c(C)nn1CCC(=O)NCc1ccccc1 (protonated)
C=c1/c(=C\c2c([O-])[n-]c(=O)[n-]c2=O)c(C)nn1CCC(=O)NCc1ccccc1 (cis-trans isomerization)
C=c1/c(=C\c2c([O-])[n-]c(=O)[n-]c2=O)c(C)nn1CCC(=O)NCc1ccccc1 (3D coordinates assigned)
C=c1/c(=C\c2c([O-])[n-]c(=O)[n-]c2=O)c(C)nn1CCC(=O)NCc1ccccc1 (optimized conformer: 85.732488373836 kcal/mol)

>  <smiles>  (80) 
C=c1c(=Cc2c(O)[nH]c(=O)[nH]c2=O)c(C)nn1CCC(=O)NCc1ccccc1

>  <score_type>  (80) 
oracle

>  <origin>  (80) 
adg

>  <m_score__min__energy>  (80) 
-16.68

>  <m_primary>  (80) 
energy

$$$$
80:0
     RDKit          3D

 47 49  0  0  0  0  0  0  0  0999 V2000
   55.4510   30.1620   44.5850 O   0  0  0  0  0  0  0  0  0  0  0  0
   56.6560   30.5160   44.5020 C   0  0  0  0  0  0  0  0  0  0  0  0
   57.7310   29.4650   44.5550 C   0  0  0  0  0  0  0  0  0  0  0  0
   57.1560   28.1590   44.8760 N   0  0  0  0  0  0  0  0  0  0  0  0
   57.9300   27.0990   45.4610 C   0  0  0  0  0  0  0  0  0  0  0  0
   59.1730   27.2460   45.6270 O   0  0  0  0  0  0  0  0  0  0  0  0
   57.2970   25.8160   45.8450 C   0  0  0  0  0  0  0  0  0  0  0  0
   58.0970   24.6740   46.0160 C   0  0  0  0  0  0  0  0  0  0  0  0
   57.5190   23.4550   46.3690 C   0  0  0  0  0  0  0  0  0  0  0  0
   56.1400   23.3830   46.5620 C   0  0  0  0  0  0  0  0  0  0  0  0
   55.3740   24.4950   46.4170 N   0  0  0  0  0  0  0  0  0  0  0  0
   55.9080   25.6990   46.0740 C   0  0  0  0  0  0  0  0  0  0  0  0
   55.1510   26.7030   45.9910 O   0  0  0  0  0  0  0  0  0  0  0  0
   56.9510   31.8950   44.2410 N   0  0  0  0  0  0  0  0  0  0  0  0
   57.8210   32.7410   45.0040 C   0  0  0  0  0  0  0  0  0  0  0  0
   58.3250   33.9400   44.4760 C   0  0  0  0  0  0  0  0  0  0  0  0
   59.1960   34.7290   45.2320 C   0  0  0  0  0  0  0  0  0  0  0  0
   59.5880   34.3170   46.5070 C   0  0  0  0  0  0  0  0  0  0  0  0
   59.1240   33.1010   47.0290 C   0  0  0  0  0  0  0  0  0  0  0  0
   59.6510   32.5590   48.6250 S   0  0  0  0  0  0  0  0  0  0  0  0
   59.3250   33.6180   49.6400 O   0  0  0  0  0  0  0  0  0  0  0  0
   58.8980   31.3110   48.9980 O   0  0  0  0  0  0  0  0  0  0  0  0
   61.3680   32.2330   48.6620 N   0  0  0  0  0  0  0  0  0  0  0  0
   62.1580   33.4760   48.8060 C   0  0  0  0  0  0  0  0  0  0  0  0
   62.8320   33.8890   47.4840 C   0  0  0  0  0  0  0  0  0  0  0  0
   63.7010   32.8940   46.9630 O   0  0  0  0  0  0  0  0  0  0  0  0
   63.2750   31.5620   47.2300 C   0  0  0  0  0  0  0  0  0  0  0  0
   61.7660   31.4270   47.4920 C   0  0  0  0  0  0  0  0  0  0  0  0
   58.2420   32.3170   46.2710 C   0  0  0  0  0  0  0  0  0  0  0  0
   58.2314   29.4096   43.5770 H   0  0  0  0  0  0  0  0  0  0  0  0
   58.4553   29.7365   45.3371 H   0  0  0  0  0  0  0  0  0  0  0  0
   56.1760   27.9690   44.5740 H   0  0  0  0  0  0  0  0  0  0  0  0
   59.1853   24.7417   45.8707 H   0  0  0  0  0  0  0  0  0  0  0  0
   58.1448   22.5591   46.4940 H   0  0  0  0  0  0  0  0  0  0  0  0
   55.6721   22.4247   46.8319 H   0  0  0  0  0  0  0  0  0  0  0  0
   58.0336   34.2593   43.4645 H   0  0  0  0  0  0  0  0  0  0  0  0
   59.5737   35.6771   44.8215 H   0  0  0  0  0  0  0  0  0  0  0  0
   60.2628   34.9481   47.1039 H   0  0  0  0  0  0  0  0  0  0  0  0
   61.4889   34.2861   49.1315 H   0  0  0  0  0  0  0  0  0  0  0  0
   62.9495   33.2910   49.5471 H   0  0  0  0  0  0  0  0  0  0  0  0
   62.0473   34.0918   46.7402 H   0  0  0  0  0  0  0  0  0  0  0  0
   63.4435   34.7790   47.6936 H   0  0  0  0  0  0  0  0  0  0  0  0
   63.5325   30.9364   46.3626 H   0  0  0  0  0  0  0  0  0  0  0  0
   63.7868   31.2433   48.1501 H   0  0  0  0  0  0  0  0  0  0  0  0
   61.2129   31.7760   46.6075 H   0  0  0  0  0  0  0  0  0  0  0  0
   61.5341   30.3708   47.6935 H   0  0  0  0  0  0  0  0  0  0  0  0
   57.8777   31.3609   46.6749 H   0  0  0  0  0  0  0  0  0  0  0  0
  1  2  2  0
  2  3  1  0
  3  4  1  0
  4  5  1  0
  5  6  2  0
  5  7  1  0
  7  8  2  0
  8  9  1  0
  9 10  2  0
 10 11  1  0
 11 12  1  0
 12 13  2  0
  2 14  1  0
 14 15  1  0
 15 16  2  0
 16 17  1  0
 17 18  2  0
 18 19  1  0
 19 20  1  0
 20 21  2  0
 20 22  2  0
 20 23  1  0
 23 24  1  0
 24 25  1  0
 25 26  1  0
 26 27  1  0
 27 28  1  0
 19 29  2  0
 12  7  1  0
 29 15  1  0
 28 23  1  0
  3 30  1  0
  3 31  1  0
  4 32  1  0
  8 33  1  0
  9 34  1  0
 10 35  1  0
 16 36  1  0
 17 37  1  0
 18 38  1  0
 24 39  1  0
 24 40  1  0
 25 41  1  0
 25 42  1  0
 27 43  1  0
 27 44  1  0
 28 45  1  0
 28 46  1  0
 29 47  1  0
M  CHG  2  11  -1  14  -1
M  END
>  <UniqueID>  (81) 
77

>  <SMILES>  (81) 
O=C(CNC(=O)c1ccc[n-]c1=O)[N-]c1cccc(S(=O)(=O)N2CCOCC2)c1

>  <Energy>  (81) 
68.81619776551663

>  <Genealogy>  (81) 
O=C(CNC(=O)c1ccc[n-]c1=O)[N-]c1cccc(S(=O)(=O)N2CCOCC2)c1 (protonated)
O=C(CNC(=O)c1ccc[n-]c1=O)[N-]c1cccc(S(=O)(=O)N2CCOCC2)c1 (3D coordinates assigned)
O=C(CNC(=O)c1ccc[n-]c1=O)[N-]c1cccc(S(=O)(=O)N2CCOCC2)c1 (nonaromatic ring conformer: 68.81619776551663 kcal/mol)

>  <smiles>  (81) 
O=C(CNC(=O)c1ccc[nH]c1=O)Nc1cccc(S(=O)(=O)N2CCOCC2)c1

>  <score_type>  (81) 
oracle

>  <origin>  (81) 
adg

>  <m_score__min__energy>  (81) 
-12.800000000000001

>  <m_primary>  (81) 
energy

$$$$
81:0
     RDKit          3D

 41 43  0  0  0  0  0  0  0  0999 V2000
   56.3658   29.5974   52.7158 H   0  0  0  0  0  0  0  0  0  0  0  0
   56.9520   30.3820   52.2150 C   0  0  0  0  0  0  0  0  0  0  0  0
   57.6860   30.0810   51.1120 N   0  0  0  0  0  0  0  0  0  0  0  0
   58.4250   31.0130   50.4500 C   0  0  0  0  0  0  0  0  0  0  0  0
   59.1130   30.6290   49.4100 N   0  0  0  0  0  0  0  0  0  0  0  0
   58.9100   30.9790   48.0330 C   0  0  0  0  0  0  0  0  0  0  0  0
   58.4120   30.1210   47.2590 O   0  0  0  0  0  0  0  0  0  0  0  0
   59.1250   32.3580   47.5410 C   0  0  0  0  0  0  0  0  0  0  0  0
   60.1090   33.1510   48.1540 C   0  0  0  0  0  0  0  0  0  0  0  0
   60.7028   32.7410   48.9843 H   0  0  0  0  0  0  0  0  0  0  0  0
   60.3380   34.4580   47.7150 C   0  0  0  0  0  0  0  0  0  0  0  0
   61.1062   35.0751   48.2039 H   0  0  0  0  0  0  0  0  0  0  0  0
   59.5930   34.9810   46.6570 C   0  0  0  0  0  0  0  0  0  0  0  0
   59.7669   36.0138   46.3208 H   0  0  0  0  0  0  0  0  0  0  0  0
   58.6280   34.1960   46.0250 C   0  0  0  0  0  0  0  0  0  0  0  0
   58.0494   34.6117   45.1869 H   0  0  0  0  0  0  0  0  0  0  0  0
   58.3900   32.8790   46.4510 C   0  0  0  0  0  0  0  0  0  0  0  0
   57.4660   32.0510   45.7290 N   0  0  0  0  0  0  0  0  0  0  0  0
   56.9990   31.2670   46.2330 H   0  0  0  0  0  0  0  0  0  0  0  0
   57.4340   32.0340   44.2950 C   0  0  0  0  0  0  0  0  0  0  0  0
   57.8850   33.0080   43.6330 O   0  0  0  0  0  0  0  0  0  0  0  0
   56.9600   30.8120   43.5700 C   0  0  0  0  0  0  0  0  0  0  0  0
   55.8610   30.8161   43.5240 H   0  0  0  0  0  0  0  0  0  0  0  0
   57.3695   30.8092   42.5491 H   0  0  0  0  0  0  0  0  0  0  0  0
   57.4280   29.5800   44.3030 C   0  0  0  0  0  0  0  0  0  0  0  0
   58.8040   29.3160   44.4040 C   0  0  0  0  0  0  0  0  0  0  0  0
   59.5254   29.9797   43.9050 H   0  0  0  0  0  0  0  0  0  0  0  0
   59.2630   28.2160   45.1340 C   0  0  0  0  0  0  0  0  0  0  0  0
   60.3417   28.0102   45.1980 H   0  0  0  0  0  0  0  0  0  0  0  0
   58.3520   27.3770   45.7830 C   0  0  0  0  0  0  0  0  0  0  0  0
   58.7145   26.5144   46.3614 H   0  0  0  0  0  0  0  0  0  0  0  0
   56.9820   27.6340   45.6970 C   0  0  0  0  0  0  0  0  0  0  0  0
   56.2673   26.9734   46.2096 H   0  0  0  0  0  0  0  0  0  0  0  0
   56.5150   28.7290   44.9610 C   0  0  0  0  0  0  0  0  0  0  0  0
   55.1460   28.9640   44.8910 O   0  0  0  0  0  0  0  0  0  0  0  0
   58.4510   32.3350   50.9410 C   0  0  0  0  0  0  0  0  0  0  0  0
   59.0590   33.1012   50.4377 H   0  0  0  0  0  0  0  0  0  0  0  0
   57.6990   32.6640   52.0710 C   0  0  0  0  0  0  0  0  0  0  0  0
   57.7046   33.6950   52.4545 H   0  0  0  0  0  0  0  0  0  0  0  0
   56.9410   31.6850   52.7130 C   0  0  0  0  0  0  0  0  0  0  0  0
   56.3422   31.9371   53.6006 H   0  0  0  0  0  0  0  0  0  0  0  0
  1  2  1  0
  2  3  1  0
  3  4  1  0
  4  5  2  0
  5  6  1  0
  6  7  2  0
  6  8  1  0
  8  9  2  0
  9 10  1  0
  9 11  1  0
 11 12  1  0
 11 13  2  0
 13 14  1  0
 13 15  1  0
 15 16  1  0
 15 17  2  0
 17 18  1  0
 18 19  1  0
 18 20  1  0
 20 21  2  0
 20 22  1  0
 22 23  1  0
 22 24  1  0
 22 25  1  0
 25 26  2  0
 26 27  1  0
 26 28  1  0
 28 29  1  0
 28 30  2  0
 30 31  1  0
 30 32  1  0
 32 33  1  0
 32 34  2  0
 34 35  1  0
  4 36  1  0
 36 37  1  0
 36 38  2  0
 38 39  1  0
 38 40  1  0
 40 41  1  0
 40  2  2  0
 17  8  1  0
 34 25  1  0
M  CHG  2   3  -1  35  -1
M  END
>  <UniqueID>  (82) 
78

>  <SMILES>  (82) 
O=C(Cc1ccccc1[O-])Nc1ccccc1C(=O)/N=c1\cccc[n-]1

>  <Energy>  (82) 
58.017423723929156

>  <Genealogy>  (82) 
O=C(Cc1ccccc1[O-])Nc1ccccc1C(=O)N=c1cccc[n-]1 (protonated)
O=C(Cc1ccccc1[O-])Nc1ccccc1C(=O)/N=c1\cccc[n-]1 (cis-trans isomerization)
O=C(Cc1ccccc1[O-])Nc1ccccc1C(=O)/N=c1\cccc[n-]1 (3D coordinates assigned)
O=C(Cc1ccccc1[O-])Nc1ccccc1C(=O)/N=c1\cccc[n-]1 (optimized conformer: 58.017423723929156 kcal/mol)

>  <smiles>  (82) 
O=C(Cc1ccccc1O)Nc1ccccc1C(=O)N=c1cccc[nH]1

>  <score_type>  (82) 
oracle

>  <origin>  (82) 
adg

>  <m_score__min__energy>  (82) 
-12.91

>  <m_primary>  (82) 
energy

$$$$
82:0
     RDKit          3D

 60 62  0  0  0  0  0  0  0  0999 V2000
   66.3870   32.1530   50.4690 C   0  0  0  0  0  0  0  0  0  0  0  0
   64.9850   31.9180   50.5230 O   0  0  0  0  0  0  0  0  0  0  0  0
   64.1170   32.2870   49.4880 C   0  0  0  0  0  0  0  0  0  0  0  0
   64.5290   33.0280   48.5540 O   0  0  0  0  0  0  0  0  0  0  0  0
   62.7010   31.8490   49.5330 C   0  0  0  0  0  0  0  0  0  0  0  0
   62.4500   30.4980   49.7760 C   0  0  0  0  0  0  0  0  0  0  0  0
   61.1490   30.0300   49.9230 C   0  0  0  0  0  0  0  0  0  0  0  0
   60.9100   28.5710   50.2270 C   0  0  0  0  0  0  0  0  0  0  0  0
   60.4000   27.8650   49.0090 C   0  0  0  0  0  0  0  0  0  0  0  0
   61.0950   26.9540   48.4830 O   0  0  0  0  0  0  0  0  0  0  0  0
   59.1490   28.2520   48.4240 N   0  0  0  0  0  0  0  0  0  0  0  0
   58.5920   27.5850   47.2490 C   0  0  0  0  0  0  0  0  0  0  0  0
   58.3040   28.5900   46.1680 C   0  0  0  0  0  0  0  0  0  0  0  0
   59.1170   29.7270   46.0330 C   0  0  0  0  0  0  0  0  0  0  0  0
   58.8430   30.6780   45.0450 C   0  0  0  0  0  0  0  0  0  0  0  0
   57.7420   30.5130   44.1910 C   0  0  0  0  0  0  0  0  0  0  0  0
   57.4690   31.5130   43.1070 C   0  0  0  0  0  0  0  0  0  0  0  0
   56.9370   29.3710   44.3170 C   0  0  0  0  0  0  0  0  0  0  0  0
   57.2120   28.4200   45.3040 C   0  0  0  0  0  0  0  0  0  0  0  0
   60.0860   30.9430   49.8560 C   0  0  0  0  0  0  0  0  0  0  0  0
   58.9120   30.5250   50.0660 O   0  0  0  0  0  0  0  0  0  0  0  0
   60.3110   32.2720   49.5670 N   0  0  0  0  0  0  0  0  0  0  0  0
   59.1420   33.1780   49.4640 C   0  0  0  0  0  0  0  0  0  0  0  0
   58.1320   32.6910   48.4080 C   0  0  0  0  0  0  0  0  0  0  0  0
   58.3150   33.3900   47.0870 C   0  0  0  0  0  0  0  0  0  0  0  0
   57.2230   33.5520   46.2160 C   0  0  0  0  0  0  0  0  0  0  0  0
   57.4020   34.1560   44.9680 C   0  0  0  0  0  0  0  0  0  0  0  0
   58.6700   34.5970   44.5780 C   0  0  0  0  0  0  0  0  0  0  0  0
   59.7610   34.4350   45.4360 C   0  0  0  0  0  0  0  0  0  0  0  0
   59.5870   33.8330   46.6860 C   0  0  0  0  0  0  0  0  0  0  0  0
   61.6020   32.7340   49.3630 C   0  0  0  0  0  0  0  0  0  0  0  0
   61.8750   34.1840   48.9960 C   0  0  0  0  0  0  0  0  0  0  0  0
   66.7872   32.2201   51.4914 H   0  0  0  0  0  0  0  0  0  0  0  0
   66.8774   31.3245   49.9369 H   0  0  0  0  0  0  0  0  0  0  0  0
   66.5805   33.0961   49.9369 H   0  0  0  0  0  0  0  0  0  0  0  0
   63.2921   29.7944   49.8522 H   0  0  0  0  0  0  0  0  0  0  0  0
   61.8547   28.1071   50.5468 H   0  0  0  0  0  0  0  0  0  0  0  0
   60.1611   28.4897   51.0285 H   0  0  0  0  0  0  0  0  0  0  0  0
   58.6120   29.0420   48.8480 H   0  0  0  0  0  0  0  0  0  0  0  0
   59.3151   26.8456   46.8742 H   0  0  0  0  0  0  0  0  0  0  0  0
   57.6544   27.0841   47.5319 H   0  0  0  0  0  0  0  0  0  0  0  0
   59.9738   29.8703   46.7079 H   0  0  0  0  0  0  0  0  0  0  0  0
   59.4931   31.5587   44.9369 H   0  0  0  0  0  0  0  0  0  0  0  0
   57.2049   32.4805   43.5588 H   0  0  0  0  0  0  0  0  0  0  0  0
   58.3674   31.6325   42.4836 H   0  0  0  0  0  0  0  0  0  0  0  0
   56.6345   31.1594   42.4836 H   0  0  0  0  0  0  0  0  0  0  0  0
   56.0857   29.2232   43.6362 H   0  0  0  0  0  0  0  0  0  0  0  0
   56.5685   27.5334   45.4037 H   0  0  0  0  0  0  0  0  0  0  0  0
   58.6403   33.2244   50.4418 H   0  0  0  0  0  0  0  0  0  0  0  0
   59.5046   34.1705   49.1581 H   0  0  0  0  0  0  0  0  0  0  0  0
   58.2676   31.6096   48.2592 H   0  0  0  0  0  0  0  0  0  0  0  0
   57.1204   32.9187   48.7753 H   0  0  0  0  0  0  0  0  0  0  0  0
   56.2246   33.2023   46.5176 H   0  0  0  0  0  0  0  0  0  0  0  0
   56.5439   34.2844   44.2919 H   0  0  0  0  0  0  0  0  0  0  0  0
   58.8089   35.0717   43.5955 H   0  0  0  0  0  0  0  0  0  0  0  0
   60.7583   34.7816   45.1275 H   0  0  0  0  0  0  0  0  0  0  0  0
   60.4487   33.7057   47.3578 H   0  0  0  0  0  0  0  0  0  0  0  0
   61.9872   34.7797   49.9139 H   0  0  0  0  0  0  0  0  0  0  0  0
   62.8003   34.2445   48.4043 H   0  0  0  0  0  0  0  0  0  0  0  0
   61.0350   34.5769   48.4043 H   0  0  0  0  0  0  0  0  0  0  0  0
  1  2  1  0
  2  3  1  0
  3  4  2  0
  3  5  1  0
  5  6  1  0
  6  7  2  0
  7  8  1  0
  8  9  1  0
  9 10  2  0
  9 11  1  0
 11 12  1  0
 12 13  1  0
 13 14  2  0
 14 15  1  0
 15 16  2  0
 16 17  1  0
 16 18  1  0
 18 19  2  0
  7 20  1  0
 20 21  2  0
 20 22  1  0
 22 23  1  0
 23 24  1  0
 24 25  1  0
 25 26  2  0
 26 27  1  0
 27 28  2  0
 28 29  1  0
 29 30  2  0
 22 31  1  0
 31 32  1  0
 31  5  2  0
 19 13  1  0
 30 25  1  0
  1 33  1  0
  1 34  1  0
  1 35  1  0
  6 36  1  0
  8 37  1  0
  8 38  1  0
 11 39  1  0
 12 40  1  0
 12 41  1  0
 14 42  1  0
 15 43  1  0
 17 44  1  0
 17 45  1  0
 17 46  1  0
 18 47  1  0
 19 48  1  0
 23 49  1  0
 23 50  1  0
 24 51  1  0
 24 52  1  0
 26 53  1  0
 27 54  1  0
 28 55  1  0
 29 56  1  0
 30 57  1  0
 32 58  1  0
 32 59  1  0
 32 60  1  0
M  END
>  <UniqueID>  (83) 
79

>  <SMILES>  (83) 
COC(=O)c1cc(CC(=O)NCc2ccc(C)cc2)c(=O)n(CCc2ccccc2)c1C

>  <Energy>  (83) 
64.11709274685482

>  <Genealogy>  (83) 
COC(=O)c1cc(CC(=O)NCc2ccc(C)cc2)c(=O)n(CCc2ccccc2)c1C (3D coordinates assigned)
COC(=O)c1cc(CC(=O)NCc2ccc(C)cc2)c(=O)n(CCc2ccccc2)c1C (optimized conformer: 64.11709274685482 kcal/mol)

>  <smiles>  (83) 
COC(=O)c1cc(CC(=O)NCc2ccc(C)cc2)c(=O)n(CCc2ccccc2)c1C

>  <score_type>  (83) 
oracle

>  <origin>  (83) 
adg

>  <m_score__min__energy>  (83) 
-9.4700000000000006

>  <m_primary>  (83) 
energy

$$$$
83:0
     RDKit          3D

 53 56  0  0  0  0  0  0  0  0999 V2000
   59.5830   26.9367   48.1815 H   0  0  0  0  0  0  0  0  0  0  0  0
   59.0150   26.3370   47.4550 C   0  0  0  0  0  0  0  0  0  0  0  0
   58.8934   25.2549   47.6106 H   0  0  0  0  0  0  0  0  0  0  0  0
   58.4700   26.9260   46.3780 C   0  0  0  0  0  0  0  0  0  0  0  0
   57.7260   26.2980   45.3750 C   0  0  0  0  0  0  0  0  0  0  0  0
   57.3640   25.0010   45.3140 C   0  0  0  0  0  0  0  0  0  0  0  0
   58.1562   24.2379   45.3109 H   0  0  0  0  0  0  0  0  0  0  0  0
   55.9560   24.5510   45.2510 C   0  0  0  0  0  0  0  0  0  0  0  0
   54.8930   25.3980   45.6100 C   0  0  0  0  0  0  0  0  0  0  0  0
   55.1330   26.6990   46.0400 O   0  0  0  0  0  0  0  0  0  0  0  0
   53.6120   24.9570   45.5170 N   0  0  0  0  0  0  0  0  0  0  0  0
   53.3320   23.7080   45.0650 C   0  0  0  0  0  0  0  0  0  0  0  0
   52.1380   23.3190   44.9920 O   0  0  0  0  0  0  0  0  0  0  0  0
   54.3390   22.8800   44.6850 N   0  0  0  0  0  0  0  0  0  0  0  0
   55.6370   23.2740   44.7610 C   0  0  0  0  0  0  0  0  0  0  0  0
   56.5460   22.4810   44.3960 O   0  0  0  0  0  0  0  0  0  0  0  0
   57.3920   27.2870   44.4580 C   0  0  0  0  0  0  0  0  0  0  0  0
   56.8077   27.1577   43.5350 H   0  0  0  0  0  0  0  0  0  0  0  0
   57.9370   28.4640   44.9320 C   0  0  0  0  0  0  0  0  0  0  0  0
   57.8220   29.7920   44.2480 C   0  0  0  0  0  0  0  0  0  0  0  0
   57.7530   30.5887   45.0033 H   0  0  0  0  0  0  0  0  0  0  0  0
   58.7091   29.9586   43.6193 H   0  0  0  0  0  0  0  0  0  0  0  0
   56.9195   29.8037   43.6193 H   0  0  0  0  0  0  0  0  0  0  0  0
   58.5990   28.2450   46.0900 N   0  0  0  0  0  0  0  0  0  0  0  0
   59.2800   29.2420   46.8700 C   0  0  0  0  0  0  0  0  0  0  0  0
   58.7330   29.6750   48.0850 C   0  0  0  0  0  0  0  0  0  0  0  0
   57.7862   29.2447   48.4433 H   0  0  0  0  0  0  0  0  0  0  0  0
   59.3840   30.6500   48.8430 C   0  0  0  0  0  0  0  0  0  0  0  0
   58.9490   30.9807   49.7977 H   0  0  0  0  0  0  0  0  0  0  0  0
   60.5920   31.2120   48.3940 C   0  0  0  0  0  0  0  0  0  0  0  0
   61.2740   32.2060   49.1830 N   0  0  0  0  0  0  0  0  0  0  0  0
   62.0620   31.8340   50.3620 C   0  0  0  0  0  0  0  0  0  0  0  0
   61.5924   32.2608   51.2605 H   0  0  0  0  0  0  0  0  0  0  0  0
   62.0951   30.7370   50.4358 H   0  0  0  0  0  0  0  0  0  0  0  0
   63.5030   32.3690   50.2400 C   0  0  0  0  0  0  0  0  0  0  0  0
   63.8879   32.5616   51.2523 H   0  0  0  0  0  0  0  0  0  0  0  0
   64.0841   31.6026   49.7061 H   0  0  0  0  0  0  0  0  0  0  0  0
   63.6150   33.6270   49.4480 N   0  0  0  0  0  0  0  0  0  0  0  0
   64.3420   34.2270   49.9080 H   0  0  0  0  0  0  0  0  0  0  0  0
   64.1000   33.3630   48.0790 C   0  0  0  0  0  0  0  0  0  0  0  0
   65.0652   32.8376   48.1269 H   0  0  0  0  0  0  0  0  0  0  0  0
   63.3687   32.7385   47.5450 H   0  0  0  0  0  0  0  0  0  0  0  0
   64.2275   34.3162   47.5450 H   0  0  0  0  0  0  0  0  0  0  0  0
   62.3590   34.4140   49.4360 C   0  0  0  0  0  0  0  0  0  0  0  0
   62.0977   34.6823   50.4703 H   0  0  0  0  0  0  0  0  0  0  0  0
   62.5255   35.3121   48.8230 H   0  0  0  0  0  0  0  0  0  0  0  0
   61.1920   33.6240   48.8170 C   0  0  0  0  0  0  0  0  0  0  0  0
   60.2411   34.0373   49.1843 H   0  0  0  0  0  0  0  0  0  0  0  0
   61.2480   33.7104   47.7218 H   0  0  0  0  0  0  0  0  0  0  0  0
   61.1430   30.7660   47.1800 C   0  0  0  0  0  0  0  0  0  0  0  0
   62.0950   31.1875   46.8249 H   0  0  0  0  0  0  0  0  0  0  0  0
   60.4900   29.7910   46.4210 C   0  0  0  0  0  0  0  0  0  0  0  0
   61.0440   29.3660   45.2580 F   0  0  0  0  0  0  0  0  0  0  0  0
  1  2  1  0
  2  3  1  0
  2  4  2  0
  4  5  1  0
  5  6  2  0
  6  7  1  0
  6  8  1  0
  8  9  2  0
  9 10  1  0
  9 11  1  0
 11 12  1  0
 12 13  2  0
 12 14  1  0
 14 15  1  0
 15 16  2  0
  5 17  1  0
 17 18  1  0
 17 19  2  0
 19 20  1  0
 20 21  1  0
 20 22  1  0
 20 23  1  0
 19 24  1  0
 24 25  1  0
 25 26  2  0
 26 27  1  0
 26 28  1  0
 28 29  1  0
 28 30  2  0
 30 31  1  0
 31 32  1  0
 32 33  1  0
 32 34  1  0
 32 35  1  0
 35 36  1  0
 35 37  1  0
 35 38  1  0
 38 39  1  0
 38 40  1  0
 40 41  1  0
 40 42  1  0
 40 43  1  0
 38 44  1  0
 44 45  1  0
 44 46  1  0
 44 47  1  0
 47 48  1  0
 47 49  1  0
 30 50  1  0
 50 51  1  0
 50 52  2  0
 52 53  1  0
 24  4  1  0
 52 25  1  0
 15  8  1  0
 47 31  1  0
M  CHG  4  10  -1  11  -1  14  -1  38   1
M  END
>  <UniqueID>  (84) 
80

>  <SMILES>  (84) 
C=c1/c(=C/c2c([O-])[n-]c(=O)[n-]c2=O)cc(C)n1-c1ccc(N2CC[NH+](C)CC2)cc1F

>  <Energy>  (84) 
113.13711588365959

>  <Genealogy>  (84) 
C=c1c(=Cc2c([O-])[n-]c(=O)[n-]c2=O)cc(C)n1-c1ccc(N2CC[NH+](C)CC2)cc1F (protonated)
C=c1/c(=C/c2c([O-])[n-]c(=O)[n-]c2=O)cc(C)n1-c1ccc(N2CC[NH+](C)CC2)cc1F (cis-trans isomerization)
C=c1/c(=C/c2c([O-])[n-]c(=O)[n-]c2=O)cc(C)n1-c1ccc(N2CC[NH+](C)CC2)cc1F (3D coordinates assigned)
C=c1/c(=C/c2c([O-])[n-]c(=O)[n-]c2=O)cc(C)n1-c1ccc(N2CC[NH+](C)CC2)cc1F (nonaromatic ring conformer: 113.13711588365959 kcal/mol)

>  <smiles>  (84) 
C=c1c(=Cc2c(O)[nH]c(=O)[nH]c2=O)cc(C)n1-c1ccc(N2CCN(C)CC2)cc1F

>  <score_type>  (84) 
oracle

>  <origin>  (84) 
adg

>  <m_score__min__energy>  (84) 
-14.539999999999999

>  <m_primary>  (84) 
energy

$$$$
84:0
     RDKit          3D

 50 53  0  0  0  0  0  0  0  0999 V2000
   55.7434   31.3182   51.2325 H   0  0  0  0  0  0  0  0  0  0  0  0
   54.7330   31.2560   51.6630 C   0  0  0  0  0  0  0  0  0  0  0  0
   53.8824   31.7156   51.1384 H   0  0  0  0  0  0  0  0  0  0  0  0
   54.5380   30.6190   52.8290 C   0  0  0  0  0  0  0  0  0  0  0  0
   53.3220   30.4490   53.5120 C   0  0  0  0  0  0  0  0  0  0  0  0
   52.0510   30.6910   53.1310 C   0  0  0  0  0  0  0  0  0  0  0  0
   51.2851   30.7098   53.9203 H   0  0  0  0  0  0  0  0  0  0  0  0
   51.6000   30.9320   51.7520 C   0  0  0  0  0  0  0  0  0  0  0  0
   51.8740   30.1090   50.7260 N   0  0  0  0  0  0  0  0  0  0  0  0
   51.3890   30.7740   49.6540 C   0  0  0  0  0  0  0  0  0  0  0  0
   51.4450   30.3090   48.4860 O   0  0  0  0  0  0  0  0  0  0  0  0
   50.8520   31.9810   49.9310 N   0  0  0  0  0  0  0  0  0  0  0  0
   51.0060   32.0740   51.2610 C   0  0  0  0  0  0  0  0  0  0  0  0
   50.6380   33.1880   52.0050 O   0  0  0  0  0  0  0  0  0  0  0  0
   53.6450   29.9400   54.7590 C   0  0  0  0  0  0  0  0  0  0  0  0
   52.9460   29.7279   55.5814 H   0  0  0  0  0  0  0  0  0  0  0  0
   55.0110   29.7500   54.7720 C   0  0  0  0  0  0  0  0  0  0  0  0
   55.7830   29.1950   55.9300 C   0  0  0  0  0  0  0  0  0  0  0  0
   55.3211   29.5271   56.8715 H   0  0  0  0  0  0  0  0  0  0  0  0
   55.7731   28.0960   55.8843 H   0  0  0  0  0  0  0  0  0  0  0  0
   56.8216   29.5545   55.8843 H   0  0  0  0  0  0  0  0  0  0  0  0
   55.5540   30.1650   53.6060 N   0  0  0  0  0  0  0  0  0  0  0  0
   56.9540   30.1480   53.2770 C   0  0  0  0  0  0  0  0  0  0  0  0
   57.3970   29.4500   52.1460 C   0  0  0  0  0  0  0  0  0  0  0  0
   56.6712   28.9247   51.5078 H   0  0  0  0  0  0  0  0  0  0  0  0
   58.7560   29.4180   51.8250 C   0  0  0  0  0  0  0  0  0  0  0  0
   59.0962   28.8644   50.9374 H   0  0  0  0  0  0  0  0  0  0  0  0
   59.6890   30.0890   52.6300 C   0  0  0  0  0  0  0  0  0  0  0  0
   61.1660   30.0330   52.3060 C   0  0  0  0  0  0  0  0  0  0  0  0
   61.7374   30.0716   53.2452 H   0  0  0  0  0  0  0  0  0  0  0  0
   61.3592   29.0972   51.7611 H   0  0  0  0  0  0  0  0  0  0  0  0
   61.5880   31.1620   51.4420 N   0  0  0  0  0  0  0  0  0  0  0  0
   62.5860   30.9970   51.1680 H   0  0  0  0  0  0  0  0  0  0  0  0
   61.5490   32.4470   52.1930 C   0  0  0  0  0  0  0  0  0  0  0  0
   61.5621   32.2296   53.2712 H   0  0  0  0  0  0  0  0  0  0  0  0
   62.4263   33.0415   51.8983 H   0  0  0  0  0  0  0  0  0  0  0  0
   60.2860   33.2640   51.8650 C   0  0  0  0  0  0  0  0  0  0  0  0
   59.4042   32.6716   52.1504 H   0  0  0  0  0  0  0  0  0  0  0  0
   60.3552   34.2066   52.4277 H   0  0  0  0  0  0  0  0  0  0  0  0
   60.1730   33.6050   50.4910 O   0  0  0  0  0  0  0  0  0  0  0  0
   60.7500   32.6430   49.6150 C   0  0  0  0  0  0  0  0  0  0  0  0
   60.1654   32.6265   48.6833 H   0  0  0  0  0  0  0  0  0  0  0  0
   61.7947   32.9444   49.4486 H   0  0  0  0  0  0  0  0  0  0  0  0
   60.7790   31.2190   50.1960 C   0  0  0  0  0  0  0  0  0  0  0  0
   59.7499   30.9028   50.4218 H   0  0  0  0  0  0  0  0  0  0  0  0
   61.2369   30.5494   49.4530 H   0  0  0  0  0  0  0  0  0  0  0  0
   59.2440   30.7910   53.7610 C   0  0  0  0  0  0  0  0  0  0  0  0
   59.9692   31.3186   54.3980 H   0  0  0  0  0  0  0  0  0  0  0  0
   57.8840   30.8230   54.0820 C   0  0  0  0  0  0  0  0  0  0  0  0
   57.4690   31.5260   55.1660 F   0  0  0  0  0  0  0  0  0  0  0  0
  1  2  1  0
  2  3  1  0
  2  4  2  0
  4  5  1  0
  5  6  2  0
  6  7  1  0
  6  8  1  0
  8  9  1  0
  9 10  1  0
 10 11  2  0
 10 12  1  0
 12 13  1  0
 13 14  1  0
  5 15  1  0
 15 16  1  0
 15 17  2  0
 17 18  1  0
 18 19  1  0
 18 20  1  0
 18 21  1  0
 17 22  1  0
 22 23  1  0
 23 24  2  0
 24 25  1  0
 24 26  1  0
 26 27  1  0
 26 28  2  0
 28 29  1  0
 29 30  1  0
 29 31  1  0
 29 32  1  0
 32 33  1  0
 32 34  1  0
 34 35  1  0
 34 36  1  0
 34 37  1  0
 37 38  1  0
 37 39  1  0
 37 40  1  0
 40 41  1  0
 41 42  1  0
 41 43  1  0
 41 44  1  0
 44 45  1  0
 44 46  1  0
 28 47  1  0
 47 48  1  0
 47 49  2  0
 49 50  1  0
 22  4  1  0
 49 23  1  0
 13  8  2  0
 44 32  1  0
M  CHG  4   9  -1  12  -1  14  -1  32   1
M  END
>  <UniqueID>  (85) 
81

>  <SMILES>  (85) 
C=c1/c(=C\c2[n-]c(=O)[n-]c2[O-])cc(C)n1-c1ccc(C[NH+]2CCOCC2)cc1F

>  <Energy>  (85) 
143.89271510900244

>  <Genealogy>  (85) 
C=c1c(=Cc2[n-]c(=O)[n-]c2[O-])cc(C)n1-c1ccc(C[NH+]2CCOCC2)cc1F (protonated)
C=c1/c(=C\c2[n-]c(=O)[n-]c2[O-])cc(C)n1-c1ccc(C[NH+]2CCOCC2)cc1F (cis-trans isomerization)
C=c1/c(=C\c2[n-]c(=O)[n-]c2[O-])cc(C)n1-c1ccc(C[NH+]2CCOCC2)cc1F (3D coordinates assigned)
C=c1/c(=C\c2[n-]c(=O)[n-]c2[O-])cc(C)n1-c1ccc(C[NH+]2CCOCC2)cc1F (nonaromatic ring conformer: 143.89271510900244 kcal/mol)

>  <smiles>  (85) 
C=c1c(=Cc2[nH]c(=O)[nH]c2O)cc(C)n1-c1ccc(CN2CCOCC2)cc1F

>  <score_type>  (85) 
oracle

>  <origin>  (85) 
adg

>  <m_score__min__energy>  (85) 
-14.609999999999999

>  <m_primary>  (85) 
energy

$$$$
85:0
     RDKit          3D

 67 70  0  0  0  0  0  0  0  0999 V2000
   56.2640   31.6350   44.4990 O   0  0  0  0  0  0  0  0  0  0  0  0
   57.3440   30.9810   44.5170 C   0  0  0  0  0  0  0  0  0  0  0  0
   57.3850   29.5860   43.9620 C   0  0  0  0  0  0  0  0  0  0  0  0
   56.5640   28.6110   44.8210 C   0  0  0  0  0  0  0  0  0  0  0  0
   57.4050   27.9380   45.9180 C   0  0  0  0  0  0  0  0  0  0  0  0
   57.1980   26.4420   45.9600 C   0  0  0  0  0  0  0  0  0  0  0  0
   58.3100   25.5850   45.9420 C   0  0  0  0  0  0  0  0  0  0  0  0
   58.1360   24.2000   45.9330 C   0  0  0  0  0  0  0  0  0  0  0  0
   56.8480   23.6430   45.9280 C   0  0  0  0  0  0  0  0  0  0  0  0
   56.6790   22.2130   45.8860 N   0  0  0  0  0  0  0  0  0  0  0  0
   56.4610   21.4690   47.1320 C   0  0  0  0  0  0  0  0  0  0  0  0
   55.6820   20.1830   46.8390 C   0  0  0  0  0  0  0  0  0  0  0  0
   56.3150   19.4370   45.8150 O   0  0  0  0  0  0  0  0  0  0  0  0
   56.2770   20.1630   44.5990 C   0  0  0  0  0  0  0  0  0  0  0  0
   57.1040   21.4500   44.7060 C   0  0  0  0  0  0  0  0  0  0  0  0
   55.7340   24.4990   45.9600 C   0  0  0  0  0  0  0  0  0  0  0  0
   55.9030   25.8880   45.9740 C   0  0  0  0  0  0  0  0  0  0  0  0
   54.7800   26.7090   45.9910 O   0  0  0  0  0  0  0  0  0  0  0  0
   58.5450   31.5900   45.0120 N   0  0  0  0  0  0  0  0  0  0  0  0
   58.5230   32.7910   45.8420 C   0  0  0  0  0  0  0  0  0  0  0  0
   59.8170   32.9110   46.5980 C   0  0  0  0  0  0  0  0  0  0  0  0
   60.1860   34.1240   47.1990 C   0  0  0  0  0  0  0  0  0  0  0  0
   61.3650   34.2110   47.9460 C   0  0  0  0  0  0  0  0  0  0  0  0
   62.1980   33.0900   48.0890 C   0  0  0  0  0  0  0  0  0  0  0  0
   63.4350   33.1850   48.8880 C   0  0  0  0  0  0  0  0  0  0  0  0
   64.5200   33.4620   48.3090 O   0  0  0  0  0  0  0  0  0  0  0  0
   63.4450   32.9800   50.3060 N   0  0  0  0  0  0  0  0  0  0  0  0
   62.4140   33.4270   51.2390 C   0  0  0  0  0  0  0  0  0  0  0  0
   61.1290   32.6850   50.9940 C   0  0  0  0  0  0  0  0  0  0  0  0
   59.9090   33.3800   50.9050 C   0  0  0  0  0  0  0  0  0  0  0  0
   58.7250   32.6900   50.6270 C   0  0  0  0  0  0  0  0  0  0  0  0
   58.7500   31.3030   50.4420 C   0  0  0  0  0  0  0  0  0  0  0  0
   59.9580   30.6050   50.5300 C   0  0  0  0  0  0  0  0  0  0  0  0
   61.1460   31.2920   50.7980 C   0  0  0  0  0  0  0  0  0  0  0  0
   61.8140   31.8700   47.5080 C   0  0  0  0  0  0  0  0  0  0  0  0
   60.6370   31.7840   46.7610 C   0  0  0  0  0  0  0  0  0  0  0  0
   56.9743   29.5956   42.9416 H   0  0  0  0  0  0  0  0  0  0  0  0
   58.4313   29.2466   43.9612 H   0  0  0  0  0  0  0  0  0  0  0  0
   55.7429   29.1667   45.2975 H   0  0  0  0  0  0  0  0  0  0  0  0
   56.1862   27.8191   44.1576 H   0  0  0  0  0  0  0  0  0  0  0  0
   58.4683   28.1430   45.7248 H   0  0  0  0  0  0  0  0  0  0  0  0
   57.0870   28.3498   46.8872 H   0  0  0  0  0  0  0  0  0  0  0  0
   59.3254   26.0079   45.9349 H   0  0  0  0  0  0  0  0  0  0  0  0
   59.0158   23.5397   45.9298 H   0  0  0  0  0  0  0  0  0  0  0  0
   57.4328   21.2133   47.5795 H   0  0  0  0  0  0  0  0  0  0  0  0
   55.8836   22.0921   47.8308 H   0  0  0  0  0  0  0  0  0  0  0  0
   55.6345   19.5733   47.7533 H   0  0  0  0  0  0  0  0  0  0  0  0
   54.6684   20.4513   46.5063 H   0  0  0  0  0  0  0  0  0  0  0  0
   56.6869   19.5372   43.7926 H   0  0  0  0  0  0  0  0  0  0  0  0
   55.2328   20.4324   44.3821 H   0  0  0  0  0  0  0  0  0  0  0  0
   58.1695   21.1935   44.8004 H   0  0  0  0  0  0  0  0  0  0  0  0
   56.9499   22.0588   43.8029 H   0  0  0  0  0  0  0  0  0  0  0  0
   54.7198   24.0733   45.9742 H   0  0  0  0  0  0  0  0  0  0  0  0
   59.4590   31.1140   44.8490 H   0  0  0  0  0  0  0  0  0  0  0  0
   58.3909   33.6754   45.2013 H   0  0  0  0  0  0  0  0  0  0  0  0
   57.6896   32.7235   46.5567 H   0  0  0  0  0  0  0  0  0  0  0  0
   59.5451   35.0103   47.0821 H   0  0  0  0  0  0  0  0  0  0  0  0
   61.6411   35.1625   48.4239 H   0  0  0  0  0  0  0  0  0  0  0  0
   62.7508   33.2385   52.2691 H   0  0  0  0  0  0  0  0  0  0  0  0
   62.2393   34.5027   51.0897 H   0  0  0  0  0  0  0  0  0  0  0  0
   59.8865   34.4696   51.0546 H   0  0  0  0  0  0  0  0  0  0  0  0
   57.7737   33.2375   50.5537 H   0  0  0  0  0  0  0  0  0  0  0  0
   57.8173   30.7610   50.2269 H   0  0  0  0  0  0  0  0  0  0  0  0
   59.9740   29.5143   50.3883 H   0  0  0  0  0  0  0  0  0  0  0  0
   62.0967   30.7416   50.8558 H   0  0  0  0  0  0  0  0  0  0  0  0
   62.4435   30.9779   47.6421 H   0  0  0  0  0  0  0  0  0  0  0  0
   60.3514   30.8279   46.2981 H   0  0  0  0  0  0  0  0  0  0  0  0
  1  2  2  0
  2  3  1  0
  3  4  1  0
  4  5  1  0
  5  6  1  0
  6  7  2  0
  7  8  1  0
  8  9  2  0
  9 10  1  0
 10 11  1  0
 11 12  1  0
 12 13  1  0
 13 14  1  0
 14 15  1  0
  9 16  1  0
 16 17  2  0
 17 18  1  0
  2 19  1  0
 19 20  1  0
 20 21  1  0
 21 22  2  0
 22 23  1  0
 23 24  2  0
 24 25  1  0
 25 26  2  0
 25 27  1  0
 27 28  1  0
 28 29  1  0
 29 30  2  0
 30 31  1  0
 31 32  2  0
 32 33  1  0
 33 34  2  0
 24 35  1  0
 35 36  2  0
 17  6  1  0
 36 21  1  0
 15 10  1  0
 34 29  1  0
  3 37  1  0
  3 38  1  0
  4 39  1  0
  4 40  1  0
  5 41  1  0
  5 42  1  0
  7 43  1  0
  8 44  1  0
 11 45  1  0
 11 46  1  0
 12 47  1  0
 12 48  1  0
 14 49  1  0
 14 50  1  0
 15 51  1  0
 15 52  1  0
 16 53  1  0
 19 54  1  0
 20 55  1  0
 20 56  1  0
 22 57  1  0
 23 58  1  0
 28 59  1  0
 28 60  1  0
 30 61  1  0
 31 62  1  0
 32 63  1  0
 33 64  1  0
 34 65  1  0
 35 66  1  0
 36 67  1  0
M  CHG  2  18  -1  27  -1
M  END
>  <UniqueID>  (86) 
82

>  <SMILES>  (86) 
O=C(CCCc1ccc(N2CCOCC2)cc1[O-])NCc1ccc(C(=O)[N-]Cc2ccccc2)cc1

>  <Energy>  (86) 
71.98940926902212

>  <Genealogy>  (86) 
O=C(CCCc1ccc(N2CCOCC2)cc1[O-])NCc1ccc(C(=O)[N-]Cc2ccccc2)cc1 (protonated)
O=C(CCCc1ccc(N2CCOCC2)cc1[O-])NCc1ccc(C(=O)[N-]Cc2ccccc2)cc1 (3D coordinates assigned)
O=C(CCCc1ccc(N2CCOCC2)cc1[O-])NCc1ccc(C(=O)[N-]Cc2ccccc2)cc1 (nonaromatic ring conformer: 71.98940926902212 kcal/mol)

>  <smiles>  (86) 
O=C(CCCc1ccc(N2CCOCC2)cc1O)NCc1ccc(C(=O)NCc2ccccc2)cc1

>  <score_type>  (86) 
oracle

>  <origin>  (86) 
adg

>  <m_score__min__energy>  (86) 
-14.539999999999999

>  <m_primary>  (86) 
energy

$$$$
86:0
     RDKit          3D

 36 37  0  0  0  0  0  0  0  0999 V2000
   60.6410   34.2430   48.6030 C   0  0  0  0  0  0  0  0  0  0  0  0
   59.7760   34.6150   47.5350 O   0  0  0  0  0  0  0  0  0  0  0  0
   59.0020   33.7110   46.7910 C   0  0  0  0  0  0  0  0  0  0  0  0
   58.9760   32.3310   47.0700 C   0  0  0  0  0  0  0  0  0  0  0  0
   58.1920   31.4710   46.2950 C   0  0  0  0  0  0  0  0  0  0  0  0
   57.4450   31.9680   45.2220 C   0  0  0  0  0  0  0  0  0  0  0  0
   56.6520   31.0590   44.4450 N   0  0  0  0  0  0  0  0  0  0  0  0
   56.3650   29.6900   44.7670 C   0  0  0  0  0  0  0  0  0  0  0  0
   55.1620   29.3350   44.8750 O   0  0  0  0  0  0  0  0  0  0  0  0
   57.4460   28.6750   45.0140 C   0  0  0  0  0  0  0  0  0  0  0  0
   57.0640   27.7900   46.1060 N   0  0  0  0  0  0  0  0  0  0  0  0
   56.4080   26.5370   45.9000 C   0  0  0  0  0  0  0  0  0  0  0  0
   55.1540   26.4490   46.0050 O   0  0  0  0  0  0  0  0  0  0  0  0
   57.2070   25.3330   45.5090 C   0  0  0  0  0  0  0  0  0  0  0  0
   57.0290   24.2460   46.4690 N   0  0  0  0  0  0  0  0  0  0  0  0
   56.9500   22.8410   46.1820 C   0  0  0  0  0  0  0  0  0  0  0  0
   57.1150   22.0290   47.1300 O   0  0  0  0  0  0  0  0  0  0  0  0
   56.6400   22.3030   44.8450 C   0  0  0  0  0  0  0  0  0  0  0  0
   56.7730   21.0090   44.3890 C   0  0  0  0  0  0  0  0  0  0  0  0
   56.3010   20.9790   43.1300 N   0  0  0  0  0  0  0  0  0  0  0  0
   55.8920   22.2050   42.8400 N   0  0  0  0  0  0  0  0  0  0  0  0
   56.0750   23.0270   43.8640 N   0  0  0  0  0  0  0  0  0  0  0  0
   57.4460   33.3470   44.9620 C   0  0  0  0  0  0  0  0  0  0  0  0
   58.2280   34.2090   45.7360 C   0  0  0  0  0  0  0  0  0  0  0  0
   60.1491   34.4545   49.5639 H   0  0  0  0  0  0  0  0  0  0  0  0
   60.8662   33.1685   48.5351 H   0  0  0  0  0  0  0  0  0  0  0  0
   61.5759   34.8186   48.5351 H   0  0  0  0  0  0  0  0  0  0  0  0
   59.5745   31.9283   47.9004 H   0  0  0  0  0  0  0  0  0  0  0  0
   58.1625   30.3969   46.5306 H   0  0  0  0  0  0  0  0  0  0  0  0
   57.6016   28.0804   44.1017 H   0  0  0  0  0  0  0  0  0  0  0  0
   58.3752   29.1982   45.2839 H   0  0  0  0  0  0  0  0  0  0  0  0
   56.8792   24.9919   44.5159 H   0  0  0  0  0  0  0  0  0  0  0  0
   58.2710   25.6117   45.4918 H   0  0  0  0  0  0  0  0  0  0  0  0
   57.1880   20.1590   44.9504 H   0  0  0  0  0  0  0  0  0  0  0  0
   56.8290   33.7511   44.1459 H   0  0  0  0  0  0  0  0  0  0  0  0
   58.2354   35.2865   45.5146 H   0  0  0  0  0  0  0  0  0  0  0  0
  1  2  1  0
  2  3  1  0
  3  4  2  0
  4  5  1  0
  5  6  2  0
  6  7  1  0
  7  8  1  0
  8  9  2  0
  8 10  1  0
 10 11  1  0
 11 12  1  0
 12 13  2  0
 12 14  1  0
 14 15  1  0
 15 16  1  0
 16 17  2  0
 16 18  1  0
 18 19  2  0
 19 20  1  0
 20 21  1  0
 21 22  2  0
  6 23  1  0
 23 24  2  0
 24  3  1  0
 22 18  1  0
  1 25  1  0
  1 26  1  0
  1 27  1  0
  4 28  1  0
  5 29  1  0
 10 30  1  0
 10 31  1  0
 14 32  1  0
 14 33  1  0
 19 34  1  0
 23 35  1  0
 24 36  1  0
M  CHG  4   7  -1  11  -1  15  -1  20  -1
M  END
>  <UniqueID>  (87) 
83

>  <SMILES>  (87) 
COc1ccc([N-]C(=O)C[N-]C(=O)C[N-]C(=O)c2c[n-]nn2)cc1

>  <Energy>  (87) 
72.20766421976911

>  <Genealogy>  (87) 
COc1ccc([N-]C(=O)C[N-]C(=O)C[N-]C(=O)c2c[n-]nn2)cc1 (protonated)
COc1ccc([N-]C(=O)C[N-]C(=O)C[N-]C(=O)c2c[n-]nn2)cc1 (3D coordinates assigned)
COc1ccc([N-]C(=O)C[N-]C(=O)C[N-]C(=O)c2c[n-]nn2)cc1 (optimized conformer: 72.20766421976911 kcal/mol)

>  <smiles>  (87) 
COc1ccc(NC(=O)CNC(=O)CNC(=O)c2c[nH]nn2)cc1

>  <score_type>  (87) 
oracle

>  <origin>  (87) 
adg

>  <m_score__min__energy>  (87) 
-14.619999999999999

>  <m_primary>  (87) 
energy

$$$$
87:0
     RDKit          3D

 55 57  0  0  0  0  0  0  0  0999 V2000
   49.9580   32.9280   55.0030 C   0  0  0  0  0  0  0  0  0  0  0  0
   50.4600   31.6810   54.5360 O   0  0  0  0  0  0  0  0  0  0  0  0
   51.4230   31.5390   53.5250 C   0  0  0  0  0  0  0  0  0  0  0  0
   52.6370   30.8570   53.7330 C   0  0  0  0  0  0  0  0  0  0  0  0
   53.5850   30.7540   52.7010 C   0  0  0  0  0  0  0  0  0  0  0  0
   54.9050   30.0670   52.9410 C   0  0  0  0  0  0  0  0  0  0  0  0
   55.7710   30.1680   51.7670 N   0  0  0  0  0  0  0  0  0  0  0  0
   57.0020   30.8990   51.6900 C   0  0  0  0  0  0  0  0  0  0  0  0
   57.0290   32.0900   52.0960 O   0  0  0  0  0  0  0  0  0  0  0  0
   58.2490   30.2830   51.1980 C   0  0  0  0  0  0  0  0  0  0  0  0
   58.8470   29.2450   51.9290 C   0  0  0  0  0  0  0  0  0  0  0  0
   60.0040   28.6280   51.4520 C   0  0  0  0  0  0  0  0  0  0  0  0
   60.5830   29.0530   50.2540 C   0  0  0  0  0  0  0  0  0  0  0  0
   60.0120   30.1100   49.5260 C   0  0  0  0  0  0  0  0  0  0  0  0
   60.6630   30.6070   48.2610 C   0  0  0  0  0  0  0  0  0  0  0  0
   60.2770   29.7860   47.1140 N   0  0  0  0  0  0  0  0  0  0  0  0
   58.9260   29.6310   46.6680 C   0  0  0  0  0  0  0  0  0  0  0  0
   58.1640   30.6330   46.6390 O   0  0  0  0  0  0  0  0  0  0  0  0
   58.4630   28.3570   46.2170 N   0  0  0  0  0  0  0  0  0  0  0  0
   57.4030   27.5990   46.8610 C   0  0  0  0  0  0  0  0  0  0  0  0
   57.1800   26.3360   46.0780 C   0  0  0  0  0  0  0  0  0  0  0  0
   58.2730   25.5000   45.7930 C   0  0  0  0  0  0  0  0  0  0  0  0
   58.0800   24.2770   45.1460 C   0  0  0  0  0  0  0  0  0  0  0  0
   56.7900   23.8670   44.7800 C   0  0  0  0  0  0  0  0  0  0  0  0
   56.5680   22.5490   44.0990 C   0  0  0  0  0  0  0  0  0  0  0  0
   55.6950   24.6920   45.0760 C   0  0  0  0  0  0  0  0  0  0  0  0
   55.8830   25.9140   45.7300 C   0  0  0  0  0  0  0  0  0  0  0  0
   54.7760   26.6980   46.0390 O   0  0  0  0  0  0  0  0  0  0  0  0
   58.8440   30.7230   50.0060 C   0  0  0  0  0  0  0  0  0  0  0  0
   53.3020   31.3150   51.4470 C   0  0  0  0  0  0  0  0  0  0  0  0
   52.0960   31.9860   51.2340 C   0  0  0  0  0  0  0  0  0  0  0  0
   51.1620   32.1020   52.2670 C   0  0  0  0  0  0  0  0  0  0  0  0
   49.9690   32.7790   52.0420 O   0  0  0  0  0  0  0  0  0  0  0  0
   49.9558   32.9336   56.1030 H   0  0  0  0  0  0  0  0  0  0  0  0
   50.5983   33.7426   54.6335 H   0  0  0  0  0  0  0  0  0  0  0  0
   48.9319   33.0718   54.6335 H   0  0  0  0  0  0  0  0  0  0  0  0
   52.8452   30.4008   54.7120 H   0  0  0  0  0  0  0  0  0  0  0  0
   55.4056   30.5399   53.7987 H   0  0  0  0  0  0  0  0  0  0  0  0
   54.7138   29.0030   53.1442 H   0  0  0  0  0  0  0  0  0  0  0  0
   58.4026   28.9170   52.8803 H   0  0  0  0  0  0  0  0  0  0  0  0
   60.4613   27.8049   52.0207 H   0  0  0  0  0  0  0  0  0  0  0  0
   61.4906   28.5575   49.8788 H   0  0  0  0  0  0  0  0  0  0  0  0
   60.3510   31.6462   48.0805 H   0  0  0  0  0  0  0  0  0  0  0  0
   61.7546   30.5473   48.3825 H   0  0  0  0  0  0  0  0  0  0  0  0
   57.6974   27.3503   47.8913 H   0  0  0  0  0  0  0  0  0  0  0  0
   56.4779   28.1934   46.8910 H   0  0  0  0  0  0  0  0  0  0  0  0
   59.2880   25.8109   46.0815 H   0  0  0  0  0  0  0  0  0  0  0  0
   58.9434   23.6331   44.9228 H   0  0  0  0  0  0  0  0  0  0  0  0
   56.4355   21.7626   44.8566 H   0  0  0  0  0  0  0  0  0  0  0  0
   55.6672   22.6082   43.4705 H   0  0  0  0  0  0  0  0  0  0  0  0
   57.4385   22.3098   43.4705 H   0  0  0  0  0  0  0  0  0  0  0  0
   54.6806   24.3755   44.7916 H   0  0  0  0  0  0  0  0  0  0  0  0
   58.3923   31.5537   49.4440 H   0  0  0  0  0  0  0  0  0  0  0  0
   54.0321   31.2262   50.6290 H   0  0  0  0  0  0  0  0  0  0  0  0
   51.8803   32.4252   50.2488 H   0  0  0  0  0  0  0  0  0  0  0  0
  1  2  1  0
  2  3  1  0
  3  4  2  0
  4  5  1  0
  5  6  1  0
  6  7  1  0
  7  8  1  0
  8  9  2  0
  8 10  1  0
 10 11  2  0
 11 12  1  0
 12 13  2  0
 13 14  1  0
 14 15  1  0
 15 16  1  0
 16 17  1  0
 17 18  2  0
 17 19  1  0
 19 20  1  0
 20 21  1  0
 21 22  2  0
 22 23  1  0
 23 24  2  0
 24 25  1  0
 24 26  1  0
 26 27  2  0
 27 28  1  0
 14 29  2  0
  5 30  2  0
 30 31  1  0
 31 32  2  0
 32 33  1  0
 32  3  1  0
 29 10  1  0
 27 21  1  0
  1 34  1  0
  1 35  1  0
  1 36  1  0
  4 37  1  0
  6 38  1  0
  6 39  1  0
 11 40  1  0
 12 41  1  0
 13 42  1  0
 15 43  1  0
 15 44  1  0
 20 45  1  0
 20 46  1  0
 22 47  1  0
 23 48  1  0
 25 49  1  0
 25 50  1  0
 25 51  1  0
 26 52  1  0
 29 53  1  0
 30 54  1  0
 31 55  1  0
M  CHG  5   7  -1  16  -1  19  -1  28  -1  33  -1
M  END
>  <UniqueID>  (88) 
84

>  <SMILES>  (88) 
COc1cc(C[N-]C(=O)c2cccc(C[N-]C(=O)[N-]Cc3ccc(C)cc3[O-])c2)ccc1[O-]

>  <Energy>  (88) 
49.89249875469227

>  <Genealogy>  (88) 
COc1cc(C[N-]C(=O)c2cccc(C[N-]C(=O)[N-]Cc3ccc(C)cc3[O-])c2)ccc1[O-] (protonated)
COc1cc(C[N-]C(=O)c2cccc(C[N-]C(=O)[N-]Cc3ccc(C)cc3[O-])c2)ccc1[O-] (3D coordinates assigned)
COc1cc(C[N-]C(=O)c2cccc(C[N-]C(=O)[N-]Cc3ccc(C)cc3[O-])c2)ccc1[O-] (optimized conformer: 49.89249875469227 kcal/mol)

>  <smiles>  (88) 
COc1cc(CNC(=O)c2cccc(CNC(=O)NCc3ccc(C)cc3O)c2)ccc1O

>  <score_type>  (88) 
oracle

>  <origin>  (88) 
adg

>  <m_score__min__energy>  (88) 
-19.420000000000002

>  <m_primary>  (88) 
energy

$$$$
88:0
     RDKit          3D

 42 44  0  0  0  0  0  0  0  0999 V2000
   57.2360   34.4380   44.7160 O   0  0  0  0  0  0  0  0  0  0  0  0
   58.2150   33.6600   44.5480 C   0  0  0  0  0  0  0  0  0  0  0  0
   58.1360   32.5920   43.4990 C   0  0  0  0  0  0  0  0  0  0  0  0
   57.5250   31.3780   44.0610 N   0  0  0  0  0  0  0  0  0  0  0  0
   56.4670   30.8040   43.4110 C   0  0  0  0  0  0  0  0  0  0  0  0
   55.8790   29.6330   43.8930 C   0  0  0  0  0  0  0  0  0  0  0  0
   56.3910   29.0250   45.0470 C   0  0  0  0  0  0  0  0  0  0  0  0
   55.8150   27.8340   45.6030 N   0  0  0  0  0  0  0  0  0  0  0  0
   56.5250   26.6890   46.0890 C   0  0  0  0  0  0  0  0  0  0  0  0
   55.9080   25.6290   46.3750 O   0  0  0  0  0  0  0  0  0  0  0  0
   57.9940   26.7460   46.2020 C   0  0  0  0  0  0  0  0  0  0  0  0
   58.8430   26.5620   47.6440 S   0  0  0  0  0  0  0  0  0  0  0  0
   60.3820   26.7350   46.9920 C   0  0  0  0  0  0  0  0  0  0  0  0
   60.2520   26.9410   45.6250 C   0  0  0  0  0  0  0  0  0  0  0  0
   58.9240   26.9470   45.1790 C   0  0  0  0  0  0  0  0  0  0  0  0
   58.5210   27.1900   43.4870 Cl  0  0  0  0  0  0  0  0  0  0  0  0
   57.4610   29.6270   45.7090 C   0  0  0  0  0  0  0  0  0  0  0  0
   58.0300   30.7990   45.1990 C   0  0  0  0  0  0  0  0  0  0  0  0
   59.0130   31.3130   45.8010 O   0  0  0  0  0  0  0  0  0  0  0  0
   59.3750   33.7630   45.3840 N   0  0  0  0  0  0  0  0  0  0  0  0
   59.5030   34.7750   46.4290 C   0  0  0  0  0  0  0  0  0  0  0  0
   59.5240   34.1240   47.7850 C   0  0  0  0  0  0  0  0  0  0  0  0
   58.5990   33.1140   48.0940 C   0  0  0  0  0  0  0  0  0  0  0  0
   58.6280   32.4900   49.3450 C   0  0  0  0  0  0  0  0  0  0  0  0
   59.5810   32.8670   50.2940 C   0  0  0  0  0  0  0  0  0  0  0  0
   60.5090   33.8690   49.9930 C   0  0  0  0  0  0  0  0  0  0  0  0
   60.4830   34.4960   48.7430 C   0  0  0  0  0  0  0  0  0  0  0  0
   57.5245   32.9518   42.6584 H   0  0  0  0  0  0  0  0  0  0  0  0
   59.1513   32.3555   43.1479 H   0  0  0  0  0  0  0  0  0  0  0  0
   56.0741   31.2714   42.4960 H   0  0  0  0  0  0  0  0  0  0  0  0
   55.0187   29.1902   43.3698 H   0  0  0  0  0  0  0  0  0  0  0  0
   61.3283   26.6924   47.5511 H   0  0  0  0  0  0  0  0  0  0  0  0
   61.1119   27.0860   44.9545 H   0  0  0  0  0  0  0  0  0  0  0  0
   57.8577   29.1801   46.6325 H   0  0  0  0  0  0  0  0  0  0  0  0
   60.1560   33.0790   45.2550 H   0  0  0  0  0  0  0  0  0  0  0  0
   60.4385   35.3342   46.2802 H   0  0  0  0  0  0  0  0  0  0  0  0
   58.6430   35.4585   46.3730 H   0  0  0  0  0  0  0  0  0  0  0  0
   57.8483   32.8123   47.3488 H   0  0  0  0  0  0  0  0  0  0  0  0
   57.8991   31.7010   49.5821 H   0  0  0  0  0  0  0  0  0  0  0  0
   59.6016   32.3758   51.2780 H   0  0  0  0  0  0  0  0  0  0  0  0
   61.2603   34.1644   50.7402 H   0  0  0  0  0  0  0  0  0  0  0  0
   61.2153   35.2827   48.5089 H   0  0  0  0  0  0  0  0  0  0  0  0
  1  2  2  0
  2  3  1  0
  3  4  1  0
  4  5  1  0
  5  6  2  0
  6  7  1  0
  7  8  1  0
  8  9  1  0
  9 10  2  0
  9 11  1  0
 11 12  1  0
 12 13  1  0
 13 14  2  0
 14 15  1  0
 15 16  1  0
  7 17  2  0
 17 18  1  0
 18 19  2  0
  2 20  1  0
 20 21  1  0
 21 22  1  0
 22 23  2  0
 23 24  1  0
 24 25  2  0
 25 26  1  0
 26 27  2  0
 18  4  1  0
 27 22  1  0
 15 11  2  0
  3 28  1  0
  3 29  1  0
  5 30  1  0
  6 31  1  0
 13 32  1  0
 14 33  1  0
 17 34  1  0
 20 35  1  0
 21 36  1  0
 21 37  1  0
 23 38  1  0
 24 39  1  0
 25 40  1  0
 26 41  1  0
 27 42  1  0
M  CHG  1   8  -1
M  END
>  <UniqueID>  (89) 
85

>  <SMILES>  (89) 
O=C(Cn1ccc([N-]C(=O)c2sccc2Cl)cc1=O)NCc1ccccc1

>  <Energy>  (89) 
72.50623586166917

>  <Genealogy>  (89) 
O=C(Cn1ccc([N-]C(=O)c2sccc2Cl)cc1=O)NCc1ccccc1 (protonated)
O=C(Cn1ccc([N-]C(=O)c2sccc2Cl)cc1=O)NCc1ccccc1 (3D coordinates assigned)
O=C(Cn1ccc([N-]C(=O)c2sccc2Cl)cc1=O)NCc1ccccc1 (optimized conformer: 72.50623586166917 kcal/mol)

>  <smiles>  (89) 
O=C(Cn1ccc(NC(=O)c2sccc2Cl)cc1=O)NCc1ccccc1

>  <score_type>  (89) 
oracle

>  <origin>  (89) 
adg

>  <m_score__min__energy>  (89) 
-10.17

>  <m_primary>  (89) 
energy

$$$$
89:0
     RDKit          3D

 72 76  0  0  0  0  0  0  0  0999 V2000
   59.5200   26.5050   47.4300 C   0  0  0  0  0  0  0  0  0  0  0  0
   59.9790   27.8440   47.0510 N   0  0  0  0  0  0  0  0  0  0  0  0
   60.0490   28.2140   45.6300 C   0  0  0  0  0  0  0  0  0  0  0  0
   58.7350   28.7890   45.1770 C   0  0  0  0  0  0  0  0  0  0  0  0
   57.5300   28.1980   45.5870 C   0  0  0  0  0  0  0  0  0  0  0  0
   56.3100   28.7360   45.1760 C   0  0  0  0  0  0  0  0  0  0  0  0
   56.2790   29.8720   44.3600 C   0  0  0  0  0  0  0  0  0  0  0  0
   57.4750   30.4760   43.9410 C   0  0  0  0  0  0  0  0  0  0  0  0
   57.4390   31.7010   43.1130 C   0  0  0  0  0  0  0  0  0  0  0  0
   57.0980   31.6170   41.9040 O   0  0  0  0  0  0  0  0  0  0  0  0
   57.7380   32.9950   43.6580 N   0  0  0  0  0  0  0  0  0  0  0  0
   57.1240   33.5550   44.8600 C   0  0  0  0  0  0  0  0  0  0  0  0
   58.1830   33.8560   45.8830 C   0  0  0  0  0  0  0  0  0  0  0  0
   59.2830   34.6590   45.5440 C   0  0  0  0  0  0  0  0  0  0  0  0
   60.2530   34.9620   46.5020 C   0  0  0  0  0  0  0  0  0  0  0  0
   60.1320   34.4700   47.8060 C   0  0  0  0  0  0  0  0  0  0  0  0
   59.0300   33.6770   48.1690 C   0  0  0  0  0  0  0  0  0  0  0  0
   58.9170   33.1590   49.5100 N   0  0  0  0  0  0  0  0  0  0  0  0
   58.1960   31.9050   49.7600 C   0  0  0  0  0  0  0  0  0  0  0  0
   57.5960   31.9330   51.1690 C   0  0  0  0  0  0  0  0  0  0  0  0
   58.5910   32.2330   52.1330 O   0  0  0  0  0  0  0  0  0  0  0  0
   59.0780   33.5460   51.9280 C   0  0  0  0  0  0  0  0  0  0  0  0
   59.7920   33.6580   50.5750 C   0  0  0  0  0  0  0  0  0  0  0  0
   58.0540   33.3800   47.1980 C   0  0  0  0  0  0  0  0  0  0  0  0
   58.7000   29.9420   44.3760 C   0  0  0  0  0  0  0  0  0  0  0  0
   60.3560   28.7840   48.0770 C   0  0  0  0  0  0  0  0  0  0  0  0
   59.9730   28.5720   49.4110 C   0  0  0  0  0  0  0  0  0  0  0  0
   60.3550   29.4710   50.4100 C   0  0  0  0  0  0  0  0  0  0  0  0
   61.1330   30.5850   50.0890 C   0  0  0  0  0  0  0  0  0  0  0  0
   61.5400   30.8080   48.7650 C   0  0  0  0  0  0  0  0  0  0  0  0
   62.3870   31.9290   48.4500 N   0  0  0  0  0  0  0  0  0  0  0  0
   63.0190   32.0320   47.1320 C   0  0  0  0  0  0  0  0  0  0  0  0
   63.2100   33.5070   46.7650 C   0  0  0  0  0  0  0  0  0  0  0  0
   63.8790   34.2040   47.8010 O   0  0  0  0  0  0  0  0  0  0  0  0
   63.0770   34.2200   48.9670 C   0  0  0  0  0  0  0  0  0  0  0  0
   62.8860   32.8030   49.5150 C   0  0  0  0  0  0  0  0  0  0  0  0
   61.1430   29.9040   47.7620 C   0  0  0  0  0  0  0  0  0  0  0  0
   59.4921   26.4237   48.5266 H   0  0  0  0  0  0  0  0  0  0  0  0
   58.5120   26.3343   47.0239 H   0  0  0  0  0  0  0  0  0  0  0  0
   60.2113   25.7518   47.0239 H   0  0  0  0  0  0  0  0  0  0  0  0
   60.8416   28.9635   45.4884 H   0  0  0  0  0  0  0  0  0  0  0  0
   60.2711   27.3153   45.0359 H   0  0  0  0  0  0  0  0  0  0  0  0
   57.5473   27.3085   46.2339 H   0  0  0  0  0  0  0  0  0  0  0  0
   55.3685   28.2649   45.4949 H   0  0  0  0  0  0  0  0  0  0  0  0
   55.3131   30.2938   44.0453 H   0  0  0  0  0  0  0  0  0  0  0  0
   56.5938   34.4831   44.6001 H   0  0  0  0  0  0  0  0  0  0  0  0
   56.4144   32.8255   45.2775 H   0  0  0  0  0  0  0  0  0  0  0  0
   59.3814   35.0508   44.5209 H   0  0  0  0  0  0  0  0  0  0  0  0
   61.1147   35.5894   46.2304 H   0  0  0  0  0  0  0  0  0  0  0  0
   60.9049   34.7055   48.5525 H   0  0  0  0  0  0  0  0  0  0  0  0
   57.3897   31.7919   49.0203 H   0  0  0  0  0  0  0  0  0  0  0  0
   58.8930   31.0582   49.6751 H   0  0  0  0  0  0  0  0  0  0  0  0
   56.8096   32.7010   51.2111 H   0  0  0  0  0  0  0  0  0  0  0  0
   57.1749   30.9418   51.3931 H   0  0  0  0  0  0  0  0  0  0  0  0
   58.2339   34.2510   51.9496 H   0  0  0  0  0  0  0  0  0  0  0  0
   59.7966   33.7838   52.7262 H   0  0  0  0  0  0  0  0  0  0  0  0
   60.0412   34.7114   50.3795 H   0  0  0  0  0  0  0  0  0  0  0  0
   60.7136   33.0579   50.5995 H   0  0  0  0  0  0  0  0  0  0  0  0
   57.1816   32.7688   47.4725 H   0  0  0  0  0  0  0  0  0  0  0  0
   59.6411   30.4322   44.0861 H   0  0  0  0  0  0  0  0  0  0  0  0
   59.3675   27.6914   49.6716 H   0  0  0  0  0  0  0  0  0  0  0  0
   60.0424   29.3009   51.4508 H   0  0  0  0  0  0  0  0  0  0  0  0
   61.4285   31.2917   50.8785 H   0  0  0  0  0  0  0  0  0  0  0  0
   63.9982   31.5314   47.1559 H   0  0  0  0  0  0  0  0  0  0  0  0
   62.3760   31.5500   46.3809 H   0  0  0  0  0  0  0  0  0  0  0  0
   63.8058   33.5743   45.8428 H   0  0  0  0  0  0  0  0  0  0  0  0
   62.2200   33.9631   46.6174 H   0  0  0  0  0  0  0  0  0  0  0  0
   63.5662   34.8399   49.7327 H   0  0  0  0  0  0  0  0  0  0  0  0
   62.0909   34.6350   48.7111 H   0  0  0  0  0  0  0  0  0  0  0  0
   63.8492   32.4194   49.8826 H   0  0  0  0  0  0  0  0  0  0  0  0
   62.1598   32.8248   50.3410 H   0  0  0  0  0  0  0  0  0  0  0  0
   61.4523   30.0764   46.7205 H   0  0  0  0  0  0  0  0  0  0  0  0
  1  2  1  0
  2  3  1  0
  3  4  1  0
  4  5  2  0
  5  6  1  0
  6  7  2  0
  7  8  1  0
  8  9  1  0
  9 10  2  0
  9 11  1  0
 11 12  1  0
 12 13  1  0
 13 14  2  0
 14 15  1  0
 15 16  2  0
 16 17  1  0
 17 18  1  0
 18 19  1  0
 19 20  1  0
 20 21  1  0
 21 22  1  0
 22 23  1  0
 17 24  2  0
  8 25  2  0
  2 26  1  0
 26 27  2  0
 27 28  1  0
 28 29  2  0
 29 30  1  0
 30 31  1  0
 31 32  1  0
 32 33  1  0
 33 34  1  0
 34 35  1  0
 35 36  1  0
 30 37  2  0
 25  4  1  0
 37 26  1  0
 24 13  1  0
 36 31  1  0
 23 18  1  0
  1 38  1  0
  1 39  1  0
  1 40  1  0
  3 41  1  0
  3 42  1  0
  5 43  1  0
  6 44  1  0
  7 45  1  0
 12 46  1  0
 12 47  1  0
 14 48  1  0
 15 49  1  0
 16 50  1  0
 19 51  1  0
 19 52  1  0
 20 53  1  0
 20 54  1  0
 22 55  1  0
 22 56  1  0
 23 57  1  0
 23 58  1  0
 24 59  1  0
 25 60  1  0
 27 61  1  0
 28 62  1  0
 29 63  1  0
 32 64  1  0
 32 65  1  0
 33 66  1  0
 33 67  1  0
 35 68  1  0
 35 69  1  0
 36 70  1  0
 36 71  1  0
 37 72  1  0
M  CHG  1  11  -1
M  END
>  <UniqueID>  (90) 
86

>  <SMILES>  (90) 
CN(Cc1cccc(C(=O)[N-]Cc2cccc(N3CCOCC3)c2)c1)c1cccc(N2CCOCC2)c1

>  <Energy>  (90) 
92.47193480435863

>  <Genealogy>  (90) 
CN(Cc1cccc(C(=O)[N-]Cc2cccc(N3CCOCC3)c2)c1)c1cccc(N2CCOCC2)c1 (protonated)
CN(Cc1cccc(C(=O)[N-]Cc2cccc(N3CCOCC3)c2)c1)c1cccc(N2CCOCC2)c1 (3D coordinates assigned)
CN(Cc1cccc(C(=O)[N-]Cc2cccc(N3CCOCC3)c2)c1)c1cccc(N2CCOCC2)c1 (nonaromatic ring conformer: 92.47193480435863 kcal/mol)

>  <smiles>  (90) 
CN(Cc1cccc(C(=O)NCc2cccc(N3CCOCC3)c2)c1)c1cccc(N2CCOCC2)c1

>  <score_type>  (90) 
oracle

>  <origin>  (90) 
adg

>  <m_score__min__energy>  (90) 
-11.4

>  <m_primary>  (90) 
energy

$$$$
90:0
     RDKit          3D

 37 39  0  0  0  0  0  0  0  0999 V2000
   57.0320   24.5070   43.6590 C   0  0  0  0  0  0  0  0  0  0  0  0
   56.8460   24.0060   45.0620 C   0  0  0  0  0  0  0  0  0  0  0  0
   56.3820   24.7210   46.1570 C   0  0  0  0  0  0  0  0  0  0  0  0
   55.8940   26.1100   46.1700 C   0  0  0  0  0  0  0  0  0  0  0  0
   54.6710   26.3290   45.9810 O   0  0  0  0  0  0  0  0  0  0  0  0
   56.7800   27.2200   46.3480 N   0  0  0  0  0  0  0  0  0  0  0  0
   58.2370   27.1150   46.3240 C   0  0  0  0  0  0  0  0  0  0  0  0
   58.8690   28.4430   46.6710 C   0  0  0  0  0  0  0  0  0  0  0  0
   59.7560   28.5130   47.7630 C   0  0  0  0  0  0  0  0  0  0  0  0
   60.4000   29.7080   48.0850 C   0  0  0  0  0  0  0  0  0  0  0  0
   60.1600   30.8570   47.3300 C   0  0  0  0  0  0  0  0  0  0  0  0
   60.9800   32.3550   47.7300 Cl  0  0  0  0  0  0  0  0  0  0  0  0
   59.2550   30.8180   46.2680 C   0  0  0  0  0  0  0  0  0  0  0  0
   58.5830   29.6280   45.9410 C   0  0  0  0  0  0  0  0  0  0  0  0
   57.5990   29.6490   44.8940 N   0  0  0  0  0  0  0  0  0  0  0  0
   57.6290   28.9540   43.7440 C   0  0  0  0  0  0  0  0  0  0  0  0
   56.5750   29.2590   42.9630 N   0  0  0  0  0  0  0  0  0  0  0  0
   55.9220   30.1830   43.7030 C   0  0  0  0  0  0  0  0  0  0  0  0
   56.5380   30.4360   44.8730 N   0  0  0  0  0  0  0  0  0  0  0  0
   56.5030   23.9760   47.2750 N   0  0  0  0  0  0  0  0  0  0  0  0
   57.0160   22.8110   46.8270 C   0  0  0  0  0  0  0  0  0  0  0  0
   57.2890   21.8470   47.5910 O   0  0  0  0  0  0  0  0  0  0  0  0
   57.2210   22.7870   45.4930 N   0  0  0  0  0  0  0  0  0  0  0  0
   57.8670   21.7280   44.7200 C   0  0  0  0  0  0  0  0  0  0  0  0
   57.4147   25.5379   43.6855 H   0  0  0  0  0  0  0  0  0  0  0  0
   57.7508   23.8625   43.1318 H   0  0  0  0  0  0  0  0  0  0  0  0
   56.0668   24.4877   43.1318 H   0  0  0  0  0  0  0  0  0  0  0  0
   58.5576   26.3592   47.0561 H   0  0  0  0  0  0  0  0  0  0  0  0
   58.5560   26.8226   45.3127 H   0  0  0  0  0  0  0  0  0  0  0  0
   59.9432   27.6145   48.3693 H   0  0  0  0  0  0  0  0  0  0  0  0
   61.0976   29.7446   48.9347 H   0  0  0  0  0  0  0  0  0  0  0  0
   59.0658   31.7287   45.6807 H   0  0  0  0  0  0  0  0  0  0  0  0
   58.4126   28.2302   43.4756 H   0  0  0  0  0  0  0  0  0  0  0  0
   54.9905   30.6737   43.3844 H   0  0  0  0  0  0  0  0  0  0  0  0
   58.3147   20.9941   45.4063 H   0  0  0  0  0  0  0  0  0  0  0  0
   57.1195   21.2287   44.0860 H   0  0  0  0  0  0  0  0  0  0  0  0
   58.6530   22.1642   44.0860 H   0  0  0  0  0  0  0  0  0  0  0  0
  1  2  1  0
  2  3  2  0
  3  4  1  0
  4  5  2  0
  4  6  1  0
  6  7  1  0
  7  8  1  0
  8  9  2  0
  9 10  1  0
 10 11  2  0
 11 12  1  0
 11 13  1  0
 13 14  2  0
 14 15  1  0
 15 16  1  0
 16 17  2  0
 17 18  1  0
 18 19  2  0
  3 20  1  0
 20 21  1  0
 21 22  2  0
 21 23  1  0
 23 24  1  0
 23  2  1  0
 14  8  1  0
 19 15  1  0
  1 25  1  0
  1 26  1  0
  1 27  1  0
  7 28  1  0
  7 29  1  0
  9 30  1  0
 10 31  1  0
 13 32  1  0
 16 33  1  0
 18 34  1  0
 24 35  1  0
 24 36  1  0
 24 37  1  0
M  CHG  2   6  -1  20  -1
M  END
>  <UniqueID>  (91) 
87

>  <SMILES>  (91) 
Cc1c(C(=O)[N-]Cc2ccc(Cl)cc2-n2cncn2)[n-]c(=O)n1C

>  <Energy>  (91) 
112.37042784922788

>  <Genealogy>  (91) 
Cc1c(C(=O)[N-]Cc2ccc(Cl)cc2-n2cncn2)[n-]c(=O)n1C (protonated)
Cc1c(C(=O)[N-]Cc2ccc(Cl)cc2-n2cncn2)[n-]c(=O)n1C (3D coordinates assigned)
Cc1c(C(=O)[N-]Cc2ccc(Cl)cc2-n2cncn2)[n-]c(=O)n1C (optimized conformer: 112.37042784922788 kcal/mol)

>  <smiles>  (91) 
Cc1c(C(=O)NCc2ccc(Cl)cc2-n2cncn2)[nH]c(=O)n1C

>  <score_type>  (91) 
oracle

>  <origin>  (91) 
adg

>  <m_score__min__energy>  (91) 
-10.91

>  <m_primary>  (91) 
energy

$$$$
91:0
     RDKit          3D

 40 42  0  0  0  0  0  0  0  0999 V2000
   56.4360   29.3210   42.6640 O   0  0  0  0  0  0  0  0  0  0  0  0
   56.5530   29.6440   43.8750 C   0  0  0  0  0  0  0  0  0  0  0  0
   56.0700   28.7370   44.8770 N   0  0  0  0  0  0  0  0  0  0  0  0
   56.8290   27.7030   45.5220 C   0  0  0  0  0  0  0  0  0  0  0  0
   58.2290   27.7880   45.6450 C   0  0  0  0  0  0  0  0  0  0  0  0
   58.9410   26.7690   46.2850 C   0  0  0  0  0  0  0  0  0  0  0  0
   58.2650   25.6700   46.8190 C   0  0  0  0  0  0  0  0  0  0  0  0
   56.8740   25.5910   46.7220 C   0  0  0  0  0  0  0  0  0  0  0  0
   56.1550   26.6060   46.0800 C   0  0  0  0  0  0  0  0  0  0  0  0
   54.7700   26.5170   45.9930 O   0  0  0  0  0  0  0  0  0  0  0  0
   57.2300   30.9150   44.2260 C   0  0  0  0  0  0  0  0  0  0  0  0
   57.3600   31.9310   43.2670 C   0  0  0  0  0  0  0  0  0  0  0  0
   57.9910   33.1330   43.5910 C   0  0  0  0  0  0  0  0  0  0  0  0
   58.5110   33.3380   44.8730 C   0  0  0  0  0  0  0  0  0  0  0  0
   59.2850   34.8800   45.2200 Cl  0  0  0  0  0  0  0  0  0  0  0  0
   58.4060   32.3200   45.8420 C   0  0  0  0  0  0  0  0  0  0  0  0
   59.0670   32.5330   47.4680 S   0  0  0  0  0  0  0  0  0  0  0  0
   57.9980   33.1060   48.3550 O   0  0  0  0  0  0  0  0  0  0  0  0
   59.5150   31.2190   48.0460 O   0  0  0  0  0  0  0  0  0  0  0  0
   60.4150   33.6220   47.4240 N   0  0  0  0  0  0  0  0  0  0  0  0
   61.7100   33.3630   47.9850 C   0  0  0  0  0  0  0  0  0  0  0  0
   62.8920   33.5420   47.2420 C   0  0  0  0  0  0  0  0  0  0  0  0
   64.1360   33.2850   47.8250 C   0  0  0  0  0  0  0  0  0  0  0  0
   64.2130   32.8470   49.1490 C   0  0  0  0  0  0  0  0  0  0  0  0
   63.0460   32.6620   49.8930 C   0  0  0  0  0  0  0  0  0  0  0  0
   61.7930   32.9180   49.3140 C   0  0  0  0  0  0  0  0  0  0  0  0
   60.6280   32.7340   50.0580 O   0  0  0  0  0  0  0  0  0  0  0  0
   57.7720   31.1140   45.5070 C   0  0  0  0  0  0  0  0  0  0  0  0
   58.7639   28.6581   45.2366 H   0  0  0  0  0  0  0  0  0  0  0  0
   60.0360   26.8332   46.3680 H   0  0  0  0  0  0  0  0  0  0  0  0
   58.8281   24.8664   47.3161 H   0  0  0  0  0  0  0  0  0  0  0  0
   56.3422   24.7290   47.1512 H   0  0  0  0  0  0  0  0  0  0  0  0
   56.9619   31.7791   42.2529 H   0  0  0  0  0  0  0  0  0  0  0  0
   58.0800   33.9248   42.8326 H   0  0  0  0  0  0  0  0  0  0  0  0
   62.8365   33.8855   46.1985 H   0  0  0  0  0  0  0  0  0  0  0  0
   65.0564   33.4280   47.2398 H   0  0  0  0  0  0  0  0  0  0  0  0
   65.1936   32.6477   49.6059 H   0  0  0  0  0  0  0  0  0  0  0  0
   63.1086   32.3150   50.9349 H   0  0  0  0  0  0  0  0  0  0  0  0
   59.7170   32.6990   49.6160 H   0  0  0  0  0  0  0  0  0  0  0  0
   57.6982   30.3132   46.2576 H   0  0  0  0  0  0  0  0  0  0  0  0
  1  2  2  0
  2  3  1  0
  3  4  1  0
  4  5  2  0
  5  6  1  0
  6  7  2  0
  7  8  1  0
  8  9  2  0
  9 10  1  0
  2 11  1  0
 11 12  2  0
 12 13  1  0
 13 14  2  0
 14 15  1  0
 14 16  1  0
 16 17  1  0
 17 18  2  0
 17 19  2  0
 17 20  1  0
 20 21  1  0
 21 22  2  0
 22 23  1  0
 23 24  2  0
 24 25  1  0
 25 26  2  0
 26 27  1  0
 16 28  2  0
  9  4  1  0
 28 11  1  0
 26 21  1  0
  5 29  1  0
  6 30  1  0
  7 31  1  0
  8 32  1  0
 12 33  1  0
 13 34  1  0
 22 35  1  0
 23 36  1  0
 24 37  1  0
 25 38  1  0
 27 39  1  0
 28 40  1  0
M  CHG  3   3  -1  10  -1  20  -1
M  END
>  <UniqueID>  (92) 
88

>  <SMILES>  (92) 
O=C([N-]c1ccccc1[O-])c1ccc(Cl)c(S(=O)(=O)[N-]c2ccccc2O)c1

>  <Energy>  (92) 
54.06521081734029

>  <Genealogy>  (92) 
O=C([N-]c1ccccc1[O-])c1ccc(Cl)c(S(=O)(=O)[N-]c2ccccc2O)c1 (protonated)
O=C([N-]c1ccccc1[O-])c1ccc(Cl)c(S(=O)(=O)[N-]c2ccccc2O)c1 (3D coordinates assigned)
O=C([N-]c1ccccc1[O-])c1ccc(Cl)c(S(=O)(=O)[N-]c2ccccc2O)c1 (optimized conformer: 54.06521081734029 kcal/mol)

>  <smiles>  (92) 
O=C(Nc1ccccc1O)c1ccc(Cl)c(S(=O)(=O)Nc2ccccc2O)c1

>  <score_type>  (92) 
oracle

>  <origin>  (92) 
adg

>  <m_score__min__energy>  (92) 
-15.279999999999999

>  <m_primary>  (92) 
energy

$$$$
