0:0
     RDKit          3D

 45 46  0  0  0  0  0  0  0  0999 V2000
   55.1380   28.6230   45.6750 H   0  0  0  0  0  0  0  0  0  0  0  0
   55.2350   29.3380   44.9190 N   0  0  0  0  0  0  0  0  0  0  0  0
   56.4830   29.9860   44.6820 C   0  0  0  0  0  0  0  0  0  0  0  0
   56.5550   30.8970   43.8150 O   0  0  0  0  0  0  0  0  0  0  0  0
   57.6690   29.6040   45.4710 C   0  0  0  0  0  0  0  0  0  0  0  0
   57.6600   28.5150   46.1040 O   0  0  0  0  0  0  0  0  0  0  0  0
   58.8450   30.4870   45.6090 C   0  0  0  0  0  0  0  0  0  0  0  0
   59.8384   30.0326   45.4797 H   0  0  0  0  0  0  0  0  0  0  0  0
   58.7960   31.8010   45.8800 C   0  0  0  0  0  0  0  0  0  0  0  0
   58.4219   32.4693   45.0904 H   0  0  0  0  0  0  0  0  0  0  0  0
   59.2070   32.4180   47.1600 C   0  0  0  0  0  0  0  0  0  0  0  0
   60.3990   33.1490   47.2680 C   0  0  0  0  0  0  0  0  0  0  0  0
   61.0420   33.2801   46.3852 H   0  0  0  0  0  0  0  0  0  0  0  0
   60.7740   33.7110   48.4890 C   0  0  0  0  0  0  0  0  0  0  0  0
   61.7089   34.2860   48.5624 H   0  0  0  0  0  0  0  0  0  0  0  0
   59.9620   33.5460   49.6280 C   0  0  0  0  0  0  0  0  0  0  0  0
   60.2990   34.1080   50.8690 O   0  0  0  0  0  0  0  0  0  0  0  0
   61.0600   33.4450   51.8750 C   0  0  0  0  0  0  0  0  0  0  0  0
   60.7038   33.7553   52.8684 H   0  0  0  0  0  0  0  0  0  0  0  0
   60.9418   32.3568   51.7666 H   0  0  0  0  0  0  0  0  0  0  0  0
   62.1218   33.7111   51.7666 H   0  0  0  0  0  0  0  0  0  0  0  0
   58.7760   32.8040   49.5310 C   0  0  0  0  0  0  0  0  0  0  0  0
   57.9790   32.6730   50.6820 O   0  0  0  0  0  0  0  0  0  0  0  0
   58.1720   31.7050   51.7140 C   0  0  0  0  0  0  0  0  0  0  0  0
   59.1542   31.2279   51.5812 H   0  0  0  0  0  0  0  0  0  0  0  0
   58.1208   32.2143   52.6877 H   0  0  0  0  0  0  0  0  0  0  0  0
   57.1060   30.6540   51.6670 C   0  0  0  0  0  0  0  0  0  0  0  0
   57.4100   29.4710   51.3540 O   0  0  0  0  0  0  0  0  0  0  0  0
   55.7570   30.9920   52.0050 N   0  0  0  0  0  0  0  0  0  0  0  0
   54.6610   30.0300   52.0140 C   0  0  0  0  0  0  0  0  0  0  0  0
   54.6791   29.4508   51.0790 H   0  0  0  0  0  0  0  0  0  0  0  0
   54.7823   29.3581   52.8764 H   0  0  0  0  0  0  0  0  0  0  0  0
   53.3410   30.7420   52.1310 C   0  0  0  0  0  0  0  0  0  0  0  0
   52.6640   30.7990   53.3610 C   0  0  0  0  0  0  0  0  0  0  0  0
   53.0937   30.3072   54.2462 H   0  0  0  0  0  0  0  0  0  0  0  0
   51.4470   31.4780   53.4640 C   0  0  0  0  0  0  0  0  0  0  0  0
   50.9198   31.5160   54.4287 H   0  0  0  0  0  0  0  0  0  0  0  0
   50.8980   32.1090   52.3440 C   0  0  0  0  0  0  0  0  0  0  0  0
   49.9391   32.6415   52.4274 H   0  0  0  0  0  0  0  0  0  0  0  0
   51.5680   32.0630   51.1180 C   0  0  0  0  0  0  0  0  0  0  0  0
   51.0240   32.6940   50.0050 O   0  0  0  0  0  0  0  0  0  0  0  0
   52.7870   31.3830   51.0100 C   0  0  0  0  0  0  0  0  0  0  0  0
   53.3128   31.3504   50.0444 H   0  0  0  0  0  0  0  0  0  0  0  0
   58.4160   32.2230   48.2980 C   0  0  0  0  0  0  0  0  0  0  0  0
   57.5048   31.6106   48.2297 H   0  0  0  0  0  0  0  0  0  0  0  0
  1  2  1  0
  2  3  1  0
  3  4  2  0
  3  5  1  0
  5  6  2  0
  5  7  1  0
  7  8  1  0
  7  9  2  0
  9 10  1  0
  9 11  1  0
 11 12  2  0
 12 13  1  0
 12 14  1  0
 14 15  1  0
 14 16  2  0
 16 17  1  0
 17 18  1  0
 18 19  1  0
 18 20  1  0
 18 21  1  0
 16 22  1  0
 22 23  1  0
 23 24  1  0
 24 25  1  0
 24 26  1  0
 24 27  1  0
 27 28  2  0
 27 29  1  0
 29 30  1  0
 30 31  1  0
 30 32  1  0
 30 33  1  0
 33 34  2  0
 34 35  1  0
 34 36  1  0
 36 37  1  0
 36 38  2  0
 38 39  1  0
 38 40  1  0
 40 41  1  0
 40 42  2  0
 42 43  1  0
 22 44  2  0
 44 45  1  0
 44 11  1  0
 42 33  1  0
M  CHG  3   2  -1  29  -1  41  -1
M  END
>  <UniqueID>  (1) 
1

>  <SMILES>  (1) 
COc1ccc(/C=C\C(=O)C([NH-])=O)cc1OCC(=O)[N-]Cc1cccc([O-])c1

>  <Energy>  (1) 
49.63847696401262

>  <Genealogy>  (1) 
COc1ccc(C=CC(=O)C([NH-])=O)cc1OCC(=O)[N-]Cc1cccc([O-])c1 (protonated)
COc1ccc(/C=C\C(=O)C([NH-])=O)cc1OCC(=O)[N-]Cc1cccc([O-])c1 (cis-trans isomerization)
COc1ccc(/C=C\C(=O)C([NH-])=O)cc1OCC(=O)[N-]Cc1cccc([O-])c1 (3D coordinates assigned)
COc1ccc(/C=C\C(=O)C([NH-])=O)cc1OCC(=O)[N-]Cc1cccc([O-])c1 (optimized conformer: 49.63847696401262 kcal/mol)

>  <smiles>  (1) 
COc1ccc(C=CC(=O)C(N)=O)cc1OCC(=O)NCc1cccc(O)c1

>  <score_type>  (1) 
oracle

>  <origin>  (1) 
adg

>  <m_score__min__energy>  (1) 
-16

>  <m_primary>  (1) 
energy

$$$$
1:0
     RDKit          3D

 39 41  0  0  0  0  0  0  0  0999 V2000
   57.3400   34.1340   44.9840 C   0  0  0  0  0  0  0  0  0  0  0  0
   57.6260   33.1480   43.9980 O   0  0  0  0  0  0  0  0  0  0  0  0
   57.5960   31.7640   44.2260 C   0  0  0  0  0  0  0  0  0  0  0  0
   58.8100   31.0740   44.2820 C   0  0  0  0  0  0  0  0  0  0  0  0
   58.8340   29.6950   44.5050 C   0  0  0  0  0  0  0  0  0  0  0  0
   57.6360   28.9820   44.6590 C   0  0  0  0  0  0  0  0  0  0  0  0
   57.6600   27.5720   44.9110 N   0  0  0  0  0  0  0  0  0  0  0  0
   57.0630   26.9220   46.0410 C   0  0  0  0  0  0  0  0  0  0  0  0
   55.8280   26.6750   46.0180 O   0  0  0  0  0  0  0  0  0  0  0  0
   57.8850   26.4390   47.2040 C   0  0  0  0  0  0  0  0  0  0  0  0
   58.8530   27.4850   47.6570 C   0  0  0  0  0  0  0  0  0  0  0  0
   58.7230   28.7960   47.3640 N   0  0  0  0  0  0  0  0  0  0  0  0
   59.7290   29.5490   47.8870 C   0  0  0  0  0  0  0  0  0  0  0  0
   59.7620   31.0240   47.7090 C   0  0  0  0  0  0  0  0  0  0  0  0
   58.6700   31.8340   48.0780 C   0  0  0  0  0  0  0  0  0  0  0  0
   58.7220   33.2200   47.8930 C   0  0  0  0  0  0  0  0  0  0  0  0
   59.8610   33.8130   47.3420 C   0  0  0  0  0  0  0  0  0  0  0  0
   60.9510   33.0220   46.9790 C   0  0  0  0  0  0  0  0  0  0  0  0
   60.9070   31.6370   47.1650 C   0  0  0  0  0  0  0  0  0  0  0  0
   60.6800   28.8190   48.6090 C   0  0  0  0  0  0  0  0  0  0  0  0
   60.2300   27.2000   48.5760 S   0  0  0  0  0  0  0  0  0  0  0  0
   56.4120   29.6730   44.6350 C   0  0  0  0  0  0  0  0  0  0  0  0
   55.2000   29.0060   44.8210 O   0  0  0  0  0  0  0  0  0  0  0  0
   56.3930   31.0540   44.4090 C   0  0  0  0  0  0  0  0  0  0  0  0
   57.4665   33.6980   45.9860 H   0  0  0  0  0  0  0  0  0  0  0  0
   58.0289   34.9832   44.8640 H   0  0  0  0  0  0  0  0  0  0  0  0
   56.3037   34.4828   44.8640 H   0  0  0  0  0  0  0  0  0  0  0  0
   59.7549   31.6214   44.1494 H   0  0  0  0  0  0  0  0  0  0  0  0
   59.7969   29.1660   44.5601 H   0  0  0  0  0  0  0  0  0  0  0  0
   57.2130   26.1875   48.0378 H   0  0  0  0  0  0  0  0  0  0  0  0
   58.4547   25.5545   46.8829 H   0  0  0  0  0  0  0  0  0  0  0  0
   57.7710   31.3741   48.5142 H   0  0  0  0  0  0  0  0  0  0  0  0
   57.8639   33.8445   48.1821 H   0  0  0  0  0  0  0  0  0  0  0  0
   59.8980   34.9025   47.1947 H   0  0  0  0  0  0  0  0  0  0  0  0
   61.8475   33.4891   46.5453 H   0  0  0  0  0  0  0  0  0  0  0  0
   61.7740   31.0211   46.8840 H   0  0  0  0  0  0  0  0  0  0  0  0
   61.5673   29.2327   49.1106 H   0  0  0  0  0  0  0  0  0  0  0  0
   55.1430   27.9970   44.9060 H   0  0  0  0  0  0  0  0  0  0  0  0
   55.4323   31.5887   44.3740 H   0  0  0  0  0  0  0  0  0  0  0  0
  1  2  1  0
  2  3  1  0
  3  4  2  0
  4  5  1  0
  5  6  2  0
  6  7  1  0
  7  8  1  0
  8  9  2  0
  8 10  1  0
 10 11  1  0
 11 12  2  0
 12 13  1  0
 13 14  1  0
 14 15  2  0
 15 16  1  0
 16 17  2  0
 17 18  1  0
 18 19  2  0
 13 20  2  0
 20 21  1  0
  6 22  1  0
 22 23  1  0
 22 24  2  0
 24  3  1  0
 21 11  1  0
 19 14  1  0
  1 25  1  0
  1 26  1  0
  1 27  1  0
  4 28  1  0
  5 29  1  0
 10 30  1  0
 10 31  1  0
 15 32  1  0
 16 33  1  0
 17 34  1  0
 18 35  1  0
 19 36  1  0
 20 37  1  0
 23 38  1  0
 24 39  1  0
M  CHG  1   7  -1
M  END
>  <UniqueID>  (2) 
2

>  <SMILES>  (2) 
COc1ccc([N-]C(=O)Cc2nc(-c3ccccc3)cs2)c(O)c1

>  <Energy>  (2) 
75.59521148950255

>  <Genealogy>  (2) 
COc1ccc([N-]C(=O)Cc2nc(-c3ccccc3)cs2)c(O)c1 (protonated)
COc1ccc([N-]C(=O)Cc2nc(-c3ccccc3)cs2)c(O)c1 (3D coordinates assigned)
COc1ccc([N-]C(=O)Cc2nc(-c3ccccc3)cs2)c(O)c1 (optimized conformer: 75.59521148950255 kcal/mol)

>  <smiles>  (2) 
COc1ccc(NC(=O)Cc2nc(-c3ccccc3)cs2)c(O)c1

>  <score_type>  (2) 
oracle

>  <origin>  (2) 
adg

>  <m_score__min__energy>  (2) 
-11.369999999999999

>  <m_primary>  (2) 
energy

$$$$
2:0
     RDKit          3D

 45 48  0  0  0  0  0  0  0  0999 V2000
   54.7760   24.7620   46.3540 O   0  0  0  0  0  0  0  0  0  0  0  0
   55.7400   25.4770   45.9750 C   0  0  0  0  0  0  0  0  0  0  0  0
   57.0610   24.8480   45.6500 C   0  0  0  0  0  0  0  0  0  0  0  0
   58.3870   25.8340   46.4080 S   0  0  0  0  0  0  0  0  0  0  0  0
   57.9610   27.3430   45.5240 C   0  0  0  0  0  0  0  0  0  0  0  0
   58.9790   28.1410   44.9920 C   0  0  0  0  0  0  0  0  0  0  0  0
   58.6740   29.3710   44.4040 C   0  0  0  0  0  0  0  0  0  0  0  0
   57.3440   29.8250   44.3510 C   0  0  0  0  0  0  0  0  0  0  0  0
   57.0140   31.1370   43.7450 C   0  0  0  0  0  0  0  0  0  0  0  0
   56.7630   31.2020   42.5130 O   0  0  0  0  0  0  0  0  0  0  0  0
   57.0190   32.3500   44.5100 N   0  0  0  0  0  0  0  0  0  0  0  0
   57.7920   32.5970   45.6940 C   0  0  0  0  0  0  0  0  0  0  0  0
   58.1760   33.9100   45.9920 C   0  0  0  0  0  0  0  0  0  0  0  0
   58.9360   34.1820   47.1330 C   0  0  0  0  0  0  0  0  0  0  0  0
   59.3030   33.1450   48.0000 C   0  0  0  0  0  0  0  0  0  0  0  0
   60.3020   33.4840   49.4100 S   0  0  0  0  0  0  0  0  0  0  0  0
   59.6810   34.6010   50.2000 O   0  0  0  0  0  0  0  0  0  0  0  0
   60.3760   32.2620   50.2850 O   0  0  0  0  0  0  0  0  0  0  0  0
   61.8960   33.9590   48.8810 N   0  0  0  0  0  0  0  0  0  0  0  0
   62.0870   33.6880   47.4560 C   0  0  0  0  0  0  0  0  0  0  0  0
   63.5790   33.4810   47.2510 C   0  0  0  0  0  0  0  0  0  0  0  0
   64.1320   33.1470   48.6280 C   0  0  0  0  0  0  0  0  0  0  0  0
   62.9350   33.1900   49.5660 C   0  0  0  0  0  0  0  0  0  0  0  0
   58.9010   31.8320   47.7170 C   0  0  0  0  0  0  0  0  0  0  0  0
   58.1400   31.5600   46.5770 C   0  0  0  0  0  0  0  0  0  0  0  0
   56.3200   29.0000   44.8490 C   0  0  0  0  0  0  0  0  0  0  0  0
   56.6210   27.7580   45.4190 C   0  0  0  0  0  0  0  0  0  0  0  0
   55.5530   26.8860   45.8060 N   0  0  0  0  0  0  0  0  0  0  0  0
   57.0896   23.8230   46.0483 H   0  0  0  0  0  0  0  0  0  0  0  0
   57.1990   24.8149   44.5592 H   0  0  0  0  0  0  0  0  0  0  0  0
   60.0235   27.7989   45.0367 H   0  0  0  0  0  0  0  0  0  0  0  0
   59.4794   29.9884   43.9797 H   0  0  0  0  0  0  0  0  0  0  0  0
   57.8779   34.7320   45.3245 H   0  0  0  0  0  0  0  0  0  0  0  0
   59.2471   35.2144   47.3509 H   0  0  0  0  0  0  0  0  0  0  0  0
   61.5343   32.7828   47.1641 H   0  0  0  0  0  0  0  0  0  0  0  0
   61.7128   34.5189   46.8399 H   0  0  0  0  0  0  0  0  0  0  0  0
   63.7602   32.6515   46.5517 H   0  0  0  0  0  0  0  0  0  0  0  0
   64.0608   34.3715   46.8210 H   0  0  0  0  0  0  0  0  0  0  0  0
   64.5850   32.1446   48.6279 H   0  0  0  0  0  0  0  0  0  0  0  0
   64.9178   33.8528   48.9352 H   0  0  0  0  0  0  0  0  0  0  0  0
   62.5783   32.1703   49.7734 H   0  0  0  0  0  0  0  0  0  0  0  0
   63.2011   33.6513   50.5285 H   0  0  0  0  0  0  0  0  0  0  0  0
   59.1855   31.0134   48.3945 H   0  0  0  0  0  0  0  0  0  0  0  0
   57.8121   30.5307   46.3698 H   0  0  0  0  0  0  0  0  0  0  0  0
   55.2735   29.3338   44.7900 H   0  0  0  0  0  0  0  0  0  0  0  0
  1  2  2  0
  2  3  1  0
  3  4  1  0
  4  5  1  0
  5  6  2  0
  6  7  1  0
  7  8  2  0
  8  9  1  0
  9 10  2  0
  9 11  1  0
 11 12  1  0
 12 13  2  0
 13 14  1  0
 14 15  2  0
 15 16  1  0
 16 17  2  0
 16 18  2  0
 16 19  1  0
 19 20  1  0
 20 21  1  0
 21 22  1  0
 22 23  1  0
 15 24  1  0
 24 25  2  0
  8 26  1  0
 26 27  2  0
 27 28  1  0
 28  2  1  0
 27  5  1  0
 25 12  1  0
 23 19  1  0
  3 29  1  0
  3 30  1  0
  6 31  1  0
  7 32  1  0
 13 33  1  0
 14 34  1  0
 20 35  1  0
 20 36  1  0
 21 37  1  0
 21 38  1  0
 22 39  1  0
 22 40  1  0
 23 41  1  0
 23 42  1  0
 24 43  1  0
 25 44  1  0
 26 45  1  0
M  CHG  2  11  -1  28  -1
M  END
>  <UniqueID>  (3) 
3

>  <SMILES>  (3) 
O=C1CSc2ccc(C(=O)[N-]c3ccc(S(=O)(=O)N4CCCC4)cc3)cc2[N-]1

>  <Energy>  (3) 
59.17665950933897

>  <Genealogy>  (3) 
O=C1CSc2ccc(C(=O)[N-]c3ccc(S(=O)(=O)N4CCCC4)cc3)cc2[N-]1 (protonated)
O=C1CSc2ccc(C(=O)[N-]c3ccc(S(=O)(=O)N4CCCC4)cc3)cc2[N-]1 (3D coordinates assigned)
O=C1CSc2ccc(C(=O)[N-]c3ccc(S(=O)(=O)N4CCCC4)cc3)cc2[N-]1 (nonaromatic ring conformer: 59.17665950933897 kcal/mol)

>  <smiles>  (3) 
O=C1CSc2ccc(C(=O)Nc3ccc(S(=O)(=O)N4CCCC4)cc3)cc2N1

>  <score_type>  (3) 
oracle

>  <origin>  (3) 
adg

>  <m_score__min__energy>  (3) 
-12.960000000000001

>  <m_primary>  (3) 
energy

$$$$
3:0
     RDKit          3D

 65 67  0  0  0  0  0  0  0  0999 V2000
   59.6490   36.0960   46.6580 C   0  0  0  0  0  0  0  0  0  0  0  0
   59.2270   34.7530   46.1330 C   0  0  0  0  0  0  0  0  0  0  0  0
   59.2330   34.5040   44.7520 C   0  0  0  0  0  0  0  0  0  0  0  0
   58.8160   33.2650   44.2560 C   0  0  0  0  0  0  0  0  0  0  0  0
   58.3800   32.2640   45.1360 C   0  0  0  0  0  0  0  0  0  0  0  0
   57.8110   30.7190   44.5100 S   0  0  0  0  0  0  0  0  0  0  0  0
   57.5900   30.8250   43.0270 O   0  0  0  0  0  0  0  0  0  0  0  0
   56.5070   30.3660   45.1700 O   0  0  0  0  0  0  0  0  0  0  0  0
   58.9740   29.4770   44.8310 N   0  0  0  0  0  0  0  0  0  0  0  0
   58.6770   28.4150   45.7390 C   0  0  0  0  0  0  0  0  0  0  0  0
   57.8130   27.3860   45.3400 C   0  0  0  0  0  0  0  0  0  0  0  0
   57.4510   26.3760   46.2430 C   0  0  0  0  0  0  0  0  0  0  0  0
   56.3400   25.1010   45.7550 S   0  0  0  0  0  0  0  0  0  0  0  0
   54.7260   25.7200   45.7270 N   0  0  0  0  0  0  0  0  0  0  0  0
   56.4160   23.9550   46.7270 O   0  0  0  0  0  0  0  0  0  0  0  0
   56.7150   24.6010   44.3870 O   0  0  0  0  0  0  0  0  0  0  0  0
   57.9840   26.3820   47.5390 C   0  0  0  0  0  0  0  0  0  0  0  0
   58.8550   27.4000   47.9370 C   0  0  0  0  0  0  0  0  0  0  0  0
   59.1950   28.4340   47.0460 C   0  0  0  0  0  0  0  0  0  0  0  0
   60.0840   29.4890   47.4500 N   0  0  0  0  0  0  0  0  0  0  0  0
   59.7270   30.4970   48.4110 C   0  0  0  0  0  0  0  0  0  0  0  0
   58.5720   30.5090   48.9180 O   0  0  0  0  0  0  0  0  0  0  0  0
   60.7660   31.5020   48.8570 C   0  0  1  0  0  0  0  0  0  0  0  0
   61.2310   31.2750   50.3220 C   0  0  0  0  0  0  0  0  0  0  0  0
   60.0910   31.3660   51.3560 C   0  0  0  0  0  0  0  0  0  0  0  0
   59.0520   32.8150   51.1530 S   0  0  0  0  0  0  0  0  0  0  0  0
   58.7390   33.6160   52.7150 C   0  0  0  0  0  0  0  0  0  0  0  0
   59.7010   33.7970   50.2220 O   0  0  0  0  0  0  0  0  0  0  0  0
   57.7380   32.3870   50.5630 O   0  0  0  0  0  0  0  0  0  0  0  0
   61.8830   31.5240   47.8770 N   0  0  0  0  0  0  0  0  0  0  0  0
   63.2580   31.5580   48.4360 C   0  0  0  0  0  0  0  0  0  0  0  0
   64.0080   32.8490   48.0760 C   0  0  0  0  0  0  0  0  0  0  0  0
   63.1110   33.9360   48.0390 O   0  0  0  0  0  0  0  0  0  0  0  0
   62.2680   33.8220   46.9040 C   0  0  0  0  0  0  0  0  0  0  0  0
   61.6770   32.4050   46.7060 C   0  0  0  0  0  0  0  0  0  0  0  0
   58.3440   32.5210   46.5140 C   0  0  0  0  0  0  0  0  0  0  0  0
   58.7630   33.7610   47.0100 C   0  0  0  0  0  0  0  0  0  0  0  0
   59.6434   36.0780   47.7578 H   0  0  0  0  0  0  0  0  0  0  0  0
   60.6631   36.3274   46.3003 H   0  0  0  0  0  0  0  0  0  0  0  0
   58.9495   36.8659   46.3003 H   0  0  0  0  0  0  0  0  0  0  0  0
   59.5675   35.2875   44.0561 H   0  0  0  0  0  0  0  0  0  0  0  0
   58.8300   33.0750   43.1726 H   0  0  0  0  0  0  0  0  0  0  0  0
   57.4171   27.3706   44.3138 H   0  0  0  0  0  0  0  0  0  0  0  0
   54.7770   26.7020   45.3640 H   0  0  0  0  0  0  0  0  0  0  0  0
   57.7159   25.5827   48.2456 H   0  0  0  0  0  0  0  0  0  0  0  0
   59.2770   27.3926   48.9528 H   0  0  0  0  0  0  0  0  0  0  0  0
   60.9600   29.6320   46.9030 H   0  0  0  0  0  0  0  0  0  0  0  0
   60.3083   32.5022   48.8713 H   0  0  0  0  0  0  0  0  0  0  0  0
   61.6837   30.2749   50.3915 H   0  0  0  0  0  0  0  0  0  0  0  0
   61.9453   32.0769   50.5601 H   0  0  0  0  0  0  0  0  0  0  0  0
   59.4608   30.4697   51.2588 H   0  0  0  0  0  0  0  0  0  0  0  0
   60.5602   31.4415   52.3480 H   0  0  0  0  0  0  0  0  0  0  0  0
   59.0053   32.9345   53.5364 H   0  0  0  0  0  0  0  0  0  0  0  0
   59.3459   34.5307   52.7861 H   0  0  0  0  0  0  0  0  0  0  0  0
   57.6728   33.8769   52.7861 H   0  0  0  0  0  0  0  0  0  0  0  0
   63.1954   31.4803   49.5315 H   0  0  0  0  0  0  0  0  0  0  0  0
   63.8160   30.7154   48.0018 H   0  0  0  0  0  0  0  0  0  0  0  0
   64.7831   33.0424   48.8322 H   0  0  0  0  0  0  0  0  0  0  0  0
   64.4724   32.7315   47.0858 H   0  0  0  0  0  0  0  0  0  0  0  0
   61.4358   34.5324   47.0170 H   0  0  0  0  0  0  0  0  0  0  0  0
   62.8877   34.0375   46.0211 H   0  0  0  0  0  0  0  0  0  0  0  0
   60.5963   32.4983   46.5233 H   0  0  0  0  0  0  0  0  0  0  0  0
   62.1994   31.9467   45.8534 H   0  0  0  0  0  0  0  0  0  0  0  0
   57.9854   31.7458   47.2072 H   0  0  0  0  0  0  0  0  0  0  0  0
   58.7284   33.9585   48.0916 H   0  0  0  0  0  0  0  0  0  0  0  0
  1  2  1  0
  2  3  2  0
  3  4  1  0
  4  5  2  0
  5  6  1  0
  6  7  2  0
  6  8  2  0
  6  9  1  0
  9 10  1  0
 10 11  2  0
 11 12  1  0
 12 13  1  0
 13 14  1  0
 13 15  2  0
 13 16  2  0
 12 17  2  0
 17 18  1  0
 18 19  2  0
 19 20  1  0
 20 21  1  0
 21 22  2  0
 21 23  1  0
 23 24  1  0
 24 25  1  0
 25 26  1  0
 26 27  1  0
 26 28  2  0
 26 29  2  0
 23 30  1  0
 30 31  1  0
 31 32  1  0
 32 33  1  0
 33 34  1  0
 34 35  1  0
  5 36  1  0
 36 37  2  0
 37  2  1  0
 19 10  1  0
 35 30  1  0
  1 38  1  0
  1 39  1  0
  1 40  1  0
  3 41  1  0
  4 42  1  0
 11 43  1  0
 14 44  1  0
 17 45  1  0
 18 46  1  0
 20 47  1  0
 23 48  1  1
 24 49  1  0
 24 50  1  0
 25 51  1  0
 25 52  1  0
 27 53  1  0
 27 54  1  0
 27 55  1  0
 31 56  1  0
 31 57  1  0
 32 58  1  0
 32 59  1  0
 34 60  1  0
 34 61  1  0
 35 62  1  0
 35 63  1  0
 36 64  1  0
 37 65  1  0
M  CHG  2   9  -1  14  -1
M  END
>  <UniqueID>  (4) 
4

>  <SMILES>  (4) 
Cc1ccc(S(=O)(=O)[N-]c2cc(S([NH-])(=O)=O)ccc2NC(=O)[C@@H](CCS(C)(=O)=O)N2CCOCC2)cc1

>  <Energy>  (4) 
84.19391892183295

>  <Genealogy>  (4) 
Cc1ccc(S(=O)(=O)[N-]c2cc(S([NH-])(=O)=O)ccc2NC(=O)C(CCS(C)(=O)=O)N2CCOCC2)cc1 (protonated)
Cc1ccc(S(=O)(=O)[N-]c2cc(S([NH-])(=O)=O)ccc2NC(=O)[C@@H](CCS(C)(=O)=O)N2CCOCC2)cc1 (chirality)
Cc1ccc(S(=O)(=O)[N-]c2cc(S([NH-])(=O)=O)ccc2NC(=O)[C@@H](CCS(C)(=O)=O)N2CCOCC2)cc1 (3D coordinates assigned)
Cc1ccc(S(=O)(=O)[N-]c2cc(S([NH-])(=O)=O)ccc2NC(=O)[C@@H](CCS(C)(=O)=O)N2CCOCC2)cc1 (nonaromatic ring conformer: 84.19391892183295 kcal/mol)

>  <smiles>  (4) 
Cc1ccc(S(=O)(=O)Nc2cc(S(N)(=O)=O)ccc2NC(=O)C(CCS(C)(=O)=O)N2CCOCC2)cc1

>  <score_type>  (4) 
oracle

>  <origin>  (4) 
adg

>  <m_score__min__energy>  (4) 
-14.25

>  <m_primary>  (4) 
energy

$$$$
4:0
     RDKit          3D

 51 55  0  0  0  0  0  0  0  0999 V2000
   59.2420   23.8820   45.7310 H   0  0  0  0  0  0  0  0  0  0  0  0
   59.6660   24.7510   46.0300 O   0  0  0  0  0  0  0  0  0  0  0  0
   58.9240   25.9270   46.1130 C   0  0  0  0  0  0  0  0  0  0  0  0
   59.5480   27.1860   46.2160 C   0  0  0  0  0  0  0  0  0  0  0  0
   60.6458   27.2488   46.2449 H   0  0  0  0  0  0  0  0  0  0  0  0
   58.7730   28.3760   46.2830 C   0  0  0  0  0  0  0  0  0  0  0  0
   59.4460   29.6960   46.3450 C   0  0  0  0  0  0  0  0  0  0  0  0
   58.7260   30.8770   46.0910 C   0  0  0  0  0  0  0  0  0  0  0  0
   57.6661   30.8184   45.8026 H   0  0  0  0  0  0  0  0  0  0  0  0
   59.3460   32.1240   46.2020 C   0  0  0  0  0  0  0  0  0  0  0  0
   58.7706   33.0399   46.0018 H   0  0  0  0  0  0  0  0  0  0  0  0
   60.6970   32.2160   46.5670 C   0  0  0  0  0  0  0  0  0  0  0  0
   61.3480   33.5690   46.7540 C   0  0  0  0  0  0  0  0  0  0  0  0
   61.9552   33.7853   45.8626 H   0  0  0  0  0  0  0  0  0  0  0  0
   60.5331   34.2928   46.9022 H   0  0  0  0  0  0  0  0  0  0  0  0
   62.2200   33.6650   47.9420 N   0  0  0  0  0  0  0  0  0  0  0  0
   63.5460   33.0460   47.7590 C   0  0  0  0  0  0  0  0  0  0  0  0
   63.4199   31.9798   47.5195 H   0  0  0  0  0  0  0  0  0  0  0  0
   64.0705   33.5548   46.9368 H   0  0  0  0  0  0  0  0  0  0  0  0
   64.3790   33.1840   49.0520 C   0  0  0  0  0  0  0  0  0  0  0  0
   64.4976   32.1911   49.5104 H   0  0  0  0  0  0  0  0  0  0  0  0
   65.3593   33.6099   48.7918 H   0  0  0  0  0  0  0  0  0  0  0  0
   63.7460   34.0470   49.9770 O   0  0  0  0  0  0  0  0  0  0  0  0
   62.5110   33.4880   50.3860 C   0  0  0  0  0  0  0  0  0  0  0  0
   62.7060   32.5448   50.9173 H   0  0  0  0  0  0  0  0  0  0  0  0
   62.0077   34.2148   51.0405 H   0  0  0  0  0  0  0  0  0  0  0  0
   61.5830   33.2020   49.1850 C   0  0  0  0  0  0  0  0  0  0  0  0
   61.3951   32.1202   49.1181 H   0  0  0  0  0  0  0  0  0  0  0  0
   60.6313   33.7353   49.3261 H   0  0  0  0  0  0  0  0  0  0  0  0
   61.4210   31.0380   46.8130 C   0  0  0  0  0  0  0  0  0  0  0  0
   62.4820   31.0979   47.0972 H   0  0  0  0  0  0  0  0  0  0  0  0
   60.8020   29.7900   46.6990 C   0  0  0  0  0  0  0  0  0  0  0  0
   61.3814   28.8742   46.8880 H   0  0  0  0  0  0  0  0  0  0  0  0
   57.3580   28.2870   46.2620 C   0  0  0  0  0  0  0  0  0  0  0  0
   56.7336   29.1907   46.3207 H   0  0  0  0  0  0  0  0  0  0  0  0
   56.7810   27.0230   46.1650 C   0  0  0  0  0  0  0  0  0  0  0  0
   55.4760   26.7170   46.0970 N   0  0  0  0  0  0  0  0  0  0  0  0
   55.5000   25.3650   45.9600 C   0  0  0  0  0  0  0  0  0  0  0  0
   54.4090   24.6700   45.8140 N   0  0  0  0  0  0  0  0  0  0  0  0
   54.2270   23.5840   44.8920 C   0  0  0  0  0  0  0  0  0  0  0  0
   53.0720   23.1730   44.5930 O   0  0  0  0  0  0  0  0  0  0  0  0
   55.3940   22.8940   44.3310 C   0  0  0  0  0  0  0  0  0  0  0  0
   56.3380   21.7770   45.1570 S   0  0  0  0  0  0  0  0  0  0  0  0
   57.3970   21.4600   43.8880 C   0  0  0  0  0  0  0  0  0  0  0  0
   58.2448   20.7597   43.9171 H   0  0  0  0  0  0  0  0  0  0  0  0
   57.0190   22.2320   42.7990 C   0  0  0  0  0  0  0  0  0  0  0  0
   57.5477   22.2110   41.8346 H   0  0  0  0  0  0  0  0  0  0  0  0
   55.9010   23.0410   43.0420 C   0  0  0  0  0  0  0  0  0  0  0  0
   55.4689   23.7211   42.2931 H   0  0  0  0  0  0  0  0  0  0  0  0
   56.7460   24.8170   45.9490 N   0  0  0  0  0  0  0  0  0  0  0  0
   57.5350   25.8920   46.0870 C   0  0  0  0  0  0  0  0  0  0  0  0
  1  2  1  0
  2  3  1  0
  3  4  2  0
  4  5  1  0
  4  6  1  0
  6  7  1  0
  7  8  2  0
  8  9  1  0
  8 10  1  0
 10 11  1  0
 10 12  2  0
 12 13  1  0
 13 14  1  0
 13 15  1  0
 13 16  1  0
 16 17  1  0
 17 18  1  0
 17 19  1  0
 17 20  1  0
 20 21  1  0
 20 22  1  0
 20 23  1  0
 23 24  1  0
 24 25  1  0
 24 26  1  0
 24 27  1  0
 27 28  1  0
 27 29  1  0
 12 30  1  0
 30 31  1  0
 30 32  2  0
 32 33  1  0
  6 34  2  0
 34 35  1  0
 34 36  1  0
 36 37  1  0
 37 38  1  0
 38 39  2  0
 39 40  1  0
 40 41  2  0
 40 42  1  0
 42 43  1  0
 43 44  1  0
 44 45  1  0
 44 46  2  0
 46 47  1  0
 46 48  1  0
 48 49  1  0
 38 50  1  0
 50 51  1  0
 51  3  1  0
 32  7  1  0
 51 36  2  0
 27 16  1  0
 48 42  2  0
M  CHG  2  37  -1  50  -1
M  END
>  <UniqueID>  (5) 
5

>  <SMILES>  (5) 
O=C(/N=c1/[n-]c2cc(-c3ccc(CN4CCOCC4)cc3)cc(O)c2[n-]1)c1cccs1

>  <Energy>  (5) 
135.93745036519536

>  <Genealogy>  (5) 
O=C(N=c1[n-]c2cc(-c3ccc(CN4CCOCC4)cc3)cc(O)c2[n-]1)c1cccs1 (protonated)
O=C(/N=c1/[n-]c2cc(-c3ccc(CN4CCOCC4)cc3)cc(O)c2[n-]1)c1cccs1 (cis-trans isomerization)
O=C(/N=c1/[n-]c2cc(-c3ccc(CN4CCOCC4)cc3)cc(O)c2[n-]1)c1cccs1 (3D coordinates assigned)
O=C(/N=c1/[n-]c2cc(-c3ccc(CN4CCOCC4)cc3)cc(O)c2[n-]1)c1cccs1 (nonaromatic ring conformer: 135.93745036519536 kcal/mol)

>  <smiles>  (5) 
O=C(N=c1[nH]c2cc(-c3ccc(CN4CCOCC4)cc3)cc(O)c2[nH]1)c1cccs1

>  <score_type>  (5) 
oracle

>  <origin>  (5) 
adg

>  <m_score__min__energy>  (5) 
-13.16

>  <m_primary>  (5) 
energy

$$$$
5:0
     RDKit          3D

 40 41  0  0  0  0  0  0  0  0999 V2000
   55.8190   29.5280   41.8710 H   0  0  0  0  0  0  0  0  0  0  0  0
   56.4170   29.9700   42.6040 N   0  0  0  0  0  0  0  0  0  0  0  0
   56.2210   29.7600   43.8680 C   0  0  0  0  0  0  0  0  0  0  0  0
   57.3420   29.9400   44.8240 C   0  0  0  0  0  0  0  0  0  0  0  0
   57.9610   31.1940   44.9840 C   0  0  0  0  0  0  0  0  0  0  0  0
   57.6133   32.0544   44.3933 H   0  0  0  0  0  0  0  0  0  0  0  0
   59.0140   31.3530   45.8880 C   0  0  0  0  0  0  0  0  0  0  0  0
   59.4859   32.3391   46.0105 H   0  0  0  0  0  0  0  0  0  0  0  0
   59.4700   30.2680   46.6360 C   0  0  0  0  0  0  0  0  0  0  0  0
   60.2914   30.4031   47.3550 H   0  0  0  0  0  0  0  0  0  0  0  0
   58.8830   29.0050   46.4730 C   0  0  0  0  0  0  0  0  0  0  0  0
   59.3520   27.8500   47.2740 C   0  0  0  0  0  0  0  0  0  0  0  0
   59.6600   26.6610   46.6850 C   0  0  0  0  0  0  0  0  0  0  0  0
   58.6820   25.5500   46.5590 C   0  0  0  0  0  0  0  0  0  0  0  0
   59.0980   24.3950   46.2670 O   0  0  0  0  0  0  0  0  0  0  0  0
   57.2860   25.7640   46.8100 N   0  0  0  0  0  0  0  0  0  0  0  0
   56.2770   24.9560   46.6290 C   0  0  0  0  0  0  0  0  0  0  0  0
   55.2640   25.3960   45.8320 N   0  0  0  0  0  0  0  0  0  0  0  0
   54.1100   24.7000   45.6610 C   0  0  0  0  0  0  0  0  0  0  0  0
   53.3272   25.0896   44.9936 H   0  0  0  0  0  0  0  0  0  0  0  0
   53.9170   23.4950   46.3290 C   0  0  0  0  0  0  0  0  0  0  0  0
   52.9635   22.9541   46.2375 H   0  0  0  0  0  0  0  0  0  0  0  0
   54.9460   22.9820   47.1150 C   0  0  0  0  0  0  0  0  0  0  0  0
   54.8033   22.0313   47.6496 H   0  0  0  0  0  0  0  0  0  0  0  0
   56.1600   23.6680   47.2290 C   0  0  0  0  0  0  0  0  0  0  0  0
   57.2200   23.0000   47.8430 O   0  0  0  0  0  0  0  0  0  0  0  0
   58.1570   22.9900   47.4630 H   0  0  0  0  0  0  0  0  0  0  0  0
   61.0550   26.3920   46.1680 C   0  0  0  0  0  0  0  0  0  0  0  0
   61.7416   26.2596   47.0172 H   0  0  0  0  0  0  0  0  0  0  0  0
   61.0492   25.4784   45.5553 H   0  0  0  0  0  0  0  0  0  0  0  0
   61.3893   27.2422   45.5553 H   0  0  0  0  0  0  0  0  0  0  0  0
   59.4450   28.0640   48.7640 C   0  0  0  0  0  0  0  0  0  0  0  0
   59.0592   27.1763   49.2867 H   0  0  0  0  0  0  0  0  0  0  0  0
   60.4955   28.2279   49.0460 H   0  0  0  0  0  0  0  0  0  0  0  0
   58.8481   28.9438   49.0460 H   0  0  0  0  0  0  0  0  0  0  0  0
   57.8160   28.8480   45.5750 C   0  0  0  0  0  0  0  0  0  0  0  0
   57.3451   27.8610   45.4568 H   0  0  0  0  0  0  0  0  0  0  0  0
   54.9270   29.3420   44.3190 N   0  0  0  0  0  0  0  0  0  0  0  0
   54.1260   29.2800   43.6530 H   0  0  0  0  0  0  0  0  0  0  0  0
   54.7700   29.0150   45.2980 H   0  0  0  0  0  0  0  0  0  0  0  0
  1  2  1  0
  2  3  2  0
  3  4  1  0
  4  5  2  0
  5  6  1  0
  5  7  1  0
  7  8  1  0
  7  9  2  0
  9 10  1  0
  9 11  1  0
 11 12  1  0
 12 13  2  3
 13 14  1  0
 14 15  2  0
 14 16  1  0
 16 17  2  3
 17 18  1  0
 18 19  1  0
 19 20  1  0
 19 21  2  0
 21 22  1  0
 21 23  1  0
 23 24  1  0
 23 25  2  0
 25 26  1  0
 26 27  1  0
 13 28  1  0
 28 29  1  0
 28 30  1  0
 28 31  1  0
 12 32  1  0
 32 33  1  0
 32 34  1  0
 32 35  1  0
 11 36  2  0
 36 37  1  0
  3 38  1  0
 38 39  1  0
 38 40  1  0
 36  4  1  0
 25 17  1  0
M  CHG  1  18  -1
M  END
>  <UniqueID>  (6) 
6

>  <SMILES>  (6) 
[H]/N=C(\N)c1cccc(C(C)=C(C)C(=O)N=c2[n-]cccc2O)c1

>  <Energy>  (6) 
70.68147277584966

>  <Genealogy>  (6) 
CC(C(=O)N=c1[n-]cccc1O)=C(C)c1cccc(C(=N)N)c1 (protonated)
[H]/N=C(\N)c1cccc(C(C)=C(C)C(=O)N=c2[n-]cccc2O)c1 (cis-trans isomerization)
[H]/N=C(\N)c1cccc(C(C)=C(C)C(=O)N=c2[n-]cccc2O)c1 (3D coordinates assigned)
[H]/N=C(\N)c1cccc(C(C)=C(C)C(=O)N=c2[n-]cccc2O)c1 (optimized conformer: 70.68147277584966 kcal/mol)

>  <smiles>  (6) 
CC(C(=O)N=c1[nH]cccc1O)=C(C)c1cccc(C(=N)N)c1

>  <score_type>  (6) 
oracle

>  <origin>  (6) 
adg

>  <m_score__min__energy>  (6) 
-9.8000000000000007

>  <m_primary>  (6) 
energy

$$$$
6:0
     RDKit          3D

 50 52  0  0  0  0  0  0  0  0999 V2000
   58.8700   30.7120   44.6230 O   0  0  0  0  0  0  0  0  0  0  0  0
   59.0830   29.8330   45.5050 C   0  0  0  0  0  0  0  0  0  0  0  0
   59.9560   30.1270   46.6050 N   0  0  0  0  0  0  0  0  0  0  0  0
   59.4770   30.5650   47.9130 C   0  0  0  0  0  0  0  0  0  0  0  0
   58.8390   31.9400   47.8480 C   0  0  0  0  0  0  0  0  0  0  0  0
   58.2060   32.3500   48.8130 O   0  0  0  0  0  0  0  0  0  0  0  0
   58.8990   32.7610   46.6490 N   0  0  0  0  0  0  0  0  0  0  0  0
   57.5670   33.2370   46.2270 C   0  0  0  0  0  0  0  0  0  0  0  0
   57.6810   34.0310   44.9050 C   0  0  0  0  0  0  0  0  0  0  0  0
   59.0130   34.4020   44.5930 O   0  0  0  0  0  0  0  0  0  0  0  0
   59.6460   34.9600   45.7290 C   0  0  0  0  0  0  0  0  0  0  0  0
   59.8250   33.8980   46.8370 C   0  0  0  0  0  0  0  0  0  0  0  0
   58.4260   28.5110   45.4060 C   0  0  0  0  0  0  0  0  0  0  0  0
   58.4350   27.7990   44.1930 C   0  0  0  0  0  0  0  0  0  0  0  0
   57.8020   26.5590   44.0910 C   0  0  0  0  0  0  0  0  0  0  0  0
   57.1410   26.0100   45.2010 C   0  0  0  0  0  0  0  0  0  0  0  0
   56.3300   24.4470   45.0730 S   0  0  0  0  0  0  0  0  0  0  0  0
   55.1480   24.4570   46.0010 O   0  0  0  0  0  0  0  0  0  0  0  0
   55.8120   24.2840   43.6700 O   0  0  0  0  0  0  0  0  0  0  0  0
   57.3650   23.0970   45.5110 N   0  0  0  0  0  0  0  0  0  0  0  0
   56.5980   21.9890   46.1100 C   0  0  0  0  0  0  0  0  0  0  0  0
   55.9820   21.0540   45.0420 C   0  0  0  0  0  0  0  0  0  0  0  0
   56.0460   21.6220   43.7490 O   0  0  0  0  0  0  0  0  0  0  0  0
   57.3970   21.7930   43.3670 C   0  0  0  0  0  0  0  0  0  0  0  0
   58.2030   22.6170   44.3970 C   0  0  0  0  0  0  0  0  0  0  0  0
   57.1280   26.7100   46.4130 C   0  0  0  0  0  0  0  0  0  0  0  0
   57.7710   27.9480   46.5180 C   0  0  0  0  0  0  0  0  0  0  0  0
   58.7316   29.8436   48.2791 H   0  0  0  0  0  0  0  0  0  0  0  0
   60.3404   30.6205   48.5923 H   0  0  0  0  0  0  0  0  0  0  0  0
   59.2770   32.1630   45.8720 H   0  0  0  0  0  0  0  0  0  0  0  0
   56.9028   32.3732   46.0765 H   0  0  0  0  0  0  0  0  0  0  0  0
   57.1555   33.8940   47.0074 H   0  0  0  0  0  0  0  0  0  0  0  0
   57.2904   33.4075   44.0872 H   0  0  0  0  0  0  0  0  0  0  0  0
   57.1022   34.9583   45.0280 H   0  0  0  0  0  0  0  0  0  0  0  0
   60.6337   35.3465   45.4375 H   0  0  0  0  0  0  0  0  0  0  0  0
   59.0156   35.7726   46.1192 H   0  0  0  0  0  0  0  0  0  0  0  0
   60.8595   33.5250   46.8115 H   0  0  0  0  0  0  0  0  0  0  0  0
   59.6034   34.3683   47.8064 H   0  0  0  0  0  0  0  0  0  0  0  0
   58.9459   28.2234   43.3161 H   0  0  0  0  0  0  0  0  0  0  0  0
   57.8212   26.0104   43.1378 H   0  0  0  0  0  0  0  0  0  0  0  0
   57.2705   21.3993   46.7504 H   0  0  0  0  0  0  0  0  0  0  0  0
   55.7719   22.4272   46.6893 H   0  0  0  0  0  0  0  0  0  0  0  0
   56.5336   20.1023   45.0408 H   0  0  0  0  0  0  0  0  0  0  0  0
   54.9231   20.8961   45.2947 H   0  0  0  0  0  0  0  0  0  0  0  0
   57.8632   20.8018   43.2655 H   0  0  0  0  0  0  0  0  0  0  0  0
   57.4083   22.3442   42.4152 H   0  0  0  0  0  0  0  0  0  0  0  0
   59.0054   21.9849   44.8052 H   0  0  0  0  0  0  0  0  0  0  0  0
   58.6090   23.4980   43.8784 H   0  0  0  0  0  0  0  0  0  0  0  0
   56.6105   26.2853   47.2858 H   0  0  0  0  0  0  0  0  0  0  0  0
   57.7648   28.4861   47.4774 H   0  0  0  0  0  0  0  0  0  0  0  0
  1  2  2  0
  2  3  1  0
  3  4  1  0
  4  5  1  0
  5  6  2  0
  5  7  1  0
  7  8  1  0
  8  9  1  0
  9 10  1  0
 10 11  1  0
 11 12  1  0
  2 13  1  0
 13 14  2  0
 14 15  1  0
 15 16  2  0
 16 17  1  0
 17 18  2  0
 17 19  2  0
 17 20  1  0
 20 21  1  0
 21 22  1  0
 22 23  1  0
 23 24  1  0
 24 25  1  0
 16 26  1  0
 26 27  2  0
 12  7  1  0
 27 13  1  0
 25 20  1  0
  4 28  1  0
  4 29  1  0
  7 30  1  0
  8 31  1  0
  8 32  1  0
  9 33  1  0
  9 34  1  0
 11 35  1  0
 11 36  1  0
 12 37  1  0
 12 38  1  0
 14 39  1  0
 15 40  1  0
 21 41  1  0
 21 42  1  0
 22 43  1  0
 22 44  1  0
 24 45  1  0
 24 46  1  0
 25 47  1  0
 25 48  1  0
 26 49  1  0
 27 50  1  0
M  CHG  2   3  -1   7   1
M  END
>  <UniqueID>  (7) 
7

>  <SMILES>  (7) 
O=C([N-]CC(=O)[NH+]1CCOCC1)c1ccc(S(=O)(=O)N2CCOCC2)cc1

>  <Energy>  (7) 
74.42517382015002

>  <Genealogy>  (7) 
O=C([N-]CC(=O)[NH+]1CCOCC1)c1ccc(S(=O)(=O)N2CCOCC2)cc1 (protonated)
O=C([N-]CC(=O)[NH+]1CCOCC1)c1ccc(S(=O)(=O)N2CCOCC2)cc1 (3D coordinates assigned)
O=C([N-]CC(=O)[NH+]1CCOCC1)c1ccc(S(=O)(=O)N2CCOCC2)cc1 (nonaromatic ring conformer: 74.42517382015002 kcal/mol)

>  <smiles>  (7) 
O=C(NCC(=O)N1CCOCC1)c1ccc(S(=O)(=O)N2CCOCC2)cc1

>  <score_type>  (7) 
oracle

>  <origin>  (7) 
adg

>  <m_score__min__energy>  (7) 
-8.4800000000000004

>  <m_primary>  (7) 
energy

$$$$
7:0
     RDKit          3D

 26 27  0  0  0  0  0  0  0  0999 V2000
   59.9656   27.5510   45.8161 H   0  0  0  0  0  0  0  0  0  0  0  0
   58.8820   27.3620   45.8250 C   0  0  0  0  0  0  0  0  0  0  0  0
   58.0180   28.3480   45.4670 N   0  0  0  0  0  0  0  0  0  0  0  0
   56.6670   28.1740   45.4540 C   0  0  0  0  0  0  0  0  0  0  0  0
   55.9330   29.1870   45.0850 N   0  0  0  0  0  0  0  0  0  0  0  0
   56.2170   30.2100   44.1190 C   0  0  0  0  0  0  0  0  0  0  0  0
   56.5530   29.8900   42.9490 O   0  0  0  0  0  0  0  0  0  0  0  0
   56.2730   31.5950   44.4950 N   0  0  0  0  0  0  0  0  0  0  0  0
   57.3000   32.2610   44.9350 C   0  0  0  0  0  0  0  0  0  0  0  0
   57.4400   33.5850   44.7100 N   0  0  0  0  0  0  0  0  0  0  0  0
   58.5410   34.0990   45.2560 N   0  0  0  0  0  0  0  0  0  0  0  0
   59.2890   33.1860   45.9150 C   0  0  0  0  0  0  0  0  0  0  0  0
   60.5370   33.5250   46.6660 C   0  0  0  0  0  0  0  0  0  0  0  0
   60.9597   32.6060   47.0982 H   0  0  0  0  0  0  0  0  0  0  0  0
   61.2554   33.9841   45.9710 H   0  0  0  0  0  0  0  0  0  0  0  0
   60.2370   34.5140   47.7870 C   0  0  0  0  0  0  0  0  0  0  0  0
   60.1789   35.5310   47.3718 H   0  0  0  0  0  0  0  0  0  0  0  0
   59.2777   34.2523   48.2573 H   0  0  0  0  0  0  0  0  0  0  0  0
   61.2420   34.4610   48.7350 F   0  0  0  0  0  0  0  0  0  0  0  0
   58.5780   31.6600   45.8660 S   0  0  0  0  0  0  0  0  0  0  0  0
   56.1390   26.9260   45.8780 C   0  0  0  0  0  0  0  0  0  0  0  0
   54.7740   26.6970   46.0060 O   0  0  0  0  0  0  0  0  0  0  0  0
   57.0200   25.8990   46.2310 C   0  0  0  0  0  0  0  0  0  0  0  0
   56.6245   24.9177   46.5322 H   0  0  0  0  0  0  0  0  0  0  0  0
   58.3970   26.1130   46.2030 C   0  0  0  0  0  0  0  0  0  0  0  0
   59.0918   25.3051   46.4761 H   0  0  0  0  0  0  0  0  0  0  0  0
  1  2  1  0
  2  3  1  0
  3  4  1  0
  4  5  2  0
  5  6  1  0
  6  7  2  0
  6  8  1  0
  8  9  2  0
  9 10  1  0
 10 11  1  0
 11 12  2  0
 12 13  1  0
 13 14  1  0
 13 15  1  0
 13 16  1  0
 16 17  1  0
 16 18  1  0
 16 19  1  0
 12 20  1  0
  4 21  1  0
 21 22  1  0
 21 23  2  0
 23 24  1  0
 23 25  1  0
 25 26  1  0
 25  2  2  0
 20  9  1  0
M  CHG  3   3  -1  10  -1  22  -1
M  END
>  <UniqueID>  (8) 
8

>  <SMILES>  (8) 
O=C(/N=c1/[n-]nc(CCF)s1)/N=c1/[n-]cccc1[O-]

>  <Energy>  (8) 
72.67665334642668

>  <Genealogy>  (8) 
O=C(N=c1[n-]nc(CCF)s1)N=c1[n-]cccc1[O-] (protonated)
O=C(/N=c1/[n-]nc(CCF)s1)/N=c1/[n-]cccc1[O-] (cis-trans isomerization)
O=C(/N=c1/[n-]nc(CCF)s1)/N=c1/[n-]cccc1[O-] (3D coordinates assigned)
O=C(/N=c1/[n-]nc(CCF)s1)/N=c1/[n-]cccc1[O-] (optimized conformer: 72.67665334642668 kcal/mol)

>  <smiles>  (8) 
O=C(N=c1[nH]nc(CCF)s1)N=c1[nH]cccc1O

>  <score_type>  (8) 
oracle

>  <origin>  (8) 
adg

>  <m_score__min__energy>  (8) 
-13.039999999999999

>  <m_primary>  (8) 
energy

$$$$
8:0
     RDKit          3D

 48 51  0  0  0  0  0  0  0  0999 V2000
   57.2880   25.5170   44.8660 C   0  0  0  0  0  0  0  0  0  0  0  0
   56.4530   26.0280   46.3530 S   0  0  0  0  0  0  0  0  0  0  0  0
   56.1880   24.8130   47.1970 O   0  0  0  0  0  0  0  0  0  0  0  0
   55.1430   26.6820   46.0220 O   0  0  0  0  0  0  0  0  0  0  0  0
   57.4530   27.1220   47.2540 N   0  0  0  0  0  0  0  0  0  0  0  0
   58.5650   27.8640   46.7330 C   0  0  0  0  0  0  0  0  0  0  0  0
   59.6990   27.2360   46.1870 C   0  0  0  0  0  0  0  0  0  0  0  0
   60.7580   28.0030   45.6940 C   0  0  0  0  0  0  0  0  0  0  0  0
   60.6950   29.3970   45.7360 C   0  0  0  0  0  0  0  0  0  0  0  0
   59.5640   30.0390   46.2630 C   0  0  0  0  0  0  0  0  0  0  0  0
   59.4900   31.5190   46.3060 C   0  0  0  0  0  0  0  0  0  0  0  0
   60.2770   32.2110   47.2390 C   0  0  0  0  0  0  0  0  0  0  0  0
   60.3100   33.6070   47.2550 C   0  0  0  0  0  0  0  0  0  0  0  0
   61.1230   34.2450   48.2060 O   0  0  0  0  0  0  0  0  0  0  0  0
   62.1410   33.6150   48.9820 C   0  0  0  0  0  0  0  0  0  0  0  0
   63.4710   33.6180   48.2150 C   0  0  0  0  0  0  0  0  0  0  0  0
   63.6790   32.4440   47.2710 C   0  0  0  0  0  0  0  0  0  0  0  0
   63.3520   33.8200   46.7120 C   0  0  0  0  0  0  0  0  0  0  0  0
   59.5320   34.3070   46.3220 C   0  0  0  0  0  0  0  0  0  0  0  0
   58.7580   33.6290   45.4350 N   0  0  0  0  0  0  0  0  0  0  0  0
   58.6990   32.2700   45.4000 C   0  0  0  0  0  0  0  0  0  0  0  0
   57.7790   31.6380   44.4280 C   0  0  0  0  0  0  0  0  0  0  0  0
   57.8950   31.8900   43.0510 C   0  0  0  0  0  0  0  0  0  0  0  0
   57.0190   31.2670   42.1600 C   0  0  0  0  0  0  0  0  0  0  0  0
   56.0720   30.4080   42.6230 N   0  0  0  0  0  0  0  0  0  0  0  0
   55.9470   30.1290   43.9480 C   0  0  0  0  0  0  0  0  0  0  0  0
   55.0600   29.3270   44.3380 O   0  0  0  0  0  0  0  0  0  0  0  0
   56.8040   30.7330   44.8740 C   0  0  0  0  0  0  0  0  0  0  0  0
   58.5070   29.2640   46.7690 C   0  0  0  0  0  0  0  0  0  0  0  0
   58.1988   24.9596   45.1300 H   0  0  0  0  0  0  0  0  0  0  0  0
   56.6217   24.8718   44.2746 H   0  0  0  0  0  0  0  0  0  0  0  0
   57.5594   26.4039   44.2746 H   0  0  0  0  0  0  0  0  0  0  0  0
   59.7524   26.1380   46.1480 H   0  0  0  0  0  0  0  0  0  0  0  0
   61.6441   27.5068   45.2715 H   0  0  0  0  0  0  0  0  0  0  0  0
   61.5358   29.9948   45.3542 H   0  0  0  0  0  0  0  0  0  0  0  0
   60.8764   31.6460   47.9680 H   0  0  0  0  0  0  0  0  0  0  0  0
   62.2663   34.1609   49.9287 H   0  0  0  0  0  0  0  0  0  0  0  0
   61.8459   32.5748   49.1844 H   0  0  0  0  0  0  0  0  0  0  0  0
   64.0576   34.0837   49.0206 H   0  0  0  0  0  0  0  0  0  0  0  0
   64.6846   32.0197   47.1344 H   0  0  0  0  0  0  0  0  0  0  0  0
   63.2415   31.4397   47.1707 H   0  0  0  0  0  0  0  0  0  0  0  0
   64.1211   34.3910   46.1712 H   0  0  0  0  0  0  0  0  0  0  0  0
   62.5801   34.2233   46.0400 H   0  0  0  0  0  0  0  0  0  0  0  0
   59.5484   35.4068   46.3082 H   0  0  0  0  0  0  0  0  0  0  0  0
   58.6711   32.5739   42.6770 H   0  0  0  0  0  0  0  0  0  0  0  0
   57.0950   31.4714   41.0818 H   0  0  0  0  0  0  0  0  0  0  0  0
   56.7141   30.4999   45.9452 H   0  0  0  0  0  0  0  0  0  0  0  0
   57.6245   29.7612   47.1980 H   0  0  0  0  0  0  0  0  0  0  0  0
  1  2  1  0
  2  3  2  0
  2  4  2  0
  2  5  1  0
  5  6  1  0
  6  7  2  0
  7  8  1  0
  8  9  2  0
  9 10  1  0
 10 11  1  0
 11 12  2  0
 12 13  1  0
 13 14  1  0
 14 15  1  0
 15 16  1  0
 16 17  1  0
 17 18  1  0
 13 19  2  0
 19 20  1  0
 20 21  2  0
 21 22  1  0
 22 23  1  0
 23 24  2  0
 24 25  1  0
 25 26  1  0
 26 27  2  0
 26 28  1  0
 10 29  2  0
 29  6  1  0
 21 11  1  0
 28 22  2  0
 18 16  1  0
  1 30  1  0
  1 31  1  0
  1 32  1  0
  7 33  1  0
  8 34  1  0
  9 35  1  0
 12 36  1  0
 15 37  1  0
 15 38  1  0
 16 39  1  0
 17 40  1  0
 17 41  1  0
 18 42  1  0
 18 43  1  0
 19 44  1  0
 23 45  1  0
 24 46  1  0
 28 47  1  0
 29 48  1  0
M  CHG  2   5  -1  25  -1
M  END
>  <UniqueID>  (9) 
9

>  <SMILES>  (9) 
CS(=O)(=O)[N-]c1cccc(-c2cc(OCC3CC3)cnc2-c2cc[n-]c(=O)c2)c1

>  <Energy>  (9) 
327.282248382133

>  <Genealogy>  (9) 
CS(=O)(=O)[N-]c1cccc(-c2cc(OCC3CC3)cnc2-c2cc[n-]c(=O)c2)c1 (protonated)
CS(=O)(=O)[N-]c1cccc(-c2cc(OCC3CC3)cnc2-c2cc[n-]c(=O)c2)c1 (3D coordinates assigned)
CS(=O)(=O)[N-]c1cccc(-c2cc(OCC3CC3)cnc2-c2cc[n-]c(=O)c2)c1 (nonaromatic ring conformer: 327.282248382133 kcal/mol)

>  <smiles>  (9) 
CS(=O)(=O)Nc1cccc(-c2cc(OCC3CC3)cnc2-c2cc[nH]c(=O)c2)c1

>  <score_type>  (9) 
oracle

>  <origin>  (9) 
adg

>  <m_score__min__energy>  (9) 
-12.24

>  <m_primary>  (9) 
energy

$$$$
9:0
     RDKit          3D

 67 70  0  0  0  0  0  0  0  0999 V2000
   55.4690   25.1910   48.1120 H   0  0  0  0  0  0  0  0  0  0  0  0
   55.9460   24.9720   47.2450 O   0  0  0  0  0  0  0  0  0  0  0  0
   56.5100   25.9800   46.4710 C   0  0  0  0  0  0  0  0  0  0  0  0
   55.7900   26.9580   45.8890 N   0  0  0  0  0  0  0  0  0  0  0  0
   56.7010   27.7120   45.2380 C   0  0  0  0  0  0  0  0  0  0  0  0
   56.3600   28.9660   44.4770 C   0  0  2  0  0  0  0  0  0  0  0  0
   56.0425   28.6730   43.4654 H   0  0  0  0  0  0  0  0  0  0  0  0
   57.5330   29.8370   44.3790 N   0  0  0  0  0  0  0  0  0  0  0  0
   57.8730   30.7530   45.2390 C   0  0  0  0  0  0  0  0  0  0  0  0
   57.6840   32.0710   44.9680 N   0  0  0  0  0  0  0  0  0  0  0  0
   58.0090   33.0440   45.8550 C   0  0  0  0  0  0  0  0  0  0  0  0
   57.8425   34.0990   45.5919 H   0  0  0  0  0  0  0  0  0  0  0  0
   58.5560   32.7170   47.1060 C   0  0  0  0  0  0  0  0  0  0  0  0
   58.8570   33.8420   48.0750 C   0  0  0  0  0  0  0  0  0  0  0  0
   59.0196   33.4143   49.0753 H   0  0  0  0  0  0  0  0  0  0  0  0
   57.9999   34.5314   48.0696 H   0  0  0  0  0  0  0  0  0  0  0  0
   60.1060   34.6380   47.6680 C   0  0  0  0  0  0  0  0  0  0  0  0
   60.2083   35.5054   48.3367 H   0  0  0  0  0  0  0  0  0  0  0  0
   59.9818   34.9557   46.6222 H   0  0  0  0  0  0  0  0  0  0  0  0
   61.3580   33.8040   47.7570 C   0  0  0  0  0  0  0  0  0  0  0  0
   62.2730   33.7800   46.6920 C   0  0  0  0  0  0  0  0  0  0  0  0
   62.0468   34.3231   45.7626 H   0  0  0  0  0  0  0  0  0  0  0  0
   63.4690   33.0690   46.8090 C   0  0  0  0  0  0  0  0  0  0  0  0
   64.1802   33.0500   45.9701 H   0  0  0  0  0  0  0  0  0  0  0  0
   63.7650   32.3810   47.9900 C   0  0  0  0  0  0  0  0  0  0  0  0
   64.7105   31.8259   48.0783 H   0  0  0  0  0  0  0  0  0  0  0  0
   62.8580   32.3960   49.0660 C   0  0  0  0  0  0  0  0  0  0  0  0
   63.1120   31.7370   50.2770 O   0  0  0  0  0  0  0  0  0  0  0  0
   62.1540   30.9560   50.9830 C   0  0  0  0  0  0  0  0  0  0  0  0
   62.3059   31.0798   52.0654 H   0  0  0  0  0  0  0  0  0  0  0  0
   61.1404   31.2884   50.7146 H   0  0  0  0  0  0  0  0  0  0  0  0
   62.2754   29.8962   50.7146 H   0  0  0  0  0  0  0  0  0  0  0  0
   61.6580   33.1020   48.9370 C   0  0  0  0  0  0  0  0  0  0  0  0
   60.9395   33.1080   49.7699 H   0  0  0  0  0  0  0  0  0  0  0  0
   58.7620   31.3480   47.4180 C   0  0  0  0  0  0  0  0  0  0  0  0
   59.3590   30.9010   48.7290 C   0  0  0  0  0  0  0  0  0  0  0  0
   59.8755   29.9402   48.5875 H   0  0  0  0  0  0  0  0  0  0  0  0
   60.0773   31.6565   49.0802 H   0  0  0  0  0  0  0  0  0  0  0  0
   58.3010   30.7420   49.7180 N   0  0  0  0  0  0  0  0  0  0  0  0
   58.2220   31.4800   50.9430 C   0  0  0  0  0  0  0  0  0  0  0  0
   58.6870   32.6500   50.9770 O   0  0  0  0  0  0  0  0  0  0  0  0
   57.6100   30.8960   52.1840 C   0  0  0  0  0  0  0  0  0  0  0  0
   58.3986   30.4148   52.7810 H   0  0  0  0  0  0  0  0  0  0  0  0
   57.1342   31.7078   52.7537 H   0  0  0  0  0  0  0  0  0  0  0  0
   56.5880   29.9010   51.8510 N   0  0  0  0  0  0  0  0  0  0  0  0
   55.4040   29.7290   53.1180 S   0  0  0  0  0  0  0  0  0  0  0  0
   55.8720   30.4110   54.3740 O   0  0  0  0  0  0  0  0  0  0  0  0
   55.2260   28.2670   53.4170 O   0  0  0  0  0  0  0  0  0  0  0  0
   53.8530   30.3890   52.6060 C   0  0  0  0  0  0  0  0  0  0  0  0
   53.6580   30.7540   51.2670 C   0  0  0  0  0  0  0  0  0  0  0  0
   54.4664   30.6058   50.5358 H   0  0  0  0  0  0  0  0  0  0  0  0
   52.4400   31.3060   50.8560 C   0  0  0  0  0  0  0  0  0  0  0  0
   52.2959   31.6020   49.8064 H   0  0  0  0  0  0  0  0  0  0  0  0
   51.4060   31.4810   51.7810 C   0  0  0  0  0  0  0  0  0  0  0  0
   50.4488   31.9176   51.4599 H   0  0  0  0  0  0  0  0  0  0  0  0
   51.5890   31.1010   53.1140 C   0  0  0  0  0  0  0  0  0  0  0  0
   50.7723   31.2319   53.8392 H   0  0  0  0  0  0  0  0  0  0  0  0
   52.8080   30.5550   53.5270 C   0  0  0  0  0  0  0  0  0  0  0  0
   52.9479   30.2550   54.5760 H   0  0  0  0  0  0  0  0  0  0  0  0
   58.4260   30.3730   46.4640 C   0  0  0  0  0  0  0  0  0  0  0  0
   58.5987   29.3088   46.6821 H   0  0  0  0  0  0  0  0  0  0  0  0
   55.3030   29.6570   45.0930 O   0  0  0  0  0  0  0  0  0  0  0  0
   54.7300   28.9730   45.5280 H   0  0  0  0  0  0  0  0  0  0  0  0
   57.9820   27.2200   45.4160 C   0  0  0  0  0  0  0  0  0  0  0  0
   58.9132   27.6392   45.0073 H   0  0  0  0  0  0  0  0  0  0  0  0
   57.8570   26.1010   46.2070 C   0  0  0  0  0  0  0  0  0  0  0  0
   58.6644   25.4405   46.5560 H   0  0  0  0  0  0  0  0  0  0  0  0
  1  2  1  0
  2  3  1  0
  3  4  1  0
  4  5  1  0
  5  6  1  0
  6  7  1  6
  6  8  1  0
  8  9  2  0
  9 10  1  0
 10 11  1  0
 11 12  1  0
 11 13  2  0
 13 14  1  0
 14 15  1  0
 14 16  1  0
 14 17  1  0
 17 18  1  0
 17 19  1  0
 17 20  1  0
 20 21  2  0
 21 22  1  0
 21 23  1  0
 23 24  1  0
 23 25  2  0
 25 26  1  0
 25 27  1  0
 27 28  1  0
 28 29  1  0
 29 30  1  0
 29 31  1  0
 29 32  1  0
 27 33  2  0
 33 34  1  0
 13 35  1  0
 35 36  1  0
 36 37  1  0
 36 38  1  0
 36 39  1  0
 39 40  1  0
 40 41  2  0
 40 42  1  0
 42 43  1  0
 42 44  1  0
 42 45  1  0
 45 46  1  0
 46 47  2  0
 46 48  2  0
 46 49  1  0
 49 50  2  0
 50 51  1  0
 50 52  1  0
 52 53  1  0
 52 54  2  0
 54 55  1  0
 54 56  1  0
 56 57  1  0
 56 58  2  0
 58 59  1  0
 35 60  2  0
 60 61  1  0
  6 62  1  0
 62 63  1  0
  5 64  2  0
 64 65  1  0
 64 66  1  0
 66 67  1  0
 66  3  2  0
 60  9  1  0
 33 20  1  0
 58 49  1  0
M  CHG  4   4  -1  10  -1  39  -1  45  -1
M  END
>  <UniqueID>  (10) 
10

>  <SMILES>  (10) 
COc1cccc(CCc2c[n-]/c(=N\[C@H](O)c3ccc(O)[n-]3)cc2C[N-]C(=O)C[N-]S(=O)(=O)c2ccccc2)c1

>  <Energy>  (10) 
84.24380804942044

>  <Genealogy>  (10) 
COc1cccc(CCc2c[n-]c(=NC(O)c3ccc(O)[n-]3)cc2C[N-]C(=O)C[N-]S(=O)(=O)c2ccccc2)c1 (protonated)
COc1cccc(CCc2c[n-]c(=N[C@H](O)c3ccc(O)[n-]3)cc2C[N-]C(=O)C[N-]S(=O)(=O)c2ccccc2)c1 (chirality)
COc1cccc(CCc2c[n-]/c(=N\[C@H](O)c3ccc(O)[n-]3)cc2C[N-]C(=O)C[N-]S(=O)(=O)c2ccccc2)c1 (cis-trans isomerization)
COc1cccc(CCc2c[n-]/c(=N\[C@H](O)c3ccc(O)[n-]3)cc2C[N-]C(=O)C[N-]S(=O)(=O)c2ccccc2)c1 (3D coordinates assigned)
COc1cccc(CCc2c[n-]/c(=N\[C@H](O)c3ccc(O)[n-]3)cc2C[N-]C(=O)C[N-]S(=O)(=O)c2ccccc2)c1 (optimized conformer: 84.24380804942044 kcal/mol)

>  <smiles>  (10) 
COc1cccc(CCc2c[nH]c(=NC(O)c3ccc(O)[nH]3)cc2CNC(=O)CNS(=O)(=O)c2ccccc2)c1

>  <score_type>  (10) 
oracle

>  <origin>  (10) 
adg

>  <m_score__min__energy>  (10) 
-16.059999999999999

>  <m_primary>  (10) 
energy

$$$$
10:0
     RDKit          3D

 47 49  0  0  0  0  0  0  0  0999 V2000
   58.1952   31.9141   42.8661 H   0  0  0  0  0  0  0  0  0  0  0  0
   57.6990   32.0780   43.8340 C   0  0  0  0  0  0  0  0  0  0  0  0
   56.9350   30.9460   44.4100 C   0  0  0  0  0  0  0  0  0  0  0  0
   55.6770   31.0090   44.4740 O   0  0  0  0  0  0  0  0  0  0  0  0
   57.6330   29.7180   44.8700 C   0  0  0  0  0  0  0  0  0  0  0  0
   59.0370   29.6800   44.9200 C   0  0  0  0  0  0  0  0  0  0  0  0
   59.6161   30.5606   44.6050 H   0  0  0  0  0  0  0  0  0  0  0  0
   59.7060   28.5370   45.3650 C   0  0  0  0  0  0  0  0  0  0  0  0
   60.8056   28.5269   45.3932 H   0  0  0  0  0  0  0  0  0  0  0  0
   58.9900   27.4000   45.7770 C   0  0  0  0  0  0  0  0  0  0  0  0
   59.7190   26.1910   46.2490 C   0  0  0  0  0  0  0  0  0  0  0  0
   60.8030   26.3210   46.8800 O   0  0  0  0  0  0  0  0  0  0  0  0
   59.2050   24.8060   45.9970 C   0  0  0  0  0  0  0  0  0  0  0  0
   59.0186   24.3036   46.9577 H   0  0  0  0  0  0  0  0  0  0  0  0
   58.2676   24.8614   45.4242 H   0  0  0  0  0  0  0  0  0  0  0  0
   59.9516   24.2364   45.4242 H   0  0  0  0  0  0  0  0  0  0  0  0
   57.5840   27.4370   45.7310 C   0  0  0  0  0  0  0  0  0  0  0  0
   57.0069   26.5568   46.0506 H   0  0  0  0  0  0  0  0  0  0  0  0
   56.9110   28.5790   45.2840 C   0  0  0  0  0  0  0  0  0  0  0  0
   55.5190   28.5600   45.2430 O   0  0  0  0  0  0  0  0  0  0  0  0
   57.8330   33.2880   44.4010 C   0  0  0  0  0  0  0  0  0  0  0  0
   57.5272   34.1642   43.8104 H   0  0  0  0  0  0  0  0  0  0  0  0
   58.3610   33.5290   45.7600 C   0  0  0  0  0  0  0  0  0  0  0  0
   58.0310   32.6320   46.7840 C   0  0  0  0  0  0  0  0  0  0  0  0
   57.4035   31.7562   46.5624 H   0  0  0  0  0  0  0  0  0  0  0  0
   58.4940   32.8430   48.0850 C   0  0  0  0  0  0  0  0  0  0  0  0
   58.2413   32.1223   48.8766 H   0  0  0  0  0  0  0  0  0  0  0  0
   59.2760   33.9620   48.3910 C   0  0  0  0  0  0  0  0  0  0  0  0
   59.7140   34.1230   49.7150 O   0  0  0  0  0  0  0  0  0  0  0  0
   60.9510   33.6380   50.2400 C   0  0  0  0  0  0  0  0  0  0  0  0
   61.4285   34.4336   50.8308 H   0  0  0  0  0  0  0  0  0  0  0  0
   60.7457   32.7616   50.8722 H   0  0  0  0  0  0  0  0  0  0  0  0
   61.8790   33.2240   49.1290 C   0  0  0  0  0  0  0  0  0  0  0  0
   61.8220   31.9240   48.5980 C   0  0  0  0  0  0  0  0  0  0  0  0
   61.0892   31.2035   48.9904 H   0  0  0  0  0  0  0  0  0  0  0  0
   62.6930   31.5430   47.5730 C   0  0  0  0  0  0  0  0  0  0  0  0
   62.6379   30.5269   47.1551 H   0  0  0  0  0  0  0  0  0  0  0  0
   63.6340   32.4510   47.0780 C   0  0  0  0  0  0  0  0  0  0  0  0
   64.3178   32.1499   46.2707 H   0  0  0  0  0  0  0  0  0  0  0  0
   63.7050   33.7420   47.6100 C   0  0  0  0  0  0  0  0  0  0  0  0
   64.4463   34.4560   47.2217 H   0  0  0  0  0  0  0  0  0  0  0  0
   62.8350   34.1270   48.6350 C   0  0  0  0  0  0  0  0  0  0  0  0
   62.8995   35.1411   49.0562 H   0  0  0  0  0  0  0  0  0  0  0  0
   59.5890   34.8780   47.3680 C   0  0  0  0  0  0  0  0  0  0  0  0
   60.2038   35.7613   47.5955 H   0  0  0  0  0  0  0  0  0  0  0  0
   59.1240   34.6730   46.0650 C   0  0  0  0  0  0  0  0  0  0  0  0
   59.4100   35.6180   45.0850 O   0  0  0  0  0  0  0  0  0  0  0  0
  1  2  1  0
  2  3  1  0
  3  4  2  0
  3  5  1  0
  5  6  2  0
  6  7  1  0
  6  8  1  0
  8  9  1  0
  8 10  2  0
 10 11  1  0
 11 12  2  0
 11 13  1  0
 13 14  1  0
 13 15  1  0
 13 16  1  0
 10 17  1  0
 17 18  1  0
 17 19  2  0
 19 20  1  0
  2 21  2  0
 21 22  1  0
 21 23  1  0
 23 24  2  0
 24 25  1  0
 24 26  1  0
 26 27  1  0
 26 28  2  0
 28 29  1  0
 29 30  1  0
 30 31  1  0
 30 32  1  0
 30 33  1  0
 33 34  2  0
 34 35  1  0
 34 36  1  0
 36 37  1  0
 36 38  2  0
 38 39  1  0
 38 40  1  0
 40 41  1  0
 40 42  2  0
 42 43  1  0
 28 44  1  0
 44 45  1  0
 44 46  2  0
 46 47  1  0
 19  5  1  0
 46 23  1  0
 42 33  1  0
M  CHG  2  20  -1  47  -1
M  END
>  <UniqueID>  (11) 
11

>  <SMILES>  (11) 
CC(=O)c1ccc(C(=O)/C=C\c2ccc(OCc3ccccc3)cc2[O-])c([O-])c1

>  <Energy>  (11) 
62.84666992592593

>  <Genealogy>  (11) 
CC(=O)c1ccc(C(=O)C=Cc2ccc(OCc3ccccc3)cc2[O-])c([O-])c1 (protonated)
CC(=O)c1ccc(C(=O)/C=C\c2ccc(OCc3ccccc3)cc2[O-])c([O-])c1 (cis-trans isomerization)
CC(=O)c1ccc(C(=O)/C=C\c2ccc(OCc3ccccc3)cc2[O-])c([O-])c1 (3D coordinates assigned)
CC(=O)c1ccc(C(=O)/C=C\c2ccc(OCc3ccccc3)cc2[O-])c([O-])c1 (optimized conformer: 62.84666992592593 kcal/mol)

>  <smiles>  (11) 
CC(=O)c1ccc(C(=O)C=Cc2ccc(OCc3ccccc3)cc2O)c(O)c1

>  <score_type>  (11) 
oracle

>  <origin>  (11) 
adg

>  <m_score__min__energy>  (11) 
-15.77

>  <m_primary>  (11) 
energy

$$$$
11:0
     RDKit          3D

 23 24  0  0  0  0  0  0  0  0999 V2000
   51.4328   31.9003   53.7027 H   0  0  0  0  0  0  0  0  0  0  0  0
   51.5400   31.8520   52.6090 C   0  0  0  0  0  0  0  0  0  0  0  0
   50.9960   32.7330   51.7470 N   0  0  0  0  0  0  0  0  0  0  0  0
   51.3730   32.3080   50.5260 C   0  0  0  0  0  0  0  0  0  0  0  0
   51.0150   32.9550   49.3500 O   0  0  0  0  0  0  0  0  0  0  0  0
   52.1510   31.1730   50.5880 C   0  0  0  0  0  0  0  0  0  0  0  0
   52.5959   30.6209   49.7471 H   0  0  0  0  0  0  0  0  0  0  0  0
   52.2520   30.8780   51.9310 C   0  0  0  0  0  0  0  0  0  0  0  0
   53.0010   29.7610   52.5390 C   0  0  0  0  0  0  0  0  0  0  0  0
   52.5960   28.5810   52.3720 O   0  0  0  0  0  0  0  0  0  0  0  0
   54.1310   29.9930   53.3920 N   0  0  0  0  0  0  0  0  0  0  0  0
   55.3890   29.8430   53.0830 C   0  0  0  0  0  0  0  0  0  0  0  0
   55.9850   30.7940   52.3130 N   0  0  0  0  0  0  0  0  0  0  0  0
   57.2950   30.7350   51.9430 C   0  0  0  0  0  0  0  0  0  0  0  0
   57.8350   31.8200   51.1000 C   0  0  0  0  0  0  0  0  0  0  0  0
   58.1270   31.6250   49.8900 O   0  0  0  0  0  0  0  0  0  0  0  0
   58.0280   33.0830   51.6450 O   0  0  0  0  0  0  0  0  0  0  0  0
   58.0810   29.6480   52.3750 C   0  0  0  0  0  0  0  0  0  0  0  0
   59.4220   29.5350   52.0250 O   0  0  0  0  0  0  0  0  0  0  0  0
   57.5020   28.6650   53.1790 C   0  0  0  0  0  0  0  0  0  0  0  0
   58.1071   27.8150   53.5274 H   0  0  0  0  0  0  0  0  0  0  0  0
   56.1590   28.7570   53.5420 C   0  0  0  0  0  0  0  0  0  0  0  0
   55.7042   27.9868   54.1823 H   0  0  0  0  0  0  0  0  0  0  0  0
  1  2  1  0
  2  3  1  0
  3  4  1  0
  4  5  1  0
  4  6  2  0
  6  7  1  0
  6  8  1  0
  8  9  1  0
  9 10  2  0
  9 11  1  0
 11 12  2  0
 12 13  1  0
 13 14  1  0
 14 15  1  0
 15 16  2  0
 15 17  1  0
 14 18  2  0
 18 19  1  0
 18 20  1  0
 20 21  1  0
 20 22  2  0
 22 23  1  0
  8  2  2  0
 22 12  1  0
M  CHG  5   3  -1   5  -1  13  -1  17  -1  19  -1
M  END
>  <UniqueID>  (12) 
12

>  <SMILES>  (12) 
O=C(/N=c1\ccc([O-])c(C(=O)[O-])[n-]1)c1c[n-]c([O-])c1

>  <Energy>  (12) 
60.1013884207602

>  <Genealogy>  (12) 
O=C(N=c1ccc([O-])c(C(=O)[O-])[n-]1)c1c[n-]c([O-])c1 (protonated)
O=C(/N=c1\ccc([O-])c(C(=O)[O-])[n-]1)c1c[n-]c([O-])c1 (cis-trans isomerization)
O=C(/N=c1\ccc([O-])c(C(=O)[O-])[n-]1)c1c[n-]c([O-])c1 (3D coordinates assigned)
O=C(/N=c1\ccc([O-])c(C(=O)[O-])[n-]1)c1c[n-]c([O-])c1 (optimized conformer: 60.1013884207602 kcal/mol)

>  <smiles>  (12) 
O=C(N=c1ccc(O)c(C(=O)O)[nH]1)c1c[nH]c(O)c1

>  <score_type>  (12) 
oracle

>  <origin>  (12) 
adg

>  <m_score__min__energy>  (12) 
-15.67

>  <m_primary>  (12) 
energy

$$$$
12:0
     RDKit          3D

 43 46  0  0  0  0  0  0  0  0999 V2000
   55.4570   30.6160   44.4190 O   0  0  0  0  0  0  0  0  0  0  0  0
   56.8890   30.2620   44.7000 S   0  0  0  0  0  0  0  0  0  0  0  0
   57.4870   29.6380   43.4710 O   0  0  0  0  0  0  0  0  0  0  0  0
   56.9460   29.1150   46.0000 N   0  0  0  0  0  0  0  0  0  0  0  0
   57.4390   27.7710   45.8980 C   0  0  0  0  0  0  0  0  0  0  0  0
   58.8120   27.4870   45.7960 C   0  0  0  0  0  0  0  0  0  0  0  0
   59.2550   26.1650   45.7150 C   0  0  0  0  0  0  0  0  0  0  0  0
   58.3350   25.1060   45.7290 C   0  0  0  0  0  0  0  0  0  0  0  0
   58.8090   23.6800   45.6280 C   0  0  0  0  0  0  0  0  0  0  0  0
   57.7830   22.8340   44.9430 C   0  0  0  0  0  0  0  0  0  0  0  0
   57.2680   23.1140   43.7170 N   0  0  0  0  0  0  0  0  0  0  0  0
   56.4980   22.0320   43.4400 C   0  0  0  0  0  0  0  0  0  0  0  0
   55.8080   21.8460   42.2500 O   0  0  0  0  0  0  0  0  0  0  0  0
   56.5550   21.1490   44.4870 C   0  0  0  0  0  0  0  0  0  0  0  0
   57.3430   21.6480   45.4040 N   0  0  0  0  0  0  0  0  0  0  0  0
   57.7060   20.7080   46.4370 C   0  0  0  0  0  0  0  0  0  0  0  0
   56.8660   19.4530   46.0760 C   0  0  0  0  0  0  0  0  0  0  0  0
   56.1670   19.7450   44.7180 C   0  0  0  0  0  0  0  0  0  0  0  0
   56.9650   25.3890   45.8150 C   0  0  0  0  0  0  0  0  0  0  0  0
   56.5200   26.7120   45.9020 C   0  0  0  0  0  0  0  0  0  0  0  0
   55.1560   26.9700   45.9940 O   0  0  0  0  0  0  0  0  0  0  0  0
   57.7600   31.7260   45.1450 C   0  0  0  0  0  0  0  0  0  0  0  0
   57.4000   32.9530   44.5710 C   0  0  0  0  0  0  0  0  0  0  0  0
   58.0780   34.1200   44.9310 C   0  0  0  0  0  0  0  0  0  0  0  0
   59.1220   34.0670   45.8590 C   0  0  0  0  0  0  0  0  0  0  0  0
   59.4890   32.8450   46.4290 C   0  0  0  0  0  0  0  0  0  0  0  0
   58.8100   31.6750   46.0730 C   0  0  0  0  0  0  0  0  0  0  0  0
   59.5413   28.3103   45.7799 H   0  0  0  0  0  0  0  0  0  0  0  0
   60.3317   25.9529   45.6398 H   0  0  0  0  0  0  0  0  0  0  0  0
   59.7459   23.6499   45.0524 H   0  0  0  0  0  0  0  0  0  0  0  0
   58.9742   23.2874   46.6422 H   0  0  0  0  0  0  0  0  0  0  0  0
   58.7828   20.4850   46.4083 H   0  0  0  0  0  0  0  0  0  0  0  0
   57.5117   21.0829   47.4527 H   0  0  0  0  0  0  0  0  0  0  0  0
   57.5215   18.5747   45.9817 H   0  0  0  0  0  0  0  0  0  0  0  0
   56.1244   19.2398   46.8599 H   0  0  0  0  0  0  0  0  0  0  0  0
   56.5445   19.0870   43.9215 H   0  0  0  0  0  0  0  0  0  0  0  0
   55.0804   19.5742   44.7257 H   0  0  0  0  0  0  0  0  0  0  0  0
   56.2355   24.5657   45.8141 H   0  0  0  0  0  0  0  0  0  0  0  0
   56.5826   32.9970   43.8362 H   0  0  0  0  0  0  0  0  0  0  0  0
   57.7898   35.0826   44.4834 H   0  0  0  0  0  0  0  0  0  0  0  0
   59.6547   34.9873   46.1406 H   0  0  0  0  0  0  0  0  0  0  0  0
   60.3119   32.8032   47.1577 H   0  0  0  0  0  0  0  0  0  0  0  0
   59.1002   30.7135   46.5217 H   0  0  0  0  0  0  0  0  0  0  0  0
  1  2  2  0
  2  3  2  0
  2  4  1  0
  4  5  1  0
  5  6  2  0
  6  7  1  0
  7  8  2  0
  8  9  1  0
  9 10  1  0
 10 11  2  0
 11 12  1  0
 12 13  1  0
 12 14  2  0
 14 15  1  0
 15 16  1  0
 16 17  1  0
 17 18  1  0
  8 19  1  0
 19 20  2  0
 20 21  1  0
  2 22  1  0
 22 23  2  0
 23 24  1  0
 24 25  2  0
 25 26  1  0
 26 27  2  0
 20  5  1  0
 27 22  1  0
 15 10  1  0
 18 14  1  0
  6 28  1  0
  7 29  1  0
  9 30  1  0
  9 31  1  0
 16 32  1  0
 16 33  1  0
 17 34  1  0
 17 35  1  0
 18 36  1  0
 18 37  1  0
 19 38  1  0
 23 39  1  0
 24 40  1  0
 25 41  1  0
 26 42  1  0
 27 43  1  0
M  CHG  3   4  -1  13  -1  21  -1
M  END
>  <UniqueID>  (13) 
13

>  <SMILES>  (13) 
O=S(=O)([N-]c1ccc(Cc2nc([O-])c3n2CCC3)cc1[O-])c1ccccc1

>  <Energy>  (13) 
99.9666060938518

>  <Genealogy>  (13) 
O=S(=O)([N-]c1ccc(Cc2nc([O-])c3n2CCC3)cc1[O-])c1ccccc1 (protonated)
O=S(=O)([N-]c1ccc(Cc2nc([O-])c3n2CCC3)cc1[O-])c1ccccc1 (3D coordinates assigned)
O=S(=O)([N-]c1ccc(Cc2nc([O-])c3n2CCC3)cc1[O-])c1ccccc1 (nonaromatic ring conformer: 99.9666060938518 kcal/mol)

>  <smiles>  (13) 
O=S(=O)(Nc1ccc(Cc2nc(O)c3n2CCC3)cc1O)c1ccccc1

>  <score_type>  (13) 
oracle

>  <origin>  (13) 
adg

>  <m_score__min__energy>  (13) 
-15.32

>  <m_primary>  (13) 
energy

$$$$
13:0
     RDKit          3D

 50 52  0  0  0  0  0  0  0  0999 V2000
   59.5110   31.0510   51.7200 O   0  0  0  0  0  0  0  0  0  0  0  0
   59.0680   32.1770   51.3690 C   0  0  0  0  0  0  0  0  0  0  0  0
   59.9620   33.1360   50.6500 C   0  0  0  0  0  0  0  0  0  0  0  0
   59.4530   33.3700   49.2550 C   0  0  0  0  0  0  0  0  0  0  0  0
   58.2910   32.7190   48.8070 C   0  0  0  0  0  0  0  0  0  0  0  0
   57.8340   32.9100   47.5000 C   0  0  0  0  0  0  0  0  0  0  0  0
   58.5360   33.7510   46.6270 C   0  0  0  0  0  0  0  0  0  0  0  0
   57.9510   33.9980   44.9900 S   0  0  0  0  0  0  0  0  0  0  0  0
   56.2980   34.2950   44.9820 O   0  0  0  0  0  0  0  0  0  0  0  0
   58.3890   32.6690   43.8860 C   0  0  0  0  0  0  0  0  0  0  0  0
   58.0480   31.3410   44.5000 C   0  0  0  0  0  0  0  0  0  0  0  0
   58.9960   30.6560   45.2770 C   0  0  0  0  0  0  0  0  0  0  0  0
   58.6570   29.4510   45.9020 C   0  0  0  0  0  0  0  0  0  0  0  0
   57.3710   28.9260   45.7540 C   0  0  0  0  0  0  0  0  0  0  0  0
   56.4200   29.6040   44.9880 C   0  0  0  0  0  0  0  0  0  0  0  0
   55.1400   29.0820   44.8470 O   0  0  0  0  0  0  0  0  0  0  0  0
   56.7550   30.8110   44.3630 C   0  0  0  0  0  0  0  0  0  0  0  0
   59.7020   34.3910   47.0630 C   0  0  0  0  0  0  0  0  0  0  0  0
   60.1620   34.1980   48.3700 C   0  0  0  0  0  0  0  0  0  0  0  0
   57.7030   32.5320   51.6160 N   0  0  0  0  0  0  0  0  0  0  0  0
   56.8560   31.8520   52.5880 C   0  0  0  0  0  0  0  0  0  0  0  0
   56.4520   30.5060   52.0760 C   0  0  0  0  0  0  0  0  0  0  0  0
   57.2180   29.8840   51.2910 O   0  0  0  0  0  0  0  0  0  0  0  0
   55.1640   29.9790   52.4150 N   0  0  0  0  0  0  0  0  0  0  0  0
   53.9020   30.6550   52.3070 C   0  0  0  0  0  0  0  0  0  0  0  0
   53.5450   31.2150   51.0730 C   0  0  0  0  0  0  0  0  0  0  0  0
   52.3330   31.8970   50.9260 C   0  0  0  0  0  0  0  0  0  0  0  0
   51.4740   32.0390   52.0210 C   0  0  0  0  0  0  0  0  0  0  0  0
   50.2670   32.7120   51.8750 O   0  0  0  0  0  0  0  0  0  0  0  0
   51.8320   31.5040   53.2630 C   0  0  0  0  0  0  0  0  0  0  0  0
   53.0430   30.8210   53.4110 C   0  0  0  0  0  0  0  0  0  0  0  0
   59.9835   34.0915   51.1945 H   0  0  0  0  0  0  0  0  0  0  0  0
   60.9759   32.7126   50.5970 H   0  0  0  0  0  0  0  0  0  0  0  0
   57.7382   32.0557   49.4885 H   0  0  0  0  0  0  0  0  0  0  0  0
   56.9222   32.3994   47.1566 H   0  0  0  0  0  0  0  0  0  0  0  0
   56.1740   35.0160   45.6500 H   0  0  0  0  0  0  0  0  0  0  0  0
   57.8351   32.7846   42.9427 H   0  0  0  0  0  0  0  0  0  0  0  0
   59.4720   32.7059   43.6968 H   0  0  0  0  0  0  0  0  0  0  0  0
   60.0090   31.0683   45.3948 H   0  0  0  0  0  0  0  0  0  0  0  0
   59.4027   28.9174   46.5096 H   0  0  0  0  0  0  0  0  0  0  0  0
   57.1066   27.9763   46.2419 H   0  0  0  0  0  0  0  0  0  0  0  0
   56.0036   31.3454   43.7632 H   0  0  0  0  0  0  0  0  0  0  0  0
   60.2576   35.0469   46.3767 H   0  0  0  0  0  0  0  0  0  0  0  0
   61.0830   34.6970   48.7058 H   0  0  0  0  0  0  0  0  0  0  0  0
   57.4110   31.7299   53.5298 H   0  0  0  0  0  0  0  0  0  0  0  0
   55.9520   32.4554   52.7576 H   0  0  0  0  0  0  0  0  0  0  0  0
   54.2237   31.1173   50.2129 H   0  0  0  0  0  0  0  0  0  0  0  0
   52.0553   32.3215   49.9500 H   0  0  0  0  0  0  0  0  0  0  0  0
   51.1591   31.6209   54.1253 H   0  0  0  0  0  0  0  0  0  0  0  0
   53.3257   30.4121   54.3923 H   0  0  0  0  0  0  0  0  0  0  0  0
  1  2  2  0
  2  3  1  0
  3  4  1  0
  4  5  2  0
  5  6  1  0
  6  7  2  0
  7  8  1  0
  8  9  1  1
  8 10  1  0
 10 11  1  0
 11 12  2  0
 12 13  1  0
 13 14  2  0
 14 15  1  0
 15 16  1  0
 15 17  2  0
  7 18  1  0
 18 19  2  0
  2 20  1  0
 20 21  1  0
 21 22  1  0
 22 23  2  0
 22 24  1  0
 24 25  1  0
 25 26  2  0
 26 27  1  0
 27 28  2  0
 28 29  1  0
 28 30  1  0
 30 31  2  0
 19  4  1  0
 31 25  1  0
 17 11  1  0
  3 32  1  0
  3 33  1  0
  5 34  1  0
  6 35  1  0
  9 36  1  0
 10 37  1  0
 10 38  1  0
 12 39  1  0
 13 40  1  0
 14 41  1  0
 17 42  1  0
 18 43  1  0
 19 44  1  0
 21 45  1  0
 21 46  1  0
 26 47  1  0
 27 48  1  0
 30 49  1  0
 31 50  1  0
M  CHG  5   8   1  16  -1  20  -1  24  -1  29  -1
M  END
>  <UniqueID>  (14) 
14

>  <SMILES>  (14) 
O=C(Cc1ccc([S@+](O)Cc2cccc([O-])c2)cc1)[N-]CC(=O)[N-]c1ccc([O-])cc1

>  <Energy>  (14) 
44.82809288552186

>  <Genealogy>  (14) 
O=C(Cc1ccc([S+](O)Cc2cccc([O-])c2)cc1)[N-]CC(=O)[N-]c1ccc([O-])cc1 (protonated)
O=C(Cc1ccc([S@+](O)Cc2cccc([O-])c2)cc1)[N-]CC(=O)[N-]c1ccc([O-])cc1 (chirality)
O=C(Cc1ccc([S@+](O)Cc2cccc([O-])c2)cc1)[N-]CC(=O)[N-]c1ccc([O-])cc1 (3D coordinates assigned)
O=C(Cc1ccc([S@+](O)Cc2cccc([O-])c2)cc1)[N-]CC(=O)[N-]c1ccc([O-])cc1 (optimized conformer: 44.82809288552186 kcal/mol)

>  <smiles>  (14) 
O=C(Cc1ccc([S+]([O-])Cc2cccc(O)c2)cc1)NCC(=O)Nc1ccc(O)cc1

>  <score_type>  (14) 
oracle

>  <origin>  (14) 
adg

>  <m_score__min__energy>  (14) 
-17.379999999999999

>  <m_primary>  (14) 
energy

$$$$
14:0
     RDKit          3D

 51 53  0  0  0  0  0  0  0  0999 V2000
   57.8320   27.1180   42.7040 C   0  0  0  0  0  0  0  0  0  0  0  0
   57.9960   28.1260   43.8110 C   0  0  0  0  0  0  0  0  0  0  0  0
   58.8540   27.8250   44.8820 C   0  0  0  0  0  0  0  0  0  0  0  0
   59.0040   28.7150   45.9450 C   0  0  0  0  0  0  0  0  0  0  0  0
   58.3070   29.9210   45.9480 C   0  0  0  0  0  0  0  0  0  0  0  0
   57.4690   30.2580   44.8800 C   0  0  0  0  0  0  0  0  0  0  0  0
   56.7800   31.5090   44.9090 N   0  0  0  0  0  0  0  0  0  0  0  0
   57.6520   33.0010   44.8980 S   0  0  0  0  0  0  0  0  0  0  0  0
   58.5190   33.0800   43.6720 O   0  0  0  0  0  0  0  0  0  0  0  0
   56.6790   34.1450   44.8670 O   0  0  0  0  0  0  0  0  0  0  0  0
   58.6350   33.0930   46.3530 C   0  0  0  0  0  0  0  0  0  0  0  0
   58.0570   32.8640   47.6070 C   0  0  0  0  0  0  0  0  0  0  0  0
   58.8440   32.8950   48.7590 C   0  0  0  0  0  0  0  0  0  0  0  0
   60.2160   33.1440   48.6650 C   0  0  0  0  0  0  0  0  0  0  0  0
   60.8160   33.3540   47.4110 C   0  0  0  0  0  0  0  0  0  0  0  0
   62.2700   33.6180   47.3150 C   0  0  0  0  0  0  0  0  0  0  0  0
   62.7880   33.8160   46.1820 O   0  0  0  0  0  0  0  0  0  0  0  0
   63.1100   33.6270   48.4840 N   0  0  0  0  0  0  0  0  0  0  0  0
   62.7330   34.3960   49.6730 C   0  0  0  0  0  0  0  0  0  0  0  0
   63.0400   33.5990   50.9560 C   0  0  0  0  0  0  0  0  0  0  0  0
   64.2150   32.6970   50.8470 N   0  0  0  0  0  0  0  0  0  0  0  0
   63.8170   31.2820   50.7530 C   0  0  0  0  0  0  0  0  0  0  0  0
   65.1510   33.0790   49.7690 C   0  0  0  0  0  0  0  0  0  0  0  0
   64.4680   33.0820   48.3930 C   0  0  0  0  0  0  0  0  0  0  0  0
   60.0120   33.3370   46.2580 C   0  0  0  0  0  0  0  0  0  0  0  0
   57.3200   29.3740   43.7870 C   0  0  0  0  0  0  0  0  0  0  0  0
   56.3860   29.7210   42.6500 C   0  0  0  0  0  0  0  0  0  0  0  0
   57.6697   26.1202   43.1377 H   0  0  0  0  0  0  0  0  0  0  0  0
   56.9668   27.3930   42.0829 H   0  0  0  0  0  0  0  0  0  0  0  0
   58.7398   27.1046   42.0829 H   0  0  0  0  0  0  0  0  0  0  0  0
   59.4131   26.8777   44.8820 H   0  0  0  0  0  0  0  0  0  0  0  0
   59.6730   28.4646   46.7815 H   0  0  0  0  0  0  0  0  0  0  0  0
   58.4163   30.6130   46.7960 H   0  0  0  0  0  0  0  0  0  0  0  0
   56.9791   32.6590   47.6847 H   0  0  0  0  0  0  0  0  0  0  0  0
   58.3835   32.7231   49.7431 H   0  0  0  0  0  0  0  0  0  0  0  0
   60.8298   33.1759   49.5772 H   0  0  0  0  0  0  0  0  0  0  0  0
   63.3003   35.3383   49.6886 H   0  0  0  0  0  0  0  0  0  0  0  0
   61.6531   34.6018   49.6339 H   0  0  0  0  0  0  0  0  0  0  0  0
   63.2291   34.3148   51.7696 H   0  0  0  0  0  0  0  0  0  0  0  0
   62.1665   32.9580   51.1461 H   0  0  0  0  0  0  0  0  0  0  0  0
   63.7000   30.8660   51.7646 H   0  0  0  0  0  0  0  0  0  0  0  0
   62.8623   31.2048   50.2121 H   0  0  0  0  0  0  0  0  0  0  0  0
   64.5915   30.7184   50.2121 H   0  0  0  0  0  0  0  0  0  0  0  0
   65.5393   34.0872   49.9757 H   0  0  0  0  0  0  0  0  0  0  0  0
   65.9642   32.3386   49.7448 H   0  0  0  0  0  0  0  0  0  0  0  0
   65.0580   33.6992   47.6995 H   0  0  0  0  0  0  0  0  0  0  0  0
   64.4071   32.0459   48.0287 H   0  0  0  0  0  0  0  0  0  0  0  0
   60.4673   33.5167   45.2729 H   0  0  0  0  0  0  0  0  0  0  0  0
   55.4283   30.0768   43.0578 H   0  0  0  0  0  0  0  0  0  0  0  0
   56.8378   30.5113   42.0325 H   0  0  0  0  0  0  0  0  0  0  0  0
   56.2123   28.8274   42.0325 H   0  0  0  0  0  0  0  0  0  0  0  0
  1  2  1  0
  2  3  2  0
  3  4  1  0
  4  5  2  0
  5  6  1  0
  6  7  1  0
  7  8  1  0
  8  9  2  0
  8 10  2  0
  8 11  1  0
 11 12  2  0
 12 13  1  0
 13 14  2  0
 14 15  1  0
 15 16  1  0
 16 17  2  0
 16 18  1  0
 18 19  1  0
 19 20  1  0
 20 21  1  0
 21 22  1  0
 21 23  1  0
 23 24  1  0
 15 25  2  0
  6 26  2  0
 26 27  1  0
 26  2  1  0
 25 11  1  0
 24 18  1  0
  1 28  1  0
  1 29  1  0
  1 30  1  0
  3 31  1  0
  4 32  1  0
  5 33  1  0
 12 34  1  0
 13 35  1  0
 14 36  1  0
 19 37  1  0
 19 38  1  0
 20 39  1  0
 20 40  1  0
 22 41  1  0
 22 42  1  0
 22 43  1  0
 23 44  1  0
 23 45  1  0
 24 46  1  0
 24 47  1  0
 25 48  1  0
 27 49  1  0
 27 50  1  0
 27 51  1  0
M  CHG  1   7  -1
M  END
>  <UniqueID>  (15) 
15

>  <SMILES>  (15) 
Cc1cccc([N-]S(=O)(=O)c2cccc(C(=O)N3CCN(C)CC3)c2)c1C

>  <Energy>  (15) 
68.44741573038284

>  <Genealogy>  (15) 
Cc1cccc([N-]S(=O)(=O)c2cccc(C(=O)N3CCN(C)CC3)c2)c1C (protonated)
Cc1cccc([N-]S(=O)(=O)c2cccc(C(=O)N3CCN(C)CC3)c2)c1C (3D coordinates assigned)
Cc1cccc([N-]S(=O)(=O)c2cccc(C(=O)N3CCN(C)CC3)c2)c1C (nonaromatic ring conformer: 68.44741573038284 kcal/mol)

>  <smiles>  (15) 
Cc1cccc(NS(=O)(=O)c2cccc(C(=O)N3CCN(C)CC3)c2)c1C

>  <score_type>  (15) 
oracle

>  <origin>  (15) 
adg

>  <m_score__min__energy>  (15) 
-10.42

>  <m_primary>  (15) 
energy

$$$$
15:0
     RDKit          3D

 39 40  0  0  0  0  0  0  0  0999 V2000
   64.6664   33.7830   46.4839 H   0  0  0  0  0  0  0  0  0  0  0  0
   63.7340   33.8090   47.0670 C   0  0  0  0  0  0  0  0  0  0  0  0
   62.5000   33.8370   46.4100 C   0  0  0  0  0  0  0  0  0  0  0  0
   62.4643   33.8513   45.3107 H   0  0  0  0  0  0  0  0  0  0  0  0
   61.3050   33.8470   47.1500 C   0  0  0  0  0  0  0  0  0  0  0  0
   60.0270   33.9350   46.4990 N   0  0  0  0  0  0  0  0  0  0  0  0
   59.3140   32.9570   46.0100 C   0  0  0  0  0  0  0  0  0  0  0  0
   59.4570   31.6250   46.4500 C   0  0  0  0  0  0  0  0  0  0  0  0
   60.1935   31.3756   47.2280 H   0  0  0  0  0  0  0  0  0  0  0  0
   58.6590   30.6250   45.8930 C   0  0  0  0  0  0  0  0  0  0  0  0
   58.7666   29.5841   46.2319 H   0  0  0  0  0  0  0  0  0  0  0  0
   57.7230   30.9440   44.9050 C   0  0  0  0  0  0  0  0  0  0  0  0
   56.7080   29.6800   44.2010 S   0  0  0  0  0  0  0  0  0  0  0  0
   55.3640   29.7220   44.8720 O   0  0  0  0  0  0  0  0  0  0  0  0
   56.5060   29.9590   42.7370 O   0  0  0  0  0  0  0  0  0  0  0  0
   57.3830   28.0780   44.4010 N   0  0  0  0  0  0  0  0  0  0  0  0
   56.6560   27.2960   45.2700 O   0  0  0  0  0  0  0  0  0  0  0  0
   57.4250   26.9130   46.3950 C   0  0  0  0  0  0  0  0  0  0  0  0
   56.8864   27.1813   47.3158 H   0  0  0  0  0  0  0  0  0  0  0  0
   57.5927   25.8261   46.3717 H   0  0  0  0  0  0  0  0  0  0  0  0
   58.3935   27.4340   46.3717 H   0  0  0  0  0  0  0  0  0  0  0  0
   57.7750   27.4170   43.1460 C   0  0  0  0  0  0  0  0  0  0  0  0
   58.3238   26.4916   43.3749 H   0  0  0  0  0  0  0  0  0  0  0  0
   56.8746   27.1745   42.5625 H   0  0  0  0  0  0  0  0  0  0  0  0
   58.4196   28.0908   42.5625 H   0  0  0  0  0  0  0  0  0  0  0  0
   57.5850   32.2810   44.5140 C   0  0  0  0  0  0  0  0  0  0  0  0
   56.8380   32.5542   43.7542 H   0  0  0  0  0  0  0  0  0  0  0  0
   58.3690   33.2440   45.0680 N   0  0  0  0  0  0  0  0  0  0  0  0
   58.2420   34.2320   44.7500 H   0  0  0  0  0  0  0  0  0  0  0  0
   61.3630   33.8880   48.5490 C   0  0  0  0  0  0  0  0  0  0  0  0
   60.4331   33.9464   49.1338 H   0  0  0  0  0  0  0  0  0  0  0  0
   62.5990   33.8550   49.2070 C   0  0  0  0  0  0  0  0  0  0  0  0
   62.6640   33.8850   50.9990 S   0  0  0  0  0  0  0  0  0  0  0  0
   60.9180   33.4070   51.1900 C   0  0  0  0  0  0  0  0  0  0  0  0
   60.6713   33.3395   52.2598 H   0  0  0  0  0  0  0  0  0  0  0  0
   60.2767   34.1626   50.7128 H   0  0  0  0  0  0  0  0  0  0  0  0
   60.7510   32.4301   50.7128 H   0  0  0  0  0  0  0  0  0  0  0  0
   63.7840   33.8140   48.4630 C   0  0  0  0  0  0  0  0  0  0  0  0
   64.7555   33.7857   48.9781 H   0  0  0  0  0  0  0  0  0  0  0  0
  1  2  1  0
  2  3  2  0
  3  4  1  0
  3  5  1  0
  5  6  1  0
  6  7  2  0
  7  8  1  0
  8  9  1  0
  8 10  2  0
 10 11  1  0
 10 12  1  0
 12 13  1  0
 13 14  2  0
 13 15  2  0
 13 16  1  0
 16 17  1  0
 17 18  1  0
 18 19  1  0
 18 20  1  0
 18 21  1  0
 16 22  1  0
 22 23  1  0
 22 24  1  0
 22 25  1  0
 12 26  2  0
 26 27  1  0
 26 28  1  0
 28 29  1  0
  5 30  2  0
 30 31  1  0
 30 32  1  0
 32 33  1  0
 33 34  1  0
 34 35  1  0
 34 36  1  0
 34 37  1  0
 32 38  2  0
 38 39  1  0
 38  2  1  0
 28  7  1  0
M  END
>  <UniqueID>  (16) 
16

>  <SMILES>  (16) 
CON(C)S(=O)(=O)c1cc/c(=N\c2cccc(SC)c2)[nH]c1

>  <Energy>  (16) 
56.49537116295139

>  <Genealogy>  (16) 
CON(C)S(=O)(=O)c1cc/c(=N\c2cccc(SC)c2)[nH]c1 (cis-trans isomerization)
CON(C)S(=O)(=O)c1cc/c(=N\c2cccc(SC)c2)[nH]c1 (3D coordinates assigned)
CON(C)S(=O)(=O)c1cc/c(=N\c2cccc(SC)c2)[nH]c1 (optimized conformer: 56.49537116295139 kcal/mol)

>  <smiles>  (16) 
CON(C)S(=O)(=O)c1ccc(=Nc2cccc(SC)c2)[nH]c1

>  <score_type>  (16) 
oracle

>  <origin>  (16) 
adg

>  <m_score__min__energy>  (16) 
-7.8799999999999999

>  <m_primary>  (16) 
energy

$$$$
16:0
     RDKit          3D

 33 34  0  0  0  0  0  0  0  0999 V2000
   57.0120   31.0640   45.9970 H   0  0  0  0  0  0  0  0  0  0  0  0
   57.0310   31.8800   45.3800 O   0  0  0  0  0  0  0  0  0  0  0  0
   57.9130   32.9350   45.6310 C   0  0  0  0  0  0  0  0  0  0  0  0
   58.0690   33.9670   44.6920 C   0  0  0  0  0  0  0  0  0  0  0  0
   57.5185   33.9238   43.7406 H   0  0  0  0  0  0  0  0  0  0  0  0
   58.9140   35.0470   44.9510 C   0  0  0  0  0  0  0  0  0  0  0  0
   58.9615   35.8925   44.2489 H   0  0  0  0  0  0  0  0  0  0  0  0
   59.7010   35.0490   46.1090 C   0  0  0  0  0  0  0  0  0  0  0  0
   60.3696   35.8951   46.3262 H   0  0  0  0  0  0  0  0  0  0  0  0
   59.6270   33.9650   46.9840 C   0  0  0  0  0  0  0  0  0  0  0  0
   60.3283   33.9109   47.8297 H   0  0  0  0  0  0  0  0  0  0  0  0
   58.6810   32.9410   46.8140 C   0  0  0  0  0  0  0  0  0  0  0  0
   58.5430   31.7850   47.6940 C   0  0  0  0  0  0  0  0  0  0  0  0
   58.3225   31.9652   48.7565 H   0  0  0  0  0  0  0  0  0  0  0  0
   58.6660   30.5530   47.2930 N   0  0  0  0  0  0  0  0  0  0  0  0
   59.8300   29.7100   47.3520 C   0  0  0  0  0  0  0  0  0  0  0  0
   60.4490   29.5610   48.4370 O   0  0  0  0  0  0  0  0  0  0  0  0
   60.2540   28.8710   46.1820 C   0  0  0  0  0  0  0  0  0  0  0  0
   61.2011   29.2838   45.8044 H   0  0  0  0  0  0  0  0  0  0  0  0
   60.3169   27.8457   46.5755 H   0  0  0  0  0  0  0  0  0  0  0  0
   59.2760   28.7810   44.9870 C   0  0  0  0  0  0  0  0  0  0  0  0
   58.8464   29.7776   44.8072 H   0  0  0  0  0  0  0  0  0  0  0  0
   59.8448   28.4221   44.1166 H   0  0  0  0  0  0  0  0  0  0  0  0
   58.1780   27.8300   45.2260 N   0  0  0  0  0  0  0  0  0  0  0  0
   58.4520   26.5030   45.4010 C   0  0  0  0  0  0  0  0  0  0  0  0
   59.4783   26.1347   45.2560 H   0  0  0  0  0  0  0  0  0  0  0  0
   57.4390   25.6080   45.7630 C   0  0  0  0  0  0  0  0  0  0  0  0
   57.6619   24.5475   45.9519 H   0  0  0  0  0  0  0  0  0  0  0  0
   56.1440   26.0970   45.8770 C   0  0  0  0  0  0  0  0  0  0  0  0
   55.2020   25.3240   46.1970 O   0  0  0  0  0  0  0  0  0  0  0  0
   55.8910   27.4090   45.6500 N   0  0  0  0  0  0  0  0  0  0  0  0
   56.8800   28.2740   45.3330 C   0  0  0  0  0  0  0  0  0  0  0  0
   56.5920   29.4840   45.1570 O   0  0  0  0  0  0  0  0  0  0  0  0
  1  2  1  0
  2  3  1  0
  3  4  2  0
  4  5  1  0
  4  6  1  0
  6  7  1  0
  6  8  2  0
  8  9  1  0
  8 10  1  0
 10 11  1  0
 10 12  2  0
 12 13  1  0
 13 14  1  0
 13 15  2  0
 15 16  1  0
 16 17  2  0
 16 18  1  0
 18 19  1  0
 18 20  1  0
 18 21  1  0
 21 22  1  0
 21 23  1  0
 21 24  1  0
 24 25  1  0
 25 26  1  0
 25 27  2  0
 27 28  1  0
 27 29  1  0
 29 30  2  0
 29 31  1  0
 31 32  1  0
 32 33  2  0
 12  3  1  0
 32 24  1  0
M  CHG  1  31  -1
M  END
>  <UniqueID>  (17) 
17

>  <SMILES>  (17) 
O=C(CCn1ccc(=O)[n-]c1=O)/N=C\c1ccccc1O

>  <Energy>  (17) 
51.530269398667514

>  <Genealogy>  (17) 
O=C(CCn1ccc(=O)[n-]c1=O)N=Cc1ccccc1O (protonated)
O=C(CCn1ccc(=O)[n-]c1=O)/N=C\c1ccccc1O (cis-trans isomerization)
O=C(CCn1ccc(=O)[n-]c1=O)/N=C\c1ccccc1O (3D coordinates assigned)
O=C(CCn1ccc(=O)[n-]c1=O)/N=C\c1ccccc1O (optimized conformer: 51.530269398667514 kcal/mol)

>  <smiles>  (17) 
O=C(CCn1ccc(=O)[nH]c1=O)N=Cc1ccccc1O

>  <score_type>  (17) 
oracle

>  <origin>  (17) 
adg

>  <m_score__min__energy>  (17) 
-8.7400000000000002

>  <m_primary>  (17) 
energy

$$$$
17:0
     RDKit          3D

 48 51  0  0  0  0  0  0  0  0999 V2000
   58.7349   33.7913   48.7184 H   0  0  0  0  0  0  0  0  0  0  0  0
   58.8870   33.7250   47.6310 C   0  0  0  0  0  0  0  0  0  0  0  0
   57.6740   33.7300   46.4630 S   0  0  0  0  0  0  0  0  0  0  0  0
   58.7600   33.5860   45.1940 C   0  0  0  0  0  0  0  0  0  0  0  0
   58.4110   33.5640   43.9450 N   0  0  0  0  0  0  0  0  0  0  0  0
   58.1370   32.3690   43.2070 C   0  0  0  0  0  0  0  0  0  0  0  0
   58.3490   32.3460   41.9670 O   0  0  0  0  0  0  0  0  0  0  0  0
   57.4550   31.2320   43.8440 C   0  0  0  0  0  0  0  0  0  0  0  0
   56.2240   30.8000   43.3400 C   0  0  0  0  0  0  0  0  0  0  0  0
   55.7561   31.3379   42.5023 H   0  0  0  0  0  0  0  0  0  0  0  0
   55.5870   29.6900   43.8950 C   0  0  0  0  0  0  0  0  0  0  0  0
   54.6237   29.3508   43.4863 H   0  0  0  0  0  0  0  0  0  0  0  0
   56.1660   29.0070   44.9670 C   0  0  0  0  0  0  0  0  0  0  0  0
   55.5230   27.8840   45.4780 O   0  0  0  0  0  0  0  0  0  0  0  0
   57.3870   29.4530   45.5140 C   0  0  0  0  0  0  0  0  0  0  0  0
   58.0190   28.7470   46.6990 C   0  0  0  0  0  0  0  0  0  0  0  0
   58.7123   29.4464   47.1891 H   0  0  0  0  0  0  0  0  0  0  0  0
   57.1966   28.4341   47.3592 H   0  0  0  0  0  0  0  0  0  0  0  0
   58.7700   27.5220   46.3390 N   0  0  0  0  0  0  0  0  0  0  0  0
   58.0880   26.2400   46.6330 C   0  0  0  0  0  0  0  0  0  0  0  0
   58.7640   25.6125   47.2323 H   0  0  0  0  0  0  0  0  0  0  0  0
   57.1604   26.4768   47.1748 H   0  0  0  0  0  0  0  0  0  0  0  0
   57.6960   25.4660   45.3660 C   0  0  0  0  0  0  0  0  0  0  0  0
   58.5273   24.8105   45.0672 H   0  0  0  0  0  0  0  0  0  0  0  0
   56.8013   24.8607   45.5736 H   0  0  0  0  0  0  0  0  0  0  0  0
   57.4030   26.4020   44.2820 N   0  0  0  0  0  0  0  0  0  0  0  0
   57.0330   25.8560   43.4690 H   0  0  0  0  0  0  0  0  0  0  0  0
   58.6330   27.0810   43.8550 C   0  0  0  0  0  0  0  0  0  0  0  0
   59.2313   26.3811   43.2531 H   0  0  0  0  0  0  0  0  0  0  0  0
   58.3401   27.9675   43.2734 H   0  0  0  0  0  0  0  0  0  0  0  0
   59.4890   27.5650   45.0490 C   0  0  0  0  0  0  0  0  0  0  0  0
   60.3789   26.9227   45.1237 H   0  0  0  0  0  0  0  0  0  0  0  0
   59.7512   28.6159   44.8571 H   0  0  0  0  0  0  0  0  0  0  0  0
   58.0420   30.5480   44.9200 C   0  0  0  0  0  0  0  0  0  0  0  0
   59.0218   30.8704   45.3021 H   0  0  0  0  0  0  0  0  0  0  0  0
   60.0390   33.5480   45.6240 N   0  0  0  0  0  0  0  0  0  0  0  0
   60.1210   33.6220   46.9810 C   0  0  0  0  0  0  0  0  0  0  0  0
   61.4290   33.5890   47.6780 C   0  0  0  0  0  0  0  0  0  0  0  0
   61.5740   34.1030   48.9810 C   0  0  0  0  0  0  0  0  0  0  0  0
   60.7122   34.5625   49.4871 H   0  0  0  0  0  0  0  0  0  0  0  0
   62.8090   34.0320   49.6350 C   0  0  0  0  0  0  0  0  0  0  0  0
   62.9149   34.4358   50.6527 H   0  0  0  0  0  0  0  0  0  0  0  0
   63.9070   33.4500   48.9990 C   0  0  0  0  0  0  0  0  0  0  0  0
   64.8770   33.3971   49.5150 H   0  0  0  0  0  0  0  0  0  0  0  0
   63.7740   32.9350   47.7080 C   0  0  0  0  0  0  0  0  0  0  0  0
   64.6391   32.4743   47.2087 H   0  0  0  0  0  0  0  0  0  0  0  0
   62.5430   33.0040   47.0490 C   0  0  0  0  0  0  0  0  0  0  0  0
   62.4448   32.5980   46.0314 H   0  0  0  0  0  0  0  0  0  0  0  0
  1  2  1  0
  2  3  1  0
  3  4  1  0
  4  5  2  0
  5  6  1  0
  6  7  2  0
  6  8  1  0
  8  9  2  0
  9 10  1  0
  9 11  1  0
 11 12  1  0
 11 13  2  0
 13 14  1  0
 13 15  1  0
 15 16  1  0
 16 17  1  0
 16 18  1  0
 16 19  1  0
 19 20  1  0
 20 21  1  0
 20 22  1  0
 20 23  1  0
 23 24  1  0
 23 25  1  0
 23 26  1  0
 26 27  1  0
 26 28  1  0
 28 29  1  0
 28 30  1  0
 28 31  1  0
 31 32  1  0
 31 33  1  0
 15 34  2  0
 34 35  1  0
  4 36  1  0
 36 37  1  0
 37 38  1  0
 38 39  2  0
 39 40  1  0
 39 41  1  0
 41 42  1  0
 41 43  2  0
 43 44  1  0
 43 45  1  0
 45 46  1  0
 45 47  2  0
 47 48  1  0
 37  2  2  0
 47 38  1  0
 34  8  1  0
 31 19  1  0
M  CHG  2  14  -1  36  -1
M  END
>  <UniqueID>  (18) 
18

>  <SMILES>  (18) 
O=C(/N=c1\[n-]c(-c2ccccc2)cs1)c1ccc([O-])c(CN2CCNCC2)c1

>  <Energy>  (18) 
109.24536913281874

>  <Genealogy>  (18) 
O=C(N=c1[n-]c(-c2ccccc2)cs1)c1ccc([O-])c(CN2CCNCC2)c1 (protonated)
O=C(/N=c1\[n-]c(-c2ccccc2)cs1)c1ccc([O-])c(CN2CCNCC2)c1 (cis-trans isomerization)
O=C(/N=c1\[n-]c(-c2ccccc2)cs1)c1ccc([O-])c(CN2CCNCC2)c1 (3D coordinates assigned)
O=C(/N=c1\[n-]c(-c2ccccc2)cs1)c1ccc([O-])c(CN2CCNCC2)c1 (nonaromatic ring conformer: 109.24536913281874 kcal/mol)

>  <smiles>  (18) 
O=C(N=c1[nH]c(-c2ccccc2)cs1)c1ccc(O)c(CN2CCNCC2)c1

>  <score_type>  (18) 
oracle

>  <origin>  (18) 
adg

>  <m_score__min__energy>  (18) 
-13.199999999999999

>  <m_primary>  (18) 
energy

$$$$
18:0
     RDKit          3D

 56 59  0  0  0  0  0  0  0  0999 V2000
   57.5643   26.0228   42.0431 H   0  0  0  0  0  0  0  0  0  0  0  0
   57.9990   26.8510   42.6220 C   0  0  0  0  0  0  0  0  0  0  0  0
   58.4149   27.7266   42.1021 H   0  0  0  0  0  0  0  0  0  0  0  0
   58.0220   26.7930   43.9660 C   0  0  0  0  0  0  0  0  0  0  0  0
   58.5900   27.8810   44.6490 C   0  0  0  0  0  0  0  0  0  0  0  0
   58.7955   28.8137   44.1033 H   0  0  0  0  0  0  0  0  0  0  0  0
   58.8970   27.8000   46.0020 C   0  0  0  0  0  0  0  0  0  0  0  0
   59.4330   28.9350   46.6300 O   0  0  0  0  0  0  0  0  0  0  0  0
   58.9620   30.2650   46.4410 C   0  0  0  0  0  0  0  0  0  0  0  0
   59.5451   30.7523   45.6457 H   0  0  0  0  0  0  0  0  0  0  0  0
   57.9008   30.2438   46.1523 H   0  0  0  0  0  0  0  0  0  0  0  0
   59.1210   31.0310   47.7210 C   0  0  0  0  0  0  0  0  0  0  0  0
   59.1000   32.4350   47.7180 C   0  0  0  0  0  0  0  0  0  0  0  0
   58.9372   32.9782   46.7755 H   0  0  0  0  0  0  0  0  0  0  0  0
   59.2850   33.1450   48.9070 C   0  0  0  0  0  0  0  0  0  0  0  0
   59.2595   34.2447   48.8983 H   0  0  0  0  0  0  0  0  0  0  0  0
   59.5030   32.4610   50.1110 C   0  0  0  0  0  0  0  0  0  0  0  0
   59.7800   33.3520   51.6050 S   0  0  0  0  0  0  0  0  0  0  0  0
   59.4410   32.4740   52.7770 O   0  0  0  0  0  0  0  0  0  0  0  0
   58.8970   34.5680   51.6510 O   0  0  0  0  0  0  0  0  0  0  0  0
   61.4430   33.8300   51.7140 N   0  0  0  0  0  0  0  0  0  0  0  0
   62.1720   33.2440   50.5940 C   0  0  0  0  0  0  0  0  0  0  0  0
   61.7507   32.2297   50.6546 H   0  0  0  0  0  0  0  0  0  0  0  0
   62.4390   34.2470   49.4870 C   0  0  0  0  0  0  0  0  0  0  0  0
   62.4279   33.9222   48.4361 H   0  0  0  0  0  0  0  0  0  0  0  0
   62.0057   35.2143   49.1926 H   0  0  0  0  0  0  0  0  0  0  0  0
   63.5690   33.8100   50.4060 C   0  0  0  0  0  0  0  0  0  0  0  0
   64.3752   33.1687   50.0203 H   0  0  0  0  0  0  0  0  0  0  0  0
   64.2919   34.3295   51.0522 H   0  0  0  0  0  0  0  0  0  0  0  0
   59.5470   31.0600   50.1130 C   0  0  0  0  0  0  0  0  0  0  0  0
   59.7293   30.5187   51.0531 H   0  0  0  0  0  0  0  0  0  0  0  0
   59.3600   30.3480   48.9240 C   0  0  0  0  0  0  0  0  0  0  0  0
   59.4003   29.2488   48.9314 H   0  0  0  0  0  0  0  0  0  0  0  0
   58.6990   26.5900   46.6770 C   0  0  0  0  0  0  0  0  0  0  0  0
   58.9733   26.5149   47.7396 H   0  0  0  0  0  0  0  0  0  0  0  0
   58.1550   25.4650   46.0230 C   0  0  0  0  0  0  0  0  0  0  0  0
   58.0300   24.1450   46.7920 C   0  0  0  0  0  0  0  0  0  0  0  0
   57.7432   23.3635   46.0730 H   0  0  0  0  0  0  0  0  0  0  0  0
   59.0099   23.9864   47.2660 H   0  0  0  0  0  0  0  0  0  0  0  0
   57.0050   24.1230   47.9450 C   0  0  0  0  0  0  0  0  0  0  0  0
   57.5500   24.0934   48.9001 H   0  0  0  0  0  0  0  0  0  0  0  0
   56.3868   25.0287   47.8579 H   0  0  0  0  0  0  0  0  0  0  0  0
   56.0690   22.9160   47.8780 C   0  0  0  0  0  0  0  0  0  0  0  0
   55.8167   22.5906   48.8980 H   0  0  0  0  0  0  0  0  0  0  0  0
   55.1487   23.1949   47.3439 H   0  0  0  0  0  0  0  0  0  0  0  0
   56.5682   22.0941   47.3439 H   0  0  0  0  0  0  0  0  0  0  0  0
   57.6180   25.6330   44.7050 C   0  0  0  0  0  0  0  0  0  0  0  0
   56.7020   24.7400   44.2280 C   0  0  0  0  0  0  0  0  0  0  0  0
   56.9653   24.1932   43.3106 H   0  0  0  0  0  0  0  0  0  0  0  0
   55.3870   24.4430   44.8360 C   0  0  0  0  0  0  0  0  0  0  0  0
   54.6670   23.3280   44.6130 N   0  0  0  0  0  0  0  0  0  0  0  0
   53.5160   23.5600   45.2830 C   0  0  0  0  0  0  0  0  0  0  0  0
   52.5760   22.7250   45.3210 O   0  0  0  0  0  0  0  0  0  0  0  0
   53.4500   24.7600   45.8970 N   0  0  0  0  0  0  0  0  0  0  0  0
   54.6370   25.3100   45.5940 C   0  0  0  0  0  0  0  0  0  0  0  0
   55.0250   26.5800   46.0000 O   0  0  0  0  0  0  0  0  0  0  0  0
  1  2  1  0
  2  3  1  0
  2  4  2  0
  4  5  1  0
  5  6  1  0
  5  7  2  0
  7  8  1  0
  8  9  1  0
  9 10  1  0
  9 11  1  0
  9 12  1  0
 12 13  2  0
 13 14  1  0
 13 15  1  0
 15 16  1  0
 15 17  2  0
 17 18  1  0
 18 19  2  0
 18 20  2  0
 18 21  1  0
 21 22  1  0
 22 23  1  0
 22 24  1  0
 24 25  1  0
 24 26  1  0
 24 27  1  0
 27 28  1  0
 27 29  1  0
 17 30  1  0
 30 31  1  0
 30 32  2  0
 32 33  1  0
  7 34  1  0
 34 35  1  0
 34 36  2  0
 36 37  1  0
 37 38  1  0
 37 39  1  0
 37 40  1  0
 40 41  1  0
 40 42  1  0
 40 43  1  0
 43 44  1  0
 43 45  1  0
 43 46  1  0
 36 47  1  0
 47 48  2  0
 48 49  1  0
 48 50  1  0
 50 51  1  0
 51 52  1  0
 52 53  2  0
 52 54  1  0
 54 55  1  0
 55 56  1  0
 47  4  1  0
 55 50  2  0
 32 12  1  0
 27 22  1  0
M  CHG  4  21  -1  51  -1  54  -1  56  -1
M  END
>  <UniqueID>  (19) 
19

>  <SMILES>  (19) 
C=c1cc(OCc2ccc(S(=O)(=O)[N-]C3CC3)cc2)cc(CCC)/c1=C/c1[n-]c(=O)[n-]c1[O-]

>  <Energy>  (19) 
374.5152449209771

>  <Genealogy>  (19) 
C=c1cc(OCc2ccc(S(=O)(=O)[N-]C3CC3)cc2)cc(CCC)c1=Cc1[n-]c(=O)[n-]c1[O-] (protonated)
C=c1cc(OCc2ccc(S(=O)(=O)[N-]C3CC3)cc2)cc(CCC)/c1=C/c1[n-]c(=O)[n-]c1[O-] (cis-trans isomerization)
C=c1cc(OCc2ccc(S(=O)(=O)[N-]C3CC3)cc2)cc(CCC)/c1=C/c1[n-]c(=O)[n-]c1[O-] (3D coordinates assigned)
C=c1cc(OCc2ccc(S(=O)(=O)[N-]C3CC3)cc2)cc(CCC)/c1=C/c1[n-]c(=O)[n-]c1[O-] (nonaromatic ring conformer: 374.5152449209771 kcal/mol)

>  <smiles>  (19) 
C=c1cc(OCc2ccc(S(=O)(=O)NC3CC3)cc2)cc(CCC)c1=Cc1[nH]c(=O)[nH]c1O

>  <score_type>  (19) 
oracle

>  <origin>  (19) 
adg

>  <m_score__min__energy>  (19) 
-17.02

>  <m_primary>  (19) 
energy

$$$$
19:0
     RDKit          3D

 45 47  0  0  0  0  0  0  0  0999 V2000
   55.1360   26.7330   46.0170 O   0  0  0  0  0  0  0  0  0  0  0  0
   55.8200   25.6800   45.9350 C   0  0  0  0  0  0  0  0  0  0  0  0
   55.3290   24.4990   46.4780 O   0  0  0  0  0  0  0  0  0  0  0  0
   57.1470   25.6960   45.2420 C   0  0  0  0  0  0  0  0  0  0  0  0
   58.2210   26.2420   46.1630 C   0  0  0  0  0  0  0  0  0  0  0  0
   59.1000   27.2900   45.7810 C   0  0  0  0  0  0  0  0  0  0  0  0
   59.0920   27.9270   44.4130 C   0  0  0  0  0  0  0  0  0  0  0  0
   58.0900   29.0540   44.3360 C   0  0  0  0  0  0  0  0  0  0  0  0
   56.7170   28.8080   44.5070 C   0  0  0  0  0  0  0  0  0  0  0  0
   55.7990   29.8610   44.4570 C   0  0  0  0  0  0  0  0  0  0  0  0
   56.2410   31.1690   44.2530 C   0  0  0  0  0  0  0  0  0  0  0  0
   57.6100   31.4370   44.1040 C   0  0  0  0  0  0  0  0  0  0  0  0
   58.0810   32.8390   43.8350 C   0  0  0  0  0  0  0  0  0  0  0  0
   58.3360   33.7120   45.3710 S   0  0  0  0  0  0  0  0  0  0  0  0
   59.1070   34.9760   45.1080 O   0  0  0  0  0  0  0  0  0  0  0  0
   57.0060   34.0780   45.9670 O   0  0  0  0  0  0  0  0  0  0  0  0
   59.2240   32.6910   46.4980 C   0  0  0  0  0  0  0  0  0  0  0  0
   58.5620   31.6840   47.2150 C   0  0  0  0  0  0  0  0  0  0  0  0
   59.2650   30.9050   48.1400 C   0  0  0  0  0  0  0  0  0  0  0  0
   60.6250   31.1340   48.3590 C   0  0  0  0  0  0  0  0  0  0  0  0
   61.2860   32.1450   47.6550 C   0  0  0  0  0  0  0  0  0  0  0  0
   60.5880   32.9240   46.7270 C   0  0  0  0  0  0  0  0  0  0  0  0
   58.5290   30.3750   44.1390 C   0  0  0  0  0  0  0  0  0  0  0  0
   60.0170   27.7470   46.6770 N   0  0  0  0  0  0  0  0  0  0  0  0
   60.1050   27.2430   47.9310 C   0  0  0  0  0  0  0  0  0  0  0  0
   60.9640   27.7010   48.7290 O   0  0  0  0  0  0  0  0  0  0  0  0
   59.2670   26.2520   48.3270 N   0  0  0  0  0  0  0  0  0  0  0  0
   58.3300   25.7490   47.4810 C   0  0  0  0  0  0  0  0  0  0  0  0
   57.5580   24.8390   47.8890 O   0  0  0  0  0  0  0  0  0  0  0  0
   57.4123   24.6708   44.9445 H   0  0  0  0  0  0  0  0  0  0  0  0
   57.0771   26.3425   44.3548 H   0  0  0  0  0  0  0  0  0  0  0  0
   60.0948   28.3243   44.1973 H   0  0  0  0  0  0  0  0  0  0  0  0
   58.8089   27.1610   43.6760 H   0  0  0  0  0  0  0  0  0  0  0  0
   56.3628   27.7813   44.6811 H   0  0  0  0  0  0  0  0  0  0  0  0
   54.7248   29.6580   44.5788 H   0  0  0  0  0  0  0  0  0  0  0  0
   55.5133   31.9928   44.2089 H   0  0  0  0  0  0  0  0  0  0  0  0
   59.0280   32.8028   43.2766 H   0  0  0  0  0  0  0  0  0  0  0  0
   57.3163   33.3667   43.2461 H   0  0  0  0  0  0  0  0  0  0  0  0
   57.4890   31.5065   47.0499 H   0  0  0  0  0  0  0  0  0  0  0  0
   58.7456   30.1106   48.6959 H   0  0  0  0  0  0  0  0  0  0  0  0
   61.1763   30.5189   49.0855 H   0  0  0  0  0  0  0  0  0  0  0  0
   62.3563   32.3278   47.8313 H   0  0  0  0  0  0  0  0  0  0  0  0
   61.1093   33.7206   46.1759 H   0  0  0  0  0  0  0  0  0  0  0  0
   59.6023   30.5790   44.0110 H   0  0  0  0  0  0  0  0  0  0  0  0
   59.3400   25.8750   49.2990 H   0  0  0  0  0  0  0  0  0  0  0  0
  1  2  2  0
  2  3  1  0
  2  4  1  0
  4  5  1  0
  5  6  2  0
  6  7  1  0
  7  8  1  0
  8  9  2  0
  9 10  1  0
 10 11  2  0
 11 12  1  0
 12 13  1  0
 13 14  1  0
 14 15  2  0
 14 16  2  0
 14 17  1  0
 17 18  2  0
 18 19  1  0
 19 20  2  0
 20 21  1  0
 21 22  2  0
 12 23  2  0
  6 24  1  0
 24 25  1  0
 25 26  2  0
 25 27  1  0
 27 28  1  0
 28 29  2  0
 28  5  1  0
 23  8  1  0
 22 17  1  0
  4 30  1  0
  4 31  1  0
  7 32  1  0
  7 33  1  0
  9 34  1  0
 10 35  1  0
 11 36  1  0
 13 37  1  0
 13 38  1  0
 18 39  1  0
 19 40  1  0
 20 41  1  0
 21 42  1  0
 22 43  1  0
 23 44  1  0
 27 45  1  0
M  CHG  2   3  -1  24  -1
M  END
>  <UniqueID>  (20) 
20

>  <SMILES>  (20) 
O=C([O-])Cc1c(Cc2cccc(CS(=O)(=O)c3ccccc3)c2)[n-]c(=O)[nH]c1=O

>  <Energy>  (20) 
43.53371379123481

>  <Genealogy>  (20) 
O=C([O-])Cc1c(Cc2cccc(CS(=O)(=O)c3ccccc3)c2)[n-]c(=O)[nH]c1=O (protonated)
O=C([O-])Cc1c(Cc2cccc(CS(=O)(=O)c3ccccc3)c2)[n-]c(=O)[nH]c1=O (3D coordinates assigned)
O=C([O-])Cc1c(Cc2cccc(CS(=O)(=O)c3ccccc3)c2)[n-]c(=O)[nH]c1=O (optimized conformer: 43.53371379123481 kcal/mol)

>  <smiles>  (20) 
O=C(O)Cc1c(Cc2cccc(CS(=O)(=O)c3ccccc3)c2)[nH]c(=O)[nH]c1=O

>  <score_type>  (20) 
oracle

>  <origin>  (20) 
adg

>  <m_score__min__energy>  (20) 
-14.32

>  <m_primary>  (20) 
energy

$$$$
20:0
     RDKit          3D

 61 65  0  0  0  0  0  0  0  0999 V2000
   54.7760   30.8410   51.5810 C   0  0  0  0  0  0  0  0  0  0  0  0
   54.6930   30.0230   52.6410 C   0  0  0  0  0  0  0  0  0  0  0  0
   53.5400   29.3920   53.1400 C   0  0  0  0  0  0  0  0  0  0  0  0
   52.2380   29.5490   52.8310 C   0  0  0  0  0  0  0  0  0  0  0  0
   51.6310   30.7590   52.2610 C   0  0  0  0  0  0  0  0  0  0  0  0
   51.1730   31.7780   53.0090 N   0  0  0  0  0  0  0  0  0  0  0  0
   50.8060   32.6980   52.0900 C   0  0  0  0  0  0  0  0  0  0  0  0
   50.3040   33.8090   52.4060 O   0  0  0  0  0  0  0  0  0  0  0  0
   51.0260   32.3390   50.8070 N   0  0  0  0  0  0  0  0  0  0  0  0
   51.5640   31.1140   50.9290 C   0  0  0  0  0  0  0  0  0  0  0  0
   52.0000   30.3590   49.8430 O   0  0  0  0  0  0  0  0  0  0  0  0
   53.9780   28.4910   54.0980 C   0  0  0  0  0  0  0  0  0  0  0  0
   55.3440   28.6390   54.1980 C   0  0  0  0  0  0  0  0  0  0  0  0
   56.2190   27.8550   55.1270 C   0  0  0  0  0  0  0  0  0  0  0  0
   55.7820   29.5650   53.3150 N   0  0  0  0  0  0  0  0  0  0  0  0
   57.1550   29.9500   53.1110 C   0  0  0  0  0  0  0  0  0  0  0  0
   58.1210   28.9840   52.8020 C   0  0  0  0  0  0  0  0  0  0  0  0
   59.4520   29.3570   52.6020 C   0  0  0  0  0  0  0  0  0  0  0  0
   59.8370   30.7060   52.7000 C   0  0  0  0  0  0  0  0  0  0  0  0
   61.2500   31.1090   52.4890 C   0  0  0  0  0  0  0  0  0  0  0  0
   62.1200   30.8190   53.3530 O   0  0  0  0  0  0  0  0  0  0  0  0
   61.6580   31.8050   51.3000 N   0  0  0  0  0  0  0  0  0  0  0  0
   61.0940   31.3530   50.0220 C   0  0  0  0  0  0  0  0  0  0  0  0
   61.8720   31.8930   48.8140 C   0  0  0  0  0  0  0  0  0  0  0  0
   62.1070   33.4210   48.9120 C   0  0  2  0  0  0  0  0  0  0  0  0
   60.7890   34.1720   48.9910 C   0  0  0  0  0  0  0  0  0  0  0  0
   60.0980   34.4820   47.8860 C   0  0  0  0  0  0  0  0  0  0  0  0
   60.5380   34.0390   46.5140 C   0  0  0  0  0  0  0  0  0  0  0  0
   62.0630   33.8110   46.3630 C   0  0  0  0  0  0  0  0  0  0  0  0
   62.8710   33.9410   47.6690 C   0  0  0  0  0  0  0  0  0  0  0  0
   62.9580   33.7070   50.1720 C   0  0  0  0  0  0  0  0  0  0  0  0
   62.4350   33.0160   51.4000 C   0  0  0  0  0  0  0  0  0  0  0  0
   62.7650   33.4650   52.5310 O   0  0  0  0  0  0  0  0  0  0  0  0
   58.8650   31.6700   53.0220 C   0  0  0  0  0  0  0  0  0  0  0  0
   57.5350   31.2940   53.2240 C   0  0  0  0  0  0  0  0  0  0  0  0
   55.7463   31.2721   51.2936 H   0  0  0  0  0  0  0  0  0  0  0  0
   53.8737   31.0807   50.9993 H   0  0  0  0  0  0  0  0  0  0  0  0
   51.5707   28.6957   53.0225 H   0  0  0  0  0  0  0  0  0  0  0  0
   52.8740   30.5640   49.3740 H   0  0  0  0  0  0  0  0  0  0  0  0
   53.3528   27.7900   54.6704 H   0  0  0  0  0  0  0  0  0  0  0  0
   55.9541   28.0923   56.1679 H   0  0  0  0  0  0  0  0  0  0  0  0
   56.0734   26.7795   54.9477 H   0  0  0  0  0  0  0  0  0  0  0  0
   57.2721   28.1174   54.9477 H   0  0  0  0  0  0  0  0  0  0  0  0
   57.8300   27.9266   52.7164 H   0  0  0  0  0  0  0  0  0  0  0  0
   60.2045   28.5901   52.3661 H   0  0  0  0  0  0  0  0  0  0  0  0
   61.1181   30.2536   49.9946 H   0  0  0  0  0  0  0  0  0  0  0  0
   60.0650   31.7360   49.9560 H   0  0  0  0  0  0  0  0  0  0  0  0
   62.8470   31.3861   48.7639 H   0  0  0  0  0  0  0  0  0  0  0  0
   61.2756   31.6979   47.9105 H   0  0  0  0  0  0  0  0  0  0  0  0
   60.3944   34.4670   49.9745 H   0  0  0  0  0  0  0  0  0  0  0  0
   59.1795   35.0794   47.9830 H   0  0  0  0  0  0  0  0  0  0  0  0
   60.0258   33.0944   46.2787 H   0  0  0  0  0  0  0  0  0  0  0  0
   60.2775   34.8569   45.8261 H   0  0  0  0  0  0  0  0  0  0  0  0
   62.2192   32.7979   45.9640 H   0  0  0  0  0  0  0  0  0  0  0  0
   62.4287   34.6037   45.6938 H   0  0  0  0  0  0  0  0  0  0  0  0
   63.8015   33.3639   47.5636 H   0  0  0  0  0  0  0  0  0  0  0  0
   63.0655   35.0119   47.8285 H   0  0  0  0  0  0  0  0  0  0  0  0
   63.9862   33.3629   49.9867 H   0  0  0  0  0  0  0  0  0  0  0  0
   62.9165   34.7901   50.3596 H   0  0  0  0  0  0  0  0  0  0  0  0
   59.1541   32.7272   53.1154 H   0  0  0  0  0  0  0  0  0  0  0  0
   56.7823   32.0566   53.4730 H   0  0  0  0  0  0  0  0  0  0  0  0
  1  2  2  0
  2  3  1  0
  3  4  2  3
  4  5  1  0
  5  6  1  0
  6  7  1  0
  7  8  2  0
  7  9  1  0
  9 10  1  0
 10 11  1  0
  3 12  1  0
 12 13  2  0
 13 14  1  0
 13 15  1  0
 15 16  1  0
 16 17  2  0
 17 18  1  0
 18 19  2  0
 19 20  1  0
 20 21  2  0
 20 22  1  0
 22 23  1  0
 23 24  1  0
 25 24  1  6
 25 26  1  0
 26 27  2  0
 27 28  1  0
 28 29  1  0
 29 30  1  0
 25 31  1  0
 31 32  1  0
 32 33  2  0
 19 34  1  0
 34 35  2  0
 15  2  1  0
 35 16  1  0
 10  5  2  0
 32 22  1  0
 30 25  1  0
  1 36  1  0
  1 37  1  0
  4 38  1  0
 11 39  1  0
 12 40  1  0
 14 41  1  0
 14 42  1  0
 14 43  1  0
 17 44  1  0
 18 45  1  0
 23 46  1  0
 23 47  1  0
 24 48  1  0
 24 49  1  0
 26 50  1  0
 27 51  1  0
 28 52  1  0
 28 53  1  0
 29 54  1  0
 29 55  1  0
 30 56  1  0
 30 57  1  0
 31 58  1  0
 31 59  1  0
 34 60  1  0
 35 61  1  0
M  CHG  2   6  -1   9  -1
M  END
>  <UniqueID>  (21) 
21

>  <SMILES>  (21) 
C=c1c(=Cc2[n-]c(=O)[n-]c2O)cc(C)n1-c1ccc(C(=O)N2CC[C@@]3(C=CCCC3)CC2=O)cc1

>  <Energy>  (21) 
151.17352750530034

>  <Genealogy>  (21) 
C=c1c(=Cc2[n-]c(=O)[n-]c2O)cc(C)n1-c1ccc(C(=O)N2CCC3(C=CCCC3)CC2=O)cc1 (protonated)
C=c1c(=Cc2[n-]c(=O)[n-]c2O)cc(C)n1-c1ccc(C(=O)N2CC[C@@]3(C=CCCC3)CC2=O)cc1 (chirality)
C=c1c(=Cc2[n-]c(=O)[n-]c2O)cc(C)n1-c1ccc(C(=O)N2CC[C@@]3(C=CCCC3)CC2=O)cc1 (3D coordinates assigned)
C=c1c(=Cc2[n-]c(=O)[n-]c2O)cc(C)n1-c1ccc(C(=O)N2CC[C@@]3(C=CCCC3)CC2=O)cc1 (nonaromatic ring conformer: 151.17352750530034 kcal/mol)

>  <smiles>  (21) 
C=c1c(=Cc2[nH]c(=O)[nH]c2O)cc(C)n1-c1ccc(C(=O)N2CCC3(C=CCCC3)CC2=O)cc1

>  <score_type>  (21) 
oracle

>  <origin>  (21) 
adg

>  <m_score__min__energy>  (21) 
-14.84

>  <m_primary>  (21) 
energy

$$$$
21:0
     RDKit          3D

 52 54  0  0  0  0  0  0  0  0999 V2000
   55.2120   22.4170   45.3250 C   0  0  0  0  0  0  0  0  0  0  0  0
   54.6280   23.7130   46.4020 S   0  0  0  0  0  0  0  0  0  0  0  0
   53.4650   24.4030   45.7450 O   0  0  0  0  0  0  0  0  0  0  0  0
   54.1570   23.0970   47.6890 O   0  0  0  0  0  0  0  0  0  0  0  0
   55.8800   24.8820   46.7510 N   0  0  0  0  0  0  0  0  0  0  0  0
   57.2340   24.2820   46.6410 C   0  0  0  0  0  0  0  0  0  0  0  0
   58.0030   24.7410   45.3920 C   0  0  0  0  0  0  0  0  0  0  0  0
   58.1500   26.2720   45.3560 C   0  0  0  0  0  0  0  0  0  0  0  0
   56.9340   26.9960   45.9810 C   0  0  1  0  0  0  0  0  0  0  0  0
   56.7300   28.3710   45.3810 C   0  0  0  0  0  0  0  0  0  0  0  0
   55.5470   28.7820   45.2320 O   0  0  0  0  0  0  0  0  0  0  0  0
   57.8210   29.2170   44.9630 N   0  0  0  0  0  0  0  0  0  0  0  0
   58.9360   29.5380   45.8650 C   0  0  0  0  0  0  0  0  0  0  0  0
   59.2590   31.0390   45.8110 C   0  0  0  0  0  0  0  0  0  0  0  0
   58.0330   31.7960   45.5080 N   0  0  0  0  0  0  0  0  0  0  0  0
   58.3190   33.5050   45.7160 S   0  0  0  0  0  0  0  0  0  0  0  0
   57.0660   34.1800   46.1980 O   0  0  0  0  0  0  0  0  0  0  0  0
   58.7290   34.1160   44.4030 O   0  0  0  0  0  0  0  0  0  0  0  0
   59.5830   33.7400   46.9180 C   0  0  0  0  0  0  0  0  0  0  0  0
   59.2620   34.0140   48.2570 C   0  0  0  0  0  0  0  0  0  0  0  0
   60.2790   34.2130   49.1970 C   0  0  0  0  0  0  0  0  0  0  0  0
   61.6200   34.1400   48.8040 C   0  0  0  0  0  0  0  0  0  0  0  0
   62.8940   34.3920   49.9820 Cl  0  0  0  0  0  0  0  0  0  0  0  0
   61.9430   33.8670   47.4700 C   0  0  0  0  0  0  0  0  0  0  0  0
   60.9270   33.6690   46.5290 C   0  0  0  0  0  0  0  0  0  0  0  0
   57.5650   31.5290   44.1300 C   0  0  0  0  0  0  0  0  0  0  0  0
   57.6760   30.0360   43.7550 C   0  0  0  0  0  0  0  0  0  0  0  0
   55.6780   26.1060   45.9450 C   0  0  0  0  0  0  0  0  0  0  0  0
   55.5894   21.5796   45.9302 H   0  0  0  0  0  0  0  0  0  0  0  0
   54.3846   22.0671   44.6903 H   0  0  0  0  0  0  0  0  0  0  0  0
   56.0223   22.8050   44.6903 H   0  0  0  0  0  0  0  0  0  0  0  0
   57.8144   24.5645   47.5317 H   0  0  0  0  0  0  0  0  0  0  0  0
   57.1020   23.1929   46.5603 H   0  0  0  0  0  0  0  0  0  0  0  0
   59.0041   24.2852   45.4002 H   0  0  0  0  0  0  0  0  0  0  0  0
   57.4386   24.4258   44.5020 H   0  0  0  0  0  0  0  0  0  0  0  0
   59.0544   26.5533   45.9153 H   0  0  0  0  0  0  0  0  0  0  0  0
   58.2169   26.5778   44.3015 H   0  0  0  0  0  0  0  0  0  0  0  0
   57.1465   27.1741   47.0455 H   0  0  0  0  0  0  0  0  0  0  0  0
   58.6592   29.2644   46.8938 H   0  0  0  0  0  0  0  0  0  0  0  0
   59.8241   28.9721   45.5471 H   0  0  0  0  0  0  0  0  0  0  0  0
   59.6587   31.3629   46.7833 H   0  0  0  0  0  0  0  0  0  0  0  0
   60.0069   31.2243   45.0260 H   0  0  0  0  0  0  0  0  0  0  0  0
   58.2084   34.0724   48.5678 H   0  0  0  0  0  0  0  0  0  0  0  0
   60.0243   34.4270   50.2455 H   0  0  0  0  0  0  0  0  0  0  0  0
   62.9971   33.8080   47.1610 H   0  0  0  0  0  0  0  0  0  0  0  0
   61.1841   33.4570   45.4807 H   0  0  0  0  0  0  0  0  0  0  0  0
   56.5124   31.8376   44.0475 H   0  0  0  0  0  0  0  0  0  0  0  0
   58.2048   32.0987   43.4400 H   0  0  0  0  0  0  0  0  0  0  0  0
   56.7680   29.7290   43.2153 H   0  0  0  0  0  0  0  0  0  0  0  0
   58.5605   29.8922   43.1170 H   0  0  0  0  0  0  0  0  0  0  0  0
   54.8249   26.6691   46.3514 H   0  0  0  0  0  0  0  0  0  0  0  0
   55.4816   25.8142   44.9028 H   0  0  0  0  0  0  0  0  0  0  0  0
  1  2  1  0
  2  3  2  0
  2  4  2  0
  2  5  1  0
  5  6  1  0
  6  7  1  0
  7  8  1  0
  8  9  1  0
  9 10  1  0
 10 11  2  0
 10 12  1  0
 12 13  1  0
 13 14  1  0
 14 15  1  0
 15 16  1  0
 16 17  2  0
 16 18  2  0
 16 19  1  0
 19 20  2  0
 20 21  1  0
 21 22  2  0
 22 23  1  0
 22 24  1  0
 24 25  2  0
 15 26  1  0
 26 27  1  0
  9 28  1  0
 28  5  1  0
 27 12  1  0
 25 19  1  0
  1 29  1  0
  1 30  1  0
  1 31  1  0
  6 32  1  0
  6 33  1  0
  7 34  1  0
  7 35  1  0
  8 36  1  0
  8 37  1  0
  9 38  1  1
 13 39  1  0
 13 40  1  0
 14 41  1  0
 14 42  1  0
 20 43  1  0
 21 44  1  0
 24 45  1  0
 25 46  1  0
 26 47  1  0
 26 48  1  0
 27 49  1  0
 27 50  1  0
 28 51  1  0
 28 52  1  0
M  END
>  <UniqueID>  (22) 
22

>  <SMILES>  (22) 
CS(=O)(=O)N1CCC[C@@H](C(=O)N2CCN(S(=O)(=O)c3ccc(Cl)cc3)CC2)C1

>  <Energy>  (22) 
62.85517934433913

>  <Genealogy>  (22) 
CS(=O)(=O)N1CCC[C@@H](C(=O)N2CCN(S(=O)(=O)c3ccc(Cl)cc3)CC2)C1 (chirality)
CS(=O)(=O)N1CCC[C@@H](C(=O)N2CCN(S(=O)(=O)c3ccc(Cl)cc3)CC2)C1 (3D coordinates assigned)
CS(=O)(=O)N1CCC[C@@H](C(=O)N2CCN(S(=O)(=O)c3ccc(Cl)cc3)CC2)C1 (nonaromatic ring conformer: 62.85517934433913 kcal/mol)

>  <smiles>  (22) 
CS(=O)(=O)N1CCCC(C(=O)N2CCN(S(=O)(=O)c3ccc(Cl)cc3)CC2)C1

>  <score_type>  (22) 
oracle

>  <origin>  (22) 
adg

>  <m_score__min__energy>  (22) 
-9.5899999999999999

>  <m_primary>  (22) 
energy

$$$$
22:0
     RDKit          3D

 60 63  0  0  0  0  0  0  0  0999 V2000
   55.2901   21.5264   45.0989 H   0  0  0  0  0  0  0  0  0  0  0  0
   55.2280   22.6020   45.3210 C   0  0  0  0  0  0  0  0  0  0  0  0
   56.2790   23.2370   45.9060 N   0  0  0  0  0  0  0  0  0  0  0  0
   56.2630   24.5670   46.1980 C   0  0  0  0  0  0  0  0  0  0  0  0
   57.3230   25.0780   46.7640 N   0  0  0  0  0  0  0  0  0  0  0  0
   58.2770   25.9780   46.1840 C   0  0  0  0  0  0  0  0  0  0  0  0
   59.4640   25.5890   46.0220 O   0  0  0  0  0  0  0  0  0  0  0  0
   57.9010   27.3650   45.8270 C   0  0  0  0  0  0  0  0  0  0  0  0
   57.4030   27.6610   44.5490 C   0  0  0  0  0  0  0  0  0  0  0  0
   57.2605   26.8509   43.8186 H   0  0  0  0  0  0  0  0  0  0  0  0
   57.0860   28.9770   44.1950 C   0  0  0  0  0  0  0  0  0  0  0  0
   56.6772   29.1936   43.1970 H   0  0  0  0  0  0  0  0  0  0  0  0
   57.2890   30.0240   45.1130 C   0  0  0  0  0  0  0  0  0  0  0  0
   57.0490   31.3710   44.7970 O   0  0  0  0  0  0  0  0  0  0  0  0
   58.0510   32.3620   44.5450 C   0  0  0  0  0  0  0  0  0  0  0  0
   58.3933   32.3123   43.5008 H   0  0  0  0  0  0  0  0  0  0  0  0
   59.2540   32.0900   45.4640 C   0  0  0  0  0  0  0  0  0  0  0  0
   60.1604   32.5087   45.0023 H   0  0  0  0  0  0  0  0  0  0  0  0
   59.3534   31.0024   45.5957 H   0  0  0  0  0  0  0  0  0  0  0  0
   59.0530   32.7310   46.8440 C   0  0  0  0  0  0  0  0  0  0  0  0
   59.9416   32.5241   47.4584 H   0  0  0  0  0  0  0  0  0  0  0  0
   58.1407   32.2952   47.2773 H   0  0  0  0  0  0  0  0  0  0  0  0
   58.8530   34.2060   46.7820 N   0  0  0  0  0  0  0  0  0  0  0  0
   60.0190   34.9540   47.2940 C   0  0  0  0  0  0  0  0  0  0  0  0
   59.6905   35.9477   47.6325 H   0  0  0  0  0  0  0  0  0  0  0  0
   60.7593   35.0520   46.4863 H   0  0  0  0  0  0  0  0  0  0  0  0
   60.6570   34.2200   48.4530 C   0  0  0  0  0  0  0  0  0  0  0  0
   59.9450   34.0740   49.6550 C   0  0  0  0  0  0  0  0  0  0  0  0
   58.9287   34.4867   49.7368 H   0  0  0  0  0  0  0  0  0  0  0  0
   60.5120   33.4090   50.7530 C   0  0  0  0  0  0  0  0  0  0  0  0
   59.7630   33.3070   51.9790 N   0  0  0  0  0  0  0  0  0  0  0  0
   60.1010   33.8500   52.8060 H   0  0  0  0  0  0  0  0  0  0  0  0
   58.5090   32.6240   52.1000 C   0  0  0  0  0  0  0  0  0  0  0  0
   57.8910   32.2200   51.0780 O   0  0  0  0  0  0  0  0  0  0  0  0
   57.8850   32.4620   53.4460 C   0  0  0  0  0  0  0  0  0  0  0  0
   58.6370   32.6572   54.2247 H   0  0  0  0  0  0  0  0  0  0  0  0
   57.0533   33.1740   53.5527 H   0  0  0  0  0  0  0  0  0  0  0  0
   57.5047   31.4354   53.5527 H   0  0  0  0  0  0  0  0  0  0  0  0
   61.8230   32.9160   50.6520 C   0  0  0  0  0  0  0  0  0  0  0  0
   62.2910   32.4237   51.5172 H   0  0  0  0  0  0  0  0  0  0  0  0
   62.5360   33.0480   49.4570 C   0  0  0  0  0  0  0  0  0  0  0  0
   63.5554   32.6416   49.3819 H   0  0  0  0  0  0  0  0  0  0  0  0
   61.9630   33.6930   48.3560 C   0  0  0  0  0  0  0  0  0  0  0  0
   63.0030   33.8360   46.7500 Br  0  0  0  0  0  0  0  0  0  0  0  0
   58.4610   34.7140   45.4450 C   0  0  0  0  0  0  0  0  0  0  0  0
   59.3589   34.7949   44.8147 H   0  0  0  0  0  0  0  0  0  0  0  0
   57.9858   35.6979   45.5724 H   0  0  0  0  0  0  0  0  0  0  0  0
   57.4580   33.7760   44.7670 C   0  0  0  0  0  0  0  0  0  0  0  0
   57.1761   34.2008   43.7923 H   0  0  0  0  0  0  0  0  0  0  0  0
   56.5817   33.6796   45.4249 H   0  0  0  0  0  0  0  0  0  0  0  0
   57.7670   29.7240   46.3930 C   0  0  0  0  0  0  0  0  0  0  0  0
   57.9124   30.5340   47.1229 H   0  0  0  0  0  0  0  0  0  0  0  0
   58.0620   28.4060   46.7550 C   0  0  0  0  0  0  0  0  0  0  0  0
   58.4215   28.1840   47.7706 H   0  0  0  0  0  0  0  0  0  0  0  0
   55.1140   25.3250   45.8530 C   0  0  0  0  0  0  0  0  0  0  0  0
   55.0450   26.7020   46.0350 O   0  0  0  0  0  0  0  0  0  0  0  0
   54.0200   24.6790   45.2700 C   0  0  0  0  0  0  0  0  0  0  0  0
   53.1142   25.2514   45.0212 H   0  0  0  0  0  0  0  0  0  0  0  0
   54.0730   23.3130   45.0030 C   0  0  0  0  0  0  0  0  0  0  0  0
   53.2128   22.8016   44.5463 H   0  0  0  0  0  0  0  0  0  0  0  0
  1  2  1  0
  2  3  1  0
  3  4  1  0
  4  5  2  0
  5  6  1  0
  6  7  2  0
  6  8  1  0
  8  9  2  0
  9 10  1  0
  9 11  1  0
 11 12  1  0
 11 13  2  0
 13 14  1  0
 14 15  1  0
 15 16  1  0
 15 17  1  0
 17 18  1  0
 17 19  1  0
 17 20  1  0
 20 21  1  0
 20 22  1  0
 20 23  1  0
 23 24  1  0
 24 25  1  0
 24 26  1  0
 24 27  1  0
 27 28  2  0
 28 29  1  0
 28 30  1  0
 30 31  1  0
 31 32  1  0
 31 33  1  0
 33 34  2  0
 33 35  1  0
 35 36  1  0
 35 37  1  0
 35 38  1  0
 30 39  2  0
 39 40  1  0
 39 41  1  0
 41 42  1  0
 41 43  2  0
 43 44  1  0
 23 45  1  0
 45 46  1  0
 45 47  1  0
 45 48  1  0
 48 49  1  0
 48 50  1  0
 13 51  1  0
 51 52  1  0
 51 53  2  0
 53 54  1  0
  4 55  1  0
 55 56  1  0
 55 57  2  0
 57 58  1  0
 57 59  1  0
 59 60  1  0
 59  2  2  0
 53  8  1  0
 48 15  1  0
 43 27  1  0
M  CHG  2   3  -1  56  -1
M  END
>  <UniqueID>  (23) 
23

>  <SMILES>  (23) 
CC(=O)Nc1ccc(Br)c(CN2CCC(Oc3ccc(C(=O)/N=c4/[n-]cccc4[O-])cc3)CC2)c1

>  <Energy>  (23) 
89.64777902985061

>  <Genealogy>  (23) 
CC(=O)Nc1ccc(Br)c(CN2CCC(Oc3ccc(C(=O)N=c4[n-]cccc4[O-])cc3)CC2)c1 (protonated)
CC(=O)Nc1ccc(Br)c(CN2CCC(Oc3ccc(C(=O)/N=c4/[n-]cccc4[O-])cc3)CC2)c1 (cis-trans isomerization)
CC(=O)Nc1ccc(Br)c(CN2CCC(Oc3ccc(C(=O)/N=c4/[n-]cccc4[O-])cc3)CC2)c1 (3D coordinates assigned)
CC(=O)Nc1ccc(Br)c(CN2CCC(Oc3ccc(C(=O)/N=c4/[n-]cccc4[O-])cc3)CC2)c1 (nonaromatic ring conformer: 89.64777902985061 kcal/mol)

>  <smiles>  (23) 
CC(=O)Nc1ccc(Br)c(CN2CCC(Oc3ccc(C(=O)N=c4[nH]cccc4O)cc3)CC2)c1

>  <score_type>  (23) 
oracle

>  <origin>  (23) 
adg

>  <m_score__min__energy>  (23) 
-16.210000000000001

>  <m_primary>  (23) 
energy

$$$$
23:0
     RDKit          3D

 61 64  0  0  0  0  0  0  0  0999 V2000
   58.0070   31.2100   44.4560 C   0  0  0  0  0  0  0  0  0  0  0  0
   57.3240   30.3480   43.6920 C   0  0  0  0  0  0  0  0  0  0  0  0
   56.6760   30.8500   42.4290 C   0  0  0  0  0  0  0  0  0  0  0  0
   57.2970   28.8960   44.0200 C   0  0  0  0  0  0  0  0  0  0  0  0
   57.7750   27.9490   43.0920 C   0  0  0  0  0  0  0  0  0  0  0  0
   57.8030   26.5900   43.4150 C   0  0  0  0  0  0  0  0  0  0  0  0
   57.3530   26.1530   44.6680 C   0  0  0  0  0  0  0  0  0  0  0  0
   57.5130   24.7370   45.0620 C   0  0  0  0  0  0  0  0  0  0  0  0
   56.6050   23.7900   44.5700 C   0  0  0  0  0  0  0  0  0  0  0  0
   56.6820   22.4620   44.9840 C   0  0  0  0  0  0  0  0  0  0  0  0
   57.6770   22.0830   45.8950 C   0  0  0  0  0  0  0  0  0  0  0  0
   57.7670   20.8610   46.3090 N   0  0  0  0  0  0  0  0  0  0  0  0
   58.5640   23.0060   46.3480 N   0  0  0  0  0  0  0  0  0  0  0  0
   58.5280   24.3090   45.9550 C   0  0  0  0  0  0  0  0  0  0  0  0
   59.5780   25.2200   46.4630 C   0  0  0  0  0  0  0  0  0  0  0  0
   60.7340   25.1770   45.9660 O   0  0  0  0  0  0  0  0  0  0  0  0
   59.2570   26.2050   47.4530 N   0  0  0  0  0  0  0  0  0  0  0  0
   59.7020   27.5680   47.4990 C   0  0  0  0  0  0  0  0  0  0  0  0
   60.1160   28.1690   46.3060 C   0  0  0  0  0  0  0  0  0  0  0  0
   60.4590   29.5220   46.2750 C   0  0  0  0  0  0  0  0  0  0  0  0
   60.3840   30.3020   47.4400 C   0  0  0  0  0  0  0  0  0  0  0  0
   60.7290   31.7420   47.3870 C   0  0  0  0  0  0  0  0  0  0  0  0
   61.9180   32.0670   47.1230 O   0  0  0  0  0  0  0  0  0  0  0  0
   59.7380   32.7730   47.5930 N   0  0  0  0  0  0  0  0  0  0  0  0
   60.1480   34.1380   47.9300 C   0  0  0  0  0  0  0  0  0  0  0  0
   59.8790   35.0780   46.7390 C   0  0  0  0  0  0  0  0  0  0  0  0
   58.6870   34.6990   45.9350 N   0  0  0  0  0  0  0  0  0  0  0  0
   59.0630   34.0700   44.6570 C   0  0  0  0  0  0  0  0  0  0  0  0
   57.7130   33.8780   46.6860 C   0  0  0  0  0  0  0  0  0  0  0  0
   58.3380   32.5650   47.1930 C   0  0  0  0  0  0  0  0  0  0  0  0
   59.9930   29.6940   48.6430 C   0  0  0  0  0  0  0  0  0  0  0  0
   59.6360   28.3410   48.6700 C   0  0  0  0  0  0  0  0  0  0  0  0
   56.8280   27.0830   45.5770 C   0  0  0  0  0  0  0  0  0  0  0  0
   56.8020   28.4430   45.2590 C   0  0  0  0  0  0  0  0  0  0  0  0
   58.4875   30.8625   45.3825 H   0  0  0  0  0  0  0  0  0  0  0  0
   58.0875   32.2655   44.1571 H   0  0  0  0  0  0  0  0  0  0  0  0
   55.8305   31.5050   42.6860 H   0  0  0  0  0  0  0  0  0  0  0  0
   57.4121   31.4159   41.8391 H   0  0  0  0  0  0  0  0  0  0  0  0
   56.3120   29.9959   41.8391 H   0  0  0  0  0  0  0  0  0  0  0  0
   58.1289   28.2826   42.1054 H   0  0  0  0  0  0  0  0  0  0  0  0
   58.1797   25.8604   42.6830 H   0  0  0  0  0  0  0  0  0  0  0  0
   55.8282   24.0964   43.8539 H   0  0  0  0  0  0  0  0  0  0  0  0
   55.9686   21.7182   44.5995 H   0  0  0  0  0  0  0  0  0  0  0  0
   58.4900   20.1980   45.9510 H   0  0  0  0  0  0  0  0  0  0  0  0
   60.1718   27.5708   45.3846 H   0  0  0  0  0  0  0  0  0  0  0  0
   60.7903   29.9800   45.3314 H   0  0  0  0  0  0  0  0  0  0  0  0
   59.5770   34.4846   48.8039 H   0  0  0  0  0  0  0  0  0  0  0  0
   61.2236   34.1456   48.1604 H   0  0  0  0  0  0  0  0  0  0  0  0
   59.7264   36.0957   47.1275 H   0  0  0  0  0  0  0  0  0  0  0  0
   60.7512   35.0093   46.0723 H   0  0  0  0  0  0  0  0  0  0  0  0
   59.6182   33.1412   44.8548 H   0  0  0  0  0  0  0  0  0  0  0  0
   58.1549   33.8387   44.0810 H   0  0  0  0  0  0  0  0  0  0  0  0
   59.6967   34.7604   44.0810 H   0  0  0  0  0  0  0  0  0  0  0  0
   57.3514   34.4562   47.5491 H   0  0  0  0  0  0  0  0  0  0  0  0
   56.8873   33.6219   46.0059 H   0  0  0  0  0  0  0  0  0  0  0  0
   57.7651   32.2041   48.0599 H   0  0  0  0  0  0  0  0  0  0  0  0
   58.3100   31.8244   46.3802 H   0  0  0  0  0  0  0  0  0  0  0  0
   59.9670   30.2847   49.5706 H   0  0  0  0  0  0  0  0  0  0  0  0
   59.3024   27.8811   49.6119 H   0  0  0  0  0  0  0  0  0  0  0  0
   56.4347   26.7398   46.5453 H   0  0  0  0  0  0  0  0  0  0  0  0
   56.3924   29.1651   45.9807 H   0  0  0  0  0  0  0  0  0  0  0  0
  1  2  2  0
  2  3  1  0
  2  4  1  0
  4  5  2  0
  5  6  1  0
  6  7  2  0
  7  8  1  0
  8  9  1  0
  9 10  2  0
 10 11  1  0
 11 12  2  3
 11 13  1  0
 13 14  1  0
 14 15  1  0
 15 16  2  0
 15 17  1  0
 17 18  1  0
 18 19  2  0
 19 20  1  0
 20 21  2  0
 21 22  1  0
 22 23  2  0
 22 24  1  0
 24 25  1  0
 25 26  1  0
 26 27  1  0
 27 28  1  0
 27 29  1  0
 29 30  1  0
 21 31  1  0
 31 32  2  0
  7 33  1  0
 33 34  2  0
 34  4  1  0
 14  8  2  0
 32 18  1  0
 30 24  1  0
  1 35  1  0
  1 36  1  0
  3 37  1  0
  3 38  1  0
  3 39  1  0
  5 40  1  0
  6 41  1  0
  9 42  1  0
 10 43  1  0
 12 44  1  0
 19 45  1  0
 20 46  1  0
 25 47  1  0
 25 48  1  0
 26 49  1  0
 26 50  1  0
 28 51  1  0
 28 52  1  0
 28 53  1  0
 29 54  1  0
 29 55  1  0
 30 56  1  0
 30 57  1  0
 31 58  1  0
 32 59  1  0
 33 60  1  0
 34 61  1  0
M  CHG  2  13  -1  17  -1
M  END
>  <UniqueID>  (24) 
24

>  <SMILES>  (24) 
C=C(C)c1ccc(-c2ccc(=N)[n-]c2C(=O)[N-]c2ccc(C(=O)N3CCN(C)CC3)cc2)cc1

>  <Energy>  (24) 
91.06721104229345

>  <Genealogy>  (24) 
C=C(C)c1ccc(-c2ccc(=N)[n-]c2C(=O)[N-]c2ccc(C(=O)N3CCN(C)CC3)cc2)cc1 (protonated)
C=C(C)c1ccc(-c2ccc(=N)[n-]c2C(=O)[N-]c2ccc(C(=O)N3CCN(C)CC3)cc2)cc1 (3D coordinates assigned)
C=C(C)c1ccc(-c2ccc(=N)[n-]c2C(=O)[N-]c2ccc(C(=O)N3CCN(C)CC3)cc2)cc1 (nonaromatic ring conformer: 91.06721104229345 kcal/mol)

>  <smiles>  (24) 
C=C(C)c1ccc(-c2ccc(=N)[nH]c2C(=O)Nc2ccc(C(=O)N3CCN(C)CC3)cc2)cc1

>  <score_type>  (24) 
oracle

>  <origin>  (24) 
adg

>  <m_score__min__energy>  (24) 
-11.640000000000001

>  <m_primary>  (24) 
energy

$$$$
24:0
     RDKit          3D

 36 39  0  0  0  0  0  0  0  0999 V2000
   55.2290   29.5870   44.5300 N   0  0  0  0  0  0  0  0  0  0  0  0
   56.6550   29.9590   43.6290 S   0  0  0  0  0  0  0  0  0  0  0  0
   57.4510   28.7030   43.4070 O   0  0  0  0  0  0  0  0  0  0  0  0
   56.2670   30.5250   42.2920 O   0  0  0  0  0  0  0  0  0  0  0  0
   57.6260   31.1280   44.5190 C   0  0  0  0  0  0  0  0  0  0  0  0
   57.7650   32.4360   44.0430 C   0  0  0  0  0  0  0  0  0  0  0  0
   58.5050   33.3720   44.7660 C   0  0  0  0  0  0  0  0  0  0  0  0
   59.1230   33.0070   45.9680 C   0  0  0  0  0  0  0  0  0  0  0  0
   59.8080   33.9410   46.6750 N   0  0  0  0  0  0  0  0  0  0  0  0
   60.4100   33.6500   47.8550 C   0  0  0  0  0  0  0  0  0  0  0  0
   61.0280   34.5500   48.4810 O   0  0  0  0  0  0  0  0  0  0  0  0
   60.3470   32.3550   48.3730 C   0  0  0  0  0  0  0  0  0  0  0  0
   59.6710   31.3470   47.6670 C   0  0  0  0  0  0  0  0  0  0  0  0
   59.7100   29.9730   48.2160 C   0  0  0  0  0  0  0  0  0  0  0  0
   59.6420   29.8030   49.4640 O   0  0  0  0  0  0  0  0  0  0  0  0
   59.8370   28.8500   47.3330 N   0  0  0  0  0  0  0  0  0  0  0  0
   58.9150   27.7620   47.1900 C   0  0  0  0  0  0  0  0  0  0  0  0
   59.2450   26.4360   47.5840 C   0  0  0  0  0  0  0  0  0  0  0  0
   58.3240   25.3870   47.4090 C   0  0  0  0  0  0  0  0  0  0  0  0
   57.0970   25.6910   46.8290 C   0  0  0  0  0  0  0  0  0  0  0  0
   56.0840   24.8530   46.5640 N   0  0  0  0  0  0  0  0  0  0  0  0
   55.1710   25.6830   45.9990 C   0  0  0  0  0  0  0  0  0  0  0  0
   54.0480   25.2770   45.6000 O   0  0  0  0  0  0  0  0  0  0  0  0
   55.5530   26.9810   45.8950 N   0  0  0  0  0  0  0  0  0  0  0  0
   56.7820   26.9530   46.4310 C   0  0  0  0  0  0  0  0  0  0  0  0
   57.6660   28.0180   46.5850 C   0  0  0  0  0  0  0  0  0  0  0  0
   59.0170   31.6780   46.4510 C   0  0  0  0  0  0  0  0  0  0  0  0
   58.2340   30.7550   45.7250 C   0  0  0  0  0  0  0  0  0  0  0  0
   55.1500   28.5470   44.5600 H   0  0  0  0  0  0  0  0  0  0  0  0
   57.2891   32.7277   43.0951 H   0  0  0  0  0  0  0  0  0  0  0  0
   58.6033   34.4011   44.3900 H   0  0  0  0  0  0  0  0  0  0  0  0
   60.8275   32.1242   49.3352 H   0  0  0  0  0  0  0  0  0  0  0  0
   60.2291   26.2287   48.0296 H   0  0  0  0  0  0  0  0  0  0  0  0
   58.5663   24.3603   47.7206 H   0  0  0  0  0  0  0  0  0  0  0  0
   57.3985   29.0293   46.2450 H   0  0  0  0  0  0  0  0  0  0  0  0
   58.0998   29.7332   46.1096 H   0  0  0  0  0  0  0  0  0  0  0  0
  1  2  1  0
  2  3  2  0
  2  4  2  0
  2  5  1  0
  5  6  2  0
  6  7  1  0
  7  8  2  0
  8  9  1  0
  9 10  1  0
 10 11  2  0
 10 12  1  0
 12 13  2  0
 13 14  1  0
 14 15  2  0
 14 16  1  0
 16 17  1  0
 17 18  2  0
 18 19  1  0
 19 20  2  0
 20 21  1  0
 21 22  1  0
 22 23  2  0
 22 24  1  0
 24 25  1  0
 25 26  2  0
 13 27  1  0
 27 28  2  0
 28  5  1  0
 27  8  1  0
 26 17  1  0
 25 20  1  0
  1 29  1  0
  6 30  1  0
  7 31  1  0
 12 32  1  0
 18 33  1  0
 19 34  1  0
 26 35  1  0
 28 36  1  0
M  CHG  5   1  -1   9  -1  16  -1  21  -1  24  -1
M  END
>  <UniqueID>  (25) 
25

>  <SMILES>  (25) 
[NH-]S(=O)(=O)c1ccc2[n-]c(=O)cc(C(=O)[N-]c3ccc4[n-]c(=O)[n-]c4c3)c2c1

>  <Energy>  (25) 
89.85640936649585

>  <Genealogy>  (25) 
[NH-]S(=O)(=O)c1ccc2[n-]c(=O)cc(C(=O)[N-]c3ccc4[n-]c(=O)[n-]c4c3)c2c1 (protonated)
[NH-]S(=O)(=O)c1ccc2[n-]c(=O)cc(C(=O)[N-]c3ccc4[n-]c(=O)[n-]c4c3)c2c1 (3D coordinates assigned)
[NH-]S(=O)(=O)c1ccc2[n-]c(=O)cc(C(=O)[N-]c3ccc4[n-]c(=O)[n-]c4c3)c2c1 (optimized conformer: 89.85640936649585 kcal/mol)

>  <smiles>  (25) 
NS(=O)(=O)c1ccc2[nH]c(=O)cc(C(=O)Nc3ccc4[nH]c(=O)[nH]c4c3)c2c1

>  <score_type>  (25) 
oracle

>  <origin>  (25) 
adg

>  <m_score__min__energy>  (25) 
-16.739999999999998

>  <m_primary>  (25) 
energy

$$$$
25:0
     RDKit          3D

 54 57  0  0  0  0  0  0  0  0999 V2000
   60.9680   29.3160   46.0330 H   0  0  0  0  0  0  0  0  0  0  0  0
   61.1590   30.2960   46.3420 N   0  0  0  0  0  0  0  0  0  0  0  0
   60.2120   31.0690   46.7630 C   0  0  0  0  0  0  0  0  0  0  0  0
   59.9120   31.1120   48.0850 N   0  0  0  0  0  0  0  0  0  0  0  0
   58.9050   31.9040   48.5350 C   0  0  0  0  0  0  0  0  0  0  0  0
   58.5910   31.9600   49.9760 C   0  0  0  0  0  0  0  0  0  0  0  0
   57.7870   30.9310   50.4940 C   0  0  0  0  0  0  0  0  0  0  0  0
   57.5993   30.0317   49.8889 H   0  0  0  0  0  0  0  0  0  0  0  0
   57.2240   31.0350   51.7650 C   0  0  0  0  0  0  0  0  0  0  0  0
   56.4150   29.9930   52.2400 O   0  0  0  0  0  0  0  0  0  0  0  0
   55.0350   30.0800   52.4770 C   0  0  0  0  0  0  0  0  0  0  0  0
   54.5280   29.6010   53.6880 C   0  0  0  0  0  0  0  0  0  0  0  0
   55.2072   29.1875   54.4481 H   0  0  0  0  0  0  0  0  0  0  0  0
   53.1540   29.6510   53.9260 C   0  0  0  0  0  0  0  0  0  0  0  0
   52.7490   29.2838   54.8805 H   0  0  0  0  0  0  0  0  0  0  0  0
   52.3150   30.1520   52.9820 N   0  0  0  0  0  0  0  0  0  0  0  0
   52.7690   30.6190   51.7860 C   0  0  0  0  0  0  0  0  0  0  0  0
   51.8050   31.1410   50.8000 C   0  0  0  0  0  0  0  0  0  0  0  0
   51.6380   30.5320   49.7100 O   0  0  0  0  0  0  0  0  0  0  0  0
   51.0530   32.3270   51.0780 N   0  0  0  0  0  0  0  0  0  0  0  0
   50.6430   32.7010   52.4240 C   0  0  0  0  0  0  0  0  0  0  0  0
   51.2481   32.1490   53.1583 H   0  0  0  0  0  0  0  0  0  0  0  0
   50.7909   33.7818   52.5653 H   0  0  0  0  0  0  0  0  0  0  0  0
   49.5803   32.4547   52.5653 H   0  0  0  0  0  0  0  0  0  0  0  0
   54.1470   30.5850   51.5130 C   0  0  0  0  0  0  0  0  0  0  0  0
   54.5285   30.9522   50.5488 H   0  0  0  0  0  0  0  0  0  0  0  0
   57.5050   32.1690   52.5350 C   0  0  0  0  0  0  0  0  0  0  0  0
   57.0601   32.2770   53.5352 H   0  0  0  0  0  0  0  0  0  0  0  0
   58.3250   33.1360   52.0510 N   0  0  0  0  0  0  0  0  0  0  0  0
   58.9060   33.0680   50.8220 C   0  0  0  0  0  0  0  0  0  0  0  0
   59.7430   34.0220   50.5090 N   0  0  0  0  0  0  0  0  0  0  0  0
   60.6330   34.1200   49.3870 C   0  0  0  0  0  0  0  0  0  0  0  0
   60.2190   34.5970   48.2950 O   0  0  0  0  0  0  0  0  0  0  0  0
   62.0100   33.6010   49.4780 C   0  0  0  0  0  0  0  0  0  0  0  0
   62.6180   33.5220   50.6900 N   0  0  0  0  0  0  0  0  0  0  0  0
   63.8810   33.0400   50.8260 C   0  0  0  0  0  0  0  0  0  0  0  0
   64.3480   32.9813   51.8202 H   0  0  0  0  0  0  0  0  0  0  0  0
   64.5860   32.6170   49.6860 C   0  0  0  0  0  0  0  0  0  0  0  0
   65.8930   32.1140   49.7580 O   0  0  0  0  0  0  0  0  0  0  0  0
   66.9510   32.7200   50.4920 C   0  0  0  0  0  0  0  0  0  0  0  0
   66.7594   32.6103   51.5696 H   0  0  0  0  0  0  0  0  0  0  0  0
   67.9021   32.2297   50.2369 H   0  0  0  0  0  0  0  0  0  0  0  0
   67.0093   33.7884   50.2369 H   0  0  0  0  0  0  0  0  0  0  0  0
   63.9780   32.6990   48.4720 N   0  0  0  0  0  0  0  0  0  0  0  0
   64.4950   32.3940   47.6180 H   0  0  0  0  0  0  0  0  0  0  0  0
   62.7080   33.1700   48.3420 C   0  0  0  0  0  0  0  0  0  0  0  0
   62.2322   33.2121   47.3511 H   0  0  0  0  0  0  0  0  0  0  0  0
   58.2200   32.6830   47.6570 N   0  0  0  0  0  0  0  0  0  0  0  0
   58.5130   32.6410   46.3320 C   0  0  0  0  0  0  0  0  0  0  0  0
   57.7690   33.5050   45.3710 C   0  0  0  0  0  0  0  0  0  0  0  0
   57.1499   34.2239   45.9277 H   0  0  0  0  0  0  0  0  0  0  0  0
   58.4847   34.0503   44.7382 H   0  0  0  0  0  0  0  0  0  0  0  0
   57.1235   32.8782   44.7382 H   0  0  0  0  0  0  0  0  0  0  0  0
   59.5100   31.8320   45.8870 N   0  0  0  0  0  0  0  0  0  0  0  0
  1  2  1  0
  2  3  2  0
  3  4  1  0
  4  5  2  0
  5  6  1  0
  6  7  2  0
  7  8  1  0
  7  9  1  0
  9 10  1  0
 10 11  1  0
 11 12  2  0
 12 13  1  0
 12 14  1  0
 14 15  1  0
 14 16  2  0
 16 17  1  0
 17 18  1  0
 18 19  2  0
 18 20  1  0
 20 21  1  0
 21 22  1  0
 21 23  1  0
 21 24  1  0
 17 25  2  0
 25 26  1  0
  9 27  2  0
 27 28  1  0
 27 29  1  0
 29 30  1  0
 30 31  2  3
 31 32  1  0
 32 33  2  0
 32 34  1  0
 34 35  2  0
 35 36  1  0
 36 37  1  0
 36 38  2  0
 38 39  1  0
 39 40  1  0
 40 41  1  0
 40 42  1  0
 40 43  1  0
 38 44  1  0
 44 45  1  0
 44 46  2  0
 46 47  1  0
  5 48  1  0
 48 49  1  0
 49 50  1  0
 50 51  1  0
 50 52  1  0
 50 53  1  0
 49 54  2  0
 54  3  1  0
 30  6  1  0
 46 34  1  0
 25 11  1  0
M  CHG  4  20  -1  29  -1  44   1  48  -1
M  END
>  <UniqueID>  (26) 
26

>  <SMILES>  (26) 
[H]/N=c1\nc(C)[n-]c(-c2cc(Oc3ccnc(C(=O)[N-]C)c3)c[n-]c2=NC(=O)c2c[nH+]c(OC)cn2)n1

>  <Energy>  (26) 
82.3432150743399

>  <Genealogy>  (26) 
C[N-]C(=O)c1cc(Oc2c[n-]c(=NC(=O)c3c[nH+]c(OC)cn3)c(-c3nc(=N)nc(C)[n-]3)c2)ccn1 (protonated)
[H]/N=c1\nc(C)[n-]c(-c2cc(Oc3ccnc(C(=O)[N-]C)c3)c[n-]c2=NC(=O)c2c[nH+]c(OC)cn2)n1 (cis-trans isomerization)
[H]/N=c1\nc(C)[n-]c(-c2cc(Oc3ccnc(C(=O)[N-]C)c3)c[n-]c2=NC(=O)c2c[nH+]c(OC)cn2)n1 (3D coordinates assigned)
[H]/N=c1\nc(C)[n-]c(-c2cc(Oc3ccnc(C(=O)[N-]C)c3)c[n-]c2=NC(=O)c2c[nH+]c(OC)cn2)n1 (optimized conformer: 82.3432150743399 kcal/mol)

>  <smiles>  (26) 
CNC(=O)c1cc(Oc2c[nH]c(=NC(=O)c3cnc(OC)cn3)c(-c3nc(=N)nc(C)[nH]3)c2)ccn1

>  <score_type>  (26) 
oracle

>  <origin>  (26) 
adg

>  <m_score__min__energy>  (26) 
-11.960000000000001

>  <m_primary>  (26) 
energy

$$$$
26:0
     RDKit          3D

 40 41  0  0  0  0  0  0  0  0999 V2000
   54.2450   24.8540   45.6130 C   0  0  0  0  0  0  0  0  0  0  0  0
   54.8200   26.1070   45.9700 O   0  0  0  0  0  0  0  0  0  0  0  0
   56.1820   26.3050   46.2430 C   0  0  0  0  0  0  0  0  0  0  0  0
   56.9690   25.3340   46.8760 C   0  0  0  0  0  0  0  0  0  0  0  0
   58.3190   25.5740   47.1200 C   0  0  0  0  0  0  0  0  0  0  0  0
   58.9160   26.7870   46.7350 C   0  0  0  0  0  0  0  0  0  0  0  0
   60.3830   26.9840   47.0290 C   0  0  0  0  0  0  0  0  0  0  0  0
   58.1250   27.7940   46.1140 C   0  0  0  0  0  0  0  0  0  0  0  0
   58.7400   29.1210   45.6490 C   0  0  1  0  0  0  0  0  0  0  0  0
   58.7480   29.2290   44.1220 C   0  0  0  0  0  0  0  0  0  0  0  0
   57.3690   29.5370   43.5540 C   0  0  0  0  0  0  0  0  0  0  0  0
   56.5890   30.6250   44.3170 C   0  0  0  0  0  0  0  0  0  0  0  0
   57.3040   31.2400   45.4540 N   0  0  0  0  0  0  0  0  0  0  0  0
   57.9930   32.8110   45.1010 S   0  0  0  0  0  0  0  0  0  0  0  0
   59.3710   33.1990   46.1560 C   0  0  0  0  0  0  0  0  0  0  0  0
   56.9390   33.8700   45.2770 O   0  0  0  0  0  0  0  0  0  0  0  0
   58.4590   32.8410   43.6720 O   0  0  0  0  0  0  0  0  0  0  0  0
   58.1370   30.3820   46.3280 C   0  0  0  0  0  0  0  0  0  0  0  0
   56.7630   27.5180   45.8660 C   0  0  0  0  0  0  0  0  0  0  0  0
   53.9885   24.2951   46.5251 H   0  0  0  0  0  0  0  0  0  0  0  0
   53.3349   25.0241   45.0191 H   0  0  0  0  0  0  0  0  0  0  0  0
   54.9675   24.2749   45.0191 H   0  0  0  0  0  0  0  0  0  0  0  0
   56.5187   24.3780   47.1816 H   0  0  0  0  0  0  0  0  0  0  0  0
   58.9257   24.8048   47.6202 H   0  0  0  0  0  0  0  0  0  0  0  0
   60.5392   27.0050   48.1177 H   0  0  0  0  0  0  0  0  0  0  0  0
   60.9591   26.1552   46.5918 H   0  0  0  0  0  0  0  0  0  0  0  0
   60.7200   27.9355   46.5918 H   0  0  0  0  0  0  0  0  0  0  0  0
   59.7848   29.0978   45.9924 H   0  0  0  0  0  0  0  0  0  0  0  0
   59.4385   30.0334   43.8285 H   0  0  0  0  0  0  0  0  0  0  0  0
   59.0669   28.2565   43.7189 H   0  0  0  0  0  0  0  0  0  0  0  0
   57.4934   29.8703   42.5131 H   0  0  0  0  0  0  0  0  0  0  0  0
   56.7813   28.6115   43.6436 H   0  0  0  0  0  0  0  0  0  0  0  0
   56.3355   31.4234   43.6041 H   0  0  0  0  0  0  0  0  0  0  0  0
   55.7114   30.1214   44.7485 H   0  0  0  0  0  0  0  0  0  0  0  0
   59.0629   33.1122   47.2084 H   0  0  0  0  0  0  0  0  0  0  0  0
   60.1947   32.4979   45.9561 H   0  0  0  0  0  0  0  0  0  0  0  0
   59.7078   34.2269   45.9561 H   0  0  0  0  0  0  0  0  0  0  0  0
   58.9691   30.9925   46.7087 H   0  0  0  0  0  0  0  0  0  0  0  0
   57.4646   30.0091   47.1146 H   0  0  0  0  0  0  0  0  0  0  0  0
   56.1444   28.2764   45.3638 H   0  0  0  0  0  0  0  0  0  0  0  0
  1  2  1  0
  2  3  1  0
  3  4  2  0
  4  5  1  0
  5  6  2  0
  6  7  1  0
  6  8  1  0
  8  9  1  0
  9 10  1  0
 10 11  1  0
 11 12  1  0
 12 13  1  0
 13 14  1  0
 14 15  1  0
 14 16  2  0
 14 17  2  0
 13 18  1  0
  8 19  2  0
 19  3  1  0
 18  9  1  0
  1 20  1  0
  1 21  1  0
  1 22  1  0
  4 23  1  0
  5 24  1  0
  7 25  1  0
  7 26  1  0
  7 27  1  0
  9 28  1  1
 10 29  1  0
 10 30  1  0
 11 31  1  0
 11 32  1  0
 12 33  1  0
 12 34  1  0
 15 35  1  0
 15 36  1  0
 15 37  1  0
 18 38  1  0
 18 39  1  0
 19 40  1  0
M  END
>  <UniqueID>  (27) 
27

>  <SMILES>  (27) 
COc1ccc(C)c([C@H]2CCCN(S(C)(=O)=O)C2)c1

>  <Energy>  (27) 
53.66945220026685

>  <Genealogy>  (27) 
COc1ccc(C)c([C@H]2CCCN(S(C)(=O)=O)C2)c1 (chirality)
COc1ccc(C)c([C@H]2CCCN(S(C)(=O)=O)C2)c1 (3D coordinates assigned)
COc1ccc(C)c([C@H]2CCCN(S(C)(=O)=O)C2)c1 (nonaromatic ring conformer: 53.66945220026685 kcal/mol)

>  <smiles>  (27) 
COc1ccc(C)c(C2CCCN(S(C)(=O)=O)C2)c1

>  <score_type>  (27) 
oracle

>  <origin>  (27) 
adg

>  <m_score__min__energy>  (27) 
-7.5999999999999996

>  <m_primary>  (27) 
energy

$$$$
27:0
     RDKit          3D

 42 44  0  0  0  0  0  0  0  0999 V2000
   57.4420   29.7860   46.4400 O   0  0  0  0  0  0  0  0  0  0  0  0
   57.1280   28.6680   45.9490 C   0  0  0  0  0  0  0  0  0  0  0  0
   57.7380   27.4210   46.5130 C   0  0  0  0  0  0  0  0  0  0  0  0
   57.2720   26.2200   45.7310 C   0  0  0  0  0  0  0  0  0  0  0  0
   58.2190   25.3680   45.1350 C   0  0  0  0  0  0  0  0  0  0  0  0
   57.8060   24.2280   44.4390 C   0  0  0  0  0  0  0  0  0  0  0  0
   56.4470   23.9230   44.3380 C   0  0  0  0  0  0  0  0  0  0  0  0
   55.4970   24.7560   44.9360 C   0  0  0  0  0  0  0  0  0  0  0  0
   55.9020   25.8980   45.6340 C   0  0  0  0  0  0  0  0  0  0  0  0
   54.9400   26.7070   46.2300 O   0  0  0  0  0  0  0  0  0  0  0  0
   56.1610   28.5870   44.8940 N   0  0  0  0  0  0  0  0  0  0  0  0
   55.4660   29.7630   44.3750 C   0  0  0  0  0  0  0  0  0  0  0  0
   56.4520   30.8050   43.9380 C   0  0  0  0  0  0  0  0  0  0  0  0
   56.8260   30.9170   42.5940 C   0  0  0  0  0  0  0  0  0  0  0  0
   57.7600   31.8920   42.2430 C   0  0  0  0  0  0  0  0  0  0  0  0
   58.1210   32.0220   41.0440 O   0  0  0  0  0  0  0  0  0  0  0  0
   58.2850   32.7030   43.1980 N   0  0  0  0  0  0  0  0  0  0  0  0
   57.9150   32.5850   44.5020 C   0  0  0  0  0  0  0  0  0  0  0  0
   58.4820   33.4500   45.4970 N   0  0  0  0  0  0  0  0  0  0  0  0
   58.5300   33.1210   46.9100 C   0  0  0  0  0  0  0  0  0  0  0  0
   59.0620   34.3700   47.6010 C   0  0  0  0  0  0  0  0  0  0  0  0
   59.6770   35.2330   46.5000 C   0  0  0  0  0  0  0  0  0  0  0  0
   59.0700   34.7420   45.1920 C   0  0  0  0  0  0  0  0  0  0  0  0
   57.0050   31.6380   44.8590 N   0  0  0  0  0  0  0  0  0  0  0  0
   58.8340   27.4921   46.4526 H   0  0  0  0  0  0  0  0  0  0  0  0
   57.4286   27.3106   47.5628 H   0  0  0  0  0  0  0  0  0  0  0  0
   59.2911   25.6000   45.2169 H   0  0  0  0  0  0  0  0  0  0  0  0
   58.5527   23.5703   43.9702 H   0  0  0  0  0  0  0  0  0  0  0  0
   56.1240   23.0270   43.7877 H   0  0  0  0  0  0  0  0  0  0  0  0
   54.4272   24.5123   44.8572 H   0  0  0  0  0  0  0  0  0  0  0  0
   55.9190   27.6520   44.4950 H   0  0  0  0  0  0  0  0  0  0  0  0
   54.8466   29.4675   43.5153 H   0  0  0  0  0  0  0  0  0  0  0  0
   54.8337   30.1830   45.1711 H   0  0  0  0  0  0  0  0  0  0  0  0
   56.3936   30.2517   41.8322 H   0  0  0  0  0  0  0  0  0  0  0  0
   57.5244   32.8748   47.2817 H   0  0  0  0  0  0  0  0  0  0  0  0
   59.1666   32.2451   47.1036 H   0  0  0  0  0  0  0  0  0  0  0  0
   58.2423   34.9106   48.0969 H   0  0  0  0  0  0  0  0  0  0  0  0
   59.8021   34.1173   48.3746 H   0  0  0  0  0  0  0  0  0  0  0  0
   59.4296   36.2925   46.6620 H   0  0  0  0  0  0  0  0  0  0  0  0
   60.7739   35.1516   46.4903 H   0  0  0  0  0  0  0  0  0  0  0  0
   58.2980   35.4421   44.8400 H   0  0  0  0  0  0  0  0  0  0  0  0
   59.8243   34.6686   44.3947 H   0  0  0  0  0  0  0  0  0  0  0  0
  1  2  2  0
  2  3  1  0
  3  4  1  0
  4  5  2  0
  5  6  1  0
  6  7  2  0
  7  8  1  0
  8  9  2  0
  9 10  1  0
  2 11  1  0
 11 12  1  0
 12 13  1  0
 13 14  2  0
 14 15  1  0
 15 16  2  0
 15 17  1  0
 17 18  1  0
 18 19  1  0
 19 20  1  0
 20 21  1  0
 21 22  1  0
 22 23  1  0
 18 24  2  0
  9  4  1  0
 24 13  1  0
 23 19  1  0
  3 25  1  0
  3 26  1  0
  5 27  1  0
  6 28  1  0
  7 29  1  0
  8 30  1  0
 11 31  1  0
 12 32  1  0
 12 33  1  0
 14 34  1  0
 20 35  1  0
 20 36  1  0
 21 37  1  0
 21 38  1  0
 22 39  1  0
 22 40  1  0
 23 41  1  0
 23 42  1  0
M  CHG  2  10  -1  17  -1
M  END
>  <UniqueID>  (28) 
28

>  <SMILES>  (28) 
O=C(Cc1ccccc1[O-])NCc1cc(=O)[n-]c(N2CCCC2)n1

>  <Energy>  (28) 
38.48070032559029

>  <Genealogy>  (28) 
O=C(Cc1ccccc1[O-])NCc1cc(=O)[n-]c(N2CCCC2)n1 (protonated)
O=C(Cc1ccccc1[O-])NCc1cc(=O)[n-]c(N2CCCC2)n1 (3D coordinates assigned)
O=C(Cc1ccccc1[O-])NCc1cc(=O)[n-]c(N2CCCC2)n1 (nonaromatic ring conformer: 38.48070032559029 kcal/mol)

>  <smiles>  (28) 
O=C(Cc1ccccc1O)NCc1cc(=O)[nH]c(N2CCCC2)n1

>  <score_type>  (28) 
oracle

>  <origin>  (28) 
adg

>  <m_score__min__energy>  (28) 
-13.91

>  <m_primary>  (28) 
energy

$$$$
28:0
     RDKit          3D

 48 51  0  0  0  0  0  0  0  0999 V2000
   59.5530   27.5420   47.9790 C   0  0  0  0  0  0  0  0  0  0  0  0
   59.8720   28.8730   47.4710 N   0  0  0  0  0  0  0  0  0  0  0  0
   60.8720   29.6270   47.9140 N   0  0  0  0  0  0  0  0  0  0  0  0
   60.8350   30.8280   47.2840 C   0  0  0  0  0  0  0  0  0  0  0  0
   61.7170   32.0120   47.6070 C   0  0  2  0  0  0  0  0  0  0  0  0
   63.1750   31.6000   47.8870 C   0  0  0  0  0  0  0  0  0  0  0  0
   64.0710   32.7660   48.0310 N   0  0  0  0  0  0  0  0  0  0  0  0
   63.4020   34.0060   48.4730 C   0  0  0  0  0  0  0  0  0  0  0  0
   62.2430   33.7260   49.4380 C   0  0  0  0  0  0  0  0  0  0  0  0
   61.1510   32.8390   48.7890 C   0  0  2  0  0  0  0  0  0  0  0  0
   60.6010   31.9600   49.7770 O   0  0  0  0  0  0  0  0  0  0  0  0
   59.5570   32.2680   50.6640 C   0  0  0  0  0  0  0  0  0  0  0  0
   58.4640   31.3940   50.7210 C   0  0  0  0  0  0  0  0  0  0  0  0
   57.3940   31.6500   51.5840 C   0  0  0  0  0  0  0  0  0  0  0  0
   57.4080   32.7860   52.3960 C   0  0  0  0  0  0  0  0  0  0  0  0
   58.4910   33.6670   52.3470 C   0  0  0  0  0  0  0  0  0  0  0  0
   59.5640   33.4140   51.4850 C   0  0  0  0  0  0  0  0  0  0  0  0
   59.7400   30.8270   46.4380 C   0  0  0  0  0  0  0  0  0  0  0  0
   59.1870   31.8060   45.6170 C   0  0  0  0  0  0  0  0  0  0  0  0
   58.0160   31.4830   44.9080 C   0  0  0  0  0  0  0  0  0  0  0  0
   57.4110   30.2020   45.0410 C   0  0  0  0  0  0  0  0  0  0  0  0
   56.1720   29.8770   44.2960 C   0  0  0  0  0  0  0  0  0  0  0  0
   55.1910   29.0120   44.8640 N   0  0  0  0  0  0  0  0  0  0  0  0
   55.9740   30.3640   43.1500 O   0  0  0  0  0  0  0  0  0  0  0  0
   57.9980   29.2420   45.9000 C   0  0  0  0  0  0  0  0  0  0  0  0
   59.1660   29.5920   46.5770 C   0  0  0  0  0  0  0  0  0  0  0  0
   59.5570   27.5586   49.0789 H   0  0  0  0  0  0  0  0  0  0  0  0
   58.5574   27.2416   47.6204 H   0  0  0  0  0  0  0  0  0  0  0  0
   60.3042   26.8229   47.6204 H   0  0  0  0  0  0  0  0  0  0  0  0
   61.5430   29.3380   48.6610 H   0  0  0  0  0  0  0  0  0  0  0  0
   61.7201   32.6474   46.7091 H   0  0  0  0  0  0  0  0  0  0  0  0
   63.2043   31.0146   48.8178 H   0  0  0  0  0  0  0  0  0  0  0  0
   63.5278   31.0093   47.0287 H   0  0  0  0  0  0  0  0  0  0  0  0
   64.5240   32.9570   47.1070 H   0  0  0  0  0  0  0  0  0  0  0  0
   64.1395   34.6449   48.9809 H   0  0  0  0  0  0  0  0  0  0  0  0
   62.9882   34.5025   47.5829 H   0  0  0  0  0  0  0  0  0  0  0  0
   62.6370   33.2115   50.3269 H   0  0  0  0  0  0  0  0  0  0  0  0
   61.7840   34.6887   49.7073 H   0  0  0  0  0  0  0  0  0  0  0  0
   60.3646   33.4980   48.3924 H   0  0  0  0  0  0  0  0  0  0  0  0
   58.4472   30.4990   50.0817 H   0  0  0  0  0  0  0  0  0  0  0  0
   56.5411   30.9564   51.6233 H   0  0  0  0  0  0  0  0  0  0  0  0
   56.5659   32.9872   53.0745 H   0  0  0  0  0  0  0  0  0  0  0  0
   58.5004   34.5614   52.9873 H   0  0  0  0  0  0  0  0  0  0  0  0
   60.4145   34.1106   51.4480 H   0  0  0  0  0  0  0  0  0  0  0  0
   59.6506   32.7994   45.5258 H   0  0  0  0  0  0  0  0  0  0  0  0
   57.5617   32.2309   44.2415 H   0  0  0  0  0  0  0  0  0  0  0  0
   54.5110   29.3640   45.5740 H   0  0  0  0  0  0  0  0  0  0  0  0
   57.5455   28.2478   46.0299 H   0  0  0  0  0  0  0  0  0  0  0  0
  1  2  1  0
  2  3  1  0
  3  4  2  0
  4  5  1  0
  5  6  1  0
  6  7  1  0
  7  8  1  0
  8  9  1  0
  9 10  1  0
 10 11  1  0
 11 12  1  0
 12 13  2  0
 13 14  1  0
 14 15  2  0
 15 16  1  0
 16 17  2  0
  4 18  1  0
 18 19  2  0
 19 20  1  0
 20 21  2  0
 21 22  1  0
 22 23  1  0
 22 24  2  0
 21 25  1  0
 25 26  2  0
 26  2  1  0
 10  5  1  0
 17 12  1  0
 26 18  1  0
  1 27  1  0
  1 28  1  0
  1 29  1  0
  3 30  1  0
  5 31  1  6
  6 32  1  0
  6 33  1  0
  7 34  1  0
  8 35  1  0
  8 36  1  0
  9 37  1  0
  9 38  1  0
 10 39  1  6
 13 40  1  0
 14 41  1  0
 15 42  1  0
 16 43  1  0
 17 44  1  0
 19 45  1  0
 20 46  1  0
 23 47  1  0
 25 48  1  0
M  CHG  2   3   1  23  -1
M  END
>  <UniqueID>  (29) 
29

>  <SMILES>  (29) 
Cn1[nH+]c([C@@H]2CNCC[C@@H]2Oc2ccccc2)c2ccc(C([NH-])=O)cc21

>  <Energy>  (29) 
96.66215555134715

>  <Genealogy>  (29) 
Cn1[nH+]c(C2CNCCC2Oc2ccccc2)c2ccc(C([NH-])=O)cc21 (protonated)
Cn1[nH+]c([C@@H]2CNCC[C@@H]2Oc2ccccc2)c2ccc(C([NH-])=O)cc21 (chirality)
Cn1[nH+]c([C@@H]2CNCC[C@@H]2Oc2ccccc2)c2ccc(C([NH-])=O)cc21 (3D coordinates assigned)
Cn1[nH+]c([C@@H]2CNCC[C@@H]2Oc2ccccc2)c2ccc(C([NH-])=O)cc21 (nonaromatic ring conformer: 96.66215555134715 kcal/mol)

>  <smiles>  (29) 
Cn1nc(C2CNCCC2Oc2ccccc2)c2ccc(C(N)=O)cc21

>  <score_type>  (29) 
oracle

>  <origin>  (29) 
adg

>  <m_score__min__energy>  (29) 
-9.8499999999999996

>  <m_primary>  (29) 
energy

$$$$
29:0
     RDKit          3D

 39 41  0  0  1  0  0  0  0  0999 V2000
   59.5600   34.3290   48.5600 C   0  0  0  0  0  0  0  0  0  0  0  0
   59.0980   33.9140   47.2220 C   0  0  0  0  0  0  0  0  0  0  0  0
   59.6040   34.5430   46.0960 C   0  0  0  0  0  0  0  0  0  0  0  0
   59.1880   34.1590   44.8500 C   0  0  0  0  0  0  0  0  0  0  0  0
   58.2670   33.1530   44.6330 C   0  0  0  0  0  0  0  0  0  0  0  0
   57.7690   32.6830   43.3500 C   0  0  0  0  0  0  0  0  0  0  0  0
   57.4120   31.3670   43.1040 N   0  0  0  0  0  0  0  0  0  0  0  0
   56.9540   30.4460   43.7780 C   0  0  0  0  0  0  0  0  0  0  0  0
   55.7360   30.3730   44.3260 N   0  0  0  0  0  0  0  0  0  0  0  0
   55.6500   29.2300   44.9770 N   0  0  0  0  0  0  0  0  0  0  0  0
   56.8110   28.5350   44.8660 C   0  0  0  0  0  0  0  0  0  0  0  0
   57.0580   27.3900   45.3940 N   0  0  0  0  0  0  0  0  0  0  0  0
   58.0770   26.5590   44.9130 C   0  0  0  0  0  0  0  0  0  0  0  0
   59.2680   26.8400   44.6890 O   0  0  0  0  0  0  0  0  0  0  0  0
   57.6980   25.1450   44.6250 C   0  0  0  0  0  0  0  0  0  0  0  0
   58.1560   24.0170   45.2790 C   0  0  0  0  0  0  0  0  0  0  0  0
   57.5450   22.9190   44.6960 C   0  0  0  0  0  0  0  0  0  0  0  0
   56.7410   23.4180   43.7080 C   0  0  0  0  0  0  0  0  0  0  0  0
   55.9580   22.5970   42.8900 O   0  0  0  0  0  0  0  0  0  0  0  0
   56.8370   24.7580   43.6700 N   0  0  0  0  0  0  0  0  0  0  0  0
   57.6130   29.3060   44.1160 N   0  0  0  0  0  0  0  0  0  0  0  0
   57.7750   32.5370   45.7850 C   0  0  0  0  0  0  0  0  0  0  0  0
   58.1820   32.9100   47.0470 C   0  0  0  0  0  0  0  0  0  0  0  0
   58.9750   33.8035   49.3292 H   0  0  0  0  0  0  0  0  0  0  0  0
   60.6249   34.0783   48.6743 H   0  0  0  0  0  0  0  0  0  0  0  0
   59.4246   35.4146   48.6743 H   0  0  0  0  0  0  0  0  0  0  0  0
   60.3412   35.3523   46.2036 H   0  0  0  0  0  0  0  0  0  0  0  0
   59.6089   34.6783   43.9764 H   0  0  0  0  0  0  0  0  0  0  0  0
   56.8715   33.2826   43.1379 H   0  0  0  0  0  0  0  0  0  0  0  0
   58.6664   32.7830   42.7217 H   0  0  0  0  0  0  0  0  0  0  0  0
   55.0390   31.1340   44.2110 H   0  0  0  0  0  0  0  0  0  0  0  0
   54.7730   28.9670   45.4890 H   0  0  0  0  0  0  0  0  0  0  0  0
   58.8750   23.9951   46.1112 H   0  0  0  0  0  0  0  0  0  0  0  0
   57.6788   21.8624   44.9711 H   0  0  0  0  0  0  0  0  0  0  0  0
   56.1660   22.5980   41.8850 H   0  0  0  0  0  0  0  0  0  0  0  0
   56.3210   25.3520   43.0100 H   0  0  0  0  0  0  0  0  0  0  0  0
   58.5760   29.0880   43.8290 H   0  0  0  0  0  0  0  0  0  0  0  0
   57.0380   31.7270   45.6816 H   0  0  0  0  0  0  0  0  0  0  0  0
   57.7663   32.3952   47.9257 H   0  0  0  0  0  0  0  0  0  0  0  0
  1  2  1  0
  2  3  2  0
  3  4  1  0
  4  5  2  0
  5  6  1  0
  6  7  1  0
  7  8  2  0
  8  9  1  0
  9 10  1  0
 10 11  1  0
 11 12  2  0
 12 13  1  0
 13 14  2  0
 13 15  1  0
 15 16  2  0
 16 17  1  0
 17 18  2  0
 18 19  1  0
 18 20  1  0
 11 21  1  0
  5 22  1  0
 22 23  2  0
 23  2  1  0
 21  8  1  0
 20 15  1  0
  1 24  1  0
  1 25  1  0
  1 26  1  0
  3 27  1  0
  4 28  1  0
  6 29  1  0
  6 30  1  0
  9 31  1  0
 10 32  1  0
 16 33  1  0
 17 34  1  0
 19 35  1  0
 20 36  1  0
 21 37  1  0
 22 38  1  0
 23 39  1  0
M  END
>  <smiles>  (30) 
Cc1ccc(CN=c2[nH][nH]c(=NC(=O)c3ccc(O)[nH]3)[nH]2)cc1

>  <score_type>  (30) 
oracle

>  <origin>  (30) 
adg

>  <m_score__min__energy>  (30) 
-9.0999999999999996

>  <m_primary>  (30) 
energy

$$$$
30:0
     RDKit          3D

 38 40  0  0  0  0  0  0  0  0999 V2000
   57.4750   25.5750   43.4430 C   0  0  0  0  0  0  0  0  0  0  0  0
   57.7310   25.7190   44.7540 C   0  0  0  0  0  0  0  0  0  0  0  0
   57.1070   25.0240   45.8050 C   0  0  0  0  0  0  0  0  0  0  0  0
   56.3040   23.9420   45.7990 C   0  0  0  0  0  0  0  0  0  0  0  0
   54.8620   23.9450   45.5020 C   0  0  0  0  0  0  0  0  0  0  0  0
   54.1270   22.8450   45.2540 N   0  0  0  0  0  0  0  0  0  0  0  0
   52.8650   23.3230   45.1850 C   0  0  0  0  0  0  0  0  0  0  0  0
   51.8740   22.5850   44.9460 O   0  0  0  0  0  0  0  0  0  0  0  0
   52.7490   24.6500   45.4020 N   0  0  0  0  0  0  0  0  0  0  0  0
   54.0200   25.0250   45.6160 C   0  0  0  0  0  0  0  0  0  0  0  0
   54.4030   26.3270   45.9150 O   0  0  0  0  0  0  0  0  0  0  0  0
   57.4880   25.6610   46.9700 C   0  0  0  0  0  0  0  0  0  0  0  0
   58.3790   26.6510   46.6140 C   0  0  0  0  0  0  0  0  0  0  0  0
   59.0180   27.5960   47.5880 C   0  0  0  0  0  0  0  0  0  0  0  0
   58.5350   26.6910   45.2700 N   0  0  0  0  0  0  0  0  0  0  0  0
   59.3620   27.6720   44.5440 C   0  0  0  0  0  0  0  0  0  0  0  0
   58.8830   29.0770   44.8050 C   0  0  0  0  0  0  0  0  0  0  0  0
   59.6340   29.9460   45.6130 C   0  0  0  0  0  0  0  0  0  0  0  0
   59.1870   31.2460   45.8620 C   0  0  0  0  0  0  0  0  0  0  0  0
   57.9860   31.7030   45.3070 C   0  0  0  0  0  0  0  0  0  0  0  0
   57.5640   33.0470   45.5900 N   0  0  0  0  0  0  0  0  0  0  0  0
   58.3510   33.9730   45.9710 C   0  0  0  0  0  0  0  0  0  0  0  0
   59.3470   35.1450   46.4530 S   0  0  0  0  0  0  0  0  0  0  0  0
   57.2330   30.8360   44.4910 C   0  0  0  0  0  0  0  0  0  0  0  0
   57.6800   29.5350   44.2440 C   0  0  0  0  0  0  0  0  0  0  0  0
   58.0280   26.1752   42.7055 H   0  0  0  0  0  0  0  0  0  0  0  0
   56.7124   24.8569   43.1072 H   0  0  0  0  0  0  0  0  0  0  0  0
   56.7659   22.9724   46.0366 H   0  0  0  0  0  0  0  0  0  0  0  0
   57.1456   25.4235   47.9880 H   0  0  0  0  0  0  0  0  0  0  0  0
   58.7970   27.2691   48.6148 H   0  0  0  0  0  0  0  0  0  0  0  0
   60.1068   27.6028   47.4317 H   0  0  0  0  0  0  0  0  0  0  0  0
   58.6188   28.6090   47.4317 H   0  0  0  0  0  0  0  0  0  0  0  0
   60.4062   27.5797   44.8774 H   0  0  0  0  0  0  0  0  0  0  0  0
   59.2835   27.4685   43.4658 H   0  0  0  0  0  0  0  0  0  0  0  0
   60.5811   29.6006   46.0531 H   0  0  0  0  0  0  0  0  0  0  0  0
   59.7835   31.9156   46.4991 H   0  0  0  0  0  0  0  0  0  0  0  0
   56.2892   31.1845   44.0463 H   0  0  0  0  0  0  0  0  0  0  0  0
   57.0852   28.8651   43.6056 H   0  0  0  0  0  0  0  0  0  0  0  0
  1  2  2  0
  2  3  1  0
  3  4  2  3
  4  5  1  0
  5  6  1  0
  6  7  1  0
  7  8  2  0
  7  9  1  0
  9 10  1  0
 10 11  1  0
  3 12  1  0
 12 13  2  0
 13 14  1  0
 13 15  1  0
 15 16  1  0
 16 17  1  0
 17 18  2  0
 18 19  1  0
 19 20  2  0
 20 21  1  0
 21 22  2  0
 22 23  2  0
 20 24  1  0
 24 25  2  0
 15  2  1  0
 25 17  1  0
 10  5  2  0
  1 26  1  0
  1 27  1  0
  4 28  1  0
 12 29  1  0
 14 30  1  0
 14 31  1  0
 14 32  1  0
 16 33  1  0
 16 34  1  0
 18 35  1  0
 19 36  1  0
 24 37  1  0
 25 38  1  0
M  CHG  3   6  -1   9  -1  11  -1
M  END
>  <UniqueID>  (31) 
30

>  <SMILES>  (31) 
C=c1c(=Cc2[n-]c(=O)[n-]c2[O-])cc(C)n1Cc1ccc(N=C=S)cc1

>  <Energy>  (31) 
109.58515886831042

>  <Genealogy>  (31) 
C=c1c(=Cc2[n-]c(=O)[n-]c2[O-])cc(C)n1Cc1ccc(N=C=S)cc1 (protonated)
C=c1c(=Cc2[n-]c(=O)[n-]c2[O-])cc(C)n1Cc1ccc(N=C=S)cc1 (3D coordinates assigned)
C=c1c(=Cc2[n-]c(=O)[n-]c2[O-])cc(C)n1Cc1ccc(N=C=S)cc1 (optimized conformer: 109.58515886831042 kcal/mol)

>  <smiles>  (31) 
C=c1c(=Cc2[nH]c(=O)[nH]c2O)cc(C)n1Cc1ccc(N=C=S)cc1

>  <score_type>  (31) 
oracle

>  <origin>  (31) 
adg

>  <m_score__min__energy>  (31) 
-15.73

>  <m_primary>  (31) 
energy

$$$$
31:0
     RDKit          3D

 50 53  0  0  0  0  0  0  0  0999 V2000
   59.2710   33.0670   49.4770 C   0  0  0  0  0  0  0  0  0  0  0  0
   60.3930   32.1080   49.0170 C   0  0  1  0  0  0  0  0  0  0  0  0
   59.8290   30.9400   48.3210 N   0  0  0  0  0  0  0  0  0  0  0  0
   59.1430   30.9410   47.2090 C   0  0  0  0  0  0  0  0  0  0  0  0
   58.6060   29.6520   46.7000 C   0  0  0  0  0  0  0  0  0  0  0  0
   58.5360   28.5320   47.5400 C   0  0  0  0  0  0  0  0  0  0  0  0
   58.0380   27.3150   47.0690 C   0  0  0  0  0  0  0  0  0  0  0  0
   57.6010   27.1710   45.7320 C   0  0  0  0  0  0  0  0  0  0  0  0
   57.0800   25.8990   45.2360 N   0  0  0  0  0  0  0  0  0  0  0  0
   57.5430   25.3860   43.9290 C   0  0  0  0  0  0  0  0  0  0  0  0
   56.9740   24.0090   43.5730 C   0  0  0  0  0  0  0  0  0  0  0  0
   55.6330   23.8970   43.9820 O   0  0  0  0  0  0  0  0  0  0  0  0
   55.6000   23.8660   45.3890 C   0  0  0  0  0  0  0  0  0  0  0  0
   55.9920   25.2240   45.9770 C   0  0  0  0  0  0  0  0  0  0  0  0
   57.6810   28.3080   44.8940 C   0  0  0  0  0  0  0  0  0  0  0  0
   58.1780   29.5240   45.3700 C   0  0  0  0  0  0  0  0  0  0  0  0
   58.9350   32.2020   46.4510 C   0  0  0  0  0  0  0  0  0  0  0  0
   57.6600   32.5340   45.9630 C   0  0  0  0  0  0  0  0  0  0  0  0
   57.4520   33.7490   45.3080 C   0  0  0  0  0  0  0  0  0  0  0  0
   58.5080   34.6470   45.1420 C   0  0  0  0  0  0  0  0  0  0  0  0
   59.7800   34.3290   45.6230 C   0  0  0  0  0  0  0  0  0  0  0  0
   60.0040   33.1030   46.2720 C   0  0  0  0  0  0  0  0  0  0  0  0
   61.3830   32.7410   46.7650 C   0  0  0  0  0  0  0  0  0  0  0  0
   61.4910   32.7570   48.2410 N   0  0  0  0  0  0  0  0  0  0  0  0
   61.9000   34.0740   48.7570 C   0  0  0  0  0  0  0  0  0  0  0  0
   59.2395   33.0940   50.5762 H   0  0  0  0  0  0  0  0  0  0  0  0
   59.4712   34.0774   49.0910 H   0  0  0  0  0  0  0  0  0  0  0  0
   58.3041   32.7120   49.0910 H   0  0  0  0  0  0  0  0  0  0  0  0
   60.8872   31.7619   49.9368 H   0  0  0  0  0  0  0  0  0  0  0  0
   58.8774   28.6125   48.5826 H   0  0  0  0  0  0  0  0  0  0  0  0
   57.9848   26.4531   47.7504 H   0  0  0  0  0  0  0  0  0  0  0  0
   57.2402   26.0995   43.1485 H   0  0  0  0  0  0  0  0  0  0  0  0
   58.6355   25.2759   43.9949 H   0  0  0  0  0  0  0  0  0  0  0  0
   57.0310   23.8668   42.4837 H   0  0  0  0  0  0  0  0  0  0  0  0
   57.5645   23.2405   44.0932 H   0  0  0  0  0  0  0  0  0  0  0  0
   54.5822   23.6112   45.7194 H   0  0  0  0  0  0  0  0  0  0  0  0
   56.3193   23.1114   45.7399 H   0  0  0  0  0  0  0  0  0  0  0  0
   55.1065   25.8765   45.9654 H   0  0  0  0  0  0  0  0  0  0  0  0
   56.3625   25.0392   46.9961 H   0  0  0  0  0  0  0  0  0  0  0  0
   57.3459   28.2334   43.8489 H   0  0  0  0  0  0  0  0  0  0  0  0
   58.2343   30.3904   44.6946 H   0  0  0  0  0  0  0  0  0  0  0  0
   56.8224   31.8338   46.0976 H   0  0  0  0  0  0  0  0  0  0  0  0
   56.4531   33.9997   44.9215 H   0  0  0  0  0  0  0  0  0  0  0  0
   58.3379   35.6065   44.6316 H   0  0  0  0  0  0  0  0  0  0  0  0
   60.6089   35.0404   45.4934 H   0  0  0  0  0  0  0  0  0  0  0  0
   61.6298   31.7309   46.4062 H   0  0  0  0  0  0  0  0  0  0  0  0
   62.0811   33.4965   46.3753 H   0  0  0  0  0  0  0  0  0  0  0  0
   61.8941   34.0549   49.8568 H   0  0  0  0  0  0  0  0  0  0  0  0
   62.9135   34.3091   48.3998 H   0  0  0  0  0  0  0  0  0  0  0  0
   61.1980   34.8419   48.3998 H   0  0  0  0  0  0  0  0  0  0  0  0
  1  2  1  0
  2  3  1  0
  3  4  2  0
  4  5  1  0
  5  6  2  0
  6  7  1  0
  7  8  2  0
  8  9  1  0
  9 10  1  0
 10 11  1  0
 11 12  1  0
 12 13  1  0
 13 14  1  0
  8 15  1  0
 15 16  2  0
  4 17  1  0
 17 18  2  0
 18 19  1  0
 19 20  2  0
 20 21  1  0
 21 22  2  0
 22 23  1  0
 23 24  1  0
 24 25  1  0
 24  2  1  0
 16  5  1  0
 22 17  1  0
 14  9  1  0
  1 26  1  0
  1 27  1  0
  1 28  1  0
  2 29  1  1
  6 30  1  0
  7 31  1  0
 10 32  1  0
 10 33  1  0
 11 34  1  0
 11 35  1  0
 13 36  1  0
 13 37  1  0
 14 38  1  0
 14 39  1  0
 15 40  1  0
 16 41  1  0
 18 42  1  0
 19 43  1  0
 20 44  1  0
 21 45  1  0
 23 46  1  0
 23 47  1  0
 25 48  1  0
 25 49  1  0
 25 50  1  0
M  END
>  <UniqueID>  (32) 
31

>  <SMILES>  (32) 
C[C@H]1N=C(c2ccc(N3CCOCC3)cc2)c2ccccc2CN1C

>  <Energy>  (32) 
82.70445288672776

>  <Genealogy>  (32) 
C[C@H]1N=C(c2ccc(N3CCOCC3)cc2)c2ccccc2CN1C (chirality)
C[C@H]1N=C(c2ccc(N3CCOCC3)cc2)c2ccccc2CN1C (3D coordinates assigned)
C[C@H]1N=C(c2ccc(N3CCOCC3)cc2)c2ccccc2CN1C (nonaromatic ring conformer: 82.70445288672776 kcal/mol)

>  <smiles>  (32) 
CC1N=C(c2ccc(N3CCOCC3)cc2)c2ccccc2CN1C

>  <score_type>  (32) 
oracle

>  <origin>  (32) 
adg

>  <m_score__min__energy>  (32) 
-7.6200000000000001

>  <m_primary>  (32) 
energy

$$$$
32:0
     RDKit          3D

 41 43  0  0  0  0  0  0  0  0999 V2000
   58.5830   32.3780   48.2450 C   0  0  0  0  0  0  0  0  0  0  0  0
   58.8050   33.1960   47.0000 C   0  0  0  0  0  0  0  0  0  0  0  0
   59.4380   34.4460   47.1190 C   0  0  0  0  0  0  0  0  0  0  0  0
   59.6390   35.2520   45.9990 C   0  0  0  0  0  0  0  0  0  0  0  0
   59.2190   34.8190   44.7420 C   0  0  0  0  0  0  0  0  0  0  0  0
   58.6010   33.5750   44.6010 C   0  0  0  0  0  0  0  0  0  0  0  0
   58.3930   32.7430   45.7170 C   0  0  0  0  0  0  0  0  0  0  0  0
   57.7630   31.4170   45.5020 C   0  0  0  0  0  0  0  0  0  0  0  0
   56.6410   31.3380   44.9330 O   0  0  0  0  0  0  0  0  0  0  0  0
   58.4350   30.2200   45.9300 N   0  0  0  0  0  0  0  0  0  0  0  0
   57.7930   28.9400   46.0630 C   0  0  0  0  0  0  0  0  0  0  0  0
   58.3650   27.9580   46.8780 C   0  0  0  0  0  0  0  0  0  0  0  0
   57.7400   26.7190   47.0360 C   0  0  0  0  0  0  0  0  0  0  0  0
   56.5240   26.4650   46.3720 C   0  0  0  0  0  0  0  0  0  0  0  0
   55.8760   25.3370   46.4740 N   0  0  0  0  0  0  0  0  0  0  0  0
   55.3050   24.5210   45.4350 C   0  0  0  0  0  0  0  0  0  0  0  0
   54.0790   24.6050   45.1570 O   0  0  0  0  0  0  0  0  0  0  0  0
   56.1450   23.5090   44.7500 C   0  0  0  0  0  0  0  0  0  0  0  0
   55.8340   23.0830   43.4440 C   0  0  0  0  0  0  0  0  0  0  0  0
   56.6270   22.1270   42.8030 C   0  0  0  0  0  0  0  0  0  0  0  0
   57.7380   21.5860   43.4540 C   0  0  0  0  0  0  0  0  0  0  0  0
   58.0560   21.9980   44.7490 C   0  0  0  0  0  0  0  0  0  0  0  0
   57.2670   22.9540   45.3960 C   0  0  0  0  0  0  0  0  0  0  0  0
   55.9690   27.4550   45.6200 N   0  0  0  0  0  0  0  0  0  0  0  0
   56.5600   28.6660   45.4510 C   0  0  0  0  0  0  0  0  0  0  0  0
   58.7535   33.0062   49.1317 H   0  0  0  0  0  0  0  0  0  0  0  0
   57.5499   32.0004   48.2563 H   0  0  0  0  0  0  0  0  0  0  0  0
   59.2835   31.5299   48.2563 H   0  0  0  0  0  0  0  0  0  0  0  0
   59.7783   34.7917   48.1063 H   0  0  0  0  0  0  0  0  0  0  0  0
   60.1295   36.2306   46.1073 H   0  0  0  0  0  0  0  0  0  0  0  0
   59.3747   35.4582   43.8604 H   0  0  0  0  0  0  0  0  0  0  0  0
   58.2727   33.2411   43.6056 H   0  0  0  0  0  0  0  0  0  0  0  0
   59.4720   30.2630   46.0580 H   0  0  0  0  0  0  0  0  0  0  0  0
   59.3127   28.1626   47.3976 H   0  0  0  0  0  0  0  0  0  0  0  0
   58.1942   25.9470   47.6745 H   0  0  0  0  0  0  0  0  0  0  0  0
   54.9611   23.5056   42.9249 H   0  0  0  0  0  0  0  0  0  0  0  0
   56.3755   21.7999   41.7833 H   0  0  0  0  0  0  0  0  0  0  0  0
   58.3620   20.8357   42.9464 H   0  0  0  0  0  0  0  0  0  0  0  0
   58.9296   21.5695   45.2620 H   0  0  0  0  0  0  0  0  0  0  0  0
   57.5242   23.2748   46.4163 H   0  0  0  0  0  0  0  0  0  0  0  0
   56.0713   29.4338   44.8332 H   0  0  0  0  0  0  0  0  0  0  0  0
  1  2  1  0
  2  3  2  0
  3  4  1  0
  4  5  2  0
  5  6  1  0
  6  7  2  0
  7  8  1  0
  8  9  2  0
  8 10  1  0
 10 11  1  0
 11 12  1  0
 12 13  2  0
 13 14  1  0
 14 15  2  3
 15 16  1  0
 16 17  2  0
 16 18  1  0
 18 19  2  0
 19 20  1  0
 20 21  2  0
 21 22  1  0
 22 23  2  0
 14 24  1  0
 24 25  1  0
  7  2  1  0
 25 11  2  0
 23 18  1  0
  1 26  1  0
  1 27  1  0
  1 28  1  0
  3 29  1  0
  4 30  1  0
  5 31  1  0
  6 32  1  0
 10 33  1  0
 12 34  1  0
 13 35  1  0
 19 36  1  0
 20 37  1  0
 21 38  1  0
 22 39  1  0
 23 40  1  0
 25 41  1  0
M  CHG  1  24  -1
M  END
>  <UniqueID>  (33) 
32

>  <SMILES>  (33) 
Cc1ccccc1C(=O)Nc1ccc(=NC(=O)c2ccccc2)[n-]c1

>  <Energy>  (33) 
61.37542256156738

>  <Genealogy>  (33) 
Cc1ccccc1C(=O)Nc1ccc(=NC(=O)c2ccccc2)[n-]c1 (protonated)
Cc1ccccc1C(=O)Nc1ccc(=NC(=O)c2ccccc2)[n-]c1 (3D coordinates assigned)
Cc1ccccc1C(=O)Nc1ccc(=NC(=O)c2ccccc2)[n-]c1 (optimized conformer: 61.37542256156738 kcal/mol)

>  <smiles>  (33) 
Cc1ccccc1C(=O)Nc1ccc(=NC(=O)c2ccccc2)[nH]c1

>  <score_type>  (33) 
oracle

>  <origin>  (33) 
adg

>  <m_score__min__energy>  (33) 
-10.68

>  <m_primary>  (33) 
energy

$$$$
33:0
     RDKit          3D

 45 47  0  0  0  0  0  0  0  0999 V2000
   64.7390   31.6990   50.1150 C   0  0  0  0  0  0  0  0  0  0  0  0
   63.7310   32.5360   49.4750 N   0  0  0  0  0  0  0  0  0  0  0  0
   63.7430   32.9020   48.2040 N   0  0  0  0  0  0  0  0  0  0  0  0
   62.5960   33.5770   47.9750 C   0  0  0  0  0  0  0  0  0  0  0  0
   61.8380   33.6470   49.0940 N   0  0  0  0  0  0  0  0  0  0  0  0
   62.5720   32.9700   50.0020 C   0  0  0  0  0  0  0  0  0  0  0  0
   62.2100   32.7580   51.1910 O   0  0  0  0  0  0  0  0  0  0  0  0
   60.5070   34.2270   49.3030 C   0  0  0  0  0  0  0  0  0  0  0  0
   59.7970   34.6710   48.0040 C   0  0  0  0  0  0  0  0  0  0  0  0
   59.7160   33.6280   46.9520 N   0  0  0  0  0  0  0  0  0  0  0  0
   58.4420   33.5670   46.2020 C   0  0  0  0  0  0  0  0  0  0  0  0
   58.0960   32.1580   45.8350 C   0  0  0  0  0  0  0  0  0  0  0  0
   56.9540   31.8060   45.2140 N   0  0  0  0  0  0  0  0  0  0  0  0
   57.0300   30.5160   45.0870 O   0  0  0  0  0  0  0  0  0  0  0  0
   58.1590   30.0850   45.5980 C   0  0  0  0  0  0  0  0  0  0  0  0
   58.5890   28.6350   45.6440 C   0  0  0  0  0  0  0  0  0  0  0  0
   59.1610   28.3240   47.0380 C   0  0  0  0  0  0  0  0  0  0  0  0
   59.6680   28.3910   44.5730 C   0  0  0  0  0  0  0  0  0  0  0  0
   57.3850   27.7120   45.3700 C   0  0  0  0  0  0  0  0  0  0  0  0
   58.8920   31.1010   46.0980 N   0  0  0  0  0  0  0  0  0  0  0  0
   60.9240   33.4850   46.0990 C   0  0  0  0  0  0  0  0  0  0  0  0
   62.2090   34.1370   46.6450 C   0  0  0  0  0  0  0  0  0  0  0  0
   64.6423   31.7793   51.2078 H   0  0  0  0  0  0  0  0  0  0  0  0
   64.5938   30.6521   49.8100 H   0  0  0  0  0  0  0  0  0  0  0  0
   65.7413   32.0341   49.8100 H   0  0  0  0  0  0  0  0  0  0  0  0
   64.4960   32.6780   47.5160 H   0  0  0  0  0  0  0  0  0  0  0  0
   59.8772   33.4745   49.8002 H   0  0  0  0  0  0  0  0  0  0  0  0
   60.6494   35.1330   49.9103 H   0  0  0  0  0  0  0  0  0  0  0  0
   58.7725   34.9777   48.2616 H   0  0  0  0  0  0  0  0  0  0  0  0
   60.4018   35.4882   47.5841 H   0  0  0  0  0  0  0  0  0  0  0  0
   57.6377   33.9827   46.8268 H   0  0  0  0  0  0  0  0  0  0  0  0
   58.5551   34.1500   45.2761 H   0  0  0  0  0  0  0  0  0  0  0  0
   58.4718   28.6987   47.8091 H   0  0  0  0  0  0  0  0  0  0  0  0
   59.2811   27.2364   47.1508 H   0  0  0  0  0  0  0  0  0  0  0  0
   60.1391   28.8145   47.1508 H   0  0  0  0  0  0  0  0  0  0  0  0
   60.6285   28.1738   45.0631 H   0  0  0  0  0  0  0  0  0  0  0  0
   59.3750   27.5364   43.9454 H   0  0  0  0  0  0  0  0  0  0  0  0
   59.7712   29.2885   43.9454 H   0  0  0  0  0  0  0  0  0  0  0  0
   56.9524   27.3803   46.3254 H   0  0  0  0  0  0  0  0  0  0  0  0
   56.6253   28.2613   44.7945 H   0  0  0  0  0  0  0  0  0  0  0  0
   57.7182   26.8357   44.7945 H   0  0  0  0  0  0  0  0  0  0  0  0
   61.1197   32.4105   45.9678 H   0  0  0  0  0  0  0  0  0  0  0  0
   60.6940   34.0143   45.1626 H   0  0  0  0  0  0  0  0  0  0  0  0
   63.0281   33.9598   45.9325 H   0  0  0  0  0  0  0  0  0  0  0  0
   62.0185   35.2131   46.7705 H   0  0  0  0  0  0  0  0  0  0  0  0
  1  2  1  0
  2  3  1  0
  3  4  2  0
  4  5  1  0
  5  6  1  0
  6  7  2  0
  5  8  1  0
  8  9  1  0
  9 10  1  0
 10 11  1  0
 11 12  1  0
 12 13  2  0
 13 14  1  0
 14 15  1  0
 15 16  1  0
 16 17  1  0
 16 18  1  0
 16 19  1  0
 15 20  2  0
 10 21  1  0
 21 22  1  0
  6  2  1  0
 20 12  1  0
 22  4  1  0
  1 23  1  0
  1 24  1  0
  1 25  1  0
  3 26  1  0
  8 27  1  0
  8 28  1  0
  9 29  1  0
  9 30  1  0
 11 31  1  0
 11 32  1  0
 17 33  1  0
 17 34  1  0
 17 35  1  0
 18 36  1  0
 18 37  1  0
 18 38  1  0
 19 39  1  0
 19 40  1  0
 19 41  1  0
 21 42  1  0
 21 43  1  0
 22 44  1  0
 22 45  1  0
M  CHG  1   3   1
M  END
>  <UniqueID>  (34) 
33

>  <SMILES>  (34) 
Cn1[nH+]c2n(c1=O)CCN(Cc1noc(C(C)(C)C)n1)CC2

>  <Energy>  (34) 
124.0638684854878

>  <Genealogy>  (34) 
Cn1[nH+]c2n(c1=O)CCN(Cc1noc(C(C)(C)C)n1)CC2 (protonated)
Cn1[nH+]c2n(c1=O)CCN(Cc1noc(C(C)(C)C)n1)CC2 (3D coordinates assigned)
Cn1[nH+]c2n(c1=O)CCN(Cc1noc(C(C)(C)C)n1)CC2 (nonaromatic ring conformer: 124.0638684854878 kcal/mol)

>  <smiles>  (34) 
Cn1nc2n(c1=O)CCN(Cc1noc(C(C)(C)C)n1)CC2

>  <score_type>  (34) 
oracle

>  <origin>  (34) 
adg

>  <m_score__min__energy>  (34) 
-4.9900000000000002

>  <m_primary>  (34) 
energy

$$$$
34:0
     RDKit          3D

 65 69  0  0  0  0  0  0  0  0999 V2000
   57.7440   30.8530   46.3090 O   0  0  0  0  0  0  0  0  0  0  0  0
   58.6590   30.1080   46.7560 C   0  0  0  0  0  0  0  0  0  0  0  0
   59.7210   30.6730   47.5410 N   0  0  0  0  0  0  0  0  0  0  0  0
   59.7660   32.1020   47.8730 C   0  0  0  0  0  0  0  0  0  0  0  0
   61.1530   32.6680   47.6360 C   0  0  0  0  0  0  0  0  0  0  0  0
   61.3710   33.5850   46.5910 C   0  0  0  0  0  0  0  0  0  0  0  0
   62.6460   34.1180   46.3720 C   0  0  0  0  0  0  0  0  0  0  0  0
   63.7130   33.7420   47.1900 C   0  0  0  0  0  0  0  0  0  0  0  0
   63.5090   32.8330   48.2310 C   0  0  0  0  0  0  0  0  0  0  0  0
   62.2360   32.2980   48.4560 C   0  0  0  0  0  0  0  0  0  0  0  0
   59.3270   32.3560   49.3020 C   0  0  0  0  0  0  0  0  0  0  0  0
   58.5140   31.4100   49.9520 C   0  0  0  0  0  0  0  0  0  0  0  0
   58.0690   31.6370   51.2580 C   0  0  0  0  0  0  0  0  0  0  0  0
   58.4240   32.8130   51.9260 C   0  0  0  0  0  0  0  0  0  0  0  0
   59.2180   33.7660   51.2860 C   0  0  0  0  0  0  0  0  0  0  0  0
   59.6640   33.5450   49.9790 C   0  0  0  0  0  0  0  0  0  0  0  0
   58.6410   28.6580   46.4530 C   0  0  0  0  0  0  0  0  0  0  0  0
   59.4410   27.8050   47.2310 C   0  0  0  0  0  0  0  0  0  0  0  0
   59.5030   26.4400   46.9610 C   0  0  0  0  0  0  0  0  0  0  0  0
   58.7680   25.8910   45.9050 C   0  0  0  0  0  0  0  0  0  0  0  0
   58.8480   24.4470   45.5960 C   0  0  0  0  0  0  0  0  0  0  0  0
   59.9850   23.6660   45.6200 C   0  0  0  0  0  0  0  0  0  0  0  0
   59.6690   22.4060   45.2650 N   0  0  0  0  0  0  0  0  0  0  0  0
   58.3720   22.3530   44.9990 N   0  0  0  0  0  0  0  0  0  0  0  0
   57.8450   23.5780   45.1880 C   0  0  0  0  0  0  0  0  0  0  0  0
   56.4060   23.9020   44.9100 C   0  0  0  0  0  0  0  0  0  0  0  0
   55.7050   24.4020   46.1770 C   0  0  0  0  0  0  0  0  0  0  0  0
   54.5700   23.4850   46.5450 C   0  0  0  0  0  0  0  0  0  0  0  0
   54.4760   22.9590   47.8450 C   0  0  0  0  0  0  0  0  0  0  0  0
   53.4410   22.0770   48.1730 C   0  0  0  0  0  0  0  0  0  0  0  0
   52.5020   21.7050   47.2060 C   0  0  0  0  0  0  0  0  0  0  0  0
   52.5990   22.2130   45.9060 C   0  0  0  0  0  0  0  0  0  0  0  0
   51.6710   21.8360   44.9430 O   0  0  0  0  0  0  0  0  0  0  0  0
   53.6300   23.0980   45.5740 C   0  0  0  0  0  0  0  0  0  0  0  0
   57.9740   26.7340   45.1120 C   0  0  0  0  0  0  0  0  0  0  0  0
   57.8680   28.1120   45.3930 C   0  0  0  0  0  0  0  0  0  0  0  0
   56.9640   28.9890   44.5480 C   0  0  0  0  0  0  0  0  0  0  0  0
   55.7190   29.2040   45.1640 O   0  0  0  0  0  0  0  0  0  0  0  0
   60.4230   30.0250   47.9660 H   0  0  0  0  0  0  0  0  0  0  0  0
   59.0586   32.6172   47.2066 H   0  0  0  0  0  0  0  0  0  0  0  0
   60.5343   33.8844   45.9427 H   0  0  0  0  0  0  0  0  0  0  0  0
   62.8080   34.8348   45.5535 H   0  0  0  0  0  0  0  0  0  0  0  0
   64.7146   34.1616   47.0148 H   0  0  0  0  0  0  0  0  0  0  0  0
   64.3505   32.5374   48.8748 H   0  0  0  0  0  0  0  0  0  0  0  0
   62.0804   31.5842   49.2783 H   0  0  0  0  0  0  0  0  0  0  0  0
   58.2264   30.4857   49.4296 H   0  0  0  0  0  0  0  0  0  0  0  0
   57.4384   30.8890   51.7609 H   0  0  0  0  0  0  0  0  0  0  0  0
   58.0777   32.9870   52.9555 H   0  0  0  0  0  0  0  0  0  0  0  0
   59.4935   34.6927   51.8107 H   0  0  0  0  0  0  0  0  0  0  0  0
   60.2816   34.3040   49.4765 H   0  0  0  0  0  0  0  0  0  0  0  0
   60.0263   28.2205   48.0645 H   0  0  0  0  0  0  0  0  0  0  0  0
   60.1347   25.7887   47.5829 H   0  0  0  0  0  0  0  0  0  0  0  0
   60.9924   24.0176   45.8874 H   0  0  0  0  0  0  0  0  0  0  0  0
   56.3553   24.6837   44.1377 H   0  0  0  0  0  0  0  0  0  0  0  0
   55.8998   22.9884   44.5649 H   0  0  0  0  0  0  0  0  0  0  0  0
   56.4295   24.4321   47.0042 H   0  0  0  0  0  0  0  0  0  0  0  0
   55.3038   25.4089   45.9892 H   0  0  0  0  0  0  0  0  0  0  0  0
   55.2181   23.2416   48.6063 H   0  0  0  0  0  0  0  0  0  0  0  0
   53.3656   21.6751   49.1942 H   0  0  0  0  0  0  0  0  0  0  0  0
   51.6875   21.0134   47.4672 H   0  0  0  0  0  0  0  0  0  0  0  0
   53.7055   23.4924   44.5499 H   0  0  0  0  0  0  0  0  0  0  0  0
   57.4251   26.3128   44.2569 H   0  0  0  0  0  0  0  0  0  0  0  0
   57.4559   29.9603   44.3912 H   0  0  0  0  0  0  0  0  0  0  0  0
   56.7874   28.4755   43.5914 H   0  0  0  0  0  0  0  0  0  0  0  0
   55.8940   29.7080   46.0030 H   0  0  0  0  0  0  0  0  0  0  0  0
  1  2  2  0
  2  3  1  0
  3  4  1  0
  4  5  1  0
  5  6  2  0
  6  7  1  0
  7  8  2  0
  8  9  1  0
  9 10  2  0
  4 11  1  0
 11 12  2  0
 12 13  1  0
 13 14  2  0
 14 15  1  0
 15 16  2  0
  2 17  1  0
 17 18  2  0
 18 19  1  0
 19 20  2  0
 20 21  1  0
 21 22  2  0
 22 23  1  0
 23 24  1  0
 24 25  2  0
 25 26  1  0
 26 27  1  0
 27 28  1  0
 28 29  2  0
 29 30  1  0
 30 31  2  0
 31 32  1  0
 32 33  1  0
 32 34  2  0
 20 35  1  0
 35 36  2  0
 36 37  1  0
 37 38  1  0
 10  5  1  0
 16 11  1  0
 36 17  1  0
 25 21  1  0
 34 28  1  0
  3 39  1  0
  4 40  1  0
  6 41  1  0
  7 42  1  0
  8 43  1  0
  9 44  1  0
 10 45  1  0
 12 46  1  0
 13 47  1  0
 14 48  1  0
 15 49  1  0
 16 50  1  0
 18 51  1  0
 19 52  1  0
 22 53  1  0
 26 54  1  0
 26 55  1  0
 27 56  1  0
 27 57  1  0
 29 58  1  0
 30 59  1  0
 31 60  1  0
 34 61  1  0
 35 62  1  0
 37 63  1  0
 37 64  1  0
 38 65  1  0
M  CHG  2  23  -1  33  -1
M  END
>  <UniqueID>  (35) 
34

>  <SMILES>  (35) 
O=C(NC(c1ccccc1)c1ccccc1)c1ccc(-c2c[n-]nc2CCc2cccc([O-])c2)cc1CO

>  <Energy>  (35) 
109.09751869732898

>  <Genealogy>  (35) 
O=C(NC(c1ccccc1)c1ccccc1)c1ccc(-c2c[n-]nc2CCc2cccc([O-])c2)cc1CO (protonated)
O=C(NC(c1ccccc1)c1ccccc1)c1ccc(-c2c[n-]nc2CCc2cccc([O-])c2)cc1CO (3D coordinates assigned)
O=C(NC(c1ccccc1)c1ccccc1)c1ccc(-c2c[n-]nc2CCc2cccc([O-])c2)cc1CO (optimized conformer: 109.09751869732898 kcal/mol)

>  <smiles>  (35) 
O=C(NC(c1ccccc1)c1ccccc1)c1ccc(-c2c[nH]nc2CCc2cccc(O)c2)cc1CO

>  <score_type>  (35) 
oracle

>  <origin>  (35) 
adg

>  <m_score__min__energy>  (35) 
-16.02

>  <m_primary>  (35) 
energy

$$$$
35:0
     RDKit          3D

 47 50  0  0  0  0  0  0  0  0999 V2000
   60.7124   30.0680   47.2071 H   0  0  0  0  0  0  0  0  0  0  0  0
   59.9930   29.8160   46.4140 C   0  0  0  0  0  0  0  0  0  0  0  0
   59.9285   28.7845   46.0373 H   0  0  0  0  0  0  0  0  0  0  0  0
   59.1940   30.7670   45.9060 C   0  0  0  0  0  0  0  0  0  0  0  0
   58.2370   30.5970   44.9010 C   0  0  0  0  0  0  0  0  0  0  0  0
   57.9220   29.4590   44.2530 C   0  0  0  0  0  0  0  0  0  0  0  0
   58.0666   29.4237   43.1631 H   0  0  0  0  0  0  0  0  0  0  0  0
   57.3920   28.2540   44.9280 C   0  0  0  0  0  0  0  0  0  0  0  0
   56.0280   28.1710   45.2470 C   0  0  0  0  0  0  0  0  0  0  0  0
   55.1560   29.1980   44.9020 O   0  0  0  0  0  0  0  0  0  0  0  0
   55.5450   27.0760   45.8890 N   0  0  0  0  0  0  0  0  0  0  0  0
   56.3650   26.0540   46.2460 C   0  0  0  0  0  0  0  0  0  0  0  0
   55.8940   25.0460   46.8350 O   0  0  0  0  0  0  0  0  0  0  0  0
   57.6930   26.1210   45.9730 N   0  0  0  0  0  0  0  0  0  0  0  0
   58.2250   27.1960   45.3350 C   0  0  0  0  0  0  0  0  0  0  0  0
   59.4690   27.2380   45.1310 O   0  0  0  0  0  0  0  0  0  0  0  0
   57.6260   31.8330   44.7280 C   0  0  0  0  0  0  0  0  0  0  0  0
   56.8132   32.0724   44.0266 H   0  0  0  0  0  0  0  0  0  0  0  0
   58.2390   32.7020   45.6090 C   0  0  0  0  0  0  0  0  0  0  0  0
   57.8740   34.1460   45.7690 C   0  0  0  0  0  0  0  0  0  0  0  0
   57.8118   34.3921   46.8393 H   0  0  0  0  0  0  0  0  0  0  0  0
   58.6418   34.7733   45.2926 H   0  0  0  0  0  0  0  0  0  0  0  0
   56.9003   34.3331   45.2926 H   0  0  0  0  0  0  0  0  0  0  0  0
   59.1840   32.0560   46.3290 N   0  0  0  0  0  0  0  0  0  0  0  0
   60.0220   32.6490   47.3380 C   0  0  0  0  0  0  0  0  0  0  0  0
   59.4660   33.4930   48.3090 C   0  0  0  0  0  0  0  0  0  0  0  0
   58.3839   33.6905   48.3097 H   0  0  0  0  0  0  0  0  0  0  0  0
   60.2830   34.0840   49.2760 C   0  0  0  0  0  0  0  0  0  0  0  0
   59.8439   34.7504   50.0331 H   0  0  0  0  0  0  0  0  0  0  0  0
   61.6570   33.8300   49.2830 C   0  0  0  0  0  0  0  0  0  0  0  0
   62.2979   34.3063   50.0396 H   0  0  0  0  0  0  0  0  0  0  0  0
   62.2240   32.9690   48.3280 C   0  0  0  0  0  0  0  0  0  0  0  0
   63.6390   32.7180   48.2970 N   0  0  0  0  0  0  0  0  0  0  0  0
   64.1090   32.6440   47.3670 H   0  0  0  0  0  0  0  0  0  0  0  0
   64.4540   32.5370   49.4640 C   0  0  0  0  0  0  0  0  0  0  0  0
   64.0030   32.1060   50.5920 N   0  0  0  0  0  0  0  0  0  0  0  0
   63.0100   31.8510   50.7880 H   0  0  0  0  0  0  0  0  0  0  0  0
   65.0940   31.9550   51.5460 C   0  0  0  0  0  0  0  0  0  0  0  0
   64.9427   32.6112   52.4157 H   0  0  0  0  0  0  0  0  0  0  0  0
   65.1655   30.9298   51.9384 H   0  0  0  0  0  0  0  0  0  0  0  0
   66.3550   32.3700   50.7650 C   0  0  0  0  0  0  0  0  0  0  0  0
   66.8392   33.2378   51.2368 H   0  0  0  0  0  0  0  0  0  0  0  0
   67.1156   31.5758   50.7362 H   0  0  0  0  0  0  0  0  0  0  0  0
   65.8550   32.7120   49.4470 N   0  0  0  0  0  0  0  0  0  0  0  0
   66.4270   33.0310   48.6330 H   0  0  0  0  0  0  0  0  0  0  0  0
   61.4020   32.4000   47.3450 C   0  0  0  0  0  0  0  0  0  0  0  0
   61.8433   31.7528   46.5727 H   0  0  0  0  0  0  0  0  0  0  0  0
  1  2  1  0
  2  3  1  0
  2  4  2  0
  4  5  1  0
  5  6  2  0
  6  7  1  0
  6  8  1  0
  8  9  2  0
  9 10  1  0
  9 11  1  0
 11 12  1  0
 12 13  2  0
 12 14  1  0
 14 15  1  0
 15 16  2  0
  5 17  1  0
 17 18  1  0
 17 19  2  0
 19 20  1  0
 20 21  1  0
 20 22  1  0
 20 23  1  0
 19 24  1  0
 24 25  1  0
 25 26  2  0
 26 27  1  0
 26 28  1  0
 28 29  1  0
 28 30  2  0
 30 31  1  0
 30 32  1  0
 32 33  1  0
 33 34  1  0
 33 35  1  0
 35 36  2  0
 36 37  1  0
 36 38  1  0
 38 39  1  0
 38 40  1  0
 38 41  1  0
 41 42  1  0
 41 43  1  0
 41 44  1  0
 44 45  1  0
 32 46  2  0
 46 47  1  0
 24  4  1  0
 46 25  1  0
 15  8  1  0
 44 35  1  0
M  CHG  4  10  -1  11  -1  14  -1  36   1
M  END
>  <UniqueID>  (36) 
35

>  <SMILES>  (36) 
C=c1/c(=C/c2c([O-])[n-]c(=O)[n-]c2=O)cc(C)n1-c1cccc(NC2=[NH+]CCN2)c1

>  <Energy>  (36) 
110.43280681912294

>  <Genealogy>  (36) 
C=c1c(=Cc2c([O-])[n-]c(=O)[n-]c2=O)cc(C)n1-c1cccc(NC2=[NH+]CCN2)c1 (protonated)
C=c1/c(=C/c2c([O-])[n-]c(=O)[n-]c2=O)cc(C)n1-c1cccc(NC2=[NH+]CCN2)c1 (cis-trans isomerization)
C=c1/c(=C/c2c([O-])[n-]c(=O)[n-]c2=O)cc(C)n1-c1cccc(NC2=[NH+]CCN2)c1 (3D coordinates assigned)
C=c1/c(=C/c2c([O-])[n-]c(=O)[n-]c2=O)cc(C)n1-c1cccc(NC2=[NH+]CCN2)c1 (nonaromatic ring conformer: 110.43280681912294 kcal/mol)

>  <smiles>  (36) 
C=c1c(=Cc2c(O)[nH]c(=O)[nH]c2=O)cc(C)n1-c1cccc(NC2=NCCN2)c1

>  <score_type>  (36) 
oracle

>  <origin>  (36) 
adg

>  <m_score__min__energy>  (36) 
-15.42

>  <m_primary>  (36) 
energy

$$$$
36:0
     RDKit          3D

 51 53  0  0  0  0  0  0  0  0999 V2000
   63.5500   33.8130   47.5170 C   0  0  0  0  0  0  0  0  0  0  0  0
   62.0580   33.6610   47.5680 C   0  0  0  0  0  0  0  0  0  0  0  0
   61.3950   33.6580   48.8030 C   0  0  0  0  0  0  0  0  0  0  0  0
   60.0060   33.4740   48.8630 C   0  0  0  0  0  0  0  0  0  0  0  0
   59.3120   33.4340   50.1910 C   0  0  0  0  0  0  0  0  0  0  0  0
   59.2860   33.2620   47.6790 C   0  0  0  0  0  0  0  0  0  0  0  0
   59.9350   33.2740   46.4400 C   0  0  0  0  0  0  0  0  0  0  0  0
   59.1680   33.0340   45.2530 N   0  0  0  0  0  0  0  0  0  0  0  0
   57.8130   33.4400   45.0220 C   0  0  0  0  0  0  0  0  0  0  0  0
   57.5930   34.5900   44.5630 O   0  0  0  0  0  0  0  0  0  0  0  0
   56.6500   32.5140   45.2520 C   0  0  0  0  0  0  0  0  0  0  0  0
   56.8190   31.3070   44.5100 O   0  0  0  0  0  0  0  0  0  0  0  0
   57.3710   30.1160   45.0140 C   0  0  0  0  0  0  0  0  0  0  0  0
   58.7420   29.9840   45.3090 C   0  0  0  0  0  0  0  0  0  0  0  0
   59.2430   28.7790   45.8110 C   0  0  0  0  0  0  0  0  0  0  0  0
   58.3870   27.6950   46.0470 C   0  0  0  0  0  0  0  0  0  0  0  0
   58.9590   26.4310   46.5630 C   0  0  0  0  0  0  0  0  0  0  0  0
   58.3390   25.6600   47.4050 N   0  0  0  0  0  0  0  0  0  0  0  0
   57.7510   24.4700   47.0300 O   0  0  0  0  0  0  0  0  0  0  0  0
   56.6550   24.4430   46.1700 C   0  0  0  0  0  0  0  0  0  0  0  0
   55.6550   25.1750   46.4050 O   0  0  0  0  0  0  0  0  0  0  0  0
   56.6740   23.5620   44.9820 C   0  0  0  0  0  0  0  0  0  0  0  0
   55.7920   23.7960   43.9120 C   0  0  0  0  0  0  0  0  0  0  0  0
   55.8010   22.9600   42.7920 C   0  0  0  0  0  0  0  0  0  0  0  0
   56.6900   21.8850   42.7270 C   0  0  0  0  0  0  0  0  0  0  0  0
   57.5700   21.6420   43.7830 C   0  0  0  0  0  0  0  0  0  0  0  0
   57.5640   22.4750   44.9060 C   0  0  0  0  0  0  0  0  0  0  0  0
   57.0230   27.8200   45.7290 C   0  0  0  0  0  0  0  0  0  0  0  0
   56.5210   29.0240   45.2260 C   0  0  0  0  0  0  0  0  0  0  0  0
   55.1660   29.1300   44.9280 O   0  0  0  0  0  0  0  0  0  0  0  0
   61.3280   33.4450   46.3900 C   0  0  0  0  0  0  0  0  0  0  0  0
   63.9496   33.8537   48.5410 H   0  0  0  0  0  0  0  0  0  0  0  0
   63.9881   32.9548   46.9863 H   0  0  0  0  0  0  0  0  0  0  0  0
   63.8060   34.7419   46.9863 H   0  0  0  0  0  0  0  0  0  0  0  0
   61.9679   33.8009   49.7311 H   0  0  0  0  0  0  0  0  0  0  0  0
   60.0595   33.4771   50.9968 H   0  0  0  0  0  0  0  0  0  0  0  0
   58.6319   34.2944   50.2754 H   0  0  0  0  0  0  0  0  0  0  0  0
   58.7353   32.5011   50.2754 H   0  0  0  0  0  0  0  0  0  0  0  0
   58.2013   33.0847   47.7247 H   0  0  0  0  0  0  0  0  0  0  0  0
   56.5844   32.2742   46.3235 H   0  0  0  0  0  0  0  0  0  0  0  0
   55.7274   33.0112   44.9179 H   0  0  0  0  0  0  0  0  0  0  0  0
   59.4217   30.8329   45.1437 H   0  0  0  0  0  0  0  0  0  0  0  0
   60.3180   28.6812   46.0224 H   0  0  0  0  0  0  0  0  0  0  0  0
   59.9585   26.1296   46.2164 H   0  0  0  0  0  0  0  0  0  0  0  0
   55.0907   24.6422   43.9568 H   0  0  0  0  0  0  0  0  0  0  0  0
   55.1065   23.1491   41.9602 H   0  0  0  0  0  0  0  0  0  0  0  0
   56.6968   21.2296   41.8436 H   0  0  0  0  0  0  0  0  0  0  0  0
   58.2690   20.7942   43.7316 H   0  0  0  0  0  0  0  0  0  0  0  0
   58.2596   22.2792   45.7354 H   0  0  0  0  0  0  0  0  0  0  0  0
   56.3467   26.9652   45.8769 H   0  0  0  0  0  0  0  0  0  0  0  0
   61.8493   33.4094   45.4220 H   0  0  0  0  0  0  0  0  0  0  0  0
  1  2  1  0
  2  3  2  0
  3  4  1  0
  4  5  1  0
  4  6  2  0
  6  7  1  0
  7  8  1  0
  8  9  1  0
  9 10  2  0
  9 11  1  0
 11 12  1  0
 12 13  1  0
 13 14  2  0
 14 15  1  0
 15 16  2  0
 16 17  1  0
 17 18  2  3
 18 19  1  0
 19 20  1  0
 20 21  2  0
 20 22  1  0
 22 23  2  0
 23 24  1  0
 24 25  2  0
 25 26  1  0
 26 27  2  0
 16 28  1  0
 28 29  2  0
 29 30  1  0
  7 31  2  0
 31  2  1  0
 29 13  1  0
 27 22  1  0
  1 32  1  0
  1 33  1  0
  1 34  1  0
  3 35  1  0
  5 36  1  0
  5 37  1  0
  5 38  1  0
  6 39  1  0
 11 40  1  0
 11 41  1  0
 14 42  1  0
 15 43  1  0
 17 44  1  0
 23 45  1  0
 24 46  1  0
 25 47  1  0
 26 48  1  0
 27 49  1  0
 28 50  1  0
 31 51  1  0
M  CHG  2   8  -1  30  -1
M  END
>  <UniqueID>  (37) 
36

>  <SMILES>  (37) 
Cc1cc(C)cc([N-]C(=O)COc2ccc(C=NOC(=O)c3ccccc3)cc2[O-])c1

>  <Energy>  (37) 
58.37097960657466

>  <Genealogy>  (37) 
Cc1cc(C)cc([N-]C(=O)COc2ccc(C=NOC(=O)c3ccccc3)cc2[O-])c1 (protonated)
Cc1cc(C)cc([N-]C(=O)COc2ccc(C=NOC(=O)c3ccccc3)cc2[O-])c1 (3D coordinates assigned)
Cc1cc(C)cc([N-]C(=O)COc2ccc(C=NOC(=O)c3ccccc3)cc2[O-])c1 (optimized conformer: 58.37097960657466 kcal/mol)

>  <smiles>  (37) 
Cc1cc(C)cc(NC(=O)COc2ccc(C=NOC(=O)c3ccccc3)cc2O)c1

>  <score_type>  (37) 
oracle

>  <origin>  (37) 
adg

>  <m_score__min__energy>  (37) 
-14.57

>  <m_primary>  (37) 
energy

$$$$
37:0
     RDKit          3D

 41 43  0  0  0  0  0  0  0  0999 V2000
   58.7320   30.9620   49.2080 C   0  0  0  0  0  0  0  0  0  0  0  0
   59.2370   29.7030   48.5530 C   0  0  0  0  0  0  0  0  0  0  0  0
   60.2950   29.0050   49.1530 C   0  0  0  0  0  0  0  0  0  0  0  0
   60.7730   27.8230   48.5900 C   0  0  0  0  0  0  0  0  0  0  0  0
   60.2060   27.3240   47.4190 C   0  0  0  0  0  0  0  0  0  0  0  0
   59.1660   28.0180   46.7800 C   0  0  0  0  0  0  0  0  0  0  0  0
   58.5560   27.4390   45.5280 C   0  0  0  0  0  0  0  0  0  0  0  0
   57.2660   26.7530   45.8510 C   0  0  0  0  0  0  0  0  0  0  0  0
   57.1710   25.4780   46.2690 N   0  0  0  0  0  0  0  0  0  0  0  0
   55.8390   25.2800   46.3600 C   0  0  0  0  0  0  0  0  0  0  0  0
   55.3400   24.1900   46.7400 O   0  0  0  0  0  0  0  0  0  0  0  0
   55.0820   26.3450   46.0160 N   0  0  0  0  0  0  0  0  0  0  0  0
   56.0010   27.2660   45.6860 C   0  0  0  0  0  0  0  0  0  0  0  0
   55.6940   28.5470   45.2400 O   0  0  0  0  0  0  0  0  0  0  0  0
   58.6910   29.2260   47.3380 C   0  0  0  0  0  0  0  0  0  0  0  0
   57.6300   29.9370   46.6840 N   0  0  0  0  0  0  0  0  0  0  0  0
   57.8180   30.8690   45.6110 C   0  0  0  0  0  0  0  0  0  0  0  0
   56.8360   31.1530   44.8760 O   0  0  0  0  0  0  0  0  0  0  0  0
   59.1650   31.4510   45.2850 C   0  0  0  0  0  0  0  0  0  0  0  0
   59.5020   32.5510   46.2550 C   0  0  0  0  0  0  0  0  0  0  0  0
   60.7520   32.5730   46.8970 C   0  0  0  0  0  0  0  0  0  0  0  0
   61.0770   33.6170   47.7690 C   0  0  0  0  0  0  0  0  0  0  0  0
   60.1620   34.6460   48.0050 C   0  0  0  0  0  0  0  0  0  0  0  0
   58.9200   34.6350   47.3640 C   0  0  0  0  0  0  0  0  0  0  0  0
   58.5910   33.5950   46.4870 C   0  0  0  0  0  0  0  0  0  0  0  0
   58.7770   30.8499   50.3014 H   0  0  0  0  0  0  0  0  0  0  0  0
   59.3587   31.8121   48.9005 H   0  0  0  0  0  0  0  0  0  0  0  0
   57.6915   31.1434   48.9005 H   0  0  0  0  0  0  0  0  0  0  0  0
   60.7513   29.3935   50.0754 H   0  0  0  0  0  0  0  0  0  0  0  0
   61.6008   27.2821   49.0718 H   0  0  0  0  0  0  0  0  0  0  0  0
   60.5757   26.3799   46.9923 H   0  0  0  0  0  0  0  0  0  0  0  0
   58.3665   28.2489   44.8081 H   0  0  0  0  0  0  0  0  0  0  0  0
   59.2532   26.7067   45.0947 H   0  0  0  0  0  0  0  0  0  0  0  0
   56.0930   29.3620   45.6920 H   0  0  0  0  0  0  0  0  0  0  0  0
   59.9280   30.6614   45.3510 H   0  0  0  0  0  0  0  0  0  0  0  0
   59.1412   31.8646   44.2660 H   0  0  0  0  0  0  0  0  0  0  0  0
   61.4771   31.7665   46.7130 H   0  0  0  0  0  0  0  0  0  0  0  0
   62.0560   33.6280   48.2705 H   0  0  0  0  0  0  0  0  0  0  0  0
   60.4187   35.4638   48.6944 H   0  0  0  0  0  0  0  0  0  0  0  0
   58.1996   35.4454   47.5492 H   0  0  0  0  0  0  0  0  0  0  0  0
   57.6160   33.5951   45.9778 H   0  0  0  0  0  0  0  0  0  0  0  0
  1  2  1  0
  2  3  2  0
  3  4  1  0
  4  5  2  0
  5  6  1  0
  6  7  1  0
  7  8  1  0
  8  9  1  0
  9 10  1  0
 10 11  2  0
 10 12  1  0
 12 13  1  0
 13 14  1  0
  6 15  2  0
 15 16  1  0
 16 17  1  0
 17 18  2  0
 17 19  1  0
 19 20  1  0
 20 21  2  0
 21 22  1  0
 22 23  2  0
 23 24  1  0
 24 25  2  0
 15  2  1  0
 25 20  1  0
 13  8  2  0
  1 26  1  0
  1 27  1  0
  1 28  1  0
  3 29  1  0
  4 30  1  0
  5 31  1  0
  7 32  1  0
  7 33  1  0
 14 34  1  0
 19 35  1  0
 19 36  1  0
 21 37  1  0
 22 38  1  0
 23 39  1  0
 24 40  1  0
 25 41  1  0
M  CHG  3   9  -1  12  -1  16  -1
M  END
>  <UniqueID>  (38) 
37

>  <SMILES>  (38) 
Cc1cccc(Cc2[n-]c(=O)[n-]c2O)c1[N-]C(=O)Cc1ccccc1

>  <Energy>  (38) 
75.21245239708753

>  <Genealogy>  (38) 
Cc1cccc(Cc2[n-]c(=O)[n-]c2O)c1[N-]C(=O)Cc1ccccc1 (protonated)
Cc1cccc(Cc2[n-]c(=O)[n-]c2O)c1[N-]C(=O)Cc1ccccc1 (3D coordinates assigned)
Cc1cccc(Cc2[n-]c(=O)[n-]c2O)c1[N-]C(=O)Cc1ccccc1 (optimized conformer: 75.21245239708753 kcal/mol)

>  <smiles>  (38) 
Cc1cccc(Cc2[nH]c(=O)[nH]c2O)c1NC(=O)Cc1ccccc1

>  <score_type>  (38) 
oracle

>  <origin>  (38) 
adg

>  <m_score__min__energy>  (38) 
-14.119999999999999

>  <m_primary>  (38) 
energy

$$$$
38:0
     RDKit          3D

 66 69  0  0  0  0  0  0  0  0999 V2000
   56.4020   29.8040   42.3880 C   0  0  0  0  0  0  0  0  0  0  0  0
   56.9990   30.8750   43.2510 C   0  0  0  0  0  0  0  0  0  0  0  0
   57.5990   31.9980   42.6640 C   0  0  0  0  0  0  0  0  0  0  0  0
   58.1280   33.0160   43.4640 C   0  0  0  0  0  0  0  0  0  0  0  0
   58.0550   32.9270   44.8630 C   0  0  0  0  0  0  0  0  0  0  0  0
   58.6480   34.0150   45.7170 C   0  0  0  0  0  0  0  0  0  0  0  0
   59.3840   33.4320   46.8340 N   0  0  0  0  0  0  0  0  0  0  0  0
   60.8180   33.4180   46.8830 C   0  0  0  0  0  0  0  0  0  0  0  0
   61.4860   33.7250   45.8580 O   0  0  0  0  0  0  0  0  0  0  0  0
   61.5410   33.0510   48.1540 C   0  0  0  0  0  0  0  0  0  0  0  0
   61.8710   34.3000   49.0020 C   0  0  0  0  0  0  0  0  0  0  0  0
   63.2170   34.1740   49.7440 C   0  0  0  0  0  0  0  0  0  0  0  0
   63.4800   32.7990   50.2280 N   0  0  0  0  0  0  0  0  0  0  0  0
   62.6180   32.4110   51.3660 C   0  0  0  0  0  0  0  0  0  0  0  0
   62.0960   31.0080   51.1930 C   0  0  0  0  0  0  0  0  0  0  0  0
   62.7440   29.9230   51.8020 C   0  0  0  0  0  0  0  0  0  0  0  0
   62.2680   28.6250   51.6090 C   0  0  0  0  0  0  0  0  0  0  0  0
   61.1410   28.3980   50.8140 C   0  0  0  0  0  0  0  0  0  0  0  0
   60.4710   29.4780   50.2130 C   0  0  0  0  0  0  0  0  0  0  0  0
   59.3320   29.2900   49.3600 N   0  0  0  0  0  0  0  0  0  0  0  0
   59.1350   29.8440   48.0520 C   0  0  0  0  0  0  0  0  0  0  0  0
   59.2160   31.0910   47.8730 O   0  0  0  0  0  0  0  0  0  0  0  0
   58.8880   28.9480   46.8970 C   0  0  0  0  0  0  0  0  0  0  0  0
   59.7060   29.0140   45.7550 C   0  0  0  0  0  0  0  0  0  0  0  0
   59.4750   28.1660   44.6710 C   0  0  0  0  0  0  0  0  0  0  0  0
   58.4300   27.2410   44.7090 C   0  0  0  0  0  0  0  0  0  0  0  0
   57.6010   27.1500   45.8410 C   0  0  0  0  0  0  0  0  0  0  0  0
   56.5020   26.1580   45.8930 C   0  0  0  0  0  0  0  0  0  0  0  0
   55.1430   26.5830   45.9990 N   0  0  0  0  0  0  0  0  0  0  0  0
   56.7550   24.9240   45.8380 O   0  0  0  0  0  0  0  0  0  0  0  0
   57.8390   28.0090   46.9310 C   0  0  0  0  0  0  0  0  0  0  0  0
   60.9630   30.7760   50.3950 C   0  0  0  0  0  0  0  0  0  0  0  0
   63.4910   31.7810   49.1420 C   0  0  0  0  0  0  0  0  0  0  0  0
   62.8030   32.2370   47.8400 C   0  0  0  0  0  0  0  0  0  0  0  0
   57.4390   31.8100   45.4500 C   0  0  0  0  0  0  0  0  0  0  0  0
   56.9060   30.7950   44.6490 C   0  0  0  0  0  0  0  0  0  0  0  0
   55.9654   29.0207   43.0251 H   0  0  0  0  0  0  0  0  0  0  0  0
   55.6168   30.2401   41.7529 H   0  0  0  0  0  0  0  0  0  0  0  0
   57.1858   29.3655   41.7529 H   0  0  0  0  0  0  0  0  0  0  0  0
   57.6540   32.0789   41.5684 H   0  0  0  0  0  0  0  0  0  0  0  0
   58.6033   33.8901   42.9949 H   0  0  0  0  0  0  0  0  0  0  0  0
   59.3331   34.6228   45.1077 H   0  0  0  0  0  0  0  0  0  0  0  0
   57.8371   34.6454   46.1106 H   0  0  0  0  0  0  0  0  0  0  0  0
   58.8380   33.0660   47.6460 H   0  0  0  0  0  0  0  0  0  0  0  0
   60.8691   32.4219   48.7564 H   0  0  0  0  0  0  0  0  0  0  0  0
   61.9156   35.1754   48.3374 H   0  0  0  0  0  0  0  0  0  0  0  0
   61.0812   34.4063   49.7602 H   0  0  0  0  0  0  0  0  0  0  0  0
   64.0254   34.4653   49.0572 H   0  0  0  0  0  0  0  0  0  0  0  0
   63.1722   34.8318   50.6245 H   0  0  0  0  0  0  0  0  0  0  0  0
   63.2034   32.4651   52.2957 H   0  0  0  0  0  0  0  0  0  0  0  0
   61.7623   33.1009   51.4092 H   0  0  0  0  0  0  0  0  0  0  0  0
   63.6286   30.0953   52.4326 H   0  0  0  0  0  0  0  0  0  0  0  0
   62.7822   27.7769   52.0848 H   0  0  0  0  0  0  0  0  0  0  0  0
   60.7773   27.3716   50.6582 H   0  0  0  0  0  0  0  0  0  0  0  0
   60.5329   29.7384   45.7159 H   0  0  0  0  0  0  0  0  0  0  0  0
   60.1197   28.2267   43.7818 H   0  0  0  0  0  0  0  0  0  0  0  0
   58.2541   26.5793   43.8480 H   0  0  0  0  0  0  0  0  0  0  0  0
   54.4510   26.3560   45.2520 H   0  0  0  0  0  0  0  0  0  0  0  0
   57.1965   27.9457   47.8216 H   0  0  0  0  0  0  0  0  0  0  0  0
   60.4574   31.6230   49.9082 H   0  0  0  0  0  0  0  0  0  0  0  0
   64.5379   31.5348   48.9108 H   0  0  0  0  0  0  0  0  0  0  0  0
   62.9214   30.9165   49.5139 H   0  0  0  0  0  0  0  0  0  0  0  0
   63.5007   32.8601   47.2613 H   0  0  0  0  0  0  0  0  0  0  0  0
   62.5167   31.3477   47.2594 H   0  0  0  0  0  0  0  0  0  0  0  0
   57.3753   31.7329   46.5454 H   0  0  0  0  0  0  0  0  0  0  0  0
   56.4119   29.9306   45.1166 H   0  0  0  0  0  0  0  0  0  0  0  0
  1  2  1  0
  2  3  2  0
  3  4  1  0
  4  5  2  0
  5  6  1  0
  6  7  1  0
  7  8  1  0
  8  9  2  0
  8 10  1  0
 10 11  1  0
 11 12  1  0
 12 13  1  0
 13 14  1  0
 14 15  1  0
 15 16  2  0
 16 17  1  0
 17 18  2  0
 18 19  1  0
 19 20  1  0
 20 21  1  0
 21 22  2  0
 21 23  1  0
 23 24  2  0
 24 25  1  0
 25 26  2  0
 26 27  1  0
 27 28  1  0
 28 29  1  0
 28 30  2  0
 27 31  2  0
 19 32  2  0
 13 33  1  0
 33 34  1  0
  5 35  1  0
 35 36  2  0
 36  2  1  0
 34 10  1  0
 32 15  1  0
 31 23  1  0
  1 37  1  0
  1 38  1  0
  1 39  1  0
  3 40  1  0
  4 41  1  0
  6 42  1  0
  6 43  1  0
  7 44  1  0
 10 45  1  0
 11 46  1  0
 11 47  1  0
 12 48  1  0
 12 49  1  0
 14 50  1  0
 14 51  1  0
 16 52  1  0
 17 53  1  0
 18 54  1  0
 24 55  1  0
 25 56  1  0
 26 57  1  0
 29 58  1  0
 31 59  1  0
 32 60  1  0
 33 61  1  0
 33 62  1  0
 34 63  1  0
 34 64  1  0
 35 65  1  0
 36 66  1  0
M  CHG  2  20  -1  29  -1
M  END
>  <UniqueID>  (39) 
38

>  <SMILES>  (39) 
Cc1ccc(CNC(=O)C2CCN(Cc3cccc([N-]C(=O)c4cccc(C([NH-])=O)c4)c3)CC2)cc1

>  <Energy>  (39) 
79.23179413422905

>  <Genealogy>  (39) 
Cc1ccc(CNC(=O)C2CCN(Cc3cccc([N-]C(=O)c4cccc(C([NH-])=O)c4)c3)CC2)cc1 (protonated)
Cc1ccc(CNC(=O)C2CCN(Cc3cccc([N-]C(=O)c4cccc(C([NH-])=O)c4)c3)CC2)cc1 (3D coordinates assigned)
Cc1ccc(CNC(=O)C2CCN(Cc3cccc([N-]C(=O)c4cccc(C([NH-])=O)c4)c3)CC2)cc1 (nonaromatic ring conformer: 79.23179413422905 kcal/mol)

>  <smiles>  (39) 
Cc1ccc(CNC(=O)C2CCN(Cc3cccc(NC(=O)c4cccc(C(N)=O)c4)c3)CC2)cc1

>  <score_type>  (39) 
oracle

>  <origin>  (39) 
adg

>  <m_score__min__energy>  (39) 
-15.199999999999999

>  <m_primary>  (39) 
energy

$$$$
39:0
     RDKit          3D

 59 61  0  0  0  0  0  0  0  0999 V2000
   56.6690   31.0340   42.5550 C   0  0  0  0  0  0  0  0  0  0  0  0
   56.6960   29.8180   43.8580 S   0  0  0  0  0  0  0  0  0  0  0  0
   55.3050   29.3290   44.1510 O   0  0  0  0  0  0  0  0  0  0  0  0
   57.5360   28.6540   43.4130 O   0  0  0  0  0  0  0  0  0  0  0  0
   57.4050   30.4870   45.2930 N   0  0  0  0  0  0  0  0  0  0  0  0
   57.9200   31.8170   45.4330 C   0  0  0  0  0  0  0  0  0  0  0  0
   57.2070   32.8720   44.8530 C   0  0  0  0  0  0  0  0  0  0  0  0
   57.6560   34.1880   44.9870 C   0  0  0  0  0  0  0  0  0  0  0  0
   58.8210   34.4600   45.7080 C   0  0  0  0  0  0  0  0  0  0  0  0
   59.5530   33.4140   46.2880 C   0  0  0  0  0  0  0  0  0  0  0  0
   60.7370   33.6910   47.0510 N   0  0  0  0  0  0  0  0  0  0  0  0
   60.6300   34.2100   48.4170 C   0  0  0  0  0  0  0  0  0  0  0  0
   61.6490   33.5200   49.3480 C   0  0  0  0  0  0  0  0  0  0  0  0
   62.9000   33.0810   48.6730 N   0  0  0  0  0  0  0  0  0  0  0  0
   62.9490   31.6090   48.4980 C   0  0  0  0  0  0  0  0  0  0  0  0
   61.8240   31.1090   47.5810 C   0  0  0  0  0  0  0  0  0  0  0  0
   61.3260   29.8120   48.0410 N   0  0  0  0  0  0  0  0  0  0  0  0
   60.2550   29.0770   47.4160 C   0  0  0  0  0  0  0  0  0  0  0  0
   59.0980   28.6950   48.1220 C   0  0  0  0  0  0  0  0  0  0  0  0
   58.0590   28.0240   47.4670 C   0  0  0  0  0  0  0  0  0  0  0  0
   58.1570   27.7170   46.0970 C   0  0  0  0  0  0  0  0  0  0  0  0
   57.0950   27.0620   45.3760 N   0  0  0  0  0  0  0  0  0  0  0  0
   56.5780   25.4250   45.6420 S   0  0  0  0  0  0  0  0  0  0  0  0
   57.6250   24.6480   46.8530 C   0  0  0  0  0  0  0  0  0  0  0  0
   55.1420   25.4010   46.0890 O   0  0  0  0  0  0  0  0  0  0  0  0
   56.6940   24.6610   44.3520 O   0  0  0  0  0  0  0  0  0  0  0  0
   59.3210   28.0790   45.4060 C   0  0  0  0  0  0  0  0  0  0  0  0
   60.3590   28.7460   46.0580 C   0  0  0  0  0  0  0  0  0  0  0  0
   63.1700   33.8380   47.4290 C   0  0  0  0  0  0  0  0  0  0  0  0
   62.0490   33.6510   46.3970 C   0  0  0  0  0  0  0  0  0  0  0  0
   59.1020   32.0930   46.1420 C   0  0  0  0  0  0  0  0  0  0  0  0
   56.6466   32.0421   42.9946 H   0  0  0  0  0  0  0  0  0  0  0  0
   57.5698   30.9251   41.9331 H   0  0  0  0  0  0  0  0  0  0  0  0
   55.7739   30.8852   41.9331 H   0  0  0  0  0  0  0  0  0  0  0  0
   56.2867   32.6637   44.2877 H   0  0  0  0  0  0  0  0  0  0  0  0
   57.0915   35.0109   44.5242 H   0  0  0  0  0  0  0  0  0  0  0  0
   59.1655   35.4985   45.8212 H   0  0  0  0  0  0  0  0  0  0  0  0
   60.8257   35.2924   48.4077 H   0  0  0  0  0  0  0  0  0  0  0  0
   59.6162   34.0068   48.7924 H   0  0  0  0  0  0  0  0  0  0  0  0
   61.9189   34.2268   50.1465 H   0  0  0  0  0  0  0  0  0  0  0  0
   61.1612   32.6099   49.7272 H   0  0  0  0  0  0  0  0  0  0  0  0
   63.9181   31.3346   48.0557 H   0  0  0  0  0  0  0  0  0  0  0  0
   62.8201   31.1416   49.4854 H   0  0  0  0  0  0  0  0  0  0  0  0
   60.9995   31.8371   47.5896 H   0  0  0  0  0  0  0  0  0  0  0  0
   62.2200   30.9965   46.5609 H   0  0  0  0  0  0  0  0  0  0  0  0
   61.8680   29.3420   48.8030 H   0  0  0  0  0  0  0  0  0  0  0  0
   59.0104   28.9252   49.1941 H   0  0  0  0  0  0  0  0  0  0  0  0
   57.1581   27.7341   48.0277 H   0  0  0  0  0  0  0  0  0  0  0  0
   56.6170   27.5810   44.6040 H   0  0  0  0  0  0  0  0  0  0  0  0
   57.2740   24.9085   47.8624 H   0  0  0  0  0  0  0  0  0  0  0  0
   57.5889   23.5564   46.7226 H   0  0  0  0  0  0  0  0  0  0  0  0
   58.6594   24.9988   46.7226 H   0  0  0  0  0  0  0  0  0  0  0  0
   59.4176   27.8347   44.3378 H   0  0  0  0  0  0  0  0  0  0  0  0
   61.2683   29.0148   45.5004 H   0  0  0  0  0  0  0  0  0  0  0  0
   63.2550   34.9071   47.6734 H   0  0  0  0  0  0  0  0  0  0  0  0
   64.1055   33.4583   46.9923 H   0  0  0  0  0  0  0  0  0  0  0  0
   62.1061   34.4569   45.6505 H   0  0  0  0  0  0  0  0  0  0  0  0
   62.1738   32.6729   45.9094 H   0  0  0  0  0  0  0  0  0  0  0  0
   59.6778   31.2674   46.5857 H   0  0  0  0  0  0  0  0  0  0  0  0
  1  2  1  0
  2  3  2  0
  2  4  2  0
  2  5  1  0
  5  6  1  0
  6  7  2  0
  7  8  1  0
  8  9  2  0
  9 10  1  0
 10 11  1  0
 11 12  1  0
 12 13  1  0
 13 14  1  0
 14 15  1  0
 15 16  1  0
 16 17  1  0
 17 18  1  0
 18 19  2  0
 19 20  1  0
 20 21  2  0
 21 22  1  0
 22 23  1  0
 23 24  1  0
 23 25  2  0
 23 26  2  0
 21 27  1  0
 27 28  2  0
 14 29  1  0
 29 30  1  0
 10 31  2  0
 31  6  1  0
 30 11  1  0
 28 18  1  0
  1 32  1  0
  1 33  1  0
  1 34  1  0
  7 35  1  0
  8 36  1  0
  9 37  1  0
 12 38  1  0
 12 39  1  0
 13 40  1  0
 13 41  1  0
 15 42  1  0
 15 43  1  0
 16 44  1  0
 16 45  1  0
 17 46  1  0
 19 47  1  0
 20 48  1  0
 22 49  1  0
 24 50  1  0
 24 51  1  0
 24 52  1  0
 27 53  1  0
 28 54  1  0
 29 55  1  0
 29 56  1  0
 30 57  1  0
 30 58  1  0
 31 59  1  0
M  CHG  1   5  -1
M  END
>  <UniqueID>  (40) 
39

>  <SMILES>  (40) 
CS(=O)(=O)[N-]c1cccc(N2CCN(CCNc3ccc(NS(C)(=O)=O)cc3)CC2)c1

>  <Energy>  (40) 
66.68752043270322

>  <Genealogy>  (40) 
CS(=O)(=O)[N-]c1cccc(N2CCN(CCNc3ccc(NS(C)(=O)=O)cc3)CC2)c1 (protonated)
CS(=O)(=O)[N-]c1cccc(N2CCN(CCNc3ccc(NS(C)(=O)=O)cc3)CC2)c1 (3D coordinates assigned)
CS(=O)(=O)[N-]c1cccc(N2CCN(CCNc3ccc(NS(C)(=O)=O)cc3)CC2)c1 (nonaromatic ring conformer: 66.68752043270322 kcal/mol)

>  <smiles>  (40) 
CS(=O)(=O)Nc1ccc(NCCN2CCN(c3cccc(NS(C)(=O)=O)c3)CC2)cc1

>  <score_type>  (40) 
oracle

>  <origin>  (40) 
adg

>  <m_score__min__energy>  (40) 
-11.27

>  <m_primary>  (40) 
energy

$$$$
40:0
     RDKit          3D

 55 57  0  0  0  0  0  0  0  0999 V2000
   55.8630   27.4620   45.6440 O   0  0  0  0  0  0  0  0  0  0  0  0
   56.6320   28.3490   45.1950 C   0  0  0  0  0  0  0  0  0  0  0  0
   57.9670   27.9580   44.6230 C   0  0  0  0  0  0  0  0  0  0  0  0
   58.9830   27.7430   45.7170 C   0  0  0  0  0  0  0  0  0  0  0  0
   59.5130   26.5990   45.8330 O   0  0  0  0  0  0  0  0  0  0  0  0
   59.3450   28.8180   46.6760 C   0  0  0  0  0  0  0  0  0  0  0  0
   59.9340   30.0190   46.2380 C   0  0  0  0  0  0  0  0  0  0  0  0
   60.2040   31.0480   47.1440 C   0  0  0  0  0  0  0  0  0  0  0  0
   59.8830   30.9010   48.5000 C   0  0  0  0  0  0  0  0  0  0  0  0
   60.1180   32.2460   49.6220 S   0  0  0  0  0  0  0  0  0  0  0  0
   60.2480   31.7090   51.0210 O   0  0  0  0  0  0  0  0  0  0  0  0
   58.9120   33.1440   49.5820 O   0  0  0  0  0  0  0  0  0  0  0  0
   61.5500   33.1750   49.2140 N   0  0  0  0  0  0  0  0  0  0  0  0
   62.6550   32.2640   48.8240 C   0  0  0  0  0  0  0  0  0  0  0  0
   63.7550   32.9980   48.0450 C   0  0  0  0  0  0  0  0  0  0  0  0
   63.2070   33.5970   46.7350 C   0  0  0  0  0  0  0  0  0  0  0  0
   61.6920   33.8550   46.7840 C   0  0  0  0  0  0  0  0  0  0  0  0
   61.2410   34.2280   48.2070 C   0  0  0  0  0  0  0  0  0  0  0  0
   59.3370   29.6930   48.9510 C   0  0  0  0  0  0  0  0  0  0  0  0
   59.0730   28.6580   48.0480 C   0  0  0  0  0  0  0  0  0  0  0  0
   56.2460   29.7300   45.2330 N   0  0  0  0  0  0  0  0  0  0  0  0
   56.1390   30.5710   44.0420 C   0  0  0  0  0  0  0  0  0  0  0  0
   57.4960   31.1950   43.7100 C   0  0  0  0  0  0  0  0  0  0  0  0
   57.7800   32.3820   44.5990 C   0  0  0  0  0  0  0  0  0  0  0  0
   57.3850   32.3680   45.9500 C   0  0  0  0  0  0  0  0  0  0  0  0
   57.6920   33.4490   46.7850 C   0  0  0  0  0  0  0  0  0  0  0  0
   58.4000   34.5460   46.2800 C   0  0  0  0  0  0  0  0  0  0  0  0
   58.8070   34.5640   44.9390 C   0  0  0  0  0  0  0  0  0  0  0  0
   58.5010   33.4840   44.1000 C   0  0  0  0  0  0  0  0  0  0  0  0
   57.8535   27.0262   44.0496 H   0  0  0  0  0  0  0  0  0  0  0  0
   58.3205   28.7711   43.9719 H   0  0  0  0  0  0  0  0  0  0  0  0
   60.1836   30.1485   45.1746 H   0  0  0  0  0  0  0  0  0  0  0  0
   60.6713   31.9790   46.7906 H   0  0  0  0  0  0  0  0  0  0  0  0
   61.8400   33.6620   50.0950 H   0  0  0  0  0  0  0  0  0  0  0  0
   63.0940   31.8280   49.7335 H   0  0  0  0  0  0  0  0  0  0  0  0
   62.2382   31.4832   48.1708 H   0  0  0  0  0  0  0  0  0  0  0  0
   64.1564   33.8094   48.6699 H   0  0  0  0  0  0  0  0  0  0  0  0
   64.5445   32.2747   47.7931 H   0  0  0  0  0  0  0  0  0  0  0  0
   63.7197   34.5512   46.5437 H   0  0  0  0  0  0  0  0  0  0  0  0
   63.3920   32.8657   45.9344 H   0  0  0  0  0  0  0  0  0  0  0  0
   61.4457   34.6810   46.1006 H   0  0  0  0  0  0  0  0  0  0  0  0
   61.1703   32.9351   46.4812 H   0  0  0  0  0  0  0  0  0  0  0  0
   61.7512   35.1563   48.5037 H   0  0  0  0  0  0  0  0  0  0  0  0
   60.1478   34.3476   48.1832 H   0  0  0  0  0  0  0  0  0  0  0  0
   59.1148   29.5575   50.0198 H   0  0  0  0  0  0  0  0  0  0  0  0
   58.6492   27.7108   48.4130 H   0  0  0  0  0  0  0  0  0  0  0  0
   55.8043   29.9570   43.1929 H   0  0  0  0  0  0  0  0  0  0  0  0
   55.4129   31.3744   44.2349 H   0  0  0  0  0  0  0  0  0  0  0  0
   58.2835   30.4408   43.8551 H   0  0  0  0  0  0  0  0  0  0  0  0
   57.4770   31.5376   42.6649 H   0  0  0  0  0  0  0  0  0  0  0  0
   56.8333   31.5049   46.3510 H   0  0  0  0  0  0  0  0  0  0  0  0
   57.3766   33.4363   47.8387 H   0  0  0  0  0  0  0  0  0  0  0  0
   58.6374   35.3957   46.9371 H   0  0  0  0  0  0  0  0  0  0  0  0
   59.3664   35.4254   44.5452 H   0  0  0  0  0  0  0  0  0  0  0  0
   58.8249   33.4971   43.0488 H   0  0  0  0  0  0  0  0  0  0  0  0
  1  2  2  0
  2  3  1  0
  3  4  1  0
  4  5  2  0
  4  6  1  0
  6  7  2  0
  7  8  1  0
  8  9  2  0
  9 10  1  0
 10 11  2  0
 10 12  2  0
 10 13  1  0
 13 14  1  0
 14 15  1  0
 15 16  1  0
 16 17  1  0
 17 18  1  0
  9 19  1  0
 19 20  2  0
  2 21  1  0
 21 22  1  0
 22 23  1  0
 23 24  1  0
 24 25  2  0
 25 26  1  0
 26 27  2  0
 27 28  1  0
 28 29  2  0
 20  6  1  0
 29 24  1  0
 18 13  1  0
  3 30  1  0
  3 31  1  0
  7 32  1  0
  8 33  1  0
 13 34  1  0
 14 35  1  0
 14 36  1  0
 15 37  1  0
 15 38  1  0
 16 39  1  0
 16 40  1  0
 17 41  1  0
 17 42  1  0
 18 43  1  0
 18 44  1  0
 19 45  1  0
 20 46  1  0
 22 47  1  0
 22 48  1  0
 23 49  1  0
 23 50  1  0
 25 51  1  0
 26 52  1  0
 27 53  1  0
 28 54  1  0
 29 55  1  0
M  CHG  2  13   1  21  -1
M  END
>  <UniqueID>  (41) 
40

>  <SMILES>  (41) 
O=C(CC(=O)c1ccc(S(=O)(=O)[NH+]2CCCCC2)cc1)[N-]CCc1ccccc1

>  <Energy>  (41) 
54.49970451589706

>  <Genealogy>  (41) 
O=C(CC(=O)c1ccc(S(=O)(=O)[NH+]2CCCCC2)cc1)[N-]CCc1ccccc1 (protonated)
O=C(CC(=O)c1ccc(S(=O)(=O)[NH+]2CCCCC2)cc1)[N-]CCc1ccccc1 (3D coordinates assigned)
O=C(CC(=O)c1ccc(S(=O)(=O)[NH+]2CCCCC2)cc1)[N-]CCc1ccccc1 (nonaromatic ring conformer: 54.49970451589706 kcal/mol)

>  <smiles>  (41) 
O=C(CC(=O)c1ccc(S(=O)(=O)N2CCCCC2)cc1)NCCc1ccccc1

>  <score_type>  (41) 
oracle

>  <origin>  (41) 
adg

>  <m_score__min__energy>  (41) 
-10.119999999999999

>  <m_primary>  (41) 
energy

$$$$
41:0
     RDKit          3D

 54 56  0  0  0  0  0  0  0  0999 V2000
   56.5290   30.3050   44.0660 C   0  0  0  0  0  0  0  0  0  0  0  0
   57.0390   28.9080   44.3910 C   0  0  0  0  0  0  0  0  0  0  0  0
   56.2560   28.3470   45.4380 O   0  0  0  0  0  0  0  0  0  0  0  0
   56.2670   26.9810   45.7370 C   0  0  0  0  0  0  0  0  0  0  0  0
   55.1880   26.3760   45.9820 O   0  0  0  0  0  0  0  0  0  0  0  0
   57.5520   26.2530   45.7850 C   0  0  0  0  0  0  0  0  0  0  0  0
   58.7100   26.7690   46.3790 C   0  0  0  0  0  0  0  0  0  0  0  0
   58.8930   28.0850   46.9190 N   0  0  0  0  0  0  0  0  0  0  0  0
   59.7930   28.3660   48.0030 C   0  0  0  0  0  0  0  0  0  0  0  0
   60.2440   27.4230   48.7070 O   0  0  0  0  0  0  0  0  0  0  0  0
   60.1970   29.7500   48.3150 C   0  0  0  0  0  0  0  0  0  0  0  0
   60.3150   30.7930   47.4130 C   0  0  0  0  0  0  0  0  0  0  0  0
   60.7220   31.8810   48.1520 C   0  0  0  0  0  0  0  0  0  0  0  0
   60.9340   33.5130   47.5470 S   0  0  0  0  0  0  0  0  0  0  0  0
   61.8380   33.4710   46.3470 O   0  0  0  0  0  0  0  0  0  0  0  0
   61.5700   34.3690   48.6080 O   0  0  0  0  0  0  0  0  0  0  0  0
   59.3780   34.1720   47.1040 N   0  0  0  0  0  0  0  0  0  0  0  0
   59.4580   34.9220   45.8240 C   0  0  0  0  0  0  0  0  0  0  0  0
   58.8640   34.1500   44.6360 C   0  0  0  0  0  0  0  0  0  0  0  0
   57.3890   33.7890   44.8900 C   0  0  0  0  0  0  0  0  0  0  0  0
   57.0890   33.5300   46.3770 C   0  0  0  0  0  0  0  0  0  0  0  0
   58.3540   33.1060   47.1320 C   0  0  0  0  0  0  0  0  0  0  0  0
   60.8390   31.4720   49.4630 C   0  0  0  0  0  0  0  0  0  0  0  0
   60.5210   30.1690   49.5580 N   0  0  0  0  0  0  0  0  0  0  0  0
   59.9140   25.6020   46.3670 S   0  0  0  0  0  0  0  0  0  0  0  0
   59.0130   24.4270   45.5740 C   0  0  0  0  0  0  0  0  0  0  0  0
   59.5230   23.0570   45.2630 C   0  0  0  0  0  0  0  0  0  0  0  0
   57.7290   24.9240   45.3270 C   0  0  0  0  0  0  0  0  0  0  0  0
   56.6410   24.1140   44.6790 C   0  0  0  0  0  0  0  0  0  0  0  0
   56.3302   30.8495   45.0009 H   0  0  0  0  0  0  0  0  0  0  0  0
   57.2878   30.8455   43.4811 H   0  0  0  0  0  0  0  0  0  0  0  0
   55.6004   30.2295   43.4811 H   0  0  0  0  0  0  0  0  0  0  0  0
   56.9630   28.2729   43.4961 H   0  0  0  0  0  0  0  0  0  0  0  0
   58.0896   28.9674   44.7114 H   0  0  0  0  0  0  0  0  0  0  0  0
   58.2220   28.8250   46.6190 H   0  0  0  0  0  0  0  0  0  0  0  0
   60.1234   30.7596   46.3303 H   0  0  0  0  0  0  0  0  0  0  0  0
   58.9080   35.8678   45.9373 H   0  0  0  0  0  0  0  0  0  0  0  0
   60.5234   35.0891   45.6073 H   0  0  0  0  0  0  0  0  0  0  0  0
   58.9305   34.7743   43.7328 H   0  0  0  0  0  0  0  0  0  0  0  0
   59.4338   33.2182   44.5054 H   0  0  0  0  0  0  0  0  0  0  0  0
   56.7583   34.6209   44.5434 H   0  0  0  0  0  0  0  0  0  0  0  0
   57.1748   32.8602   44.3410 H   0  0  0  0  0  0  0  0  0  0  0  0
   56.6933   34.4515   46.8290 H   0  0  0  0  0  0  0  0  0  0  0  0
   56.3522   32.7162   46.4471 H   0  0  0  0  0  0  0  0  0  0  0  0
   58.0914   32.8886   48.1778 H   0  0  0  0  0  0  0  0  0  0  0  0
   58.7685   32.2129   46.6416 H   0  0  0  0  0  0  0  0  0  0  0  0
   61.1455   32.1131   50.3027 H   0  0  0  0  0  0  0  0  0  0  0  0
   60.5220   29.5970   50.4310 H   0  0  0  0  0  0  0  0  0  0  0  0
   59.7234   22.5186   46.2011 H   0  0  0  0  0  0  0  0  0  0  0  0
   58.7688   22.5087   44.6795 H   0  0  0  0  0  0  0  0  0  0  0  0
   60.4522   23.1354   44.6795 H   0  0  0  0  0  0  0  0  0  0  0  0
   56.0170   23.6495   45.4567 H   0  0  0  0  0  0  0  0  0  0  0  0
   56.0186   24.7703   44.0530 H   0  0  0  0  0  0  0  0  0  0  0  0
   57.0913   23.3295   44.0530 H   0  0  0  0  0  0  0  0  0  0  0  0
  1  2  1  0
  2  3  1  0
  3  4  1  0
  4  5  2  0
  4  6  1  0
  6  7  2  0
  7  8  1  0
  8  9  1  0
  9 10  2  0
  9 11  1  0
 11 12  2  0
 12 13  1  0
 13 14  1  0
 14 15  2  0
 14 16  2  0
 14 17  1  0
 17 18  1  0
 18 19  1  0
 19 20  1  0
 20 21  1  0
 21 22  1  0
 13 23  2  0
 23 24  1  0
  7 25  1  0
 25 26  1  0
 26 27  1  0
 26 28  2  0
 28 29  1  0
 28  6  1  0
 24 11  1  0
 22 17  1  0
  1 30  1  0
  1 31  1  0
  1 32  1  0
  2 33  1  0
  2 34  1  0
  8 35  1  0
 12 36  1  0
 18 37  1  0
 18 38  1  0
 19 39  1  0
 19 40  1  0
 20 41  1  0
 20 42  1  0
 21 43  1  0
 21 44  1  0
 22 45  1  0
 22 46  1  0
 23 47  1  0
 24 48  1  0
 27 49  1  0
 27 50  1  0
 27 51  1  0
 29 52  1  0
 29 53  1  0
 29 54  1  0
M  END
>  <UniqueID>  (42) 
41

>  <SMILES>  (42) 
CCOC(=O)c1c(NC(=O)c2cc(S(=O)(=O)N3CCCCC3)c[nH]2)sc(C)c1C

>  <Energy>  (42) 
110.94105399160058

>  <Genealogy>  (42) 
CCOC(=O)c1c(NC(=O)c2cc(S(=O)(=O)N3CCCCC3)c[nH]2)sc(C)c1C (3D coordinates assigned)
CCOC(=O)c1c(NC(=O)c2cc(S(=O)(=O)N3CCCCC3)c[nH]2)sc(C)c1C (nonaromatic ring conformer: 110.94105399160058 kcal/mol)

>  <smiles>  (42) 
CCOC(=O)c1c(NC(=O)c2cc(S(=O)(=O)N3CCCCC3)c[nH]2)sc(C)c1C

>  <score_type>  (42) 
oracle

>  <origin>  (42) 
adg

>  <m_score__min__energy>  (42) 
-8.9800000000000004

>  <m_primary>  (42) 
energy

$$$$
42:0
     RDKit          3D

 62 63  0  0  0  0  0  0  0  0999 V2000
   60.2127   31.7930   52.7790 H   0  0  0  0  0  0  0  0  0  0  0  0
   58.9230   29.5870   51.7120 C   0  0  0  0  0  0  0  0  0  0  0  0
   60.4810   28.8220   49.9240 C   0  0  0  0  0  0  0  0  0  0  0  0
   60.7980   29.8055   49.5469 H   0  0  0  0  0  0  0  0  0  0  0  0
   60.0530   28.7580   51.2110 C   0  0  0  0  0  0  0  0  0  0  0  0
   59.3060   33.6300   50.2650 C   0  0  0  0  0  0  0  0  0  0  0  0
   58.9224   34.6171   49.9675 H   0  0  0  0  0  0  0  0  0  0  0  0
   59.7620   32.8410   49.2840 C   0  0  0  0  0  0  0  0  0  0  0  0
   59.1707   31.9376   49.0738 H   0  0  0  0  0  0  0  0  0  0  0  0
   59.2660   33.3100   51.7020 C   0  0  0  0  0  0  0  0  0  0  0  0
   58.2068   29.1016   52.3912 H   0  0  0  0  0  0  0  0  0  0  0  0
   59.4540   32.0280   52.0180 C   0  0  0  0  0  0  0  0  0  0  0  0
   58.7000   30.8850   51.4050 C   0  0  0  0  0  0  0  0  0  0  0  0
   57.9212   31.1160   50.6633 H   0  0  0  0  0  0  0  0  0  0  0  0
   60.5570   27.6790   48.9850 C   0  0  0  0  0  0  0  0  0  0  0  0
   60.7150   26.5010   49.4030 O   0  0  0  0  0  0  0  0  0  0  0  0
   60.4600   27.8840   47.5700 N   0  0  0  0  0  0  0  0  0  0  0  0
   59.2180   28.0360   46.8720 C   0  0  0  0  0  0  0  0  0  0  0  0
   58.9760   29.2030   46.1460 C   0  0  0  0  0  0  0  0  0  0  0  0
   59.7638   29.9648   46.0513 H   0  0  0  0  0  0  0  0  0  0  0  0
   57.7350   29.4040   45.5400 C   0  0  0  0  0  0  0  0  0  0  0  0
   57.5365   30.3410   44.9990 H   0  0  0  0  0  0  0  0  0  0  0  0
   56.7410   28.4210   45.6160 C   0  0  0  0  0  0  0  0  0  0  0  0
   55.5180   28.6560   44.9930 O   0  0  0  0  0  0  0  0  0  0  0  0
   56.9960   27.2120   46.3040 C   0  0  0  0  0  0  0  0  0  0  0  0
   55.9830   26.1330   46.3850 C   0  0  0  0  0  0  0  0  0  0  0  0
   56.2810   24.9970   46.8500 O   0  0  0  0  0  0  0  0  0  0  0  0
   54.6890   26.3480   45.9240 O   0  0  0  0  0  0  0  0  0  0  0  0
   58.2480   27.0250   46.9170 C   0  0  0  0  0  0  0  0  0  0  0  0
   58.4673   26.0796   47.4349 H   0  0  0  0  0  0  0  0  0  0  0  0
   58.8290   34.3340   52.7220 C   0  0  0  0  0  0  0  0  0  0  0  0
   58.9979   33.9383   53.7344 H   0  0  0  0  0  0  0  0  0  0  0  0
   59.4115   35.2574   52.5873 H   0  0  0  0  0  0  0  0  0  0  0  0
   57.7593   34.5523   52.5873 H   0  0  0  0  0  0  0  0  0  0  0  0
   60.5960   27.6200   52.0450 C   0  0  0  0  0  0  0  0  0  0  0  0
   60.4813   27.8604   53.1123 H   0  0  0  0  0  0  0  0  0  0  0  0
   60.0403   26.6990   51.8148 H   0  0  0  0  0  0  0  0  0  0  0  0
   61.6615   27.4726   51.8148 H   0  0  0  0  0  0  0  0  0  0  0  0
   60.9820   33.0430   48.4390 C   0  0  0  0  0  0  0  0  0  0  0  0
   60.8890   33.8980   47.3860 C   0  0  0  0  0  0  0  0  0  0  0  0
   59.6630   34.7560   47.1740 C   0  0  0  0  0  0  0  0  0  0  0  0
   59.2464   35.0476   48.1494 H   0  0  0  0  0  0  0  0  0  0  0  0
   59.9401   35.6583   46.6091 H   0  0  0  0  0  0  0  0  0  0  0  0
   58.9102   34.1866   46.6091 H   0  0  0  0  0  0  0  0  0  0  0  0
   61.9330   33.8860   46.2970 C   0  0  0  0  0  0  0  0  0  0  0  0
   61.7169   33.0536   45.6112 H   0  0  0  0  0  0  0  0  0  0  0  0
   61.8890   34.8576   45.7831 H   0  0  0  0  0  0  0  0  0  0  0  0
   63.3520   33.7150   46.8430 C   0  0  0  0  0  0  0  0  0  0  0  0
   63.9869   33.3307   46.0311 H   0  0  0  0  0  0  0  0  0  0  0  0
   63.6645   34.7047   47.2075 H   0  0  0  0  0  0  0  0  0  0  0  0
   63.4730   32.7510   48.0450 C   0  0  0  0  0  0  0  0  0  0  0  0
   64.2036   31.9724   47.7802 H   0  0  0  0  0  0  0  0  0  0  0  0
   63.7727   33.3765   48.8988 H   0  0  0  0  0  0  0  0  0  0  0  0
   62.1550   32.0400   48.4850 C   0  0  0  0  0  0  0  0  0  0  0  0
   62.4070   31.4590   49.8980 C   0  0  0  0  0  0  0  0  0  0  0  0
   62.0901   32.1897   50.6568 H   0  0  0  0  0  0  0  0  0  0  0  0
   61.8310   30.5299   50.0205 H   0  0  0  0  0  0  0  0  0  0  0  0
   63.4789   31.2447   50.0205 H   0  0  0  0  0  0  0  0  0  0  0  0
   61.8290   30.8390   47.5640 C   0  0  0  0  0  0  0  0  0  0  0  0
   61.5902   29.9592   48.1795 H   0  0  0  0  0  0  0  0  0  0  0  0
   60.9658   31.0875   46.9291 H   0  0  0  0  0  0  0  0  0  0  0  0
   62.6994   30.6170   46.9291 H   0  0  0  0  0  0  0  0  0  0  0  0
  1  2  1  0
  2  3  2  0
  3  4  1  0
  3  5  1  0
  5  6  2  0
  6  7  1  0
  6  8  1  0
  8  9  1  0
  8 10  2  0
 10 11  1  0
 10 12  1  0
 12 13  2  3
 13 14  1  0
 13 15  1  0
 15 16  2  0
 15 17  1  0
 17 18  1  0
 18 19  2  0
 19 20  1  0
 19 21  1  0
 21 22  1  0
 21 23  2  0
 23 24  1  0
 23 25  1  0
 25 26  1  0
 26 27  2  0
 26 28  1  0
 25 29  2  0
 29 30  1  0
 12 31  1  0
 31 32  1  0
 31 33  1  0
 31 34  1  0
  5 35  1  0
 35 36  1  0
 35 37  1  0
 35 38  1  0
  2 39  1  0
 39 40  2  0
 40 41  1  0
 41 42  1  0
 41 43  1  0
 41 44  1  0
 40 45  1  0
 45 46  1  0
 45 47  1  0
 45 48  1  0
 48 49  1  0
 48 50  1  0
 48 51  1  0
 51 52  1  0
 51 53  1  0
 51 54  1  0
 54 55  1  0
 55 56  1  0
 55 57  1  0
 55 58  1  0
 54 59  1  0
 59 60  1  0
 59 61  1  0
 59 62  1  0
 29 18  1  0
 54 39  1  0
M  CHG  3  17  -1  24  -1  28  -1
M  END
>  <UniqueID>  (43) 
42

>  <SMILES>  (43) 
CC(=CC(=O)[N-]c1ccc([O-])c(C(=O)[O-])c1)/C=C\C=C(/C)C=CC1=C(C)CCCC1(C)C

>  <Energy>  (43) 
147.89879772117496

>  <Genealogy>  (43) 
CC(C=CC1=C(C)CCCC1(C)C)=CC=CC(C)=CC(=O)[N-]c1ccc([O-])c(C(=O)[O-])c1 (protonated)
CC(=CC(=O)[N-]c1ccc([O-])c(C(=O)[O-])c1)/C=C\C=C(/C)C=CC1=C(C)CCCC1(C)C (cis-trans isomerization)
CC(=CC(=O)[N-]c1ccc([O-])c(C(=O)[O-])c1)/C=C\C=C(/C)C=CC1=C(C)CCCC1(C)C (3D coordinates assigned)
CC(=CC(=O)[N-]c1ccc([O-])c(C(=O)[O-])c1)/C=C\C=C(/C)C=CC1=C(C)CCCC1(C)C (nonaromatic ring conformer: 147.89879772117496 kcal/mol)

>  <smiles>  (43) 
CC(C=CC1=C(C)CCCC1(C)C)=CC=CC(C)=CC(=O)Nc1ccc(O)c(C(=O)O)c1

>  <score_type>  (43) 
oracle

>  <origin>  (43) 
adg

>  <m_score__min__energy>  (43) 
-17.690000000000001

>  <m_primary>  (43) 
energy

$$$$
43:0
     RDKit          3D

 33 35  0  0  0  0  0  0  0  0999 V2000
   58.1060   28.6020   46.7490 O   0  0  0  0  0  0  0  0  0  0  0  0
   57.2230   27.9190   46.1660 C   0  0  0  0  0  0  0  0  0  0  0  0
   56.3710   28.5670   45.2110 N   0  0  0  0  0  0  0  0  0  0  0  0
   56.7240   29.6920   44.3920 C   0  0  0  0  0  0  0  0  0  0  0  0
   56.4610   29.7090   43.0100 C   0  0  0  0  0  0  0  0  0  0  0  0
   56.7870   30.8340   42.2490 C   0  0  0  0  0  0  0  0  0  0  0  0
   57.3750   31.9470   42.8560 C   0  0  0  0  0  0  0  0  0  0  0  0
   57.6530   31.9380   44.2290 C   0  0  0  0  0  0  0  0  0  0  0  0
   58.2370   33.1040   44.8260 N   0  0  0  0  0  0  0  0  0  0  0  0
   58.2510   33.4240   46.2230 C   0  0  0  0  0  0  0  0  0  0  0  0
   57.1860   33.8320   46.7570 O   0  0  0  0  0  0  0  0  0  0  0  0
   59.5290   33.3550   47.0230 C   0  0  0  0  0  0  0  0  0  0  0  0
   59.9350   34.6730   47.6670 C   0  0  0  0  0  0  0  0  0  0  0  0
   60.7260   34.1330   46.4890 C   0  0  0  0  0  0  0  0  0  0  0  0
   57.2920   30.8190   44.9980 C   0  0  0  0  0  0  0  0  0  0  0  0
   57.1190   26.4690   46.4560 C   0  0  0  0  0  0  0  0  0  0  0  0
   58.2620   25.7470   46.8280 C   0  0  0  0  0  0  0  0  0  0  0  0
   58.1740   24.4210   47.1050 N   0  0  0  0  0  0  0  0  0  0  0  0
   56.9890   23.7660   47.0170 C   0  0  0  0  0  0  0  0  0  0  0  0
   56.9280   22.5380   47.2810 O   0  0  0  0  0  0  0  0  0  0  0  0
   55.8690   24.4340   46.6380 N   0  0  0  0  0  0  0  0  0  0  0  0
   55.9060   25.7620   46.3490 C   0  0  0  0  0  0  0  0  0  0  0  0
   54.8510   26.3360   45.9690 O   0  0  0  0  0  0  0  0  0  0  0  0
   55.9980   28.8352   42.5282 H   0  0  0  0  0  0  0  0  0  0  0  0
   56.5803   30.8439   41.1686 H   0  0  0  0  0  0  0  0  0  0  0  0
   57.6205   32.8338   42.2532 H   0  0  0  0  0  0  0  0  0  0  0  0
   59.3792   32.3176   47.3566 H   0  0  0  0  0  0  0  0  0  0  0  0
   59.3019   35.5638   47.5418 H   0  0  0  0  0  0  0  0  0  0  0  0
   60.1851   34.9936   48.6891 H   0  0  0  0  0  0  0  0  0  0  0  0
   60.6653   34.6322   45.5107 H   0  0  0  0  0  0  0  0  0  0  0  0
   61.7852   33.9003   46.3047 H   0  0  0  0  0  0  0  0  0  0  0  0
   57.4570   30.8285   46.0855 H   0  0  0  0  0  0  0  0  0  0  0  0
   59.2341   26.2573   46.8957 H   0  0  0  0  0  0  0  0  0  0  0  0
  1  2  2  0
  2  3  1  0
  3  4  1  0
  4  5  2  0
  5  6  1  0
  6  7  2  0
  7  8  1  0
  8  9  1  0
  9 10  1  0
 10 11  2  0
 10 12  1  0
 12 13  1  0
 13 14  1  0
  8 15  2  0
  2 16  1  0
 16 17  2  0
 17 18  1  0
 18 19  1  0
 19 20  2  0
 19 21  1  0
 21 22  1  0
 22 23  2  0
 15  4  1  0
 22 16  1  0
 14 12  1  0
  5 24  1  0
  6 25  1  0
  7 26  1  0
 12 27  1  0
 13 28  1  0
 13 29  1  0
 14 30  1  0
 14 31  1  0
 15 32  1  0
 17 33  1  0
M  CHG  4   3  -1   9  -1  18  -1  21  -1
M  END
>  <UniqueID>  (44) 
43

>  <SMILES>  (44) 
O=C([N-]c1cccc([N-]C(=O)C2CC2)c1)c1c[n-]c(=O)[n-]c1=O

>  <Energy>  (44) 
313.1877862706999

>  <Genealogy>  (44) 
O=C([N-]c1cccc([N-]C(=O)C2CC2)c1)c1c[n-]c(=O)[n-]c1=O (protonated)
O=C([N-]c1cccc([N-]C(=O)C2CC2)c1)c1c[n-]c(=O)[n-]c1=O (3D coordinates assigned)
O=C([N-]c1cccc([N-]C(=O)C2CC2)c1)c1c[n-]c(=O)[n-]c1=O (nonaromatic ring conformer: 313.1877862706999 kcal/mol)

>  <smiles>  (44) 
O=C(Nc1cccc(NC(=O)C2CC2)c1)c1c[nH]c(=O)[nH]c1=O

>  <score_type>  (44) 
oracle

>  <origin>  (44) 
adg

>  <m_score__min__energy>  (44) 
-13.609999999999999

>  <m_primary>  (44) 
energy

$$$$
44:0
     RDKit          3D

 54 57  0  0  0  0  0  0  0  0999 V2000
   58.5560   23.9110   45.5780 C   0  0  0  0  0  0  0  0  0  0  0  0
   58.3640   25.3940   45.5180 C   0  0  0  0  0  0  0  0  0  0  0  0
   58.5620   26.1820   46.6750 C   0  0  0  0  0  0  0  0  0  0  0  0
   58.3720   27.5730   46.5930 C   0  0  0  0  0  0  0  0  0  0  0  0
   58.5230   28.4530   47.7960 C   0  0  0  0  0  0  0  0  0  0  0  0
   57.9810   28.0790   45.3950 N   0  0  0  0  0  0  0  0  0  0  0  0
   57.7070   29.3300   45.0860 N   0  0  0  0  0  0  0  0  0  0  0  0
   57.3600   29.2870   43.7760 C   0  0  0  0  0  0  0  0  0  0  0  0
   56.9010   30.4860   43.0140 C   0  0  0  0  0  0  0  0  0  0  0  0
   57.5440   31.7150   43.5750 C   0  0  0  0  0  0  0  0  0  0  0  0
   58.0860   32.5400   42.7900 O   0  0  0  0  0  0  0  0  0  0  0  0
   57.5530   31.9410   44.9930 N   0  0  0  0  0  0  0  0  0  0  0  0
   58.3690   32.9360   45.6360 C   0  0  0  0  0  0  0  0  0  0  0  0
   58.4900   34.2080   45.0560 C   0  0  0  0  0  0  0  0  0  0  0  0
   59.2620   35.1950   45.6750 C   0  0  0  0  0  0  0  0  0  0  0  0
   59.9060   34.9250   46.8850 C   0  0  0  0  0  0  0  0  0  0  0  0
   59.7750   33.6660   47.4870 C   0  0  0  0  0  0  0  0  0  0  0  0
   60.5330   33.3340   49.0420 S   0  0  0  0  0  0  0  0  0  0  0  0
   59.4880   32.9170   50.0390 O   0  0  0  0  0  0  0  0  0  0  0  0
   61.1910   34.5940   49.5340 O   0  0  0  0  0  0  0  0  0  0  0  0
   61.7260   32.0680   48.8400 N   0  0  0  0  0  0  0  0  0  0  0  0
   62.8520   32.2050   49.8000 C   0  0  0  0  0  0  0  0  0  0  0  0
   64.2220   32.4170   49.1330 C   0  0  0  0  0  0  0  0  0  0  0  0
   64.1130   33.4490   48.0140 C   0  0  0  0  0  0  0  0  0  0  0  0
   63.0760   33.0390   46.9530 C   0  0  0  0  0  0  0  0  0  0  0  0
   62.1320   31.9180   47.4280 C   0  0  0  0  0  0  0  0  0  0  0  0
   59.0000   32.6780   46.8650 C   0  0  0  0  0  0  0  0  0  0  0  0
   57.3870   28.0320   43.2470 N   0  0  0  0  0  0  0  0  0  0  0  0
   57.7910   27.3210   44.3130 C   0  0  0  0  0  0  0  0  0  0  0  0
   57.9730   25.9790   44.3460 N   0  0  0  0  0  0  0  0  0  0  0  0
   58.5977   23.5889   46.6290 H   0  0  0  0  0  0  0  0  0  0  0  0
   57.7150   23.4117   45.0746 H   0  0  0  0  0  0  0  0  0  0  0  0
   59.4964   23.6424   45.0746 H   0  0  0  0  0  0  0  0  0  0  0  0
   58.8601   25.7142   47.6249 H   0  0  0  0  0  0  0  0  0  0  0  0
   58.4191   27.8476   48.7085 H   0  0  0  0  0  0  0  0  0  0  0  0
   59.5156   28.9269   47.7814 H   0  0  0  0  0  0  0  0  0  0  0  0
   57.7452   29.2307   47.7814 H   0  0  0  0  0  0  0  0  0  0  0  0
   57.1817   30.3767   41.9560 H   0  0  0  0  0  0  0  0  0  0  0  0
   55.8079   30.5753   43.0982 H   0  0  0  0  0  0  0  0  0  0  0  0
   56.8740   31.4090   45.5810 H   0  0  0  0  0  0  0  0  0  0  0  0
   57.9748   34.4294   44.1097 H   0  0  0  0  0  0  0  0  0  0  0  0
   59.3627   36.1861   45.2086 H   0  0  0  0  0  0  0  0  0  0  0  0
   60.5174   35.7024   47.3665 H   0  0  0  0  0  0  0  0  0  0  0  0
   62.6477   33.0673   50.4517 H   0  0  0  0  0  0  0  0  0  0  0  0
   62.9125   31.2579   50.3562 H   0  0  0  0  0  0  0  0  0  0  0  0
   64.9408   32.7728   49.8858 H   0  0  0  0  0  0  0  0  0  0  0  0
   64.5637   31.4622   48.7068 H   0  0  0  0  0  0  0  0  0  0  0  0
   63.8143   34.4144   48.4486 H   0  0  0  0  0  0  0  0  0  0  0  0
   65.0938   33.5219   47.5213 H   0  0  0  0  0  0  0  0  0  0  0  0
   62.4704   33.9209   46.6970 H   0  0  0  0  0  0  0  0  0  0  0  0
   63.6313   32.6529   46.0855 H   0  0  0  0  0  0  0  0  0  0  0  0
   61.2290   31.9301   46.8000 H   0  0  0  0  0  0  0  0  0  0  0  0
   62.6786   30.9674   47.3410 H   0  0  0  0  0  0  0  0  0  0  0  0
   58.8847   31.6936   47.3420 H   0  0  0  0  0  0  0  0  0  0  0  0
  1  2  1  0
  2  3  1  0
  3  4  2  0
  4  5  1  0
  4  6  1  0
  6  7  1  0
  7  8  2  0
  8  9  1  0
  9 10  1  0
 10 11  2  0
 10 12  1  0
 12 13  1  0
 13 14  2  0
 14 15  1  0
 15 16  2  0
 16 17  1  0
 17 18  1  0
 18 19  2  0
 18 20  2  0
 18 21  1  0
 21 22  1  0
 22 23  1  0
 23 24  1  0
 24 25  1  0
 25 26  1  0
 17 27  2  0
  8 28  1  0
 28 29  2  0
 29 30  1  0
 30  2  2  0
 29  6  1  0
 27 13  1  0
 26 21  1  0
  1 31  1  0
  1 32  1  0
  1 33  1  0
  3 34  1  0
  5 35  1  0
  5 36  1  0
  5 37  1  0
  9 38  1  0
  9 39  1  0
 12 40  1  0
 14 41  1  0
 15 42  1  0
 16 43  1  0
 22 44  1  0
 22 45  1  0
 23 46  1  0
 23 47  1  0
 24 48  1  0
 24 49  1  0
 25 50  1  0
 25 51  1  0
 26 52  1  0
 26 53  1  0
 27 54  1  0
M  END
>  <UniqueID>  (45) 
44

>  <SMILES>  (45) 
Cc1cc(C)n2nc(CC(=O)Nc3cccc(S(=O)(=O)N4CCCCC4)c3)nc2n1

>  <Energy>  (45) 
101.99552422815283

>  <Genealogy>  (45) 
Cc1cc(C)n2nc(CC(=O)Nc3cccc(S(=O)(=O)N4CCCCC4)c3)nc2n1 (3D coordinates assigned)
Cc1cc(C)n2nc(CC(=O)Nc3cccc(S(=O)(=O)N4CCCCC4)c3)nc2n1 (nonaromatic ring conformer: 101.99552422815283 kcal/mol)

>  <smiles>  (45) 
Cc1cc(C)n2nc(CC(=O)Nc3cccc(S(=O)(=O)N4CCCCC4)c3)nc2n1

>  <score_type>  (45) 
oracle

>  <origin>  (45) 
adg

>  <m_score__min__energy>  (45) 
-9.8900000000000006

>  <m_primary>  (45) 
energy

$$$$
45:0
     RDKit          3D

 52 55  0  0  0  0  0  0  0  0999 V2000
   59.5560   34.2720   49.2660 O   0  0  0  0  0  0  0  0  0  0  0  0
   60.0910   34.4450   48.1410 C   0  0  0  0  0  0  0  0  0  0  0  0
   59.3230   35.0760   47.1090 N   0  0  0  0  0  0  0  0  0  0  0  0
   59.4680   34.8420   45.6770 C   0  0  0  0  0  0  0  0  0  0  0  0
   58.7460   33.5780   45.3100 C   0  0  0  0  0  0  0  0  0  0  0  0
   58.4680   33.2910   43.9650 C   0  0  0  0  0  0  0  0  0  0  0  0
   57.8400   32.0910   43.6150 C   0  0  0  0  0  0  0  0  0  0  0  0
   57.4890   31.1650   44.6040 C   0  0  0  0  0  0  0  0  0  0  0  0
   56.7280   29.6440   44.1460 S   0  0  0  0  0  0  0  0  0  0  0  0
   56.2000   29.7720   42.7440 O   0  0  0  0  0  0  0  0  0  0  0  0
   55.5760   29.3540   45.0690 O   0  0  0  0  0  0  0  0  0  0  0  0
   57.9190   28.3620   44.2370 N   0  0  0  0  0  0  0  0  0  0  0  0
   57.7000   27.4900   45.4050 C   0  0  0  0  0  0  0  0  0  0  0  0
   58.0210   28.2110   46.7210 C   0  0  0  0  0  0  0  0  0  0  0  0
   59.2690   28.9750   46.6140 N   0  0  0  0  0  0  0  0  0  0  0  0
   59.7620   29.6770   47.7730 C   0  0  0  0  0  0  0  0  0  0  0  0
   58.9140   29.9340   48.8650 C   0  0  0  0  0  0  0  0  0  0  0  0
   59.4060   30.6290   49.9710 C   0  0  0  0  0  0  0  0  0  0  0  0
   60.7300   31.0630   49.9860 C   0  0  0  0  0  0  0  0  0  0  0  0
   61.5500   30.7900   48.8890 C   0  0  0  0  0  0  0  0  0  0  0  0
   61.0570   30.1120   47.8170 N   0  0  0  0  0  0  0  0  0  0  0  0
   60.1210   28.7950   45.4330 C   0  0  0  0  0  0  0  0  0  0  0  0
   59.3000   28.8930   44.1330 C   0  0  0  0  0  0  0  0  0  0  0  0
   57.7800   31.4420   45.9490 C   0  0  0  0  0  0  0  0  0  0  0  0
   58.4090   32.6400   46.2990 C   0  0  0  0  0  0  0  0  0  0  0  0
   61.4640   33.9540   47.9310 C   0  0  0  0  0  0  0  0  0  0  0  0
   62.0060   33.4580   46.7480 C   0  0  0  0  0  0  0  0  0  0  0  0
   63.3660   33.1450   46.8530 C   0  0  0  0  0  0  0  0  0  0  0  0
   63.9060   33.4050   48.1060 C   0  0  0  0  0  0  0  0  0  0  0  0
   62.6900   34.0340   49.0810 S   0  0  0  0  0  0  0  0  0  0  0  0
   59.0371   35.6872   45.1202 H   0  0  0  0  0  0  0  0  0  0  0  0
   60.5341   34.7468   45.4232 H   0  0  0  0  0  0  0  0  0  0  0  0
   58.7451   34.0127   43.1824 H   0  0  0  0  0  0  0  0  0  0  0  0
   57.6213   31.8745   42.5589 H   0  0  0  0  0  0  0  0  0  0  0  0
   56.6469   27.1727   45.4203 H   0  0  0  0  0  0  0  0  0  0  0  0
   58.3720   26.6237   45.3164 H   0  0  0  0  0  0  0  0  0  0  0  0
   57.1980   28.8994   46.9635 H   0  0  0  0  0  0  0  0  0  0  0  0
   58.1400   27.4566   47.5126 H   0  0  0  0  0  0  0  0  0  0  0  0
   57.8695   29.5895   48.8477 H   0  0  0  0  0  0  0  0  0  0  0  0
   58.7495   30.8338   50.8295 H   0  0  0  0  0  0  0  0  0  0  0  0
   61.1249   31.6144   50.8521 H   0  0  0  0  0  0  0  0  0  0  0  0
   62.5980   31.1242   48.8915 H   0  0  0  0  0  0  0  0  0  0  0  0
   61.7060   29.9090   47.0240 H   0  0  0  0  0  0  0  0  0  0  0  0
   60.8961   29.5755   45.4275 H   0  0  0  0  0  0  0  0  0  0  0  0
   60.5773   27.7953   45.4820 H   0  0  0  0  0  0  0  0  0  0  0  0
   59.2400   29.9525   43.8435 H   0  0  0  0  0  0  0  0  0  0  0  0
   59.8188   28.2725   43.3875 H   0  0  0  0  0  0  0  0  0  0  0  0
   57.5123   30.7144   46.7294 H   0  0  0  0  0  0  0  0  0  0  0  0
   58.6410   32.8489   47.3538 H   0  0  0  0  0  0  0  0  0  0  0  0
   61.4238   33.3256   45.8241 H   0  0  0  0  0  0  0  0  0  0  0  0
   63.9532   32.7312   46.0200 H   0  0  0  0  0  0  0  0  0  0  0  0
   64.9491   33.2296   48.4080 H   0  0  0  0  0  0  0  0  0  0  0  0
  1  2  2  0
  2  3  1  0
  3  4  1  0
  4  5  1  0
  5  6  2  0
  6  7  1  0
  7  8  2  0
  8  9  1  0
  9 10  2  0
  9 11  2  0
  9 12  1  0
 12 13  1  0
 13 14  1  0
 14 15  1  0
 15 16  1  0
 16 17  2  0
 17 18  1  0
 18 19  2  0
 19 20  1  0
 20 21  2  0
 15 22  1  0
 22 23  1  0
  8 24  1  0
 24 25  2  0
  2 26  1  0
 26 27  2  0
 27 28  1  0
 28 29  2  0
 29 30  1  0
 25  5  1  0
 30 26  1  0
 23 12  1  0
 21 16  1  0
  4 31  1  0
  4 32  1  0
  6 33  1  0
  7 34  1  0
 13 35  1  0
 13 36  1  0
 14 37  1  0
 14 38  1  0
 17 39  1  0
 18 40  1  0
 19 41  1  0
 20 42  1  0
 21 43  1  0
 22 44  1  0
 22 45  1  0
 23 46  1  0
 23 47  1  0
 24 48  1  0
 25 49  1  0
 27 50  1  0
 28 51  1  0
 29 52  1  0
M  CHG  2   3  -1  21   1
M  END
>  <UniqueID>  (46) 
45

>  <SMILES>  (46) 
O=C([N-]Cc1ccc(S(=O)(=O)N2CCN(c3cccc[nH+]3)CC2)cc1)c1cccs1

>  <Energy>  (46) 
93.65502077432552

>  <Genealogy>  (46) 
O=C([N-]Cc1ccc(S(=O)(=O)N2CCN(c3cccc[nH+]3)CC2)cc1)c1cccs1 (protonated)
O=C([N-]Cc1ccc(S(=O)(=O)N2CCN(c3cccc[nH+]3)CC2)cc1)c1cccs1 (3D coordinates assigned)
O=C([N-]Cc1ccc(S(=O)(=O)N2CCN(c3cccc[nH+]3)CC2)cc1)c1cccs1 (nonaromatic ring conformer: 93.65502077432552 kcal/mol)

>  <smiles>  (46) 
O=C(NCc1ccc(S(=O)(=O)N2CCN(c3ccccn3)CC2)cc1)c1cccs1

>  <score_type>  (46) 
oracle

>  <origin>  (46) 
adg

>  <m_score__min__energy>  (46) 
-9.1300000000000008

>  <m_primary>  (46) 
energy

$$$$
46:0
     RDKit          3D

 73 77  0  0  0  0  0  0  0  0999 V2000
   60.4950   29.3920   46.6230 C   0  0  0  0  0  0  0  0  0  0  0  0
   59.1520   28.7610   46.2910 C   0  0  0  0  0  0  0  0  0  0  0  0
   58.8130   27.4430   46.7170 C   0  0  0  0  0  0  0  0  0  0  0  0
   59.8310   26.6300   47.5210 C   0  0  0  0  0  0  0  0  0  0  0  0
   60.1440   27.0920   48.9150 C   0  0  0  0  0  0  0  0  0  0  0  0
   60.8480   26.3620   49.6680 O   0  0  0  0  0  0  0  0  0  0  0  0
   59.6590   28.3580   49.3780 N   0  0  0  0  0  0  0  0  0  0  0  0
   60.0830   28.9620   50.6420 C   0  0  0  0  0  0  0  0  0  0  0  0
   59.0490   29.9720   51.1780 C   0  0  1  0  0  0  0  0  0  0  0  0
   58.1490   30.3560   50.1660 O   0  0  0  0  0  0  0  0  0  0  0  0
   58.3080   29.4500   52.4330 C   0  0  0  0  0  0  0  0  0  0  0  0
   56.8440   29.5620   52.2440 N   0  0  0  0  0  0  0  0  0  0  0  0
   56.3820   30.9470   52.4630 C   0  0  0  0  0  0  0  0  0  0  0  0
   54.9340   31.0880   51.9850 C   0  0  0  0  0  0  0  0  0  0  0  0
   54.0630   29.9830   52.5190 C   0  0  0  0  0  0  0  0  0  0  0  0
   52.6680   30.1050   52.4300 C   0  0  0  0  0  0  0  0  0  0  0  0
   51.8410   29.0670   52.8710 C   0  0  0  0  0  0  0  0  0  0  0  0
   52.3990   27.9010   53.4010 C   0  0  0  0  0  0  0  0  0  0  0  0
   53.7880   27.7660   53.4870 C   0  0  0  0  0  0  0  0  0  0  0  0
   54.6300   28.7900   53.0230 C   0  0  0  0  0  0  0  0  0  0  0  0
   56.1260   28.6460   53.1550 C   0  0  0  0  0  0  0  0  0  0  0  0
   57.5380   26.9410   46.3390 C   0  0  0  0  0  0  0  0  0  0  0  0
   57.1480   25.8000   46.6970 O   0  0  0  0  0  0  0  0  0  0  0  0
   56.7150   27.6670   45.5950 O   0  0  0  0  0  0  0  0  0  0  0  0
   56.9960   28.8870   45.1750 C   0  0  0  0  0  0  0  0  0  0  0  0
   56.0670   29.5640   44.3760 C   0  0  0  0  0  0  0  0  0  0  0  0
   56.3310   30.8600   43.9280 C   0  0  0  0  0  0  0  0  0  0  0  0
   57.5250   31.5000   44.2930 C   0  0  0  0  0  0  0  0  0  0  0  0
   57.8300   32.8390   43.8800 N   0  0  0  0  0  0  0  0  0  0  0  0
   57.7130   34.2520   44.8800 S   0  0  0  0  0  0  0  0  0  0  0  0
   58.8660   35.1770   44.6070 O   0  0  0  0  0  0  0  0  0  0  0  0
   56.4300   34.9600   44.5420 O   0  0  0  0  0  0  0  0  0  0  0  0
   57.6990   33.7620   46.5990 C   0  0  0  0  0  0  0  0  0  0  0  0
   59.0640   33.3220   47.0460 C   0  0  0  0  0  0  0  0  0  0  0  0
   60.2170   33.7660   46.3740 C   0  0  0  0  0  0  0  0  0  0  0  0
   61.4860   33.3400   46.7950 C   0  0  0  0  0  0  0  0  0  0  0  0
   61.6090   32.4820   47.8940 C   0  0  0  0  0  0  0  0  0  0  0  0
   60.4660   32.0550   48.5790 C   0  0  0  0  0  0  0  0  0  0  0  0
   59.1980   32.4740   48.1590 C   0  0  0  0  0  0  0  0  0  0  0  0
   58.4520   30.8240   45.0940 C   0  0  0  0  0  0  0  0  0  0  0  0
   58.2130   29.5010   45.5270 C   0  0  0  0  0  0  0  0  0  0  0  0
   60.6139   29.4479   47.7151 H   0  0  0  0  0  0  0  0  0  0  0  0
   61.3033   28.7794   46.1970 H   0  0  0  0  0  0  0  0  0  0  0  0
   60.5394   30.4052   46.1970 H   0  0  0  0  0  0  0  0  0  0  0  0
   59.4475   25.6016   47.5934 H   0  0  0  0  0  0  0  0  0  0  0  0
   60.7765   26.7430   46.9702 H   0  0  0  0  0  0  0  0  0  0  0  0
   58.9530   28.8670   48.8000 H   0  0  0  0  0  0  0  0  0  0  0  0
   60.2197   28.1650   51.3877 H   0  0  0  0  0  0  0  0  0  0  0  0
   61.0228   29.5039   50.4599 H   0  0  0  0  0  0  0  0  0  0  0  0
   59.6049   30.8663   51.4961 H   0  0  0  0  0  0  0  0  0  0  0  0
   57.3840   29.7210   50.1750 H   0  0  0  0  0  0  0  0  0  0  0  0
   58.5735   28.3956   52.5998 H   0  0  0  0  0  0  0  0  0  0  0  0
   58.6054   30.0536   53.3032 H   0  0  0  0  0  0  0  0  0  0  0  0
   56.4384   31.1864   53.5352 H   0  0  0  0  0  0  0  0  0  0  0  0
   57.0224   31.6392   51.8966 H   0  0  0  0  0  0  0  0  0  0  0  0
   54.5368   32.0539   52.3303 H   0  0  0  0  0  0  0  0  0  0  0  0
   54.9276   31.0300   50.8865 H   0  0  0  0  0  0  0  0  0  0  0  0
   52.2234   31.0202   52.0120 H   0  0  0  0  0  0  0  0  0  0  0  0
   50.7480   29.1689   52.8004 H   0  0  0  0  0  0  0  0  0  0  0  0
   51.7451   27.0886   53.7509 H   0  0  0  0  0  0  0  0  0  0  0  0
   54.2235   26.8534   53.9201 H   0  0  0  0  0  0  0  0  0  0  0  0
   56.4163   28.8734   54.1913 H   0  0  0  0  0  0  0  0  0  0  0  0
   56.3968   27.6138   52.8882 H   0  0  0  0  0  0  0  0  0  0  0  0
   55.1229   29.0719   44.0993 H   0  0  0  0  0  0  0  0  0  0  0  0
   55.6023   31.3795   43.2884 H   0  0  0  0  0  0  0  0  0  0  0  0
   57.3774   34.6158   47.2135 H   0  0  0  0  0  0  0  0  0  0  0  0
   57.0035   32.9180   46.7165 H   0  0  0  0  0  0  0  0  0  0  0  0
   60.1238   34.4487   45.5165 H   0  0  0  0  0  0  0  0  0  0  0  0
   62.3851   33.6807   46.2607 H   0  0  0  0  0  0  0  0  0  0  0  0
   62.6038   32.1435   48.2191 H   0  0  0  0  0  0  0  0  0  0  0  0
   60.5640   31.3890   49.4490 H   0  0  0  0  0  0  0  0  0  0  0  0
   58.3025   32.1381   48.7024 H   0  0  0  0  0  0  0  0  0  0  0  0
   59.3818   31.3311   45.3912 H   0  0  0  0  0  0  0  0  0  0  0  0
  1  2  1  0
  2  3  2  0
  3  4  1  0
  4  5  1  0
  5  6  2  0
  5  7  1  0
  7  8  1  0
  8  9  1  0
  9 10  1  0
  9 11  1  0
 11 12  1  0
 12 13  1  0
 13 14  1  0
 14 15  1  0
 15 16  2  0
 16 17  1  0
 17 18  2  0
 18 19  1  0
 19 20  2  0
 20 21  1  0
  3 22  1  0
 22 23  2  0
 22 24  1  0
 24 25  1  0
 25 26  2  0
 26 27  1  0
 27 28  2  0
 28 29  1  0
 29 30  1  0
 30 31  2  0
 30 32  2  0
 30 33  1  0
 33 34  1  0
 34 35  2  0
 35 36  1  0
 36 37  2  0
 37 38  1  0
 38 39  2  0
 28 40  1  0
 40 41  2  0
 41  2  1  0
 21 12  1  0
 41 25  1  0
 20 15  1  0
 39 34  1  0
  1 42  1  0
  1 43  1  0
  1 44  1  0
  4 45  1  0
  4 46  1  0
  7 47  1  0
  8 48  1  0
  8 49  1  0
  9 50  1  1
 10 51  1  0
 11 52  1  0
 11 53  1  0
 13 54  1  0
 13 55  1  0
 14 56  1  0
 14 57  1  0
 16 58  1  0
 17 59  1  0
 18 60  1  0
 19 61  1  0
 21 62  1  0
 21 63  1  0
 26 64  1  0
 27 65  1  0
 33 66  1  0
 33 67  1  0
 35 68  1  0
 36 69  1  0
 37 70  1  0
 38 71  1  0
 39 72  1  0
 40 73  1  0
M  CHG  1  29  -1
M  END
>  <UniqueID>  (47) 
46

>  <SMILES>  (47) 
Cc1c(CC(=O)NC[C@@H](O)CN2CCc3ccccc3C2)c(=O)oc2ccc([N-]S(=O)(=O)Cc3ccccc3)cc12

>  <Energy>  (47) 
94.67970242652369

>  <Genealogy>  (47) 
Cc1c(CC(=O)NCC(O)CN2CCc3ccccc3C2)c(=O)oc2ccc([N-]S(=O)(=O)Cc3ccccc3)cc12 (protonated)
Cc1c(CC(=O)NC[C@@H](O)CN2CCc3ccccc3C2)c(=O)oc2ccc([N-]S(=O)(=O)Cc3ccccc3)cc12 (chirality)
Cc1c(CC(=O)NC[C@@H](O)CN2CCc3ccccc3C2)c(=O)oc2ccc([N-]S(=O)(=O)Cc3ccccc3)cc12 (3D coordinates assigned)
Cc1c(CC(=O)NC[C@@H](O)CN2CCc3ccccc3C2)c(=O)oc2ccc([N-]S(=O)(=O)Cc3ccccc3)cc12 (nonaromatic ring conformer: 94.67970242652369 kcal/mol)

>  <smiles>  (47) 
Cc1c(CC(=O)NCC(O)CN2CCc3ccccc3C2)c(=O)oc2ccc(NS(=O)(=O)Cc3ccccc3)cc12

>  <score_type>  (47) 
oracle

>  <origin>  (47) 
adg

>  <m_score__min__energy>  (47) 
-10.9

>  <m_primary>  (47) 
energy

$$$$
47:0
     RDKit          3D

 28 29  0  0  0  0  0  0  0  0999 V2000
   55.1510   28.0590   44.9730 H   0  0  0  0  0  0  0  0  0  0  0  0
   55.1310   29.0280   44.6780 O   0  0  0  0  0  0  0  0  0  0  0  0
   56.2680   29.8220   44.7640 C   0  0  0  0  0  0  0  0  0  0  0  0
   56.2270   31.1680   44.7380 N   0  0  0  0  0  0  0  0  0  0  0  0
   57.5080   31.5590   44.9030 C   0  0  0  0  0  0  0  0  0  0  0  0
   57.9220   32.9890   45.0080 C   0  0  0  0  0  0  0  0  0  0  0  0
   58.0034   33.2702   46.0683 H   0  0  0  0  0  0  0  0  0  0  0  0
   58.8966   33.1256   44.5165 H   0  0  0  0  0  0  0  0  0  0  0  0
   57.1711   33.6251   44.5165 H   0  0  0  0  0  0  0  0  0  0  0  0
   58.3520   30.4770   45.0610 C   0  0  0  0  0  0  0  0  0  0  0  0
   59.4356   30.5040   45.2484 H   0  0  0  0  0  0  0  0  0  0  0  0
   57.5600   29.3580   44.9360 C   0  0  0  0  0  0  0  0  0  0  0  0
   58.0250   27.9650   45.0940 C   0  0  0  0  0  0  0  0  0  0  0  0
   58.9501   27.7938   45.6640 H   0  0  0  0  0  0  0  0  0  0  0  0
   57.4120   26.9260   44.6030 N   0  0  0  0  0  0  0  0  0  0  0  0
   57.0480   25.7270   45.3050 C   0  0  0  0  0  0  0  0  0  0  0  0
   57.9030   24.6200   45.2390 C   0  0  0  0  0  0  0  0  0  0  0  0
   58.8362   24.6868   44.6604 H   0  0  0  0  0  0  0  0  0  0  0  0
   57.5810   23.4230   45.9050 C   0  0  0  0  0  0  0  0  0  0  0  0
   58.5040   22.2680   45.8510 C   0  0  0  0  0  0  0  0  0  0  0  0
   59.6410   22.3780   45.3210 O   0  0  0  0  0  0  0  0  0  0  0  0
   58.1270   21.0400   46.3860 O   0  0  0  0  0  0  0  0  0  0  0  0
   56.3740   23.3430   46.6190 C   0  0  0  0  0  0  0  0  0  0  0  0
   56.1160   22.4175   47.1546 H   0  0  0  0  0  0  0  0  0  0  0  0
   55.4990   24.4320   46.6530 C   0  0  0  0  0  0  0  0  0  0  0  0
   54.5518   24.3557   47.2070 H   0  0  0  0  0  0  0  0  0  0  0  0
   55.8210   25.6170   45.9870 C   0  0  0  0  0  0  0  0  0  0  0  0
   54.9110   26.6680   45.9900 O   0  0  0  0  0  0  0  0  0  0  0  0
  1  2  1  0
  2  3  1  0
  3  4  1  0
  4  5  1  0
  5  6  1  0
  6  7  1  0
  6  8  1  0
  6  9  1  0
  5 10  2  0
 10 11  1  0
 10 12  1  0
 12 13  1  0
 13 14  1  0
 13 15  2  0
 15 16  1  0
 16 17  2  0
 17 18  1  0
 17 19  1  0
 19 20  1  0
 20 21  2  0
 20 22  1  0
 19 23  2  0
 23 24  1  0
 23 25  1  0
 25 26  1  0
 25 27  2  0
 27 28  1  0
 12  3  2  0
 27 16  1  0
M  CHG  3   4  -1  22  -1  28  -1
M  END
>  <UniqueID>  (48) 
47

>  <SMILES>  (48) 
Cc1cc(/C=N\c2cc(C(=O)[O-])ccc2[O-])c(O)[n-]1

>  <Energy>  (48) 
64.68544273593128

>  <Genealogy>  (48) 
Cc1cc(C=Nc2cc(C(=O)[O-])ccc2[O-])c(O)[n-]1 (protonated)
Cc1cc(/C=N\c2cc(C(=O)[O-])ccc2[O-])c(O)[n-]1 (cis-trans isomerization)
Cc1cc(/C=N\c2cc(C(=O)[O-])ccc2[O-])c(O)[n-]1 (3D coordinates assigned)
Cc1cc(/C=N\c2cc(C(=O)[O-])ccc2[O-])c(O)[n-]1 (optimized conformer: 64.68544273593128 kcal/mol)

>  <smiles>  (48) 
Cc1cc(C=Nc2cc(C(=O)O)ccc2O)c(O)[nH]1

>  <score_type>  (48) 
oracle

>  <origin>  (48) 
adg

>  <m_score__min__energy>  (48) 
-14.98

>  <m_primary>  (48) 
energy

$$$$
48:0
     RDKit          3D

 64 68  0  0  0  0  0  0  0  0999 V2000
   58.7440   28.0160   44.3410 C   0  0  0  0  0  0  0  0  0  0  0  0
   58.8480   28.4040   45.7810 C   0  0  0  0  0  0  0  0  0  0  0  0
   57.9930   29.1890   46.2760 O   0  0  0  0  0  0  0  0  0  0  0  0
   59.8780   27.8370   46.6010 N   0  0  0  0  0  0  0  0  0  0  0  0
   60.1230   28.2580   47.9540 C   0  0  0  0  0  0  0  0  0  0  0  0
   60.3650   27.2960   48.9470 C   0  0  0  0  0  0  0  0  0  0  0  0
   60.5500   27.6760   50.2750 C   0  0  0  0  0  0  0  0  0  0  0  0
   60.4880   29.0240   50.6350 C   0  0  0  0  0  0  0  0  0  0  0  0
   60.7250   29.4970   52.3160 S   0  0  0  0  0  0  0  0  0  0  0  0
   60.0430   28.5110   53.2240 O   0  0  0  0  0  0  0  0  0  0  0  0
   62.1970   29.4800   52.6160 O   0  0  0  0  0  0  0  0  0  0  0  0
   60.0880   31.1030   52.5800 N   0  0  0  0  0  0  0  0  0  0  0  0
   61.1270   32.1390   52.3560 C   0  0  0  0  0  0  0  0  0  0  0  0
   61.0350   32.7810   50.9650 C   0  0  0  0  0  0  0  0  0  0  0  0
   59.6680   33.4750   50.7680 C   0  0  0  0  0  0  0  0  0  0  0  0
   59.3520   33.5660   49.2990 C   0  0  0  0  0  0  0  0  0  0  0  0
   59.8470   34.5430   48.4920 N   0  0  0  0  0  0  0  0  0  0  0  0
   59.2550   34.2780   47.3190 C   0  0  0  0  0  0  0  0  0  0  0  0
   59.3960   34.9680   46.1180 C   0  0  0  0  0  0  0  0  0  0  0  0
   58.6550   34.5130   45.0100 C   0  0  0  0  0  0  0  0  0  0  0  0
   57.8030   33.3910   45.1330 C   0  0  0  0  0  0  0  0  0  0  0  0
   57.6860   32.7190   46.3650 C   0  0  0  0  0  0  0  0  0  0  0  0
   58.4360   33.1970   47.4380 C   0  0  0  0  0  0  0  0  0  0  0  0
   58.4700   32.7270   48.6920 N   0  0  0  0  0  0  0  0  0  0  0  0
   58.5350   32.7740   51.5590 C   0  0  0  0  0  0  0  0  0  0  0  0
   58.8520   31.2890   51.7830 C   0  0  0  0  0  0  0  0  0  0  0  0
   60.2490   29.9930   49.6540 C   0  0  0  0  0  0  0  0  0  0  0  0
   60.0590   29.6280   48.3060 C   0  0  0  0  0  0  0  0  0  0  0  0
   59.8420   30.6340   47.2910 N   0  0  0  0  0  0  0  0  0  0  0  0
   60.8760   31.1240   46.3760 C   0  0  0  0  0  0  0  0  0  0  0  0
   61.9430   31.8840   47.1250 C   0  0  0  0  0  0  0  0  0  0  0  0
   62.2720   33.1960   46.7460 C   0  0  0  0  0  0  0  0  0  0  0  0
   63.2560   33.9060   47.4450 C   0  0  0  0  0  0  0  0  0  0  0  0
   63.9240   33.3060   48.5160 C   0  0  0  0  0  0  0  0  0  0  0  0
   63.6140   31.9940   48.8870 C   0  0  0  0  0  0  0  0  0  0  0  0
   62.6290   31.2830   48.1950 C   0  0  0  0  0  0  0  0  0  0  0  0
   58.4599   26.9559   44.2665 H   0  0  0  0  0  0  0  0  0  0  0  0
   57.9803   28.6358   43.8485 H   0  0  0  0  0  0  0  0  0  0  0  0
   59.7153   28.1708   43.8485 H   0  0  0  0  0  0  0  0  0  0  0  0
   60.4710   27.0730   46.1990 H   0  0  0  0  0  0  0  0  0  0  0  0
   60.4091   26.2313   48.6742 H   0  0  0  0  0  0  0  0  0  0  0  0
   60.7454   26.9120   51.0419 H   0  0  0  0  0  0  0  0  0  0  0  0
   61.0082   32.9261   53.1152 H   0  0  0  0  0  0  0  0  0  0  0  0
   62.1078   31.6465   52.4298 H   0  0  0  0  0  0  0  0  0  0  0  0
   61.8364   33.5270   50.8588 H   0  0  0  0  0  0  0  0  0  0  0  0
   61.1417   31.9922   50.2058 H   0  0  0  0  0  0  0  0  0  0  0  0
   59.7367   34.4937   51.1773 H   0  0  0  0  0  0  0  0  0  0  0  0
   60.0633   35.8387   46.0372 H   0  0  0  0  0  0  0  0  0  0  0  0
   58.7394   35.0329   44.0443 H   0  0  0  0  0  0  0  0  0  0  0  0
   57.2289   33.0415   44.2622 H   0  0  0  0  0  0  0  0  0  0  0  0
   57.0253   31.8467   46.4766 H   0  0  0  0  0  0  0  0  0  0  0  0
   58.4202   33.2677   52.5352 H   0  0  0  0  0  0  0  0  0  0  0  0
   57.6053   32.8479   50.9757 H   0  0  0  0  0  0  0  0  0  0  0  0
   58.0109   30.8221   52.3165 H   0  0  0  0  0  0  0  0  0  0  0  0
   59.0061   30.8206   50.7997 H   0  0  0  0  0  0  0  0  0  0  0  0
   60.2089   31.0547   49.9390 H   0  0  0  0  0  0  0  0  0  0  0  0
   58.8910   31.0480   47.1770 H   0  0  0  0  0  0  0  0  0  0  0  0
   61.3374   30.2676   45.8624 H   0  0  0  0  0  0  0  0  0  0  0  0
   60.4075   31.8024   45.6478 H   0  0  0  0  0  0  0  0  0  0  0  0
   61.7549   33.6673   45.8972 H   0  0  0  0  0  0  0  0  0  0  0  0
   63.5034   34.9367   47.1509 H   0  0  0  0  0  0  0  0  0  0  0  0
   64.6938   33.8660   49.0672 H   0  0  0  0  0  0  0  0  0  0  0  0
   64.1462   31.5203   49.7251 H   0  0  0  0  0  0  0  0  0  0  0  0
   62.3900   30.2502   48.4886 H   0  0  0  0  0  0  0  0  0  0  0  0
  1  2  1  0
  2  3  2  0
  2  4  1  0
  4  5  1  0
  5  6  2  0
  6  7  1  0
  7  8  2  0
  8  9  1  0
  9 10  2  0
  9 11  2  0
  9 12  1  0
 12 13  1  0
 13 14  1  0
 14 15  1  0
 15 16  1  0
 16 17  2  0
 17 18  1  0
 18 19  2  0
 19 20  1  0
 20 21  2  0
 21 22  1  0
 22 23  2  0
 23 24  1  0
 15 25  1  0
 25 26  1  0
  8 27  1  0
 27 28  2  0
 28 29  1  0
 29 30  1  0
 30 31  1  0
 31 32  2  0
 32 33  1  0
 33 34  2  0
 34 35  1  0
 35 36  2  0
 28  5  1  0
 36 31  1  0
 26 12  1  0
 24 16  1  0
 23 18  1  0
  1 37  1  0
  1 38  1  0
  1 39  1  0
  4 40  1  0
  6 41  1  0
  7 42  1  0
 13 43  1  0
 13 44  1  0
 14 45  1  0
 14 46  1  0
 15 47  1  0
 19 48  1  0
 20 49  1  0
 21 50  1  0
 22 51  1  0
 25 52  1  0
 25 53  1  0
 26 54  1  0
 26 55  1  0
 27 56  1  0
 29 57  1  0
 30 58  1  0
 30 59  1  0
 32 60  1  0
 33 61  1  0
 34 62  1  0
 35 63  1  0
 36 64  1  0
M  CHG  1  24  -1
M  END
>  <UniqueID>  (49) 
48

>  <SMILES>  (49) 
CC(=O)Nc1ccc(S(=O)(=O)N2CCC(c3nc4ccccc4[n-]3)CC2)cc1NCc1ccccc1

>  <Energy>  (49) 
112.11085542634105

>  <Genealogy>  (49) 
CC(=O)Nc1ccc(S(=O)(=O)N2CCC(c3nc4ccccc4[n-]3)CC2)cc1NCc1ccccc1 (protonated)
CC(=O)Nc1ccc(S(=O)(=O)N2CCC(c3nc4ccccc4[n-]3)CC2)cc1NCc1ccccc1 (3D coordinates assigned)
CC(=O)Nc1ccc(S(=O)(=O)N2CCC(c3nc4ccccc4[n-]3)CC2)cc1NCc1ccccc1 (nonaromatic ring conformer: 112.11085542634105 kcal/mol)

>  <smiles>  (49) 
CC(=O)Nc1ccc(S(=O)(=O)N2CCC(c3nc4ccccc4[nH]3)CC2)cc1NCc1ccccc1

>  <score_type>  (49) 
oracle

>  <origin>  (49) 
adg

>  <m_score__min__energy>  (49) 
-11.57

>  <m_primary>  (49) 
energy

$$$$
49:0
     RDKit          3D

 35 36  0  0  0  0  0  0  0  0999 V2000
   58.5334   20.5344   44.0687 H   0  0  0  0  0  0  0  0  0  0  0  0
   58.1090   21.5490   44.0450 C   0  0  0  0  0  0  0  0  0  0  0  0
   58.5808   22.3562   44.6245 H   0  0  0  0  0  0  0  0  0  0  0  0
   57.0200   21.8010   43.3120 C   0  0  0  0  0  0  0  0  0  0  0  0
   56.5612   20.9820   42.7387 H   0  0  0  0  0  0  0  0  0  0  0  0
   56.4040   23.1700   43.2480 C   0  0  0  0  0  0  0  0  0  0  0  0
   56.9036   23.8283   43.9739 H   0  0  0  0  0  0  0  0  0  0  0  0
   56.5263   23.5732   42.2319 H   0  0  0  0  0  0  0  0  0  0  0  0
   54.9830   23.0940   43.5640 N   0  0  0  0  0  0  0  0  0  0  0  0
   54.4760   22.9650   44.8970 C   0  0  0  0  0  0  0  0  0  0  0  0
   53.2340   22.9080   45.1060 O   0  0  0  0  0  0  0  0  0  0  0  0
   55.4270   22.8600   46.0470 C   0  0  0  0  0  0  0  0  0  0  0  0
   55.1150   22.0318   46.7003 H   0  0  0  0  0  0  0  0  0  0  0  0
   56.4385   22.6745   45.6564 H   0  0  0  0  0  0  0  0  0  0  0  0
   55.4380   24.1020   46.8170 N   0  0  0  0  0  0  0  0  0  0  0  0
   55.8650   25.2420   46.3610 C   0  0  0  0  0  0  0  0  0  0  0  0
   55.0490   26.2830   46.0720 N   0  0  0  0  0  0  0  0  0  0  0  0
   55.9070   27.2240   45.6480 C   0  0  0  0  0  0  0  0  0  0  0  0
   55.5240   28.4970   45.2470 O   0  0  0  0  0  0  0  0  0  0  0  0
   57.1940   26.7420   45.6790 C   0  0  0  0  0  0  0  0  0  0  0  0
   58.4420   27.5000   45.3510 C   0  0  0  0  0  0  0  0  0  0  0  0
   59.1225   26.8511   44.7802 H   0  0  0  0  0  0  0  0  0  0  0  0
   58.1794   28.3849   44.7526 H   0  0  0  0  0  0  0  0  0  0  0  0
   59.1230   27.9450   46.6160 C   0  0  0  0  0  0  0  0  0  0  0  0
   59.0960   29.2970   46.9990 C   0  0  0  0  0  0  0  0  0  0  0  0
   58.5977   30.0391   46.3579 H   0  0  0  0  0  0  0  0  0  0  0  0
   59.7010   29.7010   48.1930 C   0  0  0  0  0  0  0  0  0  0  0  0
   59.6842   30.7613   48.4852 H   0  0  0  0  0  0  0  0  0  0  0  0
   60.3270   28.7610   49.0160 C   0  0  0  0  0  0  0  0  0  0  0  0
   60.8035   29.0824   49.9539 H   0  0  0  0  0  0  0  0  0  0  0  0
   60.3480   27.4120   48.6480 C   0  0  0  0  0  0  0  0  0  0  0  0
   60.9650   26.4770   49.4710 O   0  0  0  0  0  0  0  0  0  0  0  0
   59.7440   27.0030   47.4540 C   0  0  0  0  0  0  0  0  0  0  0  0
   59.7552   25.9403   47.1702 H   0  0  0  0  0  0  0  0  0  0  0  0
   57.1770   25.4810   46.1450 N   0  0  0  0  0  0  0  0  0  0  0  0
  1  2  1  0
  2  3  1  0
  2  4  2  0
  4  5  1  0
  4  6  1  0
  6  7  1  0
  6  8  1  0
  6  9  1  0
  9 10  1  0
 10 11  2  0
 10 12  1  0
 12 13  1  0
 12 14  1  0
 12 15  1  0
 15 16  2  0
 16 17  1  0
 17 18  1  0
 18 19  1  0
 18 20  2  0
 20 21  1  0
 21 22  1  0
 21 23  1  0
 21 24  1  0
 24 25  2  0
 25 26  1  0
 25 27  1  0
 27 28  1  0
 27 29  2  0
 29 30  1  0
 29 31  1  0
 31 32  1  0
 31 33  2  0
 33 34  1  0
 20 35  1  0
 35 16  1  0
 33 24  1  0
M  CHG  5   9  -1  17  -1  19  -1  32  -1  35  -1
M  END
>  <UniqueID>  (50) 
49

>  <SMILES>  (50) 
C=CC[N-]C(=O)C/N=c1\[n-]c([O-])c(Cc2cccc([O-])c2)[n-]1

>  <Energy>  (50) 
56.569859053335996

>  <Genealogy>  (50) 
C=CC[N-]C(=O)CN=c1[n-]c([O-])c(Cc2cccc([O-])c2)[n-]1 (protonated)
C=CC[N-]C(=O)C/N=c1\[n-]c([O-])c(Cc2cccc([O-])c2)[n-]1 (cis-trans isomerization)
C=CC[N-]C(=O)C/N=c1\[n-]c([O-])c(Cc2cccc([O-])c2)[n-]1 (3D coordinates assigned)
C=CC[N-]C(=O)C/N=c1\[n-]c([O-])c(Cc2cccc([O-])c2)[n-]1 (optimized conformer: 56.569859053335996 kcal/mol)

>  <smiles>  (50) 
C=CCNC(=O)CN=c1[nH]c(O)c(Cc2cccc(O)c2)[nH]1

>  <score_type>  (50) 
oracle

>  <origin>  (50) 
adg

>  <m_score__min__energy>  (50) 
-16.539999999999999

>  <m_primary>  (50) 
energy

$$$$
50:0
     RDKit          3D

 44 47  0  0  0  0  0  0  0  0999 V2000
   57.0080   22.1330   48.1780 O   0  0  0  0  0  0  0  0  0  0  0  0
   56.2040   22.7120   47.4010 C   0  0  0  0  0  0  0  0  0  0  0  0
   56.7340   23.5510   46.3630 N   0  0  0  0  0  0  0  0  0  0  0  0
   56.3930   24.9250   46.1450 C   0  0  0  0  0  0  0  0  0  0  0  0
   57.2680   25.9580   45.8860 C   0  0  0  0  0  0  0  0  0  0  0  0
   56.4460   27.0700   45.7870 C   0  0  0  0  0  0  0  0  0  0  0  0
   56.8700   28.4690   45.5000 C   0  0  0  0  0  0  0  0  0  0  0  0
   58.1330   28.9290   45.9240 C   0  0  0  0  0  0  0  0  0  0  0  0
   58.5600   30.2460   45.6700 C   0  0  0  0  0  0  0  0  0  0  0  0
   59.9330   30.6830   46.1640 C   0  0  0  0  0  0  0  0  0  0  0  0
   60.4880   29.7570   47.2690 C   0  0  0  0  0  0  0  0  0  0  0  0
   61.5330   30.4860   48.1310 C   0  0  0  0  0  0  0  0  0  0  0  0
   62.2210   31.4550   47.3640 O   0  0  0  0  0  0  0  0  0  0  0  0
   61.3730   32.5620   47.0810 C   0  0  0  0  0  0  0  0  0  0  0  0
   59.9550   32.1560   46.6110 C   0  0  0  0  0  0  0  0  0  0  0  0
   57.6950   31.1160   44.9680 C   0  0  0  0  0  0  0  0  0  0  0  0
   58.0620   32.4280   44.6900 O   0  0  0  0  0  0  0  0  0  0  0  0
   56.4450   30.6670   44.5400 C   0  0  0  0  0  0  0  0  0  0  0  0
   56.0280   29.3600   44.8000 C   0  0  0  0  0  0  0  0  0  0  0  0
   54.7680   28.9670   44.3590 O   0  0  0  0  0  0  0  0  0  0  0  0
   55.1660   26.6920   45.9990 N   0  0  0  0  0  0  0  0  0  0  0  0
   55.1340   25.3870   46.2230 N   0  0  0  0  0  0  0  0  0  0  0  0
   54.7540   22.5110   47.5970 C   0  0  0  0  0  0  0  0  0  0  0  0
   54.2290   22.7070   48.8400 N   0  0  0  0  0  0  0  0  0  0  0  0
   52.9050   22.5360   49.1010 C   0  0  0  0  0  0  0  0  0  0  0  0
   52.0350   22.1540   48.0790 C   0  0  0  0  0  0  0  0  0  0  0  0
   52.5360   21.9680   46.7900 C   0  0  0  0  0  0  0  0  0  0  0  0
   53.8980   22.1580   46.5350 C   0  0  0  0  0  0  0  0  0  0  0  0
   54.3760   22.0160   45.2370 O   0  0  0  0  0  0  0  0  0  0  0  0
   58.3621   25.9111   45.7822 H   0  0  0  0  0  0  0  0  0  0  0  0
   58.8005   28.2429   46.4660 H   0  0  0  0  0  0  0  0  0  0  0  0
   60.6044   30.5933   45.2973 H   0  0  0  0  0  0  0  0  0  0  0  0
   59.6584   29.4282   47.9121 H   0  0  0  0  0  0  0  0  0  0  0  0
   60.9722   28.8934   46.7898 H   0  0  0  0  0  0  0  0  0  0  0  0
   61.0258   30.9831   48.9710 H   0  0  0  0  0  0  0  0  0  0  0  0
   62.2589   29.7501   48.5072 H   0  0  0  0  0  0  0  0  0  0  0  0
   61.2760   33.1674   47.9943 H   0  0  0  0  0  0  0  0  0  0  0  0
   61.8379   33.1199   46.2548 H   0  0  0  0  0  0  0  0  0  0  0  0
   59.2462   32.2925   47.4411 H   0  0  0  0  0  0  0  0  0  0  0  0
   59.6692   32.7895   45.7583 H   0  0  0  0  0  0  0  0  0  0  0  0
   55.7804   31.3507   43.9914 H   0  0  0  0  0  0  0  0  0  0  0  0
   52.5198   22.6990   50.1184 H   0  0  0  0  0  0  0  0  0  0  0  0
   50.9658   22.0011   48.2873 H   0  0  0  0  0  0  0  0  0  0  0  0
   51.8598   21.6720   45.9745 H   0  0  0  0  0  0  0  0  0  0  0  0
  1  2  2  0
  2  3  1  0
  3  4  1  0
  4  5  1  0
  5  6  2  0
  6  7  1  0
  7  8  2  0
  8  9  1  0
  9 10  1  0
 10 11  1  0
 11 12  1  0
 12 13  1  0
 13 14  1  0
 14 15  1  0
  9 16  2  0
 16 17  1  0
 16 18  1  0
 18 19  2  0
 19 20  1  0
  6 21  1  0
 21 22  1  0
  2 23  1  0
 23 24  2  0
 24 25  1  0
 25 26  2  0
 26 27  1  0
 27 28  2  0
 28 29  1  0
 22  4  2  0
 28 23  1  0
 19  7  1  0
 15 10  1  0
  5 30  1  0
  8 31  1  0
 10 32  1  0
 11 33  1  0
 11 34  1  0
 12 35  1  0
 12 36  1  0
 14 37  1  0
 14 38  1  0
 15 39  1  0
 15 40  1  0
 18 41  1  0
 25 42  1  0
 26 43  1  0
 27 44  1  0
M  CHG  5   3  -1  17  -1  20  -1  21  -1  29  -1
M  END
>  <UniqueID>  (51) 
50

>  <SMILES>  (51) 
O=C([N-]c1cc(-c2cc(C3CCOCC3)c([O-])cc2[O-])[n-]n1)c1ncccc1[O-]

>  <Energy>  (51) 
98.01102110984715

>  <Genealogy>  (51) 
O=C([N-]c1cc(-c2cc(C3CCOCC3)c([O-])cc2[O-])[n-]n1)c1ncccc1[O-] (protonated)
O=C([N-]c1cc(-c2cc(C3CCOCC3)c([O-])cc2[O-])[n-]n1)c1ncccc1[O-] (3D coordinates assigned)
O=C([N-]c1cc(-c2cc(C3CCOCC3)c([O-])cc2[O-])[n-]n1)c1ncccc1[O-] (nonaromatic ring conformer: 98.01102110984715 kcal/mol)

>  <smiles>  (51) 
O=C(Nc1cc(-c2cc(C3CCOCC3)c(O)cc2O)[nH]n1)c1ncccc1O

>  <score_type>  (51) 
oracle

>  <origin>  (51) 
adg

>  <m_score__min__energy>  (51) 
-17.91

>  <m_primary>  (51) 
energy

$$$$
51:0
     RDKit          3D

 49 51  0  0  0  0  0  0  0  0999 V2000
   59.4640   34.6930   50.8160 H   0  0  0  0  0  0  0  0  0  0  0  0
   59.9380   34.0520   50.1410 N   0  0  0  0  0  0  0  0  0  0  0  0
   59.4540   33.8320   48.9610 C   0  0  0  0  0  0  0  0  0  0  0  0
   59.7300   34.6850   47.9380 N   0  0  0  0  0  0  0  0  0  0  0  0
   59.2500   34.4960   46.6780 C   0  0  0  0  0  0  0  0  0  0  0  0
   59.6250   35.4910   45.6190 C   0  0  0  0  0  0  0  0  0  0  0  0
   59.9747   36.4189   46.0951 H   0  0  0  0  0  0  0  0  0  0  0  0
   60.4280   35.0750   44.9928 H   0  0  0  0  0  0  0  0  0  0  0  0
   58.7471   35.7084   44.9928 H   0  0  0  0  0  0  0  0  0  0  0  0
   58.4580   33.3560   46.3970 C   0  0  0  0  0  0  0  0  0  0  0  0
   57.9410   33.0470   45.0060 C   0  0  0  0  0  0  0  0  0  0  0  0
   57.5072   33.9608   44.5738 H   0  0  0  0  0  0  0  0  0  0  0  0
   58.7824   32.6887   44.3947 H   0  0  0  0  0  0  0  0  0  0  0  0
   56.9180   32.0040   45.0390 N   0  0  0  0  0  0  0  0  0  0  0  0
   56.9490   30.7800   44.2920 C   0  0  0  0  0  0  0  0  0  0  0  0
   56.5230   30.7790   43.1070 O   0  0  0  0  0  0  0  0  0  0  0  0
   57.5070   29.5420   44.8520 C   0  0  0  0  0  0  0  0  0  0  0  0
   56.9380   28.3280   44.7300 N   0  0  0  0  0  0  0  0  0  0  0  0
   57.6800   27.4690   45.4120 N   0  0  0  0  0  0  0  0  0  0  0  0
   57.3530   26.0500   45.5230 C   0  0  0  0  0  0  0  0  0  0  0  0
   57.2898   25.6109   44.5164 H   0  0  0  0  0  0  0  0  0  0  0  0
   58.1383   25.5426   46.1025 H   0  0  0  0  0  0  0  0  0  0  0  0
   56.0420   25.8810   46.2200 C   0  0  0  0  0  0  0  0  0  0  0  0
   55.1010   26.6890   46.0090 O   0  0  0  0  0  0  0  0  0  0  0  0
   55.8670   24.8420   47.1240 O   0  0  0  0  0  0  0  0  0  0  0  0
   58.7240   28.1220   45.9720 C   0  0  0  0  0  0  0  0  0  0  0  0
   59.7320   27.5170   46.8630 C   0  0  0  0  0  0  0  0  0  0  0  0
   59.9930   26.2920   46.7540 O   0  0  0  0  0  0  0  0  0  0  0  0
   60.3930   28.2790   47.8810 N   0  0  0  0  0  0  0  0  0  0  0  0
   59.9090   29.5490   48.4070 C   0  0  0  0  0  0  0  0  0  0  0  0
   59.0728   29.9070   47.7884 H   0  0  0  0  0  0  0  0  0  0  0  0
   59.5663   29.4094   49.4429 H   0  0  0  0  0  0  0  0  0  0  0  0
   61.0190   30.5590   48.3800 C   0  0  0  0  0  0  0  0  0  0  0  0
   61.6750   30.9240   49.5680 C   0  0  0  0  0  0  0  0  0  0  0  0
   61.3869   30.4550   50.5204 H   0  0  0  0  0  0  0  0  0  0  0  0
   62.6930   31.8820   49.5420 C   0  0  0  0  0  0  0  0  0  0  0  0
   63.2107   32.1584   50.4724 H   0  0  0  0  0  0  0  0  0  0  0  0
   63.0540   32.4890   48.3360 C   0  0  0  0  0  0  0  0  0  0  0  0
   63.8576   33.2400   48.3173 H   0  0  0  0  0  0  0  0  0  0  0  0
   62.3940   32.1420   47.1530 C   0  0  0  0  0  0  0  0  0  0  0  0
   62.6767   32.6222   46.2046 H   0  0  0  0  0  0  0  0  0  0  0  0
   61.3750   31.1850   47.1750 C   0  0  0  0  0  0  0  0  0  0  0  0
   60.8503   30.9216   46.2447 H   0  0  0  0  0  0  0  0  0  0  0  0
   58.6540   29.4550   45.6190 C   0  0  0  0  0  0  0  0  0  0  0  0
   59.3511   30.2627   45.8867 H   0  0  0  0  0  0  0  0  0  0  0  0
   58.1450   32.4850   47.4550 C   0  0  0  0  0  0  0  0  0  0  0  0
   57.5000   31.6131   47.2716 H   0  0  0  0  0  0  0  0  0  0  0  0
   58.6460   32.7180   48.7350 C   0  0  0  0  0  0  0  0  0  0  0  0
   58.4063   32.0297   49.5589 H   0  0  0  0  0  0  0  0  0  0  0  0
  1  2  1  0
  2  3  2  0
  3  4  1  0
  4  5  1  0
  5  6  1  0
  6  7  1  0
  6  8  1  0
  6  9  1  0
  5 10  2  0
 10 11  1  0
 11 12  1  0
 11 13  1  0
 11 14  1  0
 14 15  1  0
 15 16  2  0
 15 17  1  0
 17 18  2  0
 18 19  1  0
 19 20  1  0
 20 21  1  0
 20 22  1  0
 20 23  1  0
 23 24  2  0
 23 25  1  0
 19 26  1  0
 26 27  1  0
 27 28  2  0
 27 29  1  0
 29 30  1  0
 30 31  1  0
 30 32  1  0
 30 33  1  0
 33 34  2  0
 34 35  1  0
 34 36  1  0
 36 37  1  0
 36 38  2  0
 38 39  1  0
 38 40  1  0
 40 41  1  0
 40 42  2  0
 42 43  1  0
 26 44  2  0
 44 45  1  0
 10 46  1  0
 46 47  1  0
 46 48  2  0
 48 49  1  0
 48  3  1  0
 44 17  1  0
 42 33  1  0
M  CHG  4   4  -1  14  -1  25  -1  29  -1
M  END
>  <UniqueID>  (52) 
51

>  <SMILES>  (52) 
[H]/N=c1/ccc(C[N-]C(=O)c2cc(C(=O)[N-]Cc3ccccc3)n(CC(=O)[O-])n2)c(C)[n-]1

>  <Energy>  (52) 
80.78092713973022

>  <Genealogy>  (52) 
Cc1[n-]c(=N)ccc1C[N-]C(=O)c1cc(C(=O)[N-]Cc2ccccc2)n(CC(=O)[O-])n1 (protonated)
[H]/N=c1/ccc(C[N-]C(=O)c2cc(C(=O)[N-]Cc3ccccc3)n(CC(=O)[O-])n2)c(C)[n-]1 (cis-trans isomerization)
[H]/N=c1/ccc(C[N-]C(=O)c2cc(C(=O)[N-]Cc3ccccc3)n(CC(=O)[O-])n2)c(C)[n-]1 (3D coordinates assigned)
[H]/N=c1/ccc(C[N-]C(=O)c2cc(C(=O)[N-]Cc3ccccc3)n(CC(=O)[O-])n2)c(C)[n-]1 (optimized conformer: 80.78092713973022 kcal/mol)

>  <smiles>  (52) 
Cc1[nH]c(=N)ccc1CNC(=O)c1cc(C(=O)NCc2ccccc2)n(CC(=O)O)n1

>  <score_type>  (52) 
oracle

>  <origin>  (52) 
adg

>  <m_score__min__energy>  (52) 
-14.630000000000001

>  <m_primary>  (52) 
energy

$$$$
52:0
     RDKit          3D

 32 34  0  0  0  0  0  0  0  0999 V2000
   57.1325   31.6686   51.8680 H   0  0  0  0  0  0  0  0  0  0  0  0
   56.0390   31.6580   51.9870 C   0  0  0  0  0  0  0  0  0  0  0  0
   55.4467   32.5417   51.7071 H   0  0  0  0  0  0  0  0  0  0  0  0
   55.4270   30.5660   52.4740 C   0  0  0  0  0  0  0  0  0  0  0  0
   54.0510   30.4020   52.6820 C   0  0  0  0  0  0  0  0  0  0  0  0
   53.0780   31.2970   52.4030 C   0  0  0  0  0  0  0  0  0  0  0  0
   52.8828   32.0760   53.1547 H   0  0  0  0  0  0  0  0  0  0  0  0
   52.2520   31.3220   51.1760 C   0  0  0  0  0  0  0  0  0  0  0  0
   52.2470   30.3920   50.2050 N   0  0  0  0  0  0  0  0  0  0  0  0
   51.3140   30.8410   49.3380 C   0  0  0  0  0  0  0  0  0  0  0  0
   51.0210   30.2290   48.2790 O   0  0  0  0  0  0  0  0  0  0  0  0
   50.7180   31.9970   49.6980 N   0  0  0  0  0  0  0  0  0  0  0  0
   51.3190   32.2850   50.8640 C   0  0  0  0  0  0  0  0  0  0  0  0
   51.0200   33.4060   51.6280 O   0  0  0  0  0  0  0  0  0  0  0  0
   53.8930   29.1250   53.2150 C   0  0  0  0  0  0  0  0  0  0  0  0
   52.9457   28.6500   53.5099 H   0  0  0  0  0  0  0  0  0  0  0  0
   55.1540   28.5700   53.3020 C   0  0  0  0  0  0  0  0  0  0  0  0
   55.4410   27.1920   53.8150 C   0  0  0  0  0  0  0  0  0  0  0  0
   55.4388   27.2024   54.9149 H   0  0  0  0  0  0  0  0  0  0  0  0
   54.6682   26.4978   53.4534 H   0  0  0  0  0  0  0  0  0  0  0  0
   56.4267   26.8640   53.4534 H   0  0  0  0  0  0  0  0  0  0  0  0
   56.0860   29.4480   52.8680 N   0  0  0  0  0  0  0  0  0  0  0  0
   57.5010   29.2070   52.7910 C   0  0  0  0  0  0  0  0  0  0  0  0
   58.1480   29.3750   51.6040 N   0  0  0  0  0  0  0  0  0  0  0  0
   59.4830   29.1570   51.4770 C   0  0  0  0  0  0  0  0  0  0  0  0
   59.9734   29.3020   50.5031 H   0  0  0  0  0  0  0  0  0  0  0  0
   60.2330   28.7490   52.5820 C   0  0  0  0  0  0  0  0  0  0  0  0
   61.3133   28.5667   52.4837 H   0  0  0  0  0  0  0  0  0  0  0  0
   59.5980   28.5750   53.8120 C   0  0  0  0  0  0  0  0  0  0  0  0
   60.1770   28.2540   54.6905 H   0  0  0  0  0  0  0  0  0  0  0  0
   58.2260   28.8090   53.9260 C   0  0  0  0  0  0  0  0  0  0  0  0
   57.5970   28.6620   55.1570 O   0  0  0  0  0  0  0  0  0  0  0  0
  1  2  1  0
  2  3  1  0
  2  4  2  0
  4  5  1  0
  5  6  2  0
  6  7  1  0
  6  8  1  0
  8  9  1  0
  9 10  1  0
 10 11  2  0
 10 12  1  0
 12 13  1  0
 13 14  1  0
  5 15  1  0
 15 16  1  0
 15 17  2  0
 17 18  1  0
 18 19  1  0
 18 20  1  0
 18 21  1  0
 17 22  1  0
 22 23  1  0
 23 24  2  0
 24 25  1  0
 25 26  1  0
 25 27  2  0
 27 28  1  0
 27 29  1  0
 29 30  1  0
 29 31  2  0
 31 32  1  0
 22  4  1  0
 31 23  1  0
 13  8  2  0
M  CHG  4   9  -1  12  -1  14  -1  32  -1
M  END
>  <UniqueID>  (53) 
52

>  <SMILES>  (53) 
C=c1/c(=C/c2[n-]c(=O)[n-]c2[O-])cc(C)n1-c1ncccc1[O-]

>  <Energy>  (53) 
104.20361586712244

>  <Genealogy>  (53) 
C=c1c(=Cc2[n-]c(=O)[n-]c2[O-])cc(C)n1-c1ncccc1[O-] (protonated)
C=c1/c(=C/c2[n-]c(=O)[n-]c2[O-])cc(C)n1-c1ncccc1[O-] (cis-trans isomerization)
C=c1/c(=C/c2[n-]c(=O)[n-]c2[O-])cc(C)n1-c1ncccc1[O-] (3D coordinates assigned)
C=c1/c(=C/c2[n-]c(=O)[n-]c2[O-])cc(C)n1-c1ncccc1[O-] (optimized conformer: 104.20361586712244 kcal/mol)

>  <smiles>  (53) 
C=c1c(=Cc2[nH]c(=O)[nH]c2O)cc(C)n1-c1ncccc1O

>  <score_type>  (53) 
oracle

>  <origin>  (53) 
adg

>  <m_score__min__energy>  (53) 
-16.34

>  <m_primary>  (53) 
energy

$$$$
53:0
     RDKit          3D

 67 69  0  0  0  0  0  0  0  0999 V2000
   56.8381   22.7367   41.9909 H   0  0  0  0  0  0  0  0  0  0  0  0
   56.6050   23.0990   43.0030 C   0  0  0  0  0  0  0  0  0  0  0  0
   57.6090   23.3260   43.8890 N   0  0  0  0  0  0  0  0  0  0  0  0
   57.3670   23.7720   45.1500 C   0  0  0  0  0  0  0  0  0  0  0  0
   58.5220   24.0100   46.0810 C   0  0  0  0  0  0  0  0  0  0  0  0
   58.6375   23.1370   46.7402 H   0  0  0  0  0  0  0  0  0  0  0  0
   59.4296   24.1633   45.4787 H   0  0  0  0  0  0  0  0  0  0  0  0
   58.3030   25.1990   46.8990 N   0  0  0  0  0  0  0  0  0  0  0  0
   57.8170   26.4660   46.4270 C   0  0  0  0  0  0  0  0  0  0  0  0
   56.5940   26.7350   46.5680 O   0  0  0  0  0  0  0  0  0  0  0  0
   58.7220   27.4970   45.8120 C   0  0  0  0  0  0  0  0  0  0  0  0
   58.9265   28.2847   46.5521 H   0  0  0  0  0  0  0  0  0  0  0  0
   59.6579   27.0068   45.5058 H   0  0  0  0  0  0  0  0  0  0  0  0
   58.0710   28.1250   44.5780 C   0  0  0  0  0  0  0  0  0  0  0  0
   58.7731   28.0731   43.7328 H   0  0  0  0  0  0  0  0  0  0  0  0
   57.1502   27.5713   44.3421 H   0  0  0  0  0  0  0  0  0  0  0  0
   57.7200   29.5570   44.8390 C   0  0  0  0  0  0  0  0  0  0  0  0
   56.5350   30.1090   44.4940 N   0  0  0  0  0  0  0  0  0  0  0  0
   56.4190   31.3820   44.8660 N   0  0  0  0  0  0  0  0  0  0  0  0
   57.5150   31.8470   45.5050 C   0  0  0  0  0  0  0  0  0  0  0  0
   57.6250   33.0400   46.0090 N   0  0  0  0  0  0  0  0  0  0  0  0
   57.9330   34.2490   45.2980 C   0  0  0  0  0  0  0  0  0  0  0  0
   57.0290   34.7840   44.6020 O   0  0  0  0  0  0  0  0  0  0  0  0
   59.2260   34.9940   45.4960 C   0  0  0  0  0  0  0  0  0  0  0  0
   59.8119   34.9628   44.5656 H   0  0  0  0  0  0  0  0  0  0  0  0
   59.0069   36.0391   45.7603 H   0  0  0  0  0  0  0  0  0  0  0  0
   60.0160   34.3550   46.6060 C   0  0  0  0  0  0  0  0  0  0  0  0
   61.2870   33.8150   46.3510 C   0  0  0  0  0  0  0  0  0  0  0  0
   61.7275   33.9010   45.3467 H   0  0  0  0  0  0  0  0  0  0  0  0
   61.9940   33.1690   47.3680 C   0  0  0  0  0  0  0  0  0  0  0  0
   62.9911   32.7517   47.1641 H   0  0  0  0  0  0  0  0  0  0  0  0
   61.4360   33.0520   48.6450 C   0  0  0  0  0  0  0  0  0  0  0  0
   61.9932   32.5362   49.4409 H   0  0  0  0  0  0  0  0  0  0  0  0
   60.1700   33.5890   48.9150 C   0  0  0  0  0  0  0  0  0  0  0  0
   59.5630   33.4350   50.2860 C   0  0  0  0  0  0  0  0  0  0  0  0
   60.3301   33.0646   50.9820 H   0  0  0  0  0  0  0  0  0  0  0  0
   59.1878   34.4133   50.6209 H   0  0  0  0  0  0  0  0  0  0  0  0
   58.4380   32.4790   50.2490 N   0  0  0  0  0  0  0  0  0  0  0  0
   57.8620   32.2940   51.5920 C   0  0  0  0  0  0  0  0  0  0  0  0
   58.6189   32.5371   52.3523 H   0  0  0  0  0  0  0  0  0  0  0  0
   56.9938   32.9585   51.7133 H   0  0  0  0  0  0  0  0  0  0  0  0
   57.5431   31.2482   51.7133 H   0  0  0  0  0  0  0  0  0  0  0  0
   58.8960   31.1810   49.7280 C   0  0  0  0  0  0  0  0  0  0  0  0
   59.1323   30.5114   50.5681 H   0  0  0  0  0  0  0  0  0  0  0  0
   58.1021   30.7319   49.1132 H   0  0  0  0  0  0  0  0  0  0  0  0
   59.7960   31.3296   49.1132 H   0  0  0  0  0  0  0  0  0  0  0  0
   59.4580   34.2320   47.8890 C   0  0  0  0  0  0  0  0  0  0  0  0
   58.4574   34.6416   48.0916 H   0  0  0  0  0  0  0  0  0  0  0  0
   58.7010   30.6630   45.6540 S   0  0  0  0  0  0  0  0  0  0  0  0
   56.0450   23.9830   45.5700 C   0  0  0  0  0  0  0  0  0  0  0  0
   55.8393   24.3166   46.5978 H   0  0  0  0  0  0  0  0  0  0  0  0
   54.9850   23.7670   44.6740 C   0  0  0  0  0  0  0  0  0  0  0  0
   53.5830   24.0090   45.0870 C   0  0  0  0  0  0  0  0  0  0  0  0
   53.2660   25.1030   45.6260 O   0  0  0  0  0  0  0  0  0  0  0  0
   52.5900   22.9930   44.8800 N   0  0  0  0  0  0  0  0  0  0  0  0
   51.1620   23.2110   44.6420 C   0  0  0  0  0  0  0  0  0  0  0  0
   50.7698   22.3319   44.1097 H   0  0  0  0  0  0  0  0  0  0  0  0
   50.3940   23.3260   45.9620 C   0  0  0  0  0  0  0  0  0  0  0  0
   51.0942   23.2212   46.8039 H   0  0  0  0  0  0  0  0  0  0  0  0
   49.9011   24.3080   46.0151 H   0  0  0  0  0  0  0  0  0  0  0  0
   49.6351   22.5315   46.0151 H   0  0  0  0  0  0  0  0  0  0  0  0
   50.9280   24.4280   43.7400 C   0  0  0  0  0  0  0  0  0  0  0  0
   50.7568   25.3184   44.3627 H   0  0  0  0  0  0  0  0  0  0  0  0
   51.8116   24.5891   43.1050 H   0  0  0  0  0  0  0  0  0  0  0  0
   50.0477   24.2499   43.1050 H   0  0  0  0  0  0  0  0  0  0  0  0
   55.2790   23.3240   43.3730 C   0  0  0  0  0  0  0  0  0  0  0  0
   54.4673   23.1555   42.6500 H   0  0  0  0  0  0  0  0  0  0  0  0
  1  2  1  0
  2  3  2  0
  3  4  1  0
  4  5  1  0
  5  6  1  0
  5  7  1  0
  5  8  1  0
  8  9  1  0
  9 10  2  0
  9 11  1  0
 11 12  1  0
 11 13  1  0
 11 14  1  0
 14 15  1  0
 14 16  1  0
 14 17  1  0
 17 18  2  0
 18 19  1  0
 19 20  1  0
 20 21  2  0
 21 22  1  0
 22 23  2  0
 22 24  1  0
 24 25  1  0
 24 26  1  0
 24 27  1  0
 27 28  2  0
 28 29  1  0
 28 30  1  0
 30 31  1  0
 30 32  2  0
 32 33  1  0
 32 34  1  0
 34 35  1  0
 35 36  1  0
 35 37  1  0
 35 38  1  0
 38 39  1  0
 39 40  1  0
 39 41  1  0
 39 42  1  0
 38 43  1  0
 43 44  1  0
 43 45  1  0
 43 46  1  0
 34 47  2  0
 47 48  1  0
 20 49  1  0
  4 50  2  0
 50 51  1  0
 50 52  1  0
 52 53  1  0
 53 54  2  0
 53 55  1  0
 55 56  1  0
 56 57  1  0
 56 58  1  0
 58 59  1  0
 58 60  1  0
 58 61  1  0
 56 62  1  0
 62 63  1  0
 62 64  1  0
 62 65  1  0
 52 66  2  0
 66 67  1  0
 66  2  1  0
 49 17  1  0
 47 27  1  0
M  CHG  3   8  -1  19  -1  55  -1
M  END
>  <UniqueID>  (54) 
53

>  <SMILES>  (54) 
CC(C)[N-]C(=O)c1ccnc(C[N-]C(=O)CCc2n[n-]/c(=N\C(=O)Cc3cccc(CN(C)C)c3)s2)c1

>  <Energy>  (54) 
96.50620523094484

>  <Genealogy>  (54) 
CC(C)[N-]C(=O)c1ccnc(C[N-]C(=O)CCc2n[n-]c(=NC(=O)Cc3cccc(CN(C)C)c3)s2)c1 (protonated)
CC(C)[N-]C(=O)c1ccnc(C[N-]C(=O)CCc2n[n-]/c(=N\C(=O)Cc3cccc(CN(C)C)c3)s2)c1 (cis-trans isomerization)
CC(C)[N-]C(=O)c1ccnc(C[N-]C(=O)CCc2n[n-]/c(=N\C(=O)Cc3cccc(CN(C)C)c3)s2)c1 (3D coordinates assigned)
CC(C)[N-]C(=O)c1ccnc(C[N-]C(=O)CCc2n[n-]/c(=N\C(=O)Cc3cccc(CN(C)C)c3)s2)c1 (optimized conformer: 96.50620523094484 kcal/mol)

>  <smiles>  (54) 
CC(C)NC(=O)c1ccnc(CNC(=O)CCc2n[nH]c(=NC(=O)Cc3cccc(CN(C)C)c3)s2)c1

>  <score_type>  (54) 
oracle

>  <origin>  (54) 
adg

>  <m_score__min__energy>  (54) 
-13.81

>  <m_primary>  (54) 
energy

$$$$
54:0
     RDKit          3D

 61 64  0  0  0  0  0  0  0  0999 V2000
   57.4220   32.0520   50.1310 O   0  0  0  0  0  0  0  0  0  0  0  0
   57.9930   32.2170   51.2450 C   0  0  0  0  0  0  0  0  0  0  0  0
   59.3630   32.7560   51.3040 C   0  0  0  0  0  0  0  0  0  0  0  0
   60.4190   32.0040   50.9870 C   0  0  0  0  0  0  0  0  0  0  0  0
   60.8710   31.8270   49.5920 C   0  0  0  0  0  0  0  0  0  0  0  0
   60.5550   30.6360   48.8970 C   0  0  0  0  0  0  0  0  0  0  0  0
   59.3800   29.4390   49.5650 S   0  0  0  0  0  0  0  0  0  0  0  0
   59.2200   28.6200   47.9790 C   0  0  0  0  0  0  0  0  0  0  0  0
   60.0950   27.5900   47.6100 C   0  0  0  0  0  0  0  0  0  0  0  0
   59.8950   26.9010   46.4060 C   0  0  0  0  0  0  0  0  0  0  0  0
   58.8160   27.2320   45.5780 C   0  0  0  0  0  0  0  0  0  0  0  0
   57.9400   28.2660   45.9350 C   0  0  0  0  0  0  0  0  0  0  0  0
   56.8020   28.5200   45.1030 N   0  0  0  0  0  0  0  0  0  0  0  0
   56.6230   29.8810   44.0390 S   0  0  0  0  0  0  0  0  0  0  0  0
   56.3050   29.3940   42.6530 O   0  0  0  0  0  0  0  0  0  0  0  0
   55.4830   30.7370   44.5140 O   0  0  0  0  0  0  0  0  0  0  0  0
   58.1010   30.8410   43.9940 C   0  0  0  0  0  0  0  0  0  0  0  0
   58.1230   32.1770   43.9880 C   0  0  0  0  0  0  0  0  0  0  0  0
   58.5070   32.9900   45.1530 C   0  0  0  0  0  0  0  0  0  0  0  0
   59.2430   34.1770   44.9900 C   0  0  0  0  0  0  0  0  0  0  0  0
   59.6180   34.9290   46.1100 C   0  0  0  0  0  0  0  0  0  0  0  0
   59.2630   34.4990   47.3920 C   0  0  0  0  0  0  0  0  0  0  0  0
   58.5220   33.3280   47.5580 C   0  0  0  0  0  0  0  0  0  0  0  0
   58.1360   32.5760   46.4430 C   0  0  0  0  0  0  0  0  0  0  0  0
   58.1640   28.9710   47.1320 C   0  0  0  0  0  0  0  0  0  0  0  0
   61.1070   30.4000   47.6320 C   0  0  0  0  0  0  0  0  0  0  0  0
   61.9270   31.3530   47.0330 C   0  0  0  0  0  0  0  0  0  0  0  0
   62.2450   32.5350   47.7070 C   0  0  0  0  0  0  0  0  0  0  0  0
   63.3600   33.6660   46.9400 Cl  0  0  0  0  0  0  0  0  0  0  0  0
   61.7320   32.7770   48.9940 C   0  0  0  0  0  0  0  0  0  0  0  0
   62.2410   34.2210   49.8820 Cl  0  0  0  0  0  0  0  0  0  0  0  0
   57.3300   31.8600   52.4550 N   0  0  0  0  0  0  0  0  0  0  0  0
   56.5540   30.3220   52.6720 S   0  0  0  0  0  0  0  0  0  0  0  0
   57.0510   29.3570   51.6350 O   0  0  0  0  0  0  0  0  0  0  0  0
   56.9090   29.7830   54.0260 O   0  0  0  0  0  0  0  0  0  0  0  0
   54.8000   30.5020   52.5640 C   0  0  0  0  0  0  0  0  0  0  0  0
   54.1950   30.8290   51.3390 C   0  0  0  0  0  0  0  0  0  0  0  0
   52.8040   30.9680   51.2520 C   0  0  0  0  0  0  0  0  0  0  0  0
   52.0130   30.7810   52.3890 C   0  0  0  0  0  0  0  0  0  0  0  0
   50.6660   30.9020   52.3020 F   0  0  0  0  0  0  0  0  0  0  0  0
   52.6120   30.4570   53.6120 C   0  0  0  0  0  0  0  0  0  0  0  0
   54.0040   30.3220   53.7030 C   0  0  0  0  0  0  0  0  0  0  0  0
   59.5186   33.7994   51.6157 H   0  0  0  0  0  0  0  0  0  0  0  0
   60.9719   31.4985   51.7925 H   0  0  0  0  0  0  0  0  0  0  0  0
   60.9378   27.3224   48.2643 H   0  0  0  0  0  0  0  0  0  0  0  0
   60.5873   26.0986   46.1112 H   0  0  0  0  0  0  0  0  0  0  0  0
   58.6548   26.6774   44.6418 H   0  0  0  0  0  0  0  0  0  0  0  0
   59.0630   30.3081   43.9694 H   0  0  0  0  0  0  0  0  0  0  0  0
   57.8385   32.6976   43.0617 H   0  0  0  0  0  0  0  0  0  0  0  0
   59.5244   34.5151   43.9818 H   0  0  0  0  0  0  0  0  0  0  0  0
   60.1921   35.8584   45.9811 H   0  0  0  0  0  0  0  0  0  0  0  0
   59.5683   35.0847   48.2716 H   0  0  0  0  0  0  0  0  0  0  0  0
   58.2407   32.9954   48.5681 H   0  0  0  0  0  0  0  0  0  0  0  0
   57.5417   31.6601   46.5767 H   0  0  0  0  0  0  0  0  0  0  0  0
   57.5021   29.8063   47.4042 H   0  0  0  0  0  0  0  0  0  0  0  0
   60.8918   29.4568   47.1085 H   0  0  0  0  0  0  0  0  0  0  0  0
   62.3265   31.1743   46.0238 H   0  0  0  0  0  0  0  0  0  0  0  0
   54.8168   30.9766   50.4437 H   0  0  0  0  0  0  0  0  0  0  0  0
   52.3349   31.2239   50.2905 H   0  0  0  0  0  0  0  0  0  0  0  0
   51.9876   30.3078   54.5052 H   0  0  0  0  0  0  0  0  0  0  0  0
   54.4712   30.0750   54.6677 H   0  0  0  0  0  0  0  0  0  0  0  0
  1  2  2  0
  2  3  1  0
  3  4  2  3
  4  5  1  0
  5  6  1  0
  6  7  1  0
  7  8  1  0
  8  9  2  0
  9 10  1  0
 10 11  2  0
 11 12  1  0
 12 13  1  0
 13 14  1  0
 14 15  2  0
 14 16  2  0
 14 17  1  0
 17 18  2  3
 18 19  1  0
 19 20  2  0
 20 21  1  0
 21 22  2  0
 22 23  1  0
 23 24  2  0
 12 25  2  0
  6 26  2  0
 26 27  1  0
 27 28  2  0
 28 29  1  0
 28 30  1  0
 30 31  1  0
  2 32  1  0
 32 33  1  0
 33 34  2  0
 33 35  2  0
 33 36  1  0
 36 37  2  0
 37 38  1  0
 38 39  2  0
 39 40  1  0
 39 41  1  0
 41 42  2  0
 30  5  2  0
 42 36  1  0
 25  8  1  0
 24 19  1  0
  3 43  1  0
  4 44  1  0
  9 45  1  0
 10 46  1  0
 11 47  1  0
 17 48  1  0
 18 49  1  0
 20 50  1  0
 21 51  1  0
 22 52  1  0
 23 53  1  0
 24 54  1  0
 25 55  1  0
 26 56  1  0
 27 57  1  0
 37 58  1  0
 38 59  1  0
 41 60  1  0
 42 61  1  0
M  CHG  2  13  -1  32  -1
M  END
>  <UniqueID>  (55) 
54

>  <SMILES>  (55) 
O=C(C=Cc1c(Sc2cccc([N-]S(=O)(=O)C=Cc3ccccc3)c2)ccc(Cl)c1Cl)[N-]S(=O)(=O)c1ccc(F)cc1

>  <Energy>  (55) 
81.2405530836529

>  <Genealogy>  (55) 
O=C(C=Cc1c(Sc2cccc([N-]S(=O)(=O)C=Cc3ccccc3)c2)ccc(Cl)c1Cl)[N-]S(=O)(=O)c1ccc(F)cc1 (protonated)
O=C(C=Cc1c(Sc2cccc([N-]S(=O)(=O)C=Cc3ccccc3)c2)ccc(Cl)c1Cl)[N-]S(=O)(=O)c1ccc(F)cc1 (3D coordinates assigned)
O=C(C=Cc1c(Sc2cccc([N-]S(=O)(=O)C=Cc3ccccc3)c2)ccc(Cl)c1Cl)[N-]S(=O)(=O)c1ccc(F)cc1 (optimized conformer: 81.2405530836529 kcal/mol)

>  <smiles>  (55) 
O=C(C=Cc1c(Sc2cccc(NS(=O)(=O)C=Cc3ccccc3)c2)ccc(Cl)c1Cl)NS(=O)(=O)c1ccc(F)cc1

>  <score_type>  (55) 
oracle

>  <origin>  (55) 
adg

>  <m_score__min__energy>  (55) 
-14.26

>  <m_primary>  (55) 
energy

$$$$
55:0
     RDKit          3D

 50 53  0  0  0  0  0  0  0  0999 V2000
   59.3520   25.6840   45.6700 O   0  0  0  0  0  0  0  0  0  0  0  0
   58.4430   26.5250   45.4370 C   0  0  0  0  0  0  0  0  0  0  0  0
   57.2180   26.1020   44.8120 N   0  0  0  0  0  0  0  0  0  0  0  0
   56.8730   24.7140   44.6700 C   0  0  0  0  0  0  0  0  0  0  0  0
   57.8540   23.8390   44.1780 C   0  0  0  0  0  0  0  0  0  0  0  0
   57.5600   22.4940   43.9480 C   0  0  0  0  0  0  0  0  0  0  0  0
   56.2820   22.0050   44.2110 C   0  0  0  0  0  0  0  0  0  0  0  0
   55.3000   22.8540   44.7240 C   0  0  0  0  0  0  0  0  0  0  0  0
   55.5810   24.2100   44.9820 C   0  0  0  0  0  0  0  0  0  0  0  0
   54.5330   25.0430   45.6190 C   0  0  0  0  0  0  0  0  0  0  0  0
   53.3950   24.5590   45.8580 O   0  0  0  0  0  0  0  0  0  0  0  0
   54.7990   26.3500   46.0030 O   0  0  0  0  0  0  0  0  0  0  0  0
   58.6060   27.9160   45.9330 C   0  0  0  0  0  0  0  0  0  0  0  0
   59.9780   28.3860   46.3330 C   0  0  0  0  0  0  0  0  0  0  0  0
   59.9970   28.7960   47.7760 C   0  0  0  0  0  0  0  0  0  0  0  0
   60.3400   27.9910   48.8590 C   0  0  0  0  0  0  0  0  0  0  0  0
   60.1570   28.6590   50.0200 N   0  0  0  0  0  0  0  0  0  0  0  0
   59.6900   29.8730   49.6810 C   0  0  0  0  0  0  0  0  0  0  0  0
   59.3310   30.9100   50.5410 C   0  0  0  0  0  0  0  0  0  0  0  0
   58.8390   32.0990   49.9690 C   0  0  0  0  0  0  0  0  0  0  0  0
   58.7180   32.2230   48.5660 C   0  0  0  0  0  0  0  0  0  0  0  0
   58.2310   33.4020   48.0150 O   0  0  0  0  0  0  0  0  0  0  0  0
   59.0870   31.1570   47.7240 C   0  0  0  0  0  0  0  0  0  0  0  0
   59.5730   29.9930   48.3190 C   0  0  0  0  0  0  0  0  0  0  0  0
   57.6050   28.7310   46.1280 N   0  0  0  0  0  0  0  0  0  0  0  0
   56.7070   29.2990   45.1610 C   0  0  0  0  0  0  0  0  0  0  0  0
   55.5850   28.7660   44.9460 O   0  0  0  0  0  0  0  0  0  0  0  0
   57.1330   30.4690   44.3600 C   0  0  0  0  0  0  0  0  0  0  0  0
   56.9700   30.4750   42.9610 C   0  0  0  0  0  0  0  0  0  0  0  0
   57.3680   31.5830   42.2060 C   0  0  0  0  0  0  0  0  0  0  0  0
   57.9300   32.6960   42.8360 C   0  0  0  0  0  0  0  0  0  0  0  0
   58.0970   32.7040   44.2230 C   0  0  0  0  0  0  0  0  0  0  0  0
   58.8020   34.1030   45.0130 Cl  0  0  0  0  0  0  0  0  0  0  0  0
   57.7010   31.5980   44.9840 C   0  0  0  0  0  0  0  0  0  0  0  0
   56.4300   26.7880   44.7860 H   0  0  0  0  0  0  0  0  0  0  0  0
   58.8660   24.2175   43.9713 H   0  0  0  0  0  0  0  0  0  0  0  0
   58.3374   21.8199   43.5590 H   0  0  0  0  0  0  0  0  0  0  0  0
   56.0467   20.9487   44.0141 H   0  0  0  0  0  0  0  0  0  0  0  0
   54.2940   22.4592   44.9294 H   0  0  0  0  0  0  0  0  0  0  0  0
   60.6986   27.5691   46.1800 H   0  0  0  0  0  0  0  0  0  0  0  0
   60.2492   29.2543   45.7145 H   0  0  0  0  0  0  0  0  0  0  0  0
   60.7080   26.9573   48.7810 H   0  0  0  0  0  0  0  0  0  0  0  0
   60.3300   28.2960   50.9840 H   0  0  0  0  0  0  0  0  0  0  0  0
   59.4289   30.8028   51.6314 H   0  0  0  0  0  0  0  0  0  0  0  0
   58.5467   32.9373   50.6185 H   0  0  0  0  0  0  0  0  0  0  0  0
   58.9949   31.2395   46.6310 H   0  0  0  0  0  0  0  0  0  0  0  0
   56.5267   29.6024   42.4589 H   0  0  0  0  0  0  0  0  0  0  0  0
   57.2382   31.5780   41.1137 H   0  0  0  0  0  0  0  0  0  0  0  0
   58.2412   33.5664   42.2397 H   0  0  0  0  0  0  0  0  0  0  0  0
   57.8339   31.6100   46.0759 H   0  0  0  0  0  0  0  0  0  0  0  0
  1  2  2  0
  2  3  1  0
  3  4  1  0
  4  5  2  0
  5  6  1  0
  6  7  2  0
  7  8  1  0
  8  9  2  0
  9 10  1  0
 10 11  2  0
 10 12  1  0
  2 13  1  0
 13 14  1  0
 14 15  1  0
 15 16  2  0
 16 17  1  0
 17 18  1  0
 18 19  2  0
 19 20  1  0
 20 21  2  0
 21 22  1  0
 21 23  1  0
 23 24  2  0
 13 25  2  3
 25 26  1  0
 26 27  2  0
 26 28  1  0
 28 29  2  0
 29 30  1  0
 30 31  2  0
 31 32  1  0
 32 33  1  0
 32 34  2  0
  9  4  1  0
 24 15  1  0
 34 28  1  0
 24 18  1  0
  3 35  1  0
  5 36  1  0
  6 37  1  0
  7 38  1  0
  8 39  1  0
 14 40  1  0
 14 41  1  0
 16 42  1  0
 17 43  1  0
 19 44  1  0
 20 45  1  0
 23 46  1  0
 29 47  1  0
 30 48  1  0
 31 49  1  0
 34 50  1  0
M  CHG  2  12  -1  22  -1
M  END
>  <UniqueID>  (56) 
55

>  <SMILES>  (56) 
O=C(Nc1ccccc1C(=O)[O-])C(Cc1c[nH]c2ccc([O-])cc12)=NC(=O)c1cccc(Cl)c1

>  <Energy>  (56) 
104.63459970087334

>  <Genealogy>  (56) 
O=C(Nc1ccccc1C(=O)[O-])C(Cc1c[nH]c2ccc([O-])cc12)=NC(=O)c1cccc(Cl)c1 (protonated)
O=C(Nc1ccccc1C(=O)[O-])C(Cc1c[nH]c2ccc([O-])cc12)=NC(=O)c1cccc(Cl)c1 (3D coordinates assigned)
O=C(Nc1ccccc1C(=O)[O-])C(Cc1c[nH]c2ccc([O-])cc12)=NC(=O)c1cccc(Cl)c1 (optimized conformer: 104.63459970087334 kcal/mol)

>  <smiles>  (56) 
O=C(Nc1ccccc1C(=O)O)C(Cc1c[nH]c2ccc(O)cc12)=NC(=O)c1cccc(Cl)c1

>  <score_type>  (56) 
oracle

>  <origin>  (56) 
adg

>  <m_score__min__energy>  (56) 
-14.710000000000001

>  <m_primary>  (56) 
energy

$$$$
56:0
     RDKit          3D

 62 65  0  0  0  0  0  0  0  0999 V2000
   58.7256   33.7956   49.2110 H   0  0  0  0  0  0  0  0  0  0  0  0
   58.9170   33.8190   48.1280 C   0  0  0  0  0  0  0  0  0  0  0  0
   57.9110   33.4420   47.2330 C   0  0  0  0  0  0  0  0  0  0  0  0
   56.9273   33.1296   47.6135 H   0  0  0  0  0  0  0  0  0  0  0  0
   58.1530   33.4610   45.8490 C   0  0  0  0  0  0  0  0  0  0  0  0
   57.0630   33.0990   44.8770 C   0  0  0  0  0  0  0  0  0  0  0  0
   56.9579   33.9042   44.1349 H   0  0  0  0  0  0  0  0  0  0  0  0
   56.1218   32.9681   45.4311 H   0  0  0  0  0  0  0  0  0  0  0  0
   57.3990   31.7900   44.1560 C   0  0  0  0  0  0  0  0  0  0  0  0
   58.4852   31.7374   43.9903 H   0  0  0  0  0  0  0  0  0  0  0  0
   56.8651   31.7684   43.1945 H   0  0  0  0  0  0  0  0  0  0  0  0
   56.9890   30.6670   44.9340 O   0  0  0  0  0  0  0  0  0  0  0  0
   57.8470   29.9780   45.8010 C   0  0  0  0  0  0  0  0  0  0  0  0
   58.1710   30.5060   47.0110 N   0  0  0  0  0  0  0  0  0  0  0  0
   59.0120   29.8660   47.8660 C   0  0  0  0  0  0  0  0  0  0  0  0
   59.3090   30.3820   49.0230 N   0  0  0  0  0  0  0  0  0  0  0  0
   60.6650   30.7260   49.4610 C   0  0  2  0  0  0  0  0  0  0  0  0
   61.1717   29.8199   49.8248 H   0  0  0  0  0  0  0  0  0  0  0  0
   60.6230   31.7370   50.6370 C   0  0  0  0  0  0  0  0  0  0  0  0
   60.6010   31.1722   51.5807 H   0  0  0  0  0  0  0  0  0  0  0  0
   59.7240   32.3556   50.4991 H   0  0  0  0  0  0  0  0  0  0  0  0
   61.8310   32.6950   50.6700 C   0  0  0  0  0  0  0  0  0  0  0  0
   62.0078   33.0104   51.7089 H   0  0  0  0  0  0  0  0  0  0  0  0
   61.6013   33.5595   50.0298 H   0  0  0  0  0  0  0  0  0  0  0  0
   63.1100   32.0190   50.1270 C   0  0  2  0  0  0  0  0  0  0  0  0
   63.2833   31.0967   50.7008 H   0  0  0  0  0  0  0  0  0  0  0  0
   64.3280   32.8490   50.3660 N   0  0  0  0  0  0  0  0  0  0  0  0
   64.2740   33.6470   49.6860 H   0  0  0  0  0  0  0  0  0  0  0  0
   65.6090   32.1420   50.1020 C   0  0  0  0  0  0  0  0  0  0  0  0
   65.5351   31.1151   50.4893 H   0  0  0  0  0  0  0  0  0  0  0  0
   65.7826   32.1438   49.0158 H   0  0  0  0  0  0  0  0  0  0  0  0
   66.8010   32.8450   50.7780 C   0  0  0  0  0  0  0  0  0  0  0  0
   66.9669   32.4036   51.7718 H   0  0  0  0  0  0  0  0  0  0  0  0
   67.6965   32.7124   50.1531 H   0  0  0  0  0  0  0  0  0  0  0  0
   66.5390   34.2250   50.9190 O   0  0  0  0  0  0  0  0  0  0  0  0
   65.5150   34.4320   51.8780 C   0  0  0  0  0  0  0  0  0  0  0  0
   65.9430   34.2950   52.8820 H   0  0  0  0  0  0  0  0  0  0  0  0
   65.1287   35.4513   51.7301 H   0  0  0  0  0  0  0  0  0  0  0  0
   64.3230   33.4590   51.7140 C   0  0  0  0  0  0  0  0  0  0  0  0
   64.3990   32.6640   52.4705 H   0  0  0  0  0  0  0  0  0  0  0  0
   63.3867   34.0214   51.8444 H   0  0  0  0  0  0  0  0  0  0  0  0
   62.9220   31.5680   48.6440 C   0  0  0  0  0  0  0  0  0  0  0  0
   63.5003   30.6461   48.4835 H   0  0  0  0  0  0  0  0  0  0  0  0
   63.2714   32.3932   48.0060 H   0  0  0  0  0  0  0  0  0  0  0  0
   61.4510   31.2940   48.2710 C   0  0  0  0  0  0  0  0  0  0  0  0
   61.4210   30.5691   47.4442 H   0  0  0  0  0  0  0  0  0  0  0  0
   60.9872   32.2462   47.9741 H   0  0  0  0  0  0  0  0  0  0  0  0
   59.5470   28.6710   47.5110 N   0  0  0  0  0  0  0  0  0  0  0  0
   59.2590   28.0900   46.3150 C   0  0  0  0  0  0  0  0  0  0  0  0
   59.8800   26.7660   45.9820 C   0  0  0  0  0  0  0  0  0  0  0  0
   60.1296   26.2339   46.9118 H   0  0  0  0  0  0  0  0  0  0  0  0
   59.1698   26.1652   45.3950 H   0  0  0  0  0  0  0  0  0  0  0  0
   60.7961   26.9279   45.3950 H   0  0  0  0  0  0  0  0  0  0  0  0
   58.3870   28.7420   45.4220 C   0  0  0  0  0  0  0  0  0  0  0  0
   58.0510   28.1660   44.1410 C   0  0  0  0  0  0  0  0  0  0  0  0
   57.7820   27.7040   43.1150 N   0  0  0  0  0  0  0  0  0  0  0  0
   59.4060   33.8820   45.3760 C   0  0  0  0  0  0  0  0  0  0  0  0
   59.5988   33.9146   44.2935 H   0  0  0  0  0  0  0  0  0  0  0  0
   60.4100   34.2600   46.2720 C   0  0  0  0  0  0  0  0  0  0  0  0
   61.3910   34.5841   45.8944 H   0  0  0  0  0  0  0  0  0  0  0  0
   60.1670   34.2260   47.6480 C   0  0  0  0  0  0  0  0  0  0  0  0
   61.1400   34.5940   48.5180 F   0  0  0  0  0  0  0  0  0  0  0  0
  1  2  1  0
  2  3  2  0
  3  4  1  0
  3  5  1  0
  5  6  1  0
  6  7  1  0
  6  8  1  0
  6  9  1  0
  9 10  1  0
  9 11  1  0
  9 12  1  0
 12 13  1  0
 13 14  1  0
 14 15  1  0
 15 16  2  0
 16 17  1  0
 17 18  1  1
 17 19  1  0
 19 20  1  0
 19 21  1  0
 19 22  1  0
 22 23  1  0
 22 24  1  0
 22 25  1  0
 25 26  1  1
 25 27  1  0
 27 28  1  0
 27 29  1  0
 29 30  1  0
 29 31  1  0
 29 32  1  0
 32 33  1  0
 32 34  1  0
 32 35  1  0
 35 36  1  0
 36 37  1  0
 36 38  1  0
 36 39  1  0
 39 40  1  0
 39 41  1  0
 25 42  1  0
 42 43  1  0
 42 44  1  0
 42 45  1  0
 45 46  1  0
 45 47  1  0
 15 48  1  0
 48 49  2  0
 49 50  1  0
 50 51  1  0
 50 52  1  0
 50 53  1  0
 49 54  1  0
 54 55  1  0
 55 56  3  0
  5 57  2  0
 57 58  1  0
 57 59  1  0
 59 60  1  0
 59 61  2  0
 61 62  1  0
 61  2  1  0
 54 13  2  0
 45 17  1  0
 39 27  1  0
M  CHG  2  14  -1  27   1
M  END
>  <UniqueID>  (57) 
56

>  <SMILES>  (57) 
Cc1n/c(=N/C2CCC([NH+]3CCOCC3)CC2)[n-]c(OCCc2ccc(F)cc2)c1C#N

>  <Energy>  (57) 
75.12368593950713

>  <Genealogy>  (57) 
Cc1nc(=NC2CCC([NH+]3CCOCC3)CC2)[n-]c(OCCc2ccc(F)cc2)c1C#N (protonated)
Cc1n/c(=N/C2CCC([NH+]3CCOCC3)CC2)[n-]c(OCCc2ccc(F)cc2)c1C#N (cis-trans isomerization)
Cc1n/c(=N/C2CCC([NH+]3CCOCC3)CC2)[n-]c(OCCc2ccc(F)cc2)c1C#N (3D coordinates assigned)
Cc1n/c(=N/C2CCC([NH+]3CCOCC3)CC2)[n-]c(OCCc2ccc(F)cc2)c1C#N (nonaromatic ring conformer: 75.12368593950713 kcal/mol)

>  <smiles>  (57) 
Cc1nc(=NC2CCC(N3CCOCC3)CC2)[nH]c(OCCc2ccc(F)cc2)c1C#N

>  <score_type>  (57) 
oracle

>  <origin>  (57) 
adg

>  <m_score__min__energy>  (57) 
-8.1899999999999995

>  <m_primary>  (57) 
energy

$$$$
57:0
     RDKit          3D

 51 54  0  0  0  0  0  0  0  0999 V2000
   56.6320   19.6060   43.3220 H   0  0  0  0  0  0  0  0  0  0  0  0
   56.2810   20.5040   43.0840 O   0  0  0  0  0  0  0  0  0  0  0  0
   57.3880   21.3600   43.0130 C   0  0  0  0  0  0  0  0  0  0  0  0
   57.5881   21.6098   41.9606 H   0  0  0  0  0  0  0  0  0  0  0  0
   58.2623   20.8556   43.4502 H   0  0  0  0  0  0  0  0  0  0  0  0
   57.1130   22.6240   43.7810 C   0  0  0  0  0  0  0  0  0  0  0  0
   58.1340   23.2420   44.5180 C   0  0  0  0  0  0  0  0  0  0  0  0
   59.1479   22.8155   44.5137 H   0  0  0  0  0  0  0  0  0  0  0  0
   57.8680   24.3980   45.2580 C   0  0  0  0  0  0  0  0  0  0  0  0
   58.6754   24.8773   45.8311 H   0  0  0  0  0  0  0  0  0  0  0  0
   56.5770   24.9520   45.2750 C   0  0  0  0  0  0  0  0  0  0  0  0
   56.3050   26.1760   46.0660 C   0  0  0  0  0  0  0  0  0  0  0  0
   55.1680   26.7150   45.9990 O   0  0  0  0  0  0  0  0  0  0  0  0
   57.3130   26.8030   46.8720 N   0  0  0  0  0  0  0  0  0  0  0  0
   58.1480   27.9030   46.4810 C   0  0  0  0  0  0  0  0  0  0  0  0
   58.7020   27.9890   45.1910 C   0  0  0  0  0  0  0  0  0  0  0  0
   58.4982   27.1994   44.4527 H   0  0  0  0  0  0  0  0  0  0  0  0
   59.5100   29.0740   44.8450 C   0  0  0  0  0  0  0  0  0  0  0  0
   59.9272   29.1452   43.8297 H   0  0  0  0  0  0  0  0  0  0  0  0
   59.7900   30.0690   45.7840 C   0  0  0  0  0  0  0  0  0  0  0  0
   60.4148   30.9290   45.5011 H   0  0  0  0  0  0  0  0  0  0  0  0
   59.2770   29.9760   47.0880 C   0  0  0  0  0  0  0  0  0  0  0  0
   59.5670   31.0360   48.0780 C   0  0  0  0  0  0  0  0  0  0  0  0
   59.8170   30.7390   49.4160 C   0  0  0  0  0  0  0  0  0  0  0  0
   59.7716   29.7390   49.8720 H   0  0  0  0  0  0  0  0  0  0  0  0
   60.1990   32.1640   50.2140 S   0  0  0  0  0  0  0  0  0  0  0  0
   60.0450   33.1830   48.8900 C   0  0  0  0  0  0  0  0  0  0  0  0
   60.2012   34.2718   48.8949 H   0  0  0  0  0  0  0  0  0  0  0  0
   59.6860   32.4170   47.7840 C   0  0  0  0  0  0  0  0  0  0  0  0
   59.3850   33.0340   46.4700 C   0  0  0  0  0  0  0  0  0  0  0  0
   60.3240   33.5110   45.7790 O   0  0  0  0  0  0  0  0  0  0  0  0
   58.0680   32.9880   45.9030 N   0  0  0  0  0  0  0  0  0  0  0  0
   57.6870   32.3530   44.8300 C   0  0  0  0  0  0  0  0  0  0  0  0
   56.8590   31.2810   44.9740 N   0  0  0  0  0  0  0  0  0  0  0  0
   56.4150   30.5520   43.9150 C   0  0  0  0  0  0  0  0  0  0  0  0
   55.5110   29.3810   44.1410 C   0  0  0  0  0  0  0  0  0  0  0  0
   55.3852   29.2181   45.2216 H   0  0  0  0  0  0  0  0  0  0  0  0
   54.5307   29.5809   43.6838 H   0  0  0  0  0  0  0  0  0  0  0  0
   55.9526   28.4833   43.6838 H   0  0  0  0  0  0  0  0  0  0  0  0
   56.8250   30.8880   42.6200 C   0  0  0  0  0  0  0  0  0  0  0  0
   56.4726   30.3048   41.7564 H   0  0  0  0  0  0  0  0  0  0  0  0
   57.6850   31.9700   42.4360 C   0  0  0  0  0  0  0  0  0  0  0  0
   58.0168   32.2429   41.4233 H   0  0  0  0  0  0  0  0  0  0  0  0
   58.1250   32.7070   43.5370 C   0  0  0  0  0  0  0  0  0  0  0  0
   58.8083   33.5576   43.3970 H   0  0  0  0  0  0  0  0  0  0  0  0
   58.4520   28.8900   47.4270 C   0  0  0  0  0  0  0  0  0  0  0  0
   58.0413   28.8145   48.4446 H   0  0  0  0  0  0  0  0  0  0  0  0
   55.5500   24.3110   44.5630 C   0  0  0  0  0  0  0  0  0  0  0  0
   54.5293   24.7204   44.5892 H   0  0  0  0  0  0  0  0  0  0  0  0
   55.8160   23.1560   43.8210 C   0  0  0  0  0  0  0  0  0  0  0  0
   55.0044   22.6625   43.2662 H   0  0  0  0  0  0  0  0  0  0  0  0
  1  2  1  0
  2  3  1  0
  3  4  1  0
  3  5  1  0
  3  6  1  0
  6  7  2  0
  7  8  1  0
  7  9  1  0
  9 10  1  0
  9 11  2  0
 11 12  1  0
 12 13  2  0
 12 14  1  0
 14 15  1  0
 15 16  2  0
 16 17  1  0
 16 18  1  0
 18 19  1  0
 18 20  2  0
 20 21  1  0
 20 22  1  0
 22 23  1  0
 23 24  2  0
 24 25  1  0
 24 26  1  0
 26 27  1  0
 27 28  1  0
 27 29  2  0
 29 30  1  0
 30 31  2  0
 30 32  1  0
 32 33  2  0
 33 34  1  0
 34 35  1  0
 35 36  1  0
 36 37  1  0
 36 38  1  0
 36 39  1  0
 35 40  2  0
 40 41  1  0
 40 42  1  0
 42 43  1  0
 42 44  2  0
 44 45  1  0
 22 46  2  0
 46 47  1  0
 11 48  1  0
 48 49  1  0
 48 50  2  0
 50 51  1  0
 50  6  1  0
 46 15  1  0
 29 23  1  0
 44 33  1  0
M  CHG  2  14  -1  34  -1
M  END
>  <UniqueID>  (58) 
57

>  <SMILES>  (58) 
Cc1ccc/c(=N\C(=O)c2cscc2-c2cccc([N-]C(=O)c3ccc(CO)cc3)c2)[n-]1

>  <Energy>  (58) 
102.51460375549121

>  <Genealogy>  (58) 
Cc1cccc(=NC(=O)c2cscc2-c2cccc([N-]C(=O)c3ccc(CO)cc3)c2)[n-]1 (protonated)
Cc1ccc/c(=N\C(=O)c2cscc2-c2cccc([N-]C(=O)c3ccc(CO)cc3)c2)[n-]1 (cis-trans isomerization)
Cc1ccc/c(=N\C(=O)c2cscc2-c2cccc([N-]C(=O)c3ccc(CO)cc3)c2)[n-]1 (3D coordinates assigned)
Cc1ccc/c(=N\C(=O)c2cscc2-c2cccc([N-]C(=O)c3ccc(CO)cc3)c2)[n-]1 (optimized conformer: 102.51460375549121 kcal/mol)

>  <smiles>  (58) 
Cc1cccc(=NC(=O)c2cscc2-c2cccc(NC(=O)c3ccc(CO)cc3)c2)[nH]1

>  <score_type>  (58) 
oracle

>  <origin>  (58) 
adg

>  <m_score__min__energy>  (58) 
-13.07

>  <m_primary>  (58) 
energy

$$$$
58:0
     RDKit          3D

 57 60  0  0  0  0  0  0  0  0999 V2000
   55.5870   24.0270   44.6180 C   0  0  0  0  0  0  0  0  0  0  0  0
   55.0740   25.0350   45.6000 C   0  0  0  0  0  0  0  0  0  0  0  0
   53.8390   25.2800   45.6340 O   0  0  0  0  0  0  0  0  0  0  0  0
   55.9610   25.8090   46.4230 N   0  0  0  0  0  0  0  0  0  0  0  0
   56.5770   26.9150   46.1090 C   0  0  0  0  0  0  0  0  0  0  0  0
   57.9010   27.1900   46.5090 C   0  0  0  0  0  0  0  0  0  0  0  0
   58.4940   28.3970   46.1390 C   0  0  0  0  0  0  0  0  0  0  0  0
   57.7800   29.3270   45.3660 C   0  0  0  0  0  0  0  0  0  0  0  0
   58.3390   30.5940   44.9810 N   0  0  0  0  0  0  0  0  0  0  0  0
   58.2610   31.7100   45.6460 C   0  0  0  0  0  0  0  0  0  0  0  0
   58.7150   31.7990   46.9270 N   0  0  0  0  0  0  0  0  0  0  0  0
   58.6630   32.9650   47.6280 C   0  0  0  0  0  0  0  0  0  0  0  0
   59.1660   32.9930   49.0260 C   0  0  0  0  0  0  0  0  0  0  0  0
   60.3710   33.6550   49.3200 C   0  0  0  0  0  0  0  0  0  0  0  0
   60.8570   33.6990   50.6270 C   0  0  0  0  0  0  0  0  0  0  0  0
   60.1440   33.0950   51.6640 C   0  0  0  0  0  0  0  0  0  0  0  0
   58.9270   32.4420   51.4020 C   0  0  0  0  0  0  0  0  0  0  0  0
   58.1660   31.7900   52.4930 C   0  0  0  0  0  0  0  0  0  0  0  0
   57.8080   32.4720   53.4920 O   0  0  0  0  0  0  0  0  0  0  0  0
   57.8360   30.3940   52.4300 N   0  0  0  0  0  0  0  0  0  0  0  0
   56.8340   29.7900   53.3050 C   0  0  0  0  0  0  0  0  0  0  0  0
   55.4610   30.2700   52.9210 C   0  0  0  0  0  0  0  0  0  0  0  0
   55.2220   30.8040   51.6450 C   0  0  0  0  0  0  0  0  0  0  0  0
   53.9340   31.2050   51.2800 C   0  0  0  0  0  0  0  0  0  0  0  0
   52.8700   31.0760   52.1840 C   0  0  0  0  0  0  0  0  0  0  0  0
   51.2410   31.5540   51.7170 S   0  0  0  0  0  0  0  0  0  0  0  0
   51.0460   33.2550   51.9560 N   0  0  0  0  0  0  0  0  0  0  0  0
   51.0130   31.2230   50.2680 O   0  0  0  0  0  0  0  0  0  0  0  0
   50.2300   30.8120   52.5480 O   0  0  0  0  0  0  0  0  0  0  0  0
   53.1050   30.5310   53.4540 C   0  0  0  0  0  0  0  0  0  0  0  0
   54.3930   30.1300   53.8200 C   0  0  0  0  0  0  0  0  0  0  0  0
   58.4470   32.3920   50.0790 C   0  0  0  0  0  0  0  0  0  0  0  0
   58.1180   34.1010   47.0090 C   0  0  0  0  0  0  0  0  0  0  0  0
   57.6720   33.9980   45.6930 C   0  0  0  0  0  0  0  0  0  0  0  0
   57.7550   32.8120   45.0370 N   0  0  0  0  0  0  0  0  0  0  0  0
   56.4520   29.0420   45.0390 C   0  0  0  0  0  0  0  0  0  0  0  0
   55.8930   27.8580   45.4080 N   0  0  0  0  0  0  0  0  0  0  0  0
   56.0210   23.1743   45.1607 H   0  0  0  0  0  0  0  0  0  0  0  0
   54.7579   23.6759   43.9861 H   0  0  0  0  0  0  0  0  0  0  0  0
   56.3588   24.4906   43.9861 H   0  0  0  0  0  0  0  0  0  0  0  0
   58.4620   26.4579   47.1084 H   0  0  0  0  0  0  0  0  0  0  0  0
   59.5240   28.6211   46.4536 H   0  0  0  0  0  0  0  0  0  0  0  0
   60.9359   34.1428   48.5119 H   0  0  0  0  0  0  0  0  0  0  0  0
   61.8062   34.2119   50.8413 H   0  0  0  0  0  0  0  0  0  0  0  0
   60.5363   33.1302   52.6911 H   0  0  0  0  0  0  0  0  0  0  0  0
   58.3300   29.7750   51.7490 H   0  0  0  0  0  0  0  0  0  0  0  0
   56.8778   28.6952   53.2080 H   0  0  0  0  0  0  0  0  0  0  0  0
   57.0406   30.0802   54.3457 H   0  0  0  0  0  0  0  0  0  0  0  0
   56.0514   30.9072   50.9299 H   0  0  0  0  0  0  0  0  0  0  0  0
   53.7541   31.6238   50.2789 H   0  0  0  0  0  0  0  0  0  0  0  0
   50.0210   33.4410   51.9990 H   0  0  0  0  0  0  0  0  0  0  0  0
   52.2731   30.4186   54.1648 H   0  0  0  0  0  0  0  0  0  0  0  0
   54.5702   29.7025   54.8179 H   0  0  0  0  0  0  0  0  0  0  0  0
   57.4988   31.8773   49.8646 H   0  0  0  0  0  0  0  0  0  0  0  0
   58.0444   35.0544   47.5526 H   0  0  0  0  0  0  0  0  0  0  0  0
   57.2521   34.8786   45.1848 H   0  0  0  0  0  0  0  0  0  0  0  0
   55.8556   29.7785   44.4805 H   0  0  0  0  0  0  0  0  0  0  0  0
  1  2  1  0
  2  3  2  0
  2  4  1  0
  4  5  2  3
  5  6  1  0
  6  7  2  0
  7  8  1  0
  8  9  1  0
  9 10  2  3
 10 11  1  0
 11 12  2  0
 12 13  1  0
 13 14  2  0
 14 15  1  0
 15 16  2  0
 16 17  1  0
 17 18  1  0
 18 19  2  0
 18 20  1  0
 20 21  1  0
 21 22  1  0
 22 23  2  0
 23 24  1  0
 24 25  2  0
 25 26  1  0
 26 27  1  0
 26 28  2  0
 26 29  2  0
 25 30  1  0
 30 31  2  0
 17 32  2  0
 12 33  1  0
 33 34  2  0
 34 35  1  0
  8 36  2  0
 36 37  1  0
 37  5  1  0
 35 10  1  0
 32 13  1  0
 31 22  1  0
  1 38  1  0
  1 39  1  0
  1 40  1  0
  6 41  1  0
  7 42  1  0
 14 43  1  0
 15 44  1  0
 16 45  1  0
 20 46  1  0
 21 47  1  0
 21 48  1  0
 23 49  1  0
 24 50  1  0
 27 51  1  0
 30 52  1  0
 31 53  1  0
 32 54  1  0
 33 55  1  0
 34 56  1  0
 36 57  1  0
M  CHG  3  27  -1  35  -1  37  -1
M  END
>  <UniqueID>  (59) 
58

>  <SMILES>  (59) 
CC(=O)N=c1ccc(N=c2nc(-c3cccc(C(=O)NCc4ccc(S([NH-])(=O)=O)cc4)c3)cc[n-]2)c[n-]1

>  <Energy>  (59) 
80.23913815860017

>  <Genealogy>  (59) 
CC(=O)N=c1ccc(N=c2nc(-c3cccc(C(=O)NCc4ccc(S([NH-])(=O)=O)cc4)c3)cc[n-]2)c[n-]1 (protonated)
CC(=O)N=c1ccc(N=c2nc(-c3cccc(C(=O)NCc4ccc(S([NH-])(=O)=O)cc4)c3)cc[n-]2)c[n-]1 (3D coordinates assigned)
CC(=O)N=c1ccc(N=c2nc(-c3cccc(C(=O)NCc4ccc(S([NH-])(=O)=O)cc4)c3)cc[n-]2)c[n-]1 (optimized conformer: 80.23913815860017 kcal/mol)

>  <smiles>  (59) 
CC(=O)N=c1ccc(N=c2nc(-c3cccc(C(=O)NCc4ccc(S(N)(=O)=O)cc4)c3)cc[nH]2)c[nH]1

>  <score_type>  (59) 
oracle

>  <origin>  (59) 
adg

>  <m_score__min__energy>  (59) 
-16.460000000000001

>  <m_primary>  (59) 
energy

$$$$
59:0
     RDKit          3D

 44 46  0  0  0  0  0  0  0  0999 V2000
   57.4420   32.2350   41.4760 C   0  0  0  0  0  0  0  0  0  0  0  0
   57.3950   31.7470   42.8900 C   0  0  0  0  0  0  0  0  0  0  0  0
   57.9770   32.4960   43.9160 C   0  0  0  0  0  0  0  0  0  0  0  0
   57.9070   32.0090   45.2290 C   0  0  0  0  0  0  0  0  0  0  0  0
   58.5000   32.7520   46.3670 C   0  0  0  0  0  0  0  0  0  0  0  0
   59.1750   33.9620   46.1350 C   0  0  0  0  0  0  0  0  0  0  0  0
   59.7290   34.6770   47.1980 C   0  0  0  0  0  0  0  0  0  0  0  0
   59.6110   34.1990   48.5030 C   0  0  0  0  0  0  0  0  0  0  0  0
   58.9310   32.9990   48.7660 C   0  0  0  0  0  0  0  0  0  0  0  0
   58.8250   32.5430   50.1280 N   0  0  0  0  0  0  0  0  0  0  0  0
   58.7540   30.8770   50.6110 S   0  0  0  0  0  0  0  0  0  0  0  0
   60.0110   30.5340   51.8250 C   0  0  0  0  0  0  0  0  0  0  0  0
   57.3910   30.5550   51.1580 O   0  0  0  0  0  0  0  0  0  0  0  0
   59.0050   30.0130   49.4070 O   0  0  0  0  0  0  0  0  0  0  0  0
   58.3780   32.2790   47.6880 C   0  0  0  0  0  0  0  0  0  0  0  0
   57.2650   30.8320   45.4620 N   0  0  0  0  0  0  0  0  0  0  0  0
   56.6960   30.1130   44.4560 C   0  0  0  0  0  0  0  0  0  0  0  0
   56.1020   28.9760   44.6790 N   0  0  0  0  0  0  0  0  0  0  0  0
   56.6040   27.7990   45.3380 C   0  0  0  0  0  0  0  0  0  0  0  0
   55.7740   27.0630   45.9350 O   0  0  0  0  0  0  0  0  0  0  0  0
   58.0720   27.4170   45.3280 C   0  0  0  0  0  0  0  0  0  0  0  0
   58.9320   28.3460   46.1850 C   0  0  0  0  0  0  0  0  0  0  0  0
   59.7140   28.7680   44.9500 C   0  0  0  0  0  0  0  0  0  0  0  0
   58.8640   27.8460   44.0880 C   0  0  0  0  0  0  0  0  0  0  0  0
   56.7700   30.5770   43.1820 N   0  0  0  0  0  0  0  0  0  0  0  0
   57.5475   33.3299   41.4693 H   0  0  0  0  0  0  0  0  0  0  0  0
   58.3006   31.7808   40.9597 H   0  0  0  0  0  0  0  0  0  0  0  0
   56.5125   31.9530   40.9597 H   0  0  0  0  0  0  0  0  0  0  0  0
   58.4804   33.4494   43.6978 H   0  0  0  0  0  0  0  0  0  0  0  0
   59.2675   34.3483   45.1092 H   0  0  0  0  0  0  0  0  0  0  0  0
   60.2605   35.6207   47.0059 H   0  0  0  0  0  0  0  0  0  0  0  0
   60.0547   34.7673   49.3337 H   0  0  0  0  0  0  0  0  0  0  0  0
   58.7440   33.2520   50.8900 H   0  0  0  0  0  0  0  0  0  0  0  0
   59.5878   30.6495   52.8337 H   0  0  0  0  0  0  0  0  0  0  0  0
   60.3744   29.5039   51.6956 H   0  0  0  0  0  0  0  0  0  0  0  0
   60.8473   31.2368   51.6956 H   0  0  0  0  0  0  0  0  0  0  0  0
   57.8447   31.3364   47.8806 H   0  0  0  0  0  0  0  0  0  0  0  0
   57.9671   26.3459   45.5554 H   0  0  0  0  0  0  0  0  0  0  0  0
   58.3712   29.1634   46.6617 H   0  0  0  0  0  0  0  0  0  0  0  0
   59.4580   27.9572   47.0694 H   0  0  0  0  0  0  0  0  0  0  0  0
   59.6139   29.8343   44.6991 H   0  0  0  0  0  0  0  0  0  0  0  0
   60.8109   28.6868   44.9339 H   0  0  0  0  0  0  0  0  0  0  0  0
   58.2625   28.3684   43.3295 H   0  0  0  0  0  0  0  0  0  0  0  0
   59.3391   27.0925   43.4426 H   0  0  0  0  0  0  0  0  0  0  0  0
  1  2  1  0
  2  3  1  0
  3  4  2  0
  4  5  1  0
  5  6  2  0
  6  7  1  0
  7  8  2  0
  8  9  1  0
  9 10  1  0
 10 11  1  0
 11 12  1  0
 11 13  2  0
 11 14  2  0
  9 15  2  0
  4 16  1  0
 16 17  1  0
 17 18  2  3
 18 19  1  0
 19 20  2  0
 19 21  1  0
 21 22  1  0
 22 23  1  0
 23 24  1  0
 17 25  1  0
 25  2  2  0
 15  5  1  0
 24 21  1  0
  1 26  1  0
  1 27  1  0
  1 28  1  0
  3 29  1  0
  6 30  1  0
  7 31  1  0
  8 32  1  0
 10 33  1  0
 12 34  1  0
 12 35  1  0
 12 36  1  0
 15 37  1  0
 21 38  1  0
 22 39  1  0
 22 40  1  0
 23 41  1  0
 23 42  1  0
 24 43  1  0
 24 44  1  0
M  CHG  1  16  -1
M  END
>  <UniqueID>  (60) 
59

>  <SMILES>  (60) 
Cc1cc(-c2cccc(NS(C)(=O)=O)c2)[n-]c(=NC(=O)C2CCC2)n1

>  <Energy>  (60) 
110.89175449192668

>  <Genealogy>  (60) 
Cc1cc(-c2cccc(NS(C)(=O)=O)c2)[n-]c(=NC(=O)C2CCC2)n1 (protonated)
Cc1cc(-c2cccc(NS(C)(=O)=O)c2)[n-]c(=NC(=O)C2CCC2)n1 (3D coordinates assigned)
Cc1cc(-c2cccc(NS(C)(=O)=O)c2)[n-]c(=NC(=O)C2CCC2)n1 (nonaromatic ring conformer: 110.89175449192668 kcal/mol)

>  <smiles>  (60) 
Cc1cc(-c2cccc(NS(C)(=O)=O)c2)[nH]c(=NC(=O)C2CCC2)n1

>  <score_type>  (60) 
oracle

>  <origin>  (60) 
adg

>  <m_score__min__energy>  (60) 
-10.94

>  <m_primary>  (60) 
energy

$$$$
60:0
     RDKit          3D

 57 60  0  0  0  0  0  0  0  0999 V2000
   57.2550   34.2900   44.4900 O   0  0  0  0  0  0  0  0  0  0  0  0
   57.3630   33.2750   45.2290 C   0  0  0  0  0  0  0  0  0  0  0  0
   56.6240   32.0930   44.8910 N   0  0  0  0  0  0  0  0  0  0  0  0
   57.0020   31.1160   43.8660 C   0  0  1  0  0  0  0  0  0  0  0  0
   58.4220   30.5630   44.1310 C   0  0  0  0  0  0  0  0  0  0  0  0
   58.3950   29.1260   44.6630 C   0  0  0  0  0  0  0  0  0  0  0  0
   57.2000   28.9310   45.6250 C   0  0  2  0  0  0  0  0  0  0  0  0
   57.1700   27.5010   46.1140 C   0  0  0  0  0  0  0  0  0  0  0  0
   56.0780   26.6680   45.8110 C   0  0  0  0  0  0  0  0  0  0  0  0
   56.0350   25.3560   46.2940 C   0  0  0  0  0  0  0  0  0  0  0  0
   57.0750   24.8680   47.0920 C   0  0  0  0  0  0  0  0  0  0  0  0
   57.0180   23.2220   47.6980 Cl  0  0  0  0  0  0  0  0  0  0  0  0
   58.1570   25.6950   47.4120 C   0  0  0  0  0  0  0  0  0  0  0  0
   58.2030   27.0060   46.9290 C   0  0  0  0  0  0  0  0  0  0  0  0
   55.9200   29.2720   45.0890 O   0  0  0  0  0  0  0  0  0  0  0  0
   55.9680   29.9790   43.8590 C   0  0  0  0  0  0  0  0  0  0  0  0
   58.2240   33.3450   46.4250 C   0  0  0  0  0  0  0  0  0  0  0  0
   58.9180   34.5220   46.7400 C   0  0  0  0  0  0  0  0  0  0  0  0
   59.7180   34.5860   47.8850 C   0  0  0  0  0  0  0  0  0  0  0  0
   59.8270   33.4760   48.7390 C   0  0  0  0  0  0  0  0  0  0  0  0
   60.6890   33.5540   49.9780 C   0  0  0  0  0  0  0  0  0  0  0  0
   62.0960   33.1690   49.7060 N   0  0  0  0  0  0  0  0  0  0  0  0
   62.8120   34.2050   48.9050 C   0  0  0  0  0  0  0  0  0  0  0  0
   62.8930   33.8400   47.4120 C   0  0  0  0  0  0  0  0  0  0  0  0
   63.5930   32.5610   47.1940 N   0  0  0  0  0  0  0  0  0  0  0  0
   63.4430   31.6020   48.3060 C   0  0  0  0  0  0  0  0  0  0  0  0
   62.1330   31.8240   49.0760 C   0  0  0  0  0  0  0  0  0  0  0  0
   59.1120   32.3050   48.4350 C   0  0  0  0  0  0  0  0  0  0  0  0
   58.3100   32.2440   47.2900 C   0  0  0  0  0  0  0  0  0  0  0  0
   57.0164   31.6058   42.8812 H   0  0  0  0  0  0  0  0  0  0  0  0
   58.9905   30.5813   43.1894 H   0  0  0  0  0  0  0  0  0  0  0  0
   58.8934   31.1971   44.8964 H   0  0  0  0  0  0  0  0  0  0  0  0
   58.2981   28.4283   43.8182 H   0  0  0  0  0  0  0  0  0  0  0  0
   59.3293   28.9296   45.2094 H   0  0  0  0  0  0  0  0  0  0  0  0
   57.3744   29.6405   46.4473 H   0  0  0  0  0  0  0  0  0  0  0  0
   55.2536   27.0502   45.1911 H   0  0  0  0  0  0  0  0  0  0  0  0
   55.1821   24.7071   46.0459 H   0  0  0  0  0  0  0  0  0  0  0  0
   58.9723   25.3133   48.0442 H   0  0  0  0  0  0  0  0  0  0  0  0
   59.0529   27.6544   47.1883 H   0  0  0  0  0  0  0  0  0  0  0  0
   56.2281   29.2722   43.0572 H   0  0  0  0  0  0  0  0  0  0  0  0
   54.9785   30.4319   43.6983 H   0  0  0  0  0  0  0  0  0  0  0  0
   58.8326   35.3999   46.0827 H   0  0  0  0  0  0  0  0  0  0  0  0
   60.2653   35.5112   48.1184 H   0  0  0  0  0  0  0  0  0  0  0  0
   60.6711   34.5862   50.3578 H   0  0  0  0  0  0  0  0  0  0  0  0
   60.2824   32.8486   50.7177 H   0  0  0  0  0  0  0  0  0  0  0  0
   62.5950   33.0820   50.6260 H   0  0  0  0  0  0  0  0  0  0  0  0
   62.2780   35.1613   49.0064 H   0  0  0  0  0  0  0  0  0  0  0  0
   63.8403   34.2747   49.2895 H   0  0  0  0  0  0  0  0  0  0  0  0
   61.8722   33.7593   47.0101 H   0  0  0  0  0  0  0  0  0  0  0  0
   63.4609   34.6302   46.8991 H   0  0  0  0  0  0  0  0  0  0  0  0
   64.6160   32.7580   47.0710 H   0  0  0  0  0  0  0  0  0  0  0  0
   63.4480   30.5803   47.8985 H   0  0  0  0  0  0  0  0  0  0  0  0
   64.2801   31.7528   49.0036 H   0  0  0  0  0  0  0  0  0  0  0  0
   61.2877   31.7323   48.3781 H   0  0  0  0  0  0  0  0  0  0  0  0
   62.0663   31.0671   49.8714 H   0  0  0  0  0  0  0  0  0  0  0  0
   59.1832   31.4320   49.1005 H   0  0  0  0  0  0  0  0  0  0  0  0
   57.7438   31.3276   47.0669 H   0  0  0  0  0  0  0  0  0  0  0  0
  1  2  2  0
  2  3  1  0
  3  4  1  0
  4  5  1  0
  5  6  1  0
  6  7  1  0
  7  8  1  0
  8  9  2  0
  9 10  1  0
 10 11  2  0
 11 12  1  0
 11 13  1  0
 13 14  2  0
  7 15  1  0
 15 16  1  0
  2 17  1  0
 17 18  2  0
 18 19  1  0
 19 20  2  0
 20 21  1  0
 21 22  1  0
 22 23  1  0
 23 24  1  0
 24 25  1  0
 25 26  1  0
 26 27  1  0
 20 28  1  0
 28 29  2  0
 16  4  1  0
 29 17  1  0
 14  8  1  0
 27 22  1  0
  4 30  1  6
  5 31  1  0
  5 32  1  0
  6 33  1  0
  6 34  1  0
  7 35  1  1
  9 36  1  0
 10 37  1  0
 13 38  1  0
 14 39  1  0
 16 40  1  0
 16 41  1  0
 18 42  1  0
 19 43  1  0
 21 44  1  0
 21 45  1  0
 22 46  1  0
 23 47  1  0
 23 48  1  0
 24 49  1  0
 24 50  1  0
 25 51  1  0
 26 52  1  0
 26 53  1  0
 27 54  1  0
 27 55  1  0
 28 56  1  0
 29 57  1  0
M  CHG  2   3  -1  22   1
M  END
>  <UniqueID>  (61) 
60

>  <SMILES>  (61) 
O=C([N-][C@H]1CC[C@H](c2ccc(Cl)cc2)OC1)c1ccc(C[NH+]2CCNCC2)cc1

>  <Energy>  (61) 
85.03559013809364

>  <Genealogy>  (61) 
O=C([N-]C1CCC(c2ccc(Cl)cc2)OC1)c1ccc(C[NH+]2CCNCC2)cc1 (protonated)
O=C([N-][C@H]1CC[C@H](c2ccc(Cl)cc2)OC1)c1ccc(C[NH+]2CCNCC2)cc1 (chirality)
O=C([N-][C@H]1CC[C@H](c2ccc(Cl)cc2)OC1)c1ccc(C[NH+]2CCNCC2)cc1 (3D coordinates assigned)
O=C([N-][C@H]1CC[C@H](c2ccc(Cl)cc2)OC1)c1ccc(C[NH+]2CCNCC2)cc1 (nonaromatic ring conformer: 85.03559013809364 kcal/mol)

>  <smiles>  (61) 
O=C(NC1CCC(c2ccc(Cl)cc2)OC1)c1ccc(CN2CCNCC2)cc1

>  <score_type>  (61) 
oracle

>  <origin>  (61) 
adg

>  <m_score__min__energy>  (61) 
-10.32

>  <m_primary>  (61) 
energy

$$$$
61:0
     RDKit          3D

 36 37  0  0  0  0  0  0  0  0999 V2000
   59.9587   25.7400   45.6784 H   0  0  0  0  0  0  0  0  0  0  0  0
   58.8770   25.9350   45.7220 C   0  0  0  0  0  0  0  0  0  0  0  0
   58.4040   27.2480   45.6250 C   0  0  0  0  0  0  0  0  0  0  0  0
   59.1147   28.0778   45.4972 H   0  0  0  0  0  0  0  0  0  0  0  0
   57.0250   27.5120   45.6900 C   0  0  0  0  0  0  0  0  0  0  0  0
   56.5050   28.8480   45.6160 N   0  0  0  0  0  0  0  0  0  0  0  0
   56.2360   29.5940   44.4230 C   0  0  0  0  0  0  0  0  0  0  0  0
   55.1220   30.1600   44.2530 O   0  0  0  0  0  0  0  0  0  0  0  0
   57.3250   29.7930   43.4180 C   0  0  0  0  0  0  0  0  0  0  0  0
   57.1324   29.1532   42.5442 H   0  0  0  0  0  0  0  0  0  0  0  0
   58.2874   29.5260   43.8789 H   0  0  0  0  0  0  0  0  0  0  0  0
   57.3800   31.2560   42.9690 C   0  0  0  0  0  0  0  0  0  0  0  0
   56.3900   31.5536   42.5931 H   0  0  0  0  0  0  0  0  0  0  0  0
   58.1389   31.3497   42.1783 H   0  0  0  0  0  0  0  0  0  0  0  0
   57.7700   32.1730   44.1250 C   0  0  0  0  0  0  0  0  0  0  0  0
   57.5563   31.6704   45.0799 H   0  0  0  0  0  0  0  0  0  0  0  0
   58.8439   32.4032   44.0642 H   0  0  0  0  0  0  0  0  0  0  0  0
   57.1909   33.1063   44.0642 H   0  0  0  0  0  0  0  0  0  0  0  0
   56.1350   26.4480   45.9000 C   0  0  0  0  0  0  0  0  0  0  0  0
   54.7710   26.6930   46.0180 O   0  0  0  0  0  0  0  0  0  0  0  0
   56.6100   25.1360   45.9940 C   0  0  0  0  0  0  0  0  0  0  0  0
   55.9042   24.3094   46.1627 H   0  0  0  0  0  0  0  0  0  0  0  0
   57.9850   24.8680   45.8740 C   0  0  0  0  0  0  0  0  0  0  0  0
   58.5180   23.5370   45.9990 N   0  0  0  0  0  0  0  0  0  0  0  0
   57.9060   22.4220   45.7210 C   0  0  0  0  0  0  0  0  0  0  0  0
   57.7420   21.4510   46.6620 N   0  0  0  0  0  0  0  0  0  0  0  0
   57.0870   20.2950   46.3780 C   0  0  0  0  0  0  0  0  0  0  0  0
   56.9190   19.2530   47.4370 C   0  0  0  0  0  0  0  0  0  0  0  0
   56.9947   19.7227   48.4288 H   0  0  0  0  0  0  0  0  0  0  0  0
   55.9326   18.7778   47.3307 H   0  0  0  0  0  0  0  0  0  0  0  0
   57.7060   18.4919   47.3307 H   0  0  0  0  0  0  0  0  0  0  0  0
   56.5500   20.1010   45.1020 C   0  0  0  0  0  0  0  0  0  0  0  0
   56.0104   19.1754   44.8527 H   0  0  0  0  0  0  0  0  0  0  0  0
   56.7150   21.1100   44.1520 C   0  0  0  0  0  0  0  0  0  0  0  0
   56.2440   20.9710   42.9920 O   0  0  0  0  0  0  0  0  0  0  0  0
   57.3840   22.2460   44.4790 N   0  0  0  0  0  0  0  0  0  0  0  0
  1  2  1  0
  2  3  2  0
  3  4  1  0
  3  5  1  0
  5  6  1  0
  6  7  1  0
  7  8  2  0
  7  9  1  0
  9 10  1  0
  9 11  1  0
  9 12  1  0
 12 13  1  0
 12 14  1  0
 12 15  1  0
 15 16  1  0
 15 17  1  0
 15 18  1  0
  5 19  2  0
 19 20  1  0
 19 21  1  0
 21 22  1  0
 21 23  2  0
 23 24  1  0
 24 25  2  0
 25 26  1  0
 26 27  1  0
 27 28  1  0
 28 29  1  0
 28 30  1  0
 28 31  1  0
 27 32  2  0
 32 33  1  0
 32 34  1  0
 34 35  2  0
 34 36  1  0
 23  2  1  0
 36 25  1  0
M  CHG  4   6  -1  20  -1  26  -1  36  -1
M  END
>  <UniqueID>  (62) 
61

>  <SMILES>  (62) 
CCCC(=O)[N-]c1ccc(/N=c2\[n-]c(C)cc(=O)[n-]2)cc1[O-]

>  <Energy>  (62) 
39.60078519166115

>  <Genealogy>  (62) 
CCCC(=O)[N-]c1ccc(N=c2[n-]c(C)cc(=O)[n-]2)cc1[O-] (protonated)
CCCC(=O)[N-]c1ccc(/N=c2\[n-]c(C)cc(=O)[n-]2)cc1[O-] (cis-trans isomerization)
CCCC(=O)[N-]c1ccc(/N=c2\[n-]c(C)cc(=O)[n-]2)cc1[O-] (3D coordinates assigned)
CCCC(=O)[N-]c1ccc(/N=c2\[n-]c(C)cc(=O)[n-]2)cc1[O-] (optimized conformer: 39.60078519166115 kcal/mol)

>  <smiles>  (62) 
CCCC(=O)Nc1ccc(N=c2[nH]c(C)cc(=O)[nH]2)cc1O

>  <score_type>  (62) 
oracle

>  <origin>  (62) 
adg

>  <m_score__min__energy>  (62) 
-15.140000000000001

>  <m_primary>  (62) 
energy

$$$$
62:0
     RDKit          3D

 48 51  0  0  0  0  0  0  0  0999 V2000
   57.7700   31.6850   46.6320 O   0  0  0  0  0  0  0  0  0  0  0  0
   57.5580   32.4580   45.6600 C   0  0  0  0  0  0  0  0  0  0  0  0
   58.3300   33.7440   45.5710 C   0  0  0  0  0  0  0  0  0  0  0  0
   59.3960   33.7720   46.6200 C   0  0  0  0  0  0  0  0  0  0  0  0
   59.0660   34.0030   47.9200 N   0  0  0  0  0  0  0  0  0  0  0  0
   60.0070   33.9960   48.9000 C   0  0  0  0  0  0  0  0  0  0  0  0
   59.6580   34.2220   50.0910 O   0  0  0  0  0  0  0  0  0  0  0  0
   61.3490   33.7340   48.5770 C   0  0  0  0  0  0  0  0  0  0  0  0
   62.3680   33.7050   49.5460 C   0  0  0  0  0  0  0  0  0  0  0  0
   63.6970   33.4370   49.1700 C   0  0  0  0  0  0  0  0  0  0  0  0
   64.7440   33.3980   50.1570 N   0  0  0  0  0  0  0  0  0  0  0  0
   65.7690   32.3530   50.1110 C   0  0  0  0  0  0  0  0  0  0  0  0
   67.0690   32.8820   50.7260 C   0  0  0  0  0  0  0  0  0  0  0  0
   66.8350   33.4190   52.0150 O   0  0  0  0  0  0  0  0  0  0  0  0
   65.9940   34.5540   51.9170 C   0  0  0  0  0  0  0  0  0  0  0  0
   64.6060   34.1590   51.4020 C   0  0  0  0  0  0  0  0  0  0  0  0
   63.9950   33.1920   47.8200 C   0  0  0  0  0  0  0  0  0  0  0  0
   62.9860   33.2180   46.8540 C   0  0  0  0  0  0  0  0  0  0  0  0
   61.6670   33.4890   47.2250 C   0  0  0  0  0  0  0  0  0  0  0  0
   60.6870   33.5110   46.2850 N   0  0  0  0  0  0  0  0  0  0  0  0
   56.6350   32.0490   44.6440 N   0  0  0  0  0  0  0  0  0  0  0  0
   56.8680   30.9660   43.6960 C   0  0  0  0  0  0  0  0  0  0  0  0
   57.4020   29.7690   44.4300 C   0  0  0  0  0  0  0  0  0  0  0  0
   58.7890   29.6130   44.5990 C   0  0  0  0  0  0  0  0  0  0  0  0
   59.2960   28.5180   45.3060 C   0  0  0  0  0  0  0  0  0  0  0  0
   58.4240   27.5780   45.8610 C   0  0  0  0  0  0  0  0  0  0  0  0
   57.0430   27.7320   45.7140 C   0  0  0  0  0  0  0  0  0  0  0  0
   56.5290   28.8250   45.0070 C   0  0  0  0  0  0  0  0  0  0  0  0
   55.1500   28.9700   44.8850 O   0  0  0  0  0  0  0  0  0  0  0  0
   58.7944   33.8225   44.5769 H   0  0  0  0  0  0  0  0  0  0  0  0
   57.6443   34.5895   45.7291 H   0  0  0  0  0  0  0  0  0  0  0  0
   62.1249   33.8926   50.6023 H   0  0  0  0  0  0  0  0  0  0  0  0
   65.4246   31.4769   50.6800 H   0  0  0  0  0  0  0  0  0  0  0  0
   65.9502   32.0643   49.0652 H   0  0  0  0  0  0  0  0  0  0  0  0
   67.7921   32.0568   50.8052 H   0  0  0  0  0  0  0  0  0  0  0  0
   67.4655   33.6788   50.0795 H   0  0  0  0  0  0  0  0  0  0  0  0
   65.8925   35.0146   52.9107 H   0  0  0  0  0  0  0  0  0  0  0  0
   66.4435   35.2662   51.2093 H   0  0  0  0  0  0  0  0  0  0  0  0
   64.0981   33.5395   52.1558 H   0  0  0  0  0  0  0  0  0  0  0  0
   64.0137   35.0664   51.2128 H   0  0  0  0  0  0  0  0  0  0  0  0
   65.0315   32.9778   47.5204 H   0  0  0  0  0  0  0  0  0  0  0  0
   63.2308   33.0247   45.7992 H   0  0  0  0  0  0  0  0  0  0  0  0
   55.9220   30.7014   43.2009 H   0  0  0  0  0  0  0  0  0  0  0  0
   57.5979   31.2897   42.9393 H   0  0  0  0  0  0  0  0  0  0  0  0
   59.4791   30.3561   44.1729 H   0  0  0  0  0  0  0  0  0  0  0  0
   60.3828   28.3967   45.4253 H   0  0  0  0  0  0  0  0  0  0  0  0
   58.8250   26.7159   46.4142 H   0  0  0  0  0  0  0  0  0  0  0  0
   56.3583   26.9925   46.1549 H   0  0  0  0  0  0  0  0  0  0  0  0
  1  2  2  0
  2  3  1  0
  3  4  1  0
  4  5  2  0
  5  6  1  0
  6  7  2  0
  6  8  1  0
  8  9  2  0
  9 10  1  0
 10 11  1  0
 11 12  1  0
 12 13  1  0
 13 14  1  0
 14 15  1  0
 15 16  1  0
 10 17  2  0
 17 18  1  0
 18 19  2  0
 19 20  1  0
  2 21  1  0
 21 22  1  0
 22 23  1  0
 23 24  2  0
 24 25  1  0
 25 26  2  0
 26 27  1  0
 27 28  2  0
 28 29  1  0
 20  4  1  0
 28 23  1  0
 19  8  1  0
 16 11  1  0
  3 30  1  0
  3 31  1  0
  9 32  1  0
 12 33  1  0
 12 34  1  0
 13 35  1  0
 13 36  1  0
 15 37  1  0
 15 38  1  0
 16 39  1  0
 16 40  1  0
 17 41  1  0
 18 42  1  0
 22 43  1  0
 22 44  1  0
 24 45  1  0
 25 46  1  0
 26 47  1  0
 27 48  1  0
M  CHG  3  20  -1  21  -1  29  -1
M  END
>  <UniqueID>  (63) 
62

>  <SMILES>  (63) 
O=C(Cc1nc(=O)c2cc(N3CCOCC3)ccc2[n-]1)[N-]Cc1ccccc1[O-]

>  <Energy>  (63) 
57.39601933874816

>  <Genealogy>  (63) 
O=C(Cc1nc(=O)c2cc(N3CCOCC3)ccc2[n-]1)[N-]Cc1ccccc1[O-] (protonated)
O=C(Cc1nc(=O)c2cc(N3CCOCC3)ccc2[n-]1)[N-]Cc1ccccc1[O-] (3D coordinates assigned)
O=C(Cc1nc(=O)c2cc(N3CCOCC3)ccc2[n-]1)[N-]Cc1ccccc1[O-] (nonaromatic ring conformer: 57.39601933874816 kcal/mol)

>  <smiles>  (63) 
O=C(Cc1nc(=O)c2cc(N3CCOCC3)ccc2[nH]1)NCc1ccccc1O

>  <score_type>  (63) 
oracle

>  <origin>  (63) 
adg

>  <m_score__min__energy>  (63) 
-15.119999999999999

>  <m_primary>  (63) 
energy

$$$$
63:0
     RDKit          3D

 43 45  0  0  0  0  0  0  0  0999 V2000
   54.9640   23.2770   44.9140 C   0  0  0  0  0  0  0  0  0  0  0  0
   55.5130   24.6150   45.2740 C   0  0  0  0  0  0  0  0  0  0  0  0
   54.7840   25.5950   45.8550 N   0  0  0  0  0  0  0  0  0  0  0  0
   55.4740   26.7170   46.0580 N   0  0  0  0  0  0  0  0  0  0  0  0
   56.7530   26.6390   45.6290 C   0  0  0  0  0  0  0  0  0  0  0  0
   57.5800   27.6360   45.7510 N   0  0  0  0  0  0  0  0  0  0  0  0
   57.2800   29.0380   45.6510 C   0  0  0  0  0  0  0  0  0  0  0  0
   56.2880   29.4530   44.9940 O   0  0  0  0  0  0  0  0  0  0  0  0
   58.1770   30.0290   46.3240 C   0  0  0  0  0  0  0  0  0  0  0  0
   57.9040   31.3840   45.8400 N   0  0  0  0  0  0  0  0  0  0  0  0
   58.7070   32.5240   46.1980 C   0  0  0  0  0  0  0  0  0  0  0  0
   58.1530   33.8150   46.3150 C   0  0  0  0  0  0  0  0  0  0  0  0
   58.9610   34.9010   46.6590 C   0  0  0  0  0  0  0  0  0  0  0  0
   60.3260   34.7180   46.8870 C   0  0  0  0  0  0  0  0  0  0  0  0
   60.8930   33.4400   46.7820 C   0  0  0  0  0  0  0  0  0  0  0  0
   62.6180   33.2050   47.0830 S   0  0  0  0  0  0  0  0  0  0  0  0
   63.4020   33.8650   45.9830 O   0  0  0  0  0  0  0  0  0  0  0  0
   62.9310   31.7360   47.0540 O   0  0  0  0  0  0  0  0  0  0  0  0
   63.1140   33.8670   48.6280 N   0  0  0  0  0  0  0  0  0  0  0  0
   64.2870   33.1620   49.1530 C   0  0  0  0  0  0  0  0  0  0  0  0
   63.8050   32.1100   50.1350 C   0  0  0  0  0  0  0  0  0  0  0  0
   62.4220   32.5630   50.5610 C   0  0  0  0  0  0  0  0  0  0  0  0
   62.0570   33.7200   49.6360 C   0  0  0  0  0  0  0  0  0  0  0  0
   60.0810   32.3490   46.4360 C   0  0  0  0  0  0  0  0  0  0  0  0
   57.0850   25.1260   44.9520 S   0  0  0  0  0  0  0  0  0  0  0  0
   54.7338   22.7161   45.8318 H   0  0  0  0  0  0  0  0  0  0  0  0
   54.0456   23.4046   44.3222 H   0  0  0  0  0  0  0  0  0  0  0  0
   55.7074   22.7228   44.3222 H   0  0  0  0  0  0  0  0  0  0  0  0
   58.0062   29.9919   47.4100 H   0  0  0  0  0  0  0  0  0  0  0  0
   59.2221   29.7744   46.0940 H   0  0  0  0  0  0  0  0  0  0  0  0
   57.0870   31.5370   45.2050 H   0  0  0  0  0  0  0  0  0  0  0  0
   57.0787   33.9678   46.1344 H   0  0  0  0  0  0  0  0  0  0  0  0
   58.5200   35.9046   46.7506 H   0  0  0  0  0  0  0  0  0  0  0  0
   60.9585   35.5788   47.1498 H   0  0  0  0  0  0  0  0  0  0  0  0
   64.8323   32.6800   48.3282 H   0  0  0  0  0  0  0  0  0  0  0  0
   64.9638   33.8695   49.6544 H   0  0  0  0  0  0  0  0  0  0  0  0
   63.7549   31.1242   49.6496 H   0  0  0  0  0  0  0  0  0  0  0  0
   64.4854   32.0083   50.9933 H   0  0  0  0  0  0  0  0  0  0  0  0
   61.6991   31.7414   50.4495 H   0  0  0  0  0  0  0  0  0  0  0  0
   62.4053   32.8699   51.6172 H   0  0  0  0  0  0  0  0  0  0  0  0
   61.0985   33.5089   49.1394 H   0  0  0  0  0  0  0  0  0  0  0  0
   61.9610   34.6490   50.2171 H   0  0  0  0  0  0  0  0  0  0  0  0
   60.5247   31.3461   46.3502 H   0  0  0  0  0  0  0  0  0  0  0  0
  1  2  1  0
  2  3  2  0
  3  4  1  0
  4  5  1  0
  5  6  2  3
  6  7  1  0
  7  8  2  0
  7  9  1  0
  9 10  1  0
 10 11  1  0
 11 12  2  0
 12 13  1  0
 13 14  2  0
 14 15  1  0
 15 16  1  0
 16 17  2  0
 16 18  2  0
 16 19  1  0
 19 20  1  0
 20 21  1  0
 21 22  1  0
 22 23  1  0
 15 24  2  0
  5 25  1  0
 25  2  1  0
 24 11  1  0
 23 19  1  0
  1 26  1  0
  1 27  1  0
  1 28  1  0
  9 29  1  0
  9 30  1  0
 10 31  1  0
 12 32  1  0
 13 33  1  0
 14 34  1  0
 20 35  1  0
 20 36  1  0
 21 37  1  0
 21 38  1  0
 22 39  1  0
 22 40  1  0
 23 41  1  0
 23 42  1  0
 24 43  1  0
M  CHG  1   4  -1
M  END
>  <UniqueID>  (64) 
63

>  <SMILES>  (64) 
Cc1n[n-]c(=NC(=O)CNc2cccc(S(=O)(=O)N3CCCC3)c2)s1

>  <Energy>  (64) 
78.77415192358315

>  <Genealogy>  (64) 
Cc1n[n-]c(=NC(=O)CNc2cccc(S(=O)(=O)N3CCCC3)c2)s1 (protonated)
Cc1n[n-]c(=NC(=O)CNc2cccc(S(=O)(=O)N3CCCC3)c2)s1 (3D coordinates assigned)
Cc1n[n-]c(=NC(=O)CNc2cccc(S(=O)(=O)N3CCCC3)c2)s1 (nonaromatic ring conformer: 78.77415192358315 kcal/mol)

>  <smiles>  (64) 
Cc1n[nH]c(=NC(=O)CNc2cccc(S(=O)(=O)N3CCCC3)c2)s1

>  <score_type>  (64) 
oracle

>  <origin>  (64) 
adg

>  <m_score__min__energy>  (64) 
-11.289999999999999

>  <m_primary>  (64) 
energy

$$$$
64:0
     RDKit          3D

 31 33  0  0  0  0  0  0  0  0999 V2000
   55.3220   23.5130   46.2430 C   0  0  0  0  0  0  0  0  0  0  0  0
   56.0450   24.4080   47.0820 O   0  0  0  0  0  0  0  0  0  0  0  0
   56.6290   25.6080   46.6460 C   0  0  0  0  0  0  0  0  0  0  0  0
   58.0080   25.8630   46.7750 C   0  0  0  0  0  0  0  0  0  0  0  0
   58.5560   27.0770   46.3260 C   0  0  0  0  0  0  0  0  0  0  0  0
   60.0350   27.3550   46.4860 C   0  0  1  0  0  0  0  0  0  0  0  0
   60.5810   27.8170   45.2020 N   0  0  0  0  0  0  0  0  0  0  0  0
   61.0600   29.0070   44.9900 C   0  0  0  0  0  0  0  0  0  0  0  0
   61.1330   29.9470   46.0190 O   0  0  0  0  0  0  0  0  0  0  0  0
   60.7740   29.6200   47.3250 C   0  0  0  0  0  0  0  0  0  0  0  0
   60.9400   30.5570   48.3500 C   0  0  0  0  0  0  0  0  0  0  0  0
   60.6060   30.2220   49.6670 C   0  0  0  0  0  0  0  0  0  0  0  0
   60.7720   31.1540   50.6840 O   0  0  0  0  0  0  0  0  0  0  0  0
   60.1070   28.9480   49.9590 C   0  0  0  0  0  0  0  0  0  0  0  0
   59.9350   28.0120   48.9350 C   0  0  0  0  0  0  0  0  0  0  0  0
   60.2620   28.3450   47.6100 C   0  0  0  0  0  0  0  0  0  0  0  0
   57.7100   28.0410   45.7530 C   0  0  0  0  0  0  0  0  0  0  0  0
   56.3420   27.7930   45.6210 C   0  0  0  0  0  0  0  0  0  0  0  0
   55.5180   28.7550   45.0500 O   0  0  0  0  0  0  0  0  0  0  0  0
   55.8030   26.5800   46.0650 C   0  0  0  0  0  0  0  0  0  0  0  0
   54.4390   26.3400   45.9310 O   0  0  0  0  0  0  0  0  0  0  0  0
   54.7518   22.8072   46.8649 H   0  0  0  0  0  0  0  0  0  0  0  0
   54.6292   24.0846   45.6080 H   0  0  0  0  0  0  0  0  0  0  0  0
   56.0265   22.9558   45.6080 H   0  0  0  0  0  0  0  0  0  0  0  0
   58.6621   25.1054   47.2312 H   0  0  0  0  0  0  0  0  0  0  0  0
   60.5699   26.4351   46.7645 H   0  0  0  0  0  0  0  0  0  0  0  0
   61.4132   29.2771   43.9839 H   0  0  0  0  0  0  0  0  0  0  0  0
   61.3335   31.5583   48.1207 H   0  0  0  0  0  0  0  0  0  0  0  0
   59.8498   28.6826   50.9951 H   0  0  0  0  0  0  0  0  0  0  0  0
   59.5422   27.0112   49.1676 H   0  0  0  0  0  0  0  0  0  0  0  0
   58.1278   28.9976   45.4060 H   0  0  0  0  0  0  0  0  0  0  0  0
  1  2  1  0
  2  3  1  0
  3  4  2  0
  4  5  1  0
  5  6  1  0
  6  7  1  0
  7  8  2  0
  8  9  1  0
  9 10  1  0
 10 11  2  0
 11 12  1  0
 12 13  1  0
 12 14  2  0
 14 15  1  0
 15 16  2  0
  5 17  2  0
 17 18  1  0
 18 19  1  0
 18 20  2  0
 20 21  1  0
 20  3  1  0
 16  6  1  0
 16 10  1  0
  1 22  1  0
  1 23  1  0
  1 24  1  0
  4 25  1  0
  6 26  1  1
  8 27  1  0
 11 28  1  0
 14 29  1  0
 15 30  1  0
 17 31  1  0
M  CHG  3  13  -1  19  -1  21  -1
M  END
>  <UniqueID>  (65) 
64

>  <SMILES>  (65) 
COc1cc([C@H]2N=COc3cc([O-])ccc32)cc([O-])c1[O-]

>  <Energy>  (65) 
37.241725192387875

>  <Genealogy>  (65) 
COc1cc(C2N=COc3cc([O-])ccc32)cc([O-])c1[O-] (protonated)
COc1cc([C@H]2N=COc3cc([O-])ccc32)cc([O-])c1[O-] (chirality)
COc1cc([C@H]2N=COc3cc([O-])ccc32)cc([O-])c1[O-] (3D coordinates assigned)
COc1cc([C@H]2N=COc3cc([O-])ccc32)cc([O-])c1[O-] (nonaromatic ring conformer: 37.241725192387875 kcal/mol)

>  <smiles>  (65) 
COc1cc(C2N=COc3cc(O)ccc32)cc(O)c1O

>  <score_type>  (65) 
oracle

>  <origin>  (65) 
adg

>  <m_score__min__energy>  (65) 
-15.31

>  <m_primary>  (65) 
energy

$$$$
65:0
     RDKit          3D

 57 59  0  0  1  0  0  0  0  0999 V2000
   63.4570   31.6600   47.4290 C   0  0  0  0  0  0  0  0  0  0  0  0
   63.8230   33.0120   48.0240 C   0  0  0  0  0  0  0  0  0  0  0  0
   62.5910   33.6250   48.5360 N   0  0  0  0  0  0  0  0  0  0  0  0
   61.5350   34.0010   47.6350 C   0  0  0  0  0  0  0  0  0  0  0  0
   61.7440   33.7720   46.4230 O   0  0  0  0  0  0  0  0  0  0  0  0
   60.3540   34.5900   48.1250 N   0  0  0  0  0  0  0  0  0  0  0  0
   59.2380   34.9990   47.2870 C   0  0  0  0  0  0  0  0  0  0  0  0
   58.6880   33.8620   46.5320 C   0  0  0  0  0  0  0  0  0  0  0  0
   58.7780   32.5470   46.8980 C   0  0  0  0  0  0  0  0  0  0  0  0
   58.2450   31.5030   46.1640 C   0  0  0  0  0  0  0  0  0  0  0  0
   57.5870   31.7950   44.9970 C   0  0  0  0  0  0  0  0  0  0  0  0
   56.8880   30.5180   44.0200 S   0  0  0  0  0  0  0  0  0  0  0  0
   55.5180   30.1480   44.5020 O   0  0  0  0  0  0  0  0  0  0  0  0
   56.6440   31.1370   42.6550 O   0  0  0  0  0  0  0  0  0  0  0  0
   57.9660   29.2990   43.8320 N   0  0  0  0  0  0  0  0  0  0  0  0
   57.9320   28.0810   44.5100 C   0  0  2  0  0  0  0  0  0  0  0  0
   59.0810   27.7440   45.3930 C   0  0  0  0  0  0  0  0  0  0  0  0
   58.5970   26.5700   46.2600 C   0  0  0  0  0  0  0  0  0  0  0  0
   58.1050   25.4610   45.4260 C   0  0  0  0  0  0  0  0  0  0  0  0
   57.9960   24.2160   46.0080 C   0  0  0  0  0  0  0  0  0  0  0  0
   57.5390   23.1130   45.2860 C   0  0  0  0  0  0  0  0  0  0  0  0
   57.4550   21.8440   45.9670 C   0  0  0  0  0  0  0  0  0  0  0  0
   57.5000   20.6640   45.2000 O   0  0  0  0  0  0  0  0  0  0  0  0
   57.3410   21.6650   47.2310 N   0  0  0  0  0  0  0  0  0  0  0  0
   57.5480   20.4770   47.8370 O   0  0  0  0  0  0  0  0  0  0  0  0
   57.2130   23.3500   43.9780 C   0  0  0  0  0  0  0  0  0  0  0  0
   57.3230   24.6140   43.3840 C   0  0  0  0  0  0  0  0  0  0  0  0
   57.7830   25.7030   44.1300 C   0  0  0  0  0  0  0  0  0  0  0  0
   57.8740   27.0040   43.4400 C   0  0  0  0  0  0  0  0  0  0  0  0
   57.4800   33.1320   44.5970 C   0  0  0  0  0  0  0  0  0  0  0  0
   58.0180   34.1550   45.3430 C   0  0  0  0  0  0  0  0  0  0  0  0
   63.2629   30.9429   48.2402 H   0  0  0  0  0  0  0  0  0  0  0  0
   62.5549   31.7646   46.8084 H   0  0  0  0  0  0  0  0  0  0  0  0
   64.2887   31.2953   46.8084 H   0  0  0  0  0  0  0  0  0  0  0  0
   64.5430   32.8772   48.8446 H   0  0  0  0  0  0  0  0  0  0  0  0
   64.2841   33.6558   47.2605 H   0  0  0  0  0  0  0  0  0  0  0  0
   62.4580   33.7970   49.5540 H   0  0  0  0  0  0  0  0  0  0  0  0
   60.3040   34.7310   49.1740 H   0  0  0  0  0  0  0  0  0  0  0  0
   58.4474   35.4209   47.9249 H   0  0  0  0  0  0  0  0  0  0  0  0
   59.6014   35.7482   46.5683 H   0  0  0  0  0  0  0  0  0  0  0  0
   59.3060   32.3054   47.8322 H   0  0  0  0  0  0  0  0  0  0  0  0
   58.3465   30.4632   46.5082 H   0  0  0  0  0  0  0  0  0  0  0  0
   58.4990   29.2060   42.9540 H   0  0  0  0  0  0  0  0  0  0  0  0
   57.0694   28.1514   45.1889 H   0  0  0  0  0  0  0  0  0  0  0  0
   59.9533   27.4456   44.7930 H   0  0  0  0  0  0  0  0  0  0  0  0
   59.3936   28.6033   46.0045 H   0  0  0  0  0  0  0  0  0  0  0  0
   59.4335   26.2110   46.8776 H   0  0  0  0  0  0  0  0  0  0  0  0
   57.7705   26.9225   46.8945 H   0  0  0  0  0  0  0  0  0  0  0  0
   58.2753   24.0895   47.0644 H   0  0  0  0  0  0  0  0  0  0  0  0
   58.1750   19.9430   45.4750 H   0  0  0  0  0  0  0  0  0  0  0  0
   57.6050   19.6110   47.3030 H   0  0  0  0  0  0  0  0  0  0  0  0
   56.8487   22.5114   43.3665 H   0  0  0  0  0  0  0  0  0  0  0  0
   57.0467   24.7499   42.3280 H   0  0  0  0  0  0  0  0  0  0  0  0
   58.7828   27.0390   42.8213 H   0  0  0  0  0  0  0  0  0  0  0  0
   57.0064   27.1565   42.7812 H   0  0  0  0  0  0  0  0  0  0  0  0
   56.9521   33.3709   43.6620 H   0  0  0  0  0  0  0  0  0  0  0  0
   57.9208   35.1972   45.0047 H   0  0  0  0  0  0  0  0  0  0  0  0
  1  2  1  0
  2  3  1  0
  3  4  1  0
  4  5  2  0
  4  6  1  0
  6  7  1  0
  7  8  1  0
  8  9  2  0
  9 10  1  0
 10 11  2  0
 11 12  1  0
 12 13  2  0
 12 14  2  0
 12 15  1  0
 15 16  1  0
 16 17  1  0
 17 18  1  0
 18 19  1  0
 19 20  2  0
 20 21  1  0
 21 22  1  0
 22 23  1  0
 22 24  2  0
 24 25  1  0
 21 26  2  0
 26 27  1  0
 27 28  2  0
 28 29  1  0
 11 30  1  0
 30 31  2  0
 31  8  1  0
 29 16  1  0
 28 19  1  0
  1 32  1  0
  1 33  1  0
  1 34  1  0
  2 35  1  0
  2 36  1  0
  3 37  1  0
  6 38  1  0
  7 39  1  0
  7 40  1  0
  9 41  1  0
 10 42  1  0
 15 43  1  0
 16 44  1  1
 17 45  1  0
 17 46  1  0
 18 47  1  0
 18 48  1  0
 20 49  1  0
 23 50  1  0
 25 51  1  0
 26 52  1  0
 27 53  1  0
 29 54  1  0
 29 55  1  0
 30 56  1  0
 31 57  1  0
M  END
>  <smiles>  (66) 
CCNC(=O)NCc1ccc(S(=O)(=O)NC2CCc3cc(C(O)=NO)ccc3C2)cc1

>  <score_type>  (66) 
oracle

>  <origin>  (66) 
adg

>  <m_score__min__energy>  (66) 
-10.52

>  <m_primary>  (66) 
energy

$$$$
66:0
     RDKit          3D

 46 48  0  0  0  0  0  0  0  0999 V2000
   57.8240   21.4210   45.0220 N   0  0  0  0  0  0  0  0  0  0  0  0
   56.8390   22.3110   44.4890 C   0  0  0  0  0  0  0  0  0  0  0  0
   55.9660   21.8510   43.7030 O   0  0  0  0  0  0  0  0  0  0  0  0
   56.8130   23.7490   44.8550 C   0  0  0  0  0  0  0  0  0  0  0  0
   58.0020   24.4960   44.8370 C   0  0  0  0  0  0  0  0  0  0  0  0
   57.9970   25.8490   45.1900 C   0  0  0  0  0  0  0  0  0  0  0  0
   56.8030   26.4760   45.5860 C   0  0  0  0  0  0  0  0  0  0  0  0
   56.7670   27.8540   45.9890 N   0  0  0  0  0  0  0  0  0  0  0  0
   56.6860   29.2050   44.9040 S   0  0  0  0  0  0  0  0  0  0  0  0
   55.2940   29.7730   44.9270 O   0  0  0  0  0  0  0  0  0  0  0  0
   57.0040   28.7420   43.5100 O   0  0  0  0  0  0  0  0  0  0  0  0
   57.8170   30.4470   45.4300 C   0  0  0  0  0  0  0  0  0  0  0  0
   57.6230   31.7730   45.0250 C   0  0  0  0  0  0  0  0  0  0  0  0
   58.4660   32.7840   45.4950 C   0  0  0  0  0  0  0  0  0  0  0  0
   59.5160   32.4750   46.3730 C   0  0  0  0  0  0  0  0  0  0  0  0
   60.3730   33.5810   46.9360 C   0  0  0  0  0  0  0  0  0  0  0  0
   61.5820   33.0310   47.5860 N   0  0  0  0  0  0  0  0  0  0  0  0
   61.5700   33.2660   49.0520 C   0  0  0  0  0  0  0  0  0  0  0  0
   62.6420   34.2780   49.4940 C   0  0  0  0  0  0  0  0  0  0  0  0
   63.9530   33.8810   49.1300 O   0  0  0  0  0  0  0  0  0  0  0  0
   64.0360   33.2810   47.8430 C   0  0  0  0  0  0  0  0  0  0  0  0
   62.8170   33.5270   46.9400 C   0  0  0  0  0  0  0  0  0  0  0  0
   59.7180   31.1430   46.7660 C   0  0  0  0  0  0  0  0  0  0  0  0
   58.8740   30.1340   46.2940 C   0  0  0  0  0  0  0  0  0  0  0  0
   55.6160   25.7340   45.6060 C   0  0  0  0  0  0  0  0  0  0  0  0
   54.4230   26.3330   45.9960 O   0  0  0  0  0  0  0  0  0  0  0  0
   55.6190   24.3810   45.2450 C   0  0  0  0  0  0  0  0  0  0  0  0
   57.8510   20.4260   44.7050 H   0  0  0  0  0  0  0  0  0  0  0  0
   58.4730   21.7120   45.7850 H   0  0  0  0  0  0  0  0  0  0  0  0
   58.9453   24.0127   44.5427 H   0  0  0  0  0  0  0  0  0  0  0  0
   58.9329   26.4260   45.1576 H   0  0  0  0  0  0  0  0  0  0  0  0
   56.8037   32.0203   44.3340 H   0  0  0  0  0  0  0  0  0  0  0  0
   58.3059   33.8244   45.1758 H   0  0  0  0  0  0  0  0  0  0  0  0
   60.6767   34.2527   46.1196 H   0  0  0  0  0  0  0  0  0  0  0  0
   59.7884   34.1313   47.6880 H   0  0  0  0  0  0  0  0  0  0  0  0
   60.5807   33.6514   49.3397 H   0  0  0  0  0  0  0  0  0  0  0  0
   61.7895   32.3082   49.5465 H   0  0  0  0  0  0  0  0  0  0  0  0
   62.4249   35.2484   49.0236 H   0  0  0  0  0  0  0  0  0  0  0  0
   62.6068   34.3407   50.5916 H   0  0  0  0  0  0  0  0  0  0  0  0
   64.9254   33.6819   47.3348 H   0  0  0  0  0  0  0  0  0  0  0  0
   64.0854   32.1947   48.0092 H   0  0  0  0  0  0  0  0  0  0  0  0
   62.7183   34.6063   46.7520 H   0  0  0  0  0  0  0  0  0  0  0  0
   62.9629   32.9876   45.9925 H   0  0  0  0  0  0  0  0  0  0  0  0
   60.5437   30.8922   47.4481 H   0  0  0  0  0  0  0  0  0  0  0  0
   59.0403   29.0911   46.6019 H   0  0  0  0  0  0  0  0  0  0  0  0
   54.6801   23.8082   45.2667 H   0  0  0  0  0  0  0  0  0  0  0  0
  1  2  1  0
  2  3  2  0
  2  4  1  0
  4  5  2  0
  5  6  1  0
  6  7  2  0
  7  8  1  0
  8  9  1  0
  9 10  2  0
  9 11  2  0
  9 12  1  0
 12 13  2  0
 13 14  1  0
 14 15  2  0
 15 16  1  0
 16 17  1  0
 17 18  1  0
 18 19  1  0
 19 20  1  0
 20 21  1  0
 21 22  1  0
 15 23  1  0
 23 24  2  0
  7 25  1  0
 25 26  1  0
 25 27  2  0
 27  4  1  0
 24 12  1  0
 22 17  1  0
  1 28  1  0
  1 29  1  0
  5 30  1  0
  6 31  1  0
 13 32  1  0
 14 33  1  0
 16 34  1  0
 16 35  1  0
 18 36  1  0
 18 37  1  0
 19 38  1  0
 19 39  1  0
 21 40  1  0
 21 41  1  0
 22 42  1  0
 22 43  1  0
 23 44  1  0
 24 45  1  0
 27 46  1  0
M  CHG  2   8  -1  26  -1
M  END
>  <UniqueID>  (67) 
65

>  <SMILES>  (67) 
NC(=O)c1ccc([N-]S(=O)(=O)c2ccc(CN3CCOCC3)cc2)c([O-])c1

>  <Energy>  (67) 
65.95981274778666

>  <Genealogy>  (67) 
NC(=O)c1ccc([N-]S(=O)(=O)c2ccc(CN3CCOCC3)cc2)c([O-])c1 (protonated)
NC(=O)c1ccc([N-]S(=O)(=O)c2ccc(CN3CCOCC3)cc2)c([O-])c1 (3D coordinates assigned)
NC(=O)c1ccc([N-]S(=O)(=O)c2ccc(CN3CCOCC3)cc2)c([O-])c1 (nonaromatic ring conformer: 65.95981274778666 kcal/mol)

>  <smiles>  (67) 
NC(=O)c1ccc(NS(=O)(=O)c2ccc(CN3CCOCC3)cc2)c(O)c1

>  <score_type>  (67) 
oracle

>  <origin>  (67) 
adg

>  <m_score__min__energy>  (67) 
-14.75

>  <m_primary>  (67) 
energy

$$$$
67:0
     RDKit          3D

 54 57  0  0  0  0  0  0  0  0999 V2000
   59.3390   27.7360   46.7420 C   0  0  0  0  0  0  0  0  0  0  0  0
   58.6540   28.3470   45.7620 C   0  0  0  0  0  0  0  0  0  0  0  0
   57.9250   27.7390   44.7260 C   0  0  0  0  0  0  0  0  0  0  0  0
   57.5710   26.4540   44.5270 C   0  0  0  0  0  0  0  0  0  0  0  0
   57.0300   25.5440   45.5490 C   0  0  0  0  0  0  0  0  0  0  0  0
   57.7040   24.5110   46.0880 N   0  0  0  0  0  0  0  0  0  0  0  0
   56.8750   24.0730   47.0610 C   0  0  0  0  0  0  0  0  0  0  0  0
   57.1530   23.0890   47.7940 O   0  0  0  0  0  0  0  0  0  0  0  0
   55.7340   24.7810   47.1950 N   0  0  0  0  0  0  0  0  0  0  0  0
   55.8550   25.7160   46.2400 C   0  0  0  0  0  0  0  0  0  0  0  0
   54.9150   26.7120   46.0070 O   0  0  0  0  0  0  0  0  0  0  0  0
   57.5590   28.7570   43.8610 C   0  0  0  0  0  0  0  0  0  0  0  0
   58.0150   29.9360   44.4120 C   0  0  0  0  0  0  0  0  0  0  0  0
   57.8030   31.2950   43.8190 C   0  0  0  0  0  0  0  0  0  0  0  0
   58.6680   29.6920   45.5690 N   0  0  0  0  0  0  0  0  0  0  0  0
   59.3240   30.6850   46.3760 C   0  0  0  0  0  0  0  0  0  0  0  0
   60.7230   30.7730   46.3920 C   0  0  0  0  0  0  0  0  0  0  0  0
   61.3580   31.7550   47.1580 C   0  0  0  0  0  0  0  0  0  0  0  0
   60.6030   32.6740   47.9030 C   0  0  0  0  0  0  0  0  0  0  0  0
   61.2680   33.7160   48.7190 C   0  0  0  0  0  0  0  0  0  0  0  0
   60.8080   34.8900   48.7020 O   0  0  0  0  0  0  0  0  0  0  0  0
   62.4240   33.4210   49.5280 N   0  0  0  0  0  0  0  0  0  0  0  0
   62.6730   34.2200   50.7360 C   0  0  0  0  0  0  0  0  0  0  0  0
   63.6640   33.5090   51.6660 C   0  0  0  0  0  0  0  0  0  0  0  0
   65.0010   33.1570   50.9600 C   0  0  0  0  0  0  0  0  0  0  0  0
   66.0910   34.2070   51.2460 C   0  0  0  0  0  0  0  0  0  0  0  0
   65.5700   35.2560   52.0220 O   0  0  0  0  0  0  0  0  0  0  0  0
   64.8380   32.9590   49.4310 C   0  0  0  0  0  0  0  0  0  0  0  0
   63.4390   32.4610   49.0640 C   0  0  0  0  0  0  0  0  0  0  0  0
   59.2010   32.5750   47.8940 C   0  0  0  0  0  0  0  0  0  0  0  0
   58.5670   31.5910   47.1300 C   0  0  0  0  0  0  0  0  0  0  0  0
   59.8707   28.3340   47.4968 H   0  0  0  0  0  0  0  0  0  0  0  0
   59.3685   26.6374   46.7901 H   0  0  0  0  0  0  0  0  0  0  0  0
   57.6975   26.0500   43.5117 H   0  0  0  0  0  0  0  0  0  0  0  0
   57.0093   28.6461   42.9147 H   0  0  0  0  0  0  0  0  0  0  0  0
   57.6878   32.0334   44.6262 H   0  0  0  0  0  0  0  0  0  0  0  0
   58.6702   31.5633   43.1977 H   0  0  0  0  0  0  0  0  0  0  0  0
   56.8953   31.2864   43.1977 H   0  0  0  0  0  0  0  0  0  0  0  0
   61.3233   30.0668   45.7996 H   0  0  0  0  0  0  0  0  0  0  0  0
   62.4566   31.8077   47.1769 H   0  0  0  0  0  0  0  0  0  0  0  0
   63.0893   35.1953   50.4436 H   0  0  0  0  0  0  0  0  0  0  0  0
   61.7217   34.3542   51.2717 H   0  0  0  0  0  0  0  0  0  0  0  0
   63.8798   34.1677   52.5201 H   0  0  0  0  0  0  0  0  0  0  0  0
   63.1994   32.5652   51.9875 H   0  0  0  0  0  0  0  0  0  0  0  0
   65.3200   32.1944   51.3863 H   0  0  0  0  0  0  0  0  0  0  0  0
   66.9193   33.7303   51.7906 H   0  0  0  0  0  0  0  0  0  0  0  0
   66.4519   34.6156   50.2906 H   0  0  0  0  0  0  0  0  0  0  0  0
   65.7180   35.0220   52.9740 H   0  0  0  0  0  0  0  0  0  0  0  0
   65.0162   33.9205   48.9273 H   0  0  0  0  0  0  0  0  0  0  0  0
   65.5650   32.1996   49.1072 H   0  0  0  0  0  0  0  0  0  0  0  0
   63.3658   32.3532   47.9717 H   0  0  0  0  0  0  0  0  0  0  0  0
   63.2638   31.4888   49.5479 H   0  0  0  0  0  0  0  0  0  0  0  0
   58.5993   33.2757   48.4915 H   0  0  0  0  0  0  0  0  0  0  0  0
   57.4689   31.5278   47.1208 H   0  0  0  0  0  0  0  0  0  0  0  0
  1  2  2  0
  2  3  1  0
  3  4  2  3
  4  5  1  0
  5  6  1  0
  6  7  1  0
  7  8  2  0
  7  9  1  0
  9 10  1  0
 10 11  1  0
  3 12  1  0
 12 13  2  0
 13 14  1  0
 13 15  1  0
 15 16  1  0
 16 17  2  0
 17 18  1  0
 18 19  2  0
 19 20  1  0
 20 21  2  0
 20 22  1  0
 22 23  1  0
 23 24  1  0
 24 25  1  0
 25 26  1  0
 26 27  1  0
 25 28  1  0
 28 29  1  0
 19 30  1  0
 30 31  2  0
 15  2  1  0
 31 16  1  0
 10  5  2  0
 29 22  1  0
  1 32  1  0
  1 33  1  0
  4 34  1  0
 12 35  1  0
 14 36  1  0
 14 37  1  0
 14 38  1  0
 17 39  1  0
 18 40  1  0
 23 41  1  0
 23 42  1  0
 24 43  1  0
 24 44  1  0
 25 45  1  0
 26 46  1  0
 26 47  1  0
 27 48  1  0
 28 49  1  0
 28 50  1  0
 29 51  1  0
 29 52  1  0
 30 53  1  0
 31 54  1  0
M  CHG  3   6  -1   9  -1  11  -1
M  END
>  <UniqueID>  (68) 
66

>  <SMILES>  (68) 
C=c1c(=Cc2[n-]c(=O)[n-]c2[O-])cc(C)n1-c1ccc(C(=O)N2CCC(CO)CC2)cc1

>  <Energy>  (68) 
137.95725154109542

>  <Genealogy>  (68) 
C=c1c(=Cc2[n-]c(=O)[n-]c2[O-])cc(C)n1-c1ccc(C(=O)N2CCC(CO)CC2)cc1 (protonated)
C=c1c(=Cc2[n-]c(=O)[n-]c2[O-])cc(C)n1-c1ccc(C(=O)N2CCC(CO)CC2)cc1 (3D coordinates assigned)
C=c1c(=Cc2[n-]c(=O)[n-]c2[O-])cc(C)n1-c1ccc(C(=O)N2CCC(CO)CC2)cc1 (nonaromatic ring conformer: 137.95725154109542 kcal/mol)

>  <smiles>  (68) 
C=c1c(=Cc2[nH]c(=O)[nH]c2O)cc(C)n1-c1ccc(C(=O)N2CCC(CO)CC2)cc1

>  <score_type>  (68) 
oracle

>  <origin>  (68) 
adg

>  <m_score__min__energy>  (68) 
-15.5

>  <m_primary>  (68) 
energy

$$$$
68:0
     RDKit          3D

 68 72  0  0  0  0  0  0  0  0999 V2000
   66.5505   36.3604   52.5092 H   0  0  0  0  0  0  0  0  0  0  0  0
   66.8830   35.4420   53.0150 C   0  0  0  0  0  0  0  0  0  0  0  0
   67.3881   35.5033   53.9903 H   0  0  0  0  0  0  0  0  0  0  0  0
   66.6720   34.2440   52.4410 C   0  0  0  0  0  0  0  0  0  0  0  0
   67.1410   32.9950   53.1610 C   0  0  0  0  0  0  0  0  0  0  0  0
   68.1665   33.1607   53.5229 H   0  0  0  0  0  0  0  0  0  0  0  0
   66.4442   32.8066   53.9910 H   0  0  0  0  0  0  0  0  0  0  0  0
   67.1330   31.7560   52.2560 C   0  0  0  0  0  0  0  0  0  0  0  0
   67.8056   30.9948   52.6781 H   0  0  0  0  0  0  0  0  0  0  0  0
   66.1069   31.3640   52.1976 H   0  0  0  0  0  0  0  0  0  0  0  0
   67.6050   32.1200   50.8480 C   0  0  0  0  0  0  0  0  0  0  0  0
   68.5850   32.6152   50.9151 H   0  0  0  0  0  0  0  0  0  0  0  0
   67.6766   31.1961   50.2553 H   0  0  0  0  0  0  0  0  0  0  0  0
   66.6100   33.0680   50.1540 C   0  0  0  0  0  0  0  0  0  0  0  0
   67.1378   33.5787   49.3351 H   0  0  0  0  0  0  0  0  0  0  0  0
   65.7750   32.4415   49.8072 H   0  0  0  0  0  0  0  0  0  0  0  0
   65.9880   34.1550   51.0830 C   0  0  1  0  0  0  0  0  0  0  0  0
   66.1506   35.1164   50.5738 H   0  0  0  0  0  0  0  0  0  0  0  0
   64.5030   33.9290   51.2670 C   0  0  0  0  0  0  0  0  0  0  0  0
   63.7210   34.9120   51.3710 O   0  0  0  0  0  0  0  0  0  0  0  0
   63.9720   32.6000   51.3560 N   0  0  0  0  0  0  0  0  0  0  0  0
   64.1530   31.6550   50.2490 C   0  0  0  0  0  0  0  0  0  0  0  0
   64.3996   32.2132   49.3338 H   0  0  0  0  0  0  0  0  0  0  0  0
   64.9688   30.9624   50.5037 H   0  0  0  0  0  0  0  0  0  0  0  0
   62.8680   30.8430   50.0150 C   0  0  0  0  0  0  0  0  0  0  0  0
   62.1578   31.4598   49.4447 H   0  0  0  0  0  0  0  0  0  0  0  0
   63.1396   29.9317   49.4620 H   0  0  0  0  0  0  0  0  0  0  0  0
   62.2320   30.4330   51.2800 N   0  0  0  0  0  0  0  0  0  0  0  0
   60.8440   30.0340   51.2860 C   0  0  0  0  0  0  0  0  0  0  0  0
   60.1160   30.3180   52.2760 O   0  0  0  0  0  0  0  0  0  0  0  0
   60.2340   29.3420   50.1320 C   0  0  0  0  0  0  0  0  0  0  0  0
   60.7650   28.1280   49.6620 C   0  0  0  0  0  0  0  0  0  0  0  0
   61.6202   27.6678   50.1785 H   0  0  0  0  0  0  0  0  0  0  0  0
   60.2110   27.5040   48.5420 C   0  0  0  0  0  0  0  0  0  0  0  0
   60.6402   26.5610   48.1726 H   0  0  0  0  0  0  0  0  0  0  0  0
   59.1100   28.0740   47.8860 C   0  0  0  0  0  0  0  0  0  0  0  0
   58.5930   27.4760   46.6830 N   0  0  0  0  0  0  0  0  0  0  0  0
   58.7740   27.9530   45.4320 C   0  0  0  0  0  0  0  0  0  0  0  0
   59.4970   29.2230   45.0940 C   0  0  0  0  0  0  0  0  0  0  0  0
   59.7894   29.7365   46.0218 H   0  0  0  0  0  0  0  0  0  0  0  0
   60.3965   28.9876   44.5062 H   0  0  0  0  0  0  0  0  0  0  0  0
   58.8354   29.8763   44.5062 H   0  0  0  0  0  0  0  0  0  0  0  0
   58.1980   27.1120   44.5040 C   0  0  0  0  0  0  0  0  0  0  0  0
   58.1790   27.2529   43.4132 H   0  0  0  0  0  0  0  0  0  0  0  0
   57.6450   26.0500   45.2140 C   0  0  0  0  0  0  0  0  0  0  0  0
   57.0070   24.9730   44.7050 C   0  0  0  0  0  0  0  0  0  0  0  0
   57.5485   24.3748   43.9574 H   0  0  0  0  0  0  0  0  0  0  0  0
   55.6420   24.5290   45.0670 C   0  0  0  0  0  0  0  0  0  0  0  0
   55.1290   23.3020   44.8640 N   0  0  0  0  0  0  0  0  0  0  0  0
   53.8610   23.4080   45.3140 C   0  0  0  0  0  0  0  0  0  0  0  0
   53.0500   22.4450   45.2900 O   0  0  0  0  0  0  0  0  0  0  0  0
   53.5280   24.6280   45.7830 N   0  0  0  0  0  0  0  0  0  0  0  0
   54.6640   25.3250   45.6170 C   0  0  0  0  0  0  0  0  0  0  0  0
   54.8040   26.6630   45.9640 O   0  0  0  0  0  0  0  0  0  0  0  0
   57.9080   26.3110   46.5660 C   0  0  0  0  0  0  0  0  0  0  0  0
   57.5180   25.5670   47.6140 C   0  0  0  0  0  0  0  0  0  0  0  0
   57.7854   25.8736   48.6360 H   0  0  0  0  0  0  0  0  0  0  0  0
   56.9312   24.6511   47.4503 H   0  0  0  0  0  0  0  0  0  0  0  0
   58.5520   29.2620   48.3800 C   0  0  0  0  0  0  0  0  0  0  0  0
   57.6736   29.7021   47.8852 H   0  0  0  0  0  0  0  0  0  0  0  0
   59.1080   29.8890   49.4990 C   0  0  0  0  0  0  0  0  0  0  0  0
   58.6600   30.8164   49.8852 H   0  0  0  0  0  0  0  0  0  0  0  0
   62.9250   30.7070   52.5450 C   0  0  0  0  0  0  0  0  0  0  0  0
   62.2609   30.4669   53.3884 H   0  0  0  0  0  0  0  0  0  0  0  0
   63.8327   30.0893   52.6117 H   0  0  0  0  0  0  0  0  0  0  0  0
   63.3040   32.1870   52.5970 C   0  0  0  0  0  0  0  0  0  0  0  0
   62.3926   32.7878   52.7327 H   0  0  0  0  0  0  0  0  0  0  0  0
   63.9957   32.3437   53.4378 H   0  0  0  0  0  0  0  0  0  0  0  0
  1  2  1  0
  2  3  1  0
  2  4  2  0
  4  5  1  0
  5  6  1  0
  5  7  1  0
  5  8  1  0
  8  9  1  0
  8 10  1  0
  8 11  1  0
 11 12  1  0
 11 13  1  0
 11 14  1  0
 14 15  1  0
 14 16  1  0
 14 17  1  0
 17 18  1  6
 17 19  1  0
 19 20  2  0
 19 21  1  0
 21 22  1  0
 22 23  1  0
 22 24  1  0
 22 25  1  0
 25 26  1  0
 25 27  1  0
 25 28  1  0
 28 29  1  0
 29 30  2  0
 29 31  1  0
 31 32  2  0
 32 33  1  0
 32 34  1  0
 34 35  1  0
 34 36  2  0
 36 37  1  0
 37 38  1  0
 38 39  1  0
 39 40  1  0
 39 41  1  0
 39 42  1  0
 38 43  2  0
 43 44  1  0
 43 45  1  0
 45 46  2  0
 46 47  1  0
 46 48  1  0
 48 49  1  0
 49 50  1  0
 50 51  2  0
 50 52  1  0
 52 53  1  0
 53 54  1  0
 45 55  1  0
 55 56  2  0
 56 57  1  0
 56 58  1  0
 36 59  1  0
 59 60  1  0
 59 61  2  0
 61 62  1  0
 28 63  1  0
 63 64  1  0
 63 65  1  0
 63 66  1  0
 66 67  1  0
 66 68  1  0
 17  4  1  0
 66 21  1  0
 61 31  1  0
 55 37  1  0
 53 48  2  0
M  CHG  3  49  -1  52  -1  54  -1
M  END
>  <UniqueID>  (69) 
67

>  <SMILES>  (69) 
C=C1CCCC[C@H]1C(=O)N1CCN(C(=O)c2ccc(-n3c(C)c/c(=C\c4[n-]c(=O)[n-]c4[O-])c3=C)cc2)CC1

>  <Energy>  (69) 
151.938512838851

>  <Genealogy>  (69) 
C=C1CCCCC1C(=O)N1CCN(C(=O)c2ccc(-n3c(C)cc(=Cc4[n-]c(=O)[n-]c4[O-])c3=C)cc2)CC1 (protonated)
C=C1CCCC[C@H]1C(=O)N1CCN(C(=O)c2ccc(-n3c(C)cc(=Cc4[n-]c(=O)[n-]c4[O-])c3=C)cc2)CC1 (chirality)
C=C1CCCC[C@H]1C(=O)N1CCN(C(=O)c2ccc(-n3c(C)c/c(=C\c4[n-]c(=O)[n-]c4[O-])c3=C)cc2)CC1 (cis-trans isomerization)
C=C1CCCC[C@H]1C(=O)N1CCN(C(=O)c2ccc(-n3c(C)c/c(=C\c4[n-]c(=O)[n-]c4[O-])c3=C)cc2)CC1 (3D coordinates assigned)
C=C1CCCC[C@H]1C(=O)N1CCN(C(=O)c2ccc(-n3c(C)c/c(=C\c4[n-]c(=O)[n-]c4[O-])c3=C)cc2)CC1 (nonaromatic ring conformer: 151.938512838851 kcal/mol)

>  <smiles>  (69) 
C=C1CCCCC1C(=O)N1CCN(C(=O)c2ccc(-n3c(C)cc(=Cc4[nH]c(=O)[nH]c4O)c3=C)cc2)CC1

>  <score_type>  (69) 
oracle

>  <origin>  (69) 
adg

>  <m_score__min__energy>  (69) 
-16.579999999999998

>  <m_primary>  (69) 
energy

$$$$
69:0
     RDKit          3D

 46 47  0  0  0  0  0  0  0  0999 V2000
   56.9540   31.6590   45.2460 O   0  0  0  0  0  0  0  0  0  0  0  0
   57.5110   32.0370   44.1800 C   0  0  0  0  0  0  0  0  0  0  0  0
   57.1440   31.3850   42.8820 C   0  0  0  0  0  0  0  0  0  0  0  0
   56.9820   29.8630   43.0230 C   0  0  0  0  0  0  0  0  0  0  0  0
   55.8050   29.5080   43.8990 C   0  0  0  0  0  0  0  0  0  0  0  0
   54.6390   29.7270   43.4800 O   0  0  0  0  0  0  0  0  0  0  0  0
   55.9800   29.0490   45.2420 N   0  0  0  0  0  0  0  0  0  0  0  0
   56.9460   28.0790   45.6700 C   0  0  0  0  0  0  0  0  0  0  0  0
   56.5170   26.7920   46.0200 C   0  0  0  0  0  0  0  0  0  0  0  0
   55.1980   26.4760   45.9790 F   0  0  0  0  0  0  0  0  0  0  0  0
   57.4430   25.8290   46.4300 C   0  0  0  0  0  0  0  0  0  0  0  0
   58.8050   26.1380   46.4710 C   0  0  0  0  0  0  0  0  0  0  0  0
   59.2430   27.4090   46.0930 C   0  0  0  0  0  0  0  0  0  0  0  0
   58.3240   28.3770   45.6820 C   0  0  0  0  0  0  0  0  0  0  0  0
   58.7740   29.5860   45.2690 F   0  0  0  0  0  0  0  0  0  0  0  0
   58.4670   33.1100   44.1810 N   0  0  0  0  0  0  0  0  0  0  0  0
   58.5070   34.1490   44.9700 C   0  0  0  0  0  0  0  0  0  0  0  0
   58.6630   34.0720   46.4350 C   0  0  0  0  0  0  0  0  0  0  0  0
   59.0730   35.0940   47.0530 O   0  0  0  0  0  0  0  0  0  0  0  0
   58.4490   32.8410   47.1410 N   0  0  0  0  0  0  0  0  0  0  0  0
   58.5610   32.7460   48.5940 C   0  0  0  0  0  0  0  0  0  0  0  0
   60.0200   32.5020   48.9940 C   0  0  0  0  0  0  0  0  0  0  0  0
   60.7920   31.7300   47.9180 C   0  0  0  0  0  0  0  0  0  0  0  0
   61.9840   32.4660   47.5030 N   0  0  0  0  0  0  0  0  0  0  0  0
   62.0370   33.5340   46.6890 C   0  0  0  0  0  0  0  0  0  0  0  0
   63.3610   33.8750   46.5310 C   0  0  0  0  0  0  0  0  0  0  0  0
   64.1370   33.0230   47.2340 N   0  0  0  0  0  0  0  0  0  0  0  0
   63.2610   32.1760   47.8130 C   0  0  0  0  0  0  0  0  0  0  0  0
   56.1939   31.8112   42.5275 H   0  0  0  0  0  0  0  0  0  0  0  0
   57.9584   31.5734   42.1670 H   0  0  0  0  0  0  0  0  0  0  0  0
   56.8287   29.4264   42.0251 H   0  0  0  0  0  0  0  0  0  0  0  0
   57.8928   29.4621   43.4917 H   0  0  0  0  0  0  0  0  0  0  0  0
   57.0989   24.8256   46.7211 H   0  0  0  0  0  0  0  0  0  0  0  0
   59.5316   25.3808   46.8007 H   0  0  0  0  0  0  0  0  0  0  0  0
   60.3162   27.6487   46.1191 H   0  0  0  0  0  0  0  0  0  0  0  0
   58.4187   35.1458   44.5134 H   0  0  0  0  0  0  0  0  0  0  0  0
   58.3810   31.9570   46.5970 H   0  0  0  0  0  0  0  0  0  0  0  0
   58.2112   33.6848   49.0482 H   0  0  0  0  0  0  0  0  0  0  0  0
   57.9448   31.9067   48.9488 H   0  0  0  0  0  0  0  0  0  0  0  0
   60.5109   33.4732   49.1545 H   0  0  0  0  0  0  0  0  0  0  0  0
   60.0225   31.8966   49.9124 H   0  0  0  0  0  0  0  0  0  0  0  0
   61.0946   30.7530   48.3229 H   0  0  0  0  0  0  0  0  0  0  0  0
   60.1384   31.5973   47.0433 H   0  0  0  0  0  0  0  0  0  0  0  0
   61.1766   34.0441   46.2312 H   0  0  0  0  0  0  0  0  0  0  0  0
   63.7308   34.7145   45.9239 H   0  0  0  0  0  0  0  0  0  0  0  0
   63.5574   31.3416   48.4656 H   0  0  0  0  0  0  0  0  0  0  0  0
  1  2  2  0
  2  3  1  0
  3  4  1  0
  4  5  1  0
  5  6  2  0
  5  7  1  0
  7  8  1  0
  8  9  2  0
  9 10  1  0
  9 11  1  0
 11 12  2  0
 12 13  1  0
 13 14  2  0
 14 15  1  0
  2 16  1  0
 16 17  2  3
 17 18  1  0
 18 19  2  0
 18 20  1  0
 20 21  1  0
 21 22  1  0
 22 23  1  0
 23 24  1  0
 24 25  1  0
 25 26  2  0
 26 27  1  0
 27 28  2  0
 14  8  1  0
 28 24  1  0
  3 29  1  0
  3 30  1  0
  4 31  1  0
  4 32  1  0
 11 33  1  0
 12 34  1  0
 13 35  1  0
 17 36  1  0
 20 37  1  0
 21 38  1  0
 21 39  1  0
 22 40  1  0
 22 41  1  0
 23 42  1  0
 23 43  1  0
 25 44  1  0
 26 45  1  0
 28 46  1  0
M  CHG  1   7  -1
M  END
>  <UniqueID>  (70) 
68

>  <SMILES>  (70) 
O=C(CCC(=O)[N-]c1c(F)cccc1F)N=CC(=O)NCCCn1ccnc1

>  <Energy>  (70) 
78.85535406442727

>  <Genealogy>  (70) 
O=C(CCC(=O)[N-]c1c(F)cccc1F)N=CC(=O)NCCCn1ccnc1 (protonated)
O=C(CCC(=O)[N-]c1c(F)cccc1F)N=CC(=O)NCCCn1ccnc1 (3D coordinates assigned)
O=C(CCC(=O)[N-]c1c(F)cccc1F)N=CC(=O)NCCCn1ccnc1 (optimized conformer: 78.85535406442727 kcal/mol)

>  <smiles>  (70) 
O=C(CCC(=O)Nc1c(F)cccc1F)N=CC(=O)NCCCn1ccnc1

>  <score_type>  (70) 
oracle

>  <origin>  (70) 
adg

>  <m_score__min__energy>  (70) 
-8.9399999999999995

>  <m_primary>  (70) 
energy

$$$$
70:0
     RDKit          3D

 44 46  0  0  0  0  0  0  0  0999 V2000
   65.3230   31.6230   50.7000 C   0  0  0  0  0  0  0  0  0  0  0  0
   64.5230   32.5910   49.8800 C   0  0  0  0  0  0  0  0  0  0  0  0
   65.1440   33.3930   49.1300 O   0  0  0  0  0  0  0  0  0  0  0  0
   63.0780   32.6210   49.9210 N   0  0  0  0  0  0  0  0  0  0  0  0
   62.3050   31.6110   50.6670 C   0  0  0  0  0  0  0  0  0  0  0  0
   61.0340   31.1760   49.9060 C   0  0  0  0  0  0  0  0  0  0  0  0
   60.4320   32.2800   49.0060 C   0  0  0  0  0  0  0  0  0  0  0  0
   58.9220   32.1630   48.9550 C   0  0  0  0  0  0  0  0  0  0  0  0
   58.3590   31.1880   49.5200 O   0  0  0  0  0  0  0  0  0  0  0  0
   58.1170   33.0600   48.1760 N   0  0  0  0  0  0  0  0  0  0  0  0
   58.4950   33.6390   46.9230 C   0  0  0  0  0  0  0  0  0  0  0  0
   59.1700   34.8620   46.8480 C   0  0  0  0  0  0  0  0  0  0  0  0
   59.4150   35.2810   45.5460 C   0  0  0  0  0  0  0  0  0  0  0  0
   58.8110   34.1160   44.4940 S   0  0  0  0  0  0  0  0  0  0  0  0
   58.2370   33.0660   45.6760 C   0  0  0  0  0  0  0  0  0  0  0  0
   57.6280   31.7570   45.4060 C   0  0  0  0  0  0  0  0  0  0  0  0
   57.9970   30.6170   46.0180 N   0  0  0  0  0  0  0  0  0  0  0  0
   57.1690   29.7260   45.4360 C   0  0  0  0  0  0  0  0  0  0  0  0
   57.2160   28.2560   45.7000 C   0  0  0  0  0  0  0  0  0  0  0  0
   55.8750   27.6900   45.6190 N   0  0  0  0  0  0  0  0  0  0  0  0
   55.5550   26.3500   46.0060 C   0  0  0  0  0  0  0  0  0  0  0  0
   54.2120   25.8760   45.9440 N   0  0  0  0  0  0  0  0  0  0  0  0
   56.4710   25.5840   46.4020 O   0  0  0  0  0  0  0  0  0  0  0  0
   56.3530   30.2910   44.5260 N   0  0  0  0  0  0  0  0  0  0  0  0
   56.6650   31.5520   44.5410 O   0  0  0  0  0  0  0  0  0  0  0  0
   60.8700   33.6790   49.4640 C   0  0  0  0  0  0  0  0  0  0  0  0
   62.3930   33.7950   49.3540 C   0  0  0  0  0  0  0  0  0  0  0  0
   65.1574   31.8234   51.7688 H   0  0  0  0  0  0  0  0  0  0  0  0
   65.0069   30.5957   50.4663 H   0  0  0  0  0  0  0  0  0  0  0  0
   66.3915   31.7400   50.4663 H   0  0  0  0  0  0  0  0  0  0  0  0
   62.9401   30.7280   50.8312 H   0  0  0  0  0  0  0  0  0  0  0  0
   61.9923   32.0598   51.6214 H   0  0  0  0  0  0  0  0  0  0  0  0
   61.2882   30.3134   49.2725 H   0  0  0  0  0  0  0  0  0  0  0  0
   60.2752   30.9346   50.6649 H   0  0  0  0  0  0  0  0  0  0  0  0
   60.8196   32.1358   47.9867 H   0  0  0  0  0  0  0  0  0  0  0  0
   59.4772   35.4366   47.7343 H   0  0  0  0  0  0  0  0  0  0  0  0
   59.9178   36.2146   45.2535 H   0  0  0  0  0  0  0  0  0  0  0  0
   57.8610   27.7723   44.9517 H   0  0  0  0  0  0  0  0  0  0  0  0
   57.6194   28.0838   46.7088 H   0  0  0  0  0  0  0  0  0  0  0  0
   53.5080   26.3390   45.3270 H   0  0  0  0  0  0  0  0  0  0  0  0
   60.3967   34.4394   48.8254 H   0  0  0  0  0  0  0  0  0  0  0  0
   60.5633   33.8371   50.5085 H   0  0  0  0  0  0  0  0  0  0  0  0
   62.6664   33.8874   48.2925 H   0  0  0  0  0  0  0  0  0  0  0  0
   62.7084   34.6809   49.9246 H   0  0  0  0  0  0  0  0  0  0  0  0
  1  2  1  0
  2  3  2  0
  2  4  1  0
  4  5  1  0
  5  6  1  0
  6  7  1  0
  7  8  1  0
  8  9  2  0
  8 10  1  0
 10 11  1  0
 11 12  1  0
 12 13  2  0
 13 14  1  0
 14 15  1  0
 15 16  1  0
 16 17  2  0
 17 18  1  0
 18 19  1  0
 19 20  1  0
 20 21  1  0
 21 22  1  0
 21 23  2  0
 18 24  2  0
 24 25  1  0
  7 26  1  0
 26 27  1  0
 27  4  1  0
 15 11  2  0
 25 16  1  0
  1 28  1  0
  1 29  1  0
  1 30  1  0
  5 31  1  0
  5 32  1  0
  6 33  1  0
  6 34  1  0
  7 35  1  0
 12 36  1  0
 13 37  1  0
 19 38  1  0
 19 39  1  0
 22 40  1  0
 26 41  1  0
 26 42  1  0
 27 43  1  0
 27 44  1  0
M  CHG  3  10  -1  20  -1  22  -1
M  END
>  <UniqueID>  (71) 
69

>  <SMILES>  (71) 
CC(=O)N1CCC(C(=O)[N-]c2ccsc2-c2nc(C[N-]C([NH-])=O)no2)CC1

>  <Energy>  (71) 
105.55936282806695

>  <Genealogy>  (71) 
CC(=O)N1CCC(C(=O)[N-]c2ccsc2-c2nc(C[N-]C([NH-])=O)no2)CC1 (protonated)
CC(=O)N1CCC(C(=O)[N-]c2ccsc2-c2nc(C[N-]C([NH-])=O)no2)CC1 (3D coordinates assigned)
CC(=O)N1CCC(C(=O)[N-]c2ccsc2-c2nc(C[N-]C([NH-])=O)no2)CC1 (nonaromatic ring conformer: 105.55936282806695 kcal/mol)

>  <smiles>  (71) 
CC(=O)N1CCC(C(=O)Nc2ccsc2-c2nc(CNC(N)=O)no2)CC1

>  <score_type>  (71) 
oracle

>  <origin>  (71) 
adg

>  <m_score__min__energy>  (71) 
-14.67

>  <m_primary>  (71) 
energy

$$$$
71:0
     RDKit          3D

 52 55  0  0  0  0  0  0  0  0999 V2000
   64.5760   32.4550   47.0940 H   0  0  0  0  0  0  0  0  0  0  0  0
   63.8570   33.1350   46.9950 O   0  0  0  0  0  0  0  0  0  0  0  0
   62.8160   32.8160   47.8910 C   0  0  2  0  0  0  0  0  0  0  0  0
   63.3900   31.9570   49.0440 C   0  0  0  0  0  0  0  0  0  0  0  0
   63.0968   32.3958   50.0092 H   0  0  0  0  0  0  0  0  0  0  0  0
   62.9937   30.9334   48.9710 H   0  0  0  0  0  0  0  0  0  0  0  0
   64.4873   31.9315   48.9710 H   0  0  0  0  0  0  0  0  0  0  0  0
   61.7070   32.0080   47.1420 C   0  0  0  0  0  0  0  0  0  0  0  0
   62.1814   31.3867   46.3680 H   0  0  0  0  0  0  0  0  0  0  0  0
   61.1799   31.3873   47.8815 H   0  0  0  0  0  0  0  0  0  0  0  0
   60.6750   32.9320   46.4740 C   0  0  0  0  0  0  0  0  0  0  0  0
   61.1939   33.5836   45.7556 H   0  0  0  0  0  0  0  0  0  0  0  0
   59.9285   32.3004   45.9702 H   0  0  0  0  0  0  0  0  0  0  0  0
   59.9320   33.8200   47.5120 C   0  0  1  0  0  0  0  0  0  0  0  0
   59.7742   34.7884   47.0148 H   0  0  0  0  0  0  0  0  0  0  0  0
   58.5990   33.2310   47.8890 C   0  0  0  0  0  0  0  0  0  0  0  0
   57.6030   33.4250   47.1370 O   0  0  0  0  0  0  0  0  0  0  0  0
   58.4510   32.5950   49.1310 O   0  0  0  0  0  0  0  0  0  0  0  0
   59.0410   31.3750   49.4970 C   0  0  0  0  0  0  0  0  0  0  0  0
   59.4490   31.2100   50.8420 C   0  0  0  0  0  0  0  0  0  0  0  0
   59.3008   32.0312   51.5587 H   0  0  0  0  0  0  0  0  0  0  0  0
   60.0420   30.0090   51.2750 C   0  0  0  0  0  0  0  0  0  0  0  0
   60.3463   29.8722   52.3232 H   0  0  0  0  0  0  0  0  0  0  0  0
   60.2310   29.0010   50.3360 C   0  0  0  0  0  0  0  0  0  0  0  0
   59.8590   29.1580   49.0270 C   0  0  0  0  0  0  0  0  0  0  0  0
   59.2650   30.3320   48.5650 C   0  0  0  0  0  0  0  0  0  0  0  0
   58.9790   30.4448   47.5088 H   0  0  0  0  0  0  0  0  0  0  0  0
   60.1770   27.9830   48.3720 C   0  0  0  0  0  0  0  0  0  0  0  0
   59.7960   27.6180   46.9920 C   0  0  0  0  0  0  0  0  0  0  0  0
   60.5556   27.0986   46.3893 H   0  0  0  0  0  0  0  0  0  0  0  0
   58.6060   27.8590   46.3960 C   0  0  0  0  0  0  0  0  0  0  0  0
   57.6250   26.9350   46.5800 N   0  0  0  0  0  0  0  0  0  0  0  0
   56.3950   27.0590   46.0170 C   0  0  0  0  0  0  0  0  0  0  0  0
   55.5260   26.1680   46.2130 O   0  0  0  0  0  0  0  0  0  0  0  0
   56.1050   28.1350   45.2400 N   0  0  0  0  0  0  0  0  0  0  0  0
   55.1490   28.1990   44.8100 H   0  0  0  0  0  0  0  0  0  0  0  0
   57.0260   29.1230   45.0340 C   0  0  0  0  0  0  0  0  0  0  0  0
   56.6930   30.1850   44.2820 C   0  0  0  0  0  0  0  0  0  0  0  0
   57.4252   30.9873   44.1084 H   0  0  0  0  0  0  0  0  0  0  0  0
   55.6881   30.2524   43.8397 H   0  0  0  0  0  0  0  0  0  0  0  0
   58.3080   29.0150   45.6290 C   0  0  0  0  0  0  0  0  0  0  0  0
   59.1410   29.9590   45.5110 O   0  0  0  0  0  0  0  0  0  0  0  0
   60.6940   27.1400   49.3550 C   0  0  0  0  0  0  0  0  0  0  0  0
   61.0170   26.1024   49.1842 H   0  0  0  0  0  0  0  0  0  0  0  0
   60.7430   27.7760   50.5480 N   0  0  0  0  0  0  0  0  0  0  0  0
   61.0740   27.3790   51.4560 H   0  0  0  0  0  0  0  0  0  0  0  0
   60.7650   34.0740   48.7930 C   0  0  0  0  0  0  0  0  0  0  0  0
   60.4420   35.0208   49.2504 H   0  0  0  0  0  0  0  0  0  0  0  0
   60.6044   33.2363   49.4876 H   0  0  0  0  0  0  0  0  0  0  0  0
   62.2620   34.1590   48.4670 C   0  0  0  0  0  0  0  0  0  0  0  0
   62.4185   34.9549   47.7239 H   0  0  0  0  0  0  0  0  0  0  0  0
   62.8003   34.3740   49.4019 H   0  0  0  0  0  0  0  0  0  0  0  0
  1  2  1  0
  3  2  1  6
  3  4  1  0
  4  5  1  0
  4  6  1  0
  4  7  1  0
  3  8  1  0
  8  9  1  0
  8 10  1  0
  8 11  1  0
 11 12  1  0
 11 13  1  0
 11 14  1  0
 14 15  1  6
 14 16  1  0
 16 17  2  0
 16 18  1  0
 18 19  1  0
 19 20  2  0
 20 21  1  0
 20 22  1  0
 22 23  1  0
 22 24  2  0
 24 25  1  0
 25 26  2  0
 26 27  1  0
 25 28  1  0
 28 29  1  0
 29 30  1  0
 29 31  2  0
 31 32  1  0
 32 33  1  0
 33 34  2  0
 33 35  1  0
 35 36  1  0
 35 37  1  0
 37 38  2  0
 38 39  1  0
 38 40  1  0
 37 41  1  0
 41 42  2  0
 28 43  2  0
 43 44  1  0
 43 45  1  0
 45 46  1  0
 14 47  1  0
 47 48  1  0
 47 49  1  0
 47 50  1  0
 50 51  1  0
 50 52  1  0
 50  3  1  0
 26 19  1  0
 41 31  1  0
 45 24  1  0
M  CHG  1  32  -1
M  END
>  <UniqueID>  (72) 
70

>  <SMILES>  (72) 
C=c1[nH]c(=O)[n-]/c(=C/c2c[nH]c3ccc(OC(=O)C4CCC(C)(O)CC4)cc23)c1=O

>  <Energy>  (72) 
110.05630667637168

>  <Genealogy>  (72) 
C=c1[nH]c(=O)[n-]c(=Cc2c[nH]c3ccc(OC(=O)C4CCC(C)(O)CC4)cc23)c1=O (protonated)
C=c1[nH]c(=O)[n-]/c(=C/c2c[nH]c3ccc(OC(=O)C4CCC(C)(O)CC4)cc23)c1=O (cis-trans isomerization)
C=c1[nH]c(=O)[n-]/c(=C/c2c[nH]c3ccc(OC(=O)C4CCC(C)(O)CC4)cc23)c1=O (3D coordinates assigned)
C=c1[nH]c(=O)[n-]/c(=C/c2c[nH]c3ccc(OC(=O)C4CCC(C)(O)CC4)cc23)c1=O (nonaromatic ring conformer: 110.05630667637168 kcal/mol)

>  <smiles>  (72) 
C=c1[nH]c(=O)[nH]c(=Cc2c[nH]c3ccc(OC(=O)C4CCC(C)(O)CC4)cc23)c1=O

>  <score_type>  (72) 
oracle

>  <origin>  (72) 
adg

>  <m_score__min__energy>  (72) 
-11.699999999999999

>  <m_primary>  (72) 
energy

$$$$
72:0
     RDKit          3D

 50 52  0  0  0  0  0  0  0  0999 V2000
   50.0060   22.3320   43.8610 C   0  0  0  0  0  0  0  0  0  0  0  0
   51.0390   23.3560   44.3570 C   0  0  0  0  0  0  0  0  0  0  0  0
   50.3620   24.7400   44.4390 C   0  0  0  0  0  0  0  0  0  0  0  0
   52.0910   23.3890   43.4200 O   0  0  0  0  0  0  0  0  0  0  0  0
   51.5720   22.8950   45.7390 C   0  0  0  0  0  0  0  0  0  0  0  0
   52.8970   22.2760   45.6410 N   0  0  0  0  0  0  0  0  0  0  0  0
   54.0320   22.9120   45.6620 C   0  0  0  0  0  0  0  0  0  0  0  0
   54.5980   23.3810   44.5150 N   0  0  0  0  0  0  0  0  0  0  0  0
   55.7860   24.0370   44.5360 C   0  0  0  0  0  0  0  0  0  0  0  0
   56.4550   24.2360   45.7520 C   0  0  0  0  0  0  0  0  0  0  0  0
   57.6750   24.9220   45.8400 O   0  0  0  0  0  0  0  0  0  0  0  0
   57.8440   26.3030   45.6680 C   0  0  0  0  0  0  0  0  0  0  0  0
   58.0110   27.1740   46.7590 C   0  0  0  0  0  0  0  0  0  0  0  0
   58.1610   28.5480   46.5470 C   0  0  0  0  0  0  0  0  0  0  0  0
   58.1510   29.0730   45.2470 C   0  0  0  0  0  0  0  0  0  0  0  0
   58.2850   30.4920   45.0590 N   0  0  0  0  0  0  0  0  0  0  0  0
   57.1910   31.3750   44.7740 C   0  0  0  0  0  0  0  0  0  0  0  0
   56.0490   30.9140   44.5060 O   0  0  0  0  0  0  0  0  0  0  0  0
   57.4130   32.7910   44.8080 N   0  0  0  0  0  0  0  0  0  0  0  0
   58.3030   33.4980   45.6840 C   0  0  0  0  0  0  0  0  0  0  0  0
   59.0420   34.6170   45.2560 C   0  0  0  0  0  0  0  0  0  0  0  0
   59.9130   35.2640   46.1380 C   0  0  0  0  0  0  0  0  0  0  0  0
   60.0650   34.7950   47.4450 C   0  0  0  0  0  0  0  0  0  0  0  0
   59.3540   33.6680   47.8700 C   0  0  0  0  0  0  0  0  0  0  0  0
   59.5560   33.0680   49.5060 Cl  0  0  0  0  0  0  0  0  0  0  0  0
   58.4820   33.0180   46.9880 C   0  0  0  0  0  0  0  0  0  0  0  0
   57.9400   28.2050   44.1610 C   0  0  0  0  0  0  0  0  0  0  0  0
   57.7890   26.8310   44.3740 C   0  0  0  0  0  0  0  0  0  0  0  0
   55.8450   23.7700   46.9170 C   0  0  0  0  0  0  0  0  0  0  0  0
   54.6560   23.1170   46.8520 N   0  0  0  0  0  0  0  0  0  0  0  0
   49.5218   21.8520   44.7242 H   0  0  0  0  0  0  0  0  0  0  0  0
   49.2461   22.8434   43.2519 H   0  0  0  0  0  0  0  0  0  0  0  0
   50.5107   21.5676   43.2519 H   0  0  0  0  0  0  0  0  0  0  0  0
   50.2253   25.0194   45.4941 H   0  0  0  0  0  0  0  0  0  0  0  0
   50.9958   25.4883   43.9407 H   0  0  0  0  0  0  0  0  0  0  0  0
   49.3822   24.6990   43.9407 H   0  0  0  0  0  0  0  0  0  0  0  0
   52.8860   22.9570   43.8290 H   0  0  0  0  0  0  0  0  0  0  0  0
   51.6373   23.7692   46.4035 H   0  0  0  0  0  0  0  0  0  0  0  0
   50.8753   22.1423   46.1366 H   0  0  0  0  0  0  0  0  0  0  0  0
   56.2238   24.4124   43.5993 H   0  0  0  0  0  0  0  0  0  0  0  0
   58.0237   26.7730   47.7832 H   0  0  0  0  0  0  0  0  0  0  0  0
   58.2878   29.2222   47.4069 H   0  0  0  0  0  0  0  0  0  0  0  0
   59.2470   30.8980   45.0330 H   0  0  0  0  0  0  0  0  0  0  0  0
   58.9340   34.9836   44.2245 H   0  0  0  0  0  0  0  0  0  0  0  0
   60.4800   36.1446   45.8018 H   0  0  0  0  0  0  0  0  0  0  0  0
   60.7435   35.3118   48.1396 H   0  0  0  0  0  0  0  0  0  0  0  0
   57.9338   32.1244   47.3212 H   0  0  0  0  0  0  0  0  0  0  0  0
   57.8935   28.6087   43.1388 H   0  0  0  0  0  0  0  0  0  0  0  0
   57.6258   26.1605   43.5174 H   0  0  0  0  0  0  0  0  0  0  0  0
   56.3288   23.9321   47.8915 H   0  0  0  0  0  0  0  0  0  0  0  0
  1  2  1  0
  2  3  1  0
  2  4  1  0
  2  5  1  0
  5  6  1  0
  6  7  2  3
  7  8  1  0
  8  9  2  0
  9 10  1  0
 10 11  1  0
 11 12  1  0
 12 13  2  0
 13 14  1  0
 14 15  2  0
 15 16  1  0
 16 17  1  0
 17 18  2  0
 17 19  1  0
 19 20  1  0
 20 21  2  0
 21 22  1  0
 22 23  2  0
 23 24  1  0
 24 25  1  0
 24 26  2  0
 15 27  1  0
 27 28  2  0
 10 29  2  0
 29 30  1  0
 30  7  1  0
 28 12  1  0
 26 20  1  0
  1 31  1  0
  1 32  1  0
  1 33  1  0
  3 34  1  0
  3 35  1  0
  3 36  1  0
  4 37  1  0
  5 38  1  0
  5 39  1  0
  9 40  1  0
 13 41  1  0
 14 42  1  0
 16 43  1  0
 21 44  1  0
 22 45  1  0
 23 46  1  0
 26 47  1  0
 27 48  1  0
 28 49  1  0
 29 50  1  0
M  CHG  2  19  -1  30  -1
M  END
>  <UniqueID>  (73) 
71

>  <SMILES>  (73) 
CC(C)(O)CN=c1ncc(Oc2ccc(NC(=O)[N-]c3cccc(Cl)c3)cc2)c[n-]1

>  <Energy>  (73) 
64.22570880288467

>  <Genealogy>  (73) 
CC(C)(O)CN=c1ncc(Oc2ccc(NC(=O)[N-]c3cccc(Cl)c3)cc2)c[n-]1 (protonated)
CC(C)(O)CN=c1ncc(Oc2ccc(NC(=O)[N-]c3cccc(Cl)c3)cc2)c[n-]1 (3D coordinates assigned)
CC(C)(O)CN=c1ncc(Oc2ccc(NC(=O)[N-]c3cccc(Cl)c3)cc2)c[n-]1 (optimized conformer: 64.22570880288467 kcal/mol)

>  <smiles>  (73) 
CC(C)(O)CN=c1ncc(Oc2ccc(NC(=O)Nc3cccc(Cl)c3)cc2)c[nH]1

>  <score_type>  (73) 
oracle

>  <origin>  (73) 
adg

>  <m_score__min__energy>  (73) 
-10.800000000000001

>  <m_primary>  (73) 
energy

$$$$
73:0
     RDKit          3D

 49 52  0  0  0  0  0  0  0  0999 V2000
   58.8370   32.2010   55.5730 O   0  0  0  0  0  0  0  0  0  0  0  0
   58.1150   31.7310   54.6520 C   0  0  0  0  0  0  0  0  0  0  0  0
   56.8810   31.0610   54.9630 N   0  0  0  0  0  0  0  0  0  0  0  0
   56.1510   30.2870   54.2090 C   0  0  0  0  0  0  0  0  0  0  0  0
   55.9590   28.9130   54.4650 C   0  0  0  0  0  0  0  0  0  0  0  0
   55.1720   28.1540   53.5970 C   0  0  0  0  0  0  0  0  0  0  0  0
   54.5970   28.7320   52.5070 N   0  0  0  0  0  0  0  0  0  0  0  0
   54.7770   30.0490   52.2280 C   0  0  0  0  0  0  0  0  0  0  0  0
   55.5610   30.8430   53.0660 C   0  0  0  0  0  0  0  0  0  0  0  0
   58.4930   31.9570   53.2350 C   0  0  0  0  0  0  0  0  0  0  0  0
   58.8410   30.8750   52.4060 C   0  0  0  0  0  0  0  0  0  0  0  0
   59.2060   31.0930   51.0740 C   0  0  0  0  0  0  0  0  0  0  0  0
   59.2380   32.3870   50.5480 C   0  0  0  0  0  0  0  0  0  0  0  0
   59.5950   32.5550   49.2000 O   0  0  0  0  0  0  0  0  0  0  0  0
   58.9810   31.9270   48.1060 C   0  0  0  0  0  0  0  0  0  0  0  0
   59.0160   30.5310   48.0250 C   0  0  0  0  0  0  0  0  0  0  0  0
   58.4200   29.8690   46.9470 C   0  0  0  0  0  0  0  0  0  0  0  0
   57.7910   30.6020   45.9310 C   0  0  0  0  0  0  0  0  0  0  0  0
   56.9900   29.7770   44.5980 S   0  0  0  0  0  0  0  0  0  0  0  0
   56.1560   30.7680   43.8370 O   0  0  0  0  0  0  0  0  0  0  0  0
   58.0010   29.1810   43.6580 O   0  0  0  0  0  0  0  0  0  0  0  0
   55.9640   28.5220   45.2160 N   0  0  0  0  0  0  0  0  0  0  0  0
   56.3980   27.3680   45.6230 C   0  0  0  0  0  0  0  0  0  0  0  0
   57.7720   27.1000   45.5960 C   0  0  0  0  0  0  0  0  0  0  0  0
   58.2360   25.8540   46.0260 C   0  0  0  0  0  0  0  0  0  0  0  0
   57.3300   24.8940   46.4800 C   0  0  0  0  0  0  0  0  0  0  0  0
   57.7690   23.6830   46.9020 F   0  0  0  0  0  0  0  0  0  0  0  0
   55.9670   25.1960   46.4950 C   0  0  0  0  0  0  0  0  0  0  0  0
   55.5340   26.4130   46.0700 N   0  0  0  0  0  0  0  0  0  0  0  0
   57.7760   32.0000   45.9960 C   0  0  0  0  0  0  0  0  0  0  0  0
   58.3750   32.6620   47.0720 C   0  0  0  0  0  0  0  0  0  0  0  0
   58.8660   33.4700   51.3640 C   0  0  0  0  0  0  0  0  0  0  0  0
   58.5060   33.2570   52.6980 C   0  0  0  0  0  0  0  0  0  0  0  0
   56.4263   28.4428   55.3428 H   0  0  0  0  0  0  0  0  0  0  0  0
   55.0157   27.0833   53.7949 H   0  0  0  0  0  0  0  0  0  0  0  0
   54.0090   28.1490   51.8690 H   0  0  0  0  0  0  0  0  0  0  0  0
   54.3034   30.4910   51.3390 H   0  0  0  0  0  0  0  0  0  0  0  0
   55.7160   31.9060   52.8292 H   0  0  0  0  0  0  0  0  0  0  0  0
   58.8259   29.8513   52.8081 H   0  0  0  0  0  0  0  0  0  0  0  0
   59.4704   30.2380   50.4344 H   0  0  0  0  0  0  0  0  0  0  0  0
   59.5156   29.9502   48.8144 H   0  0  0  0  0  0  0  0  0  0  0  0
   58.4448   28.7705   46.8961 H   0  0  0  0  0  0  0  0  0  0  0  0
   58.4796   27.8631   45.2396 H   0  0  0  0  0  0  0  0  0  0  0  0
   59.3128   25.6302   46.0068 H   0  0  0  0  0  0  0  0  0  0  0  0
   55.2426   24.4487   46.8510 H   0  0  0  0  0  0  0  0  0  0  0  0
   57.2910   32.5803   45.1973 H   0  0  0  0  0  0  0  0  0  0  0  0
   58.3721   33.7614   47.1097 H   0  0  0  0  0  0  0  0  0  0  0  0
   58.8582   34.4894   50.9509 H   0  0  0  0  0  0  0  0  0  0  0  0
   58.2309   34.1125   53.3324 H   0  0  0  0  0  0  0  0  0  0  0  0
  1  2  2  0
  2  3  1  0
  3  4  2  3
  4  5  1  0
  5  6  2  0
  6  7  1  0
  7  8  1  0
  8  9  2  0
  2 10  1  0
 10 11  2  0
 11 12  1  0
 12 13  2  0
 13 14  1  0
 14 15  1  0
 15 16  2  0
 16 17  1  0
 17 18  2  0
 18 19  1  0
 19 20  2  0
 19 21  2  0
 19 22  1  0
 22 23  2  3
 23 24  1  0
 24 25  2  0
 25 26  1  0
 26 27  1  0
 26 28  2  0
 28 29  1  0
 18 30  1  0
 30 31  2  0
 13 32  1  0
 32 33  2  0
  9  4  1  0
 33 10  1  0
 31 15  1  0
 29 23  1  0
  5 34  1  0
  6 35  1  0
  7 36  1  0
  8 37  1  0
  9 38  1  0
 11 39  1  0
 12 40  1  0
 16 41  1  0
 17 42  1  0
 24 43  1  0
 25 44  1  0
 28 45  1  0
 30 46  1  0
 31 47  1  0
 32 48  1  0
 33 49  1  0
M  CHG  1  29  -1
M  END
>  <UniqueID>  (74) 
72

>  <SMILES>  (74) 
O=C(N=c1cc[nH]cc1)c1ccc(Oc2ccc(S(=O)(=O)N=c3ccc(F)c[n-]3)cc2)cc1

>  <Energy>  (74) 
72.92646888340148

>  <Genealogy>  (74) 
O=C(N=c1cc[nH]cc1)c1ccc(Oc2ccc(S(=O)(=O)N=c3ccc(F)c[n-]3)cc2)cc1 (protonated)
O=C(N=c1cc[nH]cc1)c1ccc(Oc2ccc(S(=O)(=O)N=c3ccc(F)c[n-]3)cc2)cc1 (3D coordinates assigned)
O=C(N=c1cc[nH]cc1)c1ccc(Oc2ccc(S(=O)(=O)N=c3ccc(F)c[n-]3)cc2)cc1 (optimized conformer: 72.92646888340148 kcal/mol)

>  <smiles>  (74) 
O=C(N=c1cc[nH]cc1)c1ccc(Oc2ccc(S(=O)(=O)N=c3ccc(F)c[nH]3)cc2)cc1

>  <score_type>  (74) 
oracle

>  <origin>  (74) 
adg

>  <m_score__min__energy>  (74) 
-10.960000000000001

>  <m_primary>  (74) 
energy

$$$$
74:0
     RDKit          3D

 50 52  0  0  0  0  0  0  0  0999 V2000
   59.4870   24.6523   46.4198 H   0  0  0  0  0  0  0  0  0  0  0  0
   59.1030   23.9680   45.6490 C   0  0  0  0  0  0  0  0  0  0  0  0
   59.7891   23.2804   45.1328 H   0  0  0  0  0  0  0  0  0  0  0  0
   57.7960   23.9720   45.3380 C   0  0  0  0  0  0  0  0  0  0  0  0
   57.4070   23.0980   44.3780 N   0  0  0  0  0  0  0  0  0  0  0  0
   56.1350   23.0090   43.9350 C   0  0  0  0  0  0  0  0  0  0  0  0
   55.8680   22.1850   43.0190 O   0  0  0  0  0  0  0  0  0  0  0  0
   55.1620   23.7990   44.4770 N   0  0  0  0  0  0  0  0  0  0  0  0
   53.7740   23.7090   43.9850 C   0  0  0  0  0  0  0  0  0  0  0  0
   53.0839   23.6643   44.8405 H   0  0  0  0  0  0  0  0  0  0  0  0
   53.5435   24.5941   43.3739 H   0  0  0  0  0  0  0  0  0  0  0  0
   53.6597   22.8016   43.3739 H   0  0  0  0  0  0  0  0  0  0  0  0
   55.4810   24.7130   45.4490 C   0  0  0  0  0  0  0  0  0  0  0  0
   54.5540   25.4010   45.9600 O   0  0  0  0  0  0  0  0  0  0  0  0
   56.8250   24.8530   45.9110 C   0  0  0  0  0  0  0  0  0  0  0  0
   57.1650   25.7540   46.8820 C   0  0  0  0  0  0  0  0  0  0  0  0
   56.7871   25.5596   47.8966 H   0  0  0  0  0  0  0  0  0  0  0  0
   57.9930   26.9650   46.6960 C   0  0  0  0  0  0  0  0  0  0  0  0
   59.3430   26.9430   47.0590 C   0  0  0  0  0  0  0  0  0  0  0  0
   59.7726   26.0390   47.5153 H   0  0  0  0  0  0  0  0  0  0  0  0
   60.1480   28.0630   46.8450 C   0  0  0  0  0  0  0  0  0  0  0  0
   61.2075   28.0389   47.1397 H   0  0  0  0  0  0  0  0  0  0  0  0
   59.6130   29.2220   46.2550 C   0  0  0  0  0  0  0  0  0  0  0  0
   60.3990   30.3620   46.0260 O   0  0  0  0  0  0  0  0  0  0  0  0
   60.1830   31.6200   46.6040 C   0  0  0  0  0  0  0  0  0  0  0  0
   61.0790   32.1510   47.4770 N   0  0  0  0  0  0  0  0  0  0  0  0
   60.8690   33.3630   48.0560 C   0  0  0  0  0  0  0  0  0  0  0  0
   61.8060   33.9030   48.9430 O   0  0  0  0  0  0  0  0  0  0  0  0
   63.2090   33.7790   48.7460 C   0  0  0  0  0  0  0  0  0  0  0  0
   63.7138   33.7344   49.7223 H   0  0  0  0  0  0  0  0  0  0  0  0
   63.4201   32.8587   48.1817 H   0  0  0  0  0  0  0  0  0  0  0  0
   63.5782   34.6480   48.1817 H   0  0  0  0  0  0  0  0  0  0  0  0
   59.7090   34.0750   47.7610 C   0  0  0  0  0  0  0  0  0  0  0  0
   59.5243   35.0581   48.2186 H   0  0  0  0  0  0  0  0  0  0  0  0
   58.7790   33.5160   46.8690 C   0  0  0  0  0  0  0  0  0  0  0  0
   57.5850   34.1690   46.5260 O   0  0  0  0  0  0  0  0  0  0  0  0
   57.0470   34.2230   45.2090 C   0  0  0  0  0  0  0  0  0  0  0  0
   55.9539   34.3327   45.2637 H   0  0  0  0  0  0  0  0  0  0  0  0
   57.4754   35.0827   44.6729 H   0  0  0  0  0  0  0  0  0  0  0  0
   57.2960   33.2953   44.6729 H   0  0  0  0  0  0  0  0  0  0  0  0
   59.0400   32.3000   46.3150 N   0  0  0  0  0  0  0  0  0  0  0  0
   58.3490   31.8800   45.6520 H   0  0  0  0  0  0  0  0  0  0  0  0
   58.2730   29.2350   45.8390 C   0  0  0  0  0  0  0  0  0  0  0  0
   57.7770   30.3930   45.2210 O   0  0  0  0  0  0  0  0  0  0  0  0
   57.1650   30.4220   43.9350 C   0  0  0  0  0  0  0  0  0  0  0  0
   56.0723   30.4738   44.0500 H   0  0  0  0  0  0  0  0  0  0  0  0
   57.5176   31.3044   43.3810 H   0  0  0  0  0  0  0  0  0  0  0  0
   57.4326   29.5102   43.3810 H   0  0  0  0  0  0  0  0  0  0  0  0
   57.4680   28.0990   46.0550 C   0  0  0  0  0  0  0  0  0  0  0  0
   56.4205   28.1003   45.7191 H   0  0  0  0  0  0  0  0  0  0  0  0
  1  2  1  0
  2  3  1  0
  2  4  2  0
  4  5  1  0
  5  6  1  0
  6  7  2  0
  6  8  1  0
  8  9  1  0
  9 10  1  0
  9 11  1  0
  9 12  1  0
  8 13  1  0
 13 14  2  0
 13 15  1  0
 15 16  2  0
 16 17  1  0
 16 18  1  0
 18 19  2  0
 19 20  1  0
 19 21  1  0
 21 22  1  0
 21 23  2  0
 23 24  1  0
 24 25  1  0
 25 26  2  0
 26 27  1  0
 27 28  1  0
 28 29  1  0
 29 30  1  0
 29 31  1  0
 29 32  1  0
 27 33  2  0
 33 34  1  0
 33 35  1  0
 35 36  1  0
 36 37  1  0
 37 38  1  0
 37 39  1  0
 37 40  1  0
 35 41  2  0
 41 42  1  0
 23 43  1  0
 43 44  1  0
 44 45  1  0
 45 46  1  0
 45 47  1  0
 45 48  1  0
 43 49  2  0
 49 50  1  0
 15  4  1  0
 49 18  1  0
 41 25  1  0
M  CHG  2   5  -1  41   1
M  END
>  <UniqueID>  (75) 
73

>  <SMILES>  (75) 
C=c1[n-]c(=O)n(C)c(=O)/c1=C\c1ccc(Oc2nc(OC)cc(OC)[nH+]2)c(OC)c1

>  <Energy>  (75) 
78.68716895021674

>  <Genealogy>  (75) 
C=c1[n-]c(=O)n(C)c(=O)c1=Cc1ccc(Oc2nc(OC)cc(OC)[nH+]2)c(OC)c1 (protonated)
C=c1[n-]c(=O)n(C)c(=O)/c1=C\c1ccc(Oc2nc(OC)cc(OC)[nH+]2)c(OC)c1 (cis-trans isomerization)
C=c1[n-]c(=O)n(C)c(=O)/c1=C\c1ccc(Oc2nc(OC)cc(OC)[nH+]2)c(OC)c1 (3D coordinates assigned)
C=c1[n-]c(=O)n(C)c(=O)/c1=C\c1ccc(Oc2nc(OC)cc(OC)[nH+]2)c(OC)c1 (optimized conformer: 78.68716895021674 kcal/mol)

>  <smiles>  (75) 
C=c1[nH]c(=O)n(C)c(=O)c1=Cc1ccc(Oc2nc(OC)cc(OC)n2)c(OC)c1

>  <score_type>  (75) 
oracle

>  <origin>  (75) 
adg

>  <m_score__min__energy>  (75) 
-7.6399999999999997

>  <m_primary>  (75) 
energy

$$$$
75:0
     RDKit          3D

 63 66  0  0  0  0  0  0  0  0999 V2000
   58.0570   25.0080   47.2440 O   0  0  0  0  0  0  0  0  0  0  0  0
   58.8720   25.7130   46.5880 C   0  0  0  0  0  0  0  0  0  0  0  0
   58.5400   26.1190   45.1870 C   0  0  0  0  0  0  0  0  0  0  0  0
   58.3740   27.6120   45.1000 C   0  0  0  0  0  0  0  0  0  0  0  0
   57.1130   28.2030   45.2850 C   0  0  0  0  0  0  0  0  0  0  0  0
   56.9640   29.5900   45.2010 C   0  0  0  0  0  0  0  0  0  0  0  0
   58.0750   30.4070   44.9480 C   0  0  0  0  0  0  0  0  0  0  0  0
   57.8890   32.1600   44.8550 S   0  0  0  0  0  0  0  0  0  0  0  0
   56.4730   32.5260   45.2110 O   0  0  0  0  0  0  0  0  0  0  0  0
   58.1440   32.6100   43.4420 O   0  0  0  0  0  0  0  0  0  0  0  0
   58.9960   32.9910   45.9290 N   0  0  0  0  0  0  0  0  0  0  0  0
   59.9430   33.8580   45.1810 C   0  0  0  0  0  0  0  0  0  0  0  0
   59.6250   35.3550   45.3630 C   0  0  0  0  0  0  0  0  0  0  0  0
   59.6600   35.7630   46.7220 O   0  0  0  0  0  0  0  0  0  0  0  0
   59.1380   34.7950   47.6260 C   0  0  0  0  0  0  0  0  0  0  0  0
   58.2430   33.7260   46.9690 C   0  0  0  0  0  0  0  0  0  0  0  0
   59.3340   29.8190   44.7590 C   0  0  0  0  0  0  0  0  0  0  0  0
   59.4830   28.4310   44.8300 C   0  0  0  0  0  0  0  0  0  0  0  0
   60.1100   26.1390   47.1660 N   0  0  0  0  0  0  0  0  0  0  0  0
   60.2800   27.0940   48.2230 C   0  0  0  0  0  0  0  0  0  0  0  0
   60.7750   26.7310   49.4890 C   0  0  0  0  0  0  0  0  0  0  0  0
   60.9090   27.6950   50.4940 C   0  0  0  0  0  0  0  0  0  0  0  0
   60.5350   29.0190   50.2510 C   0  0  0  0  0  0  0  0  0  0  0  0
   60.0140   29.3840   49.0020 C   0  0  0  0  0  0  0  0  0  0  0  0
   59.5050   31.0380   48.6790 S   0  0  0  0  0  0  0  0  0  0  0  0
   58.3460   31.0540   47.7190 O   0  0  0  0  0  0  0  0  0  0  0  0
   59.0720   31.6690   49.9740 O   0  0  0  0  0  0  0  0  0  0  0  0
   60.8490   31.9240   48.0040 N   0  0  0  0  0  0  0  0  0  0  0  0
   61.3950   32.8510   49.0100 C   0  0  0  0  0  0  0  0  0  0  0  0
   62.4230   33.7980   48.3610 C   0  0  0  0  0  0  0  0  0  0  0  0
   63.0780   33.1850   47.1100 C   0  0  0  0  0  0  0  0  0  0  0  0
   63.2440   31.6700   47.2710 C   0  0  0  0  0  0  0  0  0  0  0  0
   61.8850   30.9800   47.5280 C   0  0  0  0  0  0  0  0  0  0  0  0
   59.8810   28.4180   47.9970 C   0  0  0  0  0  0  0  0  0  0  0  0
   59.3531   25.8048   44.5161 H   0  0  0  0  0  0  0  0  0  0  0  0
   57.5973   25.6368   44.8892 H   0  0  0  0  0  0  0  0  0  0  0  0
   56.2383   27.5707   45.4971 H   0  0  0  0  0  0  0  0  0  0  0  0
   55.9704   30.0429   45.3340 H   0  0  0  0  0  0  0  0  0  0  0  0
   59.5540   32.2440   46.4080 H   0  0  0  0  0  0  0  0  0  0  0  0
   60.9632   33.6653   45.5444 H   0  0  0  0  0  0  0  0  0  0  0  0
   59.8488   33.6190   44.1114 H   0  0  0  0  0  0  0  0  0  0  0  0
   60.3654   35.9426   44.8004 H   0  0  0  0  0  0  0  0  0  0  0  0
   58.6032   35.5242   44.9924 H   0  0  0  0  0  0  0  0  0  0  0  0
   59.9840   34.2850   48.1099 H   0  0  0  0  0  0  0  0  0  0  0  0
   58.5021   35.3417   48.3378 H   0  0  0  0  0  0  0  0  0  0  0  0
   57.9010   33.0174   47.7377 H   0  0  0  0  0  0  0  0  0  0  0  0
   57.3798   34.2219   46.5011 H   0  0  0  0  0  0  0  0  0  0  0  0
   60.2089   30.4534   44.5538 H   0  0  0  0  0  0  0  0  0  0  0  0
   60.4731   27.9779   44.6738 H   0  0  0  0  0  0  0  0  0  0  0  0
   61.0573   25.6868   49.6891 H   0  0  0  0  0  0  0  0  0  0  0  0
   61.3098   27.4098   51.4779 H   0  0  0  0  0  0  0  0  0  0  0  0
   60.6495   29.7760   51.0409 H   0  0  0  0  0  0  0  0  0  0  0  0
   60.5747   33.4449   49.4395 H   0  0  0  0  0  0  0  0  0  0  0  0
   61.8925   32.2696   49.8003 H   0  0  0  0  0  0  0  0  0  0  0  0
   61.9128   34.7288   48.0724 H   0  0  0  0  0  0  0  0  0  0  0  0
   63.2179   33.9857   49.0978 H   0  0  0  0  0  0  0  0  0  0  0  0
   62.4435   33.3875   46.2346 H   0  0  0  0  0  0  0  0  0  0  0  0
   64.0718   33.6367   46.9746 H   0  0  0  0  0  0  0  0  0  0  0  0
   63.6866   31.2584   46.3519 H   0  0  0  0  0  0  0  0  0  0  0  0
   63.8975   31.4824   48.1357 H   0  0  0  0  0  0  0  0  0  0  0  0
   61.5396   30.5214   46.5897 H   0  0  0  0  0  0  0  0  0  0  0  0
   62.0370   30.2270   48.3153 H   0  0  0  0  0  0  0  0  0  0  0  0
   59.4595   28.7012   47.0212 H   0  0  0  0  0  0  0  0  0  0  0  0
  1  2  2  0
  2  3  1  0
  3  4  1  0
  4  5  2  0
  5  6  1  0
  6  7  2  0
  7  8  1  0
  8  9  2  0
  8 10  2  0
  8 11  1  0
 11 12  1  0
 12 13  1  0
 13 14  1  0
 14 15  1  0
 15 16  1  0
  7 17  1  0
 17 18  2  0
  2 19  1  0
 19 20  1  0
 20 21  2  0
 21 22  1  0
 22 23  2  0
 23 24  1  0
 24 25  1  0
 25 26  2  0
 25 27  2  0
 25 28  1  0
 28 29  1  0
 29 30  1  0
 30 31  1  0
 31 32  1  0
 32 33  1  0
 24 34  2  0
 18  4  1  0
 34 20  1  0
 16 11  1  0
 33 28  1  0
  3 35  1  0
  3 36  1  0
  5 37  1  0
  6 38  1  0
 11 39  1  0
 12 40  1  0
 12 41  1  0
 13 42  1  0
 13 43  1  0
 15 44  1  0
 15 45  1  0
 16 46  1  0
 16 47  1  0
 17 48  1  0
 18 49  1  0
 21 50  1  0
 22 51  1  0
 23 52  1  0
 29 53  1  0
 29 54  1  0
 30 55  1  0
 30 56  1  0
 31 57  1  0
 31 58  1  0
 32 59  1  0
 32 60  1  0
 33 61  1  0
 33 62  1  0
 34 63  1  0
M  CHG  2  11   1  19  -1
M  END
>  <UniqueID>  (76) 
74

>  <SMILES>  (76) 
O=C(Cc1ccc(S(=O)(=O)[NH+]2CCOCC2)cc1)[N-]c1cccc(S(=O)(=O)N2CCCCC2)c1

>  <Energy>  (76) 
81.20313464226366

>  <Genealogy>  (76) 
O=C(Cc1ccc(S(=O)(=O)[NH+]2CCOCC2)cc1)[N-]c1cccc(S(=O)(=O)N2CCCCC2)c1 (protonated)
O=C(Cc1ccc(S(=O)(=O)[NH+]2CCOCC2)cc1)[N-]c1cccc(S(=O)(=O)N2CCCCC2)c1 (3D coordinates assigned)
O=C(Cc1ccc(S(=O)(=O)[NH+]2CCOCC2)cc1)[N-]c1cccc(S(=O)(=O)N2CCCCC2)c1 (nonaromatic ring conformer: 81.20313464226366 kcal/mol)

>  <smiles>  (76) 
O=C(Cc1ccc(S(=O)(=O)N2CCOCC2)cc1)Nc1cccc(S(=O)(=O)N2CCCCC2)c1

>  <score_type>  (76) 
oracle

>  <origin>  (76) 
adg

>  <m_score__min__energy>  (76) 
-12.130000000000001

>  <m_primary>  (76) 
energy

$$$$
76:0
     RDKit          3D

 21 22  0  0  0  0  0  0  0  0999 V2000
   58.4807   26.3126   44.1544 H   0  0  0  0  0  0  0  0  0  0  0  0
   58.2180   27.1920   43.5480 C   0  0  0  0  0  0  0  0  0  0  0  0
   58.3879   27.1814   42.4613 H   0  0  0  0  0  0  0  0  0  0  0  0
   57.6920   28.2740   44.1320 C   0  0  0  0  0  0  0  0  0  0  0  0
   57.3080   28.4680   45.4670 C   0  0  0  0  0  0  0  0  0  0  0  0
   57.4660   27.6770   46.5440 C   0  0  0  0  0  0  0  0  0  0  0  0
   57.8978   28.1360   47.4456 H   0  0  0  0  0  0  0  0  0  0  0  0
   57.1100   26.2470   46.6200 C   0  0  0  0  0  0  0  0  0  0  0  0
   55.8090   25.8050   46.3270 C   0  0  0  0  0  0  0  0  0  0  0  0
   54.8090   26.7130   45.9940 O   0  0  0  0  0  0  0  0  0  0  0  0
   55.5200   24.4780   46.3630 N   0  0  0  0  0  0  0  0  0  0  0  0
   56.4750   23.5620   46.6630 C   0  0  0  0  0  0  0  0  0  0  0  0
   56.1840   22.3380   46.6950 O   0  0  0  0  0  0  0  0  0  0  0  0
   57.7450   23.9630   46.9230 N   0  0  0  0  0  0  0  0  0  0  0  0
   58.0840   25.2780   46.9010 C   0  0  0  0  0  0  0  0  0  0  0  0
   59.2750   25.6150   47.1410 O   0  0  0  0  0  0  0  0  0  0  0  0
   56.7010   29.6710   45.5720 N   0  0  0  0  0  0  0  0  0  0  0  0
   56.7570   30.1820   44.3270 C   0  0  0  0  0  0  0  0  0  0  0  0
   56.2850   31.3100   44.0270 O   0  0  0  0  0  0  0  0  0  0  0  0
   57.3540   29.3740   43.4350 N   0  0  0  0  0  0  0  0  0  0  0  0
   57.4840   29.5520   42.4130 H   0  0  0  0  0  0  0  0  0  0  0  0
  1  2  1  0
  2  3  1  0
  2  4  2  0
  4  5  1  0
  5  6  2  0
  6  7  1  0
  6  8  1  0
  8  9  2  0
  9 10  1  0
  9 11  1  0
 11 12  1  0
 12 13  2  0
 12 14  1  0
 14 15  1  0
 15 16  2  0
  5 17  1  0
 17 18  1  0
 18 19  2  0
 18 20  1  0
 20 21  1  0
 20  4  1  0
 15  8  1  0
M  CHG  4  10  -1  11  -1  14  -1  17  -1
M  END
>  <UniqueID>  (77) 
75

>  <SMILES>  (77) 
C=c1[nH]c(=O)[n-]/c1=C/c1c([O-])[n-]c(=O)[n-]c1=O

>  <Energy>  (77) 
67.17225203321553

>  <Genealogy>  (77) 
C=c1[nH]c(=O)[n-]c1=Cc1c([O-])[n-]c(=O)[n-]c1=O (protonated)
C=c1[nH]c(=O)[n-]/c1=C/c1c([O-])[n-]c(=O)[n-]c1=O (cis-trans isomerization)
C=c1[nH]c(=O)[n-]/c1=C/c1c([O-])[n-]c(=O)[n-]c1=O (3D coordinates assigned)
C=c1[nH]c(=O)[n-]/c1=C/c1c([O-])[n-]c(=O)[n-]c1=O (optimized conformer: 67.17225203321553 kcal/mol)

>  <smiles>  (77) 
C=c1[nH]c(=O)[nH]c1=Cc1c(O)[nH]c(=O)[nH]c1=O

>  <score_type>  (77) 
oracle

>  <origin>  (77) 
adg

>  <m_score__min__energy>  (77) 
-14.76

>  <m_primary>  (77) 
energy

$$$$
77:0
     RDKit          3D

 56 57  0  0  0  0  0  0  0  0999 V2000
   59.8870   28.6050   46.6670 C   0  0  0  0  0  0  0  0  0  0  0  0
   58.7200   28.2540   45.7410 C   0  0  2  0  0  0  0  0  0  0  0  0
   57.9680   29.4630   45.3850 N   0  0  0  0  0  0  0  0  0  0  0  0
   57.1970   29.5600   44.1770 C   0  0  0  0  0  0  0  0  0  0  0  0
   57.0380   28.5520   43.4360 O   0  0  0  0  0  0  0  0  0  0  0  0
   56.5790   30.8700   43.7850 C   0  0  0  0  0  0  0  0  0  0  0  0
   56.8440   31.8910   44.8070 N   0  0  0  0  0  0  0  0  0  0  0  0
   57.7300   32.9460   44.2960 C   0  0  0  0  0  0  0  0  0  0  0  0
   58.5270   33.5190   45.4350 C   0  0  0  0  0  0  0  0  0  0  0  0
   59.1930   34.7440   45.2920 C   0  0  0  0  0  0  0  0  0  0  0  0
   59.9050   35.2820   46.3630 C   0  0  0  0  0  0  0  0  0  0  0  0
   59.9490   34.6110   47.5890 C   0  0  0  0  0  0  0  0  0  0  0  0
   59.2710   33.3870   47.7650 C   0  0  0  0  0  0  0  0  0  0  0  0
   59.2960   32.7000   49.0420 N   0  0  0  0  0  0  0  0  0  0  0  0
   58.9280   31.2820   49.1280 C   0  0  0  0  0  0  0  0  0  0  0  0
   59.6600   33.4180   50.2700 C   0  0  0  0  0  0  0  0  0  0  0  0
   58.5590   32.8520   46.6720 C   0  0  0  0  0  0  0  0  0  0  0  0
   57.8130   27.2400   46.3920 C   0  0  0  0  0  0  0  0  0  0  0  0
   57.9140   27.0360   47.6340 O   0  0  0  0  0  0  0  0  0  0  0  0
   56.8260   26.5370   45.6140 N   0  0  0  0  0  0  0  0  0  0  0  0
   56.0480   25.4390   46.1190 C   0  0  0  0  0  0  0  0  0  0  0  0
   56.2750   24.9660   47.2670 O   0  0  0  0  0  0  0  0  0  0  0  0
   54.9710   24.8230   45.2740 C   0  0  0  0  0  0  0  0  0  0  0  0
   55.4820   23.5730   44.6090 C   0  0  0  0  0  0  0  0  0  0  0  0
   55.5440   22.3670   45.3250 C   0  0  0  0  0  0  0  0  0  0  0  0
   55.9800   21.2050   44.6790 C   0  0  0  0  0  0  0  0  0  0  0  0
   56.3320   21.2470   43.3650 N   0  0  0  0  0  0  0  0  0  0  0  0
   56.2780   22.4020   42.6450 C   0  0  0  0  0  0  0  0  0  0  0  0
   55.8480   23.5860   43.2510 C   0  0  0  0  0  0  0  0  0  0  0  0
   59.5657   28.5084   47.7146 H   0  0  0  0  0  0  0  0  0  0  0  0
   60.7257   27.9194   46.4760 H   0  0  0  0  0  0  0  0  0  0  0  0
   60.2083   29.6395   46.4760 H   0  0  0  0  0  0  0  0  0  0  0  0
   59.1276   27.8122   44.8197 H   0  0  0  0  0  0  0  0  0  0  0  0
   58.0000   30.2990   46.0150 H   0  0  0  0  0  0  0  0  0  0  0  0
   57.0057   31.1988   42.8259 H   0  0  0  0  0  0  0  0  0  0  0  0
   55.4913   30.7357   43.6905 H   0  0  0  0  0  0  0  0  0  0  0  0
   55.9290   32.3360   45.0570 H   0  0  0  0  0  0  0  0  0  0  0  0
   58.4135   32.5209   43.5463 H   0  0  0  0  0  0  0  0  0  0  0  0
   57.1278   33.7403   43.8308 H   0  0  0  0  0  0  0  0  0  0  0  0
   59.1538   35.2817   44.3332 H   0  0  0  0  0  0  0  0  0  0  0  0
   60.4346   36.2387   46.2431 H   0  0  0  0  0  0  0  0  0  0  0  0
   60.5186   35.0425   48.4252 H   0  0  0  0  0  0  0  0  0  0  0  0
   58.8513   30.9865   50.1848 H   0  0  0  0  0  0  0  0  0  0  0  0
   57.9591   31.1239   48.6318 H   0  0  0  0  0  0  0  0  0  0  0  0
   59.6978   30.6727   48.6318 H   0  0  0  0  0  0  0  0  0  0  0  0
   59.3587   32.8237   51.1452 H   0  0  0  0  0  0  0  0  0  0  0  0
   60.7481   33.5780   50.2924 H   0  0  0  0  0  0  0  0  0  0  0  0
   59.1459   34.3902   50.2924 H   0  0  0  0  0  0  0  0  0  0  0  0
   58.0212   31.8996   46.7888 H   0  0  0  0  0  0  0  0  0  0  0  0
   56.6590   26.8510   44.6350 H   0  0  0  0  0  0  0  0  0  0  0  0
   54.1102   24.5699   45.9104 H   0  0  0  0  0  0  0  0  0  0  0  0
   54.6673   25.5427   44.4995 H   0  0  0  0  0  0  0  0  0  0  0  0
   55.2522   22.3359   46.3851 H   0  0  0  0  0  0  0  0  0  0  0  0
   56.0383   20.2568   45.2336 H   0  0  0  0  0  0  0  0  0  0  0  0
   56.5731   22.4030   41.5853 H   0  0  0  0  0  0  0  0  0  0  0  0
   55.7963   24.5193   42.6711 H   0  0  0  0  0  0  0  0  0  0  0  0
  1  2  1  0
  2  3  1  0
  3  4  1  0
  4  5  2  0
  4  6  1  0
  6  7  1  0
  7  8  1  0
  8  9  1  0
  9 10  2  0
 10 11  1  0
 11 12  2  0
 12 13  1  0
 13 14  1  0
 14 15  1  0
 14 16  1  0
 13 17  2  0
  2 18  1  0
 18 19  2  0
 18 20  1  0
 20 21  1  0
 21 22  2  0
 21 23  1  0
 23 24  1  0
 24 25  2  0
 25 26  1  0
 26 27  2  0
 27 28  1  0
 28 29  2  0
 17  9  1  0
 29 24  1  0
  1 30  1  0
  1 31  1  0
  1 32  1  0
  2 33  1  6
  3 34  1  0
  6 35  1  0
  6 36  1  0
  7 37  1  0
  8 38  1  0
  8 39  1  0
 10 40  1  0
 11 41  1  0
 12 42  1  0
 15 43  1  0
 15 44  1  0
 15 45  1  0
 16 46  1  0
 16 47  1  0
 16 48  1  0
 17 49  1  0
 20 50  1  0
 23 51  1  0
 23 52  1  0
 25 53  1  0
 26 54  1  0
 28 55  1  0
 29 56  1  0
M  END
>  <UniqueID>  (78) 
76

>  <SMILES>  (78) 
C[C@H](NC(=O)CNCc1cccc(N(C)C)c1)C(=O)NC(=O)Cc1ccncc1

>  <Energy>  (78) 
46.74388297974012

>  <Genealogy>  (78) 
C[C@H](NC(=O)CNCc1cccc(N(C)C)c1)C(=O)NC(=O)Cc1ccncc1 (chirality)
C[C@H](NC(=O)CNCc1cccc(N(C)C)c1)C(=O)NC(=O)Cc1ccncc1 (3D coordinates assigned)
C[C@H](NC(=O)CNCc1cccc(N(C)C)c1)C(=O)NC(=O)Cc1ccncc1 (optimized conformer: 46.74388297974012 kcal/mol)

>  <smiles>  (78) 
CC(NC(=O)CNCc1cccc(N(C)C)c1)C(=O)NC(=O)Cc1ccncc1

>  <score_type>  (78) 
oracle

>  <origin>  (78) 
adg

>  <m_score__min__energy>  (78) 
-9.4299999999999997

>  <m_primary>  (78) 
energy

$$$$
78:0
     RDKit          3D

 68 71  0  0  0  0  0  0  0  0999 V2000
   56.5180   22.6700   42.3350 N   0  0  0  0  0  0  0  0  0  0  0  0
   56.3880   22.0710   43.6280 C   0  0  0  0  0  0  0  0  0  0  0  0
   56.2210   20.8220   43.7030 O   0  0  0  0  0  0  0  0  0  0  0  0
   56.4130   22.8860   44.8700 C   0  0  0  0  0  0  0  0  0  0  0  0
   56.9340   22.3720   46.0720 C   0  0  0  0  0  0  0  0  0  0  0  0
   56.9910   23.1710   47.2170 C   0  0  0  0  0  0  0  0  0  0  0  0
   56.5160   24.4820   47.1840 C   0  0  0  0  0  0  0  0  0  0  0  0
   55.9480   24.9970   46.0150 C   0  0  0  0  0  0  0  0  0  0  0  0
   55.4850   26.3540   46.0100 N   0  0  0  0  0  0  0  0  0  0  0  0
   56.2580   27.4910   45.6100 C   0  0  0  0  0  0  0  0  0  0  0  0
   55.6860   28.5400   45.2040 O   0  0  0  0  0  0  0  0  0  0  0  0
   57.7470   27.4630   45.7850 C   0  0  0  0  0  0  0  0  0  0  0  0
   58.2660   28.7780   46.3070 C   0  0  0  0  0  0  0  0  0  0  0  0
   58.9140   28.8430   47.5500 C   0  0  0  0  0  0  0  0  0  0  0  0
   59.3870   30.0660   48.0310 C   0  0  0  0  0  0  0  0  0  0  0  0
   59.1990   31.2360   47.2880 C   0  0  0  0  0  0  0  0  0  0  0  0
   58.5220   31.1910   46.0560 C   0  0  0  0  0  0  0  0  0  0  0  0
   58.3110   32.3630   45.2560 N   0  0  0  0  0  0  0  0  0  0  0  0
   58.2440   33.7220   45.7160 C   0  0  0  0  0  0  0  0  0  0  0  0
   57.1730   34.3780   45.6230 O   0  0  0  0  0  0  0  0  0  0  0  0
   59.4920   34.4150   46.1980 C   0  0  0  0  0  0  0  0  0  0  0  0
   59.3300   34.9510   47.6450 C   0  0  0  0  0  0  0  0  0  0  0  0
   60.0040   34.0560   48.6920 C   0  0  0  0  0  0  0  0  0  0  0  0
   61.4230   33.8480   48.3580 N   0  0  0  0  0  0  0  0  0  0  0  0
   62.4030   33.6440   49.3950 C   0  0  0  0  0  0  0  0  0  0  0  0
   63.6050   33.9650   49.1840 O   0  0  0  0  0  0  0  0  0  0  0  0
   62.0100   33.0960   50.7450 C   0  0  0  0  0  0  0  0  0  0  0  0
   61.1650   31.8210   50.6210 C   0  0  0  0  0  0  0  0  0  0  0  0
   59.8000   32.0290   51.2220 C   0  0  0  0  0  0  0  0  0  0  0  0
   58.8080   31.0430   51.0830 C   0  0  0  0  0  0  0  0  0  0  0  0
   57.5330   31.2500   51.6170 C   0  0  0  0  0  0  0  0  0  0  0  0
   57.2350   32.4450   52.2790 C   0  0  0  0  0  0  0  0  0  0  0  0
   58.2120   33.4370   52.4060 C   0  0  0  0  0  0  0  0  0  0  0  0
   59.4910   33.2320   51.8770 C   0  0  0  0  0  0  0  0  0  0  0  0
   61.8600   33.8770   46.9550 C   0  0  0  0  0  0  0  0  0  0  0  0
   60.7100   33.4800   46.0270 C   0  0  0  0  0  0  0  0  0  0  0  0
   58.0760   29.9570   45.5650 C   0  0  0  0  0  0  0  0  0  0  0  0
   55.9090   24.2010   44.8560 C   0  0  0  0  0  0  0  0  0  0  0  0
   56.5380   22.0680   41.4820 H   0  0  0  0  0  0  0  0  0  0  0  0
   56.4860   23.7040   42.2000 H   0  0  0  0  0  0  0  0  0  0  0  0
   57.2986   21.3349   46.1104 H   0  0  0  0  0  0  0  0  0  0  0  0
   57.4122   22.7643   48.1482 H   0  0  0  0  0  0  0  0  0  0  0  0
   56.5886   25.1135   48.0817 H   0  0  0  0  0  0  0  0  0  0  0  0
   58.0083   26.6671   46.4979 H   0  0  0  0  0  0  0  0  0  0  0  0
   58.2067   27.2754   44.8034 H   0  0  0  0  0  0  0  0  0  0  0  0
   59.0497   27.9289   48.1467 H   0  0  0  0  0  0  0  0  0  0  0  0
   59.9095   30.1092   48.9980 H   0  0  0  0  0  0  0  0  0  0  0  0
   59.5819   32.1945   47.6684 H   0  0  0  0  0  0  0  0  0  0  0  0
   59.6706   35.3052   45.5770 H   0  0  0  0  0  0  0  0  0  0  0  0
   59.7782   35.9541   47.6999 H   0  0  0  0  0  0  0  0  0  0  0  0
   58.2537   34.9705   47.8712 H   0  0  0  0  0  0  0  0  0  0  0  0
   59.9313   34.5361   49.6790 H   0  0  0  0  0  0  0  0  0  0  0  0
   59.4957   33.0806   48.7056 H   0  0  0  0  0  0  0  0  0  0  0  0
   62.9224   32.8640   51.3140 H   0  0  0  0  0  0  0  0  0  0  0  0
   61.4050   33.8574   51.2590 H   0  0  0  0  0  0  0  0  0  0  0  0
   61.0560   31.5616   49.5576 H   0  0  0  0  0  0  0  0  0  0  0  0
   61.6701   31.0070   51.1616 H   0  0  0  0  0  0  0  0  0  0  0  0
   59.0356   30.1064   50.5528 H   0  0  0  0  0  0  0  0  0  0  0  0
   56.7626   30.4713   51.5163 H   0  0  0  0  0  0  0  0  0  0  0  0
   56.2314   32.6047   52.7001 H   0  0  0  0  0  0  0  0  0  0  0  0
   57.9751   34.3791   52.9220 H   0  0  0  0  0  0  0  0  0  0  0  0
   60.2568   34.0156   51.9745 H   0  0  0  0  0  0  0  0  0  0  0  0
   62.1954   34.8934   46.7013 H   0  0  0  0  0  0  0  0  0  0  0  0
   62.6854   33.1616   46.8247 H   0  0  0  0  0  0  0  0  0  0  0  0
   61.0576   33.5337   44.9848 H   0  0  0  0  0  0  0  0  0  0  0  0
   60.3974   32.4574   46.2849 H   0  0  0  0  0  0  0  0  0  0  0  0
   57.5718   29.9100   44.5885 H   0  0  0  0  0  0  0  0  0  0  0  0
   55.4804   24.6098   43.9291 H   0  0  0  0  0  0  0  0  0  0  0  0
  1  2  1  0
  2  3  2  0
  2  4  1  0
  4  5  2  0
  5  6  1  0
  6  7  2  0
  7  8  1  0
  8  9  1  0
  9 10  1  0
 10 11  2  0
 10 12  1  0
 12 13  1  0
 13 14  2  0
 14 15  1  0
 15 16  2  0
 16 17  1  0
 17 18  1  0
 18 19  1  0
 19 20  2  0
 19 21  1  0
 21 22  1  0
 22 23  1  0
 23 24  1  0
 24 25  1  0
 25 26  2  0
 25 27  1  0
 27 28  1  0
 28 29  1  0
 29 30  2  0
 30 31  1  0
 31 32  2  0
 32 33  1  0
 33 34  2  0
 24 35  1  0
 35 36  1  0
 17 37  2  0
  8 38  2  0
 38  4  1  0
 37 13  1  0
 36 21  1  0
 34 29  1  0
  1 39  1  0
  1 40  1  0
  5 41  1  0
  6 42  1  0
  7 43  1  0
 12 44  1  0
 12 45  1  0
 14 46  1  0
 15 47  1  0
 16 48  1  0
 21 49  1  0
 22 50  1  0
 22 51  1  0
 23 52  1  0
 23 53  1  0
 27 54  1  0
 27 55  1  0
 28 56  1  0
 28 57  1  0
 30 58  1  0
 31 59  1  0
 32 60  1  0
 33 61  1  0
 34 62  1  0
 35 63  1  0
 35 64  1  0
 36 65  1  0
 36 66  1  0
 37 67  1  0
 38 68  1  0
M  CHG  2   9  -1  18  -1
M  END
>  <UniqueID>  (79) 
77

>  <SMILES>  (79) 
NC(=O)c1cccc([N-]C(=O)Cc2cccc([N-]C(=O)C3CCN(C(=O)CCc4ccccc4)CC3)c2)c1

>  <Energy>  (79) 
78.2523121216818

>  <Genealogy>  (79) 
NC(=O)c1cccc([N-]C(=O)Cc2cccc([N-]C(=O)C3CCN(C(=O)CCc4ccccc4)CC3)c2)c1 (protonated)
NC(=O)c1cccc([N-]C(=O)Cc2cccc([N-]C(=O)C3CCN(C(=O)CCc4ccccc4)CC3)c2)c1 (3D coordinates assigned)
NC(=O)c1cccc([N-]C(=O)Cc2cccc([N-]C(=O)C3CCN(C(=O)CCc4ccccc4)CC3)c2)c1 (nonaromatic ring conformer: 78.2523121216818 kcal/mol)

>  <smiles>  (79) 
NC(=O)c1cccc(NC(=O)Cc2cccc(NC(=O)C3CCN(C(=O)CCc4ccccc4)CC3)c2)c1

>  <score_type>  (79) 
oracle

>  <origin>  (79) 
adg

>  <m_score__min__energy>  (79) 
-13.41

>  <m_primary>  (79) 
energy

$$$$
79:0
     RDKit          3D

 32 34  0  0  0  0  0  0  0  0999 V2000
   55.1630   23.7430   47.4040 O   0  0  0  0  0  0  0  0  0  0  0  0
   55.2970   24.1840   46.2320 C   0  0  0  0  0  0  0  0  0  0  0  0
   55.1380   25.5950   46.0090 N   0  0  0  0  0  0  0  0  0  0  0  0
   56.1010   26.4650   45.9250 C   0  0  0  0  0  0  0  0  0  0  0  0
   57.3850   26.1390   46.1710 N   0  0  0  0  0  0  0  0  0  0  0  0
   58.0470   27.2970   46.0010 C   0  0  0  0  0  0  0  0  0  0  0  0
   57.1480   28.2910   45.6630 C   0  0  0  0  0  0  0  0  0  0  0  0
   57.4450   29.7140   45.3730 C   0  0  0  0  0  0  0  0  0  0  0  0
   57.0400   30.3170   44.1680 C   0  0  0  0  0  0  0  0  0  0  0  0
   57.3280   31.6610   43.9130 C   0  0  0  0  0  0  0  0  0  0  0  0
   58.0260   32.4330   44.8550 C   0  0  0  0  0  0  0  0  0  0  0  0
   58.3200   33.8180   44.5880 N   0  0  0  0  0  0  0  0  0  0  0  0
   57.4310   34.6880   44.6930 O   0  0  0  0  0  0  0  0  0  0  0  0
   59.5870   34.2040   44.2140 O   0  0  0  0  0  0  0  0  0  0  0  0
   58.4330   31.8320   46.0590 C   0  0  0  0  0  0  0  0  0  0  0  0
   58.1460   30.4880   46.3140 C   0  0  0  0  0  0  0  0  0  0  0  0
   55.9100   27.7660   45.6210 N   0  0  0  0  0  0  0  0  0  0  0  0
   55.6580   23.2440   45.1450 C   0  0  0  0  0  0  0  0  0  0  0  0
   55.6880   23.6840   43.8120 C   0  0  0  0  0  0  0  0  0  0  0  0
   56.0240   22.7860   42.7960 C   0  0  0  0  0  0  0  0  0  0  0  0
   56.3080   21.4910   43.0960 N   0  0  0  0  0  0  0  0  0  0  0  0
   56.2710   21.0320   44.3740 C   0  0  0  0  0  0  0  0  0  0  0  0
   55.9400   21.8950   45.4200 C   0  0  0  0  0  0  0  0  0  0  0  0
   59.1329   27.4320   46.1132 H   0  0  0  0  0  0  0  0  0  0  0  0
   56.4918   29.7256   43.4199 H   0  0  0  0  0  0  0  0  0  0  0  0
   57.0048   32.1176   42.9659 H   0  0  0  0  0  0  0  0  0  0  0  0
   58.9816   32.4241   46.8063 H   0  0  0  0  0  0  0  0  0  0  0  0
   58.4719   30.0315   47.2603 H   0  0  0  0  0  0  0  0  0  0  0  0
   55.4483   24.7297   43.5691 H   0  0  0  0  0  0  0  0  0  0  0  0
   56.0588   23.1276   41.7510 H   0  0  0  0  0  0  0  0  0  0  0  0
   56.5025   19.9776   44.5851 H   0  0  0  0  0  0  0  0  0  0  0  0
   55.9001   21.5212   46.4538 H   0  0  0  0  0  0  0  0  0  0  0  0
  1  2  2  0
  2  3  1  0
  3  4  2  3
  4  5  1  0
  5  6  1  0
  6  7  2  0
  7  8  1  0
  8  9  2  0
  9 10  1  0
 10 11  2  0
 11 12  1  0
 12 13  2  0
 12 14  1  0
 11 15  1  0
 15 16  2  0
  7 17  1  0
  2 18  1  0
 18 19  2  0
 19 20  1  0
 20 21  2  0
 21 22  1  0
 22 23  2  0
 17  4  1  0
 23 18  1  0
 16  8  1  0
  6 24  1  0
  9 25  1  0
 10 26  1  0
 15 27  1  0
 16 28  1  0
 19 29  1  0
 20 30  1  0
 22 31  1  0
 23 32  1  0
M  CHG  4   5  -1  12   1  14  -1  17  -1
M  END
>  <UniqueID>  (80) 
78

>  <SMILES>  (80) 
O=C(N=c1[n-]cc(-c2ccc([N+](=O)[O-])cc2)[n-]1)c1ccncc1

>  <Energy>  (80) 
73.29389734292805

>  <Genealogy>  (80) 
O=C(N=c1[n-]cc(-c2ccc([N+](=O)[O-])cc2)[n-]1)c1ccncc1 (protonated)
O=C(N=c1[n-]cc(-c2ccc([N+](=O)[O-])cc2)[n-]1)c1ccncc1 (3D coordinates assigned)
O=C(N=c1[n-]cc(-c2ccc([N+](=O)[O-])cc2)[n-]1)c1ccncc1 (optimized conformer: 73.29389734292805 kcal/mol)

>  <smiles>  (80) 
O=C(N=c1[nH]cc(-c2ccc([N+](=O)[O-])cc2)[nH]1)c1ccncc1

>  <score_type>  (80) 
oracle

>  <origin>  (80) 
adg

>  <m_score__min__energy>  (80) 
-10.91

>  <m_primary>  (80) 
energy

$$$$
80:0
     RDKit          3D

 61 65  0  0  0  0  0  0  0  0999 V2000
   55.4928   30.9518   50.8725 H   0  0  0  0  0  0  0  0  0  0  0  0
   54.4730   30.8580   51.2740 C   0  0  0  0  0  0  0  0  0  0  0  0
   53.6063   31.0499   50.6244 H   0  0  0  0  0  0  0  0  0  0  0  0
   54.2860   30.5090   52.5580 C   0  0  0  0  0  0  0  0  0  0  0  0
   53.0590   30.3460   53.2240 C   0  0  0  0  0  0  0  0  0  0  0  0
   51.8010   30.6520   52.8490 C   0  0  0  0  0  0  0  0  0  0  0  0
   51.0227   30.6125   53.6253 H   0  0  0  0  0  0  0  0  0  0  0  0
   51.3760   31.0350   51.4900 C   0  0  0  0  0  0  0  0  0  0  0  0
   51.4090   30.2140   50.4220 N   0  0  0  0  0  0  0  0  0  0  0  0
   51.1070   31.0330   49.3920 C   0  0  0  0  0  0  0  0  0  0  0  0
   51.0280   30.6220   48.2050 O   0  0  0  0  0  0  0  0  0  0  0  0
   50.9120   32.3270   49.7330 N   0  0  0  0  0  0  0  0  0  0  0  0
   51.1010   32.3120   51.0610 C   0  0  0  0  0  0  0  0  0  0  0  0
   51.0320   33.4450   51.8660 O   0  0  0  0  0  0  0  0  0  0  0  0
   53.3610   29.7990   54.4610 C   0  0  0  0  0  0  0  0  0  0  0  0
   52.6424   29.4962   55.2368 H   0  0  0  0  0  0  0  0  0  0  0  0
   54.7360   29.7070   54.5330 C   0  0  0  0  0  0  0  0  0  0  0  0
   55.5020   29.1850   55.7110 C   0  0  0  0  0  0  0  0  0  0  0  0
   55.0159   29.5163   56.6405 H   0  0  0  0  0  0  0  0  0  0  0  0
   55.5203   28.0856   55.6785 H   0  0  0  0  0  0  0  0  0  0  0  0
   56.5319   29.5700   55.6785 H   0  0  0  0  0  0  0  0  0  0  0  0
   55.2970   30.1380   53.3850 N   0  0  0  0  0  0  0  0  0  0  0  0
   56.7020   30.1130   53.0860 C   0  0  0  0  0  0  0  0  0  0  0  0
   57.3040   31.1980   52.4330 C   0  0  0  0  0  0  0  0  0  0  0  0
   56.6995   32.0740   52.1551 H   0  0  0  0  0  0  0  0  0  0  0  0
   58.6680   31.1710   52.1340 C   0  0  0  0  0  0  0  0  0  0  0  0
   59.1315   32.0270   51.6218 H   0  0  0  0  0  0  0  0  0  0  0  0
   59.4540   30.0570   52.4830 C   0  0  0  0  0  0  0  0  0  0  0  0
   60.9050   30.0350   52.1840 C   0  0  0  0  0  0  0  0  0  0  0  0
   61.7060   29.4500   52.9630 O   0  0  0  0  0  0  0  0  0  0  0  0
   61.4210   30.7070   51.0300 N   0  0  0  0  0  0  0  0  0  0  0  0
   61.4550   30.0110   49.7400 C   0  0  0  0  0  0  0  0  0  0  0  0
   62.4741   29.6416   49.5531 H   0  0  0  0  0  0  0  0  0  0  0  0
   60.7494   29.1676   49.7682 H   0  0  0  0  0  0  0  0  0  0  0  0
   61.0470   30.9690   48.6100 C   0  0  0  0  0  0  0  0  0  0  0  0
   61.3931   30.5546   47.6516 H   0  0  0  0  0  0  0  0  0  0  0  0
   59.9517   31.0688   48.6301 H   0  0  0  0  0  0  0  0  0  0  0  0
   61.6280   32.3130   48.7840 N   0  0  0  0  0  0  0  0  0  0  0  0
   61.2420   33.3930   47.9060 C   0  0  0  0  0  0  0  0  0  0  0  0
   61.4360   34.5890   48.2570 O   0  0  0  0  0  0  0  0  0  0  0  0
   60.6450   33.1390   46.5440 C   0  0  0  0  0  0  0  0  0  0  0  0
   61.0793   33.8644   45.8403 H   0  0  0  0  0  0  0  0  0  0  0  0
   60.8810   32.0939   46.2948 H   0  0  0  0  0  0  0  0  0  0  0  0
   59.1010   33.2640   46.4720 C   0  0  0  0  0  0  0  0  0  0  0  0
   58.9352   32.1919   46.6541 H   0  0  0  0  0  0  0  0  0  0  0  0
   58.5870   34.6010   46.9840 C   0  0  0  0  0  0  0  0  0  0  0  0
   57.6998   34.6360   47.6334 H   0  0  0  0  0  0  0  0  0  0  0  0
   59.0289   35.4407   47.5404 H   0  0  0  0  0  0  0  0  0  0  0  0
   58.4370   34.2500   45.5120 C   0  0  0  0  0  0  0  0  0  0  0  0
   57.4423   34.0294   45.0974 H   0  0  0  0  0  0  0  0  0  0  0  0
   58.7254   34.7281   44.5642 H   0  0  0  0  0  0  0  0  0  0  0  0
   62.5950   32.5450   49.8670 C   0  0  0  0  0  0  0  0  0  0  0  0
   63.5298   32.0105   49.6426 H   0  0  0  0  0  0  0  0  0  0  0  0
   62.7954   33.6234   49.9501 H   0  0  0  0  0  0  0  0  0  0  0  0
   62.0230   32.0340   51.1910 C   0  0  0  0  0  0  0  0  0  0  0  0
   62.8332   31.9731   51.9325 H   0  0  0  0  0  0  0  0  0  0  0  0
   61.2426   32.7327   51.5267 H   0  0  0  0  0  0  0  0  0  0  0  0
   58.8410   28.9710   53.1340 C   0  0  0  0  0  0  0  0  0  0  0  0
   59.4419   28.0925   53.4119 H   0  0  0  0  0  0  0  0  0  0  0  0
   57.4750   28.9980   53.4310 C   0  0  0  0  0  0  0  0  0  0  0  0
   57.0065   28.1410   53.9370 H   0  0  0  0  0  0  0  0  0  0  0  0
  1  2  1  0
  2  3  1  0
  2  4  2  0
  4  5  1  0
  5  6  2  0
  6  7  1  0
  6  8  1  0
  8  9  1  0
  9 10  1  0
 10 11  2  0
 10 12  1  0
 12 13  1  0
 13 14  1  0
  5 15  1  0
 15 16  1  0
 15 17  2  0
 17 18  1  0
 18 19  1  0
 18 20  1  0
 18 21  1  0
 17 22  1  0
 22 23  1  0
 23 24  2  0
 24 25  1  0
 24 26  1  0
 26 27  1  0
 26 28  2  0
 28 29  1  0
 29 30  2  0
 29 31  1  0
 31 32  1  0
 32 33  1  0
 32 34  1  0
 32 35  1  0
 35 36  1  0
 35 37  1  0
 35 38  1  0
 38 39  1  0
 39 40  2  0
 39 41  1  0
 41 42  1  0
 41 43  1  0
 41 44  1  0
 44 45  1  0
 44 46  1  0
 46 47  1  0
 46 48  1  0
 46 49  1  0
 49 50  1  0
 49 51  1  0
 38 52  1  0
 52 53  1  0
 52 54  1  0
 52 55  1  0
 55 56  1  0
 55 57  1  0
 28 58  1  0
 58 59  1  0
 58 60  2  0
 60 61  1  0
 22  4  1  0
 60 23  1  0
 13  8  2  0
 55 31  1  0
 49 44  1  0
M  CHG  3   9  -1  12  -1  14  -1
M  END
>  <UniqueID>  (81) 
79

>  <SMILES>  (81) 
C=c1/c(=C\c2[n-]c(=O)[n-]c2[O-])cc(C)n1-c1ccc(C(=O)N2CCN(C(=O)CC3CC3)CC2)cc1

>  <Energy>  (81) 
413.35667102893444

>  <Genealogy>  (81) 
C=c1c(=Cc2[n-]c(=O)[n-]c2[O-])cc(C)n1-c1ccc(C(=O)N2CCN(C(=O)CC3CC3)CC2)cc1 (protonated)
C=c1/c(=C\c2[n-]c(=O)[n-]c2[O-])cc(C)n1-c1ccc(C(=O)N2CCN(C(=O)CC3CC3)CC2)cc1 (cis-trans isomerization)
C=c1/c(=C\c2[n-]c(=O)[n-]c2[O-])cc(C)n1-c1ccc(C(=O)N2CCN(C(=O)CC3CC3)CC2)cc1 (3D coordinates assigned)
C=c1/c(=C\c2[n-]c(=O)[n-]c2[O-])cc(C)n1-c1ccc(C(=O)N2CCN(C(=O)CC3CC3)CC2)cc1 (nonaromatic ring conformer: 413.35667102893444 kcal/mol)

>  <smiles>  (81) 
C=c1c(=Cc2[nH]c(=O)[nH]c2O)cc(C)n1-c1ccc(C(=O)N2CCN(C(=O)CC3CC3)CC2)cc1

>  <score_type>  (81) 
oracle

>  <origin>  (81) 
adg

>  <m_score__min__energy>  (81) 
-17.489999999999998

>  <m_primary>  (81) 
energy

$$$$
81:0
     RDKit          3D

 53 55  0  0  0  0  0  0  0  0999 V2000
   57.8940   34.1500   45.5420 C   0  0  0  0  0  0  0  0  0  0  0  0
   59.2730   34.2010   44.9030 C   0  0  0  0  0  0  0  0  0  0  0  0
   60.1860   34.8300   45.7960 O   0  0  0  0  0  0  0  0  0  0  0  0
   61.1460   34.1190   46.5250 C   0  0  0  0  0  0  0  0  0  0  0  0
   62.2600   33.8440   46.0010 O   0  0  0  0  0  0  0  0  0  0  0  0
   60.8530   33.7040   47.8720 N   0  0  0  0  0  0  0  0  0  0  0  0
   59.5700   34.1020   48.4750 C   0  0  0  0  0  0  0  0  0  0  0  0
   59.4790   33.6810   49.9440 C   0  0  0  0  0  0  0  0  0  0  0  0
   59.9130   32.2880   50.0940 N   0  0  0  0  0  0  0  0  0  0  0  0
   59.0570   31.3490   50.7490 C   0  0  0  0  0  0  0  0  0  0  0  0
   59.1020   29.9930   51.0360 C   0  0  0  0  0  0  0  0  0  0  0  0
   60.0470   28.9300   50.8810 N   0  0  0  0  0  0  0  0  0  0  0  0
   60.0550   28.0390   49.7220 C   0  0  0  0  0  0  0  0  0  0  0  0
   60.6970   28.7070   48.4960 C   0  0  0  0  0  0  0  0  0  0  0  0
   59.6740   29.0410   47.4400 C   0  0  0  0  0  0  0  0  0  0  0  0
   58.7630   28.0650   47.0020 C   0  0  0  0  0  0  0  0  0  0  0  0
   57.7840   28.3880   46.0580 C   0  0  0  0  0  0  0  0  0  0  0  0
   57.7000   29.6890   45.5460 C   0  0  0  0  0  0  0  0  0  0  0  0
   56.4600   30.0810   44.3570 S   0  0  0  0  0  0  0  0  0  0  0  0
   55.1400   28.9760   44.5100 N   0  0  0  0  0  0  0  0  0  0  0  0
   55.9740   31.4850   44.5850 O   0  0  0  0  0  0  0  0  0  0  0  0
   57.0270   29.9880   42.9700 O   0  0  0  0  0  0  0  0  0  0  0  0
   58.6100   30.6640   45.9770 C   0  0  0  0  0  0  0  0  0  0  0  0
   59.5890   30.3430   46.9230 C   0  0  0  0  0  0  0  0  0  0  0  0
   57.8460   30.0760   51.6050 C   0  0  0  0  0  0  0  0  0  0  0  0
   57.0590   29.2570   52.1470 O   0  0  0  0  0  0  0  0  0  0  0  0
   57.8250   31.4350   51.3670 C   0  0  0  0  0  0  0  0  0  0  0  0
   57.0100   32.3670   51.6020 O   0  0  0  0  0  0  0  0  0  0  0  0
   61.1160   31.8000   49.4090 C   0  0  0  0  0  0  0  0  0  0  0  0
   61.8270   32.9260   48.6550 C   0  0  0  0  0  0  0  0  0  0  0  0
   57.9970   34.1538   46.6372 H   0  0  0  0  0  0  0  0  0  0  0  0
   57.3106   35.0272   45.2255 H   0  0  0  0  0  0  0  0  0  0  0  0
   57.3770   33.2321   45.2255 H   0  0  0  0  0  0  0  0  0  0  0  0
   59.6158   33.1781   44.6882 H   0  0  0  0  0  0  0  0  0  0  0  0
   59.2222   34.7746   43.9658 H   0  0  0  0  0  0  0  0  0  0  0  0
   59.4702   35.1956   48.4109 H   0  0  0  0  0  0  0  0  0  0  0  0
   58.7618   33.5990   47.9238 H   0  0  0  0  0  0  0  0  0  0  0  0
   60.1264   34.3316   50.5503 H   0  0  0  0  0  0  0  0  0  0  0  0
   58.4363   33.7730   50.2822 H   0  0  0  0  0  0  0  0  0  0  0  0
   60.8360   28.8690   51.5630 H   0  0  0  0  0  0  0  0  0  0  0  0
   60.6249   27.1323   49.9733 H   0  0  0  0  0  0  0  0  0  0  0  0
   59.0126   27.7926   49.4717 H   0  0  0  0  0  0  0  0  0  0  0  0
   61.1945   29.6345   48.8157 H   0  0  0  0  0  0  0  0  0  0  0  0
   61.4192   28.0005   48.0609 H   0  0  0  0  0  0  0  0  0  0  0  0
   58.8205   27.0426   47.4036 H   0  0  0  0  0  0  0  0  0  0  0  0
   57.0771   27.6177   45.7160 H   0  0  0  0  0  0  0  0  0  0  0  0
   54.5240   29.3400   45.2700 H   0  0  0  0  0  0  0  0  0  0  0  0
   58.5541   31.6845   45.5702 H   0  0  0  0  0  0  0  0  0  0  0  0
   60.2954   31.1145   47.2633 H   0  0  0  0  0  0  0  0  0  0  0  0
   61.8057   31.3779   50.1548 H   0  0  0  0  0  0  0  0  0  0  0  0
   60.8118   31.0345   48.6800 H   0  0  0  0  0  0  0  0  0  0  0  0
   62.3260   33.5890   49.3771 H   0  0  0  0  0  0  0  0  0  0  0  0
   62.5707   32.4888   47.9725 H   0  0  0  0  0  0  0  0  0  0  0  0
  1  2  1  0
  2  3  1  0
  3  4  1  0
  4  5  2  0
  4  6  1  0
  6  7  1  0
  7  8  1  0
  8  9  1  0
  9 10  1  0
 10 11  2  0
 11 12  1  0
 12 13  1  0
 13 14  1  0
 14 15  1  0
 15 16  2  0
 16 17  1  0
 17 18  2  0
 18 19  1  0
 19 20  1  0
 19 21  2  0
 19 22  2  0
 18 23  1  0
 23 24  2  0
 11 25  1  0
 25 26  2  0
 25 27  1  0
 27 28  2  0
  9 29  1  0
 29 30  1  0
 30  6  1  0
 27 10  1  0
 24 15  1  0
  1 31  1  0
  1 32  1  0
  1 33  1  0
  2 34  1  0
  2 35  1  0
  7 36  1  0
  7 37  1  0
  8 38  1  0
  8 39  1  0
 12 40  1  0
 13 41  1  0
 13 42  1  0
 14 43  1  0
 14 44  1  0
 16 45  1  0
 17 46  1  0
 20 47  1  0
 23 48  1  0
 24 49  1  0
 29 50  1  0
 29 51  1  0
 30 52  1  0
 30 53  1  0
M  CHG  1  20  -1
M  END
>  <UniqueID>  (82) 
80

>  <SMILES>  (82) 
CCOC(=O)N1CCN(c2c(NCCc3ccc(S([NH-])(=O)=O)cc3)c(=O)c2=O)CC1

>  <Energy>  (82) 
38.18399773817286

>  <Genealogy>  (82) 
CCOC(=O)N1CCN(c2c(NCCc3ccc(S([NH-])(=O)=O)cc3)c(=O)c2=O)CC1 (protonated)
CCOC(=O)N1CCN(c2c(NCCc3ccc(S([NH-])(=O)=O)cc3)c(=O)c2=O)CC1 (3D coordinates assigned)
CCOC(=O)N1CCN(c2c(NCCc3ccc(S([NH-])(=O)=O)cc3)c(=O)c2=O)CC1 (nonaromatic ring conformer: 38.18399773817286 kcal/mol)

>  <smiles>  (82) 
CCOC(=O)N1CCN(c2c(NCCc3ccc(S(N)(=O)=O)cc3)c(=O)c2=O)CC1

>  <score_type>  (82) 
oracle

>  <origin>  (82) 
adg

>  <m_score__min__energy>  (82) 
-11.380000000000001

>  <m_primary>  (82) 
energy

$$$$
82:0
     RDKit          3D

 46 49  0  0  0  0  0  0  0  0999 V2000
   60.4320   32.1770   49.1520 N   0  0  0  0  0  0  0  0  0  0  0  0
   61.1220   31.4680   47.7360 S   0  0  0  0  0  0  0  0  0  0  0  0
   61.1100   32.4730   46.6180 O   0  0  0  0  0  0  0  0  0  0  0  0
   62.5450   31.0730   48.0130 O   0  0  0  0  0  0  0  0  0  0  0  0
   60.1870   30.0490   47.2730 C   0  0  0  0  0  0  0  0  0  0  0  0
   60.3860   28.8230   47.9470 C   0  0  0  0  0  0  0  0  0  0  0  0
   59.6500   27.6840   47.5880 C   0  0  0  0  0  0  0  0  0  0  0  0
   58.7150   27.8070   46.5610 C   0  0  0  0  0  0  0  0  0  0  0  0
   57.8730   26.8690   45.9970 C   0  0  0  0  0  0  0  0  0  0  0  0
   57.6870   25.4410   46.4110 C   0  0  0  0  0  0  0  0  0  0  0  0
   56.4360   24.8870   45.7970 C   0  0  0  0  0  0  0  0  0  0  0  0
   56.5040   23.9370   44.7680 C   0  0  0  0  0  0  0  0  0  0  0  0
   55.3230   23.4700   44.1850 C   0  0  0  0  0  0  0  0  0  0  0  0
   55.3780   22.6130   43.2630 O   0  0  0  0  0  0  0  0  0  0  0  0
   54.0850   23.9590   44.6320 C   0  0  0  0  0  0  0  0  0  0  0  0
   52.8820   23.5190   44.0770 O   0  0  0  0  0  0  0  0  0  0  0  0
   54.0620   24.9130   45.6530 C   0  0  0  0  0  0  0  0  0  0  0  0
   55.2230   25.3530   46.2040 N   0  0  0  0  0  0  0  0  0  0  0  0
   57.1460   27.5480   45.0280 C   0  0  0  0  0  0  0  0  0  0  0  0
   57.5210   28.8500   44.9780 N   0  0  0  0  0  0  0  0  0  0  0  0
   56.9400   29.8330   44.1020 C   0  0  0  0  0  0  0  0  0  0  0  0
   56.7320   29.5400   42.8930 O   0  0  0  0  0  0  0  0  0  0  0  0
   56.5150   31.1010   44.6150 N   0  0  0  0  0  0  0  0  0  0  0  0
   57.3550   32.2030   44.9870 C   0  0  0  0  0  0  0  0  0  0  0  0
   57.3520   32.7400   46.2880 C   0  0  0  0  0  0  0  0  0  0  0  0
   58.1700   33.8320   46.6000 C   0  0  0  0  0  0  0  0  0  0  0  0
   58.9840   34.4020   45.6170 C   0  0  0  0  0  0  0  0  0  0  0  0
   60.0070   35.7720   46.0100 Cl  0  0  0  0  0  0  0  0  0  0  0  0
   58.9720   33.8880   44.3170 C   0  0  0  0  0  0  0  0  0  0  0  0
   58.1550   32.7970   44.0030 C   0  0  0  0  0  0  0  0  0  0  0  0
   58.4870   28.9990   45.9160 C   0  0  0  0  0  0  0  0  0  0  0  0
   59.2260   30.1440   46.2450 C   0  0  0  0  0  0  0  0  0  0  0  0
   61.0400   31.9050   49.9570 H   0  0  0  0  0  0  0  0  0  0  0  0
   61.1243   28.7613   48.7601 H   0  0  0  0  0  0  0  0  0  0  0  0
   59.8057   26.7234   48.1009 H   0  0  0  0  0  0  0  0  0  0  0  0
   58.5508   24.8489   46.0746 H   0  0  0  0  0  0  0  0  0  0  0  0
   57.6039   25.3909   47.5067 H   0  0  0  0  0  0  0  0  0  0  0  0
   57.4789   23.5624   44.4225 H   0  0  0  0  0  0  0  0  0  0  0  0
   52.7840   22.5950   43.6730 H   0  0  0  0  0  0  0  0  0  0  0  0
   53.1004   25.3089   46.0117 H   0  0  0  0  0  0  0  0  0  0  0  0
   56.3738   27.0931   44.3902 H   0  0  0  0  0  0  0  0  0  0  0  0
   56.7052   32.3004   47.0615 H   0  0  0  0  0  0  0  0  0  0  0  0
   58.1723   34.2424   47.6206 H   0  0  0  0  0  0  0  0  0  0  0  0
   59.6054   34.3418   43.5406 H   0  0  0  0  0  0  0  0  0  0  0  0
   58.1408   32.4029   42.9761 H   0  0  0  0  0  0  0  0  0  0  0  0
   59.0604   31.0932   45.7144 H   0  0  0  0  0  0  0  0  0  0  0  0
  1  2  1  0
  2  3  2  0
  2  4  2  0
  2  5  1  0
  5  6  2  0
  6  7  1  0
  7  8  2  0
  8  9  1  0
  9 10  1  0
 10 11  1  0
 11 12  2  0
 12 13  1  0
 13 14  2  0
 13 15  1  0
 15 16  1  0
 15 17  2  0
 17 18  1  0
  9 19  2  0
 19 20  1  0
 20 21  1  0
 21 22  2  0
 21 23  1  0
 23 24  1  0
 24 25  2  0
 25 26  1  0
 26 27  2  0
 27 28  1  0
 27 29  1  0
 29 30  2  0
 20 31  1  0
 31 32  2  0
 32  5  1  0
 31  8  1  0
 18 11  1  0
 30 24  1  0
  1 33  1  0
  6 34  1  0
  7 35  1  0
 10 36  1  0
 10 37  1  0
 12 38  1  0
 16 39  1  0
 17 40  1  0
 19 41  1  0
 25 42  1  0
 26 43  1  0
 29 44  1  0
 30 45  1  0
 32 46  1  0
M  CHG  3   1  -1  18  -1  23  -1
M  END
>  <UniqueID>  (83) 
81

>  <SMILES>  (83) 
[NH-]S(=O)(=O)c1ccc2c(Cc3cc(=O)c(O)c[n-]3)cn(C(=O)[N-]c3ccc(Cl)cc3)c2c1

>  <Energy>  (83) 
89.06798715617967

>  <Genealogy>  (83) 
[NH-]S(=O)(=O)c1ccc2c(Cc3cc(=O)c(O)c[n-]3)cn(C(=O)[N-]c3ccc(Cl)cc3)c2c1 (protonated)
[NH-]S(=O)(=O)c1ccc2c(Cc3cc(=O)c(O)c[n-]3)cn(C(=O)[N-]c3ccc(Cl)cc3)c2c1 (3D coordinates assigned)
[NH-]S(=O)(=O)c1ccc2c(Cc3cc(=O)c(O)c[n-]3)cn(C(=O)[N-]c3ccc(Cl)cc3)c2c1 (optimized conformer: 89.06798715617967 kcal/mol)

>  <smiles>  (83) 
NS(=O)(=O)c1ccc2c(Cc3cc(=O)c(O)c[nH]3)cn(C(=O)Nc3ccc(Cl)cc3)c2c1

>  <score_type>  (83) 
oracle

>  <origin>  (83) 
adg

>  <m_score__min__energy>  (83) 
-13.18

>  <m_primary>  (83) 
energy

$$$$
83:0
     RDKit          3D

 26 27  0  0  0  0  0  0  0  0999 V2000
   55.4930   29.5600   44.9210 N   0  0  0  0  0  0  0  0  0  0  0  0
   56.3740   29.3470   43.7780 C   0  0  0  0  0  0  0  0  0  0  0  0
   57.5100   28.4450   44.1690 C   0  0  0  0  0  0  0  0  0  0  0  0
   58.1120   27.4140   43.0440 S   0  0  0  0  0  0  0  0  0  0  0  0
   57.8230   28.2310   45.5540 N   0  0  0  0  0  0  0  0  0  0  0  0
   58.2990   29.1880   46.3380 N   0  0  0  0  0  0  0  0  0  0  0  0
   58.5350   28.6310   47.5380 C   0  0  0  0  0  0  0  0  0  0  0  0
   58.9860   29.2670   48.5260 O   0  0  0  0  0  0  0  0  0  0  0  0
   58.2090   27.2930   47.5380 C   0  0  0  0  0  0  0  0  0  0  0  0
   57.7520   27.0700   46.2520 C   0  0  0  0  0  0  0  0  0  0  0  0
   57.1550   25.8010   45.7730 C   0  0  0  0  0  0  0  0  0  0  0  0
   57.9870   24.7280   45.4070 C   0  0  0  0  0  0  0  0  0  0  0  0
   57.4350   23.5300   44.9440 C   0  0  0  0  0  0  0  0  0  0  0  0
   56.0490   23.3940   44.8370 C   0  0  0  0  0  0  0  0  0  0  0  0
   55.2130   24.4550   45.1900 C   0  0  0  0  0  0  0  0  0  0  0  0
   55.7580   25.6570   45.6580 C   0  0  0  0  0  0  0  0  0  0  0  0
   54.9030   26.6920   46.0210 O   0  0  0  0  0  0  0  0  0  0  0  0
   56.0690   29.9520   45.7000 H   0  0  0  0  0  0  0  0  0  0  0  0
   55.1490   28.6260   45.2450 H   0  0  0  0  0  0  0  0  0  0  0  0
   55.8042   28.8822   42.9599 H   0  0  0  0  0  0  0  0  0  0  0  0
   56.7778   30.3151   43.4467 H   0  0  0  0  0  0  0  0  0  0  0  0
   58.2924   26.5724   48.3649 H   0  0  0  0  0  0  0  0  0  0  0  0
   59.0793   24.8320   45.4855 H   0  0  0  0  0  0  0  0  0  0  0  0
   58.0926   22.6939   44.6638 H   0  0  0  0  0  0  0  0  0  0  0  0
   55.6158   22.4502   44.4743 H   0  0  0  0  0  0  0  0  0  0  0  0
   54.1221   24.3463   45.1001 H   0  0  0  0  0  0  0  0  0  0  0  0
  1  2  1  0
  2  3  1  0
  3  4  2  0
  3  5  1  0
  5  6  1  0
  6  7  1  0
  7  8  2  0
  7  9  1  0
  9 10  2  0
 10 11  1  0
 11 12  2  0
 12 13  1  0
 13 14  2  0
 14 15  1  0
 15 16  2  0
 16 17  1  0
 10  5  1  0
 16 11  1  0
  1 18  1  0
  1 19  1  0
  2 20  1  0
  2 21  1  0
  9 22  1  0
 12 23  1  0
 13 24  1  0
 14 25  1  0
 15 26  1  0
M  CHG  2   6  -1  17  -1
M  END
>  <UniqueID>  (84) 
82

>  <SMILES>  (84) 
NCC(=S)n1[n-]c(=O)cc1-c1ccccc1[O-]

>  <Energy>  (84) 
65.17821510711207

>  <Genealogy>  (84) 
NCC(=S)n1[n-]c(=O)cc1-c1ccccc1[O-] (protonated)
NCC(=S)n1[n-]c(=O)cc1-c1ccccc1[O-] (3D coordinates assigned)
NCC(=S)n1[n-]c(=O)cc1-c1ccccc1[O-] (optimized conformer: 65.17821510711207 kcal/mol)

>  <smiles>  (84) 
NCC(=S)n1[nH]c(=O)cc1-c1ccccc1O

>  <score_type>  (84) 
oracle

>  <origin>  (84) 
adg

>  <m_score__min__energy>  (84) 
-11.27

>  <m_primary>  (84) 
energy

$$$$
84:0
     RDKit          3D

 57 61  0  0  0  0  0  0  0  0999 V2000
   54.5748   21.1006   45.4663 H   0  0  0  0  0  0  0  0  0  0  0  0
   54.7300   22.1810   45.6030 C   0  0  0  0  0  0  0  0  0  0  0  0
   55.9690   22.6600   46.0370 C   0  0  0  0  0  0  0  0  0  0  0  0
   56.7919   21.9568   46.2326 H   0  0  0  0  0  0  0  0  0  0  0  0
   56.1640   24.0330   46.2230 C   0  0  0  0  0  0  0  0  0  0  0  0
   57.1448   24.4080   46.5508 H   0  0  0  0  0  0  0  0  0  0  0  0
   55.1090   24.9360   45.9920 C   0  0  0  0  0  0  0  0  0  0  0  0
   55.2730   26.3570   46.1400 N   0  0  0  0  0  0  0  0  0  0  0  0
   56.2530   27.0770   45.6820 C   0  0  0  0  0  0  0  0  0  0  0  0
   57.5680   26.7260   45.8110 N   0  0  0  0  0  0  0  0  0  0  0  0
   58.1680   27.7650   45.2170 C   0  0  0  0  0  0  0  0  0  0  0  0
   57.2880   28.6870   44.8480 C   0  0  0  0  0  0  0  0  0  0  0  0
   56.0380   28.3180   45.1590 N   0  0  0  0  0  0  0  0  0  0  0  0
   57.8320   29.9160   44.9250 N   0  0  0  0  0  0  0  0  0  0  0  0
   57.1490   31.2110   44.8790 C   0  0  0  0  0  0  0  0  0  0  0  0
   56.8205   31.4056   43.8474 H   0  0  0  0  0  0  0  0  0  0  0  0
   56.2883   31.1721   45.5629 H   0  0  0  0  0  0  0  0  0  0  0  0
   58.0780   32.3560   45.3340 C   0  0  0  0  0  0  0  0  0  0  0  0
   59.0916   32.0949   44.9958 H   0  0  0  0  0  0  0  0  0  0  0  0
   57.6670   33.6850   44.6960 C   0  0  0  0  0  0  0  0  0  0  0  0
   57.5792   33.5537   43.6074 H   0  0  0  0  0  0  0  0  0  0  0  0
   56.7003   34.0007   45.1153 H   0  0  0  0  0  0  0  0  0  0  0  0
   58.7200   34.7650   44.9940 C   0  0  0  0  0  0  0  0  0  0  0  0
   59.5544   34.6416   44.2879 H   0  0  0  0  0  0  0  0  0  0  0  0
   58.2221   35.7399   44.8863 H   0  0  0  0  0  0  0  0  0  0  0  0
   59.2600   34.7020   46.3740 N   0  0  0  0  0  0  0  0  0  0  0  0
   60.7320   34.6380   46.4960 C   0  0  0  0  0  0  0  0  0  0  0  0
   61.1482   34.3283   45.5260 H   0  0  0  0  0  0  0  0  0  0  0  0
   61.0746   35.6388   46.7978 H   0  0  0  0  0  0  0  0  0  0  0  0
   61.2100   33.6680   47.5530 C   0  0  0  0  0  0  0  0  0  0  0  0
   61.2560   34.0570   48.9030 C   0  0  0  0  0  0  0  0  0  0  0  0
   60.9569   35.0759   49.1898 H   0  0  0  0  0  0  0  0  0  0  0  0
   61.6800   33.1550   49.8820 C   0  0  0  0  0  0  0  0  0  0  0  0
   61.6989   33.4605   50.9385 H   0  0  0  0  0  0  0  0  0  0  0  0
   62.0800   31.8660   49.5220 C   0  0  0  0  0  0  0  0  0  0  0  0
   62.4090   31.1560   50.2950 H   0  0  0  0  0  0  0  0  0  0  0  0
   62.0620   31.4790   48.1800 C   0  0  0  0  0  0  0  0  0  0  0  0
   62.3839   30.4662   47.8962 H   0  0  0  0  0  0  0  0  0  0  0  0
   61.6360   32.3760   47.1980 C   0  0  0  0  0  0  0  0  0  0  0  0
   61.6337   32.0701   46.1414 H   0  0  0  0  0  0  0  0  0  0  0  0
   58.4870   33.9150   47.3580 C   0  0  0  0  0  0  0  0  0  0  0  0
   59.0898   33.8165   48.2728 H   0  0  0  0  0  0  0  0  0  0  0  0
   57.5444   34.4556   47.5290 H   0  0  0  0  0  0  0  0  0  0  0  0
   58.1090   32.4990   46.8700 C   0  0  0  0  0  0  0  0  0  0  0  0
   58.8457   31.7865   47.2696 H   0  0  0  0  0  0  0  0  0  0  0  0
   57.0894   32.2980   47.2306 H   0  0  0  0  0  0  0  0  0  0  0  0
   59.1020   29.6570   45.3450 C   0  0  0  0  0  0  0  0  0  0  0  0
   59.9380   30.5600   45.6190 O   0  0  0  0  0  0  0  0  0  0  0  0
   59.3450   28.3320   45.5360 N   0  0  0  0  0  0  0  0  0  0  0  0
   60.4280   27.7310   46.3080 C   0  0  0  0  0  0  0  0  0  0  0  0
   60.2204   27.8462   47.3821 H   0  0  0  0  0  0  0  0  0  0  0  0
   60.5041   26.6616   46.0619 H   0  0  0  0  0  0  0  0  0  0  0  0
   61.3757   28.2322   46.0619 H   0  0  0  0  0  0  0  0  0  0  0  0
   53.8810   24.4470   45.5270 C   0  0  0  0  0  0  0  0  0  0  0  0
   53.0626   25.1477   45.3053 H   0  0  0  0  0  0  0  0  0  0  0  0
   53.6890   23.0750   45.3430 C   0  0  0  0  0  0  0  0  0  0  0  0
   52.7165   22.6987   44.9929 H   0  0  0  0  0  0  0  0  0  0  0  0
  1  2  1  0
  2  3  2  0
  3  4  1  0
  3  5  1  0
  5  6  1  0
  5  7  2  0
  7  8  1  0
  8  9  2  0
  9 10  1  0
 10 11  1  0
 11 12  2  0
 12 13  1  0
 12 14  1  0
 14 15  1  0
 15 16  1  0
 15 17  1  0
 15 18  1  0
 18 19  1  0
 18 20  1  0
 20 21  1  0
 20 22  1  0
 20 23  1  0
 23 24  1  0
 23 25  1  0
 23 26  1  0
 26 27  1  0
 27 28  1  0
 27 29  1  0
 27 30  1  0
 30 31  2  0
 31 32  1  0
 31 33  1  0
 33 34  1  0
 33 35  2  0
 35 36  1  0
 35 37  1  0
 37 38  1  0
 37 39  2  0
 39 40  1  0
 26 41  1  0
 41 42  1  0
 41 43  1  0
 41 44  1  0
 44 45  1  0
 44 46  1  0
 14 47  1  0
 47 48  2  0
 47 49  1  0
 49 50  1  0
 50 51  1  0
 50 52  1  0
 50 53  1  0
  7 54  1  0
 54 55  1  0
 54 56  2  0
 56 57  1  0
 56  2  1  0
 13  9  1  0
 44 18  1  0
 49 11  1  0
 39 30  1  0
M  CHG  2  10  -1  13  -1
M  END
>  <UniqueID>  (85) 
83

>  <SMILES>  (85) 
Cn1c(=O)n(CC2CCN(Cc3ccccc3)CC2)c2[n-]/c(=N/c3ccccc3)[n-]c21

>  <Energy>  (85) 
167.39817067974934

>  <Genealogy>  (85) 
Cn1c(=O)n(CC2CCN(Cc3ccccc3)CC2)c2[n-]c(=Nc3ccccc3)[n-]c21 (protonated)
Cn1c(=O)n(CC2CCN(Cc3ccccc3)CC2)c2[n-]/c(=N/c3ccccc3)[n-]c21 (cis-trans isomerization)
Cn1c(=O)n(CC2CCN(Cc3ccccc3)CC2)c2[n-]/c(=N/c3ccccc3)[n-]c21 (3D coordinates assigned)
Cn1c(=O)n(CC2CCN(Cc3ccccc3)CC2)c2[n-]/c(=N/c3ccccc3)[n-]c21 (nonaromatic ring conformer: 167.39817067974934 kcal/mol)

>  <smiles>  (85) 
Cn1c(=O)n(CC2CCN(Cc3ccccc3)CC2)c2[nH]c(=Nc3ccccc3)[nH]c21

>  <score_type>  (85) 
oracle

>  <origin>  (85) 
adg

>  <m_score__min__energy>  (85) 
-11.73

>  <m_primary>  (85) 
energy

$$$$
85:0
     RDKit          3D

 57 60  0  0  0  0  0  0  0  0999 V2000
   56.3810   29.7530   43.4220 C   0  0  0  0  0  0  0  0  0  0  0  0
   57.1640   30.6350   44.3330 C   0  0  0  0  0  0  0  0  0  0  0  0
   58.5270   30.5890   44.5340 C   0  0  0  0  0  0  0  0  0  0  0  0
   58.7330   31.5920   45.4620 C   0  0  0  0  0  0  0  0  0  0  0  0
   59.8680   31.9430   45.9880 N   0  0  0  0  0  0  0  0  0  0  0  0
   60.1090   33.3760   46.9410 S   0  0  0  0  0  0  0  0  0  0  0  0
   61.5740   33.7070   46.9720 O   0  0  0  0  0  0  0  0  0  0  0  0
   59.3610   34.5110   46.3030 O   0  0  0  0  0  0  0  0  0  0  0  0
   59.5050   33.1470   48.5790 C   0  0  0  0  0  0  0  0  0  0  0  0
   58.6600   32.0640   48.8670 C   0  0  0  0  0  0  0  0  0  0  0  0
   58.1770   31.8730   50.1650 C   0  0  0  0  0  0  0  0  0  0  0  0
   58.5100   32.7780   51.1800 C   0  0  0  0  0  0  0  0  0  0  0  0
   57.9880   32.5810   52.4990 N   0  0  0  0  0  0  0  0  0  0  0  0
   57.7410   31.3010   53.0970 C   0  0  0  0  0  0  0  0  0  0  0  0
   58.3430   30.9980   54.1620 O   0  0  0  0  0  0  0  0  0  0  0  0
   56.8300   30.2900   52.4540 C   0  0  0  0  0  0  0  0  0  0  0  0
   55.5170   30.2670   53.1440 N   0  0  0  0  0  0  0  0  0  0  0  0
   54.4720   29.6210   52.3130 C   0  0  0  0  0  0  0  0  0  0  0  0
   53.2580   30.5040   52.2070 C   0  0  0  0  0  0  0  0  0  0  0  0
   52.4260   30.6820   53.3230 C   0  0  0  0  0  0  0  0  0  0  0  0
   51.3220   31.5340   53.2470 C   0  0  0  0  0  0  0  0  0  0  0  0
   51.0420   32.2180   52.0610 C   0  0  0  0  0  0  0  0  0  0  0  0
   49.9430   33.0660   51.9960 O   0  0  0  0  0  0  0  0  0  0  0  0
   51.8670   32.0490   50.9430 C   0  0  0  0  0  0  0  0  0  0  0  0
   51.5870   32.7410   49.7670 O   0  0  0  0  0  0  0  0  0  0  0  0
   52.9720   31.1890   51.0150 C   0  0  0  0  0  0  0  0  0  0  0  0
   55.6140   29.6160   54.4670 C   0  0  0  0  0  0  0  0  0  0  0  0
   55.2790   28.1620   54.3510 C   0  0  0  0  0  0  0  0  0  0  0  0
   56.1850   27.1260   54.2690 C   0  0  0  0  0  0  0  0  0  0  0  0
   55.4270   25.9780   54.1920 C   0  0  0  0  0  0  0  0  0  0  0  0
   54.1080   26.3840   54.2320 C   0  0  0  0  0  0  0  0  0  0  0  0
   54.0530   27.6910   54.3300 O   0  0  0  0  0  0  0  0  0  0  0  0
   59.3800   33.8430   50.9000 C   0  0  0  0  0  0  0  0  0  0  0  0
   59.8740   34.0270   49.6060 C   0  0  0  0  0  0  0  0  0  0  0  0
   57.5680   32.1820   45.7820 N   0  0  0  0  0  0  0  0  0  0  0  0
   56.6470   31.5810   45.0850 O   0  0  0  0  0  0  0  0  0  0  0  0
   55.7675   29.0619   44.0186 H   0  0  0  0  0  0  0  0  0  0  0  0
   55.7271   30.3693   42.7875 H   0  0  0  0  0  0  0  0  0  0  0  0
   57.0705   29.1768   42.7875 H   0  0  0  0  0  0  0  0  0  0  0  0
   59.2670   29.9199   44.0707 H   0  0  0  0  0  0  0  0  0  0  0  0
   58.3766   31.3627   48.0683 H   0  0  0  0  0  0  0  0  0  0  0  0
   57.5337   31.0094   50.3894 H   0  0  0  0  0  0  0  0  0  0  0  0
   56.6800   30.5570   51.3975 H   0  0  0  0  0  0  0  0  0  0  0  0
   57.2911   29.2942   52.5295 H   0  0  0  0  0  0  0  0  0  0  0  0
   54.8739   29.4367   51.3058 H   0  0  0  0  0  0  0  0  0  0  0  0
   54.1797   28.6718   52.7859 H   0  0  0  0  0  0  0  0  0  0  0  0
   52.6440   30.1490   54.2602 H   0  0  0  0  0  0  0  0  0  0  0  0
   50.6708   31.6671   54.1235 H   0  0  0  0  0  0  0  0  0  0  0  0
   50.9020   33.4880   49.7440 H   0  0  0  0  0  0  0  0  0  0  0  0
   53.6170   31.0504   50.1348 H   0  0  0  0  0  0  0  0  0  0  0  0
   56.6392   29.7236   54.8510 H   0  0  0  0  0  0  0  0  0  0  0  0
   54.9035   30.0950   55.1567 H   0  0  0  0  0  0  0  0  0  0  0  0
   57.2825   27.2003   54.2657 H   0  0  0  0  0  0  0  0  0  0  0  0
   55.7982   24.9454   54.1143 H   0  0  0  0  0  0  0  0  0  0  0  0
   53.2366   25.7141   54.1884 H   0  0  0  0  0  0  0  0  0  0  0  0
   59.6742   34.5356   51.7024 H   0  0  0  0  0  0  0  0  0  0  0  0
   60.5543   34.8646   49.3925 H   0  0  0  0  0  0  0  0  0  0  0  0
  1  2  1  0
  2  3  2  0
  3  4  1  0
  4  5  2  3
  5  6  1  0
  6  7  2  0
  6  8  2  0
  6  9  1  0
  9 10  2  0
 10 11  1  0
 11 12  2  0
 12 13  1  0
 13 14  1  0
 14 15  2  0
 14 16  1  0
 16 17  1  0
 17 18  1  0
 18 19  1  0
 19 20  2  0
 20 21  1  0
 21 22  2  0
 22 23  1  0
 22 24  1  0
 24 25  1  0
 24 26  2  0
 17 27  1  0
 27 28  1  0
 28 29  2  0
 29 30  1  0
 30 31  2  0
 31 32  1  0
 12 33  1  0
 33 34  2  0
  4 35  1  0
 35 36  1  0
 36  2  1  0
 34  9  1  0
 26 19  1  0
 32 28  1  0
  1 37  1  0
  1 38  1  0
  1 39  1  0
  3 40  1  0
 10 41  1  0
 11 42  1  0
 16 43  1  0
 16 44  1  0
 18 45  1  0
 18 46  1  0
 20 47  1  0
 21 48  1  0
 25 49  1  0
 26 50  1  0
 27 51  1  0
 27 52  1  0
 29 53  1  0
 30 54  1  0
 31 55  1  0
 33 56  1  0
 34 57  1  0
M  CHG  3  13  -1  23  -1  35  -1
M  END
>  <UniqueID>  (86) 
84

>  <SMILES>  (86) 
Cc1cc(=NS(=O)(=O)c2ccc([N-]C(=O)CN(Cc3ccc([O-])c(O)c3)Cc3ccco3)cc2)[n-]o1

>  <Energy>  (86) 
118.61778479315922

>  <Genealogy>  (86) 
Cc1cc(=NS(=O)(=O)c2ccc([N-]C(=O)CN(Cc3ccc([O-])c(O)c3)Cc3ccco3)cc2)[n-]o1 (protonated)
Cc1cc(=NS(=O)(=O)c2ccc([N-]C(=O)CN(Cc3ccc([O-])c(O)c3)Cc3ccco3)cc2)[n-]o1 (3D coordinates assigned)
Cc1cc(=NS(=O)(=O)c2ccc([N-]C(=O)CN(Cc3ccc([O-])c(O)c3)Cc3ccco3)cc2)[n-]o1 (optimized conformer: 118.61778479315922 kcal/mol)

>  <smiles>  (86) 
Cc1cc(=NS(=O)(=O)c2ccc(NC(=O)CN(Cc3ccc(O)c(O)c3)Cc3ccco3)cc2)[nH]o1

>  <score_type>  (86) 
oracle

>  <origin>  (86) 
adg

>  <m_score__min__energy>  (86) 
-15.65

>  <m_primary>  (86) 
energy

$$$$
86:0
     RDKit          3D

 50 52  0  0  0  0  0  0  0  0999 V2000
   59.1274   34.8741   45.0532 H   0  0  0  0  0  0  0  0  0  0  0  0
   58.8080   34.3070   45.9400 C   0  0  0  0  0  0  0  0  0  0  0  0
   57.9107   33.6724   45.8933 H   0  0  0  0  0  0  0  0  0  0  0  0
   59.5100   34.3890   47.0740 C   0  0  0  0  0  0  0  0  0  0  0  0
   60.4050   35.0278   47.1050 H   0  0  0  0  0  0  0  0  0  0  0  0
   59.1080   33.6300   48.3100 C   0  0  0  0  0  0  0  0  0  0  0  0
   58.0102   33.6024   48.3732 H   0  0  0  0  0  0  0  0  0  0  0  0
   59.5178   32.6114   48.2425 H   0  0  0  0  0  0  0  0  0  0  0  0
   59.6650   34.2950   49.5730 C   0  0  0  0  0  0  0  0  0  0  0  0
   60.7543   34.4098   49.4717 H   0  0  0  0  0  0  0  0  0  0  0  0
   59.1906   35.2797   49.6962 H   0  0  0  0  0  0  0  0  0  0  0  0
   59.3670   33.4580   50.7800 C   0  0  0  0  0  0  0  0  0  0  0  0
   59.6170   32.2210   50.7490 O   0  0  0  0  0  0  0  0  0  0  0  0
   58.7190   34.0460   51.9190 N   0  0  0  0  0  0  0  0  0  0  0  0
   58.2750   34.9840   51.7940 H   0  0  0  0  0  0  0  0  0  0  0  0
   58.5440   33.3770   53.1790 C   0  0  0  0  0  0  0  0  0  0  0  0
   59.1990   33.8710   54.3170 C   0  0  0  0  0  0  0  0  0  0  0  0
   59.8269   34.7708   54.2387 H   0  0  0  0  0  0  0  0  0  0  0  0
   59.0590   33.2280   55.5480 C   0  0  0  0  0  0  0  0  0  0  0  0
   59.5658   33.6305   56.4375 H   0  0  0  0  0  0  0  0  0  0  0  0
   58.2780   32.0760   55.6540 C   0  0  0  0  0  0  0  0  0  0  0  0
   58.1642   31.5795   56.6290 H   0  0  0  0  0  0  0  0  0  0  0  0
   57.6370   31.5480   54.5220 C   0  0  0  0  0  0  0  0  0  0  0  0
   56.8160   30.2880   54.6290 C   0  0  0  0  0  0  0  0  0  0  0  0
   57.4681   29.4180   54.4619 H   0  0  0  0  0  0  0  0  0  0  0  0
   56.3675   30.2449   55.6325 H   0  0  0  0  0  0  0  0  0  0  0  0
   55.7340   30.2790   53.6290 N   0  0  0  0  0  0  0  0  0  0  0  0
   55.9170   30.1850   52.2900 C   0  0  0  0  0  0  0  0  0  0  0  0
   57.2460   30.0760   51.6050 C   0  0  0  0  0  0  0  0  0  0  0  0
   58.0434   30.0106   52.3599 H   0  0  0  0  0  0  0  0  0  0  0  0
   57.2615   29.1736   50.9762 H   0  0  0  0  0  0  0  0  0  0  0  0
   57.4083   30.9638   50.9762 H   0  0  0  0  0  0  0  0  0  0  0  0
   54.7110   30.2720   51.6290 C   0  0  0  0  0  0  0  0  0  0  0  0
   54.5592   30.2561   50.5396 H   0  0  0  0  0  0  0  0  0  0  0  0
   53.7280   30.3830   52.5950 C   0  0  0  0  0  0  0  0  0  0  0  0
   52.4150   30.4180   52.2910 C   0  0  0  0  0  0  0  0  0  0  0  0
   51.9995   29.5472   51.7627 H   0  0  0  0  0  0  0  0  0  0  0  0
   51.4890   31.5170   52.6030 C   0  0  0  0  0  0  0  0  0  0  0  0
   51.2200   31.9290   53.8540 N   0  0  0  0  0  0  0  0  0  0  0  0
   50.4430   33.0180   53.6630 C   0  0  0  0  0  0  0  0  0  0  0  0
   49.9670   33.6870   54.6170 O   0  0  0  0  0  0  0  0  0  0  0  0
   50.2290   33.3440   52.3700 N   0  0  0  0  0  0  0  0  0  0  0  0
   50.9100   32.3920   51.7110 C   0  0  0  0  0  0  0  0  0  0  0  0
   51.0220   32.3420   50.3270 O   0  0  0  0  0  0  0  0  0  0  0  0
   54.3940   30.4350   53.8310 C   0  0  0  0  0  0  0  0  0  0  0  0
   53.8450   30.7270   55.0220 C   0  0  0  0  0  0  0  0  0  0  0  0
   54.4693   30.7374   55.9276 H   0  0  0  0  0  0  0  0  0  0  0  0
   52.7713   30.9556   55.0914 H   0  0  0  0  0  0  0  0  0  0  0  0
   57.7770   32.2020   53.2860 C   0  0  0  0  0  0  0  0  0  0  0  0
   57.2822   31.7914   52.3935 H   0  0  0  0  0  0  0  0  0  0  0  0
  1  2  1  0
  2  3  1  0
  2  4  2  0
  4  5  1  0
  4  6  1  0
  6  7  1  0
  6  8  1  0
  6  9  1  0
  9 10  1  0
  9 11  1  0
  9 12  1  0
 12 13  2  0
 12 14  1  0
 14 15  1  0
 14 16  1  0
 16 17  2  0
 17 18  1  0
 17 19  1  0
 19 20  1  0
 19 21  2  0
 21 22  1  0
 21 23  1  0
 23 24  1  0
 24 25  1  0
 24 26  1  0
 24 27  1  0
 27 28  1  0
 28 29  1  0
 29 30  1  0
 29 31  1  0
 29 32  1  0
 28 33  2  0
 33 34  1  0
 33 35  1  0
 35 36  2  0
 36 37  1  0
 36 38  1  0
 38 39  1  0
 39 40  1  0
 40 41  2  0
 40 42  1  0
 42 43  1  0
 43 44  1  0
 35 45  1  0
 45 46  2  0
 46 47  1  0
 46 48  1  0
 23 49  2  0
 49 50  1  0
 49 16  1  0
 45 27  1  0
 43 38  2  0
M  CHG  3  39  -1  42  -1  44  -1
M  END
>  <UniqueID>  (87) 
85

>  <SMILES>  (87) 
C=CCCC(=O)Nc1cccc(Cn2c(C)c/c(=C/c3[n-]c(=O)[n-]c3[O-])c2=C)c1

>  <Energy>  (87) 
117.51317677212107

>  <Genealogy>  (87) 
C=CCCC(=O)Nc1cccc(Cn2c(C)cc(=Cc3[n-]c(=O)[n-]c3[O-])c2=C)c1 (protonated)
C=CCCC(=O)Nc1cccc(Cn2c(C)c/c(=C/c3[n-]c(=O)[n-]c3[O-])c2=C)c1 (cis-trans isomerization)
C=CCCC(=O)Nc1cccc(Cn2c(C)c/c(=C/c3[n-]c(=O)[n-]c3[O-])c2=C)c1 (3D coordinates assigned)
C=CCCC(=O)Nc1cccc(Cn2c(C)c/c(=C/c3[n-]c(=O)[n-]c3[O-])c2=C)c1 (optimized conformer: 117.51317677212107 kcal/mol)

>  <smiles>  (87) 
C=CCCC(=O)Nc1cccc(Cn2c(C)cc(=Cc3[nH]c(=O)[nH]c3O)c2=C)c1

>  <score_type>  (87) 
oracle

>  <origin>  (87) 
adg

>  <m_score__min__energy>  (87) 
-16.719999999999999

>  <m_primary>  (87) 
energy

$$$$
87:0
     RDKit          3D

 45 47  0  0  0  0  0  0  0  0999 V2000
   59.2500   34.7650   47.3280 C   0  0  0  0  0  0  0  0  0  0  0  0
   59.9080   33.5050   47.6730 N   0  0  0  0  0  0  0  0  0  0  0  0
   61.3380   33.4580   47.8590 C   0  0  0  0  0  0  0  0  0  0  0  0
   62.2050   33.4930   46.7520 C   0  0  0  0  0  0  0  0  0  0  0  0
   63.5900   33.4590   46.9350 C   0  0  0  0  0  0  0  0  0  0  0  0
   64.1240   33.3950   48.2240 C   0  0  0  0  0  0  0  0  0  0  0  0
   63.2750   33.3690   49.3310 C   0  0  0  0  0  0  0  0  0  0  0  0
   61.8890   33.4040   49.1520 C   0  0  0  0  0  0  0  0  0  0  0  0
   58.9380   32.0740   47.8840 S   0  0  0  0  0  0  0  0  0  0  0  0
   57.8590   32.3460   48.8940 O   0  0  0  0  0  0  0  0  0  0  0  0
   59.7930   30.9410   48.3780 O   0  0  0  0  0  0  0  0  0  0  0  0
   58.2310   31.5990   46.3420 C   0  0  0  0  0  0  0  0  0  0  0  0
   57.9680   32.5730   45.3700 C   0  0  0  0  0  0  0  0  0  0  0  0
   57.4050   32.2070   44.1450 C   0  0  0  0  0  0  0  0  0  0  0  0
   57.0860   30.8700   43.8920 C   0  0  0  0  0  0  0  0  0  0  0  0
   57.3140   29.8890   44.8670 C   0  0  0  0  0  0  0  0  0  0  0  0
   56.9840   28.5200   44.5800 N   0  0  0  0  0  0  0  0  0  0  0  0
   57.9460   27.4550   44.5450 C   0  0  0  0  0  0  0  0  0  0  0  0
   59.1240   27.6400   44.9580 O   0  0  0  0  0  0  0  0  0  0  0  0
   57.5340   26.0850   44.1000 C   0  0  0  0  0  0  0  0  0  0  0  0
   57.0720   25.2670   45.2840 C   0  0  0  0  0  0  0  0  0  0  0  0
   55.9150   25.6140   46.0050 C   0  0  0  0  0  0  0  0  0  0  0  0
   55.1430   26.7080   45.6320 O   0  0  0  0  0  0  0  0  0  0  0  0
   55.5370   24.8750   47.0800 N   0  0  0  0  0  0  0  0  0  0  0  0
   56.2630   23.8020   47.4850 C   0  0  0  0  0  0  0  0  0  0  0  0
   55.7810   22.9350   48.7810 S   0  0  0  0  0  0  0  0  0  0  0  0
   57.3890   23.4520   46.8150 N   0  0  0  0  0  0  0  0  0  0  0  0
   57.8100   24.1550   45.7320 C   0  0  0  0  0  0  0  0  0  0  0  0
   58.8650   23.8020   45.1390 O   0  0  0  0  0  0  0  0  0  0  0  0
   57.9070   30.2590   46.0870 C   0  0  0  0  0  0  0  0  0  0  0  0
   58.9718   35.2977   48.2493 H   0  0  0  0  0  0  0  0  0  0  0  0
   59.9378   35.3882   46.7376 H   0  0  0  0  0  0  0  0  0  0  0  0
   58.3455   34.5567   46.7376 H   0  0  0  0  0  0  0  0  0  0  0  0
   61.7898   33.5475   45.7348 H   0  0  0  0  0  0  0  0  0  0  0  0
   64.2602   33.4827   46.0631 H   0  0  0  0  0  0  0  0  0  0  0  0
   65.2143   33.3651   48.3665 H   0  0  0  0  0  0  0  0  0  0  0  0
   63.6968   33.3209   50.3458 H   0  0  0  0  0  0  0  0  0  0  0  0
   61.2246   33.3892   50.0286 H   0  0  0  0  0  0  0  0  0  0  0  0
   58.2053   33.6280   45.5718 H   0  0  0  0  0  0  0  0  0  0  0  0
   57.2125   32.9721   43.3785 H   0  0  0  0  0  0  0  0  0  0  0  0
   56.6532   30.5857   42.9215 H   0  0  0  0  0  0  0  0  0  0  0  0
   55.9740   28.2680   44.4900 H   0  0  0  0  0  0  0  0  0  0  0  0
   56.7114   26.1709   43.3748 H   0  0  0  0  0  0  0  0  0  0  0  0
   58.3960   25.5854   43.6337 H   0  0  0  0  0  0  0  0  0  0  0  0
   58.1182   29.4919   46.8466 H   0  0  0  0  0  0  0  0  0  0  0  0
  1  2  1  0
  2  3  1  0
  3  4  2  0
  4  5  1  0
  5  6  2  0
  6  7  1  0
  7  8  2  0
  2  9  1  0
  9 10  2  0
  9 11  2  0
  9 12  1  0
 12 13  2  0
 13 14  1  0
 14 15  2  0
 15 16  1  0
 16 17  1  0
 17 18  1  0
 18 19  2  0
 18 20  1  0
 20 21  1  0
 21 22  2  0
 22 23  1  0
 22 24  1  0
 24 25  1  0
 25 26  2  0
 25 27  1  0
 27 28  1  0
 28 29  2  0
 16 30  2  0
  8  3  1  0
 30 12  1  0
 28 21  1  0
  1 31  1  0
  1 32  1  0
  1 33  1  0
  4 34  1  0
  5 35  1  0
  6 36  1  0
  7 37  1  0
  8 38  1  0
 13 39  1  0
 14 40  1  0
 15 41  1  0
 17 42  1  0
 20 43  1  0
 20 44  1  0
 30 45  1  0
M  CHG  3  23  -1  24  -1  27  -1
M  END
>  <UniqueID>  (88) 
86

>  <SMILES>  (88) 
CN(c1ccccc1)S(=O)(=O)c1cccc(NC(=O)Cc2c([O-])[n-]c(=S)[n-]c2=O)c1

>  <Energy>  (88) 
56.18394692382622

>  <Genealogy>  (88) 
CN(c1ccccc1)S(=O)(=O)c1cccc(NC(=O)Cc2c([O-])[n-]c(=S)[n-]c2=O)c1 (protonated)
CN(c1ccccc1)S(=O)(=O)c1cccc(NC(=O)Cc2c([O-])[n-]c(=S)[n-]c2=O)c1 (3D coordinates assigned)
CN(c1ccccc1)S(=O)(=O)c1cccc(NC(=O)Cc2c([O-])[n-]c(=S)[n-]c2=O)c1 (optimized conformer: 56.18394692382622 kcal/mol)

>  <smiles>  (88) 
CN(c1ccccc1)S(=O)(=O)c1cccc(NC(=O)Cc2c(O)[nH]c(=S)[nH]c2=O)c1

>  <score_type>  (88) 
oracle

>  <origin>  (88) 
adg

>  <m_score__min__energy>  (88) 
-16.870000000000001

>  <m_primary>  (88) 
energy

$$$$
88:0
     RDKit          3D

 63 66  0  0  0  0  0  0  0  0999 V2000
   60.2888   30.4835   45.2818 H   0  0  0  0  0  0  0  0  0  0  0  0
   59.2760   30.2240   44.9400 C   0  0  0  0  0  0  0  0  0  0  0  0
   58.3230   31.1640   44.9080 C   0  0  0  0  0  0  0  0  0  0  0  0
   58.5940   32.5370   45.4030 C   0  0  0  0  0  0  0  0  0  0  0  0
   58.5200   33.6100   44.4970 C   0  0  0  0  0  0  0  0  0  0  0  0
   58.1615   33.4321   43.4724 H   0  0  0  0  0  0  0  0  0  0  0  0
   58.8950   34.8950   44.8810 C   0  0  0  0  0  0  0  0  0  0  0  0
   58.8017   35.7299   44.1709 H   0  0  0  0  0  0  0  0  0  0  0  0
   59.3880   35.1240   46.1630 C   0  0  0  0  0  0  0  0  0  0  0  0
   59.7011   36.1373   46.4550 H   0  0  0  0  0  0  0  0  0  0  0  0
   59.4880   34.0720   47.0840 C   0  0  0  0  0  0  0  0  0  0  0  0
   60.0170   34.3620   48.4600 C   0  0  0  0  0  0  0  0  0  0  0  0
   59.3132   33.9762   49.2122 H   0  0  0  0  0  0  0  0  0  0  0  0
   60.9943   33.8735   48.5876 H   0  0  0  0  0  0  0  0  0  0  0  0
   60.1308   35.4486   48.5876 H   0  0  0  0  0  0  0  0  0  0  0  0
   59.0260   32.7840   46.7320 C   0  0  0  0  0  0  0  0  0  0  0  0
   59.0150   31.7740   47.7090 O   0  0  0  0  0  0  0  0  0  0  0  0
   60.1750   31.0150   48.0790 C   0  0  2  0  0  0  0  0  0  0  0  0
   61.0111   31.2633   47.4087 H   0  0  0  0  0  0  0  0  0  0  0  0
   59.8970   29.5160   47.9280 C   0  0  0  0  0  0  0  0  0  0  0  0
   60.8388   28.9617   48.0533 H   0  0  0  0  0  0  0  0  0  0  0  0
   59.4735   29.3384   46.9284 H   0  0  0  0  0  0  0  0  0  0  0  0
   58.8870   29.0320   48.9780 C   0  0  0  0  0  0  0  0  0  0  0  0
   58.8458   27.9335   48.9372 H   0  0  0  0  0  0  0  0  0  0  0  0
   57.9235   29.5025   48.7322 H   0  0  0  0  0  0  0  0  0  0  0  0
   59.2200   29.4370   50.3750 N   0  0  2  0  0  0  0  0  0  0  0  0
   59.3600   28.5560   50.9260 H   0  0  0  0  0  0  0  0  0  0  0  0
   58.1140   30.1350   50.9940 C   0  0  0  0  0  0  0  0  0  0  0  0
   57.3250   29.5260   51.7720 O   0  0  0  0  0  0  0  0  0  0  0  0
   57.9360   31.5010   50.7430 O   0  0  0  0  0  0  0  0  0  0  0  0
   57.7640   32.4530   51.7870 C   0  0  0  0  0  0  0  0  0  0  0  0
   57.8549   31.9497   52.7608 H   0  0  0  0  0  0  0  0  0  0  0  0
   58.5359   33.2322   51.7035 H   0  0  0  0  0  0  0  0  0  0  0  0
   56.7682   32.9129   51.7035 H   0  0  0  0  0  0  0  0  0  0  0  0
   60.4790   30.2060   50.5170 C   0  0  0  0  0  0  0  0  0  0  0  0
   61.3257   29.5238   50.3508 H   0  0  0  0  0  0  0  0  0  0  0  0
   60.4864   30.6358   51.5295 H   0  0  0  0  0  0  0  0  0  0  0  0
   60.5920   31.3790   49.5210 C   0  0  0  0  0  0  0  0  0  0  0  0
   61.6377   31.7200   49.5040 H   0  0  0  0  0  0  0  0  0  0  0  0
   59.8997   32.1607   49.8669 H   0  0  0  0  0  0  0  0  0  0  0  0
   56.9550   30.7840   44.4010 C   0  0  0  0  0  0  0  0  0  0  0  0
   56.9817   30.7154   43.3035 H   0  0  0  0  0  0  0  0  0  0  0  0
   56.2329   31.5520   44.7151 H   0  0  0  0  0  0  0  0  0  0  0  0
   56.5240   29.4290   44.9820 C   0  0  0  0  0  0  0  0  0  0  0  0
   55.6643   29.0539   44.4074 H   0  0  0  0  0  0  0  0  0  0  0  0
   56.2612   29.5818   46.0392 H   0  0  0  0  0  0  0  0  0  0  0  0
   57.6070   28.4310   44.9230 N   0  0  0  0  0  0  0  0  0  0  0  0
   57.3150   27.0590   45.2520 C   0  0  0  0  0  0  0  0  0  0  0  0
   58.2070   26.1780   45.1140 O   0  0  0  0  0  0  0  0  0  0  0  0
   56.0290   26.7040   45.7940 N   0  0  0  0  0  0  0  0  0  0  0  0
   55.5400   25.5100   45.9960 C   0  0  0  0  0  0  0  0  0  0  0  0
   54.2430   25.2770   45.6470 N   0  0  0  0  0  0  0  0  0  0  0  0
   53.6540   24.0600   45.7990 C   0  0  0  0  0  0  0  0  0  0  0  0
   52.6028   23.9183   45.5078 H   0  0  0  0  0  0  0  0  0  0  0  0
   54.3820   22.9910   46.3240 C   0  0  0  0  0  0  0  0  0  0  0  0
   53.5690   21.2740   46.5370 Br  0  0  0  0  0  0  0  0  0  0  0  0
   55.7180   23.1880   46.6770 C   0  0  0  0  0  0  0  0  0  0  0  0
   56.3068   22.3530   47.0845 H   0  0  0  0  0  0  0  0  0  0  0  0
   56.3090   24.4430   46.5140 C   0  0  0  0  0  0  0  0  0  0  0  0
   57.3632   24.5996   46.7862 H   0  0  0  0  0  0  0  0  0  0  0  0
   58.9700   28.8180   44.5120 C   0  0  0  0  0  0  0  0  0  0  0  0
   59.0500   28.7487   43.4171 H   0  0  0  0  0  0  0  0  0  0  0  0
   59.6897   28.1385   44.9919 H   0  0  0  0  0  0  0  0  0  0  0  0
  1  2  1  0
  2  3  2  0
  3  4  1  0
  4  5  2  0
  5  6  1  0
  5  7  1  0
  7  8  1  0
  7  9  2  0
  9 10  1  0
  9 11  1  0
 11 12  1  0
 12 13  1  0
 12 14  1  0
 12 15  1  0
 11 16  2  0
 16 17  1  0
 17 18  1  0
 18 19  1  6
 18 20  1  0
 20 21  1  0
 20 22  1  0
 20 23  1  0
 23 24  1  0
 23 25  1  0
 23 26  1  0
 26 27  1  1
 26 28  1  0
 28 29  2  0
 28 30  1  0
 30 31  1  0
 31 32  1  0
 31 33  1  0
 31 34  1  0
 26 35  1  0
 35 36  1  0
 35 37  1  0
 35 38  1  0
 38 39  1  0
 38 40  1  0
  3 41  1  0
 41 42  1  0
 41 43  1  0
 41 44  1  0
 44 45  1  0
 44 46  1  0
 44 47  1  0
 47 48  1  0
 48 49  2  0
 48 50  1  0
 50 51  2  0
 51 52  1  0
 52 53  1  0
 53 54  1  0
 53 55  2  0
 55 56  1  0
 55 57  1  0
 57 58  1  0
 57 59  2  0
 59 60  1  0
 47 61  1  0
 61 62  1  0
 61 63  1  0
 61  2  1  0
 16  4  1  0
 38 18  1  0
 59 51  1  0
M  CHG  2  26   1  52  -1
M  END
>  <UniqueID>  (89) 
87

>  <SMILES>  (89) 
COC(=O)[NH+]1CCC(Oc2c(C)cccc2C2=CCN(C(=O)/N=c3\ccc(Br)c[n-]3)CC2)CC1

>  <Energy>  (89) 
93.0858899256772

>  <Genealogy>  (89) 
COC(=O)[NH+]1CCC(Oc2c(C)cccc2C2=CCN(C(=O)N=c3ccc(Br)c[n-]3)CC2)CC1 (protonated)
COC(=O)[NH+]1CCC(Oc2c(C)cccc2C2=CCN(C(=O)/N=c3\ccc(Br)c[n-]3)CC2)CC1 (cis-trans isomerization)
COC(=O)[NH+]1CCC(Oc2c(C)cccc2C2=CCN(C(=O)/N=c3\ccc(Br)c[n-]3)CC2)CC1 (3D coordinates assigned)
COC(=O)[NH+]1CCC(Oc2c(C)cccc2C2=CCN(C(=O)/N=c3\ccc(Br)c[n-]3)CC2)CC1 (nonaromatic ring conformer: 93.0858899256772 kcal/mol)

>  <smiles>  (89) 
COC(=O)N1CCC(Oc2c(C)cccc2C2=CCN(C(=O)N=c3ccc(Br)c[nH]3)CC2)CC1

>  <score_type>  (89) 
oracle

>  <origin>  (89) 
adg

>  <m_score__min__energy>  (89) 
-9.9700000000000006

>  <m_primary>  (89) 
energy

$$$$
89:0
     RDKit          3D

 35 37  0  0  0  0  0  0  0  0999 V2000
   60.1120   29.9290   46.5550 C   0  0  0  0  0  0  0  0  0  0  0  0
   59.2890   30.7950   45.9420 C   0  0  0  0  0  0  0  0  0  0  0  0
   58.2770   30.4960   45.0110 C   0  0  0  0  0  0  0  0  0  0  0  0
   57.9710   29.3490   44.3730 C   0  0  0  0  0  0  0  0  0  0  0  0
   57.3980   28.1430   44.9990 C   0  0  0  0  0  0  0  0  0  0  0  0
   56.0190   28.0350   45.2460 C   0  0  0  0  0  0  0  0  0  0  0  0
   55.1470   29.0510   44.8730 O   0  0  0  0  0  0  0  0  0  0  0  0
   55.5260   26.9290   45.8630 N   0  0  0  0  0  0  0  0  0  0  0  0
   56.3480   25.9250   46.2640 C   0  0  0  0  0  0  0  0  0  0  0  0
   55.8680   24.9090   46.8300 O   0  0  0  0  0  0  0  0  0  0  0  0
   57.6870   26.0200   46.0620 N   0  0  0  0  0  0  0  0  0  0  0  0
   58.2290   27.1050   45.4490 C   0  0  0  0  0  0  0  0  0  0  0  0
   59.4770   27.1630   45.2840 O   0  0  0  0  0  0  0  0  0  0  0  0
   57.5730   31.6720   44.8140 C   0  0  0  0  0  0  0  0  0  0  0  0
   58.1980   32.6460   45.5650 C   0  0  0  0  0  0  0  0  0  0  0  0
   57.7640   34.0790   45.6300 C   0  0  0  0  0  0  0  0  0  0  0  0
   59.2360   32.1160   46.2510 N   0  0  0  0  0  0  0  0  0  0  0  0
   60.1010   32.8340   47.1500 C   0  0  0  0  0  0  0  0  0  0  0  0
   59.5960   33.3470   48.3550 C   0  0  0  0  0  0  0  0  0  0  0  0
   60.4370   34.0390   49.2310 C   0  0  0  0  0  0  0  0  0  0  0  0
   61.7870   34.2210   48.9120 C   0  0  0  0  0  0  0  0  0  0  0  0
   62.6200   34.9090   49.7870 O   0  0  0  0  0  0  0  0  0  0  0  0
   62.2960   33.7100   47.7120 C   0  0  0  0  0  0  0  0  0  0  0  0
   63.6030   33.8860   47.3970 F   0  0  0  0  0  0  0  0  0  0  0  0
   61.4560   33.0190   46.8340 C   0  0  0  0  0  0  0  0  0  0  0  0
   60.8656   30.2964   47.2671 H   0  0  0  0  0  0  0  0  0  0  0  0
   60.0326   28.8521   46.3451 H   0  0  0  0  0  0  0  0  0  0  0  0
   58.1656   29.3089   43.2911 H   0  0  0  0  0  0  0  0  0  0  0  0
   56.6844   31.8044   44.1794 H   0  0  0  0  0  0  0  0  0  0  0  0
   57.6709   34.3865   46.6820 H   0  0  0  0  0  0  0  0  0  0  0  0
   58.5109   34.7115   45.1278 H   0  0  0  0  0  0  0  0  0  0  0  0
   56.7917   34.1908   45.1278 H   0  0  0  0  0  0  0  0  0  0  0  0
   58.5357   33.2040   48.6105 H   0  0  0  0  0  0  0  0  0  0  0  0
   60.0366   34.4414   50.1732 H   0  0  0  0  0  0  0  0  0  0  0  0
   61.8584   32.6187   45.8918 H   0  0  0  0  0  0  0  0  0  0  0  0
  1  2  2  0
  2  3  1  0
  3  4  2  3
  4  5  1  0
  5  6  2  0
  6  7  1  0
  6  8  1  0
  8  9  1  0
  9 10  2  0
  9 11  1  0
 11 12  1  0
 12 13  2  0
  3 14  1  0
 14 15  2  0
 15 16  1  0
 15 17  1  0
 17 18  1  0
 18 19  2  0
 19 20  1  0
 20 21  2  0
 21 22  1  0
 21 23  1  0
 23 24  1  0
 23 25  2  0
 17  2  1  0
 25 18  1  0
 12  5  1  0
  1 26  1  0
  1 27  1  0
  4 28  1  0
 14 29  1  0
 16 30  1  0
 16 31  1  0
 16 32  1  0
 19 33  1  0
 20 34  1  0
 25 35  1  0
M  CHG  4   7  -1   8  -1  11  -1  22  -1
M  END
>  <UniqueID>  (90) 
88

>  <SMILES>  (90) 
C=c1c(=Cc2c([O-])[n-]c(=O)[n-]c2=O)cc(C)n1-c1ccc([O-])c(F)c1

>  <Energy>  (90) 
87.10095418845444

>  <Genealogy>  (90) 
C=c1c(=Cc2c([O-])[n-]c(=O)[n-]c2=O)cc(C)n1-c1ccc([O-])c(F)c1 (protonated)
C=c1c(=Cc2c([O-])[n-]c(=O)[n-]c2=O)cc(C)n1-c1ccc([O-])c(F)c1 (3D coordinates assigned)
C=c1c(=Cc2c([O-])[n-]c(=O)[n-]c2=O)cc(C)n1-c1ccc([O-])c(F)c1 (optimized conformer: 87.10095418845444 kcal/mol)

>  <smiles>  (90) 
C=c1c(=Cc2c(O)[nH]c(=O)[nH]c2=O)cc(C)n1-c1ccc(O)c(F)c1

>  <score_type>  (90) 
oracle

>  <origin>  (90) 
adg

>  <m_score__min__energy>  (90) 
-15.859999999999999

>  <m_primary>  (90) 
energy

$$$$
90:0
     RDKit          3D

 43 45  0  0  0  0  0  0  0  0999 V2000
   59.2800   35.3340   44.9580 C   0  0  0  0  0  0  0  0  0  0  0  0
   59.6020   34.5180   46.1740 C   0  0  0  0  0  0  0  0  0  0  0  0
   58.5960   34.1980   47.1000 C   0  0  0  0  0  0  0  0  0  0  0  0
   58.8820   33.3830   48.2000 C   0  0  0  0  0  0  0  0  0  0  0  0
   60.1730   32.8710   48.3800 C   0  0  0  0  0  0  0  0  0  0  0  0
   60.5200   31.7310   49.6800 S   0  0  0  0  0  0  0  0  0  0  0  0
   61.6650   32.2550   50.4990 O   0  0  0  0  0  0  0  0  0  0  0  0
   59.3200   31.5410   50.5640 O   0  0  0  0  0  0  0  0  0  0  0  0
   60.9600   30.2090   48.9740 N   0  0  0  0  0  0  0  0  0  0  0  0
   60.1140   29.5330   48.0380 C   0  0  0  0  0  0  0  0  0  0  0  0
   59.8610   30.1280   46.7970 C   0  0  0  0  0  0  0  0  0  0  0  0
   58.9020   29.5840   45.9390 C   0  0  0  0  0  0  0  0  0  0  0  0
   58.2040   28.4230   46.3070 C   0  0  0  0  0  0  0  0  0  0  0  0
   56.8860   27.8090   45.3100 S   0  0  0  0  0  0  0  0  0  0  0  0
   57.4080   27.4270   43.9530 O   0  0  0  0  0  0  0  0  0  0  0  0
   56.3210   26.5800   45.9650 O   0  0  0  0  0  0  0  0  0  0  0  0
   55.6090   28.9810   45.1060 N   0  0  0  0  0  0  0  0  0  0  0  0
   55.6550   29.6500   43.8020 C   0  0  0  0  0  0  0  0  0  0  0  0
   56.5870   30.8210   43.8060 C   0  0  0  0  0  0  0  0  0  0  0  0
   57.3120   31.2850   42.7270 C   0  0  0  0  0  0  0  0  0  0  0  0
   58.0240   32.3670   43.1990 C   0  0  0  0  0  0  0  0  0  0  0  0
   57.6870   32.4970   44.5320 C   0  0  0  0  0  0  0  0  0  0  0  0
   56.8280   31.5610   44.8640 O   0  0  0  0  0  0  0  0  0  0  0  0
   58.5200   27.7790   47.5100 C   0  0  0  0  0  0  0  0  0  0  0  0
   59.4640   28.3350   48.3760 C   0  0  0  0  0  0  0  0  0  0  0  0
   61.1790   33.1910   47.4580 C   0  0  0  0  0  0  0  0  0  0  0  0
   60.8930   34.0010   46.3560 C   0  0  0  0  0  0  0  0  0  0  0  0
   58.8925   36.3159   45.2674 H   0  0  0  0  0  0  0  0  0  0  0  0
   60.1911   35.4720   44.3573 H   0  0  0  0  0  0  0  0  0  0  0  0
   58.5202   34.8127   44.3573 H   0  0  0  0  0  0  0  0  0  0  0  0
   57.5780   34.5903   46.9595 H   0  0  0  0  0  0  0  0  0  0  0  0
   58.0908   33.1435   48.9257 H   0  0  0  0  0  0  0  0  0  0  0  0
   60.4190   31.0269   46.4961 H   0  0  0  0  0  0  0  0  0  0  0  0
   58.6934   30.0666   44.9728 H   0  0  0  0  0  0  0  0  0  0  0  0
   55.9944   28.9284   43.0443 H   0  0  0  0  0  0  0  0  0  0  0  0
   54.6446   30.0203   43.5739 H   0  0  0  0  0  0  0  0  0  0  0  0
   57.3200   30.8772   41.7054 H   0  0  0  0  0  0  0  0  0  0  0  0
   58.7203   32.9994   42.6288 H   0  0  0  0  0  0  0  0  0  0  0  0
   58.0787   33.2676   45.2123 H   0  0  0  0  0  0  0  0  0  0  0  0
   58.0236   26.8333   47.7732 H   0  0  0  0  0  0  0  0  0  0  0  0
   59.6992   27.8329   49.3260 H   0  0  0  0  0  0  0  0  0  0  0  0
   62.1980   32.8028   47.6026 H   0  0  0  0  0  0  0  0  0  0  0  0
   61.6839   34.2342   45.6279 H   0  0  0  0  0  0  0  0  0  0  0  0
  1  2  1  0
  2  3  2  0
  3  4  1  0
  4  5  2  0
  5  6  1  0
  6  7  2  0
  6  8  2  0
  6  9  1  0
  9 10  1  0
 10 11  2  0
 11 12  1  0
 12 13  2  0
 13 14  1  0
 14 15  2  0
 14 16  2  0
 14 17  1  0
 17 18  1  0
 18 19  1  0
 19 20  2  0
 20 21  1  0
 21 22  2  0
 22 23  1  0
 13 24  1  0
 24 25  2  0
  5 26  1  0
 26 27  2  0
 27  2  1  0
 25 10  1  0
 23 19  1  0
  1 28  1  0
  1 29  1  0
  1 30  1  0
  3 31  1  0
  4 32  1  0
 11 33  1  0
 12 34  1  0
 18 35  1  0
 18 36  1  0
 20 37  1  0
 21 38  1  0
 22 39  1  0
 24 40  1  0
 25 41  1  0
 26 42  1  0
 27 43  1  0
M  CHG  2   9  -1  17  -1
M  END
>  <UniqueID>  (91) 
89

>  <SMILES>  (91) 
Cc1ccc(S(=O)(=O)[N-]c2ccc(S(=O)(=O)[N-]Cc3ccco3)cc2)cc1

>  <Energy>  (91) 
72.21551168467973

>  <Genealogy>  (91) 
Cc1ccc(S(=O)(=O)[N-]c2ccc(S(=O)(=O)[N-]Cc3ccco3)cc2)cc1 (protonated)
Cc1ccc(S(=O)(=O)[N-]c2ccc(S(=O)(=O)[N-]Cc3ccco3)cc2)cc1 (3D coordinates assigned)
Cc1ccc(S(=O)(=O)[N-]c2ccc(S(=O)(=O)[N-]Cc3ccco3)cc2)cc1 (optimized conformer: 72.21551168467973 kcal/mol)

>  <smiles>  (91) 
Cc1ccc(S(=O)(=O)Nc2ccc(S(=O)(=O)NCc3ccco3)cc2)cc1

>  <score_type>  (91) 
oracle

>  <origin>  (91) 
adg

>  <m_score__min__energy>  (91) 
-11.59

>  <m_primary>  (91) 
energy

$$$$
91:0
     RDKit          3D

 38 40  0  0  1  0  0  0  0  0999 V2000
   56.6050   29.7320   45.1400 O   0  0  0  0  0  0  0  0  0  0  0  0
   58.0150   30.0710   45.6170 S   0  0  0  0  0  0  0  0  0  0  0  0
   58.1290   29.3250   46.9460 O   0  0  0  0  0  0  0  0  0  0  0  0
   59.2010   29.4090   44.5150 C   0  0  0  0  0  0  0  0  0  0  0  0
   58.8240   28.0870   43.8970 C   0  0  0  0  0  0  0  0  0  0  0  0
   58.7820   27.1360   45.0220 N   0  0  0  0  0  0  0  0  0  0  0  0
   57.7240   26.4100   45.1530 C   0  0  0  0  0  0  0  0  0  0  0  0
   57.7240   25.1710   44.5810 N   0  0  0  0  0  0  0  0  0  0  0  0
   56.6110   24.4160   44.7240 C   0  0  0  0  0  0  0  0  0  0  0  0
   56.5940   23.0890   44.1190 C   0  0  0  0  0  0  0  0  0  0  0  0
   56.0900   22.7930   42.8630 C   0  0  0  0  0  0  0  0  0  0  0  0
   56.2580   21.4820   42.6800 N   0  0  0  0  0  0  0  0  0  0  0  0
   56.8370   20.9400   43.7390 N   0  0  0  0  0  0  0  0  0  0  0  0
   57.0630   21.9120   44.6600 C   0  0  0  0  0  0  0  0  0  0  0  0
   55.5030   24.8630   45.4190 C   0  0  0  0  0  0  0  0  0  0  0  0
   55.5330   26.1390   45.9940 C   0  0  0  0  0  0  0  0  0  0  0  0
   56.6530   26.8690   45.8380 N   0  0  0  0  0  0  0  0  0  0  0  0
   58.1580   31.7700   45.8770 C   0  0  0  0  0  0  0  0  0  0  0  0
   58.3960   32.3900   47.0730 C   0  0  0  0  0  0  0  0  0  0  0  0
   58.5250   33.7730   47.2000 C   0  0  0  0  0  0  0  0  0  0  0  0
   58.4150   34.5820   46.0890 C   0  0  0  0  0  0  0  0  0  0  0  0
   58.1770   33.9730   44.8790 C   0  0  0  0  0  0  0  0  0  0  0  0
   58.0480   32.6040   44.7610 C   0  0  0  0  0  0  0  0  0  0  0  0
   57.7430   31.9050   43.1640 Cl  0  0  0  0  0  0  0  0  0  0  0  0
   59.3552   30.1345   43.7026 H   0  0  0  0  0  0  0  0  0  0  0  0
   60.1069   29.2240   45.1110 H   0  0  0  0  0  0  0  0  0  0  0  0
   57.8394   28.1545   43.4113 H   0  0  0  0  0  0  0  0  0  0  0  0
   59.5385   27.7760   43.1206 H   0  0  0  0  0  0  0  0  0  0  0  0
   55.6384   23.5020   42.1534 H   0  0  0  0  0  0  0  0  0  0  0  0
   57.0640   19.9180   43.8090 H   0  0  0  0  0  0  0  0  0  0  0  0
   57.5304   21.7842   45.6475 H   0  0  0  0  0  0  0  0  0  0  0  0
   54.6117   24.2261   45.5187 H   0  0  0  0  0  0  0  0  0  0  0  0
   54.6712   26.5314   46.5538 H   0  0  0  0  0  0  0  0  0  0  0  0
   56.7420   27.8290   46.2420 H   0  0  0  0  0  0  0  0  0  0  0  0
   58.4900   31.7692   47.9762 H   0  0  0  0  0  0  0  0  0  0  0  0
   58.7147   34.2187   48.1876 H   0  0  0  0  0  0  0  0  0  0  0  0
   58.5140   35.6747   46.1675 H   0  0  0  0  0  0  0  0  0  0  0  0
   58.0867   34.5965   43.9773 H   0  0  0  0  0  0  0  0  0  0  0  0
  1  2  2  0
  2  3  2  0
  2  4  1  0
  4  5  1  0
  5  6  1  0
  6  7  2  0
  7  8  1  0
  8  9  2  0
  9 10  1  0
 10 11  1  0
 11 12  2  0
 12 13  1  0
 13 14  1  0
  9 15  1  0
 15 16  2  0
 16 17  1  0
  2 18  1  0
 18 19  2  0
 19 20  1  0
 20 21  2  0
 21 22  1  0
 22 23  2  0
 23 24  1  0
 17  7  1  0
 23 18  1  0
 14 10  2  0
  4 25  1  0
  4 26  1  0
  5 27  1  0
  5 28  1  0
 11 29  1  0
 13 30  1  0
 14 31  1  0
 15 32  1  0
 16 33  1  0
 17 34  1  0
 19 35  1  0
 20 36  1  0
 21 37  1  0
 22 38  1  0
M  END
>  <smiles>  (92) 
O=S(=O)(CCN=c1nc(-c2cn[nH]c2)cc[nH]1)c1ccccc1Cl

>  <score_type>  (92) 
oracle

>  <origin>  (92) 
adg

>  <m_score__min__energy>  (92) 
-8.4000000000000004

>  <m_primary>  (92) 
energy

$$$$
