0:0
     RDKit          3D

 47 49  0  0  0  0  0  0  0  0999 V2000
   55.4411   24.3614   44.4786 H   0  0  0  0  0  0  0  0  0  0  0  0
   56.4670   24.2630   44.8630 C   0  0  0  0  0  0  0  0  0  0  0  0
   56.9490   25.1760   45.7440 N   0  0  0  0  0  0  0  0  0  0  0  0
   58.2120   25.1120   46.2460 C   0  0  0  0  0  0  0  0  0  0  0  0
   58.5850   26.0300   47.0940 N   0  0  0  0  0  0  0  0  0  0  0  0
   58.6260   27.4520   46.8940 C   0  0  0  0  0  0  0  0  0  0  0  0
   58.1950   28.2410   47.7780 O   0  0  0  0  0  0  0  0  0  0  0  0
   59.2760   28.0030   45.6620 C   0  0  0  0  0  0  0  0  0  0  0  0
   59.6844   27.1746   45.0645 H   0  0  0  0  0  0  0  0  0  0  0  0
   60.0860   28.6863   45.9571 H   0  0  0  0  0  0  0  0  0  0  0  0
   58.2850   28.7470   44.8540 N   0  0  0  0  0  0  0  0  0  0  0  0
   57.7810   28.2340   43.6780 C   0  0  0  0  0  0  0  0  0  0  0  0
   58.1620   26.8660   43.1650 C   0  0  0  0  0  0  0  0  0  0  0  0
   58.3491   26.1943   44.0158 H   0  0  0  0  0  0  0  0  0  0  0  0
   57.3420   26.4625   42.5527 H   0  0  0  0  0  0  0  0  0  0  0  0
   59.0725   26.9445   42.5527 H   0  0  0  0  0  0  0  0  0  0  0  0
   56.8680   28.9920   42.9320 C   0  0  0  0  0  0  0  0  0  0  0  0
   56.4438   28.5797   42.0046 H   0  0  0  0  0  0  0  0  0  0  0  0
   56.5050   30.2300   43.3470 N   0  0  0  0  0  0  0  0  0  0  0  0
   55.8220   30.7510   42.7570 H   0  0  0  0  0  0  0  0  0  0  0  0
   57.0130   30.7650   44.4960 C   0  0  0  0  0  0  0  0  0  0  0  0
   56.6920   31.9660   44.8950 N   0  0  0  0  0  0  0  0  0  0  0  0
   57.3840   33.2160   44.5750 C   0  0  0  0  0  0  0  0  0  0  0  0
   57.9462   33.0878   43.6382 H   0  0  0  0  0  0  0  0  0  0  0  0
   56.6367   34.0157   44.4656 H   0  0  0  0  0  0  0  0  0  0  0  0
   58.3400   33.5940   45.6780 C   0  0  0  0  0  0  0  0  0  0  0  0
   59.5560   34.2270   45.3710 C   0  0  0  0  0  0  0  0  0  0  0  0
   59.8108   34.4451   44.3234 H   0  0  0  0  0  0  0  0  0  0  0  0
   60.4440   34.5810   46.3920 C   0  0  0  0  0  0  0  0  0  0  0  0
   61.3902   35.0857   46.1470 H   0  0  0  0  0  0  0  0  0  0  0  0
   60.1300   34.2940   47.7230 C   0  0  0  0  0  0  0  0  0  0  0  0
   60.8274   34.5769   48.5253 H   0  0  0  0  0  0  0  0  0  0  0  0
   58.9310   33.6480   48.0360 C   0  0  0  0  0  0  0  0  0  0  0  0
   58.6890   33.4160   49.0837 H   0  0  0  0  0  0  0  0  0  0  0  0
   58.0380   33.2960   47.0180 C   0  0  0  0  0  0  0  0  0  0  0  0
   57.0966   32.7844   47.2672 H   0  0  0  0  0  0  0  0  0  0  0  0
   57.9130   30.0070   45.2620 C   0  0  0  0  0  0  0  0  0  0  0  0
   58.3870   30.5010   46.3240 O   0  0  0  0  0  0  0  0  0  0  0  0
   59.0460   24.0400   45.8620 C   0  0  0  0  0  0  0  0  0  0  0  0
   60.0633   23.9586   46.2726 H   0  0  0  0  0  0  0  0  0  0  0  0
   58.5750   23.0790   44.9560 C   0  0  0  0  0  0  0  0  0  0  0  0
   59.4300   21.9880   44.5820 N   0  0  0  0  0  0  0  0  0  0  0  0
   60.4500   22.1240   44.4080 H   0  0  0  0  0  0  0  0  0  0  0  0
   59.0420   21.0270   44.4590 H   0  0  0  0  0  0  0  0  0  0  0  0
   57.2690   23.1980   44.4420 C   0  0  0  0  0  0  0  0  0  0  0  0
   56.7310   22.2390   43.5080 C   0  0  0  0  0  0  0  0  0  0  0  0
   56.2990   21.4700   42.7580 N   0  0  0  0  0  0  0  0  0  0  0  0
  1  2  1  0
  2  3  1  0
  3  4  1  0
  4  5  2  0
  5  6  1  0
  6  7  2  0
  6  8  1  0
  8  9  1  0
  8 10  1  0
  8 11  1  0
 11 12  1  0
 12 13  1  0
 13 14  1  0
 13 15  1  0
 13 16  1  0
 12 17  2  0
 17 18  1  0
 17 19  1  0
 19 20  1  0
 19 21  1  0
 21 22  2  3
 22 23  1  0
 23 24  1  0
 23 25  1  0
 23 26  1  0
 26 27  2  0
 27 28  1  0
 27 29  1  0
 29 30  1  0
 29 31  2  0
 31 32  1  0
 31 33  1  0
 33 34  1  0
 33 35  2  0
 35 36  1  0
 21 37  1  0
 37 38  2  0
  4 39  1  0
 39 40  1  0
 39 41  2  0
 41 42  1  0
 42 43  1  0
 42 44  1  0
 41 45  1  0
 45 46  1  0
 46 47  3  0
 45  2  2  0
 37 11  1  0
 35 26  1  0
M  CHG  1   3  -1
M  END
>  <UniqueID>  (1) 
1

>  <SMILES>  (1) 
Cc1c[nH]c(=NCc2ccccc2)c(=O)n1CC(=O)/N=c1\cc(N)c(C#N)c[n-]1

>  <Energy>  (1) 
63.573743527834715

>  <Genealogy>  (1) 
Cc1c[nH]c(=NCc2ccccc2)c(=O)n1CC(=O)N=c1cc(N)c(C#N)c[n-]1 (protonated)
Cc1c[nH]c(=NCc2ccccc2)c(=O)n1CC(=O)/N=c1\cc(N)c(C#N)c[n-]1 (cis-trans isomerization)
Cc1c[nH]c(=NCc2ccccc2)c(=O)n1CC(=O)/N=c1\cc(N)c(C#N)c[n-]1 (3D coordinates assigned)
Cc1c[nH]c(=NCc2ccccc2)c(=O)n1CC(=O)/N=c1\cc(N)c(C#N)c[n-]1 (optimized conformer: 63.573743527834715 kcal/mol)

>  <smiles>  (1) 
Cc1c[nH]c(=NCc2ccccc2)c(=O)n1CC(=O)N=c1cc(N)c(C#N)c[nH]1

>  <score_type>  (1) 
oracle

>  <origin>  (1) 
adg

>  <m_score__min__energy>  (1) 
-9.8000000000000007

>  <m_primary>  (1) 
energy

$$$$
1:0
     RDKit          3D

 70 74  0  0  0  0  0  0  0  0999 V2000
   51.0320   32.7210   51.8430 O   0  0  0  0  0  0  0  0  0  0  0  0
   51.3700   32.0470   50.8340 C   0  0  0  0  0  0  0  0  0  0  0  0
   50.7440   32.2820   49.6140 O   0  0  0  0  0  0  0  0  0  0  0  0
   52.4480   31.0140   50.9400 C   0  0  0  0  0  0  0  0  0  0  0  0
   53.2630   31.2060   52.2260 C   0  0  0  0  0  0  0  0  0  0  0  0
   54.7670   31.1850   51.9460 C   0  0  0  0  0  0  0  0  0  0  0  0
   55.3840   30.0400   52.6170 N   0  0  0  0  0  0  0  0  0  0  0  0
   57.0150   30.4260   53.0680 S   0  0  0  0  0  0  0  0  0  0  0  0
   57.7700   29.1550   53.3380 O   0  0  0  0  0  0  0  0  0  0  0  0
   56.9970   31.2460   54.3280 O   0  0  0  0  0  0  0  0  0  0  0  0
   57.8100   31.3510   51.7960 C   0  0  0  0  0  0  0  0  0  0  0  0
   58.4510   32.5560   52.1080 C   0  0  0  0  0  0  0  0  0  0  0  0
   59.0870   33.2960   51.1070 C   0  0  0  0  0  0  0  0  0  0  0  0
   59.0740   32.8440   49.7760 C   0  0  0  0  0  0  0  0  0  0  0  0
   59.8160   33.6000   48.7080 C   0  0  0  0  0  0  0  0  0  0  0  0
   59.1170   33.4370   47.3970 C   0  0  0  0  0  0  0  0  0  0  0  0
   59.1970   32.3150   46.6500 N   0  0  0  0  0  0  0  0  0  0  0  0
   58.4900   32.4210   45.4940 C   0  0  0  0  0  0  0  0  0  0  0  0
   58.3820   31.2770   44.5360 C   0  0  0  0  0  0  0  0  0  0  0  0
   58.0130   30.0240   45.2730 C   0  0  0  0  0  0  0  0  0  0  0  0
   56.9110   29.2100   45.0490 C   0  0  0  0  0  0  0  0  0  0  0  0
   55.9800   29.4010   44.0360 O   0  0  0  0  0  0  0  0  0  0  0  0
   56.8300   28.1960   45.9430 N   0  0  0  0  0  0  0  0  0  0  0  0
   57.8960   28.3830   46.7460 C   0  0  0  0  0  0  0  0  0  0  0  0
   58.2410   27.6180   47.8570 C   0  0  0  0  0  0  0  0  0  0  0  0
   59.3750   27.9950   48.5950 C   0  0  0  0  0  0  0  0  0  0  0  0
   60.1570   29.1160   48.2060 C   0  0  0  0  0  0  0  0  0  0  0  0
   61.3020   29.5290   48.9690 N   0  0  0  0  0  0  0  0  0  0  0  0
   61.2940   29.6840   50.3990 C   0  0  0  0  0  0  0  0  0  0  0  0
   60.3530   29.2010   51.0840 O   0  0  0  0  0  0  0  0  0  0  0  0
   62.3440   30.3830   51.0790 N   0  0  0  0  0  0  0  0  0  0  0  0
   63.6150   30.7850   50.4830 C   0  0  0  0  0  0  0  0  0  0  0  0
   63.4170   31.8920   49.4790 C   0  0  0  0  0  0  0  0  0  0  0  0
   63.1820   33.2110   49.9080 C   0  0  0  0  0  0  0  0  0  0  0  0
   62.9580   34.2280   48.9750 C   0  0  0  0  0  0  0  0  0  0  0  0
   62.9450   33.9320   47.6100 C   0  0  0  0  0  0  0  0  0  0  0  0
   63.1460   32.6200   47.1750 C   0  0  0  0  0  0  0  0  0  0  0  0
   63.3840   31.6020   48.1030 C   0  0  0  0  0  0  0  0  0  0  0  0
   59.7660   29.8780   47.0840 C   0  0  0  0  0  0  0  0  0  0  0  0
   58.6330   29.4780   46.3760 C   0  0  0  0  0  0  0  0  0  0  0  0
   57.8210   33.6320   45.3200 C   0  0  0  0  0  0  0  0  0  0  0  0
   58.1560   34.5990   46.6550 S   0  0  0  0  0  0  0  0  0  0  0  0
   58.4300   31.6360   49.4660 C   0  0  0  0  0  0  0  0  0  0  0  0
   57.7990   30.8950   50.4700 C   0  0  0  0  0  0  0  0  0  0  0  0
   51.9895   30.0141   50.9496 H   0  0  0  0  0  0  0  0  0  0  0  0
   53.1219   31.1182   50.0769 H   0  0  0  0  0  0  0  0  0  0  0  0
   52.9969   32.1736   52.6765 H   0  0  0  0  0  0  0  0  0  0  0  0
   53.0280   30.3773   52.9101 H   0  0  0  0  0  0  0  0  0  0  0  0
   54.9348   31.1059   50.8618 H   0  0  0  0  0  0  0  0  0  0  0  0
   55.2185   32.1132   52.3261 H   0  0  0  0  0  0  0  0  0  0  0  0
   58.4542   32.9220   53.1453 H   0  0  0  0  0  0  0  0  0  0  0  0
   59.5995   34.2354   51.3618 H   0  0  0  0  0  0  0  0  0  0  0  0
   59.8516   34.6670   48.9731 H   0  0  0  0  0  0  0  0  0  0  0  0
   60.8394   33.2050   48.6266 H   0  0  0  0  0  0  0  0  0  0  0  0
   57.6078   31.5007   43.7873 H   0  0  0  0  0  0  0  0  0  0  0  0
   59.3516   31.1306   44.0376 H   0  0  0  0  0  0  0  0  0  0  0  0
   57.6421   26.7427   48.1487 H   0  0  0  0  0  0  0  0  0  0  0  0
   59.6613   27.4154   49.4850 H   0  0  0  0  0  0  0  0  0  0  0  0
   62.2060   29.6410   48.4610 H   0  0  0  0  0  0  0  0  0  0  0  0
   64.2892   31.1370   51.2777 H   0  0  0  0  0  0  0  0  0  0  0  0
   64.0484   29.9167   49.9651 H   0  0  0  0  0  0  0  0  0  0  0  0
   63.1744   33.4435   50.9831 H   0  0  0  0  0  0  0  0  0  0  0  0
   62.7921   35.2606   49.3158 H   0  0  0  0  0  0  0  0  0  0  0  0
   62.7761   34.7338   46.8761 H   0  0  0  0  0  0  0  0  0  0  0  0
   63.1170   32.3874   46.1003 H   0  0  0  0  0  0  0  0  0  0  0  0
   63.5460   30.5708   47.7560 H   0  0  0  0  0  0  0  0  0  0  0  0
   60.3401   30.7643   46.7760 H   0  0  0  0  0  0  0  0  0  0  0  0
   57.1877   33.9059   44.4633 H   0  0  0  0  0  0  0  0  0  0  0  0
   58.4216   31.2705   48.4285 H   0  0  0  0  0  0  0  0  0  0  0  0
   57.2924   29.9514   50.2189 H   0  0  0  0  0  0  0  0  0  0  0  0
  1  2  2  0
  2  3  1  0
  2  4  1  0
  4  5  1  0
  5  6  1  0
  6  7  1  0
  7  8  1  0
  8  9  2  0
  8 10  2  0
  8 11  1  0
 11 12  2  0
 12 13  1  0
 13 14  2  0
 14 15  1  0
 15 16  1  0
 16 17  2  0
 17 18  1  0
 18 19  1  0
 19 20  1  0
 20 21  2  0
 21 22  1  0
 21 23  1  0
 23 24  1  0
 24 25  2  0
 25 26  1  0
 26 27  2  0
 27 28  1  0
 28 29  1  0
 29 30  2  0
 29 31  1  0
 31 32  1  0
 32 33  1  0
 33 34  2  0
 34 35  1  0
 35 36  2  0
 36 37  1  0
 37 38  2  0
 27 39  1  0
 39 40  2  0
 18 41  2  0
 41 42  1  0
 14 43  1  0
 43 44  2  0
 44 11  1  0
 42 16  1  0
 40 20  1  0
 40 24  1  0
 38 33  1  0
  4 45  1  0
  4 46  1  0
  5 47  1  0
  5 48  1  0
  6 49  1  0
  6 50  1  0
 12 51  1  0
 13 52  1  0
 15 53  1  0
 15 54  1  0
 19 55  1  0
 19 56  1  0
 25 57  1  0
 26 58  1  0
 28 59  1  0
 32 60  1  0
 32 61  1  0
 34 62  1  0
 35 63  1  0
 36 64  1  0
 37 65  1  0
 38 66  1  0
 39 67  1  0
 41 68  1  0
 43 69  1  0
 44 70  1  0
M  CHG  5   3  -1   7  -1  22  -1  23  -1  31  -1
M  END
>  <UniqueID>  (2) 
2

>  <SMILES>  (2) 
O=C([O-])CCC[N-]S(=O)(=O)c1ccc(Cc2nc(Cc3c([O-])[n-]c4ccc(NC(=O)[N-]Cc5ccccc5)cc34)cs2)cc1

>  <Energy>  (2) 
126.18353110127225

>  <Genealogy>  (2) 
O=C([O-])CCC[N-]S(=O)(=O)c1ccc(Cc2nc(Cc3c([O-])[n-]c4ccc(NC(=O)[N-]Cc5ccccc5)cc34)cs2)cc1 (protonated)
O=C([O-])CCC[N-]S(=O)(=O)c1ccc(Cc2nc(Cc3c([O-])[n-]c4ccc(NC(=O)[N-]Cc5ccccc5)cc34)cs2)cc1 (3D coordinates assigned)
O=C([O-])CCC[N-]S(=O)(=O)c1ccc(Cc2nc(Cc3c([O-])[n-]c4ccc(NC(=O)[N-]Cc5ccccc5)cc34)cs2)cc1 (optimized conformer: 126.18353110127225 kcal/mol)

>  <smiles>  (2) 
O=C(O)CCCNS(=O)(=O)c1ccc(Cc2nc(Cc3c(O)[nH]c4ccc(NC(=O)NCc5ccccc5)cc34)cs2)cc1

>  <score_type>  (2) 
oracle

>  <origin>  (2) 
adg

>  <m_score__min__energy>  (2) 
-20.469999999999999

>  <m_primary>  (2) 
energy

$$$$
2:0
     RDKit          3D

 33 35  0  0  0  0  0  0  0  0999 V2000
   55.4550   30.6740   44.3090 O   0  0  0  0  0  0  0  0  0  0  0  0
   56.3540   29.8100   44.4830 C   0  0  0  0  0  0  0  0  0  0  0  0
   56.1550   28.6260   45.2580 N   0  0  0  0  0  0  0  0  0  0  0  0
   57.2920   28.0050   45.2450 C   0  0  0  0  0  0  0  0  0  0  0  0
   57.5650   26.7770   46.0540 C   0  0  0  0  0  0  0  0  0  0  0  0
   56.4350   25.8090   45.8930 C   0  0  0  0  0  0  0  0  0  0  0  0
   56.5660   24.4570   45.6440 C   0  0  0  0  0  0  0  0  0  0  0  0
   55.2850   23.9720   45.4700 C   0  0  0  0  0  0  0  0  0  0  0  0
   54.4320   25.0490   45.6080 C   0  0  0  0  0  0  0  0  0  0  0  0
   55.1370   26.1660   45.8600 N   0  0  0  0  0  0  0  0  0  0  0  0
   58.2810   28.7660   44.4920 C   0  0  0  0  0  0  0  0  0  0  0  0
   59.4970   28.4670   44.3550 O   0  0  0  0  0  0  0  0  0  0  0  0
   57.6760   29.9350   43.9620 N   0  0  0  0  0  0  0  0  0  0  0  0
   58.3620   31.1870   43.6530 C   0  0  0  0  0  0  0  0  0  0  0  0
   58.2770   32.1310   44.8240 C   0  0  0  0  0  0  0  0  0  0  0  0
   57.7490   33.4230   44.6570 C   0  0  0  0  0  0  0  0  0  0  0  0
   57.7220   34.3170   45.7310 C   0  0  0  0  0  0  0  0  0  0  0  0
   58.2270   33.9330   46.9760 C   0  0  0  0  0  0  0  0  0  0  0  0
   58.7610   32.6530   47.1490 C   0  0  0  0  0  0  0  0  0  0  0  0
   58.7920   31.7560   46.0770 C   0  0  0  0  0  0  0  0  0  0  0  0
   58.4990   26.3105   45.7077 H   0  0  0  0  0  0  0  0  0  0  0  0
   57.6624   27.0521   47.1146 H   0  0  0  0  0  0  0  0  0  0  0  0
   57.5025   23.8821   45.5943 H   0  0  0  0  0  0  0  0  0  0  0  0
   54.9995   22.9303   45.2619 H   0  0  0  0  0  0  0  0  0  0  0  0
   53.3363   25.0004   45.5241 H   0  0  0  0  0  0  0  0  0  0  0  0
   54.7500   27.1270   45.9870 H   0  0  0  0  0  0  0  0  0  0  0  0
   59.4189   30.9770   43.4319 H   0  0  0  0  0  0  0  0  0  0  0  0
   57.8807   31.6536   42.7808 H   0  0  0  0  0  0  0  0  0  0  0  0
   57.3555   33.7316   43.6772 H   0  0  0  0  0  0  0  0  0  0  0  0
   57.3024   35.3248   45.5959 H   0  0  0  0  0  0  0  0  0  0  0  0
   58.2043   34.6381   47.8200 H   0  0  0  0  0  0  0  0  0  0  0  0
   59.1573   32.3510   48.1297 H   0  0  0  0  0  0  0  0  0  0  0  0
   59.2212   30.7526   46.2147 H   0  0  0  0  0  0  0  0  0  0  0  0
  1  2  2  0
  2  3  1  0
  3  4  2  0
  4  5  1  0
  5  6  1  0
  6  7  2  0
  7  8  1  0
  8  9  2  0
  9 10  1  0
  4 11  1  0
 11 12  2  0
 11 13  1  0
 13 14  1  0
 14 15  1  0
 15 16  2  0
 16 17  1  0
 17 18  2  0
 18 19  1  0
 19 20  2  0
 13  2  1  0
 20 15  1  0
 10  6  1  0
  5 21  1  0
  5 22  1  0
  7 23  1  0
  8 24  1  0
  9 25  1  0
 10 26  1  0
 14 27  1  0
 14 28  1  0
 16 29  1  0
 17 30  1  0
 18 31  1  0
 19 32  1  0
 20 33  1  0
M  END
>  <UniqueID>  (3) 
3

>  <SMILES>  (3) 
O=C1N=C(Cc2ccc[nH]2)C(=O)N1Cc1ccccc1

>  <Energy>  (3) 
84.14452714596186

>  <Genealogy>  (3) 
O=C1N=C(Cc2ccc[nH]2)C(=O)N1Cc1ccccc1 (3D coordinates assigned)
O=C1N=C(Cc2ccc[nH]2)C(=O)N1Cc1ccccc1 (nonaromatic ring conformer: 84.14452714596186 kcal/mol)

>  <smiles>  (3) 
O=C1N=C(Cc2ccc[nH]2)C(=O)N1Cc1ccccc1

>  <score_type>  (3) 
oracle

>  <origin>  (3) 
adg

>  <m_score__min__energy>  (3) 
-7.46

>  <m_primary>  (3) 
energy

$$$$
3:0
     RDKit          3D

 40 42  0  0  0  0  0  0  0  0999 V2000
   55.4410   29.2430   44.8930 N   0  0  0  0  0  0  0  0  0  0  0  0
   57.1580   29.4050   45.0030 S   0  0  0  0  0  0  0  0  0  0  0  0
   57.7060   29.8770   43.6860 O   0  0  0  0  0  0  0  0  0  0  0  0
   57.4680   30.4340   46.0550 O   0  0  0  0  0  0  0  0  0  0  0  0
   57.8990   27.8550   45.4370 C   0  0  0  0  0  0  0  0  0  0  0  0
   57.3850   26.6780   44.8650 C   0  0  0  0  0  0  0  0  0  0  0  0
   57.9690   25.4400   45.1430 C   0  0  0  0  0  0  0  0  0  0  0  0
   59.0720   25.3600   45.9910 C   0  0  0  0  0  0  0  0  0  0  0  0
   59.5900   26.5180   46.5740 C   0  0  0  0  0  0  0  0  0  0  0  0
   59.0050   27.7690   46.3170 C   0  0  0  0  0  0  0  0  0  0  0  0
   59.5750   28.9580   46.9810 C   0  0  0  0  0  0  0  0  0  0  0  0
   59.4910   29.1120   48.3670 C   0  0  0  0  0  0  0  0  0  0  0  0
   60.0310   30.2440   48.9770 C   0  0  0  0  0  0  0  0  0  0  0  0
   60.6650   31.2180   48.1950 C   0  0  0  0  0  0  0  0  0  0  0  0
   61.1470   32.2750   48.7890 N   0  0  0  0  0  0  0  0  0  0  0  0
   60.5420   33.6060   48.8420 C   0  0  0  0  0  0  0  0  0  0  0  0
   59.5950   33.8130   47.6870 C   0  0  0  0  0  0  0  0  0  0  0  0
   58.3340   33.1940   47.6900 C   0  0  0  0  0  0  0  0  0  0  0  0
   57.4510   33.3880   46.6230 C   0  0  0  0  0  0  0  0  0  0  0  0
   57.8150   34.2070   45.5500 C   0  0  0  0  0  0  0  0  0  0  0  0
   56.9560   34.3940   44.5180 F   0  0  0  0  0  0  0  0  0  0  0  0
   59.0640   34.8380   45.5460 C   0  0  0  0  0  0  0  0  0  0  0  0
   59.4180   35.6390   44.5100 F   0  0  0  0  0  0  0  0  0  0  0  0
   59.9490   34.6460   46.6120 C   0  0  0  0  0  0  0  0  0  0  0  0
   60.7600   31.0380   46.8400 N   0  0  0  0  0  0  0  0  0  0  0  0
   60.2370   29.9390   46.2310 C   0  0  0  0  0  0  0  0  0  0  0  0
   55.1440   28.6060   45.6660 H   0  0  0  0  0  0  0  0  0  0  0  0
   56.5158   26.7325   44.1930 H   0  0  0  0  0  0  0  0  0  0  0  0
   57.5571   24.5255   44.6913 H   0  0  0  0  0  0  0  0  0  0  0  0
   59.5346   24.3843   46.2010 H   0  0  0  0  0  0  0  0  0  0  0  0
   60.4630   26.4502   47.2398 H   0  0  0  0  0  0  0  0  0  0  0  0
   58.9989   28.3403   48.9772 H   0  0  0  0  0  0  0  0  0  0  0  0
   59.9594   30.3714   50.0672 H   0  0  0  0  0  0  0  0  0  0  0  0
   59.9873   33.7122   49.7860 H   0  0  0  0  0  0  0  0  0  0  0  0
   61.3420   34.3584   48.7797 H   0  0  0  0  0  0  0  0  0  0  0  0
   58.0399   32.5541   48.5350 H   0  0  0  0  0  0  0  0  0  0  0  0
   56.4677   32.8950   46.6280 H   0  0  0  0  0  0  0  0  0  0  0  0
   60.9270   35.1496   46.6088 H   0  0  0  0  0  0  0  0  0  0  0  0
   61.2410   31.7350   46.2310 H   0  0  0  0  0  0  0  0  0  0  0  0
   60.3347   29.8200   45.1418 H   0  0  0  0  0  0  0  0  0  0  0  0
  1  2  1  0
  2  3  2  0
  2  4  2  0
  2  5  1  0
  5  6  2  0
  6  7  1  0
  7  8  2  0
  8  9  1  0
  9 10  2  0
 10 11  1  0
 11 12  1  0
 12 13  2  0
 13 14  1  0
 14 15  2  3
 15 16  1  0
 16 17  1  0
 17 18  2  0
 18 19  1  0
 19 20  2  0
 20 21  1  0
 20 22  1  0
 22 23  1  0
 22 24  2  0
 14 25  1  0
 25 26  1  0
 10  5  1  0
 26 11  2  0
 24 17  1  0
  1 27  1  0
  6 28  1  0
  7 29  1  0
  8 30  1  0
  9 31  1  0
 12 32  1  0
 13 33  1  0
 16 34  1  0
 16 35  1  0
 18 36  1  0
 19 37  1  0
 24 38  1  0
 25 39  1  0
 26 40  1  0
M  CHG  1   1  -1
M  END
>  <UniqueID>  (4) 
4

>  <SMILES>  (4) 
[NH-]S(=O)(=O)c1ccccc1-c1ccc(=NCc2ccc(F)c(F)c2)[nH]c1

>  <Energy>  (4) 
52.216145536492085

>  <Genealogy>  (4) 
[NH-]S(=O)(=O)c1ccccc1-c1ccc(=NCc2ccc(F)c(F)c2)[nH]c1 (protonated)
[NH-]S(=O)(=O)c1ccccc1-c1ccc(=NCc2ccc(F)c(F)c2)[nH]c1 (3D coordinates assigned)
[NH-]S(=O)(=O)c1ccccc1-c1ccc(=NCc2ccc(F)c(F)c2)[nH]c1 (optimized conformer: 52.216145536492085 kcal/mol)

>  <smiles>  (4) 
NS(=O)(=O)c1ccccc1-c1ccc(=NCc2ccc(F)c(F)c2)[nH]c1

>  <score_type>  (4) 
oracle

>  <origin>  (4) 
adg

>  <m_score__min__energy>  (4) 
-10.449999999999999

>  <m_primary>  (4) 
energy

$$$$
4:0
     RDKit          3D

 39 41  0  0  0  0  0  0  0  0999 V2000
   55.9270   27.9640   45.2770 N   0  0  0  0  0  0  0  0  0  0  0  0
   57.3870   28.8610   45.0670 S   0  0  0  0  0  0  0  0  0  0  0  0
   58.0990   28.3700   43.8380 O   0  0  0  0  0  0  0  0  0  0  0  0
   57.0630   30.3180   44.8870 O   0  0  0  0  0  0  0  0  0  0  0  0
   58.4120   28.6560   46.4840 C   0  0  0  0  0  0  0  0  0  0  0  0
   59.4930   27.7650   46.4560 C   0  0  0  0  0  0  0  0  0  0  0  0
   60.2780   27.5830   47.5960 C   0  0  0  0  0  0  0  0  0  0  0  0
   59.9900   28.2860   48.7700 C   0  0  0  0  0  0  0  0  0  0  0  0
   58.9180   29.1980   48.8070 C   0  0  0  0  0  0  0  0  0  0  0  0
   58.5500   29.8940   50.0130 N   0  0  0  0  0  0  0  0  0  0  0  0
   58.8720   31.2630   50.3050 C   0  0  0  0  0  0  0  0  0  0  0  0
   59.0240   32.1000   49.3740 O   0  0  0  0  0  0  0  0  0  0  0  0
   59.0260   31.7080   51.7270 C   0  0  0  0  0  0  0  0  0  0  0  0
   59.0170   30.2750   52.8610 S   0  0  0  0  0  0  0  0  0  0  0  0
   57.2800   29.9070   52.6230 C   0  0  0  0  0  0  0  0  0  0  0  0
   56.7680   28.6650   52.5720 N   0  0  0  0  0  0  0  0  0  0  0  0
   55.4600   28.8120   52.4370 N   0  0  0  0  0  0  0  0  0  0  0  0
   55.2270   30.1400   52.4060 C   0  0  0  0  0  0  0  0  0  0  0  0
   53.8900   30.7540   52.3000 C   0  0  0  0  0  0  0  0  0  0  0  0
   53.4500   31.2730   51.0710 C   0  0  0  0  0  0  0  0  0  0  0  0
   52.2000   31.8930   50.9720 C   0  0  0  0  0  0  0  0  0  0  0  0
   51.3760   31.9890   52.0960 C   0  0  0  0  0  0  0  0  0  0  0  0
   50.1350   32.6070   51.9970 O   0  0  0  0  0  0  0  0  0  0  0  0
   51.8000   31.4650   53.3200 C   0  0  0  0  0  0  0  0  0  0  0  0
   53.0530   30.8520   53.4250 C   0  0  0  0  0  0  0  0  0  0  0  0
   56.3450   30.8170   52.5110 O   0  0  0  0  0  0  0  0  0  0  0  0
   58.1260   29.3630   47.6590 C   0  0  0  0  0  0  0  0  0  0  0  0
   55.2090   28.6300   45.6390 H   0  0  0  0  0  0  0  0  0  0  0  0
   59.7232   27.2087   45.5354 H   0  0  0  0  0  0  0  0  0  0  0  0
   61.1267   26.8836   47.5706 H   0  0  0  0  0  0  0  0  0  0  0  0
   60.6038   28.1257   49.6687 H   0  0  0  0  0  0  0  0  0  0  0  0
   58.0580   29.3500   50.7580 H   0  0  0  0  0  0  0  0  0  0  0  0
   59.9788   32.2471   51.8349 H   0  0  0  0  0  0  0  0  0  0  0  0
   58.1824   32.3656   51.9836 H   0  0  0  0  0  0  0  0  0  0  0  0
   54.0920   31.1914   50.1815 H   0  0  0  0  0  0  0  0  0  0  0  0
   51.8657   32.3052   50.0085 H   0  0  0  0  0  0  0  0  0  0  0  0
   51.1472   31.5347   54.2026 H   0  0  0  0  0  0  0  0  0  0  0  0
   53.3846   30.4451   54.3917 H   0  0  0  0  0  0  0  0  0  0  0  0
   57.2714   30.0552   47.6828 H   0  0  0  0  0  0  0  0  0  0  0  0
  1  2  1  0
  2  3  2  0
  2  4  2  0
  2  5  1  0
  5  6  2  0
  6  7  1  0
  7  8  2  0
  8  9  1  0
  9 10  1  0
 10 11  1  0
 11 12  2  0
 11 13  1  0
 13 14  1  0
 14 15  1  0
 15 16  2  0
 16 17  1  0
 17 18  2  0
 18 19  1  0
 19 20  2  0
 20 21  1  0
 21 22  2  0
 22 23  1  0
 22 24  1  0
 24 25  2  0
 18 26  1  0
  9 27  2  0
 27  5  1  0
 26 15  1  0
 25 19  1  0
  1 28  1  0
  6 29  1  0
  7 30  1  0
  8 31  1  0
 10 32  1  0
 13 33  1  0
 13 34  1  0
 20 35  1  0
 21 36  1  0
 24 37  1  0
 25 38  1  0
 27 39  1  0
M  CHG  2   1  -1  23  -1
M  END
>  <UniqueID>  (5) 
5

>  <SMILES>  (5) 
[NH-]S(=O)(=O)c1cccc(NC(=O)CSc2nnc(-c3ccc([O-])cc3)o2)c1

>  <Energy>  (5) 
69.31204453115343

>  <Genealogy>  (5) 
[NH-]S(=O)(=O)c1cccc(NC(=O)CSc2nnc(-c3ccc([O-])cc3)o2)c1 (protonated)
[NH-]S(=O)(=O)c1cccc(NC(=O)CSc2nnc(-c3ccc([O-])cc3)o2)c1 (3D coordinates assigned)
[NH-]S(=O)(=O)c1cccc(NC(=O)CSc2nnc(-c3ccc([O-])cc3)o2)c1 (optimized conformer: 69.31204453115343 kcal/mol)

>  <smiles>  (5) 
NS(=O)(=O)c1cccc(NC(=O)CSc2nnc(-c3ccc(O)cc3)o2)c1

>  <score_type>  (5) 
oracle

>  <origin>  (5) 
adg

>  <m_score__min__energy>  (5) 
-15.279999999999999

>  <m_primary>  (5) 
energy

$$$$
5:0
     RDKit          3D

 60 63  0  0  0  0  0  0  0  0999 V2000
   56.3600   26.4460   45.7940 C   0  0  0  0  0  0  0  0  0  0  0  0
   57.4100   27.4260   46.2430 C   0  0  0  0  0  0  0  0  0  0  0  0
   58.5270   26.9570   46.9440 C   0  0  0  0  0  0  0  0  0  0  0  0
   59.4980   27.8430   47.4130 C   0  0  0  0  0  0  0  0  0  0  0  0
   59.3910   29.2350   47.1870 C   0  0  0  0  0  0  0  0  0  0  0  0
   60.4000   30.1680   47.6910 N   0  0  0  0  0  0  0  0  0  0  0  0
   60.1620   30.8440   48.9860 C   0  0  0  0  0  0  0  0  0  0  0  0
   61.3210   31.7200   49.4710 C   0  0  0  0  0  0  0  0  0  0  0  0
   61.9390   32.4420   48.3540 N   0  0  0  0  0  0  0  0  0  0  0  0
   63.1400   33.5550   48.9620 S   0  0  0  0  0  0  0  0  0  0  0  0
   62.4940   34.5680   49.8680 O   0  0  0  0  0  0  0  0  0  0  0  0
   63.7890   34.2820   47.8160 O   0  0  0  0  0  0  0  0  0  0  0  0
   64.3860   32.6690   49.8420 C   0  0  0  0  0  0  0  0  0  0  0  0
   64.0520   31.5440   50.6110 C   0  0  0  0  0  0  0  0  0  0  0  0
   65.0480   30.8400   51.2950 C   0  0  0  0  0  0  0  0  0  0  0  0
   66.3820   31.2560   51.2120 C   0  0  0  0  0  0  0  0  0  0  0  0
   66.7200   32.3720   50.4410 C   0  0  0  0  0  0  0  0  0  0  0  0
   65.7250   33.0770   49.7540 C   0  0  0  0  0  0  0  0  0  0  0  0
   62.5710   31.4680   47.4550 C   0  0  0  0  0  0  0  0  0  0  0  0
   61.5330   30.5410   46.8110 C   0  0  0  0  0  0  0  0  0  0  0  0
   58.2650   29.6910   46.4630 C   0  0  0  0  0  0  0  0  0  0  0  0
   57.3020   28.8020   45.9720 C   0  0  0  0  0  0  0  0  0  0  0  0
   56.2280   29.3310   45.2480 O   0  0  0  0  0  0  0  0  0  0  0  0
   56.3700   30.2720   44.2210 C   0  0  0  0  0  0  0  0  0  0  0  0
   55.8520   30.0760   43.0900 O   0  0  0  0  0  0  0  0  0  0  0  0
   57.1450   31.4520   44.4400 N   0  0  0  0  0  0  0  0  0  0  0  0
   56.6530   32.5940   45.2010 C   0  0  0  0  0  0  0  0  0  0  0  0
   57.7990   33.3360   45.8370 C   0  0  0  0  0  0  0  0  0  0  0  0
   58.0340   33.2150   47.2170 C   0  0  0  0  0  0  0  0  0  0  0  0
   59.0580   33.9480   47.8240 C   0  0  0  0  0  0  0  0  0  0  0  0
   59.8500   34.8120   47.0620 C   0  0  0  0  0  0  0  0  0  0  0  0
   59.6210   34.9400   45.6880 C   0  0  0  0  0  0  0  0  0  0  0  0
   58.6020   34.2040   45.0760 C   0  0  0  0  0  0  0  0  0  0  0  0
   55.8779   25.9961   46.6744 H   0  0  0  0  0  0  0  0  0  0  0  0
   55.6044   26.9694   45.1897 H   0  0  0  0  0  0  0  0  0  0  0  0
   56.8301   25.6562   45.1897 H   0  0  0  0  0  0  0  0  0  0  0  0
   58.6408   25.8784   47.1273 H   0  0  0  0  0  0  0  0  0  0  0  0
   60.3627   27.4513   47.9688 H   0  0  0  0  0  0  0  0  0  0  0  0
   59.2710   31.4807   48.8819 H   0  0  0  0  0  0  0  0  0  0  0  0
   60.0386   30.0479   49.7350 H   0  0  0  0  0  0  0  0  0  0  0  0
   60.9399   32.4478   50.2025 H   0  0  0  0  0  0  0  0  0  0  0  0
   62.0808   31.0715   49.9316 H   0  0  0  0  0  0  0  0  0  0  0  0
   61.2170   32.9970   47.8350 H   0  0  0  0  0  0  0  0  0  0  0  0
   63.0044   31.2150   50.6760 H   0  0  0  0  0  0  0  0  0  0  0  0
   64.7832   29.9592   51.8984 H   0  0  0  0  0  0  0  0  0  0  0  0
   67.1646   30.7045   51.7537 H   0  0  0  0  0  0  0  0  0  0  0  0
   67.7689   32.6964   50.3742 H   0  0  0  0  0  0  0  0  0  0  0  0
   65.9935   33.9523   49.1442 H   0  0  0  0  0  0  0  0  0  0  0  0
   63.1075   32.0094   46.6619 H   0  0  0  0  0  0  0  0  0  0  0  0
   63.2640   30.8517   48.0465 H   0  0  0  0  0  0  0  0  0  0  0  0
   61.1248   31.0483   45.9245 H   0  0  0  0  0  0  0  0  0  0  0  0
   62.0600   29.6054   46.5723 H   0  0  0  0  0  0  0  0  0  0  0  0
   58.1433   30.7691   46.2816 H   0  0  0  0  0  0  0  0  0  0  0  0
   56.1120   33.2732   44.5258 H   0  0  0  0  0  0  0  0  0  0  0  0
   55.9804   32.2316   45.9923 H   0  0  0  0  0  0  0  0  0  0  0  0
   57.4099   32.5409   47.8220 H   0  0  0  0  0  0  0  0  0  0  0  0
   59.2410   33.8447   48.9037 H   0  0  0  0  0  0  0  0  0  0  0  0
   60.6526   35.3907   47.5425 H   0  0  0  0  0  0  0  0  0  0  0  0
   60.2434   35.6205   45.0884 H   0  0  0  0  0  0  0  0  0  0  0  0
   58.4277   34.3043   43.9945 H   0  0  0  0  0  0  0  0  0  0  0  0
  1  2  1  0
  2  3  2  0
  3  4  1  0
  4  5  2  0
  5  6  1  0
  6  7  1  0
  7  8  1  0
  8  9  1  0
  9 10  1  0
 10 11  2  0
 10 12  2  0
 10 13  1  0
 13 14  2  0
 14 15  1  0
 15 16  2  0
 16 17  1  0
 17 18  2  0
  9 19  1  0
 19 20  1  0
  5 21  1  0
 21 22  2  0
 22 23  1  0
 23 24  1  0
 24 25  2  0
 24 26  1  0
 26 27  1  0
 27 28  1  0
 28 29  2  0
 29 30  1  0
 30 31  2  0
 31 32  1  0
 32 33  2  0
 22  2  1  0
 33 28  1  0
 20  6  1  0
 18 13  1  0
  1 34  1  0
  1 35  1  0
  1 36  1  0
  3 37  1  0
  4 38  1  0
  7 39  1  0
  7 40  1  0
  8 41  1  0
  8 42  1  0
  9 43  1  0
 14 44  1  0
 15 45  1  0
 16 46  1  0
 17 47  1  0
 18 48  1  0
 19 49  1  0
 19 50  1  0
 20 51  1  0
 20 52  1  0
 21 53  1  0
 27 54  1  0
 27 55  1  0
 29 56  1  0
 30 57  1  0
 31 58  1  0
 32 59  1  0
 33 60  1  0
M  CHG  2   9   1  26  -1
M  END
>  <UniqueID>  (6) 
6

>  <SMILES>  (6) 
Cc1ccc(N2CC[NH+](S(=O)(=O)c3ccccc3)CC2)cc1OC(=O)[N-]Cc1ccccc1

>  <Energy>  (6) 
73.02628534394266

>  <Genealogy>  (6) 
Cc1ccc(N2CC[NH+](S(=O)(=O)c3ccccc3)CC2)cc1OC(=O)[N-]Cc1ccccc1 (protonated)
Cc1ccc(N2CC[NH+](S(=O)(=O)c3ccccc3)CC2)cc1OC(=O)[N-]Cc1ccccc1 (3D coordinates assigned)
Cc1ccc(N2CC[NH+](S(=O)(=O)c3ccccc3)CC2)cc1OC(=O)[N-]Cc1ccccc1 (nonaromatic ring conformer: 73.02628534394266 kcal/mol)

>  <smiles>  (6) 
Cc1ccc(N2CCN(S(=O)(=O)c3ccccc3)CC2)cc1OC(=O)NCc1ccccc1

>  <score_type>  (6) 
oracle

>  <origin>  (6) 
adg

>  <m_score__min__energy>  (6) 
-10.220000000000001

>  <m_primary>  (6) 
energy

$$$$
6:0
     RDKit          3D

 32 34  0  0  0  0  0  0  0  0999 V2000
   52.8190   24.1140   45.2850 C   0  0  0  0  0  0  0  0  0  0  0  0
   53.9550   24.6270   45.9700 O   0  0  0  0  0  0  0  0  0  0  0  0
   55.2840   24.3480   45.6150 C   0  0  0  0  0  0  0  0  0  0  0  0
   55.7300   23.0500   45.2690 C   0  0  0  0  0  0  0  0  0  0  0  0
   57.0740   22.8270   44.9110 C   0  0  0  0  0  0  0  0  0  0  0  0
   57.9920   23.8890   44.8920 C   0  0  0  0  0  0  0  0  0  0  0  0
   57.5340   25.1570   45.2360 C   0  0  0  0  0  0  0  0  0  0  0  0
   58.3930   26.6000   45.2870 S   0  0  0  0  0  0  0  0  0  0  0  0
   57.0210   27.4630   45.7720 C   0  0  0  0  0  0  0  0  0  0  0  0
   57.0190   28.7430   45.9850 N   0  0  0  0  0  0  0  0  0  0  0  0
   56.8550   29.9130   44.7150 S   0  0  0  0  0  0  0  0  0  0  0  0
   55.3980   30.2130   44.5030 O   0  0  0  0  0  0  0  0  0  0  0  0
   57.4220   29.3500   43.4420 O   0  0  0  0  0  0  0  0  0  0  0  0
   57.6850   31.4030   45.1580 C   0  0  0  0  0  0  0  0  0  0  0  0
   58.5510   31.4380   46.2630 C   0  0  0  0  0  0  0  0  0  0  0  0
   59.1680   32.6360   46.6340 C   0  0  0  0  0  0  0  0  0  0  0  0
   58.9260   33.8060   45.9040 C   0  0  0  0  0  0  0  0  0  0  0  0
   59.6970   35.3090   46.3740 Cl  0  0  0  0  0  0  0  0  0  0  0  0
   58.0630   33.7740   44.8030 C   0  0  0  0  0  0  0  0  0  0  0  0
   57.4430   32.5770   44.4330 C   0  0  0  0  0  0  0  0  0  0  0  0
   55.9230   26.6800   45.8980 N   0  0  0  0  0  0  0  0  0  0  0  0
   56.2150   25.3910   45.5940 C   0  0  0  0  0  0  0  0  0  0  0  0
   52.0709   23.7762   46.0173 H   0  0  0  0  0  0  0  0  0  0  0  0
   52.3841   24.9031   44.6540 H   0  0  0  0  0  0  0  0  0  0  0  0
   53.1234   23.2660   44.6540 H   0  0  0  0  0  0  0  0  0  0  0  0
   55.0214   22.2087   45.2798 H   0  0  0  0  0  0  0  0  0  0  0  0
   57.4068   21.8130   44.6443 H   0  0  0  0  0  0  0  0  0  0  0  0
   59.0431   23.7234   44.6132 H   0  0  0  0  0  0  0  0  0  0  0  0
   58.7442   30.5203   46.8379 H   0  0  0  0  0  0  0  0  0  0  0  0
   59.8448   32.6597   47.5008 H   0  0  0  0  0  0  0  0  0  0  0  0
   57.8722   34.6920   44.2278 H   0  0  0  0  0  0  0  0  0  0  0  0
   56.7624   32.5569   43.5691 H   0  0  0  0  0  0  0  0  0  0  0  0
  1  2  1  0
  2  3  1  0
  3  4  2  0
  4  5  1  0
  5  6  2  0
  6  7  1  0
  7  8  1  0
  8  9  1  0
  9 10  2  3
 10 11  1  0
 11 12  2  0
 11 13  2  0
 11 14  1  0
 14 15  2  0
 15 16  1  0
 16 17  2  0
 17 18  1  0
 17 19  1  0
 19 20  2  0
  9 21  1  0
 21 22  1  0
 22  3  1  0
 22  7  2  0
 20 14  1  0
  1 23  1  0
  1 24  1  0
  1 25  1  0
  4 26  1  0
  5 27  1  0
  6 28  1  0
 15 29  1  0
 16 30  1  0
 19 31  1  0
 20 32  1  0
M  CHG  1  21  -1
M  END
>  <UniqueID>  (7) 
7

>  <SMILES>  (7) 
COc1cccc2sc(=NS(=O)(=O)c3ccc(Cl)cc3)[n-]c12

>  <Energy>  (7) 
70.34870451705673

>  <Genealogy>  (7) 
COc1cccc2sc(=NS(=O)(=O)c3ccc(Cl)cc3)[n-]c12 (protonated)
COc1cccc2sc(=NS(=O)(=O)c3ccc(Cl)cc3)[n-]c12 (3D coordinates assigned)
COc1cccc2sc(=NS(=O)(=O)c3ccc(Cl)cc3)[n-]c12 (optimized conformer: 70.34870451705673 kcal/mol)

>  <smiles>  (7) 
COc1cccc2sc(=NS(=O)(=O)c3ccc(Cl)cc3)[nH]c12

>  <score_type>  (7) 
oracle

>  <origin>  (7) 
adg

>  <m_score__min__energy>  (7) 
-9.8300000000000001

>  <m_primary>  (7) 
energy

$$$$
7:0
     RDKit          3D

 57 59  0  0  0  0  0  0  0  0999 V2000
   66.6050   33.9220   51.5300 C   0  0  0  0  0  0  0  0  0  0  0  0
   65.7890   33.2700   50.4620 C   0  0  0  0  0  0  0  0  0  0  0  0
   66.3190   32.3870   49.7330 O   0  0  0  0  0  0  0  0  0  0  0  0
   64.4490   33.7190   50.2120 N   0  0  0  0  0  0  0  0  0  0  0  0
   63.5210   33.0540   49.3390 C   0  0  0  0  0  0  0  0  0  0  0  0
   63.4860   33.3200   47.9590 C   0  0  0  0  0  0  0  0  0  0  0  0
   62.5910   32.6400   47.1280 C   0  0  0  0  0  0  0  0  0  0  0  0
   61.7220   31.6690   47.6570 C   0  0  0  0  0  0  0  0  0  0  0  0
   60.7720   30.9420   46.7740 C   0  0  0  0  0  0  0  0  0  0  0  0
   59.5030   31.4790   46.4930 C   0  0  0  0  0  0  0  0  0  0  0  0
   58.6140   30.7970   45.6560 C   0  0  0  0  0  0  0  0  0  0  0  0
   58.9810   29.5720   45.0840 C   0  0  0  0  0  0  0  0  0  0  0  0
   58.0670   28.8670   44.2290 N   0  0  0  0  0  0  0  0  0  0  0  0
   57.1080   29.6590   43.4470 C   0  0  0  0  0  0  0  0  0  0  0  0
   55.9200   30.0080   44.2870 C   0  0  0  0  0  0  0  0  0  0  0  0
   55.6200   31.2140   44.4910 O   0  0  0  0  0  0  0  0  0  0  0  0
   55.1480   29.0020   44.8570 O   0  0  0  0  0  0  0  0  0  0  0  0
   58.2720   27.4570   43.9920 C   0  0  0  0  0  0  0  0  0  0  0  0
   58.5990   27.0640   42.8370 O   0  0  0  0  0  0  0  0  0  0  0  0
   58.1110   26.4290   45.0940 C   0  0  2  0  0  0  0  0  0  0  0  0
   58.0160   24.9890   44.5160 C   0  0  0  0  0  0  0  0  0  0  0  0
   56.5620   24.5250   44.3680 C   0  0  0  0  0  0  0  0  0  0  0  0
   55.8380   24.4840   45.7370 C   0  0  2  0  0  0  0  0  0  0  0  0
   54.3200   24.5900   45.5380 C   0  0  0  0  0  0  0  0  0  0  0  0
   56.3510   25.5670   46.7230 C   0  0  0  0  0  0  0  0  0  0  0  0
   56.9000   26.7960   45.9880 C   0  0  0  0  0  0  0  0  0  0  0  0
   60.2400   29.0260   45.3670 C   0  0  0  0  0  0  0  0  0  0  0  0
   60.6070   27.8370   44.8250 F   0  0  0  0  0  0  0  0  0  0  0  0
   61.1300   29.7060   46.2040 C   0  0  0  0  0  0  0  0  0  0  0  0
   61.7750   31.3890   49.0330 C   0  0  0  0  0  0  0  0  0  0  0  0
   62.6710   32.0700   49.8620 C   0  0  0  0  0  0  0  0  0  0  0  0
   66.2260   33.6192   52.5173 H   0  0  0  0  0  0  0  0  0  0  0  0
   67.6556   33.6118   51.4296 H   0  0  0  0  0  0  0  0  0  0  0  0
   66.5343   35.0151   51.4296 H   0  0  0  0  0  0  0  0  0  0  0  0
   64.1610   34.6340   50.6300 H   0  0  0  0  0  0  0  0  0  0  0  0
   64.1680   34.0688   47.5299 H   0  0  0  0  0  0  0  0  0  0  0  0
   62.5662   32.8662   46.0518 H   0  0  0  0  0  0  0  0  0  0  0  0
   59.2075   32.4422   46.9346 H   0  0  0  0  0  0  0  0  0  0  0  0
   57.6224   31.2243   45.4459 H   0  0  0  0  0  0  0  0  0  0  0  0
   57.5948   30.5838   43.1040 H   0  0  0  0  0  0  0  0  0  0  0  0
   56.7746   29.0671   42.5819 H   0  0  0  0  0  0  0  0  0  0  0  0
   59.0085   26.4426   45.7299 H   0  0  0  0  0  0  0  0  0  0  0  0
   58.4972   24.9707   43.5270 H   0  0  0  0  0  0  0  0  0  0  0  0
   58.5209   24.3074   45.2164 H   0  0  0  0  0  0  0  0  0  0  0  0
   56.0303   25.2215   43.7030 H   0  0  0  0  0  0  0  0  0  0  0  0
   56.5648   23.5083   43.9480 H   0  0  0  0  0  0  0  0  0  0  0  0
   56.0719   23.5136   46.1993 H   0  0  0  0  0  0  0  0  0  0  0  0
   53.8232   24.6247   46.5188 H   0  0  0  0  0  0  0  0  0  0  0  0
   54.0870   25.5066   44.9763 H   0  0  0  0  0  0  0  0  0  0  0  0
   53.9618   23.7147   44.9763 H   0  0  0  0  0  0  0  0  0  0  0  0
   55.5188   25.8818   47.3698 H   0  0  0  0  0  0  0  0  0  0  0  0
   57.1692   25.1297   47.3140 H   0  0  0  0  0  0  0  0  0  0  0  0
   56.1050   27.2196   45.3567 H   0  0  0  0  0  0  0  0  0  0  0  0
   57.2345   27.5265   46.7393 H   0  0  0  0  0  0  0  0  0  0  0  0
   62.1175   29.2716   46.4186 H   0  0  0  0  0  0  0  0  0  0  0  0
   61.1061   30.6279   49.4611 H   0  0  0  0  0  0  0  0  0  0  0  0
   62.7094   31.8313   50.9351 H   0  0  0  0  0  0  0  0  0  0  0  0
  1  2  1  0
  2  3  2  0
  2  4  1  0
  4  5  1  0
  5  6  2  0
  6  7  1  0
  7  8  2  0
  8  9  1  0
  9 10  2  0
 10 11  1  0
 11 12  2  0
 12 13  1  0
 13 14  1  0
 14 15  1  0
 15 16  2  0
 15 17  1  0
 13 18  1  0
 18 19  2  0
 18 20  1  0
 20 21  1  0
 21 22  1  0
 22 23  1  0
 23 24  1  0
 23 25  1  0
 25 26  1  0
 12 27  1  0
 27 28  1  0
 27 29  2  0
  8 30  1  0
 30 31  2  0
 31  5  1  0
 29  9  1  0
 26 20  1  0
  1 32  1  0
  1 33  1  0
  1 34  1  0
  4 35  1  0
  6 36  1  0
  7 37  1  0
 10 38  1  0
 11 39  1  0
 14 40  1  0
 14 41  1  0
 20 42  1  1
 21 43  1  0
 21 44  1  0
 22 45  1  0
 22 46  1  0
 23 47  1  1
 24 48  1  0
 24 49  1  0
 24 50  1  0
 25 51  1  0
 25 52  1  0
 26 53  1  0
 26 54  1  0
 29 55  1  0
 30 56  1  0
 31 57  1  0
M  CHG  1  17  -1
M  END
>  <UniqueID>  (8) 
8

>  <SMILES>  (8) 
CC(=O)Nc1ccc(-c2ccc(N(CC(=O)[O-])C(=O)C3CCC(C)CC3)c(F)c2)cc1

>  <Energy>  (8) 
73.95967011785532

>  <Genealogy>  (8) 
CC(=O)Nc1ccc(-c2ccc(N(CC(=O)[O-])C(=O)C3CCC(C)CC3)c(F)c2)cc1 (protonated)
CC(=O)Nc1ccc(-c2ccc(N(CC(=O)[O-])C(=O)C3CCC(C)CC3)c(F)c2)cc1 (3D coordinates assigned)
CC(=O)Nc1ccc(-c2ccc(N(CC(=O)[O-])C(=O)C3CCC(C)CC3)c(F)c2)cc1 (nonaromatic ring conformer: 73.95967011785532 kcal/mol)

>  <smiles>  (8) 
CC(=O)Nc1ccc(-c2ccc(N(CC(=O)O)C(=O)C3CCC(C)CC3)c(F)c2)cc1

>  <score_type>  (8) 
oracle

>  <origin>  (8) 
adg

>  <m_score__min__energy>  (8) 
-11.289999999999999

>  <m_primary>  (8) 
energy

$$$$
8:0
     RDKit          3D

 41 43  0  0  0  0  0  0  0  0999 V2000
   60.4380   33.7540   49.4760 C   0  0  0  0  0  0  0  0  0  0  0  0
   59.6770   33.7450   48.1850 C   0  0  0  0  0  0  0  0  0  0  0  0
   58.5570   32.9130   48.0240 C   0  0  0  0  0  0  0  0  0  0  0  0
   57.8270   32.9350   46.8320 C   0  0  0  0  0  0  0  0  0  0  0  0
   58.2020   33.7960   45.7870 C   0  0  0  0  0  0  0  0  0  0  0  0
   57.4070   33.8420   44.5110 C   0  0  0  0  0  0  0  0  0  0  0  0
   58.1080   33.1250   43.4520 N   0  0  0  0  0  0  0  0  0  0  0  0
   57.7400   31.8170   42.9990 C   0  0  0  0  0  0  0  0  0  0  0  0
   57.4580   31.6310   41.7830 O   0  0  0  0  0  0  0  0  0  0  0  0
   57.6850   30.6850   43.9540 C   0  0  0  0  0  0  0  0  0  0  0  0
   56.4940   29.9610   44.1360 C   0  0  0  0  0  0  0  0  0  0  0  0
   56.4410   28.8960   45.0400 C   0  0  0  0  0  0  0  0  0  0  0  0
   57.5750   28.5380   45.7810 C   0  0  0  0  0  0  0  0  0  0  0  0
   57.5260   27.3660   46.7250 C   0  0  0  0  0  0  0  0  0  0  0  0
   57.1420   26.1500   46.0000 N   0  0  0  0  0  0  0  0  0  0  0  0
   55.8550   25.8180   45.6900 C   0  0  0  0  0  0  0  0  0  0  0  0
   54.7750   26.6370   45.9990 O   0  0  0  0  0  0  0  0  0  0  0  0
   55.6960   24.5970   45.0410 C   0  0  0  0  0  0  0  0  0  0  0  0
   57.2210   23.9040   44.8600 S   0  0  0  0  0  0  0  0  0  0  0  0
   58.0080   25.1840   45.6090 C   0  0  0  0  0  0  0  0  0  0  0  0
   59.2530   25.2420   45.7860 O   0  0  0  0  0  0  0  0  0  0  0  0
   58.7690   29.2500   45.5960 C   0  0  0  0  0  0  0  0  0  0  0  0
   58.8240   30.3160   44.6930 C   0  0  0  0  0  0  0  0  0  0  0  0
   59.3060   34.6460   45.9590 C   0  0  0  0  0  0  0  0  0  0  0  0
   60.0360   34.6220   47.1490 C   0  0  0  0  0  0  0  0  0  0  0  0
   59.7308   33.7456   50.3185 H   0  0  0  0  0  0  0  0  0  0  0  0
   61.0815   32.8634   49.5285 H   0  0  0  0  0  0  0  0  0  0  0  0
   61.0602   34.6596   49.5285 H   0  0  0  0  0  0  0  0  0  0  0  0
   58.2527   32.2408   48.8398 H   0  0  0  0  0  0  0  0  0  0  0  0
   56.9551   32.2753   46.7117 H   0  0  0  0  0  0  0  0  0  0  0  0
   56.4255   33.3742   44.6779 H   0  0  0  0  0  0  0  0  0  0  0  0
   57.2775   34.8914   44.2077 H   0  0  0  0  0  0  0  0  0  0  0  0
   55.5962   30.2347   43.5623 H   0  0  0  0  0  0  0  0  0  0  0  0
   55.5034   28.3357   45.1704 H   0  0  0  0  0  0  0  0  0  0  0  0
   58.5182   27.2217   47.1775 H   0  0  0  0  0  0  0  0  0  0  0  0
   56.7821   27.5670   47.5099 H   0  0  0  0  0  0  0  0  0  0  0  0
   54.7432   24.1615   44.7056 H   0  0  0  0  0  0  0  0  0  0  0  0
   59.6675   28.9681   46.1646 H   0  0  0  0  0  0  0  0  0  0  0  0
   59.7647   30.8703   44.5593 H   0  0  0  0  0  0  0  0  0  0  0  0
   59.5974   35.3345   45.1521 H   0  0  0  0  0  0  0  0  0  0  0  0
   60.8975   35.2942   47.2756 H   0  0  0  0  0  0  0  0  0  0  0  0
  1  2  1  0
  2  3  2  0
  3  4  1  0
  4  5  2  0
  5  6  1  0
  6  7  1  0
  7  8  1  0
  8  9  2  0
  8 10  1  0
 10 11  2  0
 11 12  1  0
 12 13  2  0
 13 14  1  0
 14 15  1  0
 15 16  1  0
 16 17  1  0
 16 18  2  0
 18 19  1  0
 19 20  1  0
 20 21  2  0
 13 22  1  0
 22 23  2  0
  5 24  1  0
 24 25  2  0
 25  2  1  0
 23 10  1  0
 20 15  1  0
  1 26  1  0
  1 27  1  0
  1 28  1  0
  3 29  1  0
  4 30  1  0
  6 31  1  0
  6 32  1  0
 11 33  1  0
 12 34  1  0
 14 35  1  0
 14 36  1  0
 18 37  1  0
 22 38  1  0
 23 39  1  0
 24 40  1  0
 25 41  1  0
M  CHG  2   7  -1  17  -1
M  END
>  <UniqueID>  (9) 
9

>  <SMILES>  (9) 
Cc1ccc(C[N-]C(=O)c2ccc(Cn3c([O-])csc3=O)cc2)cc1

>  <Energy>  (9) 
71.39347245382618

>  <Genealogy>  (9) 
Cc1ccc(C[N-]C(=O)c2ccc(Cn3c([O-])csc3=O)cc2)cc1 (protonated)
Cc1ccc(C[N-]C(=O)c2ccc(Cn3c([O-])csc3=O)cc2)cc1 (3D coordinates assigned)
Cc1ccc(C[N-]C(=O)c2ccc(Cn3c([O-])csc3=O)cc2)cc1 (optimized conformer: 71.39347245382618 kcal/mol)

>  <smiles>  (9) 
Cc1ccc(CNC(=O)c2ccc(Cn3c(O)csc3=O)cc2)cc1

>  <score_type>  (9) 
oracle

>  <origin>  (9) 
adg

>  <m_score__min__energy>  (9) 
-12.91

>  <m_primary>  (9) 
energy

$$$$
9:0
     RDKit          3D

 64 66  0  0  0  0  0  0  0  0999 V2000
   57.0360   31.4520   42.3590 C   0  0  0  0  0  0  0  0  0  0  0  0
   56.8990   30.0770   43.0210 C   0  0  0  0  0  0  0  0  0  0  0  0
   55.6900   30.0540   43.9630 C   0  0  0  0  0  0  0  0  0  0  0  0
   58.1270   29.7470   43.7560 N   0  0  0  0  0  0  0  0  0  0  0  0
   58.4730   30.3820   44.9960 C   0  0  0  0  0  0  0  0  0  0  0  0
   57.7050   31.2450   45.5060 O   0  0  0  0  0  0  0  0  0  0  0  0
   59.7220   29.9830   45.7230 C   0  0  0  0  0  0  0  0  0  0  0  0
   60.0640   28.6250   45.4410 O   0  0  0  0  0  0  0  0  0  0  0  0
   59.2360   27.5130   45.6700 C   0  0  0  0  0  0  0  0  0  0  0  0
   58.5400   26.8770   44.6220 C   0  0  0  0  0  0  0  0  0  0  0  0
   57.7280   25.7710   44.8790 C   0  0  0  0  0  0  0  0  0  0  0  0
   57.5930   25.2820   46.1830 C   0  0  0  0  0  0  0  0  0  0  0  0
   56.5930   23.8590   46.4970 S   0  0  0  0  0  0  0  0  0  0  0  0
   57.2140   23.0550   47.6070 O   0  0  0  0  0  0  0  0  0  0  0  0
   55.2290   24.3050   46.9500 O   0  0  0  0  0  0  0  0  0  0  0  0
   56.4280   22.8590   45.0730 N   0  0  0  0  0  0  0  0  0  0  0  0
   57.7350   22.3190   44.6720 C   0  0  0  0  0  0  0  0  0  0  0  0
   57.5940   21.4690   43.3900 C   0  0  0  0  0  0  0  0  0  0  0  0
   56.2710   21.4890   42.8820 O   0  0  0  0  0  0  0  0  0  0  0  0
   55.8660   22.8260   42.6560 C   0  0  0  0  0  0  0  0  0  0  0  0
   55.8360   23.6360   43.9690 C   0  0  0  0  0  0  0  0  0  0  0  0
   58.2700   25.9150   47.2330 C   0  0  0  0  0  0  0  0  0  0  0  0
   59.1050   27.0180   46.9840 C   0  0  0  0  0  0  0  0  0  0  0  0
   59.8260   27.6700   48.1330 C   0  0  0  0  0  0  0  0  0  0  0  0
   59.0430   28.7950   48.6280 N   0  0  0  0  0  0  0  0  0  0  0  0
   59.6040   29.9840   49.2030 C   0  0  0  0  0  0  0  0  0  0  0  0
   60.4160   29.8610   50.1580 O   0  0  0  0  0  0  0  0  0  0  0  0
   59.1910   31.3560   48.7380 C   0  0  0  0  0  0  0  0  0  0  0  0
   60.3200   32.1040   48.0700 C   0  0  0  0  0  0  0  0  0  0  0  0
   61.6440   31.6340   48.1700 C   0  0  0  0  0  0  0  0  0  0  0  0
   62.6840   32.3150   47.5300 C   0  0  0  0  0  0  0  0  0  0  0  0
   62.4160   33.4760   46.7990 C   0  0  0  0  0  0  0  0  0  0  0  0
   63.4290   34.1350   46.1800 F   0  0  0  0  0  0  0  0  0  0  0  0
   61.1060   33.9600   46.7100 C   0  0  0  0  0  0  0  0  0  0  0  0
   60.0590   33.2750   47.3400 C   0  0  0  0  0  0  0  0  0  0  0  0
   57.1132   32.2269   43.1359 H   0  0  0  0  0  0  0  0  0  0  0  0
   57.9403   31.4691   41.7329 H   0  0  0  0  0  0  0  0  0  0  0  0
   56.1529   31.6472   41.7329 H   0  0  0  0  0  0  0  0  0  0  0  0
   56.7419   29.3218   42.2368 H   0  0  0  0  0  0  0  0  0  0  0  0
   56.0380   30.0606   45.0065 H   0  0  0  0  0  0  0  0  0  0  0  0
   55.0651   30.9404   43.7793 H   0  0  0  0  0  0  0  0  0  0  0  0
   55.0993   29.1445   43.7793 H   0  0  0  0  0  0  0  0  0  0  0  0
   58.7830   29.0340   43.3610 H   0  0  0  0  0  0  0  0  0  0  0  0
   60.5481   30.6360   45.4049 H   0  0  0  0  0  0  0  0  0  0  0  0
   59.5469   30.0842   46.8043 H   0  0  0  0  0  0  0  0  0  0  0  0
   58.6375   27.2552   43.5937 H   0  0  0  0  0  0  0  0  0  0  0  0
   57.1918   25.2816   44.0525 H   0  0  0  0  0  0  0  0  0  0  0  0
   58.4283   23.1514   44.4810 H   0  0  0  0  0  0  0  0  0  0  0  0
   58.1229   21.6834   45.4816 H   0  0  0  0  0  0  0  0  0  0  0  0
   58.2748   21.8673   42.6233 H   0  0  0  0  0  0  0  0  0  0  0  0
   57.8448   20.4283   43.6433 H   0  0  0  0  0  0  0  0  0  0  0  0
   56.5722   23.3007   41.9589 H   0  0  0  0  0  0  0  0  0  0  0  0
   54.8500   22.8129   42.2346 H   0  0  0  0  0  0  0  0  0  0  0  0
   56.4088   24.5652   43.8334 H   0  0  0  0  0  0  0  0  0  0  0  0
   54.7899   23.8662   44.2192 H   0  0  0  0  0  0  0  0  0  0  0  0
   58.1472   25.5457   48.2618 H   0  0  0  0  0  0  0  0  0  0  0  0
   59.9645   26.9369   48.9413 H   0  0  0  0  0  0  0  0  0  0  0  0
   60.8069   28.0310   47.7903 H   0  0  0  0  0  0  0  0  0  0  0  0
   58.3639   31.2512   48.0204 H   0  0  0  0  0  0  0  0  0  0  0  0
   58.8866   31.9319   49.6244 H   0  0  0  0  0  0  0  0  0  0  0  0
   61.8607   30.7274   48.7540 H   0  0  0  0  0  0  0  0  0  0  0  0
   63.7144   31.9367   47.6018 H   0  0  0  0  0  0  0  0  0  0  0  0
   60.8980   34.8801   46.1442 H   0  0  0  0  0  0  0  0  0  0  0  0
   59.0297   33.6553   47.2627 H   0  0  0  0  0  0  0  0  0  0  0  0
  1  2  1  0
  2  3  1  0
  2  4  1  0
  4  5  1  0
  5  6  2  0
  5  7  1  0
  7  8  1  0
  8  9  1  0
  9 10  2  0
 10 11  1  0
 11 12  2  0
 12 13  1  0
 13 14  2  0
 13 15  2  0
 13 16  1  0
 16 17  1  0
 17 18  1  0
 18 19  1  0
 19 20  1  0
 20 21  1  0
 12 22  1  0
 22 23  2  0
 23 24  1  0
 24 25  1  0
 25 26  1  0
 26 27  2  0
 26 28  1  0
 28 29  1  0
 29 30  2  0
 30 31  1  0
 31 32  2  0
 32 33  1  0
 32 34  1  0
 34 35  2  0
 23  9  1  0
 35 29  1  0
 21 16  1  0
  1 36  1  0
  1 37  1  0
  1 38  1  0
  2 39  1  0
  3 40  1  0
  3 41  1  0
  3 42  1  0
  4 43  1  0
  7 44  1  0
  7 45  1  0
 10 46  1  0
 11 47  1  0
 17 48  1  0
 17 49  1  0
 18 50  1  0
 18 51  1  0
 20 52  1  0
 20 53  1  0
 21 54  1  0
 21 55  1  0
 22 56  1  0
 24 57  1  0
 24 58  1  0
 28 59  1  0
 28 60  1  0
 30 61  1  0
 31 62  1  0
 34 63  1  0
 35 64  1  0
M  CHG  1  25  -1
M  END
>  <UniqueID>  (10) 
10

>  <SMILES>  (10) 
CC(C)NC(=O)COc1ccc(S(=O)(=O)N2CCOCC2)cc1C[N-]C(=O)Cc1ccc(F)cc1

>  <Energy>  (10) 
63.28400521992759

>  <Genealogy>  (10) 
CC(C)NC(=O)COc1ccc(S(=O)(=O)N2CCOCC2)cc1C[N-]C(=O)Cc1ccc(F)cc1 (protonated)
CC(C)NC(=O)COc1ccc(S(=O)(=O)N2CCOCC2)cc1C[N-]C(=O)Cc1ccc(F)cc1 (3D coordinates assigned)
CC(C)NC(=O)COc1ccc(S(=O)(=O)N2CCOCC2)cc1C[N-]C(=O)Cc1ccc(F)cc1 (nonaromatic ring conformer: 63.28400521992759 kcal/mol)

>  <smiles>  (10) 
CC(C)NC(=O)COc1ccc(S(=O)(=O)N2CCOCC2)cc1CNC(=O)Cc1ccc(F)cc1

>  <score_type>  (10) 
oracle

>  <origin>  (10) 
adg

>  <m_score__min__energy>  (10) 
-10.73

>  <m_primary>  (10) 
energy

$$$$
10:0
     RDKit          3D

 28 29  0  0  0  0  0  0  0  0999 V2000
   59.1908   35.0701   47.3408 H   0  0  0  0  0  0  0  0  0  0  0  0
   58.8560   34.2660   46.6690 C   0  0  0  0  0  0  0  0  0  0  0  0
   58.6440   34.3890   45.0050 S   0  0  0  0  0  0  0  0  0  0  0  0
   58.1360   32.7870   44.8420 C   0  0  0  0  0  0  0  0  0  0  0  0
   57.8000   32.1820   43.7380 N   0  0  0  0  0  0  0  0  0  0  0  0
   56.7900   31.1800   43.5500 C   0  0  0  0  0  0  0  0  0  0  0  0
   56.6190   30.7030   42.3970 O   0  0  0  0  0  0  0  0  0  0  0  0
   55.9990   30.7000   44.6440 N   0  0  0  0  0  0  0  0  0  0  0  0
   55.5210   29.3260   44.7570 C   0  0  0  0  0  0  0  0  0  0  0  0
   54.7151   29.2820   45.5044 H   0  0  0  0  0  0  0  0  0  0  0  0
   55.1438   28.9956   43.7779 H   0  0  0  0  0  0  0  0  0  0  0  0
   56.6450   28.4170   45.1830 C   0  0  0  0  0  0  0  0  0  0  0  0
   57.9730   28.8390   45.0060 C   0  0  0  0  0  0  0  0  0  0  0  0
   58.1787   29.8171   44.5466 H   0  0  0  0  0  0  0  0  0  0  0  0
   59.0360   28.0240   45.4100 C   0  0  0  0  0  0  0  0  0  0  0  0
   60.8360   28.6110   45.1660 Br  0  0  0  0  0  0  0  0  0  0  0  0
   58.7790   26.7830   45.9980 C   0  0  0  0  0  0  0  0  0  0  0  0
   59.6148   26.1427   46.3166 H   0  0  0  0  0  0  0  0  0  0  0  0
   57.4630   26.3540   46.1820 C   0  0  0  0  0  0  0  0  0  0  0  0
   57.2653   25.3759   46.6449 H   0  0  0  0  0  0  0  0  0  0  0  0
   56.3950   27.1630   45.7800 C   0  0  0  0  0  0  0  0  0  0  0  0
   55.0930   26.7140   45.9790 O   0  0  0  0  0  0  0  0  0  0  0  0
   58.1270   32.1510   46.0320 N   0  0  0  0  0  0  0  0  0  0  0  0
   58.5320   32.9640   47.0450 C   0  0  0  0  0  0  0  0  0  0  0  0
   58.5660   32.5000   48.4640 C   0  0  0  0  0  0  0  0  0  0  0  0
   58.5023   33.3689   49.1355 H   0  0  0  0  0  0  0  0  0  0  0  0
   57.7146   31.8290   48.6509 H   0  0  0  0  0  0  0  0  0  0  0  0
   59.5061   31.9603   48.6509 H   0  0  0  0  0  0  0  0  0  0  0  0
  1  2  1  0
  2  3  1  0
  3  4  1  0
  4  5  2  0
  5  6  1  0
  6  7  2  0
  6  8  1  0
  8  9  1  0
  9 10  1  0
  9 11  1  0
  9 12  1  0
 12 13  2  0
 13 14  1  0
 13 15  1  0
 15 16  1  0
 15 17  2  0
 17 18  1  0
 17 19  1  0
 19 20  1  0
 19 21  2  0
 21 22  1  0
  4 23  1  0
 23 24  1  0
 24 25  1  0
 25 26  1  0
 25 27  1  0
 25 28  1  0
 24  2  2  0
 21 12  1  0
M  CHG  3   8  -1  22  -1  23  -1
M  END
>  <UniqueID>  (11) 
11

>  <SMILES>  (11) 
Cc1cs/c(=N\C(=O)[N-]Cc2cc(Br)ccc2[O-])[n-]1

>  <Energy>  (11) 
58.7774159860371

>  <Genealogy>  (11) 
Cc1csc(=NC(=O)[N-]Cc2cc(Br)ccc2[O-])[n-]1 (protonated)
Cc1cs/c(=N\C(=O)[N-]Cc2cc(Br)ccc2[O-])[n-]1 (cis-trans isomerization)
Cc1cs/c(=N\C(=O)[N-]Cc2cc(Br)ccc2[O-])[n-]1 (3D coordinates assigned)
Cc1cs/c(=N\C(=O)[N-]Cc2cc(Br)ccc2[O-])[n-]1 (optimized conformer: 58.7774159860371 kcal/mol)

>  <smiles>  (11) 
Cc1csc(=NC(=O)NCc2cc(Br)ccc2O)[nH]1

>  <score_type>  (11) 
oracle

>  <origin>  (11) 
adg

>  <m_score__min__energy>  (11) 
-13.369999999999999

>  <m_primary>  (11) 
energy

$$$$
11:0
     RDKit          3D

 58 61  0  0  0  0  0  0  0  0999 V2000
   60.0533   26.8526   46.0281 H   0  0  0  0  0  0  0  0  0  0  0  0
   58.9540   26.8140   46.0280 C   0  0  0  0  0  0  0  0  0  0  0  0
   58.2370   27.8610   45.5390 N   0  0  0  0  0  0  0  0  0  0  0  0
   56.8730   27.8620   45.5280 C   0  0  0  0  0  0  0  0  0  0  0  0
   56.2060   28.8710   45.0430 N   0  0  0  0  0  0  0  0  0  0  0  0
   56.7540   29.9560   44.2780 C   0  0  0  0  0  0  0  0  0  0  0  0
   56.5400   29.9850   43.0360 O   0  0  0  0  0  0  0  0  0  0  0  0
   57.5090   31.0660   44.9080 C   0  0  0  0  0  0  0  0  0  0  0  0
   58.8040   30.8460   45.4030 C   0  0  0  0  0  0  0  0  0  0  0  0
   59.2624   29.8503   45.3116 H   0  0  0  0  0  0  0  0  0  0  0  0
   59.5140   31.8840   46.0110 C   0  0  0  0  0  0  0  0  0  0  0  0
   60.5226   31.6983   46.4089 H   0  0  0  0  0  0  0  0  0  0  0  0
   58.9470   33.1600   46.1160 C   0  0  0  0  0  0  0  0  0  0  0  0
   59.8310   34.4470   46.9320 S   0  0  0  0  0  0  0  0  0  0  0  0
   58.9150   35.1840   47.8710 O   0  0  0  0  0  0  0  0  0  0  0  0
   60.3380   35.4150   45.9000 O   0  0  0  0  0  0  0  0  0  0  0  0
   61.1720   33.7640   47.8150 N   0  0  0  0  0  0  0  0  0  0  0  0
   60.8800   32.8070   48.1250 H   0  0  0  0  0  0  0  0  0  0  0  0
   61.4700   34.5870   49.0000 C   0  0  0  0  0  0  0  0  0  0  0  0
   60.5410   34.7706   49.5597 H   0  0  0  0  0  0  0  0  0  0  0  0
   61.9042   35.5445   48.6764 H   0  0  0  0  0  0  0  0  0  0  0  0
   62.4710   33.8580   49.9020 C   0  0  0  0  0  0  0  0  0  0  0  0
   61.9295   33.1373   50.5323 H   0  0  0  0  0  0  0  0  0  0  0  0
   62.9881   34.6015   50.5264 H   0  0  0  0  0  0  0  0  0  0  0  0
   63.4700   33.1410   49.1020 N   0  0  0  0  0  0  0  0  0  0  0  0
   64.4440   32.3370   49.7840 C   0  0  0  0  0  0  0  0  0  0  0  0
   65.7860   32.7390   49.7690 C   0  0  0  0  0  0  0  0  0  0  0  0
   66.0791   33.6449   49.2181 H   0  0  0  0  0  0  0  0  0  0  0  0
   66.7510   31.9990   50.4470 C   0  0  0  0  0  0  0  0  0  0  0  0
   67.8036   32.3173   50.4219 H   0  0  0  0  0  0  0  0  0  0  0  0
   66.3880   30.8570   51.1570 C   0  0  0  0  0  0  0  0  0  0  0  0
   67.1565   30.2819   51.6943 H   0  0  0  0  0  0  0  0  0  0  0  0
   65.0490   30.4330   51.1930 C   0  0  0  0  0  0  0  0  0  0  0  0
   64.7000   29.1930   51.9750 C   0  0  0  0  0  0  0  0  0  0  0  0
   64.7609   29.4093   53.0518 H   0  0  0  0  0  0  0  0  0  0  0  0
   63.6776   28.8756   51.7220 H   0  0  0  0  0  0  0  0  0  0  0  0
   65.4067   28.3889   51.7220 H   0  0  0  0  0  0  0  0  0  0  0  0
   64.0660   31.1570   50.4690 C   0  0  0  0  0  0  0  0  0  0  0  0
   62.6240   30.7050   50.4640 C   0  0  0  0  0  0  0  0  0  0  0  0
   62.2709   30.5943   51.4999 H   0  0  0  0  0  0  0  0  0  0  0  0
   62.0071   31.4529   49.9442 H   0  0  0  0  0  0  0  0  0  0  0  0
   62.5444   29.7388   49.9442 H   0  0  0  0  0  0  0  0  0  0  0  0
   63.6860   33.4910   47.6960 C   0  0  0  0  0  0  0  0  0  0  0  0
   64.2817   32.6983   47.2198 H   0  0  0  0  0  0  0  0  0  0  0  0
   64.2114   34.4568   47.6622 H   0  0  0  0  0  0  0  0  0  0  0  0
   62.3530   33.6440   46.9280 C   0  0  0  0  0  0  0  0  0  0  0  0
   62.2179   32.7616   46.2853 H   0  0  0  0  0  0  0  0  0  0  0  0
   62.4184   34.5760   46.3473 H   0  0  0  0  0  0  0  0  0  0  0  0
   57.6630   33.3910   45.6050 C   0  0  0  0  0  0  0  0  0  0  0  0
   57.2144   34.3924   45.6814 H   0  0  0  0  0  0  0  0  0  0  0  0
   56.9500   32.3520   44.9980 C   0  0  0  0  0  0  0  0  0  0  0  0
   55.9468   32.5426   44.5891 H   0  0  0  0  0  0  0  0  0  0  0  0
   56.1800   26.7440   46.0160 C   0  0  0  0  0  0  0  0  0  0  0  0
   54.7890   26.7070   46.0050 O   0  0  0  0  0  0  0  0  0  0  0  0
   56.9000   25.6580   46.5210 C   0  0  0  0  0  0  0  0  0  0  0  0
   56.3673   24.7783   46.9113 H   0  0  0  0  0  0  0  0  0  0  0  0
   58.2950   25.6900   46.5300 C   0  0  0  0  0  0  0  0  0  0  0  0
   58.8687   24.8399   46.9278 H   0  0  0  0  0  0  0  0  0  0  0  0
  1  2  1  0
  2  3  1  0
  3  4  1  0
  4  5  2  0
  5  6  1  0
  6  7  2  0
  6  8  1  0
  8  9  2  0
  9 10  1  0
  9 11  1  0
 11 12  1  0
 11 13  2  0
 13 14  1  0
 14 15  2  0
 14 16  2  0
 14 17  1  0
 17 18  1  0
 17 19  1  0
 19 20  1  0
 19 21  1  0
 19 22  1  0
 22 23  1  0
 22 24  1  0
 22 25  1  0
 25 26  1  0
 26 27  2  0
 27 28  1  0
 27 29  1  0
 29 30  1  0
 29 31  2  0
 31 32  1  0
 31 33  1  0
 33 34  1  0
 34 35  1  0
 34 36  1  0
 34 37  1  0
 33 38  2  0
 38 39  1  0
 39 40  1  0
 39 41  1  0
 39 42  1  0
 25 43  1  0
 43 44  1  0
 43 45  1  0
 43 46  1  0
 46 47  1  0
 46 48  1  0
 13 49  1  0
 49 50  1  0
 49 51  2  0
 51 52  1  0
  4 53  1  0
 53 54  1  0
 53 55  2  0
 55 56  1  0
 55 57  1  0
 57 58  1  0
 57  2  2  0
 51  8  1  0
 46 17  1  0
 38 26  1  0
M  CHG  3   3  -1  17   1  54  -1
M  END
>  <UniqueID>  (12) 
12

>  <SMILES>  (12) 
Cc1cccc(N2CC[NH+](S(=O)(=O)c3ccc(C(=O)/N=c4\[n-]cccc4[O-])cc3)CC2)c1C

>  <Energy>  (12) 
80.09918347724718

>  <Genealogy>  (12) 
Cc1cccc(N2CC[NH+](S(=O)(=O)c3ccc(C(=O)N=c4[n-]cccc4[O-])cc3)CC2)c1C (protonated)
Cc1cccc(N2CC[NH+](S(=O)(=O)c3ccc(C(=O)/N=c4\[n-]cccc4[O-])cc3)CC2)c1C (cis-trans isomerization)
Cc1cccc(N2CC[NH+](S(=O)(=O)c3ccc(C(=O)/N=c4\[n-]cccc4[O-])cc3)CC2)c1C (3D coordinates assigned)
Cc1cccc(N2CC[NH+](S(=O)(=O)c3ccc(C(=O)/N=c4\[n-]cccc4[O-])cc3)CC2)c1C (nonaromatic ring conformer: 80.09918347724718 kcal/mol)

>  <smiles>  (12) 
Cc1cccc(N2CCN(S(=O)(=O)c3ccc(C(=O)N=c4[nH]cccc4O)cc3)CC2)c1C

>  <score_type>  (12) 
oracle

>  <origin>  (12) 
adg

>  <m_score__min__energy>  (12) 
-14.529999999999999

>  <m_primary>  (12) 
energy

$$$$
12:0
     RDKit          3D

 35 37  0  0  0  0  0  0  0  0999 V2000
   55.5420   27.0890   45.9480 O   0  0  0  0  0  0  0  0  0  0  0  0
   56.2020   26.1040   46.3720 C   0  0  0  0  0  0  0  0  0  0  0  0
   55.5440   24.9280   46.7070 O   0  0  0  0  0  0  0  0  0  0  0  0
   57.6930   26.1860   46.4820 C   0  0  0  0  0  0  0  0  0  0  0  0
   58.1360   26.8080   47.8150 C   0  0  0  0  0  0  0  0  0  0  0  0
   59.4510   27.6000   47.7140 C   0  0  0  0  0  0  0  0  0  0  0  0
   59.3410   28.7140   46.7590 N   0  0  0  0  0  0  0  0  0  0  0  0
   59.0220   28.4380   45.3930 C   0  0  0  0  0  0  0  0  0  0  0  0
   59.5940   27.4670   44.8240 O   0  0  0  0  0  0  0  0  0  0  0  0
   57.9980   29.2190   44.6550 C   0  0  0  0  0  0  0  0  0  0  0  0
   57.5630   28.7340   43.4050 C   0  0  0  0  0  0  0  0  0  0  0  0
   56.5050   29.3370   42.7310 C   0  0  0  0  0  0  0  0  0  0  0  0
   55.8660   30.4260   43.3090 C   0  0  0  0  0  0  0  0  0  0  0  0
   56.2990   30.9090   44.5000 N   0  0  0  0  0  0  0  0  0  0  0  0
   57.3470   30.3690   45.1820 C   0  0  0  0  0  0  0  0  0  0  0  0
   57.7130   31.0190   46.3690 O   0  0  0  0  0  0  0  0  0  0  0  0
   59.0040   31.1390   46.8900 C   0  0  0  0  0  0  0  0  0  0  0  0
   59.4550   32.4100   47.2830 C   0  0  0  0  0  0  0  0  0  0  0  0
   58.4320   33.8230   47.0760 Cl  0  0  0  0  0  0  0  0  0  0  0  0
   60.7290   32.5650   47.8390 C   0  0  0  0  0  0  0  0  0  0  0  0
   61.5550   31.4550   48.0140 C   0  0  0  0  0  0  0  0  0  0  0  0
   61.1060   30.1850   47.6450 C   0  0  0  0  0  0  0  0  0  0  0  0
   59.8260   30.0200   47.0880 C   0  0  0  0  0  0  0  0  0  0  0  0
   58.1114   25.1715   46.4065 H   0  0  0  0  0  0  0  0  0  0  0  0
   58.0600   26.8281   45.6677 H   0  0  0  0  0  0  0  0  0  0  0  0
   57.3448   27.4890   48.1617 H   0  0  0  0  0  0  0  0  0  0  0  0
   58.3097   25.9795   48.5175 H   0  0  0  0  0  0  0  0  0  0  0  0
   59.7015   28.0038   48.7061 H   0  0  0  0  0  0  0  0  0  0  0  0
   60.2367   26.9178   47.3574 H   0  0  0  0  0  0  0  0  0  0  0  0
   58.0673   27.8659   42.9554 H   0  0  0  0  0  0  0  0  0  0  0  0
   56.1789   28.9555   41.7522 H   0  0  0  0  0  0  0  0  0  0  0  0
   55.0104   30.8959   42.8019 H   0  0  0  0  0  0  0  0  0  0  0  0
   61.0799   33.5636   48.1386 H   0  0  0  0  0  0  0  0  0  0  0  0
   62.5603   31.5798   48.4427 H   0  0  0  0  0  0  0  0  0  0  0  0
   61.7568   29.3102   47.7909 H   0  0  0  0  0  0  0  0  0  0  0  0
  1  2  2  0
  2  3  1  0
  2  4  1  0
  4  5  1  0
  5  6  1  0
  6  7  1  0
  7  8  1  0
  8  9  2  0
  8 10  1  0
 10 11  2  0
 11 12  1  0
 12 13  2  0
 13 14  1  0
 14 15  2  0
 15 16  1  0
 16 17  1  0
 17 18  2  0
 18 19  1  0
 18 20  1  0
 20 21  2  0
 21 22  1  0
 22 23  2  0
 23  7  1  0
 15 10  1  0
 23 17  1  0
  4 24  1  0
  4 25  1  0
  5 26  1  0
  5 27  1  0
  6 28  1  0
  6 29  1  0
 11 30  1  0
 12 31  1  0
 13 32  1  0
 20 33  1  0
 21 34  1  0
 22 35  1  0
M  CHG  1   3  -1
M  END
>  <UniqueID>  (13) 
13

>  <SMILES>  (13) 
O=C([O-])CCCN1C(=O)c2cccnc2Oc2c(Cl)cccc21

>  <Energy>  (13) 
58.858574412979316

>  <Genealogy>  (13) 
O=C([O-])CCCN1C(=O)c2cccnc2Oc2c(Cl)cccc21 (protonated)
O=C([O-])CCCN1C(=O)c2cccnc2Oc2c(Cl)cccc21 (3D coordinates assigned)
O=C([O-])CCCN1C(=O)c2cccnc2Oc2c(Cl)cccc21 (nonaromatic ring conformer: 58.858574412979316 kcal/mol)

>  <smiles>  (13) 
O=C(O)CCCN1C(=O)c2cccnc2Oc2c(Cl)cccc21

>  <score_type>  (13) 
oracle

>  <origin>  (13) 
adg

>  <m_score__min__energy>  (13) 
-9.8699999999999992

>  <m_primary>  (13) 
energy

$$$$
13:0
     RDKit          3D

 46 48  0  0  0  0  0  0  0  0999 V2000
   56.8787   34.6376   45.0457 H   0  0  0  0  0  0  0  0  0  0  0  0
   57.7340   33.9810   45.2630 C   0  0  0  0  0  0  0  0  0  0  0  0
   59.8090   26.2540   45.9550 C   0  0  0  0  0  0  0  0  0  0  0  0
   60.7937   26.0242   45.5219 H   0  0  0  0  0  0  0  0  0  0  0  0
   57.6830   24.9270   45.8670 C   0  0  0  0  0  0  0  0  0  0  0  0
   59.3710   34.4680   47.9420 C   0  0  0  0  0  0  0  0  0  0  0  0
   58.3494   34.8297   48.1303 H   0  0  0  0  0  0  0  0  0  0  0  0
   56.1490   23.4160   44.7380 C   0  0  0  0  0  0  0  0  0  0  0  0
   55.9210   22.2340   44.0440 O   0  0  0  0  0  0  0  0  0  0  0  0
   55.0910   24.2930   44.9920 C   0  0  0  0  0  0  0  0  0  0  0  0
   54.0792   24.0522   44.6338 H   0  0  0  0  0  0  0  0  0  0  0  0
   55.3180   25.4760   45.7010 C   0  0  0  0  0  0  0  0  0  0  0  0
   54.2610   26.3390   45.9670 O   0  0  0  0  0  0  0  0  0  0  0  0
   57.4390   23.7270   45.1820 C   0  0  0  0  0  0  0  0  0  0  0  0
   58.2662   23.0270   44.9930 H   0  0  0  0  0  0  0  0  0  0  0  0
   59.4280   27.6800   46.0570 C   0  0  0  0  0  0  0  0  0  0  0  0
   58.9130   28.2200   47.2480 C   0  0  0  0  0  0  0  0  0  0  0  0
   58.8030   27.5803   48.1361 H   0  0  0  0  0  0  0  0  0  0  0  0
   58.5400   29.5650   47.3100 C   0  0  0  0  0  0  0  0  0  0  0  0
   58.1643   29.9844   48.2549 H   0  0  0  0  0  0  0  0  0  0  0  0
   58.6410   30.3830   46.1780 C   0  0  0  0  0  0  0  0  0  0  0  0
   58.2680   31.7650   46.2930 N   0  0  0  0  0  0  0  0  0  0  0  0
   57.5110   32.5270   45.3450 C   0  0  0  0  0  0  0  0  0  0  0  0
   56.6360   31.9700   44.6280 O   0  0  0  0  0  0  0  0  0  0  0  0
   59.0510   25.2170   46.3480 C   0  0  0  0  0  0  0  0  0  0  0  0
   59.4831   24.5273   47.0880 H   0  0  0  0  0  0  0  0  0  0  0  0
   58.9430   34.5320   45.4440 C   0  0  0  0  0  0  0  0  0  0  0  0
   59.3164   35.2272   44.6776 H   0  0  0  0  0  0  0  0  0  0  0  0
   59.8060   34.2570   46.6200 C   0  0  0  0  0  0  0  0  0  0  0  0
   56.6060   25.7900   46.1470 C   0  0  0  0  0  0  0  0  0  0  0  0
   56.7782   26.7141   46.7183 H   0  0  0  0  0  0  0  0  0  0  0  0
   60.2280   34.2210   49.0150 C   0  0  0  0  0  0  0  0  0  0  0  0
   59.8787   34.3886   50.0445 H   0  0  0  0  0  0  0  0  0  0  0  0
   61.5270   33.7620   48.7880 C   0  0  0  0  0  0  0  0  0  0  0  0
   62.1994   33.5790   49.6391 H   0  0  0  0  0  0  0  0  0  0  0  0
   61.9790   33.5330   47.4790 C   0  0  0  0  0  0  0  0  0  0  0  0
   63.4000   33.0920   47.2270 C   0  0  0  0  0  0  0  0  0  0  0  0
   63.8220   33.5890   46.0080 F   0  0  0  0  0  0  0  0  0  0  0  0
   64.2430   33.5600   48.2210 F   0  0  0  0  0  0  0  0  0  0  0  0
   63.4850   31.7110   47.2040 F   0  0  0  0  0  0  0  0  0  0  0  0
   61.1210   33.8110   46.4000 C   0  0  0  0  0  0  0  0  0  0  0  0
   61.4836   33.6777   45.3701 H   0  0  0  0  0  0  0  0  0  0  0  0
   59.1500   29.8430   44.9850 C   0  0  0  0  0  0  0  0  0  0  0  0
   59.2541   30.4818   44.0956 H   0  0  0  0  0  0  0  0  0  0  0  0
   59.5250   28.4970   44.9230 C   0  0  0  0  0  0  0  0  0  0  0  0
   59.8986   28.0770   43.9775 H   0  0  0  0  0  0  0  0  0  0  0  0
  1  2  1  0
  2  3  2  0
  3  4  1  0
  3  5  1  0
  5  6  2  0
  6  7  1  0
  6  8  1  0
  8  9  1  0
  8 10  2  0
 10 11  1  0
 10 12  1  0
 12 13  1  0
 12 14  2  0
 14 15  1  0
  2 16  1  0
 16 17  2  0
 17 18  1  0
 17 19  1  0
 19 20  1  0
 19 21  2  0
 21 22  1  0
 22 23  1  0
 23 24  2  0
 23 25  1  0
 25 26  1  0
 25 27  2  0
 27 28  1  0
 27 29  1  0
 29 30  2  0
 30 31  1  0
 30 32  1  0
 32 33  1  0
 32 34  2  0
 34 35  1  0
 34 36  1  0
 36 37  1  0
 37 38  1  0
 37 39  1  0
 37 40  1  0
 36 41  2  0
 41 42  1  0
 21 43  1  0
 43 44  1  0
 43 45  2  0
 45 46  1  0
 14  5  1  0
 45 16  1  0
 41 29  1  0
M  CHG  3   9  -1  13  -1  22  -1
M  END
>  <UniqueID>  (14) 
14

>  <SMILES>  (14) 
O=C(/C=C/c1cccc(C(F)(F)F)c1)[N-]c1ccc(/C=C\c2cc([O-])cc([O-])c2)cc1

>  <Energy>  (14) 
63.948948485153444

>  <Genealogy>  (14) 
O=C(C=Cc1cccc(C(F)(F)F)c1)[N-]c1ccc(C=Cc2cc([O-])cc([O-])c2)cc1 (protonated)
O=C(/C=C/c1cccc(C(F)(F)F)c1)[N-]c1ccc(/C=C\c2cc([O-])cc([O-])c2)cc1 (cis-trans isomerization)
O=C(/C=C/c1cccc(C(F)(F)F)c1)[N-]c1ccc(/C=C\c2cc([O-])cc([O-])c2)cc1 (3D coordinates assigned)
O=C(/C=C/c1cccc(C(F)(F)F)c1)[N-]c1ccc(/C=C\c2cc([O-])cc([O-])c2)cc1 (optimized conformer: 63.948948485153444 kcal/mol)

>  <smiles>  (14) 
O=C(C=Cc1cccc(C(F)(F)F)c1)Nc1ccc(C=Cc2cc(O)cc(O)c2)cc1

>  <score_type>  (14) 
oracle

>  <origin>  (14) 
adg

>  <m_score__min__energy>  (14) 
-16.190000000000001

>  <m_primary>  (14) 
energy

$$$$
14:0
     RDKit          3D

 54 57  0  0  0  0  0  0  0  0999 V2000
   56.2885   29.8071   41.6099 H   0  0  0  0  0  0  0  0  0  0  0  0
   56.6330   30.1740   42.5880 C   0  0  0  0  0  0  0  0  0  0  0  0
   56.5650   29.3300   43.7180 C   0  0  0  0  0  0  0  0  0  0  0  0
   56.1620   28.3115   43.6167 H   0  0  0  0  0  0  0  0  0  0  0  0
   57.0100   29.7850   44.9730 C   0  0  0  0  0  0  0  0  0  0  0  0
   56.9594   29.1382   45.8613 H   0  0  0  0  0  0  0  0  0  0  0  0
   57.5190   31.0860   45.0560 C   0  0  0  0  0  0  0  0  0  0  0  0
   57.5690   31.9000   43.9630 C   0  0  0  0  0  0  0  0  0  0  0  0
   58.0650   33.1020   44.2930 N   0  0  0  0  0  0  0  0  0  0  0  0
   58.2970   32.9850   45.6250 C   0  0  0  0  0  0  0  0  0  0  0  0
   58.6230   34.0360   46.3250 N   0  0  0  0  0  0  0  0  0  0  0  0
   59.8770   34.7330   46.3840 C   0  0  0  0  0  0  0  0  0  0  0  0
   59.9150   35.9310   45.9980 O   0  0  0  0  0  0  0  0  0  0  0  0
   61.0580   34.1420   47.0710 C   0  0  0  0  0  0  0  0  0  0  0  0
   62.2270   33.9430   46.3140 C   0  0  0  0  0  0  0  0  0  0  0  0
   62.2510   34.2603   45.2610 H   0  0  0  0  0  0  0  0  0  0  0  0
   63.3550   33.3500   46.8780 C   0  0  0  0  0  0  0  0  0  0  0  0
   64.2595   33.2052   46.2689 H   0  0  0  0  0  0  0  0  0  0  0  0
   63.3430   32.9400   48.2080 C   0  0  0  0  0  0  0  0  0  0  0  0
   64.2335   32.4616   48.6418 H   0  0  0  0  0  0  0  0  0  0  0  0
   62.2020   33.1340   48.9960 C   0  0  0  0  0  0  0  0  0  0  0  0
   62.2090   32.7350   50.3420 C   0  0  0  0  0  0  0  0  0  0  0  0
   63.1003   32.2470   50.7632 H   0  0  0  0  0  0  0  0  0  0  0  0
   61.0920   32.9540   51.1480 C   0  0  0  0  0  0  0  0  0  0  0  0
   61.1019   32.6319   52.1997 H   0  0  0  0  0  0  0  0  0  0  0  0
   59.9640   33.5800   50.6230 C   0  0  0  0  0  0  0  0  0  0  0  0
   59.0899   33.7605   51.2660 H   0  0  0  0  0  0  0  0  0  0  0  0
   59.9360   33.9800   49.2850 C   0  0  0  0  0  0  0  0  0  0  0  0
   59.0422   34.4816   48.8855 H   0  0  0  0  0  0  0  0  0  0  0  0
   61.0440   33.7470   48.4390 C   0  0  0  0  0  0  0  0  0  0  0  0
   58.0260   31.7350   46.1240 N   0  0  0  0  0  0  0  0  0  0  0  0
   58.5390   31.0830   47.3450 C   0  0  0  0  0  0  0  0  0  0  0  0
   57.7686   30.4014   47.7348 H   0  0  0  0  0  0  0  0  0  0  0  0
   58.7793   31.8689   48.0762 H   0  0  0  0  0  0  0  0  0  0  0  0
   59.8200   30.2800   47.0700 C   0  0  0  0  0  0  0  0  0  0  0  0
   60.5431   30.4678   47.8774 H   0  0  0  0  0  0  0  0  0  0  0  0
   60.2337   30.5988   46.1019 H   0  0  0  0  0  0  0  0  0  0  0  0
   59.5300   28.8260   47.0060 N   0  0  0  0  0  0  0  0  0  0  0  0
   60.0710   28.1450   48.2060 C   0  0  0  0  0  0  0  0  0  0  0  0
   60.9662   27.5747   47.9172 H   0  0  0  0  0  0  0  0  0  0  0  0
   59.2874   27.4825   48.6025 H   0  0  0  0  0  0  0  0  0  0  0  0
   60.4510   29.1360   49.3050 C   0  0  0  0  0  0  0  0  0  0  0  0
   60.2751   28.6773   50.2892 H   0  0  0  0  0  0  0  0  0  0  0  0
   61.5143   29.4005   49.2085 H   0  0  0  0  0  0  0  0  0  0  0  0
   59.8371   30.0437   49.2085 H   0  0  0  0  0  0  0  0  0  0  0  0
   60.0400   28.2290   45.7440 C   0  0  0  0  0  0  0  0  0  0  0  0
   60.1378   29.0179   44.9837 H   0  0  0  0  0  0  0  0  0  0  0  0
   61.0193   27.7673   45.9384 H   0  0  0  0  0  0  0  0  0  0  0  0
   59.0810   27.1580   45.2360 C   0  0  0  0  0  0  0  0  0  0  0  0
   58.6199   26.6430   46.0917 H   0  0  0  0  0  0  0  0  0  0  0  0
   58.2965   27.6283   44.6249 H   0  0  0  0  0  0  0  0  0  0  0  0
   59.6347   26.4300   44.6249 H   0  0  0  0  0  0  0  0  0  0  0  0
   57.1390   31.4820   42.7060 C   0  0  0  0  0  0  0  0  0  0  0  0
   57.1930   32.1515   41.8349 H   0  0  0  0  0  0  0  0  0  0  0  0
  1  2  1  0
  2  3  2  0
  3  4  1  0
  3  5  1  0
  5  6  1  0
  5  7  2  0
  7  8  1  0
  8  9  1  0
  9 10  1  0
 10 11  2  0
 11 12  1  0
 12 13  2  0
 12 14  1  0
 14 15  2  0
 15 16  1  0
 15 17  1  0
 17 18  1  0
 17 19  2  0
 19 20  1  0
 19 21  1  0
 21 22  2  0
 22 23  1  0
 22 24  1  0
 24 25  1  0
 24 26  2  0
 26 27  1  0
 26 28  1  0
 28 29  1  0
 28 30  2  0
 10 31  1  0
 31 32  1  0
 32 33  1  0
 32 34  1  0
 32 35  1  0
 35 36  1  0
 35 37  1  0
 35 38  1  0
 38 39  1  0
 39 40  1  0
 39 41  1  0
 39 42  1  0
 42 43  1  0
 42 44  1  0
 42 45  1  0
 38 46  1  0
 46 47  1  0
 46 48  1  0
 46 49  1  0
 49 50  1  0
 49 51  1  0
 49 52  1  0
  8 53  2  0
 53 54  1  0
 53  2  1  0
 31  7  1  0
 30 14  1  0
 30 21  1  0
M  CHG  1   9  -1
M  END
>  <UniqueID>  (15) 
15

>  <SMILES>  (15) 
CCN(CC)CCn1/c(=N\C(=O)c2cccc3ccccc23)[n-]c2ccccc21

>  <Energy>  (15) 
118.35713863104445

>  <Genealogy>  (15) 
CCN(CC)CCn1c(=NC(=O)c2cccc3ccccc23)[n-]c2ccccc21 (protonated)
CCN(CC)CCn1/c(=N\C(=O)c2cccc3ccccc23)[n-]c2ccccc21 (cis-trans isomerization)
CCN(CC)CCn1/c(=N\C(=O)c2cccc3ccccc23)[n-]c2ccccc21 (3D coordinates assigned)
CCN(CC)CCn1/c(=N\C(=O)c2cccc3ccccc23)[n-]c2ccccc21 (optimized conformer: 118.35713863104445 kcal/mol)

>  <smiles>  (15) 
CCN(CC)CCn1c(=NC(=O)c2cccc3ccccc23)[nH]c2ccccc21

>  <score_type>  (15) 
oracle

>  <origin>  (15) 
adg

>  <m_score__min__energy>  (15) 
-9.7899999999999991

>  <m_primary>  (15) 
energy

$$$$
15:0
     RDKit          3D

 37 39  0  0  0  0  0  0  0  0999 V2000
   53.6840   24.1010   44.8340 C   0  0  0  0  0  0  0  0  0  0  0  0
   54.6230   23.9640   45.8970 O   0  0  0  0  0  0  0  0  0  0  0  0
   55.8900   24.5690   45.9220 C   0  0  0  0  0  0  0  0  0  0  0  0
   57.0790   23.8190   45.8450 C   0  0  0  0  0  0  0  0  0  0  0  0
   58.3190   24.4590   45.8750 C   0  0  0  0  0  0  0  0  0  0  0  0
   58.3880   25.8480   45.9870 C   0  0  0  0  0  0  0  0  0  0  0  0
   57.2150   26.6150   46.0640 C   0  0  0  0  0  0  0  0  0  0  0  0
   57.3260   28.1160   46.1660 C   0  0  0  0  0  0  0  0  0  0  0  0
   57.4210   28.7000   44.8310 N   0  0  0  0  0  0  0  0  0  0  0  0
   56.3140   29.3590   44.2040 C   0  0  0  0  0  0  0  0  0  0  0  0
   55.3030   29.6890   44.8790 O   0  0  0  0  0  0  0  0  0  0  0  0
   56.3400   29.6280   42.7320 C   0  0  0  0  0  0  0  0  0  0  0  0
   57.0510   31.2760   42.4040 S   0  0  0  0  0  0  0  0  0  0  0  0
   57.7780   31.4420   44.0310 C   0  0  0  0  0  0  0  0  0  0  0  0
   58.8680   30.6800   44.3700 N   0  0  0  0  0  0  0  0  0  0  0  0
   59.4330   30.7650   45.6100 C   0  0  0  0  0  0  0  0  0  0  0  0
   60.4310   30.0610   45.9130 O   0  0  0  0  0  0  0  0  0  0  0  0
   58.8690   31.6500   46.5170 C   0  0  0  0  0  0  0  0  0  0  0  0
   59.1380   31.9980   47.8190 C   0  0  0  0  0  0  0  0  0  0  0  0
   58.2310   32.9330   48.1930 N   0  0  0  0  0  0  0  0  0  0  0  0
   57.4060   33.1830   47.1760 N   0  0  0  0  0  0  0  0  0  0  0  0
   57.7990   32.4000   46.1600 C   0  0  0  0  0  0  0  0  0  0  0  0
   57.2330   32.3170   44.9320 N   0  0  0  0  0  0  0  0  0  0  0  0
   55.9620   25.9680   46.0220 C   0  0  0  0  0  0  0  0  0  0  0  0
   54.7830   26.7050   46.0780 O   0  0  0  0  0  0  0  0  0  0  0  0
   52.6768   24.2479   45.2511 H   0  0  0  0  0  0  0  0  0  0  0  0
   53.9548   24.9691   44.2151 H   0  0  0  0  0  0  0  0  0  0  0  0
   53.6955   23.1917   44.2151 H   0  0  0  0  0  0  0  0  0  0  0  0
   57.0305   22.7233   45.7608 H   0  0  0  0  0  0  0  0  0  0  0  0
   59.2439   23.8670   45.8102 H   0  0  0  0  0  0  0  0  0  0  0  0
   59.3686   26.3455   46.0152 H   0  0  0  0  0  0  0  0  0  0  0  0
   56.4358   28.5136   46.6754 H   0  0  0  0  0  0  0  0  0  0  0  0
   58.2290   28.3739   46.7388 H   0  0  0  0  0  0  0  0  0  0  0  0
   58.2910   28.5320   44.2770 H   0  0  0  0  0  0  0  0  0  0  0  0
   56.9527   28.8624   42.2336 H   0  0  0  0  0  0  0  0  0  0  0  0
   55.3112   29.5976   42.3437 H   0  0  0  0  0  0  0  0  0  0  0  0
   59.9451   31.5905   48.4455 H   0  0  0  0  0  0  0  0  0  0  0  0
  1  2  1  0
  2  3  1  0
  3  4  2  0
  4  5  1  0
  5  6  2  0
  6  7  1  0
  7  8  1  0
  8  9  1  0
  9 10  1  0
 10 11  2  0
 10 12  1  0
 12 13  1  0
 13 14  1  0
 14 15  2  0
 15 16  1  0
 16 17  2  0
 16 18  1  0
 18 19  2  0
 19 20  1  0
 20 21  1  0
 21 22  2  0
 22 23  1  0
  7 24  2  0
 24 25  1  0
 24  3  1  0
 23 14  1  0
 22 18  1  0
  1 26  1  0
  1 27  1  0
  1 28  1  0
  4 29  1  0
  5 30  1  0
  6 31  1  0
  8 32  1  0
  8 33  1  0
  9 34  1  0
 12 35  1  0
 12 36  1  0
 19 37  1  0
M  CHG  3  20  -1  23  -1  25  -1
M  END
>  <UniqueID>  (16) 
16

>  <SMILES>  (16) 
COc1cccc(CNC(=O)CSc2nc(=O)c3c[n-]nc3[n-]2)c1[O-]

>  <Energy>  (16) 
71.25041830164463

>  <Genealogy>  (16) 
COc1cccc(CNC(=O)CSc2nc(=O)c3c[n-]nc3[n-]2)c1[O-] (protonated)
COc1cccc(CNC(=O)CSc2nc(=O)c3c[n-]nc3[n-]2)c1[O-] (3D coordinates assigned)
COc1cccc(CNC(=O)CSc2nc(=O)c3c[n-]nc3[n-]2)c1[O-] (optimized conformer: 71.25041830164463 kcal/mol)

>  <smiles>  (16) 
COc1cccc(CNC(=O)CSc2nc(=O)c3c[nH]nc3[nH]2)c1O

>  <score_type>  (16) 
oracle

>  <origin>  (16) 
adg

>  <m_score__min__energy>  (16) 
-13.15

>  <m_primary>  (16) 
energy

$$$$
16:0
     RDKit          3D

 57 59  0  0  0  0  0  0  0  0999 V2000
   54.6060   27.0880   46.6920 H   0  0  0  0  0  0  0  0  0  0  0  0
   54.7200   26.3190   45.9910 N   0  0  0  0  0  0  0  0  0  0  0  0
   56.3670   25.7950   46.0730 S   0  0  0  0  0  0  0  0  0  0  0  0
   56.6990   24.9870   44.8470 O   0  0  0  0  0  0  0  0  0  0  0  0
   56.5550   24.9270   47.2840 O   0  0  0  0  0  0  0  0  0  0  0  0
   57.4360   27.1930   46.1780 C   0  0  0  0  0  0  0  0  0  0  0  0
   58.7210   27.0570   46.7620 C   0  0  0  0  0  0  0  0  0  0  0  0
   59.0401   26.0805   47.1553 H   0  0  0  0  0  0  0  0  0  0  0  0
   59.5900   28.1570   46.8430 C   0  0  0  0  0  0  0  0  0  0  0  0
   60.5887   28.0615   47.2941 H   0  0  0  0  0  0  0  0  0  0  0  0
   59.1420   29.3760   46.3310 C   0  0  0  0  0  0  0  0  0  0  0  0
   57.8990   29.5160   45.7830 C   0  0  0  0  0  0  0  0  0  0  0  0
   57.7010   30.7830   45.3720 N   0  0  0  0  0  0  0  0  0  0  0  0
   58.8760   31.3890   45.6930 C   0  0  0  0  0  0  0  0  0  0  0  0
   59.1330   32.6430   45.4490 N   0  0  0  0  0  0  0  0  0  0  0  0
   58.8680   33.7530   46.3230 C   0  0  0  0  0  0  0  0  0  0  0  0
   58.5450   34.8760   45.8480 O   0  0  0  0  0  0  0  0  0  0  0  0
   58.9600   33.5690   47.7920 C   0  0  0  0  0  0  0  0  0  0  0  0
   58.1630   32.6090   48.4440 C   0  0  0  0  0  0  0  0  0  0  0  0
   57.4428   32.0128   47.8645 H   0  0  0  0  0  0  0  0  0  0  0  0
   58.2800   32.4080   49.8210 C   0  0  0  0  0  0  0  0  0  0  0  0
   57.6570   31.6502   50.3187 H   0  0  0  0  0  0  0  0  0  0  0  0
   59.1870   33.1670   50.5710 C   0  0  0  0  0  0  0  0  0  0  0  0
   59.3750   32.8710   52.3000 S   0  0  0  0  0  0  0  0  0  0  0  0
   59.5710   34.1830   53.0100 O   0  0  0  0  0  0  0  0  0  0  0  0
   58.1200   32.2350   52.8310 O   0  0  0  0  0  0  0  0  0  0  0  0
   60.7310   31.8180   52.6200 N   0  0  0  0  0  0  0  0  0  0  0  0
   60.7530   31.0810   51.8770 H   0  0  0  0  0  0  0  0  0  0  0  0
   61.9900   32.5770   52.5600 C   0  0  0  0  0  0  0  0  0  0  0  0
   62.3400   32.7880   53.5813 H   0  0  0  0  0  0  0  0  0  0  0  0
   62.7494   31.9861   52.0269 H   0  0  0  0  0  0  0  0  0  0  0  0
   61.8219   33.5244   52.0269 H   0  0  0  0  0  0  0  0  0  0  0  0
   60.5780   31.1590   53.9250 C   0  0  0  0  0  0  0  0  0  0  0  0
   60.7481   31.8915   54.7278 H   0  0  0  0  0  0  0  0  0  0  0  0
   59.5608   30.7493   54.0119 H   0  0  0  0  0  0  0  0  0  0  0  0
   61.3106   30.3431   54.0119 H   0  0  0  0  0  0  0  0  0  0  0  0
   59.9720   34.1330   49.9330 C   0  0  0  0  0  0  0  0  0  0  0  0
   60.6759   34.7413   50.5199 H   0  0  0  0  0  0  0  0  0  0  0  0
   59.8660   34.3290   48.5520 C   0  0  0  0  0  0  0  0  0  0  0  0
   60.4959   35.0830   48.0574 H   0  0  0  0  0  0  0  0  0  0  0  0
   59.7820   30.5570   46.2660 N   0  0  0  0  0  0  0  0  0  0  0  0
   61.1230   30.8850   46.7520 C   0  0  0  0  0  0  0  0  0  0  0  0
   61.5124   31.7466   46.1898 H   0  0  0  0  0  0  0  0  0  0  0  0
   61.7795   30.0142   46.6079 H   0  0  0  0  0  0  0  0  0  0  0  0
   61.0760   31.2330   48.2410 C   0  0  0  0  0  0  0  0  0  0  0  0
   60.1647   31.8143   48.4451 H   0  0  0  0  0  0  0  0  0  0  0  0
   61.9732   31.8185   48.4906 H   0  0  0  0  0  0  0  0  0  0  0  0
   61.0660   29.9680   49.1050 C   0  0  0  0  0  0  0  0  0  0  0  0
   62.0961   29.6018   49.2261 H   0  0  0  0  0  0  0  0  0  0  0  0
   60.4517   29.1999   48.6124 H   0  0  0  0  0  0  0  0  0  0  0  0
   60.5180   30.2540   50.3780 O   0  0  0  0  0  0  0  0  0  0  0  0
   59.4840   29.3450   50.6870 C   0  0  0  0  0  0  0  0  0  0  0  0
   59.3859   29.2587   51.7792 H   0  0  0  0  0  0  0  0  0  0  0  0
   58.5370   29.7084   50.2613 H   0  0  0  0  0  0  0  0  0  0  0  0
   59.7230   28.3593   50.2613 H   0  0  0  0  0  0  0  0  0  0  0  0
   57.0120   28.4450   45.6880 C   0  0  0  0  0  0  0  0  0  0  0  0
   56.0133   28.5726   45.2449 H   0  0  0  0  0  0  0  0  0  0  0  0
  1  2  1  0
  2  3  1  0
  3  4  2  0
  3  5  2  0
  3  6  1  0
  6  7  2  0
  7  8  1  0
  7  9  1  0
  9 10  1  0
  9 11  2  0
 11 12  1  0
 12 13  1  0
 13 14  1  0
 14 15  2  0
 15 16  1  0
 16 17  2  0
 16 18  1  0
 18 19  2  0
 19 20  1  0
 19 21  1  0
 21 22  1  0
 21 23  2  0
 23 24  1  0
 24 25  2  0
 24 26  2  0
 24 27  1  0
 27 28  1  0
 27 29  1  0
 29 30  1  0
 29 31  1  0
 29 32  1  0
 27 33  1  0
 33 34  1  0
 33 35  1  0
 33 36  1  0
 23 37  1  0
 37 38  1  0
 37 39  2  0
 39 40  1  0
 14 41  1  0
 41 42  1  0
 42 43  1  0
 42 44  1  0
 42 45  1  0
 45 46  1  0
 45 47  1  0
 45 48  1  0
 48 49  1  0
 48 50  1  0
 48 51  1  0
 51 52  1  0
 52 53  1  0
 52 54  1  0
 52 55  1  0
 12 56  2  0
 56 57  1  0
 56  6  1  0
 41 11  1  0
 39 18  1  0
M  CHG  3   2  -1  13  -1  27   1
M  END
>  <UniqueID>  (17) 
17

>  <SMILES>  (17) 
COCCCn1/c(=N/C(=O)c2ccc(S(=O)(=O)[NH+](C)C)cc2)[n-]c2cc(S([NH-])(=O)=O)ccc21

>  <Energy>  (17) 
93.85428394411667

>  <Genealogy>  (17) 
COCCCn1c(=NC(=O)c2ccc(S(=O)(=O)[NH+](C)C)cc2)[n-]c2cc(S([NH-])(=O)=O)ccc21 (protonated)
COCCCn1/c(=N/C(=O)c2ccc(S(=O)(=O)[NH+](C)C)cc2)[n-]c2cc(S([NH-])(=O)=O)ccc21 (cis-trans isomerization)
COCCCn1/c(=N/C(=O)c2ccc(S(=O)(=O)[NH+](C)C)cc2)[n-]c2cc(S([NH-])(=O)=O)ccc21 (3D coordinates assigned)
COCCCn1/c(=N/C(=O)c2ccc(S(=O)(=O)[NH+](C)C)cc2)[n-]c2cc(S([NH-])(=O)=O)ccc21 (optimized conformer: 93.85428394411667 kcal/mol)

>  <smiles>  (17) 
COCCCn1c(=NC(=O)c2ccc(S(=O)(=O)N(C)C)cc2)[nH]c2cc(S(N)(=O)=O)ccc21

>  <score_type>  (17) 
oracle

>  <origin>  (17) 
adg

>  <m_score__min__energy>  (17) 
-11.720000000000001

>  <m_primary>  (17) 
energy

$$$$
17:0
     RDKit          3D

 29 31  0  0  0  0  0  0  0  0999 V2000
   60.8240   30.2050   47.2240 O   0  0  0  0  0  0  0  0  0  0  0  0
   59.6970   30.0170   46.6950 C   0  0  0  0  0  0  0  0  0  0  0  0
   59.0520   28.7200   46.5190 C   0  0  0  0  0  0  0  0  0  0  0  0
   59.4590   27.4450   46.9010 C   0  0  0  0  0  0  0  0  0  0  0  0
   58.6200   26.3620   46.5910 C   0  0  0  0  0  0  0  0  0  0  0  0
   57.3920   26.5620   45.9060 C   0  0  0  0  0  0  0  0  0  0  0  0
   56.5440   25.4420   45.5960 N   0  0  0  0  0  0  0  0  0  0  0  0
   56.9870   24.4670   44.9540 O   0  0  0  0  0  0  0  0  0  0  0  0
   55.2290   25.4260   46.0030 O   0  0  0  0  0  0  0  0  0  0  0  0
   57.0140   27.8740   45.5320 C   0  0  0  0  0  0  0  0  0  0  0  0
   57.8670   28.9270   45.8520 C   0  0  0  0  0  0  0  0  0  0  0  0
   57.7440   30.3590   45.6000 C   0  0  0  0  0  0  0  0  0  0  0  0
   56.7600   30.9210   45.0500 O   0  0  0  0  0  0  0  0  0  0  0  0
   58.8850   31.0480   46.1240 N   0  0  0  0  0  0  0  0  0  0  0  0
   59.1540   32.4610   46.0840 C   0  0  0  0  0  0  0  0  0  0  0  0
   59.8970   33.0740   47.1090 C   0  0  0  0  0  0  0  0  0  0  0  0
   60.1580   34.4470   47.0710 C   0  0  0  0  0  0  0  0  0  0  0  0
   59.6830   35.2240   46.0090 C   0  0  0  0  0  0  0  0  0  0  0  0
   59.9510   36.5900   45.9840 O   0  0  0  0  0  0  0  0  0  0  0  0
   58.9440   34.6210   44.9840 C   0  0  0  0  0  0  0  0  0  0  0  0
   58.6800   33.2480   45.0210 C   0  0  0  0  0  0  0  0  0  0  0  0
   60.4106   27.2899   47.4306 H   0  0  0  0  0  0  0  0  0  0  0  0
   58.9183   25.3443   46.8830 H   0  0  0  0  0  0  0  0  0  0  0  0
   56.0683   28.0573   45.0009 H   0  0  0  0  0  0  0  0  0  0  0  0
   60.2753   32.4690   47.9462 H   0  0  0  0  0  0  0  0  0  0  0  0
   60.7384   34.9176   47.8783 H   0  0  0  0  0  0  0  0  0  0  0  0
   59.6690   37.1990   46.7440 H   0  0  0  0  0  0  0  0  0  0  0  0
   58.5699   35.2289   44.1471 H   0  0  0  0  0  0  0  0  0  0  0  0
   58.0976   32.7814   44.2128 H   0  0  0  0  0  0  0  0  0  0  0  0
  1  2  2  0
  2  3  1  0
  3  4  2  0
  4  5  1  0
  5  6  2  0
  6  7  1  0
  7  8  2  0
  7  9  1  0
  6 10  1  0
 10 11  2  0
 11 12  1  0
 12 13  2  0
 12 14  1  0
 14 15  1  0
 15 16  2  0
 16 17  1  0
 17 18  2  0
 18 19  1  0
 18 20  1  0
 20 21  2  0
 14  2  1  0
 21 15  1  0
 11  3  1  0
  4 22  1  0
  5 23  1  0
 10 24  1  0
 16 25  1  0
 17 26  1  0
 19 27  1  0
 20 28  1  0
 21 29  1  0
M  CHG  2   7   1   9  -1
M  END
>  <UniqueID>  (18) 
18

>  <SMILES>  (18) 
O=C1c2ccc([N+](=O)[O-])cc2C(=O)N1c1ccc(O)cc1

>  <Energy>  (18) 
69.59060221414619

>  <Genealogy>  (18) 
O=C1c2ccc([N+](=O)[O-])cc2C(=O)N1c1ccc(O)cc1 (3D coordinates assigned)
O=C1c2ccc([N+](=O)[O-])cc2C(=O)N1c1ccc(O)cc1 (nonaromatic ring conformer: 69.59060221414619 kcal/mol)

>  <smiles>  (18) 
O=C1c2ccc([N+](=O)[O-])cc2C(=O)N1c1ccc(O)cc1

>  <score_type>  (18) 
oracle

>  <origin>  (18) 
adg

>  <m_score__min__energy>  (18) 
-7.0999999999999996

>  <m_primary>  (18) 
energy

$$$$
18:0
     RDKit          3D

 43 45  0  0  0  0  0  0  0  0999 V2000
   60.0970   30.1230   47.8520 C   0  0  0  0  0  0  0  0  0  0  0  0
   58.8080   30.6120   47.4960 O   0  0  0  0  0  0  0  0  0  0  0  0
   58.5740   31.8080   46.7970 C   0  0  0  0  0  0  0  0  0  0  0  0
   58.2630   33.0060   47.4700 C   0  0  0  0  0  0  0  0  0  0  0  0
   58.0250   34.1800   46.7540 C   0  0  0  0  0  0  0  0  0  0  0  0
   58.0950   34.1770   45.3620 C   0  0  0  0  0  0  0  0  0  0  0  0
   58.4090   33.0010   44.6800 C   0  0  0  0  0  0  0  0  0  0  0  0
   58.6530   31.8100   45.3850 C   0  0  0  0  0  0  0  0  0  0  0  0
   58.9590   30.5490   44.6080 C   0  0  0  0  0  0  0  0  0  0  0  0
   57.9650   29.5010   44.9200 N   0  0  0  0  0  0  0  0  0  0  0  0
   56.6210   29.7520   44.8050 C   0  0  0  0  0  0  0  0  0  0  0  0
   56.2030   30.8640   44.3810 O   0  0  0  0  0  0  0  0  0  0  0  0
   55.7130   28.8020   45.1430 N   0  0  0  0  0  0  0  0  0  0  0  0
   56.0950   27.5950   45.6220 C   0  0  0  0  0  0  0  0  0  0  0  0
   55.1240   26.6600   45.9670 O   0  0  0  0  0  0  0  0  0  0  0  0
   57.4520   27.3060   45.7820 C   0  0  0  0  0  0  0  0  0  0  0  0
   57.8660   25.9980   46.3410 C   0  0  0  0  0  0  0  0  0  0  0  0
   58.5460   25.0590   45.6620 C   0  0  0  0  0  0  0  0  0  0  0  0
   57.9410   23.8800   44.9960 C   0  0  0  0  0  0  0  0  0  0  0  0
   56.7020   23.9740   44.3330 C   0  0  0  0  0  0  0  0  0  0  0  0
   56.1570   22.8600   43.6900 C   0  0  0  0  0  0  0  0  0  0  0  0
   56.8490   21.6460   43.6790 C   0  0  0  0  0  0  0  0  0  0  0  0
   56.2970   20.5450   43.0270 O   0  0  0  0  0  0  0  0  0  0  0  0
   58.0910   21.5480   44.3200 C   0  0  0  0  0  0  0  0  0  0  0  0
   58.6390   22.6580   44.9710 C   0  0  0  0  0  0  0  0  0  0  0  0
   59.8730   22.5350   45.6000 O   0  0  0  0  0  0  0  0  0  0  0  0
   58.3870   28.2760   45.3770 C   0  0  0  0  0  0  0  0  0  0  0  0
   59.6190   28.0050   45.4220 O   0  0  0  0  0  0  0  0  0  0  0  0
   60.1865   30.0890   48.9478 H   0  0  0  0  0  0  0  0  0  0  0  0
   60.2316   29.1113   47.4416 H   0  0  0  0  0  0  0  0  0  0  0  0
   60.8687   30.7908   47.4416 H   0  0  0  0  0  0  0  0  0  0  0  0
   58.2073   33.0161   48.5685 H   0  0  0  0  0  0  0  0  0  0  0  0
   57.7817   35.1096   47.2893 H   0  0  0  0  0  0  0  0  0  0  0  0
   57.9024   35.1030   44.8003 H   0  0  0  0  0  0  0  0  0  0  0  0
   58.4660   33.0061   43.5815 H   0  0  0  0  0  0  0  0  0  0  0  0
   58.9277   30.7698   43.5308 H   0  0  0  0  0  0  0  0  0  0  0  0
   59.9594   30.1888   44.8897 H   0  0  0  0  0  0  0  0  0  0  0  0
   57.5978   25.7803   47.3854 H   0  0  0  0  0  0  0  0  0  0  0  0
   59.6379   25.1738   45.5947 H   0  0  0  0  0  0  0  0  0  0  0  0
   56.1598   24.9310   44.3214 H   0  0  0  0  0  0  0  0  0  0  0  0
   55.1800   22.9387   43.1907 H   0  0  0  0  0  0  0  0  0  0  0  0
   56.7030   19.6220   43.1110 H   0  0  0  0  0  0  0  0  0  0  0  0
   58.6377   20.5935   44.3112 H   0  0  0  0  0  0  0  0  0  0  0  0
  1  2  1  0
  2  3  1  0
  3  4  2  0
  4  5  1  0
  5  6  2  0
  6  7  1  0
  7  8  2  0
  8  9  1  0
  9 10  1  0
 10 11  1  0
 11 12  2  0
 11 13  1  0
 13 14  1  0
 14 15  1  0
 14 16  2  0
 16 17  1  0
 17 18  2  3
 18 19  1  0
 19 20  2  0
 20 21  1  0
 21 22  2  0
 22 23  1  0
 22 24  1  0
 24 25  2  0
 25 26  1  0
 16 27  1  0
 27 28  2  0
  8  3  1  0
 27 10  1  0
 25 19  1  0
  1 29  1  0
  1 30  1  0
  1 31  1  0
  4 32  1  0
  5 33  1  0
  6 34  1  0
  7 35  1  0
  9 36  1  0
  9 37  1  0
 17 38  1  0
 18 39  1  0
 20 40  1  0
 21 41  1  0
 23 42  1  0
 24 43  1  0
M  CHG  3  13  -1  15  -1  26  -1
M  END
>  <UniqueID>  (19) 
19

>  <SMILES>  (19) 
COc1ccccc1Cn1c(=O)[n-]c([O-])c(C=Cc2ccc(O)cc2[O-])c1=O

>  <Energy>  (19) 
57.524316872049894

>  <Genealogy>  (19) 
COc1ccccc1Cn1c(=O)[n-]c([O-])c(C=Cc2ccc(O)cc2[O-])c1=O (protonated)
COc1ccccc1Cn1c(=O)[n-]c([O-])c(C=Cc2ccc(O)cc2[O-])c1=O (3D coordinates assigned)
COc1ccccc1Cn1c(=O)[n-]c([O-])c(C=Cc2ccc(O)cc2[O-])c1=O (optimized conformer: 57.524316872049894 kcal/mol)

>  <smiles>  (19) 
COc1ccccc1Cn1c(=O)[nH]c(O)c(C=Cc2ccc(O)cc2O)c1=O

>  <score_type>  (19) 
oracle

>  <origin>  (19) 
adg

>  <m_score__min__energy>  (19) 
-16.510000000000002

>  <m_primary>  (19) 
energy

$$$$
19:0
     RDKit          3D

 30 31  0  0  0  0  0  0  0  0999 V2000
   55.1410   27.5850   45.3300 H   0  0  0  0  0  0  0  0  0  0  0  0
   55.8320   28.3220   45.2710 O   0  0  0  0  0  0  0  0  0  0  0  0
   57.1770   28.1180   45.5830 C   0  0  0  0  0  0  0  0  0  0  0  0
   57.5880   26.9970   46.3340 C   0  0  0  0  0  0  0  0  0  0  0  0
   56.5970   26.0610   46.7900 N   0  0  0  0  0  0  0  0  0  0  0  0
   55.5750   25.4500   45.9980 C   0  0  0  0  0  0  0  0  0  0  0  0
   55.7575   24.4818   45.5088 H   0  0  0  0  0  0  0  0  0  0  0  0
   54.4660   26.0280   45.8650 O   0  0  0  0  0  0  0  0  0  0  0  0
   58.9540   26.8370   46.6370 C   0  0  0  0  0  0  0  0  0  0  0  0
   59.2842   25.9734   47.2330 H   0  0  0  0  0  0  0  0  0  0  0  0
   59.8910   27.7670   46.1860 C   0  0  0  0  0  0  0  0  0  0  0  0
   60.9564   27.6307   46.4235 H   0  0  0  0  0  0  0  0  0  0  0  0
   59.4820   28.8690   45.4350 C   0  0  0  0  0  0  0  0  0  0  0  0
   60.2259   29.5974   45.0799 H   0  0  0  0  0  0  0  0  0  0  0  0
   58.1230   29.0510   45.1310 C   0  0  0  0  0  0  0  0  0  0  0  0
   57.6820   30.1490   44.3850 O   0  0  0  0  0  0  0  0  0  0  0  0
   56.7790   31.0620   44.8870 N   0  0  0  0  0  0  0  0  0  0  0  0
   56.9670   32.3440   44.8220 C   0  0  0  0  0  0  0  0  0  0  0  0
   56.4384   32.9091   44.0402 H   0  0  0  0  0  0  0  0  0  0  0  0
   57.8550   33.0860   45.7440 C   0  0  0  0  0  0  0  0  0  0  0  0
   58.1610   32.6040   47.0310 C   0  0  0  0  0  0  0  0  0  0  0  0
   57.7208   31.6586   47.3809 H   0  0  0  0  0  0  0  0  0  0  0  0
   59.0220   33.3220   47.8660 C   0  0  0  0  0  0  0  0  0  0  0  0
   59.2478   32.9460   48.8748 H   0  0  0  0  0  0  0  0  0  0  0  0
   59.5960   34.5150   47.4230 C   0  0  0  0  0  0  0  0  0  0  0  0
   60.2652   35.0825   48.0864 H   0  0  0  0  0  0  0  0  0  0  0  0
   59.3210   34.9890   46.1370 C   0  0  0  0  0  0  0  0  0  0  0  0
   59.9020   36.1680   45.6930 O   0  0  0  0  0  0  0  0  0  0  0  0
   58.4590   34.2720   45.2980 C   0  0  0  0  0  0  0  0  0  0  0  0
   58.2538   34.6408   44.2822 H   0  0  0  0  0  0  0  0  0  0  0  0
  1  2  1  0
  2  3  1  0
  3  4  2  0
  4  5  1  0
  5  6  1  0
  6  7  1  0
  6  8  2  0
  4  9  1  0
  9 10  1  0
  9 11  2  0
 11 12  1  0
 11 13  1  0
 13 14  1  0
 13 15  2  0
 15 16  1  0
 16 17  1  0
 17 18  2  0
 18 19  1  0
 18 20  1  0
 20 21  2  0
 21 22  1  0
 21 23  1  0
 23 24  1  0
 23 25  2  0
 25 26  1  0
 25 27  1  0
 27 28  1  0
 27 29  2  0
 29 30  1  0
 15  3  1  0
 29 20  1  0
M  CHG  2   5  -1  28  -1
M  END
>  <UniqueID>  (20) 
20

>  <SMILES>  (20) 
O=C[N-]c1cccc(O/N=C\c2cccc([O-])c2)c1O

>  <Energy>  (20) 
35.95525412065436

>  <Genealogy>  (20) 
O=C[N-]c1cccc(ON=Cc2cccc([O-])c2)c1O (protonated)
O=C[N-]c1cccc(O/N=C\c2cccc([O-])c2)c1O (cis-trans isomerization)
O=C[N-]c1cccc(O/N=C\c2cccc([O-])c2)c1O (3D coordinates assigned)
O=C[N-]c1cccc(O/N=C\c2cccc([O-])c2)c1O (optimized conformer: 35.95525412065436 kcal/mol)

>  <smiles>  (20) 
O=CNc1cccc(ON=Cc2cccc(O)c2)c1O

>  <score_type>  (20) 
oracle

>  <origin>  (20) 
adg

>  <m_score__min__energy>  (20) 
-12.09

>  <m_primary>  (20) 
energy

$$$$
20:0
     RDKit          3D

 52 55  0  0  0  0  0  0  0  0999 V2000
   53.9323   24.8126   44.0515 H   0  0  0  0  0  0  0  0  0  0  0  0
   53.7320   24.1020   44.8670 C   0  0  0  0  0  0  0  0  0  0  0  0
   52.4010   23.4860   44.9630 C   0  0  0  0  0  0  0  0  0  0  0  0
   52.3000   22.2650   45.2520 O   0  0  0  0  0  0  0  0  0  0  0  0
   51.2480   24.2290   44.7360 O   0  0  0  0  0  0  0  0  0  0  0  0
   54.7080   23.8260   45.7400 C   0  0  0  0  0  0  0  0  0  0  0  0
   54.5728   22.9831   46.4337 H   0  0  0  0  0  0  0  0  0  0  0  0
   55.9620   24.6090   45.8100 C   0  0  0  0  0  0  0  0  0  0  0  0
   57.1800   23.9150   45.8670 C   0  0  0  0  0  0  0  0  0  0  0  0
   57.1826   22.8150   45.8635 H   0  0  0  0  0  0  0  0  0  0  0  0
   58.3870   24.6100   45.9280 C   0  0  0  0  0  0  0  0  0  0  0  0
   59.3353   24.0573   46.0000 H   0  0  0  0  0  0  0  0  0  0  0  0
   58.3950   26.0040   45.8980 C   0  0  0  0  0  0  0  0  0  0  0  0
   59.3525   26.5446   45.9304 H   0  0  0  0  0  0  0  0  0  0  0  0
   57.1960   26.7210   45.8270 C   0  0  0  0  0  0  0  0  0  0  0  0
   57.2710   28.1500   45.7230 N   0  0  0  0  0  0  0  0  0  0  0  0
   58.6350   29.1330   46.1640 S   0  0  0  0  0  0  0  0  0  0  0  0
   59.7450   28.9010   45.1780 O   0  0  0  0  0  0  0  0  0  0  0  0
   59.1070   28.7230   47.5320 O   0  0  0  0  0  0  0  0  0  0  0  0
   58.2160   30.8530   46.1380 C   0  0  0  0  0  0  0  0  0  0  0  0
   57.7130   31.4260   44.9590 C   0  0  0  0  0  0  0  0  0  0  0  0
   57.5413   30.7945   44.0749 H   0  0  0  0  0  0  0  0  0  0  0  0
   57.4290   32.7930   44.9010 C   0  0  0  0  0  0  0  0  0  0  0  0
   57.0433   33.2350   43.9705 H   0  0  0  0  0  0  0  0  0  0  0  0
   57.6340   33.5970   46.0210 C   0  0  0  0  0  0  0  0  0  0  0  0
   57.4109   34.6730   45.9727 H   0  0  0  0  0  0  0  0  0  0  0  0
   58.1220   33.0390   47.2040 C   0  0  0  0  0  0  0  0  0  0  0  0
   58.2701   33.6760   48.0885 H   0  0  0  0  0  0  0  0  0  0  0  0
   58.4260   31.6650   47.2720 C   0  0  0  0  0  0  0  0  0  0  0  0
   58.8860   31.0770   48.4970 N   0  0  0  0  0  0  0  0  0  0  0  0
   58.4850   31.4050   49.6890 C   0  0  0  0  0  0  0  0  0  0  0  0
   58.7460   32.6040   50.2640 N   0  0  0  0  0  0  0  0  0  0  0  0
   58.2300   32.4630   51.4940 C   0  0  0  0  0  0  0  0  0  0  0  0
   58.2820   33.4470   52.4730 O   0  0  0  0  0  0  0  0  0  0  0  0
   57.6760   31.2140   51.6360 C   0  0  0  0  0  0  0  0  0  0  0  0
   57.0980   30.6260   52.8840 C   0  0  0  0  0  0  0  0  0  0  0  0
   57.6510   29.7121   53.1466 H   0  0  0  0  0  0  0  0  0  0  0  0
   57.1801   31.3581   53.7009 H   0  0  0  0  0  0  0  0  0  0  0  0
   55.6490   30.2870   52.6670 C   0  0  0  0  0  0  0  0  0  0  0  0
   54.8010   31.1840   51.9920 C   0  0  0  0  0  0  0  0  0  0  0  0
   55.2068   32.1226   51.5865 H   0  0  0  0  0  0  0  0  0  0  0  0
   53.4440   30.8860   51.8350 C   0  0  0  0  0  0  0  0  0  0  0  0
   52.7865   31.5864   51.2991 H   0  0  0  0  0  0  0  0  0  0  0  0
   52.9210   29.6990   52.3580 C   0  0  0  0  0  0  0  0  0  0  0  0
   51.8522   29.4682   52.2376 H   0  0  0  0  0  0  0  0  0  0  0  0
   53.7580   28.8060   53.0340 C   0  0  0  0  0  0  0  0  0  0  0  0
   53.3469   27.8714   53.4433 H   0  0  0  0  0  0  0  0  0  0  0  0
   55.1160   29.0980   53.1910 C   0  0  0  0  0  0  0  0  0  0  0  0
   55.7695   28.3939   53.7269 H   0  0  0  0  0  0  0  0  0  0  0  0
   57.8500   30.5260   50.4930 N   0  0  0  0  0  0  0  0  0  0  0  0
   55.9700   26.0210   45.8580 C   0  0  0  0  0  0  0  0  0  0  0  0
   54.7720   26.7150   45.9950 O   0  0  0  0  0  0  0  0  0  0  0  0
  1  2  1  0
  2  3  1  0
  3  4  2  0
  3  5  1  0
  2  6  2  3
  6  7  1  0
  6  8  1  0
  8  9  2  0
  9 10  1  0
  9 11  1  0
 11 12  1  0
 11 13  2  0
 13 14  1  0
 13 15  1  0
 15 16  1  0
 16 17  1  0
 17 18  2  0
 17 19  2  0
 17 20  1  0
 20 21  2  0
 21 22  1  0
 21 23  1  0
 23 24  1  0
 23 25  2  0
 25 26  1  0
 25 27  1  0
 27 28  1  0
 27 29  2  0
 29 30  1  0
 30 31  2  0
 31 32  1  0
 32 33  1  0
 33 34  1  0
 33 35  2  0
 35 36  1  0
 36 37  1  0
 36 38  1  0
 36 39  1  0
 39 40  2  0
 40 41  1  0
 40 42  1  0
 42 43  1  0
 42 44  2  0
 44 45  1  0
 44 46  1  0
 46 47  1  0
 46 48  2  0
 48 49  1  0
 35 50  1  0
 15 51  2  0
 51 52  1  0
 51  8  1  0
 29 20  1  0
 50 31  1  0
 48 39  1  0
M  CHG  6   5  -1  16  -1  32  -1  34  -1  50  -1  52  -1
M  END
>  <UniqueID>  (21) 
21

>  <SMILES>  (21) 
O=C([O-])C=Cc1cccc([N-]S(=O)(=O)c2ccccc2/N=c2\[n-]c([O-])c(Cc3ccccc3)[n-]2)c1[O-]

>  <Energy>  (21) 
94.58744362746437

>  <Genealogy>  (21) 
O=C([O-])C=Cc1cccc([N-]S(=O)(=O)c2ccccc2N=c2[n-]c([O-])c(Cc3ccccc3)[n-]2)c1[O-] (protonated)
O=C([O-])C=Cc1cccc([N-]S(=O)(=O)c2ccccc2/N=c2\[n-]c([O-])c(Cc3ccccc3)[n-]2)c1[O-] (cis-trans isomerization)
O=C([O-])C=Cc1cccc([N-]S(=O)(=O)c2ccccc2/N=c2\[n-]c([O-])c(Cc3ccccc3)[n-]2)c1[O-] (3D coordinates assigned)
O=C([O-])C=Cc1cccc([N-]S(=O)(=O)c2ccccc2/N=c2\[n-]c([O-])c(Cc3ccccc3)[n-]2)c1[O-] (optimized conformer: 94.58744362746437 kcal/mol)

>  <smiles>  (21) 
O=C(O)C=Cc1cccc(NS(=O)(=O)c2ccccc2N=c2[nH]c(O)c(Cc3ccccc3)[nH]2)c1O

>  <score_type>  (21) 
oracle

>  <origin>  (21) 
adg

>  <m_score__min__energy>  (21) 
-19.690000000000001

>  <m_primary>  (21) 
energy

$$$$
21:0
     RDKit          3D

 34 35  0  0  0  0  0  0  0  0999 V2000
   57.9560   27.0060   47.4440 O   0  0  0  0  0  0  0  0  0  0  0  0
   57.5140   26.5460   46.3580 C   0  0  0  0  0  0  0  0  0  0  0  0
   58.2550   25.5520   45.6300 N   0  0  0  0  0  0  0  0  0  0  0  0
   57.8150   24.5330   44.9420 C   0  0  0  0  0  0  0  0  0  0  0  0
   58.4360   23.2640   44.9710 C   0  0  0  0  0  0  0  0  0  0  0  0
   57.9120   22.2220   44.2040 C   0  0  0  0  0  0  0  0  0  0  0  0
   56.7910   22.4400   43.4070 C   0  0  0  0  0  0  0  0  0  0  0  0
   56.2090   23.7070   43.3820 C   0  0  0  0  0  0  0  0  0  0  0  0
   56.7300   24.7160   44.1340 N   0  0  0  0  0  0  0  0  0  0  0  0
   56.1790   26.9450   45.8590 C   0  0  0  0  0  0  0  0  0  0  0  0
   55.2270   26.1310   45.9770 O   0  0  0  0  0  0  0  0  0  0  0  0
   55.9160   28.2120   45.2400 N   0  0  0  0  0  0  0  0  0  0  0  0
   56.8530   29.0010   44.4480 C   0  0  0  0  0  0  0  0  0  0  0  0
   57.9040   29.6400   45.3560 C   0  0  0  0  0  0  0  0  0  0  0  0
   57.9290   31.1390   45.1990 C   0  0  0  0  0  0  0  0  0  0  0  0
   57.7790   31.7190   43.9280 C   0  0  0  0  0  0  0  0  0  0  0  0
   57.8330   33.1080   43.7770 C   0  0  0  0  0  0  0  0  0  0  0  0
   58.0430   33.9260   44.8900 C   0  0  0  0  0  0  0  0  0  0  0  0
   58.2040   33.3560   46.1570 C   0  0  0  0  0  0  0  0  0  0  0  0
   58.1500   31.9670   46.3120 C   0  0  0  0  0  0  0  0  0  0  0  0
   59.3271   23.0982   45.5943 H   0  0  0  0  0  0  0  0  0  0  0  0
   58.3844   21.2289   44.2291 H   0  0  0  0  0  0  0  0  0  0  0  0
   56.3695   21.6222   42.8041 H   0  0  0  0  0  0  0  0  0  0  0  0
   55.3260   23.8922   42.7527 H   0  0  0  0  0  0  0  0  0  0  0  0
   56.2700   25.6530   44.0900 H   0  0  0  0  0  0  0  0  0  0  0  0
   57.3526   28.3469   43.7182 H   0  0  0  0  0  0  0  0  0  0  0  0
   56.3006   29.7950   43.9242 H   0  0  0  0  0  0  0  0  0  0  0  0
   57.6703   29.3937   46.4023 H   0  0  0  0  0  0  0  0  0  0  0  0
   58.8913   29.2460   45.0731 H   0  0  0  0  0  0  0  0  0  0  0  0
   57.6185   31.0780   43.0486 H   0  0  0  0  0  0  0  0  0  0  0  0
   57.7100   33.5573   42.7805 H   0  0  0  0  0  0  0  0  0  0  0  0
   58.0817   35.0187   44.7698 H   0  0  0  0  0  0  0  0  0  0  0  0
   58.3732   34.0005   47.0322 H   0  0  0  0  0  0  0  0  0  0  0  0
   58.2811   31.5214   47.3091 H   0  0  0  0  0  0  0  0  0  0  0  0
  1  2  2  0
  2  3  1  0
  3  4  2  3
  4  5  1  0
  5  6  2  0
  6  7  1  0
  7  8  2  0
  8  9  1  0
  2 10  1  0
 10 11  2  0
 10 12  1  0
 12 13  1  0
 13 14  1  0
 14 15  1  0
 15 16  2  0
 16 17  1  0
 17 18  2  0
 18 19  1  0
 19 20  2  0
  9  4  1  0
 20 15  1  0
  5 21  1  0
  6 22  1  0
  7 23  1  0
  8 24  1  0
  9 25  1  0
 13 26  1  0
 13 27  1  0
 14 28  1  0
 14 29  1  0
 16 30  1  0
 17 31  1  0
 18 32  1  0
 19 33  1  0
 20 34  1  0
M  CHG  1  12  -1
M  END
>  <UniqueID>  (22) 
22

>  <SMILES>  (22) 
O=C(N=c1cccc[nH]1)C(=O)[N-]CCc1ccccc1

>  <Energy>  (22) 
39.04349263883136

>  <Genealogy>  (22) 
O=C(N=c1cccc[nH]1)C(=O)[N-]CCc1ccccc1 (protonated)
O=C(N=c1cccc[nH]1)C(=O)[N-]CCc1ccccc1 (3D coordinates assigned)
O=C(N=c1cccc[nH]1)C(=O)[N-]CCc1ccccc1 (optimized conformer: 39.04349263883136 kcal/mol)

>  <smiles>  (22) 
O=C(N=c1cccc[nH]1)C(=O)NCCc1ccccc1

>  <score_type>  (22) 
oracle

>  <origin>  (22) 
adg

>  <m_score__min__energy>  (22) 
-8.5899999999999999

>  <m_primary>  (22) 
energy

$$$$
22:0
     RDKit          3D

 64 68  0  0  0  0  0  0  0  0999 V2000
   58.5540   32.6360   47.7780 C   0  0  0  0  0  0  0  0  0  0  0  0
   58.5370   31.5010   46.9160 O   0  0  0  0  0  0  0  0  0  0  0  0
   58.2160   31.5460   45.5470 C   0  0  0  0  0  0  0  0  0  0  0  0
   58.1410   32.7650   44.8440 C   0  0  0  0  0  0  0  0  0  0  0  0
   57.7760   32.7820   43.4960 C   0  0  0  0  0  0  0  0  0  0  0  0
   57.4910   31.5910   42.8290 C   0  0  0  0  0  0  0  0  0  0  0  0
   57.5700   30.3760   43.5090 C   0  0  0  0  0  0  0  0  0  0  0  0
   57.9350   30.3380   44.8680 C   0  0  0  0  0  0  0  0  0  0  0  0
   58.0150   29.0310   45.5650 C   0  0  0  0  0  0  0  0  0  0  0  0
   59.0790   28.7610   46.4400 C   0  0  0  0  0  0  0  0  0  0  0  0
   59.1540   27.5390   47.1140 C   0  0  0  0  0  0  0  0  0  0  0  0
   60.2490   27.3000   48.0070 N   0  0  0  0  0  0  0  0  0  0  0  0
   60.5040   28.0250   49.2170 C   0  0  0  0  0  0  0  0  0  0  0  0
   61.0070   27.4160   50.1990 O   0  0  0  0  0  0  0  0  0  0  0  0
   60.1280   29.4760   49.3610 C   0  0  0  0  0  0  0  0  0  0  0  0
   61.3450   30.3530   49.3080 C   0  0  0  0  0  0  0  0  0  0  0  0
   62.3230   30.7500   50.6220 S   0  0  0  0  0  0  0  0  0  0  0  0
   63.2760   31.8070   49.7200 C   0  0  0  0  0  0  0  0  0  0  0  0
   64.4120   32.5210   50.2260 N   0  0  0  0  0  0  0  0  0  0  0  0
   64.3200   33.7900   50.9210 C   0  0  0  0  0  0  0  0  0  0  0  0
   65.7230   34.0810   51.4320 C   0  0  0  0  0  0  0  0  0  0  0  0
   66.6570   33.1270   50.6880 C   0  0  0  0  0  0  0  0  0  0  0  0
   65.7730   32.0250   50.1200 C   0  0  0  0  0  0  0  0  0  0  0  0
   62.8570   31.8930   48.4380 N   0  0  0  0  0  0  0  0  0  0  0  0
   61.7790   31.0950   48.2110 C   0  0  0  0  0  0  0  0  0  0  0  0
   61.1570   31.0380   46.9660 O   0  0  0  0  0  0  0  0  0  0  0  0
   58.1210   26.6010   46.9650 C   0  0  0  0  0  0  0  0  0  0  0  0
   57.0380   26.8620   46.1100 C   0  0  0  0  0  0  0  0  0  0  0  0
   55.9160   25.9060   46.0140 C   0  0  0  0  0  0  0  0  0  0  0  0
   54.7260   26.3320   45.9950 O   0  0  0  0  0  0  0  0  0  0  0  0
   56.1760   24.4990   45.9210 N   0  0  0  0  0  0  0  0  0  0  0  0
   55.4320   23.5900   45.0570 C   0  0  0  0  0  0  0  0  0  0  0  0
   56.3500   22.6410   44.3520 C   0  0  0  0  0  0  0  0  0  0  0  0
   57.7020   22.4810   44.5920 C   0  0  0  0  0  0  0  0  0  0  0  0
   58.1180   21.5000   43.7140 C   0  0  0  0  0  0  0  0  0  0  0  0
   56.9980   21.1270   42.9960 C   0  0  0  0  0  0  0  0  0  0  0  0
   55.9600   21.8240   43.4000 O   0  0  0  0  0  0  0  0  0  0  0  0
   57.0030   28.0710   45.3960 C   0  0  0  0  0  0  0  0  0  0  0  0
   58.5490   32.3008   48.8257 H   0  0  0  0  0  0  0  0  0  0  0  0
   59.4611   33.2281   47.5868 H   0  0  0  0  0  0  0  0  0  0  0  0
   57.6650   33.2550   47.5868 H   0  0  0  0  0  0  0  0  0  0  0  0
   58.3713   33.7088   45.3600 H   0  0  0  0  0  0  0  0  0  0  0  0
   57.7130   33.7394   42.9579 H   0  0  0  0  0  0  0  0  0  0  0  0
   57.2041   31.6099   41.7672 H   0  0  0  0  0  0  0  0  0  0  0  0
   57.3451   29.4389   42.9786 H   0  0  0  0  0  0  0  0  0  0  0  0
   59.8611   29.5184   46.5966 H   0  0  0  0  0  0  0  0  0  0  0  0
   59.4476   29.7545   48.5428 H   0  0  0  0  0  0  0  0  0  0  0  0
   59.6360   29.6164   50.3348 H   0  0  0  0  0  0  0  0  0  0  0  0
   63.9906   34.5818   50.2321 H   0  0  0  0  0  0  0  0  0  0  0  0
   63.5884   33.7519   51.7416 H   0  0  0  0  0  0  0  0  0  0  0  0
   65.9968   35.1250   51.2195 H   0  0  0  0  0  0  0  0  0  0  0  0
   65.7897   33.9378   52.5206 H   0  0  0  0  0  0  0  0  0  0  0  0
   67.1753   33.6571   49.8754 H   0  0  0  0  0  0  0  0  0  0  0  0
   67.4282   32.7177   51.3571 H   0  0  0  0  0  0  0  0  0  0  0  0
   66.0299   31.8308   49.0682 H   0  0  0  0  0  0  0  0  0  0  0  0
   65.9041   31.0778   50.6638 H   0  0  0  0  0  0  0  0  0  0  0  0
   60.1480   30.9810   46.8930 H   0  0  0  0  0  0  0  0  0  0  0  0
   58.1599   25.6535   47.5225 H   0  0  0  0  0  0  0  0  0  0  0  0
   54.7216   23.0145   45.6686 H   0  0  0  0  0  0  0  0  0  0  0  0
   54.8991   24.1856   44.3012 H   0  0  0  0  0  0  0  0  0  0  0  0
   58.3166   23.0212   45.3272 H   0  0  0  0  0  0  0  0  0  0  0  0
   59.1359   21.0967   43.6076 H   0  0  0  0  0  0  0  0  0  0  0  0
   56.9783   20.3622   42.2056 H   0  0  0  0  0  0  0  0  0  0  0  0
   56.1758   28.2681   44.6982 H   0  0  0  0  0  0  0  0  0  0  0  0
  1  2  1  0
  2  3  1  0
  3  4  2  0
  4  5  1  0
  5  6  2  0
  6  7  1  0
  7  8  2  0
  8  9  1  0
  9 10  2  0
 10 11  1  0
 11 12  1  0
 12 13  1  0
 13 14  2  0
 13 15  1  0
 15 16  1  0
 16 17  1  0
 17 18  1  0
 18 19  1  0
 19 20  1  0
 20 21  1  0
 21 22  1  0
 22 23  1  0
 18 24  2  0
 24 25  1  0
 25 26  1  0
 11 27  2  0
 27 28  1  0
 28 29  1  0
 29 30  2  0
 29 31  1  0
 31 32  1  0
 32 33  1  0
 33 34  2  0
 34 35  1  0
 35 36  2  0
 36 37  1  0
 28 38  2  0
  8  3  1  0
 38  9  1  0
 25 16  2  0
 37 33  1  0
 23 19  1  0
  1 39  1  0
  1 40  1  0
  1 41  1  0
  4 42  1  0
  5 43  1  0
  6 44  1  0
  7 45  1  0
 10 46  1  0
 15 47  1  0
 15 48  1  0
 20 49  1  0
 20 50  1  0
 21 51  1  0
 21 52  1  0
 22 53  1  0
 22 54  1  0
 23 55  1  0
 23 56  1  0
 26 57  1  0
 27 58  1  0
 32 59  1  0
 32 60  1  0
 34 61  1  0
 35 62  1  0
 36 63  1  0
 38 64  1  0
M  CHG  2  12  -1  31  -1
M  END
>  <UniqueID>  (23) 
23

>  <SMILES>  (23) 
COc1ccccc1-c1cc([N-]C(=O)Cc2sc(N3CCCC3)nc2O)cc(C(=O)[N-]Cc2ccco2)c1

>  <Energy>  (23) 
132.10881586936074

>  <Genealogy>  (23) 
COc1ccccc1-c1cc([N-]C(=O)Cc2sc(N3CCCC3)nc2O)cc(C(=O)[N-]Cc2ccco2)c1 (protonated)
COc1ccccc1-c1cc([N-]C(=O)Cc2sc(N3CCCC3)nc2O)cc(C(=O)[N-]Cc2ccco2)c1 (3D coordinates assigned)
COc1ccccc1-c1cc([N-]C(=O)Cc2sc(N3CCCC3)nc2O)cc(C(=O)[N-]Cc2ccco2)c1 (nonaromatic ring conformer: 132.10881586936074 kcal/mol)

>  <smiles>  (23) 
COc1ccccc1-c1cc(NC(=O)Cc2sc(N3CCCC3)nc2O)cc(C(=O)NCc2ccco2)c1

>  <score_type>  (23) 
oracle

>  <origin>  (23) 
adg

>  <m_score__min__energy>  (23) 
-11.98

>  <m_primary>  (23) 
energy

$$$$
23:0
     RDKit          3D

 26 27  0  0  0  0  0  0  0  0999 V2000
   59.0600   27.8350   45.6230 C   0  0  0  0  0  0  0  0  0  0  0  0
   57.7240   27.2070   45.8640 C   0  0  0  0  0  0  0  0  0  0  0  0
   57.5690   25.9710   46.3720 N   0  0  0  0  0  0  0  0  0  0  0  0
   56.2300   25.8240   46.4230 C   0  0  0  0  0  0  0  0  0  0  0  0
   55.6780   24.7760   46.8490 O   0  0  0  0  0  0  0  0  0  0  0  0
   55.5300   26.8890   45.9850 N   0  0  0  0  0  0  0  0  0  0  0  0
   56.4810   27.7680   45.6230 C   0  0  0  0  0  0  0  0  0  0  0  0
   56.2040   29.1250   45.1030 C   0  0  0  0  0  0  0  0  0  0  0  0
   55.1310   29.3360   44.4790 O   0  0  0  0  0  0  0  0  0  0  0  0
   57.1150   30.2190   45.2770 N   0  0  0  0  0  0  0  0  0  0  0  0
   57.3070   31.3460   44.3680 C   0  0  0  0  0  0  0  0  0  0  0  0
   57.9000   32.5270   45.0910 C   0  0  0  0  0  0  0  0  0  0  0  0
   57.7700   32.6430   46.4840 C   0  0  0  0  0  0  0  0  0  0  0  0
   58.3220   33.7470   47.1380 C   0  0  0  0  0  0  0  0  0  0  0  0
   58.9720   34.7070   46.4260 N   0  0  0  0  0  0  0  0  0  0  0  0
   59.1020   34.6270   45.0760 C   0  0  0  0  0  0  0  0  0  0  0  0
   58.5640   33.5410   44.3820 C   0  0  0  0  0  0  0  0  0  0  0  0
   59.5387   28.0600   46.5875 H   0  0  0  0  0  0  0  0  0  0  0  0
   59.6940   27.1406   45.0522 H   0  0  0  0  0  0  0  0  0  0  0  0
   58.9298   28.7662   45.0522 H   0  0  0  0  0  0  0  0  0  0  0  0
   57.9856   31.0427   43.5571 H   0  0  0  0  0  0  0  0  0  0  0  0
   56.3279   31.6393   43.9613 H   0  0  0  0  0  0  0  0  0  0  0  0
   57.2370   31.8697   47.0567 H   0  0  0  0  0  0  0  0  0  0  0  0
   58.2310   33.8403   48.2303 H   0  0  0  0  0  0  0  0  0  0  0  0
   59.6324   35.4197   44.5281 H   0  0  0  0  0  0  0  0  0  0  0  0
   58.6597   33.4804   43.2878 H   0  0  0  0  0  0  0  0  0  0  0  0
  1  2  1  0
  2  3  1  0
  3  4  1  0
  4  5  2  0
  4  6  1  0
  6  7  1  0
  7  8  1  0
  8  9  2  0
  8 10  1  0
 10 11  1  0
 11 12  1  0
 12 13  2  0
 13 14  1  0
 14 15  2  0
 15 16  1  0
 16 17  2  0
  7  2  2  0
 17 12  1  0
  1 18  1  0
  1 19  1  0
  1 20  1  0
 11 21  1  0
 11 22  1  0
 13 23  1  0
 14 24  1  0
 16 25  1  0
 17 26  1  0
M  CHG  3   3  -1   6  -1  10  -1
M  END
>  <UniqueID>  (24) 
24

>  <SMILES>  (24) 
Cc1[n-]c(=O)[n-]c1C(=O)[N-]Cc1ccncc1

>  <Energy>  (24) 
54.823322793911366

>  <Genealogy>  (24) 
Cc1[n-]c(=O)[n-]c1C(=O)[N-]Cc1ccncc1 (protonated)
Cc1[n-]c(=O)[n-]c1C(=O)[N-]Cc1ccncc1 (3D coordinates assigned)
Cc1[n-]c(=O)[n-]c1C(=O)[N-]Cc1ccncc1 (optimized conformer: 54.823322793911366 kcal/mol)

>  <smiles>  (24) 
Cc1[nH]c(=O)[nH]c1C(=O)NCc1ccncc1

>  <score_type>  (24) 
oracle

>  <origin>  (24) 
adg

>  <m_score__min__energy>  (24) 
-11.83

>  <m_primary>  (24) 
energy

$$$$
24:0
     RDKit          3D

 55 58  0  0  0  0  0  0  0  0999 V2000
   63.5910   34.9710   50.8730 O   0  0  0  0  0  0  0  0  0  0  0  0
   63.9990   34.0400   51.6160 C   0  0  0  0  0  0  0  0  0  0  0  0
   65.4520   33.6750   51.6270 C   0  0  0  0  0  0  0  0  0  0  0  0
   65.7230   32.0190   50.8930 S   0  0  0  0  0  0  0  0  0  0  0  0
   64.3870   32.1450   49.7050 C   0  0  0  0  0  0  0  0  0  0  0  0
   64.3720   33.0630   48.7070 N   0  0  0  0  0  0  0  0  0  0  0  0
   63.2050   33.0050   48.0180 C   0  0  0  0  0  0  0  0  0  0  0  0
   62.8670   33.8590   46.9690 C   0  0  0  0  0  0  0  0  0  0  0  0
   61.6030   33.7260   46.3710 C   0  0  0  0  0  0  0  0  0  0  0  0
   60.7000   32.7270   46.8010 C   0  0  0  0  0  0  0  0  0  0  0  0
   59.4120   32.6200   46.1770 N   0  0  0  0  0  0  0  0  0  0  0  0
   58.6240   33.7640   45.8150 C   0  0  0  0  0  0  0  0  0  0  0  0
   58.8680   34.8910   46.3300 O   0  0  0  0  0  0  0  0  0  0  0  0
   57.4760   33.6200   44.8520 C   0  0  0  0  0  0  0  0  0  0  0  0
   57.4200   32.2110   44.2590 C   0  0  0  0  0  0  0  0  0  0  0  0
   57.0280   31.2480   45.2900 N   0  0  0  0  0  0  0  0  0  0  0  0
   56.5950   29.7340   44.5590 S   0  0  0  0  0  0  0  0  0  0  0  0
   56.7700   29.8400   43.0710 O   0  0  0  0  0  0  0  0  0  0  0  0
   55.1520   29.4280   44.8550 O   0  0  0  0  0  0  0  0  0  0  0  0
   57.6590   28.4640   45.1710 C   0  0  0  0  0  0  0  0  0  0  0  0
   59.0470   28.6650   45.1210 C   0  0  0  0  0  0  0  0  0  0  0  0
   59.9200   27.6970   45.6280 C   0  0  0  0  0  0  0  0  0  0  0  0
   59.4150   26.5230   46.1940 C   0  0  0  0  0  0  0  0  0  0  0  0
   58.0350   26.3140   46.2470 C   0  0  0  0  0  0  0  0  0  0  0  0
   57.1550   27.2780   45.7370 C   0  0  0  0  0  0  0  0  0  0  0  0
   55.8230   27.0480   45.8120 F   0  0  0  0  0  0  0  0  0  0  0  0
   61.0570   31.8800   47.8710 C   0  0  0  0  0  0  0  0  0  0  0  0
   62.3080   32.0450   48.4560 C   0  0  0  0  0  0  0  0  0  0  0  0
   62.9690   31.2220   49.7630 S   0  0  0  0  0  0  0  0  0  0  0  0
   63.0900   33.3120   52.4510 N   0  0  0  0  0  0  0  0  0  0  0  0
   61.7060   33.0350   52.1880 C   0  0  0  0  0  0  0  0  0  0  0  0
   60.9930   33.6770   51.1540 C   0  0  0  0  0  0  0  0  0  0  0  0
   59.6720   33.3130   50.8820 C   0  0  0  0  0  0  0  0  0  0  0  0
   59.0550   32.3010   51.6240 C   0  0  0  0  0  0  0  0  0  0  0  0
   57.4040   31.8360   51.2690 Cl  0  0  0  0  0  0  0  0  0  0  0  0
   59.7620   31.6520   52.6430 C   0  0  0  0  0  0  0  0  0  0  0  0
   61.0820   32.0130   52.9180 C   0  0  0  0  0  0  0  0  0  0  0  0
   66.0141   34.4214   51.0465 H   0  0  0  0  0  0  0  0  0  0  0  0
   65.7987   33.6549   52.6707 H   0  0  0  0  0  0  0  0  0  0  0  0
   63.5765   34.6222   46.6165 H   0  0  0  0  0  0  0  0  0  0  0  0
   61.3122   34.4076   45.5581 H   0  0  0  0  0  0  0  0  0  0  0  0
   58.9980   31.6670   46.0510 H   0  0  0  0  0  0  0  0  0  0  0  0
   56.5347   33.8223   45.3840 H   0  0  0  0  0  0  0  0  0  0  0  0
   57.6209   34.3366   44.0301 H   0  0  0  0  0  0  0  0  0  0  0  0
   56.6842   32.1890   43.4416 H   0  0  0  0  0  0  0  0  0  0  0  0
   58.4146   31.9420   43.8737 H   0  0  0  0  0  0  0  0  0  0  0  0
   59.4505   29.5888   44.6807 H   0  0  0  0  0  0  0  0  0  0  0  0
   61.0068   27.8600   45.5812 H   0  0  0  0  0  0  0  0  0  0  0  0
   60.1030   25.7652   46.5969 H   0  0  0  0  0  0  0  0  0  0  0  0
   57.6375   25.3893   46.6907 H   0  0  0  0  0  0  0  0  0  0  0  0
   60.3628   31.1077   48.2339 H   0  0  0  0  0  0  0  0  0  0  0  0
   61.4782   34.4659   50.5606 H   0  0  0  0  0  0  0  0  0  0  0  0
   59.1158   33.8237   50.0821 H   0  0  0  0  0  0  0  0  0  0  0  0
   59.2768   30.8566   53.2277 H   0  0  0  0  0  0  0  0  0  0  0  0
   61.6365   31.4924   53.7126 H   0  0  0  0  0  0  0  0  0  0  0  0
  1  2  2  0
  2  3  1  0
  3  4  1  0
  4  5  1  0
  5  6  2  0
  6  7  1  0
  7  8  2  0
  8  9  1  0
  9 10  2  0
 10 11  1  0
 11 12  1  0
 12 13  2  0
 12 14  1  0
 14 15  1  0
 15 16  1  0
 16 17  1  0
 17 18  2  0
 17 19  2  0
 17 20  1  0
 20 21  2  0
 21 22  1  0
 22 23  2  0
 23 24  1  0
 24 25  2  0
 25 26  1  0
 10 27  1  0
 27 28  2  0
 28 29  1  0
  2 30  1  0
 30 31  1  0
 31 32  2  0
 32 33  1  0
 33 34  2  0
 34 35  1  0
 34 36  1  0
 36 37  2  0
 29  5  1  0
 37 31  1  0
 28  7  1  0
 25 20  1  0
  3 38  1  0
  3 39  1  0
  8 40  1  0
  9 41  1  0
 11 42  1  0
 14 43  1  0
 14 44  1  0
 15 45  1  0
 15 46  1  0
 21 47  1  0
 22 48  1  0
 23 49  1  0
 24 50  1  0
 27 51  1  0
 32 52  1  0
 33 53  1  0
 36 54  1  0
 37 55  1  0
M  CHG  2  16  -1  30  -1
M  END
>  <UniqueID>  (25) 
25

>  <SMILES>  (25) 
O=C(CSc1nc2ccc(NC(=O)CC[N-]S(=O)(=O)c3ccccc3F)cc2s1)[N-]c1ccc(Cl)cc1

>  <Energy>  (25) 
87.76193443557658

>  <Genealogy>  (25) 
O=C(CSc1nc2ccc(NC(=O)CC[N-]S(=O)(=O)c3ccccc3F)cc2s1)[N-]c1ccc(Cl)cc1 (protonated)
O=C(CSc1nc2ccc(NC(=O)CC[N-]S(=O)(=O)c3ccccc3F)cc2s1)[N-]c1ccc(Cl)cc1 (3D coordinates assigned)
O=C(CSc1nc2ccc(NC(=O)CC[N-]S(=O)(=O)c3ccccc3F)cc2s1)[N-]c1ccc(Cl)cc1 (optimized conformer: 87.76193443557658 kcal/mol)

>  <smiles>  (25) 
O=C(CCNS(=O)(=O)c1ccccc1F)Nc1ccc2nc(SCC(=O)Nc3ccc(Cl)cc3)sc2c1

>  <score_type>  (25) 
oracle

>  <origin>  (25) 
adg

>  <m_score__min__energy>  (25) 
-12.460000000000001

>  <m_primary>  (25) 
energy

$$$$
25:0
     RDKit          3D

 29 30  0  0  0  0  0  0  0  0999 V2000
   55.2210   27.3920   45.3460 H   0  0  0  0  0  0  0  0  0  0  0  0
   55.0700   26.7350   46.1020 O   0  0  0  0  0  0  0  0  0  0  0  0
   55.3140   25.3710   45.9470 C   0  0  0  0  0  0  0  0  0  0  0  0
   54.2400   24.4960   45.7250 C   0  0  0  0  0  0  0  0  0  0  0  0
   53.2108   24.8842   45.7210 H   0  0  0  0  0  0  0  0  0  0  0  0
   54.4690   23.1350   45.5090 C   0  0  0  0  0  0  0  0  0  0  0  0
   53.3990   22.2760   45.2870 O   0  0  0  0  0  0  0  0  0  0  0  0
   55.7740   22.6390   45.5090 C   0  0  0  0  0  0  0  0  0  0  0  0
   55.9544   21.5686   45.3306 H   0  0  0  0  0  0  0  0  0  0  0  0
   56.8510   23.4990   45.7350 C   0  0  0  0  0  0  0  0  0  0  0  0
   57.8772   23.1031   45.7204 H   0  0  0  0  0  0  0  0  0  0  0  0
   56.6350   24.8660   45.9810 C   0  0  0  0  0  0  0  0  0  0  0  0
   57.8130   25.7310   46.2140 C   0  0  0  0  0  0  0  0  0  0  0  0
   58.4998   25.4754   47.0343 H   0  0  0  0  0  0  0  0  0  0  0  0
   58.0790   26.8130   45.4680 C   0  0  0  0  0  0  0  0  0  0  0  0
   58.5847   26.6750   44.5009 H   0  0  0  0  0  0  0  0  0  0  0  0
   57.7210   28.1840   45.8910 C   0  0  0  0  0  0  0  0  0  0  0  0
   57.5480   28.4050   47.1190 O   0  0  0  0  0  0  0  0  0  0  0  0
   57.5550   29.3010   44.9320 C   0  0  0  0  0  0  0  0  0  0  0  0
   58.6780   30.0460   44.5160 C   0  0  0  0  0  0  0  0  0  0  0  0
   59.9500   29.7290   44.9810 O   0  0  0  0  0  0  0  0  0  0  0  0
   58.5240   31.1070   43.6190 C   0  0  0  0  0  0  0  0  0  0  0  0
   59.4033   31.6842   43.2970 H   0  0  0  0  0  0  0  0  0  0  0  0
   57.2580   31.4370   43.1300 C   0  0  0  0  0  0  0  0  0  0  0  0
   57.1429   32.2667   42.4170 H   0  0  0  0  0  0  0  0  0  0  0  0
   56.1390   30.7140   43.5460 C   0  0  0  0  0  0  0  0  0  0  0  0
   55.1426   30.9782   43.1622 H   0  0  0  0  0  0  0  0  0  0  0  0
   56.2790   29.6560   44.4480 C   0  0  0  0  0  0  0  0  0  0  0  0
   55.1410   28.9750   44.8740 O   0  0  0  0  0  0  0  0  0  0  0  0
  1  2  1  0
  2  3  1  0
  3  4  2  0
  4  5  1  0
  4  6  1  0
  6  7  1  0
  6  8  2  0
  8  9  1  0
  8 10  1  0
 10 11  1  0
 10 12  2  0
 12 13  1  0
 13 14  1  0
 13 15  2  0
 15 16  1  0
 15 17  1  0
 17 18  2  0
 17 19  1  0
 19 20  2  0
 20 21  1  0
 20 22  1  0
 22 23  1  0
 22 24  2  0
 24 25  1  0
 24 26  1  0
 26 27  1  0
 26 28  2  0
 28 29  1  0
 12  3  1  0
 28 19  1  0
M  CHG  3   7  -1  21  -1  29  -1
M  END
>  <UniqueID>  (26) 
26

>  <SMILES>  (26) 
O=C(/C=C/c1ccc([O-])cc1O)c1c([O-])cccc1[O-]

>  <Energy>  (26) 
41.10118197539835

>  <Genealogy>  (26) 
O=C(C=Cc1ccc([O-])cc1O)c1c([O-])cccc1[O-] (protonated)
O=C(/C=C/c1ccc([O-])cc1O)c1c([O-])cccc1[O-] (cis-trans isomerization)
O=C(/C=C/c1ccc([O-])cc1O)c1c([O-])cccc1[O-] (3D coordinates assigned)
O=C(/C=C/c1ccc([O-])cc1O)c1c([O-])cccc1[O-] (optimized conformer: 41.10118197539835 kcal/mol)

>  <smiles>  (26) 
O=C(C=Cc1ccc(O)cc1O)c1c(O)cccc1O

>  <score_type>  (26) 
oracle

>  <origin>  (26) 
adg

>  <m_score__min__energy>  (26) 
-13.23

>  <m_primary>  (26) 
energy

$$$$
26:0
     RDKit          3D

 43 45  0  0  0  0  0  0  0  0999 V2000
   61.0000   34.5490   48.4540 O   0  0  0  0  0  0  0  0  0  0  0  0
   61.1820   33.6590   47.5790 C   0  0  0  0  0  0  0  0  0  0  0  0
   62.5090   33.1650   47.3340 N   0  0  0  0  0  0  0  0  0  0  0  0
   63.6870   33.7350   47.9830 C   0  0  0  0  0  0  0  0  0  0  0  0
   64.1170   32.8710   49.1360 C   0  0  0  0  0  0  0  0  0  0  0  0
   63.2650   31.8750   49.6420 C   0  0  0  0  0  0  0  0  0  0  0  0
   63.6800   31.0660   50.7040 C   0  0  0  0  0  0  0  0  0  0  0  0
   64.9490   31.2420   51.2630 C   0  0  0  0  0  0  0  0  0  0  0  0
   65.8060   32.2250   50.7600 C   0  0  0  0  0  0  0  0  0  0  0  0
   65.3930   33.0380   49.7000 C   0  0  0  0  0  0  0  0  0  0  0  0
   60.0170   33.1260   46.8330 C   0  0  0  0  0  0  0  0  0  0  0  0
   59.5710   33.7370   45.6470 C   0  0  0  0  0  0  0  0  0  0  0  0
   58.4700   33.2250   44.9550 C   0  0  0  0  0  0  0  0  0  0  0  0
   57.7850   32.0990   45.4440 C   0  0  0  0  0  0  0  0  0  0  0  0
   56.6480   31.5440   44.7680 N   0  0  0  0  0  0  0  0  0  0  0  0
   56.4670   29.8750   44.3290 S   0  0  0  0  0  0  0  0  0  0  0  0
   56.4530   29.7570   42.8320 O   0  0  0  0  0  0  0  0  0  0  0  0
   55.1620   29.3630   44.8720 O   0  0  0  0  0  0  0  0  0  0  0  0
   57.8210   28.9430   44.9610 C   0  0  0  0  0  0  0  0  0  0  0  0
   59.1190   29.2030   44.5010 C   0  0  0  0  0  0  0  0  0  0  0  0
   60.2040   28.4850   45.0150 C   0  0  0  0  0  0  0  0  0  0  0  0
   59.9950   27.5050   45.9910 C   0  0  0  0  0  0  0  0  0  0  0  0
   58.7020   27.2390   46.4490 C   0  0  0  0  0  0  0  0  0  0  0  0
   57.6140   27.9540   45.9350 C   0  0  0  0  0  0  0  0  0  0  0  0
   58.2210   31.4960   46.6280 C   0  0  0  0  0  0  0  0  0  0  0  0
   59.3230   32.0050   47.3210 C   0  0  0  0  0  0  0  0  0  0  0  0
   62.6470   32.3190   46.7370 H   0  0  0  0  0  0  0  0  0  0  0  0
   64.5073   33.8007   47.2531 H   0  0  0  0  0  0  0  0  0  0  0  0
   63.4375   34.7375   48.3607 H   0  0  0  0  0  0  0  0  0  0  0  0
   62.2676   31.7312   49.2009 H   0  0  0  0  0  0  0  0  0  0  0  0
   63.0076   30.2906   51.0998 H   0  0  0  0  0  0  0  0  0  0  0  0
   65.2736   30.6061   52.0998 H   0  0  0  0  0  0  0  0  0  0  0  0
   66.8060   32.3591   51.1983 H   0  0  0  0  0  0  0  0  0  0  0  0
   66.0694   33.8110   49.3063 H   0  0  0  0  0  0  0  0  0  0  0  0
   60.0931   34.6250   45.2611 H   0  0  0  0  0  0  0  0  0  0  0  0
   58.1377   33.7055   44.0230 H   0  0  0  0  0  0  0  0  0  0  0  0
   59.2851   29.9736   43.7338 H   0  0  0  0  0  0  0  0  0  0  0  0
   61.2216   28.6911   44.6516 H   0  0  0  0  0  0  0  0  0  0  0  0
   60.8488   26.9436   46.3981 H   0  0  0  0  0  0  0  0  0  0  0  0
   58.5389   26.4664   47.2148 H   0  0  0  0  0  0  0  0  0  0  0  0
   56.5965   27.7407   46.2945 H   0  0  0  0  0  0  0  0  0  0  0  0
   57.6922   30.6135   47.0173 H   0  0  0  0  0  0  0  0  0  0  0  0
   59.6497   31.5249   48.2552 H   0  0  0  0  0  0  0  0  0  0  0  0
  1  2  2  0
  2  3  1  0
  3  4  1  0
  4  5  1  0
  5  6  2  0
  6  7  1  0
  7  8  2  0
  8  9  1  0
  9 10  2  0
  2 11  1  0
 11 12  2  0
 12 13  1  0
 13 14  2  0
 14 15  1  0
 15 16  1  0
 16 17  2  0
 16 18  2  0
 16 19  1  0
 19 20  2  0
 20 21  1  0
 21 22  2  0
 22 23  1  0
 23 24  2  0
 14 25  1  0
 25 26  2  0
 10  5  1  0
 26 11  1  0
 24 19  1  0
  3 27  1  0
  4 28  1  0
  4 29  1  0
  6 30  1  0
  7 31  1  0
  8 32  1  0
  9 33  1  0
 10 34  1  0
 12 35  1  0
 13 36  1  0
 20 37  1  0
 21 38  1  0
 22 39  1  0
 23 40  1  0
 24 41  1  0
 25 42  1  0
 26 43  1  0
M  CHG  1  15  -1
M  END
>  <UniqueID>  (27) 
27

>  <SMILES>  (27) 
O=C(NCc1ccccc1)c1ccc([N-]S(=O)(=O)c2ccccc2)cc1

>  <Energy>  (27) 
48.97431480623282

>  <Genealogy>  (27) 
O=C(NCc1ccccc1)c1ccc([N-]S(=O)(=O)c2ccccc2)cc1 (protonated)
O=C(NCc1ccccc1)c1ccc([N-]S(=O)(=O)c2ccccc2)cc1 (3D coordinates assigned)
O=C(NCc1ccccc1)c1ccc([N-]S(=O)(=O)c2ccccc2)cc1 (optimized conformer: 48.97431480623282 kcal/mol)

>  <smiles>  (27) 
O=C(NCc1ccccc1)c1ccc(NS(=O)(=O)c2ccccc2)cc1

>  <score_type>  (27) 
oracle

>  <origin>  (27) 
adg

>  <m_score__min__energy>  (27) 
-10

>  <m_primary>  (27) 
energy

$$$$
27:0
     RDKit          3D

 52 54  0  0  0  0  0  0  0  0999 V2000
   52.0370   23.9350   45.2170 C   0  0  0  0  0  0  0  0  0  0  0  0
   53.1360   24.8420   45.2010 O   0  0  0  0  0  0  0  0  0  0  0  0
   54.4840   24.4610   45.3100 C   0  0  0  0  0  0  0  0  0  0  0  0
   54.9200   23.1560   45.0080 C   0  0  0  0  0  0  0  0  0  0  0  0
   56.2690   22.8190   45.1350 C   0  0  0  0  0  0  0  0  0  0  0  0
   57.1960   23.7750   45.5510 C   0  0  0  0  0  0  0  0  0  0  0  0
   56.7870   25.0850   45.8460 C   0  0  0  0  0  0  0  0  0  0  0  0
   57.7940   26.0950   46.2540 C   0  0  0  0  0  0  0  0  0  0  0  0
   58.8800   25.7380   47.0670 C   0  0  0  0  0  0  0  0  0  0  0  0
   59.8180   26.6600   47.4020 N   0  0  0  0  0  0  0  0  0  0  0  0
   59.7470   27.9470   46.9700 C   0  0  0  0  0  0  0  0  0  0  0  0
   58.6780   28.3640   46.1640 C   0  0  0  0  0  0  0  0  0  0  0  0
   58.6000   29.7590   45.6800 C   0  0  0  0  0  0  0  0  0  0  0  0
   59.6110   30.2890   45.1440 O   0  0  0  0  0  0  0  0  0  0  0  0
   57.3890   30.5180   45.8260 N   0  0  0  0  0  0  0  0  0  0  0  0
   57.1020   31.6930   44.9970 C   0  0  2  0  0  0  0  0  0  0  0  0
   57.2940   31.3750   43.5000 C   0  0  0  0  0  0  0  0  0  0  0  0
   56.6700   30.0370   43.0590 C   0  0  0  0  0  0  0  0  0  0  0  0
   55.3140   29.7410   43.7130 C   0  0  0  0  0  0  0  0  0  0  0  0
   55.5010   29.1300   44.9610 O   0  0  0  0  0  0  0  0  0  0  0  0
   58.0030   32.8410   45.4070 C   0  0  0  0  0  0  0  0  0  0  0  0
   58.4330   32.9590   46.7400 C   0  0  0  0  0  0  0  0  0  0  0  0
   59.2590   34.0200   47.1270 C   0  0  0  0  0  0  0  0  0  0  0  0
   59.6650   34.9700   46.1860 C   0  0  0  0  0  0  0  0  0  0  0  0
   59.2310   34.8720   44.8620 C   0  0  0  0  0  0  0  0  0  0  0  0
   58.3980   33.8180   44.4740 C   0  0  0  0  0  0  0  0  0  0  0  0
   57.7070   27.4190   45.7980 C   0  0  0  0  0  0  0  0  0  0  0  0
   55.4180   25.4180   45.7350 C   0  0  0  0  0  0  0  0  0  0  0  0
   54.9760   26.6960   46.0640 O   0  0  0  0  0  0  0  0  0  0  0  0
   51.7632   23.7090   46.2581 H   0  0  0  0  0  0  0  0  0  0  0  0
   51.1780   24.3906   44.7026 H   0  0  0  0  0  0  0  0  0  0  0  0
   52.3214   23.0052   44.7026 H   0  0  0  0  0  0  0  0  0  0  0  0
   54.1954   22.4001   44.6711 H   0  0  0  0  0  0  0  0  0  0  0  0
   56.6021   21.7959   44.9062 H   0  0  0  0  0  0  0  0  0  0  0  0
   58.2565   23.4998   45.6487 H   0  0  0  0  0  0  0  0  0  0  0  0
   58.9719   24.7054   47.4349 H   0  0  0  0  0  0  0  0  0  0  0  0
   60.5313   28.6642   47.2539 H   0  0  0  0  0  0  0  0  0  0  0  0
   56.6390   30.1540   46.4580 H   0  0  0  0  0  0  0  0  0  0  0  0
   56.0515   31.9803   45.1518 H   0  0  0  0  0  0  0  0  0  0  0  0
   56.8321   32.1824   42.9128 H   0  0  0  0  0  0  0  0  0  0  0  0
   58.3774   31.2931   43.3282 H   0  0  0  0  0  0  0  0  0  0  0  0
   56.5309   30.0620   41.9681 H   0  0  0  0  0  0  0  0  0  0  0  0
   57.3598   29.2414   43.3772 H   0  0  0  0  0  0  0  0  0  0  0  0
   54.7628   30.6832   43.8488 H   0  0  0  0  0  0  0  0  0  0  0  0
   54.7429   29.0618   43.0630 H   0  0  0  0  0  0  0  0  0  0  0  0
   55.1350   28.2110   44.8770 H   0  0  0  0  0  0  0  0  0  0  0  0
   58.1181   32.2123   47.4838 H   0  0  0  0  0  0  0  0  0  0  0  0
   59.5890   34.1064   48.1728 H   0  0  0  0  0  0  0  0  0  0  0  0
   60.3266   35.7953   46.4881 H   0  0  0  0  0  0  0  0  0  0  0  0
   59.5448   35.6247   44.1238 H   0  0  0  0  0  0  0  0  0  0  0  0
   58.0492   33.7520   43.4329 H   0  0  0  0  0  0  0  0  0  0  0  0
   56.8713   27.7187   45.1486 H   0  0  0  0  0  0  0  0  0  0  0  0
  1  2  1  0
  2  3  1  0
  3  4  2  0
  4  5  1  0
  5  6  2  0
  6  7  1  0
  7  8  1  0
  8  9  2  0
  9 10  1  0
 10 11  2  0
 11 12  1  0
 12 13  1  0
 13 14  2  0
 13 15  1  0
 15 16  1  0
 16 17  1  0
 17 18  1  0
 18 19  1  0
 19 20  1  0
 16 21  1  0
 21 22  2  0
 22 23  1  0
 23 24  2  0
 24 25  1  0
 25 26  2  0
 12 27  2  0
  7 28  2  0
 28 29  1  0
 28  3  1  0
 27  8  1  0
 26 21  1  0
  1 30  1  0
  1 31  1  0
  1 32  1  0
  4 33  1  0
  5 34  1  0
  6 35  1  0
  9 36  1  0
 11 37  1  0
 15 38  1  0
 16 39  1  6
 17 40  1  0
 17 41  1  0
 18 42  1  0
 18 43  1  0
 19 44  1  0
 19 45  1  0
 20 46  1  0
 22 47  1  0
 23 48  1  0
 24 49  1  0
 25 50  1  0
 26 51  1  0
 27 52  1  0
M  CHG  1  29  -1
M  END
>  <UniqueID>  (28) 
28

>  <SMILES>  (28) 
COc1cccc(-c2cncc(C(=O)N[C@H](CCCO)c3ccccc3)c2)c1[O-]

>  <Energy>  (28) 
58.315013390826664

>  <Genealogy>  (28) 
COc1cccc(-c2cncc(C(=O)NC(CCCO)c3ccccc3)c2)c1[O-] (protonated)
COc1cccc(-c2cncc(C(=O)N[C@H](CCCO)c3ccccc3)c2)c1[O-] (chirality)
COc1cccc(-c2cncc(C(=O)N[C@H](CCCO)c3ccccc3)c2)c1[O-] (3D coordinates assigned)
COc1cccc(-c2cncc(C(=O)N[C@H](CCCO)c3ccccc3)c2)c1[O-] (optimized conformer: 58.315013390826664 kcal/mol)

>  <smiles>  (28) 
COc1cccc(-c2cncc(C(=O)NC(CCCO)c3ccccc3)c2)c1O

>  <score_type>  (28) 
oracle

>  <origin>  (28) 
adg

>  <m_score__min__energy>  (28) 
-13.58

>  <m_primary>  (28) 
energy

$$$$
28:0
     RDKit          3D

 49 52  0  0  0  0  0  0  0  0999 V2000
   62.8580   32.1190   50.8820 O   0  0  0  0  0  0  0  0  0  0  0  0
   61.9320   31.9300   50.0490 C   0  0  0  0  0  0  0  0  0  0  0  0
   60.6670   32.7400   50.1700 C   0  0  0  0  0  0  0  0  0  0  0  0
   60.2700   33.2630   48.8510 N   0  0  0  0  0  0  0  0  0  0  0  0
   61.2400   33.8160   48.0430 C   0  0  0  0  0  0  0  0  0  0  0  0
   60.9340   34.2900   46.8010 N   0  0  0  0  0  0  0  0  0  0  0  0
   59.6560   34.2030   46.3640 C   0  0  0  0  0  0  0  0  0  0  0  0
   59.0500   34.7030   44.8820 S   0  0  0  0  0  0  0  0  0  0  0  0
   57.4610   34.2120   45.2150 C   0  0  0  0  0  0  0  0  0  0  0  0
   57.4070   33.6540   46.4940 C   0  0  0  0  0  0  0  0  0  0  0  0
   58.6540   33.6560   47.1320 C   0  0  0  0  0  0  0  0  0  0  0  0
   58.9670   33.1790   48.4060 C   0  0  0  0  0  0  0  0  0  0  0  0
   58.0590   32.6860   49.1340 O   0  0  0  0  0  0  0  0  0  0  0  0
   62.1710   31.0580   48.9370 N   0  0  0  0  0  0  0  0  0  0  0  0
   61.1620   30.4020   48.1620 C   0  0  0  0  0  0  0  0  0  0  0  0
   60.1180   29.7400   48.8180 C   0  0  0  0  0  0  0  0  0  0  0  0
   59.1270   29.0820   48.0810 C   0  0  0  0  0  0  0  0  0  0  0  0
   59.1600   29.1000   46.6800 C   0  0  0  0  0  0  0  0  0  0  0  0
   57.9240   28.2580   45.7510 S   0  0  0  0  0  0  0  0  0  0  0  0
   57.0810   27.4470   46.6970 O   0  0  0  0  0  0  0  0  0  0  0  0
   58.5790   27.3370   44.7560 O   0  0  0  0  0  0  0  0  0  0  0  0
   56.9210   29.4110   44.9030 N   0  0  0  0  0  0  0  0  0  0  0  0
   57.3910   30.8020   45.1280 C   0  0  0  0  0  0  0  0  0  0  0  0
   58.1390   31.3910   43.9220 C   0  0  0  0  0  0  0  0  0  0  0  0
   57.2630   31.3710   42.6580 C   0  0  0  0  0  0  0  0  0  0  0  0
   56.2850   30.1840   42.6290 C   0  0  0  0  0  0  0  0  0  0  0  0
   56.8050   29.0220   43.4810 C   0  0  0  0  0  0  0  0  0  0  0  0
   60.1760   29.8070   46.0230 C   0  0  0  0  0  0  0  0  0  0  0  0
   61.1690   30.4590   46.7590 C   0  0  0  0  0  0  0  0  0  0  0  0
   59.8630   32.1015   50.5648 H   0  0  0  0  0  0  0  0  0  0  0  0
   60.8451   33.5843   50.8523 H   0  0  0  0  0  0  0  0  0  0  0  0
   62.2769   33.8761   48.4052 H   0  0  0  0  0  0  0  0  0  0  0  0
   61.6770   34.7070   46.1960 H   0  0  0  0  0  0  0  0  0  0  0  0
   56.6064   34.3168   44.5304 H   0  0  0  0  0  0  0  0  0  0  0  0
   56.4878   33.2572   46.9496 H   0  0  0  0  0  0  0  0  0  0  0  0
   60.0762   29.7369   49.9172 H   0  0  0  0  0  0  0  0  0  0  0  0
   58.3191   28.5486   48.6032 H   0  0  0  0  0  0  0  0  0  0  0  0
   56.5177   31.4359   45.3412 H   0  0  0  0  0  0  0  0  0  0  0  0
   58.0982   30.7758   45.9701 H   0  0  0  0  0  0  0  0  0  0  0  0
   58.4198   32.4305   44.1471 H   0  0  0  0  0  0  0  0  0  0  0  0
   59.0333   30.7785   43.7348 H   0  0  0  0  0  0  0  0  0  0  0  0
   56.6833   32.3050   42.6174 H   0  0  0  0  0  0  0  0  0  0  0  0
   57.9336   31.2688   41.7920 H   0  0  0  0  0  0  0  0  0  0  0  0
   55.3112   30.5108   43.0226 H   0  0  0  0  0  0  0  0  0  0  0  0
   56.1847   29.8384   41.5895 H   0  0  0  0  0  0  0  0  0  0  0  0
   56.1080   28.1752   43.3965 H   0  0  0  0  0  0  0  0  0  0  0  0
   57.8033   28.7410   43.1144 H   0  0  0  0  0  0  0  0  0  0  0  0
   60.1919   29.8489   44.9239 H   0  0  0  0  0  0  0  0  0  0  0  0
   61.9591   31.0190   46.2373 H   0  0  0  0  0  0  0  0  0  0  0  0
  1  2  2  0
  2  3  1  0
  3  4  1  0
  4  5  1  0
  5  6  2  0
  6  7  1  0
  7  8  1  0
  8  9  1  0
  9 10  2  0
 10 11  1  0
 11 12  1  0
 12 13  2  0
  2 14  1  0
 14 15  1  0
 15 16  2  0
 16 17  1  0
 17 18  2  0
 18 19  1  0
 19 20  2  0
 19 21  2  0
 19 22  1  0
 22 23  1  0
 23 24  1  0
 24 25  1  0
 25 26  1  0
 26 27  1  0
 18 28  1  0
 28 29  2  0
 12  4  1  0
 29 15  1  0
 11  7  2  0
 27 22  1  0
  3 30  1  0
  3 31  1  0
  5 32  1  0
  6 33  1  0
  9 34  1  0
 10 35  1  0
 16 36  1  0
 17 37  1  0
 23 38  1  0
 23 39  1  0
 24 40  1  0
 24 41  1  0
 25 42  1  0
 25 43  1  0
 26 44  1  0
 26 45  1  0
 27 46  1  0
 27 47  1  0
 28 48  1  0
 29 49  1  0
M  CHG  2   6   1  14  -1
M  END
>  <UniqueID>  (29) 
29

>  <SMILES>  (29) 
O=C(Cn1c[nH+]c2sccc2c1=O)[N-]c1ccc(S(=O)(=O)N2CCCCC2)cc1

>  <Energy>  (29) 
95.54060971757713

>  <Genealogy>  (29) 
O=C(Cn1c[nH+]c2sccc2c1=O)[N-]c1ccc(S(=O)(=O)N2CCCCC2)cc1 (protonated)
O=C(Cn1c[nH+]c2sccc2c1=O)[N-]c1ccc(S(=O)(=O)N2CCCCC2)cc1 (3D coordinates assigned)
O=C(Cn1c[nH+]c2sccc2c1=O)[N-]c1ccc(S(=O)(=O)N2CCCCC2)cc1 (nonaromatic ring conformer: 95.54060971757713 kcal/mol)

>  <smiles>  (29) 
O=C(Cn1cnc2sccc2c1=O)Nc1ccc(S(=O)(=O)N2CCCCC2)cc1

>  <score_type>  (29) 
oracle

>  <origin>  (29) 
adg

>  <m_score__min__energy>  (29) 
-9.25

>  <m_primary>  (29) 
energy

$$$$
29:0
     RDKit          3D

 34 35  0  0  0  0  0  0  0  0999 V2000
   60.1750   27.4670   46.3590 C   0  0  0  0  0  0  0  0  0  0  0  0
   58.7150   27.1480   46.2160 C   0  0  0  0  0  0  0  0  0  0  0  0
   58.2070   25.9190   46.6580 C   0  0  0  0  0  0  0  0  0  0  0  0
   56.8390   25.6520   46.5700 C   0  0  0  0  0  0  0  0  0  0  0  0
   55.9670   26.6090   46.0410 C   0  0  0  0  0  0  0  0  0  0  0  0
   54.6070   26.3300   45.9680 O   0  0  0  0  0  0  0  0  0  0  0  0
   56.4600   27.8410   45.5870 C   0  0  0  0  0  0  0  0  0  0  0  0
   55.5360   28.8190   45.0860 N   0  0  0  0  0  0  0  0  0  0  0  0
   55.8590   29.9730   44.3040 C   0  0  0  0  0  0  0  0  0  0  0  0
   55.5200   30.0060   43.0900 O   0  0  0  0  0  0  0  0  0  0  0  0
   56.6120   31.0520   44.8680 N   0  0  0  0  0  0  0  0  0  0  0  0
   57.5220   31.9030   44.1060 C   0  0  0  0  0  0  0  0  0  0  0  0
   57.3910   33.3740   44.5200 C   0  0  0  0  0  0  0  0  0  0  0  0
   58.2600   33.6940   45.7050 C   0  0  0  0  0  0  0  0  0  0  0  0
   59.2400   34.6970   45.6280 C   0  0  0  0  0  0  0  0  0  0  0  0
   60.0050   34.9950   46.7580 C   0  0  0  0  0  0  0  0  0  0  0  0
   59.7900   34.2960   47.9460 C   0  0  0  0  0  0  0  0  0  0  0  0
   58.8090   33.3030   47.9870 C   0  0  0  0  0  0  0  0  0  0  0  0
   58.0720   33.0280   46.8780 N   0  0  0  0  0  0  0  0  0  0  0  0
   57.8360   28.1130   45.7010 C   0  0  0  0  0  0  0  0  0  0  0  0
   60.4351   27.5238   47.4263 H   0  0  0  0  0  0  0  0  0  0  0  0
   60.7716   26.6780   45.8777 H   0  0  0  0  0  0  0  0  0  0  0  0
   60.3881   28.4329   45.8777 H   0  0  0  0  0  0  0  0  0  0  0  0
   58.8877   25.1624   47.0755 H   0  0  0  0  0  0  0  0  0  0  0  0
   56.4459   24.6854   46.9180 H   0  0  0  0  0  0  0  0  0  0  0  0
   58.5556   31.5717   44.2844 H   0  0  0  0  0  0  0  0  0  0  0  0
   57.2637   31.8190   43.0401 H   0  0  0  0  0  0  0  0  0  0  0  0
   57.6908   34.0110   43.6748 H   0  0  0  0  0  0  0  0  0  0  0  0
   56.3439   33.5611   44.8001 H   0  0  0  0  0  0  0  0  0  0  0  0
   59.4035   35.2426   44.6869 H   0  0  0  0  0  0  0  0  0  0  0  0
   60.7752   35.7790   46.7113 H   0  0  0  0  0  0  0  0  0  0  0  0
   60.3870   34.5247   48.8411 H   0  0  0  0  0  0  0  0  0  0  0  0
   58.6324   32.7429   48.9171 H   0  0  0  0  0  0  0  0  0  0  0  0
   58.2262   29.0912   45.3834 H   0  0  0  0  0  0  0  0  0  0  0  0
  1  2  1  0
  2  3  2  0
  3  4  1  0
  4  5  2  0
  5  6  1  0
  5  7  1  0
  7  8  1  0
  8  9  1  0
  9 10  2  0
  9 11  1  0
 11 12  1  0
 12 13  1  0
 13 14  1  0
 14 15  2  0
 15 16  1  0
 16 17  2  0
 17 18  1  0
 18 19  2  0
  7 20  2  0
 20  2  1  0
 19 14  1  0
  1 21  1  0
  1 22  1  0
  1 23  1  0
  3 24  1  0
  4 25  1  0
 12 26  1  0
 12 27  1  0
 13 28  1  0
 13 29  1  0
 15 30  1  0
 16 31  1  0
 17 32  1  0
 18 33  1  0
 20 34  1  0
M  CHG  3   6  -1   8  -1  11  -1
M  END
>  <UniqueID>  (30) 
30

>  <SMILES>  (30) 
Cc1ccc([O-])c([N-]C(=O)[N-]CCc2ccccn2)c1

>  <Energy>  (30) 
31.115572756559885

>  <Genealogy>  (30) 
Cc1ccc([O-])c([N-]C(=O)[N-]CCc2ccccn2)c1 (protonated)
Cc1ccc([O-])c([N-]C(=O)[N-]CCc2ccccn2)c1 (3D coordinates assigned)
Cc1ccc([O-])c([N-]C(=O)[N-]CCc2ccccn2)c1 (optimized conformer: 31.115572756559885 kcal/mol)

>  <smiles>  (30) 
Cc1ccc(O)c(NC(=O)NCCc2ccccn2)c1

>  <score_type>  (30) 
oracle

>  <origin>  (30) 
adg

>  <m_score__min__energy>  (30) 
-15.279999999999999

>  <m_primary>  (30) 
energy

$$$$
30:0
     RDKit          3D

 36 38  0  0  0  0  0  0  0  0999 V2000
   58.2640   20.9630   46.3590 N   0  0  0  0  0  0  0  0  0  0  0  0
   58.5400   22.1770   45.1610 S   0  0  0  0  0  0  0  0  0  0  0  0
   59.9570   22.6670   45.2630 O   0  0  0  0  0  0  0  0  0  0  0  0
   58.3300   21.5910   43.7920 O   0  0  0  0  0  0  0  0  0  0  0  0
   57.4270   23.5180   45.4140 C   0  0  0  0  0  0  0  0  0  0  0  0
   56.1390   23.4790   44.8670 C   0  0  0  0  0  0  0  0  0  0  0  0
   55.2590   24.5440   45.0710 C   0  0  0  0  0  0  0  0  0  0  0  0
   55.6600   25.6570   45.8170 C   0  0  0  0  0  0  0  0  0  0  0  0
   54.7770   26.7150   45.9990 O   0  0  0  0  0  0  0  0  0  0  0  0
   56.9470   25.7080   46.3730 C   0  0  0  0  0  0  0  0  0  0  0  0
   57.3340   26.8700   47.1200 N   0  0  0  0  0  0  0  0  0  0  0  0
   58.7920   27.7770   46.8740 S   0  0  0  0  0  0  0  0  0  0  0  0
   59.4510   28.0210   48.2010 O   0  0  0  0  0  0  0  0  0  0  0  0
   59.7220   26.9810   46.0010 O   0  0  0  0  0  0  0  0  0  0  0  0
   58.4190   29.3300   46.1290 C   0  0  0  0  0  0  0  0  0  0  0  0
   57.6820   29.3840   44.9390 C   0  0  0  0  0  0  0  0  0  0  0  0
   57.3530   30.6160   44.3670 C   0  0  0  0  0  0  0  0  0  0  0  0
   57.7590   31.8100   44.9830 C   0  0  0  0  0  0  0  0  0  0  0  0
   57.4270   33.0520   44.4220 C   0  0  0  0  0  0  0  0  0  0  0  0
   57.8410   34.2340   45.0430 C   0  0  0  0  0  0  0  0  0  0  0  0
   58.5890   34.1850   46.2240 C   0  0  0  0  0  0  0  0  0  0  0  0
   58.9240   32.9530   46.7940 C   0  0  0  0  0  0  0  0  0  0  0  0
   58.5120   31.7590   46.1800 C   0  0  0  0  0  0  0  0  0  0  0  0
   58.8400   30.5170   46.7440 C   0  0  0  0  0  0  0  0  0  0  0  0
   57.8240   24.6220   46.1800 C   0  0  0  0  0  0  0  0  0  0  0  0
   57.6750   21.3980   47.1040 H   0  0  0  0  0  0  0  0  0  0  0  0
   55.8196   22.6082   44.2756 H   0  0  0  0  0  0  0  0  0  0  0  0
   54.2463   24.5074   44.6432 H   0  0  0  0  0  0  0  0  0  0  0  0
   57.3604   28.4516   44.4520 H   0  0  0  0  0  0  0  0  0  0  0  0
   56.7746   30.6500   43.4320 H   0  0  0  0  0  0  0  0  0  0  0  0
   56.8403   33.0959   43.4925 H   0  0  0  0  0  0  0  0  0  0  0  0
   57.5776   35.2063   44.6013 H   0  0  0  0  0  0  0  0  0  0  0  0
   58.9147   35.1187   46.7058 H   0  0  0  0  0  0  0  0  0  0  0  0
   59.5106   32.9189   47.7239 H   0  0  0  0  0  0  0  0  0  0  0  0
   59.4294   30.4746   47.6718 H   0  0  0  0  0  0  0  0  0  0  0  0
   58.8261   24.6411   46.6333 H   0  0  0  0  0  0  0  0  0  0  0  0
  1  2  1  0
  2  3  2  0
  2  4  2  0
  2  5  1  0
  5  6  2  0
  6  7  1  0
  7  8  2  0
  8  9  1  0
  8 10  1  0
 10 11  1  0
 11 12  1  0
 12 13  2  0
 12 14  2  0
 12 15  1  0
 15 16  2  0
 16 17  1  0
 17 18  2  0
 18 19  1  0
 19 20  2  0
 20 21  1  0
 21 22  2  0
 22 23  1  0
 23 24  2  0
 10 25  2  0
 25  5  1  0
 24 15  1  0
 23 18  1  0
  1 26  1  0
  6 27  1  0
  7 28  1  0
 16 29  1  0
 17 30  1  0
 19 31  1  0
 20 32  1  0
 21 33  1  0
 22 34  1  0
 24 35  1  0
 25 36  1  0
M  CHG  3   1  -1   9  -1  11  -1
M  END
>  <UniqueID>  (31) 
31

>  <SMILES>  (31) 
[NH-]S(=O)(=O)c1ccc([O-])c([N-]S(=O)(=O)c2ccc3ccccc3c2)c1

>  <Energy>  (31) 
44.126849088820684

>  <Genealogy>  (31) 
[NH-]S(=O)(=O)c1ccc([O-])c([N-]S(=O)(=O)c2ccc3ccccc3c2)c1 (protonated)
[NH-]S(=O)(=O)c1ccc([O-])c([N-]S(=O)(=O)c2ccc3ccccc3c2)c1 (3D coordinates assigned)
[NH-]S(=O)(=O)c1ccc([O-])c([N-]S(=O)(=O)c2ccc3ccccc3c2)c1 (optimized conformer: 44.126849088820684 kcal/mol)

>  <smiles>  (31) 
NS(=O)(=O)c1ccc(O)c(NS(=O)(=O)c2ccc3ccccc3c2)c1

>  <score_type>  (31) 
oracle

>  <origin>  (31) 
adg

>  <m_score__min__energy>  (31) 
-15.92

>  <m_primary>  (31) 
energy

$$$$
31:0
     RDKit          3D

 45 47  0  0  0  0  0  0  0  0999 V2000
   54.7410   26.3180   45.9970 O   0  0  0  0  0  0  0  0  0  0  0  0
   55.8870   25.9390   46.3580 C   0  0  0  0  0  0  0  0  0  0  0  0
   56.9320   26.9540   46.6980 C   0  0  0  0  0  0  0  0  0  0  0  0
   57.3200   27.6910   45.4970 N   0  0  0  0  0  0  0  0  0  0  0  0
   56.6250   28.6520   44.8660 C   0  0  0  0  0  0  0  0  0  0  0  0
   55.3490   29.0720   45.2260 O   0  0  0  0  0  0  0  0  0  0  0  0
   57.3880   29.1500   43.8310 C   0  0  0  0  0  0  0  0  0  0  0  0
   57.0110   30.2620   42.9020 C   0  0  0  0  0  0  0  0  0  0  0  0
   57.2600   31.5850   43.5560 C   0  0  0  0  0  0  0  0  0  0  0  0
   58.0250   32.4180   43.0010 O   0  0  0  0  0  0  0  0  0  0  0  0
   56.6490   31.8890   44.8180 N   0  0  0  0  0  0  0  0  0  0  0  0
   56.9080   33.1350   45.5330 C   0  0  0  0  0  0  0  0  0  0  0  0
   58.3450   33.1960   45.9820 C   0  0  0  0  0  0  0  0  0  0  0  0
   59.0040   32.0240   46.3910 C   0  0  0  0  0  0  0  0  0  0  0  0
   60.3440   32.0720   46.7900 C   0  0  0  0  0  0  0  0  0  0  0  0
   61.0330   33.2880   46.7870 C   0  0  0  0  0  0  0  0  0  0  0  0
   60.3840   34.4570   46.3800 C   0  0  0  0  0  0  0  0  0  0  0  0
   59.0440   34.4120   45.9740 C   0  0  0  0  0  0  0  0  0  0  0  0
   58.5860   28.5270   43.8180 N   0  0  0  0  0  0  0  0  0  0  0  0
   58.5020   27.6520   44.8450 C   0  0  0  0  0  0  0  0  0  0  0  0
   59.4470   26.8810   45.1670 O   0  0  0  0  0  0  0  0  0  0  0  0
   56.1910   24.5470   46.5010 N   0  0  0  0  0  0  0  0  0  0  0  0
   56.5390   23.6310   45.4530 C   0  0  0  0  0  0  0  0  0  0  0  0
   57.6280   22.7710   45.6510 C   0  0  0  0  0  0  0  0  0  0  0  0
   58.0280   21.8890   44.6420 C   0  0  0  0  0  0  0  0  0  0  0  0
   57.3510   21.8710   43.4210 C   0  0  0  0  0  0  0  0  0  0  0  0
   56.2740   22.7370   43.2090 C   0  0  0  0  0  0  0  0  0  0  0  0
   55.8710   23.6200   44.2150 C   0  0  0  0  0  0  0  0  0  0  0  0
   56.5294   27.6564   47.4427 H   0  0  0  0  0  0  0  0  0  0  0  0
   57.8143   26.4413   47.1088 H   0  0  0  0  0  0  0  0  0  0  0  0
   57.6141   30.1902   41.9849 H   0  0  0  0  0  0  0  0  0  0  0  0
   55.9425   30.1780   42.6547 H   0  0  0  0  0  0  0  0  0  0  0  0
   55.9890   31.1990   45.2450 H   0  0  0  0  0  0  0  0  0  0  0  0
   56.7005   33.9850   44.8663 H   0  0  0  0  0  0  0  0  0  0  0  0
   56.2562   33.1798   46.4180 H   0  0  0  0  0  0  0  0  0  0  0  0
   58.4643   31.0655   46.3974 H   0  0  0  0  0  0  0  0  0  0  0  0
   60.8561   31.1514   47.1066 H   0  0  0  0  0  0  0  0  0  0  0  0
   62.0855   33.3250   47.1048 H   0  0  0  0  0  0  0  0  0  0  0  0
   60.9263   35.4140   46.3785 H   0  0  0  0  0  0  0  0  0  0  0  0
   58.5385   35.3330   45.6480 H   0  0  0  0  0  0  0  0  0  0  0  0
   58.1719   22.7899   46.6069 H   0  0  0  0  0  0  0  0  0  0  0  0
   58.8763   21.2092   44.8104 H   0  0  0  0  0  0  0  0  0  0  0  0
   57.6644   21.1768   42.6274 H   0  0  0  0  0  0  0  0  0  0  0  0
   55.7415   22.7234   42.2465 H   0  0  0  0  0  0  0  0  0  0  0  0
   55.0304   24.3072   44.0383 H   0  0  0  0  0  0  0  0  0  0  0  0
  1  2  2  0
  2  3  1  0
  3  4  1  0
  4  5  1  0
  5  6  1  0
  5  7  2  0
  7  8  1  0
  8  9  1  0
  9 10  2  0
  9 11  1  0
 11 12  1  0
 12 13  1  0
 13 14  2  0
 14 15  1  0
 15 16  2  0
 16 17  1  0
 17 18  2  0
  7 19  1  0
 19 20  1  0
 20 21  2  0
  2 22  1  0
 22 23  1  0
 23 24  2  0
 24 25  1  0
 25 26  2  0
 26 27  1  0
 27 28  2  0
 20  4  1  0
 28 23  1  0
 18 13  1  0
  3 29  1  0
  3 30  1  0
  8 31  1  0
  8 32  1  0
 11 33  1  0
 12 34  1  0
 12 35  1  0
 14 36  1  0
 15 37  1  0
 16 38  1  0
 17 39  1  0
 18 40  1  0
 24 41  1  0
 25 42  1  0
 26 43  1  0
 27 44  1  0
 28 45  1  0
M  CHG  3   6  -1  19  -1  22  -1
M  END
>  <UniqueID>  (32) 
32

>  <SMILES>  (32) 
O=C(Cn1c([O-])c(CC(=O)NCc2ccccc2)[n-]c1=O)[N-]c1ccccc1

>  <Energy>  (32) 
72.25993379009086

>  <Genealogy>  (32) 
O=C(Cn1c([O-])c(CC(=O)NCc2ccccc2)[n-]c1=O)[N-]c1ccccc1 (protonated)
O=C(Cn1c([O-])c(CC(=O)NCc2ccccc2)[n-]c1=O)[N-]c1ccccc1 (3D coordinates assigned)
O=C(Cn1c([O-])c(CC(=O)NCc2ccccc2)[n-]c1=O)[N-]c1ccccc1 (optimized conformer: 72.25993379009086 kcal/mol)

>  <smiles>  (32) 
O=C(Cc1[nH]c(=O)n(CC(=O)Nc2ccccc2)c1O)NCc1ccccc1

>  <score_type>  (32) 
oracle

>  <origin>  (32) 
adg

>  <m_score__min__energy>  (32) 
-14.66

>  <m_primary>  (32) 
energy

$$$$
32:0
     RDKit          3D

 51 53  0  0  0  0  0  0  0  0999 V2000
   56.3300   29.8360   42.8440 C   0  0  0  0  0  0  0  0  0  0  0  0
   56.2870   29.7120   44.3410 C   0  0  0  0  0  0  0  0  0  0  0  0
   55.2390   29.3830   44.8750 O   0  0  0  0  0  0  0  0  0  0  0  0
   57.5150   29.9330   45.2060 C   0  0  1  0  0  0  0  0  0  0  0  0
   58.8480   29.9180   44.4440 C   0  0  0  0  0  0  0  0  0  0  0  0
   57.3970   31.1230   45.9990 O   0  0  0  0  0  0  0  0  0  0  0  0
   58.1390   32.3130   45.8740 C   0  0  0  0  0  0  0  0  0  0  0  0
   57.5670   33.3650   45.1460 C   0  0  0  0  0  0  0  0  0  0  0  0
   58.2660   34.5590   44.9520 C   0  0  0  0  0  0  0  0  0  0  0  0
   59.5480   34.7150   45.4810 C   0  0  0  0  0  0  0  0  0  0  0  0
   60.1340   33.6800   46.2230 C   0  0  0  0  0  0  0  0  0  0  0  0
   61.5460   33.8050   46.7280 C   0  0  0  0  0  0  0  0  0  0  0  0
   61.6150   33.3600   48.1180 N   0  0  0  0  0  0  0  0  0  0  0  0
   60.8820   33.7850   49.1680 C   0  0  0  0  0  0  0  0  0  0  0  0
   59.9170   34.5910   49.0750 O   0  0  0  0  0  0  0  0  0  0  0  0
   61.3140   33.2500   50.3290 N   0  0  0  0  0  0  0  0  0  0  0  0
   60.7280   33.4420   51.6550 C   0  0  0  0  0  0  0  0  0  0  0  0
   62.3410   32.4590   50.0320 N   0  0  0  0  0  0  0  0  0  0  0  0
   63.1250   31.6590   50.9800 C   0  0  0  0  0  0  0  0  0  0  0  0
   64.5750   32.0770   50.9620 C   0  0  0  0  0  0  0  0  0  0  0  0
   65.6050   31.1230   51.0930 C   0  0  0  0  0  0  0  0  0  0  0  0
   65.3200   29.8040   51.2420 F   0  0  0  0  0  0  0  0  0  0  0  0
   66.9440   31.5260   51.0680 C   0  0  0  0  0  0  0  0  0  0  0  0
   67.2700   32.8750   50.9220 C   0  0  0  0  0  0  0  0  0  0  0  0
   66.2590   33.8300   50.8050 C   0  0  0  0  0  0  0  0  0  0  0  0
   64.9160   33.4380   50.8280 C   0  0  0  0  0  0  0  0  0  0  0  0
   63.9510   34.3870   50.7290 F   0  0  0  0  0  0  0  0  0  0  0  0
   62.5240   32.5450   48.6950 C   0  0  0  0  0  0  0  0  0  0  0  0
   63.4370   31.9470   48.0660 O   0  0  0  0  0  0  0  0  0  0  0  0
   59.4260   32.4830   46.4200 C   0  0  0  0  0  0  0  0  0  0  0  0
   56.6790   30.8424   42.5693 H   0  0  0  0  0  0  0  0  0  0  0  0
   57.0198   29.0839   42.4334 H   0  0  0  0  0  0  0  0  0  0  0  0
   55.3227   29.6725   42.4334 H   0  0  0  0  0  0  0  0  0  0  0  0
   57.5448   29.0582   45.8722 H   0  0  0  0  0  0  0  0  0  0  0  0
   59.6809   29.9086   45.1624 H   0  0  0  0  0  0  0  0  0  0  0  0
   58.8989   29.0192   43.8118 H   0  0  0  0  0  0  0  0  0  0  0  0
   58.9191   30.8154   43.8118 H   0  0  0  0  0  0  0  0  0  0  0  0
   56.5580   33.2496   44.7233 H   0  0  0  0  0  0  0  0  0  0  0  0
   57.8047   35.3782   44.3809 H   0  0  0  0  0  0  0  0  0  0  0  0
   60.0998   35.6521   45.3154 H   0  0  0  0  0  0  0  0  0  0  0  0
   62.2109   33.1822   46.1116 H   0  0  0  0  0  0  0  0  0  0  0  0
   61.8621   34.8568   46.6670 H   0  0  0  0  0  0  0  0  0  0  0  0
   61.4747   33.1973   52.4248 H   0  0  0  0  0  0  0  0  0  0  0  0
   60.4139   34.4900   51.7688 H   0  0  0  0  0  0  0  0  0  0  0  0
   59.8546   32.7830   51.7688 H   0  0  0  0  0  0  0  0  0  0  0  0
   62.7209   31.8018   51.9931 H   0  0  0  0  0  0  0  0  0  0  0  0
   63.0592   30.6006   50.6876 H   0  0  0  0  0  0  0  0  0  0  0  0
   67.7435   30.7765   51.1638 H   0  0  0  0  0  0  0  0  0  0  0  0
   68.3249   33.1860   50.8991 H   0  0  0  0  0  0  0  0  0  0  0  0
   66.5185   34.8932   50.6945 H   0  0  0  0  0  0  0  0  0  0  0  0
   59.8809   31.6709   47.0061 H   0  0  0  0  0  0  0  0  0  0  0  0
  1  2  1  0
  2  3  2  0
  2  4  1  0
  4  5  1  0
  4  6  1  0
  6  7  1  0
  7  8  2  0
  8  9  1  0
  9 10  2  0
 10 11  1  0
 11 12  1  0
 12 13  1  0
 13 14  1  0
 14 15  2  0
 14 16  1  0
 16 17  1  0
 16 18  1  0
 18 19  1  0
 19 20  1  0
 20 21  2  0
 21 22  1  0
 21 23  1  0
 23 24  2  0
 24 25  1  0
 25 26  2  0
 26 27  1  0
 18 28  1  0
 28 29  2  0
 11 30  2  0
 30  7  1  0
 28 13  1  0
 26 20  1  0
  1 31  1  0
  1 32  1  0
  1 33  1  0
  4 34  1  1
  5 35  1  0
  5 36  1  0
  5 37  1  0
  8 38  1  0
  9 39  1  0
 10 40  1  0
 12 41  1  0
 12 42  1  0
 17 43  1  0
 17 44  1  0
 17 45  1  0
 19 46  1  0
 19 47  1  0
 23 48  1  0
 24 49  1  0
 25 50  1  0
 30 51  1  0
M  END
>  <UniqueID>  (33) 
33

>  <SMILES>  (33) 
CC(=O)[C@@H](C)Oc1cccc(Cn2c(=O)n(C)n(Cc3c(F)cccc3F)c2=O)c1

>  <Energy>  (33) 
91.87165461401804

>  <Genealogy>  (33) 
CC(=O)[C@@H](C)Oc1cccc(Cn2c(=O)n(C)n(Cc3c(F)cccc3F)c2=O)c1 (chirality)
CC(=O)[C@@H](C)Oc1cccc(Cn2c(=O)n(C)n(Cc3c(F)cccc3F)c2=O)c1 (3D coordinates assigned)
CC(=O)[C@@H](C)Oc1cccc(Cn2c(=O)n(C)n(Cc3c(F)cccc3F)c2=O)c1 (optimized conformer: 91.87165461401804 kcal/mol)

>  <smiles>  (33) 
CC(=O)C(C)Oc1cccc(Cn2c(=O)n(C)n(Cc3c(F)cccc3F)c2=O)c1

>  <score_type>  (33) 
oracle

>  <origin>  (33) 
adg

>  <m_score__min__energy>  (33) 
-8.5199999999999996

>  <m_primary>  (33) 
energy

$$$$
33:0
     RDKit          3D

 31 32  0  0  0  0  0  0  0  0999 V2000
   58.6950   27.5240   43.1520 O   0  0  0  0  0  0  0  0  0  0  0  0
   57.6400   28.0730   43.5700 C   0  0  0  0  0  0  0  0  0  0  0  0
   56.9920   29.1500   42.7540 C   0  0  0  0  0  0  0  0  0  0  0  0
   57.1210   30.4470   43.4350 N   0  0  0  0  0  0  0  0  0  0  0  0
   58.0560   31.3440   42.9970 C   0  0  0  0  0  0  0  0  0  0  0  0
   58.1820   32.5920   43.6060 C   0  0  0  0  0  0  0  0  0  0  0  0
   57.3280   32.9050   44.6600 C   0  0  0  0  0  0  0  0  0  0  0  0
   57.4130   34.0230   45.2330 O   0  0  0  0  0  0  0  0  0  0  0  0
   56.4010   32.0040   45.0680 N   0  0  0  0  0  0  0  0  0  0  0  0
   56.2860   30.7890   44.4690 C   0  0  0  0  0  0  0  0  0  0  0  0
   55.4020   29.9880   44.8760 O   0  0  0  0  0  0  0  0  0  0  0  0
   57.0820   27.6980   44.8360 N   0  0  0  0  0  0  0  0  0  0  0  0
   57.7230   26.6970   45.6860 C   0  0  0  0  0  0  0  0  0  0  0  0
   56.9130   25.4260   45.7110 C   0  0  0  0  0  0  0  0  0  0  0  0
   57.5620   24.1810   45.6320 C   0  0  0  0  0  0  0  0  0  0  0  0
   56.8250   22.9950   45.6890 C   0  0  0  0  0  0  0  0  0  0  0  0
   55.4360   23.0410   45.8370 C   0  0  0  0  0  0  0  0  0  0  0  0
   54.7830   24.2720   45.9350 C   0  0  0  0  0  0  0  0  0  0  0  0
   55.5150   25.4640   45.8790 C   0  0  0  0  0  0  0  0  0  0  0  0
   54.8480   26.6790   45.9950 O   0  0  0  0  0  0  0  0  0  0  0  0
   57.4813   29.2053   41.7704 H   0  0  0  0  0  0  0  0  0  0  0  0
   55.9250   28.9138   42.6286 H   0  0  0  0  0  0  0  0  0  0  0  0
   58.7145   31.0785   42.1568 H   0  0  0  0  0  0  0  0  0  0  0  0
   58.9386   33.3125   43.2617 H   0  0  0  0  0  0  0  0  0  0  0  0
   56.2040   28.1670   45.1550 H   0  0  0  0  0  0  0  0  0  0  0  0
   58.7269   26.4784   45.2932 H   0  0  0  0  0  0  0  0  0  0  0  0
   57.7933   27.0932   46.7097 H   0  0  0  0  0  0  0  0  0  0  0  0
   58.6560   24.1404   45.5247 H   0  0  0  0  0  0  0  0  0  0  0  0
   57.3384   22.0248   45.6173 H   0  0  0  0  0  0  0  0  0  0  0  0
   54.8564   22.1069   45.8764 H   0  0  0  0  0  0  0  0  0  0  0  0
   53.6902   24.3048   46.0566 H   0  0  0  0  0  0  0  0  0  0  0  0
  1  2  2  0
  2  3  1  0
  3  4  1  0
  4  5  1  0
  5  6  2  0
  6  7  1  0
  7  8  2  0
  7  9  1  0
  9 10  1  0
 10 11  2  0
  2 12  1  0
 12 13  1  0
 13 14  1  0
 14 15  2  0
 15 16  1  0
 16 17  2  0
 17 18  1  0
 18 19  2  0
 19 20  1  0
 10  4  1  0
 19 14  1  0
  3 21  1  0
  3 22  1  0
  5 23  1  0
  6 24  1  0
 12 25  1  0
 13 26  1  0
 13 27  1  0
 15 28  1  0
 16 29  1  0
 17 30  1  0
 18 31  1  0
M  CHG  2   9  -1  20  -1
M  END
>  <UniqueID>  (34) 
34

>  <SMILES>  (34) 
O=C(Cn1ccc(=O)[n-]c1=O)NCc1ccccc1[O-]

>  <Energy>  (34) 
30.88281951524303

>  <Genealogy>  (34) 
O=C(Cn1ccc(=O)[n-]c1=O)NCc1ccccc1[O-] (protonated)
O=C(Cn1ccc(=O)[n-]c1=O)NCc1ccccc1[O-] (3D coordinates assigned)
O=C(Cn1ccc(=O)[n-]c1=O)NCc1ccccc1[O-] (optimized conformer: 30.88281951524303 kcal/mol)

>  <smiles>  (34) 
O=C(Cn1ccc(=O)[nH]c1=O)NCc1ccccc1O

>  <score_type>  (34) 
oracle

>  <origin>  (34) 
adg

>  <m_score__min__energy>  (34) 
-11.789999999999999

>  <m_primary>  (34) 
energy

$$$$
34:0
     RDKit          3D

 59 62  0  0  0  0  0  0  0  0999 V2000
   59.0210   28.2620   47.7930 C   0  0  0  0  0  0  0  0  0  0  0  0
   58.5360   29.1750   46.6860 C   0  0  0  0  0  0  0  0  0  0  0  0
   57.8980   28.6150   45.5440 C   0  0  0  0  0  0  0  0  0  0  0  0
   57.5740   26.8730   45.3840 S   0  0  0  0  0  0  0  0  0  0  0  0
   58.5580   26.1130   46.2280 O   0  0  0  0  0  0  0  0  0  0  0  0
   57.7330   26.4590   43.9460 O   0  0  0  0  0  0  0  0  0  0  0  0
   55.9740   26.4750   45.9460 N   0  0  0  0  0  0  0  0  0  0  0  0
   55.9060   25.0990   46.4420 C   0  0  0  0  0  0  0  0  0  0  0  0
   56.2870   24.1240   45.3600 C   0  0  0  0  0  0  0  0  0  0  0  0
   57.4260   23.3120   45.4980 C   0  0  0  0  0  0  0  0  0  0  0  0
   57.7810   22.4190   44.4830 C   0  0  0  0  0  0  0  0  0  0  0  0
   57.0100   22.3360   43.3200 C   0  0  0  0  0  0  0  0  0  0  0  0
   55.8800   23.1440   43.1720 C   0  0  0  0  0  0  0  0  0  0  0  0
   55.5200   24.0390   44.1850 C   0  0  0  0  0  0  0  0  0  0  0  0
   57.4720   29.4550   44.5130 C   0  0  0  0  0  0  0  0  0  0  0  0
   57.6930   30.8210   44.5710 C   0  0  0  0  0  0  0  0  0  0  0  0
   58.3060   31.4070   45.6800 C   0  0  0  0  0  0  0  0  0  0  0  0
   58.5570   32.8240   45.6250 N   0  0  0  0  0  0  0  0  0  0  0  0
   59.7020   33.7600   45.5820 C   0  0  0  0  0  0  0  0  0  0  0  0
   58.9260   34.9540   45.1460 C   0  0  0  0  0  0  0  0  0  0  0  0
   57.7800   34.0050   45.1920 C   0  0  0  0  0  0  0  0  0  0  0  0
   58.6640   30.5980   46.7930 C   0  0  0  0  0  0  0  0  0  0  0  0
   59.1150   31.3940   48.3320 S   0  0  0  0  0  0  0  0  0  0  0  0
   58.5160   32.7730   48.3280 O   0  0  0  0  0  0  0  0  0  0  0  0
   58.5430   30.6800   49.5250 O   0  0  0  0  0  0  0  0  0  0  0  0
   60.8530   31.5200   48.5000 N   0  0  0  0  0  0  0  0  0  0  0  0
   61.2620   32.7840   49.1570 C   0  0  0  0  0  0  0  0  0  0  0  0
   61.6880   33.8590   48.1480 C   0  0  0  0  0  0  0  0  0  0  0  0
   62.8850   33.3810   47.3060 C   0  0  0  0  0  0  0  0  0  0  0  0
   62.9220   31.8510   47.1390 C   0  0  0  0  0  0  0  0  0  0  0  0
   61.5080   31.2590   47.1970 C   0  0  0  0  0  0  0  0  0  0  0  0
   58.7828   28.7104   48.7688 H   0  0  0  0  0  0  0  0  0  0  0  0
   58.5230   27.2849   47.7071 H   0  0  0  0  0  0  0  0  0  0  0  0
   60.1094   28.1276   47.7071 H   0  0  0  0  0  0  0  0  0  0  0  0
   56.5978   24.9861   47.2898 H   0  0  0  0  0  0  0  0  0  0  0  0
   54.8744   24.8884   46.7606 H   0  0  0  0  0  0  0  0  0  0  0  0
   58.0402   23.3796   46.4081 H   0  0  0  0  0  0  0  0  0  0  0  0
   58.6689   21.7802   44.5997 H   0  0  0  0  0  0  0  0  0  0  0  0
   57.2930   21.6345   42.5214 H   0  0  0  0  0  0  0  0  0  0  0  0
   55.2724   23.0763   42.2575 H   0  0  0  0  0  0  0  0  0  0  0  0
   54.6336   24.6786   44.0617 H   0  0  0  0  0  0  0  0  0  0  0  0
   56.9538   29.0258   43.6428 H   0  0  0  0  0  0  0  0  0  0  0  0
   57.3801   31.4553   43.7285 H   0  0  0  0  0  0  0  0  0  0  0  0
   60.1729   33.8979   46.5665 H   0  0  0  0  0  0  0  0  0  0  0  0
   60.5595   33.4687   44.9575 H   0  0  0  0  0  0  0  0  0  0  0  0
   58.8852   35.7834   45.8674 H   0  0  0  0  0  0  0  0  0  0  0  0
   59.1818   35.5673   44.2694 H   0  0  0  0  0  0  0  0  0  0  0  0
   57.0156   34.3004   45.9258 H   0  0  0  0  0  0  0  0  0  0  0  0
   57.1857   33.8988   44.2725 H   0  0  0  0  0  0  0  0  0  0  0  0
   60.4142   33.1671   49.7439 H   0  0  0  0  0  0  0  0  0  0  0  0
   62.1293   32.5631   49.7966 H   0  0  0  0  0  0  0  0  0  0  0  0
   60.8430   34.0799   47.4793 H   0  0  0  0  0  0  0  0  0  0  0  0
   61.9868   34.7612   48.7019 H   0  0  0  0  0  0  0  0  0  0  0  0
   62.8205   33.8421   46.3094 H   0  0  0  0  0  0  0  0  0  0  0  0
   63.8025   33.6794   47.8343 H   0  0  0  0  0  0  0  0  0  0  0  0
   63.3754   31.6058   46.1673 H   0  0  0  0  0  0  0  0  0  0  0  0
   63.5161   31.4224   47.9596 H   0  0  0  0  0  0  0  0  0  0  0  0
   60.9011   31.7088   46.3974 H   0  0  0  0  0  0  0  0  0  0  0  0
   61.5889   30.1696   47.0682 H   0  0  0  0  0  0  0  0  0  0  0  0
  1  2  1  0
  2  3  2  0
  3  4  1  0
  4  5  2  0
  4  6  2  0
  4  7  1  0
  7  8  1  0
  8  9  1  0
  9 10  2  0
 10 11  1  0
 11 12  2  0
 12 13  1  0
 13 14  2  0
  3 15  1  0
 15 16  2  0
 16 17  1  0
 17 18  1  0
 18 19  1  0
 19 20  1  0
 20 21  1  0
 17 22  2  0
 22 23  1  0
 23 24  2  0
 23 25  2  0
 23 26  1  0
 26 27  1  0
 27 28  1  0
 28 29  1  0
 29 30  1  0
 30 31  1  0
 22  2  1  0
 31 26  1  0
 14  9  1  0
 21 18  1  0
  1 32  1  0
  1 33  1  0
  1 34  1  0
  8 35  1  0
  8 36  1  0
 10 37  1  0
 11 38  1  0
 12 39  1  0
 13 40  1  0
 14 41  1  0
 15 42  1  0
 16 43  1  0
 19 44  1  0
 19 45  1  0
 20 46  1  0
 20 47  1  0
 21 48  1  0
 21 49  1  0
 27 50  1  0
 27 51  1  0
 28 52  1  0
 28 53  1  0
 29 54  1  0
 29 55  1  0
 30 56  1  0
 30 57  1  0
 31 58  1  0
 31 59  1  0
M  CHG  1   7  -1
M  END
>  <UniqueID>  (35) 
35

>  <SMILES>  (35) 
Cc1c(S(=O)(=O)[N-]Cc2ccccc2)ccc(N2CCC2)c1S(=O)(=O)N1CCCCC1

>  <Energy>  (35) 
123.48374967491628

>  <Genealogy>  (35) 
Cc1c(S(=O)(=O)[N-]Cc2ccccc2)ccc(N2CCC2)c1S(=O)(=O)N1CCCCC1 (protonated)
Cc1c(S(=O)(=O)[N-]Cc2ccccc2)ccc(N2CCC2)c1S(=O)(=O)N1CCCCC1 (3D coordinates assigned)
Cc1c(S(=O)(=O)[N-]Cc2ccccc2)ccc(N2CCC2)c1S(=O)(=O)N1CCCCC1 (nonaromatic ring conformer: 123.48374967491628 kcal/mol)

>  <smiles>  (35) 
Cc1c(S(=O)(=O)NCc2ccccc2)ccc(N2CCC2)c1S(=O)(=O)N1CCCCC1

>  <score_type>  (35) 
oracle

>  <origin>  (35) 
adg

>  <m_score__min__energy>  (35) 
-11.140000000000001

>  <m_primary>  (35) 
energy

$$$$
35:0
     RDKit          3D

 44 46  0  0  0  0  0  0  0  0999 V2000
   56.6650   34.6200   44.8860 C   0  0  0  0  0  0  0  0  0  0  0  0
   57.7170   33.8270   45.5890 C   0  0  0  0  0  0  0  0  0  0  0  0
   58.4020   34.2750   46.6570 N   0  0  0  0  0  0  0  0  0  0  0  0
   59.2560   33.3310   47.0290 N   0  0  0  0  0  0  0  0  0  0  0  0
   60.1470   33.4840   48.1540 C   0  0  0  0  0  0  0  0  0  0  0  0
   61.5150   33.7430   47.9510 C   0  0  0  0  0  0  0  0  0  0  0  0
   62.3590   33.8970   49.0520 C   0  0  0  0  0  0  0  0  0  0  0  0
   61.8430   33.7980   50.3440 C   0  0  0  0  0  0  0  0  0  0  0  0
   60.4820   33.5420   50.5150 C   0  0  0  0  0  0  0  0  0  0  0  0
   59.6750   33.3960   49.4300 N   0  0  0  0  0  0  0  0  0  0  0  0
   59.1290   32.2630   46.1980 C   0  0  0  0  0  0  0  0  0  0  0  0
   59.9500   31.0070   46.2510 C   0  0  0  0  0  0  0  0  0  0  0  0
   58.1330   32.5450   45.2740 C   0  0  0  0  0  0  0  0  0  0  0  0
   57.6630   31.6940   44.1240 C   0  0  0  0  0  0  0  0  0  0  0  0
   57.4080   30.2670   44.5260 C   0  0  0  0  0  0  0  0  0  0  0  0
   56.6450   29.9970   45.4950 O   0  0  0  0  0  0  0  0  0  0  0  0
   58.0330   29.2100   43.7890 N   0  0  0  0  0  0  0  0  0  0  0  0
   57.7860   27.8050   44.1090 C   0  0  0  0  0  0  0  0  0  0  0  0
   58.4460   27.4320   45.4140 C   0  0  0  0  0  0  0  0  0  0  0  0
   59.7510   27.8790   45.6840 C   0  0  0  0  0  0  0  0  0  0  0  0
   60.3900   27.5240   46.8750 C   0  0  0  0  0  0  0  0  0  0  0  0
   59.7370   26.7110   47.8040 C   0  0  0  0  0  0  0  0  0  0  0  0
   60.3600   26.3640   48.9570 F   0  0  0  0  0  0  0  0  0  0  0  0
   58.4450   26.2480   47.5420 C   0  0  0  0  0  0  0  0  0  0  0  0
   57.7960   26.5980   46.3510 C   0  0  0  0  0  0  0  0  0  0  0  0
   56.1790   25.9650   46.0600 Cl  0  0  0  0  0  0  0  0  0  0  0  0
   56.0168   35.1086   45.6284 H   0  0  0  0  0  0  0  0  0  0  0  0
   57.1423   35.3850   44.2559 H   0  0  0  0  0  0  0  0  0  0  0  0
   56.0610   33.9506   44.2559 H   0  0  0  0  0  0  0  0  0  0  0  0
   61.9171   33.8237   46.9303 H   0  0  0  0  0  0  0  0  0  0  0  0
   63.4302   34.0963   48.9008 H   0  0  0  0  0  0  0  0  0  0  0  0
   62.5007   33.9202   51.2172 H   0  0  0  0  0  0  0  0  0  0  0  0
   60.0615   33.4582   51.5280 H   0  0  0  0  0  0  0  0  0  0  0  0
   60.1305   30.7309   47.3004 H   0  0  0  0  0  0  0  0  0  0  0  0
   59.4087   30.1935   45.7457 H   0  0  0  0  0  0  0  0  0  0  0  0
   60.9123   31.1764   45.7457 H   0  0  0  0  0  0  0  0  0  0  0  0
   56.7294   32.1207   43.7286 H   0  0  0  0  0  0  0  0  0  0  0  0
   58.4601   31.6890   43.3660 H   0  0  0  0  0  0  0  0  0  0  0  0
   58.6720   29.4620   43.0000 H   0  0  0  0  0  0  0  0  0  0  0  0
   56.7018   27.6386   44.1920 H   0  0  0  0  0  0  0  0  0  0  0  0
   58.2074   27.1801   43.3078 H   0  0  0  0  0  0  0  0  0  0  0  0
   60.2732   28.5130   44.9523 H   0  0  0  0  0  0  0  0  0  0  0  0
   61.4084   27.8853   47.0810 H   0  0  0  0  0  0  0  0  0  0  0  0
   57.9349   25.6054   48.2747 H   0  0  0  0  0  0  0  0  0  0  0  0
  1  2  1  0
  2  3  2  0
  3  4  1  0
  4  5  1  0
  5  6  2  0
  6  7  1  0
  7  8  2  0
  8  9  1  0
  9 10  2  0
  4 11  1  0
 11 12  1  0
 11 13  2  0
 13 14  1  0
 14 15  1  0
 15 16  2  0
 15 17  1  0
 17 18  1  0
 18 19  1  0
 19 20  2  0
 20 21  1  0
 21 22  2  0
 22 23  1  0
 22 24  1  0
 24 25  2  0
 25 26  1  0
 13  2  1  0
 25 19  1  0
 10  5  1  0
  1 27  1  0
  1 28  1  0
  1 29  1  0
  6 30  1  0
  7 31  1  0
  8 32  1  0
  9 33  1  0
 12 34  1  0
 12 35  1  0
 12 36  1  0
 14 37  1  0
 14 38  1  0
 17 39  1  0
 18 40  1  0
 18 41  1  0
 20 42  1  0
 21 43  1  0
 24 44  1  0
M  END
>  <UniqueID>  (36) 
36

>  <SMILES>  (36) 
Cc1nn(-c2ccccn2)c(C)c1CC(=O)NCc1ccc(F)cc1Cl

>  <Energy>  (36) 
76.27609009493354

>  <Genealogy>  (36) 
Cc1nn(-c2ccccn2)c(C)c1CC(=O)NCc1ccc(F)cc1Cl (3D coordinates assigned)
Cc1nn(-c2ccccn2)c(C)c1CC(=O)NCc1ccc(F)cc1Cl (optimized conformer: 76.27609009493354 kcal/mol)

>  <smiles>  (36) 
Cc1nn(-c2ccccn2)c(C)c1CC(=O)NCc1ccc(F)cc1Cl

>  <score_type>  (36) 
oracle

>  <origin>  (36) 
adg

>  <m_score__min__energy>  (36) 
-8.2400000000000002

>  <m_primary>  (36) 
energy

$$$$
36:0
     RDKit          3D

 40 41  0  0  0  0  0  0  0  0999 V2000
   57.7520   25.7214   43.7282 H   0  0  0  0  0  0  0  0  0  0  0  0
   57.3930   24.6980   43.9120 C   0  0  0  0  0  0  0  0  0  0  0  0
   56.6800   24.0910   43.0140 N   0  0  0  0  0  0  0  0  0  0  0  0
   55.7170   23.0790   43.3200 C   0  0  0  0  0  0  0  0  0  0  0  0
   54.6700   23.3990   43.9460 O   0  0  0  0  0  0  0  0  0  0  0  0
   55.9330   21.7520   42.9350 O   0  0  0  0  0  0  0  0  0  0  0  0
   57.2070   21.1260   43.0210 C   0  0  0  0  0  0  0  0  0  0  0  0
   57.4792   20.9923   44.0784 H   0  0  0  0  0  0  0  0  0  0  0  0
   57.1675   20.1447   42.5256 H   0  0  0  0  0  0  0  0  0  0  0  0
   57.9597   21.7569   42.5256 H   0  0  0  0  0  0  0  0  0  0  0  0
   57.7280   24.0090   45.1970 C   0  0  0  0  0  0  0  0  0  0  0  0
   57.1849   23.0536   45.2451 H   0  0  0  0  0  0  0  0  0  0  0  0
   58.8140   23.8370   45.2297 H   0  0  0  0  0  0  0  0  0  0  0  0
   57.3340   24.8700   46.4000 C   0  0  0  0  0  0  0  0  0  0  0  0
   56.3969   24.4855   46.8289 H   0  0  0  0  0  0  0  0  0  0  0  0
   58.1395   24.8261   47.1479 H   0  0  0  0  0  0  0  0  0  0  0  0
   57.1370   26.2960   45.9830 C   0  0  0  0  0  0  0  0  0  0  0  0
   58.3710   27.3680   45.5790 S   0  0  0  0  0  0  0  0  0  0  0  0
   57.2940   28.5960   45.1780 C   0  0  0  0  0  0  0  0  0  0  0  0
   57.6690   29.7710   44.7670 N   0  0  0  0  0  0  0  0  0  0  0  0
   56.8250   30.7730   44.1810 C   0  0  0  0  0  0  0  0  0  0  0  0
   56.2420   30.5680   43.0800 O   0  0  0  0  0  0  0  0  0  0  0  0
   56.6620   31.9900   44.8500 O   0  0  0  0  0  0  0  0  0  0  0  0
   57.3920   33.1700   44.5220 C   0  0  0  0  0  0  0  0  0  0  0  0
   58.0197   32.9743   43.6401 H   0  0  0  0  0  0  0  0  0  0  0  0
   56.6807   33.9812   44.3076 H   0  0  0  0  0  0  0  0  0  0  0  0
   58.2690   33.5820   45.6730 C   0  0  0  0  0  0  0  0  0  0  0  0
   58.1430   32.9400   46.9150 C   0  0  0  0  0  0  0  0  0  0  0  0
   57.4136   32.1260   47.0393 H   0  0  0  0  0  0  0  0  0  0  0  0
   58.9410   33.3310   47.9950 C   0  0  0  0  0  0  0  0  0  0  0  0
   58.8399   32.8230   48.9654 H   0  0  0  0  0  0  0  0  0  0  0  0
   59.8670   34.3670   47.8420 C   0  0  0  0  0  0  0  0  0  0  0  0
   60.4955   34.6731   48.6913 H   0  0  0  0  0  0  0  0  0  0  0  0
   59.9940   35.0140   46.6090 C   0  0  0  0  0  0  0  0  0  0  0  0
   60.7219   35.8300   46.4897 H   0  0  0  0  0  0  0  0  0  0  0  0
   59.1980   34.6260   45.5280 C   0  0  0  0  0  0  0  0  0  0  0  0
   59.2991   35.1396   44.5605 H   0  0  0  0  0  0  0  0  0  0  0  0
   56.0040   28.2160   45.3270 N   0  0  0  0  0  0  0  0  0  0  0  0
   55.9180   26.9340   45.7690 C   0  0  0  0  0  0  0  0  0  0  0  0
   54.6920   26.3150   45.9810 O   0  0  0  0  0  0  0  0  0  0  0  0
  1  2  1  0
  2  3  2  0
  3  4  1  0
  4  5  2  0
  4  6  1  0
  6  7  1  0
  7  8  1  0
  7  9  1  0
  7 10  1  0
  2 11  1  0
 11 12  1  0
 11 13  1  0
 11 14  1  0
 14 15  1  0
 14 16  1  0
 14 17  1  0
 17 18  1  0
 18 19  1  0
 19 20  2  0
 20 21  1  0
 21 22  2  0
 21 23  1  0
 23 24  1  0
 24 25  1  0
 24 26  1  0
 24 27  1  0
 27 28  2  0
 28 29  1  0
 28 30  1  0
 30 31  1  0
 30 32  2  0
 32 33  1  0
 32 34  1  0
 34 35  1  0
 34 36  2  0
 36 37  1  0
 19 38  1  0
 38 39  1  0
 39 40  1  0
 39 17  2  0
 36 27  1  0
M  CHG  2  38  -1  40  -1
M  END
>  <UniqueID>  (37) 
37

>  <SMILES>  (37) 
COC(=O)/N=C/CCc1s/c(=N/C(=O)OCc2ccccc2)[n-]c1[O-]

>  <Energy>  (37) 
62.154856855288585

>  <Genealogy>  (37) 
COC(=O)N=CCCc1sc(=NC(=O)OCc2ccccc2)[n-]c1[O-] (protonated)
COC(=O)/N=C/CCc1s/c(=N/C(=O)OCc2ccccc2)[n-]c1[O-] (cis-trans isomerization)
COC(=O)/N=C/CCc1s/c(=N/C(=O)OCc2ccccc2)[n-]c1[O-] (3D coordinates assigned)
COC(=O)/N=C/CCc1s/c(=N/C(=O)OCc2ccccc2)[n-]c1[O-] (optimized conformer: 62.154856855288585 kcal/mol)

>  <smiles>  (37) 
COC(=O)N=CCCc1sc(=NC(=O)OCc2ccccc2)[nH]c1O

>  <score_type>  (37) 
oracle

>  <origin>  (37) 
adg

>  <m_score__min__energy>  (37) 
-13.25

>  <m_primary>  (37) 
energy

$$$$
37:0
     RDKit          3D

 50 53  0  0  0  0  0  0  0  0999 V2000
   56.8666   21.8314   41.5244 H   0  0  0  0  0  0  0  0  0  0  0  0
   56.6880   22.0160   42.5940 C   0  0  0  0  0  0  0  0  0  0  0  0
   57.2060   21.1380   43.5510 C   0  0  0  0  0  0  0  0  0  0  0  0
   57.7877   20.2598   43.2342 H   0  0  0  0  0  0  0  0  0  0  0  0
   56.9840   21.3770   44.9130 C   0  0  0  0  0  0  0  0  0  0  0  0
   57.3978   20.6889   45.6648 H   0  0  0  0  0  0  0  0  0  0  0  0
   56.2350   22.4920   45.3220 C   0  0  0  0  0  0  0  0  0  0  0  0
   55.9300   22.7990   47.0290 S   0  0  0  0  0  0  0  0  0  0  0  0
   57.0560   22.2180   47.8350 O   0  0  0  0  0  0  0  0  0  0  0  0
   54.6470   22.1540   47.4730 O   0  0  0  0  0  0  0  0  0  0  0  0
   55.8550   24.5080   47.3150 N   0  0  0  0  0  0  0  0  0  0  0  0
   56.7710   25.4860   46.8000 C   0  0  0  0  0  0  0  0  0  0  0  0
   58.1400   25.2980   47.0150 C   0  0  0  0  0  0  0  0  0  0  0  0
   58.4895   24.4160   47.5717 H   0  0  0  0  0  0  0  0  0  0  0  0
   59.0660   26.2220   46.5280 C   0  0  0  0  0  0  0  0  0  0  0  0
   60.1407   26.0646   46.7020 H   0  0  0  0  0  0  0  0  0  0  0  0
   58.6330   27.3450   45.8210 C   0  0  0  0  0  0  0  0  0  0  0  0
   59.3691   28.0652   45.4344 H   0  0  0  0  0  0  0  0  0  0  0  0
   57.2600   27.5610   45.6000 C   0  0  0  0  0  0  0  0  0  0  0  0
   56.7930   28.7680   44.8730 C   0  0  0  0  0  0  0  0  0  0  0  0
   57.5410   29.5390   43.9990 C   0  0  0  0  0  0  0  0  0  0  0  0
   58.5837   29.3892   43.6823 H   0  0  0  0  0  0  0  0  0  0  0  0
   56.6650   30.5450   43.6170 C   0  0  0  0  0  0  0  0  0  0  0  0
   56.9050   31.5110   42.7790 N   0  0  0  0  0  0  0  0  0  0  0  0
   57.9180   32.5170   42.9330 C   0  0  0  0  0  0  0  0  0  0  0  0
   58.5360   32.9110   41.9110 O   0  0  0  0  0  0  0  0  0  0  0  0
   58.2250   33.1200   44.2520 C   0  0  0  0  0  0  0  0  0  0  0  0
   59.2380   34.0870   44.3800 C   0  0  0  0  0  0  0  0  0  0  0  0
   59.8167   34.3919   43.4956 H   0  0  0  0  0  0  0  0  0  0  0  0
   59.5150   34.6640   45.6240 C   0  0  0  0  0  0  0  0  0  0  0  0
   60.3060   35.4234   45.7108 H   0  0  0  0  0  0  0  0  0  0  0  0
   58.7870   34.2780   46.7650 C   0  0  0  0  0  0  0  0  0  0  0  0
   59.0300   34.8290   48.0320 O   0  0  0  0  0  0  0  0  0  0  0  0
   59.9230   34.2710   48.9910 C   0  0  0  0  0  0  0  0  0  0  0  0
   59.5607   34.4974   50.0046 H   0  0  0  0  0  0  0  0  0  0  0  0
   59.9731   33.1806   48.8545 H   0  0  0  0  0  0  0  0  0  0  0  0
   60.9249   34.7040   48.8545 H   0  0  0  0  0  0  0  0  0  0  0  0
   57.7840   33.3080   46.6380 C   0  0  0  0  0  0  0  0  0  0  0  0
   57.2085   32.9997   47.5233 H   0  0  0  0  0  0  0  0  0  0  0  0
   57.5080   32.7280   45.3950 C   0  0  0  0  0  0  0  0  0  0  0  0
   56.7247   31.9602   45.3121 H   0  0  0  0  0  0  0  0  0  0  0  0
   55.4700   30.3810   44.2120 N   0  0  0  0  0  0  0  0  0  0  0  0
   55.5560   29.3030   44.9750 N   0  0  0  0  0  0  0  0  0  0  0  0
   54.7740   28.9580   45.5730 H   0  0  0  0  0  0  0  0  0  0  0  0
   56.3360   26.6200   46.0900 C   0  0  0  0  0  0  0  0  0  0  0  0
   55.2607   26.7727   45.9159 H   0  0  0  0  0  0  0  0  0  0  0  0
   55.7130   23.3660   44.3570 C   0  0  0  0  0  0  0  0  0  0  0  0
   55.1220   24.2393   44.6703 H   0  0  0  0  0  0  0  0  0  0  0  0
   55.9420   23.1300   42.9970 C   0  0  0  0  0  0  0  0  0  0  0  0
   55.5354   23.8206   42.2435 H   0  0  0  0  0  0  0  0  0  0  0  0
  1  2  1  0
  2  3  2  0
  3  4  1  0
  3  5  1  0
  5  6  1  0
  5  7  2  0
  7  8  1  0
  8  9  2  0
  8 10  2  0
  8 11  1  0
 11 12  1  0
 12 13  2  0
 13 14  1  0
 13 15  1  0
 15 16  1  0
 15 17  2  0
 17 18  1  0
 17 19  1  0
 19 20  1  0
 20 21  2  0
 21 22  1  0
 21 23  1  0
 23 24  2  0
 24 25  1  0
 25 26  2  0
 25 27  1  0
 27 28  2  0
 28 29  1  0
 28 30  1  0
 30 31  1  0
 30 32  2  0
 32 33  1  0
 33 34  1  0
 34 35  1  0
 34 36  1  0
 34 37  1  0
 32 38  1  0
 38 39  1  0
 38 40  2  0
 40 41  1  0
 23 42  1  0
 42 43  1  0
 43 44  1  0
 19 45  2  0
 45 46  1  0
  7 47  1  0
 47 48  1  0
 47 49  2  0
 49 50  1  0
 49  2  1  0
 45 12  1  0
 43 20  1  0
 40 27  1  0
M  CHG  2  11  -1  42  -1
M  END
>  <UniqueID>  (38) 
38

>  <SMILES>  (38) 
COc1ccc(C(=O)/N=c2\cc(-c3cccc([N-]S(=O)(=O)c4ccccc4)c3)[nH][n-]2)cc1

>  <Energy>  (38) 
98.45993228661074

>  <Genealogy>  (38) 
COc1ccc(C(=O)N=c2cc(-c3cccc([N-]S(=O)(=O)c4ccccc4)c3)[nH][n-]2)cc1 (protonated)
COc1ccc(C(=O)/N=c2\cc(-c3cccc([N-]S(=O)(=O)c4ccccc4)c3)[nH][n-]2)cc1 (cis-trans isomerization)
COc1ccc(C(=O)/N=c2\cc(-c3cccc([N-]S(=O)(=O)c4ccccc4)c3)[nH][n-]2)cc1 (3D coordinates assigned)
COc1ccc(C(=O)/N=c2\cc(-c3cccc([N-]S(=O)(=O)c4ccccc4)c3)[nH][n-]2)cc1 (optimized conformer: 98.45993228661074 kcal/mol)

>  <smiles>  (38) 
COc1ccc(C(=O)N=c2cc(-c3cccc(NS(=O)(=O)c4ccccc4)c3)[nH][nH]2)cc1

>  <score_type>  (38) 
oracle

>  <origin>  (38) 
adg

>  <m_score__min__energy>  (38) 
-13.57

>  <m_primary>  (38) 
energy

$$$$
38:0
     RDKit          3D

 48 50  0  0  0  0  0  0  0  0999 V2000
   57.1480   30.5360   51.7770 C   0  0  0  0  0  0  0  0  0  0  0  0
   57.3920   31.5670   50.7750 N   0  0  0  0  0  0  0  0  0  0  0  0
   58.4940   31.4770   49.8580 C   0  0  0  0  0  0  0  0  0  0  0  0
   59.1870   30.4230   49.8220 O   0  0  0  0  0  0  0  0  0  0  0  0
   58.8220   32.5950   48.9400 C   0  0  0  0  0  0  0  0  0  0  0  0
   59.8220   33.5180   49.2880 C   0  0  0  0  0  0  0  0  0  0  0  0
   60.1470   34.5690   48.4300 C   0  0  0  0  0  0  0  0  0  0  0  0
   59.4720   34.7320   47.2130 C   0  0  0  0  0  0  0  0  0  0  0  0
   59.8730   35.7810   46.3240 N   0  0  0  0  0  0  0  0  0  0  0  0
   58.4310   33.8400   46.8750 C   0  0  0  0  0  0  0  0  0  0  0  0
   57.6750   33.9920   45.6650 N   0  0  0  0  0  0  0  0  0  0  0  0
   57.5190   32.9510   44.6810 C   0  0  0  0  0  0  0  0  0  0  0  0
   58.2620   33.0130   43.4940 C   0  0  0  0  0  0  0  0  0  0  0  0
   58.1320   32.0180   42.5260 C   0  0  0  0  0  0  0  0  0  0  0  0
   57.2640   30.9440   42.7320 C   0  0  0  0  0  0  0  0  0  0  0  0
   56.5170   30.8510   43.9190 C   0  0  0  0  0  0  0  0  0  0  0  0
   55.6000   29.7090   44.1440 C   0  0  0  0  0  0  0  0  0  0  0  0
   54.6160   29.5260   43.3750 O   0  0  0  0  0  0  0  0  0  0  0  0
   55.8250   28.8070   45.2320 N   0  0  0  0  0  0  0  0  0  0  0  0
   56.9140   27.8390   45.2450 C   0  0  0  0  0  0  0  0  0  0  0  0
   58.2060   28.5480   45.5270 C   0  0  0  0  0  0  0  0  0  0  0  0
   59.3370   28.3100   44.7320 C   0  0  0  0  0  0  0  0  0  0  0  0
   60.5430   28.9490   45.0270 C   0  0  0  0  0  0  0  0  0  0  0  0
   60.6100   29.8100   46.1230 C   0  0  0  0  0  0  0  0  0  0  0  0
   59.5090   30.0180   46.8950 N   0  0  0  0  0  0  0  0  0  0  0  0
   58.3230   29.4090   46.6270 C   0  0  0  0  0  0  0  0  0  0  0  0
   56.6550   31.8590   44.8930 C   0  0  0  0  0  0  0  0  0  0  0  0
   58.1290   32.7690   47.7290 C   0  0  0  0  0  0  0  0  0  0  0  0
   57.2508   30.9702   52.7824 H   0  0  0  0  0  0  0  0  0  0  0  0
   56.1306   30.1369   51.6522 H   0  0  0  0  0  0  0  0  0  0  0  0
   57.8786   29.7232   51.6522 H   0  0  0  0  0  0  0  0  0  0  0  0
   56.7120   32.3550   50.7050 H   0  0  0  0  0  0  0  0  0  0  0  0
   60.3534   33.4112   50.2452 H   0  0  0  0  0  0  0  0  0  0  0  0
   60.9408   35.2765   48.7116 H   0  0  0  0  0  0  0  0  0  0  0  0
   59.8430   36.7790   46.6320 H   0  0  0  0  0  0  0  0  0  0  0  0
   60.2630   35.5810   45.3770 H   0  0  0  0  0  0  0  0  0  0  0  0
   57.3330   34.9510   45.4280 H   0  0  0  0  0  0  0  0  0  0  0  0
   58.9524   33.8525   43.3250 H   0  0  0  0  0  0  0  0  0  0  0  0
   58.7159   32.0794   41.5958 H   0  0  0  0  0  0  0  0  0  0  0  0
   57.1641   30.1660   41.9608 H   0  0  0  0  0  0  0  0  0  0  0  0
   56.7287   27.0883   46.0274 H   0  0  0  0  0  0  0  0  0  0  0  0
   56.9742   27.3397   44.2667 H   0  0  0  0  0  0  0  0  0  0  0  0
   59.2739   27.6207   43.8771 H   0  0  0  0  0  0  0  0  0  0  0  0
   61.4312   28.7754   44.4017 H   0  0  0  0  0  0  0  0  0  0  0  0
   61.5539   30.3212   46.3632 H   0  0  0  0  0  0  0  0  0  0  0  0
   57.4533   29.5925   47.2750 H   0  0  0  0  0  0  0  0  0  0  0  0
   56.0818   31.7927   45.8295 H   0  0  0  0  0  0  0  0  0  0  0  0
   57.3399   32.0561   47.4477 H   0  0  0  0  0  0  0  0  0  0  0  0
  1  2  1  0
  2  3  1  0
  3  4  2  0
  3  5  1  0
  5  6  2  0
  6  7  1  0
  7  8  2  0
  8  9  1  0
  8 10  1  0
 10 11  1  0
 11 12  1  0
 12 13  2  0
 13 14  1  0
 14 15  2  0
 15 16  1  0
 16 17  1  0
 17 18  2  0
 17 19  1  0
 19 20  1  0
 20 21  1  0
 21 22  2  0
 22 23  1  0
 23 24  2  0
 24 25  1  0
 25 26  2  0
 16 27  2  0
 10 28  2  0
 28  5  1  0
 27 12  1  0
 26 21  1  0
  1 29  1  0
  1 30  1  0
  1 31  1  0
  2 32  1  0
  6 33  1  0
  7 34  1  0
  9 35  1  0
  9 36  1  0
 11 37  1  0
 13 38  1  0
 14 39  1  0
 15 40  1  0
 20 41  1  0
 20 42  1  0
 22 43  1  0
 23 44  1  0
 24 45  1  0
 26 46  1  0
 27 47  1  0
 28 48  1  0
M  CHG  1  19  -1
M  END
>  <UniqueID>  (39) 
39

>  <SMILES>  (39) 
CNC(=O)c1ccc(N)c(Nc2cccc(C(=O)[N-]Cc3cccnc3)c2)c1

>  <Energy>  (39) 
55.71610133774897

>  <Genealogy>  (39) 
CNC(=O)c1ccc(N)c(Nc2cccc(C(=O)[N-]Cc3cccnc3)c2)c1 (protonated)
CNC(=O)c1ccc(N)c(Nc2cccc(C(=O)[N-]Cc3cccnc3)c2)c1 (3D coordinates assigned)
CNC(=O)c1ccc(N)c(Nc2cccc(C(=O)[N-]Cc3cccnc3)c2)c1 (optimized conformer: 55.71610133774897 kcal/mol)

>  <smiles>  (39) 
CNC(=O)c1ccc(N)c(Nc2cccc(C(=O)NCc3cccnc3)c2)c1

>  <score_type>  (39) 
oracle

>  <origin>  (39) 
adg

>  <m_score__min__energy>  (39) 
-10.43

>  <m_primary>  (39) 
energy

$$$$
39:0
     RDKit          3D

 50 52  0  0  0  0  0  0  0  0999 V2000
   57.9880   32.9030   46.2620 C   0  0  0  0  0  0  0  0  0  0  0  0
   58.7270   32.1250   45.1790 C   0  0  0  0  0  0  0  0  0  0  0  0
   59.0460   30.7250   45.6440 C   0  0  0  0  0  0  0  0  0  0  0  0
   58.5110   29.5570   45.1060 C   0  0  0  0  0  0  0  0  0  0  0  0
   57.4540   29.4660   44.0350 C   0  0  0  0  0  0  0  0  0  0  0  0
   56.1210   29.9160   44.5490 C   0  0  0  0  0  0  0  0  0  0  0  0
   55.8530   31.1420   44.6470 O   0  0  0  0  0  0  0  0  0  0  0  0
   55.1480   28.9770   44.8700 O   0  0  0  0  0  0  0  0  0  0  0  0
   59.1340   28.5270   45.8110 C   0  0  0  0  0  0  0  0  0  0  0  0
   59.0000   27.0310   45.6400 C   0  0  0  0  0  0  0  0  0  0  0  0
   57.5850   26.5560   45.9850 C   0  0  0  0  0  0  0  0  0  0  0  0
   60.0680   26.2430   46.4050 C   0  0  0  0  0  0  0  0  0  0  0  0
   60.0110   29.0610   46.6810 N   0  0  0  0  0  0  0  0  0  0  0  0
   59.9640   30.3810   46.5850 N   0  0  0  0  0  0  0  0  0  0  0  0
   60.8170   31.2230   47.3820 C   0  0  0  0  0  0  0  0  0  0  0  0
   60.3160   31.8120   48.5040 N   0  0  0  0  0  0  0  0  0  0  0  0
   61.0890   32.6070   49.2890 C   0  0  0  0  0  0  0  0  0  0  0  0
   62.4240   32.8420   48.9480 C   0  0  0  0  0  0  0  0  0  0  0  0
   63.3120   33.6810   49.8250 C   0  0  0  0  0  0  0  0  0  0  0  0
   64.4880   32.8730   50.2990 C   0  0  0  0  0  0  0  0  0  0  0  0
   64.3030   31.5630   50.7720 C   0  0  0  0  0  0  0  0  0  0  0  0
   65.3920   30.8260   51.2480 C   0  0  0  0  0  0  0  0  0  0  0  0
   66.6700   31.3920   51.2650 C   0  0  0  0  0  0  0  0  0  0  0  0
   67.7190   30.6680   51.7290 F   0  0  0  0  0  0  0  0  0  0  0  0
   66.8610   32.7020   50.8070 C   0  0  0  0  0  0  0  0  0  0  0  0
   68.4600   33.4270   50.8330 Cl  0  0  0  0  0  0  0  0  0  0  0  0
   65.7720   33.4410   50.3300 C   0  0  0  0  0  0  0  0  0  0  0  0
   62.9270   32.2200   47.8010 C   0  0  0  0  0  0  0  0  0  0  0  0
   62.1170   31.4330   47.0470 N   0  0  0  0  0  0  0  0  0  0  0  0
   58.3176   32.5560   47.2524 H   0  0  0  0  0  0  0  0  0  0  0  0
   58.2078   33.9757   46.1575 H   0  0  0  0  0  0  0  0  0  0  0  0
   56.9054   32.7386   46.1575 H   0  0  0  0  0  0  0  0  0  0  0  0
   58.0954   32.0707   44.2800 H   0  0  0  0  0  0  0  0  0  0  0  0
   59.6704   32.6444   44.9550 H   0  0  0  0  0  0  0  0  0  0  0  0
   57.7458   30.1042   43.1879 H   0  0  0  0  0  0  0  0  0  0  0  0
   57.3686   28.4159   43.7186 H   0  0  0  0  0  0  0  0  0  0  0  0
   59.1753   26.8209   44.5746 H   0  0  0  0  0  0  0  0  0  0  0  0
   57.4677   26.5166   47.0780 H   0  0  0  0  0  0  0  0  0  0  0  0
   56.8498   27.2566   45.5624 H   0  0  0  0  0  0  0  0  0  0  0  0
   57.4214   25.5537   45.5624 H   0  0  0  0  0  0  0  0  0  0  0  0
   59.9069   26.3619   47.4866 H   0  0  0  0  0  0  0  0  0  0  0  0
   59.9988   25.1779   46.1388 H   0  0  0  0  0  0  0  0  0  0  0  0
   61.0652   26.6234   46.1388 H   0  0  0  0  0  0  0  0  0  0  0  0
   60.6639   33.0661   50.1937 H   0  0  0  0  0  0  0  0  0  0  0  0
   63.6739   34.5476   49.2523 H   0  0  0  0  0  0  0  0  0  0  0  0
   62.7356   34.0214   50.6979 H   0  0  0  0  0  0  0  0  0  0  0  0
   63.2981   31.1156   50.7679 H   0  0  0  0  0  0  0  0  0  0  0  0
   65.2425   29.7981   51.6100 H   0  0  0  0  0  0  0  0  0  0  0  0
   65.9228   34.4721   49.9776 H   0  0  0  0  0  0  0  0  0  0  0  0
   63.9774   32.3680   47.5099 H   0  0  0  0  0  0  0  0  0  0  0  0
  1  2  1  0
  2  3  1  0
  3  4  2  0
  4  5  1  0
  5  6  1  0
  6  7  2  0
  6  8  1  0
  4  9  1  0
  9 10  1  0
 10 11  1  0
 10 12  1  0
  9 13  2  0
 13 14  1  0
 14 15  1  0
 15 16  2  0
 16 17  1  0
 17 18  2  0
 18 19  1  0
 19 20  1  0
 20 21  2  0
 21 22  1  0
 22 23  2  0
 23 24  1  0
 23 25  1  0
 25 26  1  0
 25 27  2  0
 18 28  1  0
 28 29  2  0
 14  3  1  0
 29 15  1  0
 27 20  1  0
  1 30  1  0
  1 31  1  0
  1 32  1  0
  2 33  1  0
  2 34  1  0
  5 35  1  0
  5 36  1  0
 10 37  1  0
 11 38  1  0
 11 39  1  0
 11 40  1  0
 12 41  1  0
 12 42  1  0
 12 43  1  0
 17 44  1  0
 19 45  1  0
 19 46  1  0
 21 47  1  0
 22 48  1  0
 27 49  1  0
 28 50  1  0
M  CHG  1   8  -1
M  END
>  <UniqueID>  (40) 
40

>  <SMILES>  (40) 
CCc1c(CC(=O)[O-])c(C(C)C)nn1-c1ncc(Cc2ccc(F)c(Cl)c2)cn1

>  <Energy>  (40) 
77.0549305292978

>  <Genealogy>  (40) 
CCc1c(CC(=O)[O-])c(C(C)C)nn1-c1ncc(Cc2ccc(F)c(Cl)c2)cn1 (protonated)
CCc1c(CC(=O)[O-])c(C(C)C)nn1-c1ncc(Cc2ccc(F)c(Cl)c2)cn1 (3D coordinates assigned)
CCc1c(CC(=O)[O-])c(C(C)C)nn1-c1ncc(Cc2ccc(F)c(Cl)c2)cn1 (optimized conformer: 77.0549305292978 kcal/mol)

>  <smiles>  (40) 
CCc1c(CC(=O)O)c(C(C)C)nn1-c1ncc(Cc2ccc(F)c(Cl)c2)cn1

>  <score_type>  (40) 
oracle

>  <origin>  (40) 
adg

>  <m_score__min__energy>  (40) 
-10.67

>  <m_primary>  (40) 
energy

$$$$
40:0
     RDKit          3D

 49 52  0  0  0  0  0  0  0  0999 V2000
   65.9800   32.9600   49.9010 N   0  0  0  0  0  0  0  0  0  0  0  0
   64.6710   33.4720   50.1510 C   0  0  0  0  0  0  0  0  0  0  0  0
   64.3850   33.8850   51.3080 O   0  0  0  0  0  0  0  0  0  0  0  0
   63.6610   33.5190   49.0680 C   0  0  0  0  0  0  0  0  0  0  0  0
   64.0250   33.2340   47.7390 C   0  0  0  0  0  0  0  0  0  0  0  0
   63.0750   33.2770   46.7150 C   0  0  0  0  0  0  0  0  0  0  0  0
   61.7470   33.6050   47.0020 C   0  0  0  0  0  0  0  0  0  0  0  0
   60.8260   33.6450   46.0050 N   0  0  0  0  0  0  0  0  0  0  0  0
   59.5300   33.9660   46.2580 C   0  0  0  0  0  0  0  0  0  0  0  0
   58.5280   33.9580   45.1490 C   0  0  0  0  0  0  0  0  0  0  0  0
   58.1770   32.5420   44.7850 C   0  0  0  0  0  0  0  0  0  0  0  0
   58.3250   31.5120   45.7270 C   0  0  0  0  0  0  0  0  0  0  0  0
   57.9640   30.2010   45.4020 C   0  0  0  0  0  0  0  0  0  0  0  0
   57.4350   29.9000   44.1340 C   0  0  0  0  0  0  0  0  0  0  0  0
   57.0640   28.5600   43.7630 N   0  0  0  0  0  0  0  0  0  0  0  0
   58.1320   27.1930   43.8540 S   0  0  0  0  0  0  0  0  0  0  0  0
   59.3290   27.4830   42.9930 O   0  0  0  0  0  0  0  0  0  0  0  0
   57.4310   25.9770   43.3170 O   0  0  0  0  0  0  0  0  0  0  0  0
   58.6720   26.9130   45.5190 C   0  0  0  0  0  0  0  0  0  0  0  0
   60.0220   27.1370   45.8420 C   0  0  0  0  0  0  0  0  0  0  0  0
   60.5030   26.8640   47.1240 C   0  0  0  0  0  0  0  0  0  0  0  0
   59.6490   26.3520   48.0970 C   0  0  0  0  0  0  0  0  0  0  0  0
   58.3080   26.1150   47.7940 C   0  0  0  0  0  0  0  0  0  0  0  0
   57.7990   26.3990   46.5120 C   0  0  0  0  0  0  0  0  0  0  0  0
   56.4100   26.1490   46.2450 N   0  0  0  0  0  0  0  0  0  0  0  0
   55.8460   25.1590   46.7570 O   0  0  0  0  0  0  0  0  0  0  0  0
   55.6380   27.1000   45.6230 O   0  0  0  0  0  0  0  0  0  0  0  0
   57.2890   30.9340   43.1960 C   0  0  0  0  0  0  0  0  0  0  0  0
   57.6480   32.2460   43.5210 C   0  0  0  0  0  0  0  0  0  0  0  0
   59.1360   34.2360   47.5310 N   0  0  0  0  0  0  0  0  0  0  0  0
   60.0150   34.2120   48.5660 C   0  0  0  0  0  0  0  0  0  0  0  0
   59.6060   34.4740   49.7290 O   0  0  0  0  0  0  0  0  0  0  0  0
   61.3630   33.8920   48.3270 C   0  0  0  0  0  0  0  0  0  0  0  0
   62.3220   33.8490   49.3550 C   0  0  0  0  0  0  0  0  0  0  0  0
   66.3080   32.7800   48.9260 H   0  0  0  0  0  0  0  0  0  0  0  0
   65.0678   32.9748   47.5037 H   0  0  0  0  0  0  0  0  0  0  0  0
   63.3732   33.0521   45.6803 H   0  0  0  0  0  0  0  0  0  0  0  0
   57.6198   34.4865   45.4745 H   0  0  0  0  0  0  0  0  0  0  0  0
   58.9572   34.4615   44.2702 H   0  0  0  0  0  0  0  0  0  0  0  0
   58.7270   31.7374   46.7258 H   0  0  0  0  0  0  0  0  0  0  0  0
   58.0947   29.3990   46.1434 H   0  0  0  0  0  0  0  0  0  0  0  0
   56.0670   28.3610   43.5230 H   0  0  0  0  0  0  0  0  0  0  0  0
   60.7064   27.5315   45.0766 H   0  0  0  0  0  0  0  0  0  0  0  0
   61.5592   27.0539   47.3658 H   0  0  0  0  0  0  0  0  0  0  0  0
   60.0317   26.1343   49.1050 H   0  0  0  0  0  0  0  0  0  0  0  0
   57.6409   25.7018   48.5649 H   0  0  0  0  0  0  0  0  0  0  0  0
   56.8886   30.7103   42.1962 H   0  0  0  0  0  0  0  0  0  0  0  0
   57.5147   33.0493   42.7815 H   0  0  0  0  0  0  0  0  0  0  0  0
   62.0245   34.0745   50.3897 H   0  0  0  0  0  0  0  0  0  0  0  0
  1  2  1  0
  2  3  2  0
  2  4  1  0
  4  5  2  0
  5  6  1  0
  6  7  2  0
  7  8  1  0
  8  9  1  0
  9 10  1  0
 10 11  1  0
 11 12  2  0
 12 13  1  0
 13 14  2  0
 14 15  1  0
 15 16  1  0
 16 17  2  0
 16 18  2  0
 16 19  1  0
 19 20  2  0
 20 21  1  0
 21 22  2  0
 22 23  1  0
 23 24  2  0
 24 25  1  0
 25 26  2  0
 25 27  1  0
 14 28  1  0
 28 29  2  0
  9 30  2  0
 30 31  1  0
 31 32  2  0
 31 33  1  0
 33 34  2  0
 34  4  1  0
 33  7  1  0
 29 11  1  0
 24 19  1  0
  1 35  1  0
  5 36  1  0
  6 37  1  0
 10 38  1  0
 10 39  1  0
 12 40  1  0
 13 41  1  0
 15 42  1  0
 20 43  1  0
 21 44  1  0
 22 45  1  0
 23 46  1  0
 28 47  1  0
 29 48  1  0
 34 49  1  0
M  CHG  4   1  -1   8  -1  25   1  27  -1
M  END
>  <UniqueID>  (41) 
41

>  <SMILES>  (41) 
[NH-]C(=O)c1ccc2[n-]c(Cc3ccc(NS(=O)(=O)c4ccccc4[N+](=O)[O-])cc3)nc(=O)c2c1

>  <Energy>  (41) 
67.50127885139742

>  <Genealogy>  (41) 
[NH-]C(=O)c1ccc2[n-]c(Cc3ccc(NS(=O)(=O)c4ccccc4[N+](=O)[O-])cc3)nc(=O)c2c1 (protonated)
[NH-]C(=O)c1ccc2[n-]c(Cc3ccc(NS(=O)(=O)c4ccccc4[N+](=O)[O-])cc3)nc(=O)c2c1 (3D coordinates assigned)
[NH-]C(=O)c1ccc2[n-]c(Cc3ccc(NS(=O)(=O)c4ccccc4[N+](=O)[O-])cc3)nc(=O)c2c1 (optimized conformer: 67.50127885139742 kcal/mol)

>  <smiles>  (41) 
NC(=O)c1ccc2[nH]c(Cc3ccc(NS(=O)(=O)c4ccccc4[N+](=O)[O-])cc3)nc(=O)c2c1

>  <score_type>  (41) 
oracle

>  <origin>  (41) 
adg

>  <m_score__min__energy>  (41) 
-12.92

>  <m_primary>  (41) 
energy

$$$$
41:0
     RDKit          3D

 49 51  0  0  0  0  0  0  0  0999 V2000
   61.6030   33.9090   46.8060 C   0  0  0  0  0  0  0  0  0  0  0  0
   60.2200   33.7180   46.2400 C   0  0  0  0  0  0  0  0  0  0  0  0
   59.6580   34.7390   45.4580 C   0  0  0  0  0  0  0  0  0  0  0  0
   58.3860   34.5980   44.9130 C   0  0  0  0  0  0  0  0  0  0  0  0
   57.6510   33.4360   45.1430 C   0  0  0  0  0  0  0  0  0  0  0  0
   58.1820   32.3990   45.9280 C   0  0  0  0  0  0  0  0  0  0  0  0
   57.4300   31.1950   46.1470 N   0  0  0  0  0  0  0  0  0  0  0  0
   57.2250   30.1430   45.1960 C   0  0  0  0  0  0  0  0  0  0  0  0
   56.1570   30.0790   44.5290 O   0  0  0  0  0  0  0  0  0  0  0  0
   58.2660   29.0880   45.0270 C   0  0  0  0  0  0  0  0  0  0  0  0
   58.7610   28.4570   46.6620 S   0  0  0  0  0  0  0  0  0  0  0  0
   57.6970   27.0220   46.5590 C   0  0  0  0  0  0  0  0  0  0  0  0
   58.1220   25.8270   47.0470 N   0  0  0  0  0  0  0  0  0  0  0  0
   57.3300   24.7250   46.9870 C   0  0  0  0  0  0  0  0  0  0  0  0
   57.7490   23.6400   47.4670 O   0  0  0  0  0  0  0  0  0  0  0  0
   56.0540   24.8120   46.4050 C   0  0  0  0  0  0  0  0  0  0  0  0
   54.9610   23.4260   46.3180 S   0  0  0  0  0  0  0  0  0  0  0  0
   55.0760   22.6410   47.5950 O   0  0  0  0  0  0  0  0  0  0  0  0
   53.5390   23.8960   46.1800 O   0  0  0  0  0  0  0  0  0  0  0  0
   55.4010   22.4110   44.9670 N   0  0  0  0  0  0  0  0  0  0  0  0
   56.4600   21.4690   45.3680 C   0  0  0  0  0  0  0  0  0  0  0  0
   57.0190   20.7200   44.1410 C   0  0  0  0  0  0  0  0  0  0  0  0
   56.2500   20.9800   42.9840 O   0  0  0  0  0  0  0  0  0  0  0  0
   56.3180   22.3590   42.6690 C   0  0  0  0  0  0  0  0  0  0  0  0
   55.8600   23.2460   43.8460 C   0  0  0  0  0  0  0  0  0  0  0  0
   55.6400   26.0540   45.9160 C   0  0  0  0  0  0  0  0  0  0  0  0
   56.4650   27.1300   46.0010 N   0  0  0  0  0  0  0  0  0  0  0  0
   59.4920   32.5180   46.4520 C   0  0  0  0  0  0  0  0  0  0  0  0
   60.0830   31.4090   47.2940 C   0  0  0  0  0  0  0  0  0  0  0  0
   61.5536   33.9022   47.9049 H   0  0  0  0  0  0  0  0  0  0  0  0
   62.2555   33.0924   46.4632 H   0  0  0  0  0  0  0  0  0  0  0  0
   62.0097   34.8718   46.4632 H   0  0  0  0  0  0  0  0  0  0  0  0
   60.2296   35.6607   45.2741 H   0  0  0  0  0  0  0  0  0  0  0  0
   57.9592   35.4050   44.2993 H   0  0  0  0  0  0  0  0  0  0  0  0
   56.6470   33.3302   44.7062 H   0  0  0  0  0  0  0  0  0  0  0  0
   57.8581   28.2635   44.4238 H   0  0  0  0  0  0  0  0  0  0  0  0
   59.1424   29.5156   44.5181 H   0  0  0  0  0  0  0  0  0  0  0  0
   57.2750   22.0271   45.8521 H   0  0  0  0  0  0  0  0  0  0  0  0
   56.0327   20.7338   46.0658 H   0  0  0  0  0  0  0  0  0  0  0  0
   58.0543   21.0464   43.9635 H   0  0  0  0  0  0  0  0  0  0  0  0
   56.9802   19.6402   44.3472 H   0  0  0  0  0  0  0  0  0  0  0  0
   57.3576   22.6143   42.4159 H   0  0  0  0  0  0  0  0  0  0  0  0
   55.6434   22.5466   41.8206 H   0  0  0  0  0  0  0  0  0  0  0  0
   56.7025   23.8697   44.1795 H   0  0  0  0  0  0  0  0  0  0  0  0
   55.0284   23.8833   43.5109 H   0  0  0  0  0  0  0  0  0  0  0  0
   54.6440   26.1606   45.4613 H   0  0  0  0  0  0  0  0  0  0  0  0
   59.9548   31.6496   48.3597 H   0  0  0  0  0  0  0  0  0  0  0  0
   59.5694   30.4631   47.0673 H   0  0  0  0  0  0  0  0  0  0  0  0
   61.1546   31.3078   47.0673 H   0  0  0  0  0  0  0  0  0  0  0  0
  1  2  1  0
  2  3  2  0
  3  4  1  0
  4  5  2  0
  5  6  1  0
  6  7  1  0
  7  8  1  0
  8  9  2  0
  8 10  1  0
 10 11  1  0
 11 12  1  0
 12 13  2  0
 13 14  1  0
 14 15  2  0
 14 16  1  0
 16 17  1  0
 17 18  2  0
 17 19  2  0
 17 20  1  0
 20 21  1  0
 21 22  1  0
 22 23  1  0
 23 24  1  0
 24 25  1  0
 16 26  2  0
 26 27  1  0
  6 28  2  0
 28 29  1  0
 28  2  1  0
 27 12  1  0
 25 20  1  0
  1 30  1  0
  1 31  1  0
  1 32  1  0
  3 33  1  0
  4 34  1  0
  5 35  1  0
 10 36  1  0
 10 37  1  0
 21 38  1  0
 21 39  1  0
 22 40  1  0
 22 41  1  0
 24 42  1  0
 24 43  1  0
 25 44  1  0
 25 45  1  0
 26 46  1  0
 29 47  1  0
 29 48  1  0
 29 49  1  0
M  CHG  2   7  -1  27  -1
M  END
>  <UniqueID>  (42) 
42

>  <SMILES>  (42) 
Cc1cccc([N-]C(=O)CSc2nc(=O)c(S(=O)(=O)N3CCOCC3)c[n-]2)c1C

>  <Energy>  (42) 
60.10869121632561

>  <Genealogy>  (42) 
Cc1cccc([N-]C(=O)CSc2nc(=O)c(S(=O)(=O)N3CCOCC3)c[n-]2)c1C (protonated)
Cc1cccc([N-]C(=O)CSc2nc(=O)c(S(=O)(=O)N3CCOCC3)c[n-]2)c1C (3D coordinates assigned)
Cc1cccc([N-]C(=O)CSc2nc(=O)c(S(=O)(=O)N3CCOCC3)c[n-]2)c1C (nonaromatic ring conformer: 60.10869121632561 kcal/mol)

>  <smiles>  (42) 
Cc1cccc(NC(=O)CSc2nc(=O)c(S(=O)(=O)N3CCOCC3)c[nH]2)c1C

>  <score_type>  (42) 
oracle

>  <origin>  (42) 
adg

>  <m_score__min__energy>  (42) 
-13.35

>  <m_primary>  (42) 
energy

$$$$
42:0
     RDKit          3D

 46 48  0  0  0  0  0  0  0  0999 V2000
   59.6750   22.2210   44.7820 C   0  0  0  0  0  0  0  0  0  0  0  0
   58.3090   22.8810   45.0080 C   0  0  0  0  0  0  0  0  0  0  0  0
   57.2600   22.3840   44.0110 C   0  0  0  0  0  0  0  0  0  0  0  0
   57.8610   22.6960   46.3880 N   0  0  0  0  0  0  0  0  0  0  0  0
   57.3800   23.7220   47.2660 C   0  0  0  0  0  0  0  0  0  0  0  0
   57.3680   23.5510   48.5130 O   0  0  0  0  0  0  0  0  0  0  0  0
   56.8900   24.9830   46.7030 C   0  0  0  0  0  0  0  0  0  0  0  0
   57.6860   25.9950   46.3110 N   0  0  0  0  0  0  0  0  0  0  0  0
   56.7780   26.8980   45.8810 C   0  0  0  0  0  0  0  0  0  0  0  0
   57.1320   28.2310   45.3500 C   0  0  0  0  0  0  0  0  0  0  0  0
   58.4050   28.7780   45.5900 C   0  0  0  0  0  0  0  0  0  0  0  0
   58.7360   30.0420   45.0940 C   0  0  0  0  0  0  0  0  0  0  0  0
   57.8060   30.7750   44.3410 C   0  0  0  0  0  0  0  0  0  0  0  0
   58.1490   32.1520   43.8400 C   0  0  0  0  0  0  0  0  0  0  0  0
   57.8180   33.1790   44.8770 C   0  0  0  0  0  0  0  0  0  0  0  0
   56.6310   33.2970   45.2820 O   0  0  0  0  0  0  0  0  0  0  0  0
   58.8380   34.0670   45.3470 N   0  0  0  0  0  0  0  0  0  0  0  0
   59.6700   33.8550   46.4950 C   0  0  0  0  0  0  0  0  0  0  0  0
   61.0540   34.0440   46.3630 C   0  0  0  0  0  0  0  0  0  0  0  0
   61.9040   33.8340   47.4550 C   0  0  0  0  0  0  0  0  0  0  0  0
   61.3790   33.4230   48.6840 C   0  0  0  0  0  0  0  0  0  0  0  0
   60.0060   33.2000   48.8190 C   0  0  0  0  0  0  0  0  0  0  0  0
   59.1470   33.3980   47.7250 C   0  0  0  0  0  0  0  0  0  0  0  0
   57.7900   33.1050   47.8540 O   0  0  0  0  0  0  0  0  0  0  0  0
   56.5320   30.2320   44.1040 C   0  0  0  0  0  0  0  0  0  0  0  0
   56.1980   28.9710   44.6030 C   0  0  0  0  0  0  0  0  0  0  0  0
   55.5120   26.4510   46.0130 N   0  0  0  0  0  0  0  0  0  0  0  0
   55.6220   25.2660   46.5240 O   0  0  0  0  0  0  0  0  0  0  0  0
   60.1391   21.9967   45.7537 H   0  0  0  0  0  0  0  0  0  0  0  0
   59.5420   21.2878   44.2151 H   0  0  0  0  0  0  0  0  0  0  0  0
   60.3235   22.9052   44.2151 H   0  0  0  0  0  0  0  0  0  0  0  0
   58.4329   23.9596   44.8311 H   0  0  0  0  0  0  0  0  0  0  0  0
   56.3980   21.9756   44.5588 H   0  0  0  0  0  0  0  0  0  0  0  0
   56.9294   23.2212   43.3787 H   0  0  0  0  0  0  0  0  0  0  0  0
   57.6985   21.5979   43.3787 H   0  0  0  0  0  0  0  0  0  0  0  0
   59.1445   28.2078   46.1714 H   0  0  0  0  0  0  0  0  0  0  0  0
   59.7314   30.4648   45.2951 H   0  0  0  0  0  0  0  0  0  0  0  0
   59.2244   32.1984   43.6136 H   0  0  0  0  0  0  0  0  0  0  0  0
   57.5636   32.3586   42.9319 H   0  0  0  0  0  0  0  0  0  0  0  0
   61.4733   34.3589   45.3960 H   0  0  0  0  0  0  0  0  0  0  0  0
   62.9870   33.9926   47.3461 H   0  0  0  0  0  0  0  0  0  0  0  0
   62.0471   33.2751   49.5452 H   0  0  0  0  0  0  0  0  0  0  0  0
   59.5966   32.8685   49.7847 H   0  0  0  0  0  0  0  0  0  0  0  0
   57.1290   33.3130   47.1150 H   0  0  0  0  0  0  0  0  0  0  0  0
   55.7936   30.8032   43.5222 H   0  0  0  0  0  0  0  0  0  0  0  0
   55.1984   28.5541   44.4106 H   0  0  0  0  0  0  0  0  0  0  0  0
  1  2  1  0
  2  3  1  0
  2  4  1  0
  4  5  1  0
  5  6  2  0
  5  7  1  0
  7  8  2  0
  8  9  1  0
  9 10  1  0
 10 11  2  0
 11 12  1  0
 12 13  2  0
 13 14  1  0
 14 15  1  0
 15 16  2  0
 15 17  1  0
 17 18  1  0
 18 19  2  0
 19 20  1  0
 20 21  2  0
 21 22  1  0
 22 23  2  0
 23 24  1  0
 13 25  1  0
 25 26  2  0
  9 27  2  0
 27 28  1  0
 28  7  1  0
 26 10  1  0
 23 18  1  0
  1 29  1  0
  1 30  1  0
  1 31  1  0
  2 32  1  0
  3 33  1  0
  3 34  1  0
  3 35  1  0
 11 36  1  0
 12 37  1  0
 14 38  1  0
 14 39  1  0
 19 40  1  0
 20 41  1  0
 21 42  1  0
 22 43  1  0
 24 44  1  0
 25 45  1  0
 26 46  1  0
M  CHG  2   4  -1  17  -1
M  END
>  <UniqueID>  (43) 
43

>  <SMILES>  (43) 
CC(C)[N-]C(=O)c1nc(-c2ccc(CC(=O)[N-]c3ccccc3O)cc2)no1

>  <Energy>  (43) 
79.01884366518323

>  <Genealogy>  (43) 
CC(C)[N-]C(=O)c1nc(-c2ccc(CC(=O)[N-]c3ccccc3O)cc2)no1 (protonated)
CC(C)[N-]C(=O)c1nc(-c2ccc(CC(=O)[N-]c3ccccc3O)cc2)no1 (3D coordinates assigned)
CC(C)[N-]C(=O)c1nc(-c2ccc(CC(=O)[N-]c3ccccc3O)cc2)no1 (optimized conformer: 79.01884366518323 kcal/mol)

>  <smiles>  (43) 
CC(C)NC(=O)c1nc(-c2ccc(CC(=O)Nc3ccccc3O)cc2)no1

>  <score_type>  (43) 
oracle

>  <origin>  (43) 
adg

>  <m_score__min__energy>  (43) 
-11.32

>  <m_primary>  (43) 
energy

$$$$
43:0
     RDKit          3D

 62 65  0  0  0  0  0  0  0  0999 V2000
   59.8080   28.6870   50.6350 C   0  0  0  0  0  0  0  0  0  0  0  0
   58.5320   29.4440   50.4920 C   0  0  0  0  0  0  0  0  0  0  0  0
   58.1690   29.8650   49.3610 O   0  0  0  0  0  0  0  0  0  0  0  0
   57.7120   29.6520   51.6440 N   0  0  0  0  0  0  0  0  0  0  0  0
   56.6010   30.5970   51.7210 C   0  0  1  0  0  0  0  0  0  0  0  0
   55.4720   30.0340   52.6110 C   0  0  0  0  0  0  0  0  0  0  0  0
   54.1340   30.6890   52.3640 C   0  0  0  0  0  0  0  0  0  0  0  0
   53.2240   30.8640   53.4200 C   0  0  0  0  0  0  0  0  0  0  0  0
   52.0020   31.5040   53.1990 C   0  0  0  0  0  0  0  0  0  0  0  0
   51.6760   31.9720   51.9220 C   0  0  0  0  0  0  0  0  0  0  0  0
   50.4690   32.6270   51.7100 O   0  0  0  0  0  0  0  0  0  0  0  0
   52.5660   31.7820   50.8620 C   0  0  0  0  0  0  0  0  0  0  0  0
   53.7910   31.1450   51.0790 C   0  0  0  0  0  0  0  0  0  0  0  0
   57.0670   31.9700   52.1800 C   0  0  0  0  0  0  0  0  0  0  0  0
   56.2040   32.8680   52.3700 O   0  0  0  0  0  0  0  0  0  0  0  0
   58.4510   32.3520   52.2050 N   0  0  0  0  0  0  0  0  0  0  0  0
   59.3610   32.3050   51.1000 C   0  0  0  0  0  0  0  0  0  0  0  0
   60.5800   31.6360   51.2500 C   0  0  0  0  0  0  0  0  0  0  0  0
   61.5320   31.6750   50.2300 C   0  0  0  0  0  0  0  0  0  0  0  0
   61.2510   32.3510   49.0350 C   0  0  0  0  0  0  0  0  0  0  0  0
   59.9810   32.9140   48.8230 C   0  0  0  0  0  0  0  0  0  0  0  0
   59.0510   32.9230   49.8770 C   0  0  0  0  0  0  0  0  0  0  0  0
   59.6880   33.5270   47.5470 N   0  0  0  0  0  0  0  0  0  0  0  0
   58.1900   33.1880   46.7230 S   0  0  0  0  0  0  0  0  0  0  0  0
   57.9540   34.2560   45.6920 O   0  0  0  0  0  0  0  0  0  0  0  0
   57.0210   33.1650   47.6660 O   0  0  0  0  0  0  0  0  0  0  0  0
   58.3170   31.6130   45.9470 C   0  0  0  0  0  0  0  0  0  0  0  0
   57.5280   31.3290   44.8250 C   0  0  0  0  0  0  0  0  0  0  0  0
   57.6070   30.0780   44.2070 C   0  0  0  0  0  0  0  0  0  0  0  0
   58.4900   29.1020   44.6950 C   0  0  0  0  0  0  0  0  0  0  0  0
   58.5450   27.7470   44.0550 C   0  0  0  0  0  0  0  0  0  0  0  0
   59.2700   29.3840   45.8280 C   0  0  0  0  0  0  0  0  0  0  0  0
   59.1890   30.6350   46.4460 C   0  0  0  0  0  0  0  0  0  0  0  0
   60.7720   34.0650   46.7070 C   0  0  0  0  0  0  0  0  0  0  0  0
   62.1640   33.8850   47.3320 C   0  0  0  0  0  0  0  0  0  0  0  0
   62.2970   32.4990   47.9680 C   0  0  0  0  0  0  0  0  0  0  0  0
   60.0363   28.5515   51.7025 H   0  0  0  0  0  0  0  0  0  0  0  0
   59.7064   27.7030   50.1540 H   0  0  0  0  0  0  0  0  0  0  0  0
   60.6229   29.2478   50.1540 H   0  0  0  0  0  0  0  0  0  0  0  0
   56.1896   30.7304   50.7096 H   0  0  0  0  0  0  0  0  0  0  0  0
   55.3752   28.9564   52.4123 H   0  0  0  0  0  0  0  0  0  0  0  0
   55.7475   30.2396   53.6559 H   0  0  0  0  0  0  0  0  0  0  0  0
   53.4749   30.4954   54.4256 H   0  0  0  0  0  0  0  0  0  0  0  0
   51.2951   31.6401   54.0307 H   0  0  0  0  0  0  0  0  0  0  0  0
   52.3020   32.1346   49.8541 H   0  0  0  0  0  0  0  0  0  0  0  0
   54.4892   30.9999   50.2415 H   0  0  0  0  0  0  0  0  0  0  0  0
   60.7891   31.0776   52.1744 H   0  0  0  0  0  0  0  0  0  0  0  0
   62.5027   31.1752   50.3641 H   0  0  0  0  0  0  0  0  0  0  0  0
   58.0767   33.4159   49.7437 H   0  0  0  0  0  0  0  0  0  0  0  0
   56.8436   32.0936   44.4288 H   0  0  0  0  0  0  0  0  0  0  0  0
   56.9746   29.8572   43.3345 H   0  0  0  0  0  0  0  0  0  0  0  0
   58.5764   26.9734   44.8364 H   0  0  0  0  0  0  0  0  0  0  0  0
   57.6521   27.6004   43.4296 H   0  0  0  0  0  0  0  0  0  0  0  0
   59.4469   27.6732   43.4296 H   0  0  0  0  0  0  0  0  0  0  0  0
   59.9478   28.6170   46.2310 H   0  0  0  0  0  0  0  0  0  0  0  0
   59.8112   30.8529   47.3265 H   0  0  0  0  0  0  0  0  0  0  0  0
   60.7538   33.5462   45.7372 H   0  0  0  0  0  0  0  0  0  0  0  0
   60.5980   35.1458   46.5990 H   0  0  0  0  0  0  0  0  0  0  0  0
   62.9285   33.9979   46.5492 H   0  0  0  0  0  0  0  0  0  0  0  0
   62.3019   34.6470   48.1132 H   0  0  0  0  0  0  0  0  0  0  0  0
   62.1530   31.7249   47.1999 H   0  0  0  0  0  0  0  0  0  0  0  0
   63.2982   32.3861   48.4094 H   0  0  0  0  0  0  0  0  0  0  0  0
  1  2  1  0
  2  3  2  0
  2  4  1  0
  4  5  1  0
  5  6  1  0
  6  7  1  0
  7  8  2  0
  8  9  1  0
  9 10  2  0
 10 11  1  0
 10 12  1  0
 12 13  2  0
  5 14  1  0
 14 15  2  0
 14 16  1  0
 16 17  1  0
 17 18  2  0
 18 19  1  0
 19 20  2  0
 20 21  1  0
 21 22  2  0
 21 23  1  0
 23 24  1  0
 24 25  2  0
 24 26  2  0
 24 27  1  0
 27 28  2  0
 28 29  1  0
 29 30  2  0
 30 31  1  0
 30 32  1  0
 32 33  2  0
 23 34  1  0
 34 35  1  0
 35 36  1  0
 13  7  1  0
 22 17  1  0
 33 27  1  0
 36 20  1  0
  1 37  1  0
  1 38  1  0
  1 39  1  0
  5 40  1  6
  6 41  1  0
  6 42  1  0
  8 43  1  0
  9 44  1  0
 12 45  1  0
 13 46  1  0
 18 47  1  0
 19 48  1  0
 22 49  1  0
 28 50  1  0
 29 51  1  0
 31 52  1  0
 31 53  1  0
 31 54  1  0
 32 55  1  0
 33 56  1  0
 34 57  1  0
 34 58  1  0
 35 59  1  0
 35 60  1  0
 36 61  1  0
 36 62  1  0
M  CHG  3   4  -1  11  -1  16  -1
M  END
>  <UniqueID>  (44) 
44

>  <SMILES>  (44) 
CC(=O)[N-][C@@H](Cc1ccc([O-])cc1)C(=O)[N-]c1ccc2c(c1)N(S(=O)(=O)c1ccc(C)cc1)CCC2

>  <Energy>  (44) 
71.5429280049419

>  <Genealogy>  (44) 
CC(=O)[N-]C(Cc1ccc([O-])cc1)C(=O)[N-]c1ccc2c(c1)N(S(=O)(=O)c1ccc(C)cc1)CCC2 (protonated)
CC(=O)[N-][C@@H](Cc1ccc([O-])cc1)C(=O)[N-]c1ccc2c(c1)N(S(=O)(=O)c1ccc(C)cc1)CCC2 (chirality)
CC(=O)[N-][C@@H](Cc1ccc([O-])cc1)C(=O)[N-]c1ccc2c(c1)N(S(=O)(=O)c1ccc(C)cc1)CCC2 (3D coordinates assigned)
CC(=O)[N-][C@@H](Cc1ccc([O-])cc1)C(=O)[N-]c1ccc2c(c1)N(S(=O)(=O)c1ccc(C)cc1)CCC2 (nonaromatic ring conformer: 71.5429280049419 kcal/mol)

>  <smiles>  (44) 
CC(=O)NC(Cc1ccc(O)cc1)C(=O)Nc1ccc2c(c1)N(S(=O)(=O)c1ccc(C)cc1)CCC2

>  <score_type>  (44) 
oracle

>  <origin>  (44) 
adg

>  <m_score__min__energy>  (44) 
-15.31

>  <m_primary>  (44) 
energy

$$$$
44:0
     RDKit          3D

 63 68  0  0  0  0  0  0  0  0999 V2000
   62.6480   33.8400   47.6720 C   0  0  0  0  0  0  0  0  0  0  0  0
   61.3140   34.2110   48.1560 N   0  0  0  0  0  0  0  0  0  0  0  0
   60.3080   33.7990   47.2080 C   0  0  0  0  0  0  0  0  0  0  0  0
   59.5930   34.7680   46.4540 C   0  0  0  0  0  0  0  0  0  0  0  0
   58.5810   34.3770   45.5590 C   0  0  0  0  0  0  0  0  0  0  0  0
   58.2900   33.0170   45.4560 C   0  0  0  0  0  0  0  0  0  0  0  0
   57.3360   32.4420   44.7050 N   0  0  0  0  0  0  0  0  0  0  0  0
   57.4050   31.1170   44.9820 C   0  0  0  0  0  0  0  0  0  0  0  0
   56.4920   30.1140   44.4150 C   0  0  0  0  0  0  0  0  0  0  0  0
   55.6640   30.4520   43.5280 O   0  0  0  0  0  0  0  0  0  0  0  0
   56.5490   28.7590   44.8680 N   0  0  0  0  0  0  0  0  0  0  0  0
   57.8520   27.6980   44.4540 S   0  0  0  0  0  0  0  0  0  0  0  0
   59.1390   28.3380   44.8920 O   0  0  0  0  0  0  0  0  0  0  0  0
   57.8800   27.5140   42.9660 O   0  0  0  0  0  0  0  0  0  0  0  0
   57.5820   26.1310   45.2340 C   0  0  0  0  0  0  0  0  0  0  0  0
   56.9080   25.1430   44.4990 C   0  0  0  0  0  0  0  0  0  0  0  0
   56.6210   23.9020   45.0710 C   0  0  0  0  0  0  0  0  0  0  0  0
   57.0070   23.6300   46.3850 C   0  0  0  0  0  0  0  0  0  0  0  0
   57.6880   24.5970   47.1270 C   0  0  0  0  0  0  0  0  0  0  0  0
   57.9920   25.8460   46.5620 C   0  0  0  0  0  0  0  0  0  0  0  0
   58.7450   26.8140   47.3760 C   0  0  0  0  0  0  0  0  0  0  0  0
   58.2010   28.0780   47.6520 C   0  0  0  0  0  0  0  0  0  0  0  0
   58.9140   28.9940   48.4290 C   0  0  0  0  0  0  0  0  0  0  0  0
   60.1790   28.6560   48.9390 C   0  0  0  0  0  0  0  0  0  0  0  0
   60.9680   29.6530   49.7470 C   0  0  0  0  0  0  0  0  0  0  0  0
   60.1260   30.7850   50.1270 N   0  0  0  0  0  0  0  0  0  0  0  0
   60.3880   32.0510   49.8120 N   0  0  0  0  0  0  0  0  0  0  0  0
   59.3970   32.8100   50.3420 C   0  0  0  0  0  0  0  0  0  0  0  0
   59.3390   34.0630   50.2430 O   0  0  0  0  0  0  0  0  0  0  0  0
   58.4930   32.0090   51.0020 C   0  0  0  0  0  0  0  0  0  0  0  0
   57.3170   32.2460   51.7030 C   0  0  0  0  0  0  0  0  0  0  0  0
   56.6630   31.1260   52.2510 C   0  0  0  0  0  0  0  0  0  0  0  0
   57.2140   29.8330   52.0760 C   0  0  0  0  0  0  0  0  0  0  0  0
   58.3770   29.6590   51.3740 N   0  0  0  0  0  0  0  0  0  0  0  0
   58.9890   30.7510   50.8500 C   0  0  0  0  0  0  0  0  0  0  0  0
   60.7250   27.3960   48.6550 C   0  0  0  0  0  0  0  0  0  0  0  0
   60.0160   26.4820   47.8720 C   0  0  0  0  0  0  0  0  0  0  0  0
   58.4150   30.8510   45.9040 C   0  0  0  0  0  0  0  0  0  0  0  0
   58.9670   32.0800   46.1890 C   0  0  0  0  0  0  0  0  0  0  0  0
   59.9860   32.4280   47.0700 C   0  0  0  0  0  0  0  0  0  0  0  0
   63.3112   33.6556   48.5300 H   0  0  0  0  0  0  0  0  0  0  0  0
   62.5760   32.9278   47.0615 H   0  0  0  0  0  0  0  0  0  0  0  0
   63.0573   34.6584   47.0615 H   0  0  0  0  0  0  0  0  0  0  0  0
   61.2720   35.2500   48.2880 H   0  0  0  0  0  0  0  0  0  0  0  0
   61.1510   33.7580   49.0880 H   0  0  0  0  0  0  0  0  0  0  0  0
   59.8334   35.8350   46.5715 H   0  0  0  0  0  0  0  0  0  0  0  0
   58.0361   35.1207   44.9590 H   0  0  0  0  0  0  0  0  0  0  0  0
   56.6610   32.9240   44.0690 H   0  0  0  0  0  0  0  0  0  0  0  0
   56.6030   25.3485   43.4623 H   0  0  0  0  0  0  0  0  0  0  0  0
   56.0898   23.1372   44.4854 H   0  0  0  0  0  0  0  0  0  0  0  0
   56.7746   22.6538   46.8356 H   0  0  0  0  0  0  0  0  0  0  0  0
   57.9887   24.3787   48.1623 H   0  0  0  0  0  0  0  0  0  0  0  0
   57.2110   28.3479   47.2556 H   0  0  0  0  0  0  0  0  0  0  0  0
   58.4836   29.9836   48.6424 H   0  0  0  0  0  0  0  0  0  0  0  0
   61.3475   29.1630   50.6558 H   0  0  0  0  0  0  0  0  0  0  0  0
   61.8057   30.0219   49.1369 H   0  0  0  0  0  0  0  0  0  0  0  0
   56.9151   33.2627   51.8244 H   0  0  0  0  0  0  0  0  0  0  0  0
   55.7266   31.2548   52.8136 H   0  0  0  0  0  0  0  0  0  0  0  0
   56.7029   28.9601   52.5081 H   0  0  0  0  0  0  0  0  0  0  0  0
   61.7154   27.1263   49.0503 H   0  0  0  0  0  0  0  0  0  0  0  0
   60.4545   25.4995   47.6433 H   0  0  0  0  0  0  0  0  0  0  0  0
   58.7075   29.8733   46.3145 H   0  0  0  0  0  0  0  0  0  0  0  0
   60.5258   31.6595   47.6428 H   0  0  0  0  0  0  0  0  0  0  0  0
  1  2  1  0
  2  3  1  0
  3  4  2  0
  4  5  1  0
  5  6  2  0
  6  7  1  0
  7  8  1  0
  8  9  1  0
  9 10  2  0
  9 11  1  0
 11 12  1  0
 12 13  2  0
 12 14  2  0
 12 15  1  0
 15 16  2  0
 16 17  1  0
 17 18  2  0
 18 19  1  0
 19 20  2  0
 20 21  1  0
 21 22  2  0
 22 23  1  0
 23 24  2  0
 24 25  1  0
 25 26  1  0
 26 27  1  0
 27 28  1  0
 28 29  2  0
 28 30  1  0
 30 31  2  0
 31 32  1  0
 32 33  2  0
 33 34  1  0
 34 35  2  0
 24 36  1  0
 36 37  2  0
  8 38  2  0
 38 39  1  0
 39 40  2  0
 40  3  1  0
 39  6  1  0
 20 15  1  0
 37 21  1  0
 35 26  1  0
 35 30  1  0
  1 41  1  0
  1 42  1  0
  1 43  1  0
  2 44  1  0
  2 45  1  0
  4 46  1  0
  5 47  1  0
  7 48  1  0
 16 49  1  0
 17 50  1  0
 18 51  1  0
 19 52  1  0
 22 53  1  0
 23 54  1  0
 25 55  1  0
 25 56  1  0
 31 57  1  0
 32 58  1  0
 33 59  1  0
 36 60  1  0
 37 61  1  0
 38 62  1  0
 40 63  1  0
M  CHG  3   2   1  11  -1  27  -1
M  END
>  <UniqueID>  (45) 
45

>  <SMILES>  (45) 
C[NH2+]c1ccc2[nH]c(C(=O)[N-]S(=O)(=O)c3ccccc3-c3ccc(Cn4[n-]c(=O)c5cccnc54)cc3)cc2c1

>  <Energy>  (45) 
156.6089672730996

>  <Genealogy>  (45) 
C[NH2+]c1ccc2[nH]c(C(=O)[N-]S(=O)(=O)c3ccccc3-c3ccc(Cn4[n-]c(=O)c5cccnc54)cc3)cc2c1 (protonated)
C[NH2+]c1ccc2[nH]c(C(=O)[N-]S(=O)(=O)c3ccccc3-c3ccc(Cn4[n-]c(=O)c5cccnc54)cc3)cc2c1 (3D coordinates assigned)
C[NH2+]c1ccc2[nH]c(C(=O)[N-]S(=O)(=O)c3ccccc3-c3ccc(Cn4[n-]c(=O)c5cccnc54)cc3)cc2c1 (optimized conformer: 156.6089672730996 kcal/mol)

>  <smiles>  (45) 
CNc1ccc2[nH]c(C(=O)NS(=O)(=O)c3ccccc3-c3ccc(Cn4[nH]c(=O)c5cccnc54)cc3)cc2c1

>  <score_type>  (45) 
oracle

>  <origin>  (45) 
adg

>  <m_score__min__energy>  (45) 
-11.94

>  <m_primary>  (45) 
energy

$$$$
45:0
     RDKit          3D

 55 58  0  0  0  0  0  0  0  0999 V2000
   60.4160   26.2090   46.6890 C   0  0  0  0  0  0  0  0  0  0  0  0
   59.7730   27.5720   46.3480 C   0  0  2  0  0  0  0  0  0  0  0  0
   59.5810   28.4620   47.5590 C   0  0  0  0  0  0  0  0  0  0  0  0
   58.7780   28.1040   48.4620 O   0  0  0  0  0  0  0  0  0  0  0  0
   60.2680   29.7110   47.7090 N   0  0  0  0  0  0  0  0  0  0  0  0
   59.8380   30.9570   47.1480 C   0  0  0  0  0  0  0  0  0  0  0  0
   60.7510   32.0370   47.1060 C   0  0  0  0  0  0  0  0  0  0  0  0
   60.3630   33.2820   46.5770 C   0  0  0  0  0  0  0  0  0  0  0  0
   59.0590   33.4120   46.1130 C   0  0  0  0  0  0  0  0  0  0  0  0
   58.1730   32.3850   46.1620 C   0  0  0  0  0  0  0  0  0  0  0  0
   58.5160   31.1380   46.6760 C   0  0  0  0  0  0  0  0  0  0  0  0
   56.9600   32.7990   45.6460 O   0  0  0  0  0  0  0  0  0  0  0  0
   57.0920   34.1700   45.2460 C   0  0  0  0  0  0  0  0  0  0  0  0
   58.4480   34.5210   45.5610 O   0  0  0  0  0  0  0  0  0  0  0  0
   58.4910   27.4430   45.5890 N   0  0  0  0  0  0  0  0  0  0  0  0
   58.0320   26.0350   45.5130 C   0  0  0  0  0  0  0  0  0  0  0  0
   56.8610   25.8050   46.4340 C   0  0  0  0  0  0  0  0  0  0  0  0
   57.0710   25.5390   47.6490 O   0  0  0  0  0  0  0  0  0  0  0  0
   55.5090   25.9530   45.9860 N   0  0  0  0  0  0  0  0  0  0  0  0
   54.6550   24.8530   45.5610 C   0  0  0  0  0  0  0  0  0  0  0  0
   55.4980   23.7820   44.9330 C   0  0  0  0  0  0  0  0  0  0  0  0
   56.0590   22.7670   45.7270 C   0  0  0  0  0  0  0  0  0  0  0  0
   56.8680   21.7850   45.1470 C   0  0  0  0  0  0  0  0  0  0  0  0
   57.1320   21.8150   43.7750 C   0  0  0  0  0  0  0  0  0  0  0  0
   56.5910   22.8300   42.9810 C   0  0  0  0  0  0  0  0  0  0  0  0
   55.7810   23.8140   43.5570 C   0  0  0  0  0  0  0  0  0  0  0  0
   57.3880   28.3230   46.0580 C   0  0  0  0  0  0  0  0  0  0  0  0
   56.7110   29.0210   44.9210 C   0  0  0  0  0  0  0  0  0  0  0  0
   57.3350   29.5590   43.8140 C   0  0  0  0  0  0  0  0  0  0  0  0
   56.3240   30.0880   43.0410 C   0  0  0  0  0  0  0  0  0  0  0  0
   55.1500   29.8440   43.7250 C   0  0  0  0  0  0  0  0  0  0  0  0
   55.4140   29.2070   44.8430 O   0  0  0  0  0  0  0  0  0  0  0  0
   60.4709   26.0926   47.7814 H   0  0  0  0  0  0  0  0  0  0  0  0
   59.8051   25.3989   46.2642 H   0  0  0  0  0  0  0  0  0  0  0  0
   61.4297   26.1653   46.2642 H   0  0  0  0  0  0  0  0  0  0  0  0
   60.5040   28.0624   45.6884 H   0  0  0  0  0  0  0  0  0  0  0  0
   61.7729   31.9024   47.4901 H   0  0  0  0  0  0  0  0  0  0  0  0
   61.0685   34.1248   46.5321 H   0  0  0  0  0  0  0  0  0  0  0  0
   57.7828   30.3189   46.7142 H   0  0  0  0  0  0  0  0  0  0  0  0
   56.9056   34.2775   44.1672 H   0  0  0  0  0  0  0  0  0  0  0  0
   56.3676   34.8208   45.7576 H   0  0  0  0  0  0  0  0  0  0  0  0
   57.7285   25.8096   44.4800 H   0  0  0  0  0  0  0  0  0  0  0  0
   58.8581   25.3770   45.8207 H   0  0  0  0  0  0  0  0  0  0  0  0
   54.1268   24.4402   46.4331 H   0  0  0  0  0  0  0  0  0  0  0  0
   53.9206   25.2195   44.8286 H   0  0  0  0  0  0  0  0  0  0  0  0
   55.8609   22.7450   46.8088 H   0  0  0  0  0  0  0  0  0  0  0  0
   57.2972   20.9877   45.7716 H   0  0  0  0  0  0  0  0  0  0  0  0
   57.7657   21.0396   43.3199 H   0  0  0  0  0  0  0  0  0  0  0  0
   56.8025   22.8550   41.9018 H   0  0  0  0  0  0  0  0  0  0  0  0
   55.3638   24.6161   42.9304 H   0  0  0  0  0  0  0  0  0  0  0  0
   56.6465   27.7104   46.5917 H   0  0  0  0  0  0  0  0  0  0  0  0
   57.8196   29.0882   46.7200 H   0  0  0  0  0  0  0  0  0  0  0  0
   58.4129   29.5645   43.5946 H   0  0  0  0  0  0  0  0  0  0  0  0
   56.4310   30.6012   42.0740 H   0  0  0  0  0  0  0  0  0  0  0  0
   54.1460   30.1383   43.3854 H   0  0  0  0  0  0  0  0  0  0  0  0
  1  2  1  0
  2  3  1  0
  3  4  2  0
  3  5  1  0
  5  6  1  0
  6  7  2  0
  7  8  1  0
  8  9  2  0
  9 10  1  0
 10 11  2  0
 10 12  1  0
 12 13  1  0
 13 14  1  0
  2 15  1  0
 15 16  1  0
 16 17  1  0
 17 18  2  0
 17 19  1  0
 19 20  1  0
 20 21  1  0
 21 22  2  0
 22 23  1  0
 23 24  2  0
 24 25  1  0
 25 26  2  0
 15 27  1  0
 27 28  1  0
 28 29  2  0
 29 30  1  0
 30 31  2  0
 31 32  1  0
 11  6  1  0
 26 21  1  0
 32 28  1  0
 14  9  1  0
  1 33  1  0
  1 34  1  0
  1 35  1  0
  2 36  1  6
  7 37  1  0
  8 38  1  0
 11 39  1  0
 13 40  1  0
 13 41  1  0
 16 42  1  0
 16 43  1  0
 20 44  1  0
 20 45  1  0
 22 46  1  0
 23 47  1  0
 24 48  1  0
 25 49  1  0
 26 50  1  0
 27 51  1  0
 27 52  1  0
 29 53  1  0
 30 54  1  0
 31 55  1  0
M  CHG  2   5  -1  19  -1
M  END
>  <UniqueID>  (46) 
46

>  <SMILES>  (46) 
C[C@H](C(=O)[N-]c1ccc2c(c1)OCO2)N(CC(=O)[N-]Cc1ccccc1)Cc1ccco1

>  <Energy>  (46) 
122.97307193841831

>  <Genealogy>  (46) 
CC(C(=O)[N-]c1ccc2c(c1)OCO2)N(CC(=O)[N-]Cc1ccccc1)Cc1ccco1 (protonated)
C[C@H](C(=O)[N-]c1ccc2c(c1)OCO2)N(CC(=O)[N-]Cc1ccccc1)Cc1ccco1 (chirality)
C[C@H](C(=O)[N-]c1ccc2c(c1)OCO2)N(CC(=O)[N-]Cc1ccccc1)Cc1ccco1 (3D coordinates assigned)
C[C@H](C(=O)[N-]c1ccc2c(c1)OCO2)N(CC(=O)[N-]Cc1ccccc1)Cc1ccco1 (nonaromatic ring conformer: 122.97307193841831 kcal/mol)

>  <smiles>  (46) 
CC(C(=O)Nc1ccc2c(c1)OCO2)N(CC(=O)NCc1ccccc1)Cc1ccco1

>  <score_type>  (46) 
oracle

>  <origin>  (46) 
adg

>  <m_score__min__energy>  (46) 
-11.56

>  <m_primary>  (46) 
energy

$$$$
46:0
     RDKit          3D

 57 60  0  0  0  0  0  0  0  0999 V2000
   56.9380   31.6530   44.8830 O   0  0  0  0  0  0  0  0  0  0  0  0
   57.7620   31.7340   45.8370 C   0  0  0  0  0  0  0  0  0  0  0  0
   58.4190   30.5550   46.3290 N   0  0  0  0  0  0  0  0  0  0  0  0
   58.4270   29.2950   45.6380 C   0  0  0  0  0  0  0  0  0  0  0  0
   59.2290   29.0880   44.5010 C   0  0  0  0  0  0  0  0  0  0  0  0
   59.2430   27.8430   43.8670 C   0  0  0  0  0  0  0  0  0  0  0  0
   58.4680   26.7930   44.3620 C   0  0  0  0  0  0  0  0  0  0  0  0
   57.6750   26.9810   45.5010 C   0  0  0  0  0  0  0  0  0  0  0  0
   56.7250   25.6430   46.1410 S   0  0  0  0  0  0  0  0  0  0  0  0
   56.9960   25.4850   47.6120 O   0  0  0  0  0  0  0  0  0  0  0  0
   55.2650   25.9520   45.9560 O   0  0  0  0  0  0  0  0  0  0  0  0
   57.1220   24.1660   45.2970 N   0  0  0  0  0  0  0  0  0  0  0  0
   56.4030   23.0300   45.9040 C   0  0  0  0  0  0  0  0  0  0  0  0
   56.2990   21.8600   44.9100 C   0  0  0  0  0  0  0  0  0  0  0  0
   55.6090   22.1770   43.7080 O   0  0  0  0  0  0  0  0  0  0  0  0
   55.5890   23.5660   43.4090 C   0  0  0  0  0  0  0  0  0  0  0  0
   56.8700   24.3000   43.8440 C   0  0  0  0  0  0  0  0  0  0  0  0
   57.6680   28.2280   46.1420 C   0  0  0  0  0  0  0  0  0  0  0  0
   58.0260   33.0740   46.4800 C   0  0  0  0  0  0  0  0  0  0  0  0
   58.9790   33.9330   45.6140 C   0  0  0  0  0  0  0  0  0  0  0  0
   60.4220   33.8530   46.1250 C   0  0  0  0  0  0  0  0  0  0  0  0
   60.5410   34.3730   47.5050 N   0  0  0  0  0  0  0  0  0  0  0  0
   62.0260   33.8110   48.2360 S   0  0  0  0  0  0  0  0  0  0  0  0
   63.1200   33.7790   47.2040 O   0  0  0  0  0  0  0  0  0  0  0  0
   62.4340   34.7590   49.3270 O   0  0  0  0  0  0  0  0  0  0  0  0
   61.8360   32.2010   48.9160 C   0  0  0  0  0  0  0  0  0  0  0  0
   62.0960   31.8410   50.2300 C   0  0  0  0  0  0  0  0  0  0  0  0
   61.8310   30.4910   50.4890 C   0  0  0  0  0  0  0  0  0  0  0  0
   61.3660   29.7920   49.3820 C   0  0  0  0  0  0  0  0  0  0  0  0
   61.2810   30.8550   48.0800 S   0  0  0  0  0  0  0  0  0  0  0  0
   59.3710   34.0970   48.3770 C   0  0  0  0  0  0  0  0  0  0  0  0
   58.5570   32.8780   47.9190 C   0  0  0  0  0  0  0  0  0  0  0  0
   58.8420   30.5910   47.2850 H   0  0  0  0  0  0  0  0  0  0  0  0
   59.8473   29.9093   44.1096 H   0  0  0  0  0  0  0  0  0  0  0  0
   59.8672   27.6897   42.9743 H   0  0  0  0  0  0  0  0  0  0  0  0
   58.4801   25.8161   43.8566 H   0  0  0  0  0  0  0  0  0  0  0  0
   56.9465   22.6956   46.8000 H   0  0  0  0  0  0  0  0  0  0  0  0
   55.3879   23.3568   46.1738 H   0  0  0  0  0  0  0  0  0  0  0  0
   57.3177   21.5378   44.6485 H   0  0  0  0  0  0  0  0  0  0  0  0
   55.7180   21.0709   45.4097 H   0  0  0  0  0  0  0  0  0  0  0  0
   55.4686   23.6877   42.3224 H   0  0  0  0  0  0  0  0  0  0  0  0
   54.7529   24.0085   43.9704 H   0  0  0  0  0  0  0  0  0  0  0  0
   57.7247   23.8776   43.2952 H   0  0  0  0  0  0  0  0  0  0  0  0
   56.7409   25.3691   43.6195 H   0  0  0  0  0  0  0  0  0  0  0  0
   57.0617   28.3711   47.0486 H   0  0  0  0  0  0  0  0  0  0  0  0
   57.0787   33.6291   46.5462 H   0  0  0  0  0  0  0  0  0  0  0  0
   58.9458   33.5691   44.5765 H   0  0  0  0  0  0  0  0  0  0  0  0
   58.6489   34.9808   45.6703 H   0  0  0  0  0  0  0  0  0  0  0  0
   60.7482   32.8026   46.1100 H   0  0  0  0  0  0  0  0  0  0  0  0
   61.0538   34.4701   45.4693 H   0  0  0  0  0  0  0  0  0  0  0  0
   62.4712   32.5429   50.9893 H   0  0  0  0  0  0  0  0  0  0  0  0
   61.9771   30.0274   51.4758 H   0  0  0  0  0  0  0  0  0  0  0  0
   61.0988   28.7252   49.3602 H   0  0  0  0  0  0  0  0  0  0  0  0
   59.7315   33.9138   49.4000 H   0  0  0  0  0  0  0  0  0  0  0  0
   58.7084   34.9736   48.3265 H   0  0  0  0  0  0  0  0  0  0  0  0
   59.1995   31.9856   47.9467 H   0  0  0  0  0  0  0  0  0  0  0  0
   57.6982   32.7563   48.5955 H   0  0  0  0  0  0  0  0  0  0  0  0
  1  2  2  0
  2  3  1  0
  3  4  1  0
  4  5  2  0
  5  6  1  0
  6  7  2  0
  7  8  1  0
  8  9  1  0
  9 10  2  0
  9 11  2  0
  9 12  1  0
 12 13  1  0
 13 14  1  0
 14 15  1  0
 15 16  1  0
 16 17  1  0
  8 18  2  0
  2 19  1  0
 19 20  1  0
 20 21  1  0
 21 22  1  0
 22 23  1  0
 23 24  2  0
 23 25  2  0
 23 26  1  0
 26 27  2  0
 27 28  1  0
 28 29  2  0
 29 30  1  0
 22 31  1  0
 31 32  1  0
 18  4  1  0
 32 19  1  0
 17 12  1  0
 30 26  1  0
  3 33  1  0
  5 34  1  0
  6 35  1  0
  7 36  1  0
 13 37  1  0
 13 38  1  0
 14 39  1  0
 14 40  1  0
 16 41  1  0
 16 42  1  0
 17 43  1  0
 17 44  1  0
 18 45  1  0
 19 46  1  0
 20 47  1  0
 20 48  1  0
 21 49  1  0
 21 50  1  0
 27 51  1  0
 28 52  1  0
 29 53  1  0
 31 54  1  0
 31 55  1  0
 32 56  1  0
 32 57  1  0
M  END
>  <UniqueID>  (47) 
47

>  <SMILES>  (47) 
O=C(Nc1cccc(S(=O)(=O)N2CCOCC2)c1)C1CCN(S(=O)(=O)c2cccs2)CC1

>  <Energy>  (47) 
105.35411565304825

>  <Genealogy>  (47) 
O=C(Nc1cccc(S(=O)(=O)N2CCOCC2)c1)C1CCN(S(=O)(=O)c2cccs2)CC1 (3D coordinates assigned)
O=C(Nc1cccc(S(=O)(=O)N2CCOCC2)c1)C1CCN(S(=O)(=O)c2cccs2)CC1 (nonaromatic ring conformer: 105.35411565304825 kcal/mol)

>  <smiles>  (47) 
O=C(Nc1cccc(S(=O)(=O)N2CCOCC2)c1)C1CCN(S(=O)(=O)c2cccs2)CC1

>  <score_type>  (47) 
oracle

>  <origin>  (47) 
adg

>  <m_score__min__energy>  (47) 
-10.74

>  <m_primary>  (47) 
energy

$$$$
47:0
     RDKit          3D

 61 65  0  0  0  0  0  0  0  0999 V2000
   57.5270   20.4980   47.5590 O   0  0  0  0  0  0  0  0  0  0  0  0
   56.9680   21.6130   47.7330 C   0  0  0  0  0  0  0  0  0  0  0  0
   56.1840   21.8190   48.9170 N   0  0  0  0  0  0  0  0  0  0  0  0
   56.3490   21.1140   50.1860 C   0  0  0  0  0  0  0  0  0  0  0  0
   57.7090   21.3730   50.7770 C   0  0  0  0  0  0  0  0  0  0  0  0
   57.9830   22.6020   51.3990 C   0  0  0  0  0  0  0  0  0  0  0  0
   59.2390   22.8350   51.9710 C   0  0  0  0  0  0  0  0  0  0  0  0
   60.2260   21.8480   51.9240 C   0  0  0  0  0  0  0  0  0  0  0  0
   61.4410   22.0750   52.4810 F   0  0  0  0  0  0  0  0  0  0  0  0
   59.9610   20.6230   51.3030 C   0  0  0  0  0  0  0  0  0  0  0  0
   58.7080   20.3860   50.7330 C   0  0  0  0  0  0  0  0  0  0  0  0
   57.1010   22.6490   46.6920 C   0  0  0  0  0  0  0  0  0  0  0  0
   57.9530   22.3960   45.6080 C   0  0  0  0  0  0  0  0  0  0  0  0
   58.0830   23.3270   44.5800 C   0  0  0  0  0  0  0  0  0  0  0  0
   57.3620   24.5190   44.6210 C   0  0  0  0  0  0  0  0  0  0  0  0
   56.5110   24.8030   45.7020 C   0  0  0  0  0  0  0  0  0  0  0  0
   55.6970   26.0750   45.6790 C   0  0  0  0  0  0  0  0  0  0  0  0
   56.6020   27.2640   45.8360 C   0  0  0  0  0  0  0  0  0  0  0  0
   56.3530   28.5570   45.4000 C   0  0  0  0  0  0  0  0  0  0  0  0
   55.1480   28.9690   44.8430 O   0  0  0  0  0  0  0  0  0  0  0  0
   57.4430   29.3550   45.5490 N   0  0  0  0  0  0  0  0  0  0  0  0
   57.5920   30.7280   45.1250 C   0  0  0  0  0  0  0  0  0  0  0  0
   56.5700   31.4190   44.8670 O   0  0  0  0  0  0  0  0  0  0  0  0
   58.9410   31.3850   44.9950 C   0  0  0  0  0  0  0  0  0  0  0  0
   59.1190   32.5410   45.9520 C   0  0  0  0  0  0  0  0  0  0  0  0
   59.3190   32.3210   47.3290 C   0  0  0  0  0  0  0  0  0  0  0  0
   59.4210   33.4000   48.2110 C   0  0  0  0  0  0  0  0  0  0  0  0
   59.2950   34.7080   47.7370 C   0  0  0  0  0  0  0  0  0  0  0  0
   59.0680   34.9370   46.3770 C   0  0  0  0  0  0  0  0  0  0  0  0
   58.9780   33.8610   45.4900 C   0  0  0  0  0  0  0  0  0  0  0  0
   58.3930   28.5540   46.0940 C   0  0  0  0  0  0  0  0  0  0  0  0
   59.7050   28.8830   46.4700 C   0  0  0  0  0  0  0  0  0  0  0  0
   60.5190   27.8700   47.0060 C   0  0  0  0  0  0  0  0  0  0  0  0
   60.0240   26.5600   47.1620 C   0  0  0  0  0  0  0  0  0  0  0  0
   58.7050   26.2520   46.7950 C   0  0  0  0  0  0  0  0  0  0  0  0
   57.9120   27.2740   46.2710 C   0  0  0  0  0  0  0  0  0  0  0  0
   56.3970   23.8740   46.7590 C   0  0  0  0  0  0  0  0  0  0  0  0
   55.6040   24.1900   47.8660 O   0  0  0  0  0  0  0  0  0  0  0  0
   55.5790   21.4593   50.8916 H   0  0  0  0  0  0  0  0  0  0  0  0
   56.2481   20.0343   50.0015 H   0  0  0  0  0  0  0  0  0  0  0  0
   57.2091   23.3829   51.4367 H   0  0  0  0  0  0  0  0  0  0  0  0
   59.4493   23.7982   52.4589 H   0  0  0  0  0  0  0  0  0  0  0  0
   60.7391   19.8465   51.2635 H   0  0  0  0  0  0  0  0  0  0  0  0
   58.5022   19.4210   50.2468 H   0  0  0  0  0  0  0  0  0  0  0  0
   58.5228   21.4559   45.5689 H   0  0  0  0  0  0  0  0  0  0  0  0
   58.7558   23.1210   43.7345 H   0  0  0  0  0  0  0  0  0  0  0  0
   57.4602   25.2439   43.7995 H   0  0  0  0  0  0  0  0  0  0  0  0
   55.1616   26.1481   44.7209 H   0  0  0  0  0  0  0  0  0  0  0  0
   54.9745   26.0577   46.5083 H   0  0  0  0  0  0  0  0  0  0  0  0
   59.7193   30.6351   45.1997 H   0  0  0  0  0  0  0  0  0  0  0  0
   59.0204   31.7834   43.9728 H   0  0  0  0  0  0  0  0  0  0  0  0
   59.3954   31.2929   47.7125 H   0  0  0  0  0  0  0  0  0  0  0  0
   59.6009   33.2190   49.2810 H   0  0  0  0  0  0  0  0  0  0  0  0
   59.3743   35.5562   48.4328 H   0  0  0  0  0  0  0  0  0  0  0  0
   58.9600   35.9662   46.0042 H   0  0  0  0  0  0  0  0  0  0  0  0
   58.7953   34.0485   44.4216 H   0  0  0  0  0  0  0  0  0  0  0  0
   60.0864   29.9076   46.3483 H   0  0  0  0  0  0  0  0  0  0  0  0
   61.5515   28.1020   47.3063 H   0  0  0  0  0  0  0  0  0  0  0  0
   60.6749   25.7746   47.5736 H   0  0  0  0  0  0  0  0  0  0  0  0
   58.3073   25.2337   46.9169 H   0  0  0  0  0  0  0  0  0  0  0  0
   55.4560   23.5520   48.6380 H   0  0  0  0  0  0  0  0  0  0  0  0
  1  2  2  0
  2  3  1  0
  3  4  1  0
  4  5  1  0
  5  6  2  0
  6  7  1  0
  7  8  2  0
  8  9  1  0
  8 10  1  0
 10 11  2  0
  2 12  1  0
 12 13  2  0
 13 14  1  0
 14 15  2  0
 15 16  1  0
 16 17  1  0
 17 18  1  0
 18 19  2  0
 19 20  1  0
 19 21  1  0
 21 22  1  0
 22 23  2  0
 22 24  1  0
 24 25  1  0
 25 26  2  0
 26 27  1  0
 27 28  2  0
 28 29  1  0
 29 30  2  0
 21 31  1  0
 31 32  2  0
 32 33  1  0
 33 34  2  0
 34 35  1  0
 35 36  2  0
 16 37  2  0
 37 38  1  0
 11  5  1  0
 37 12  1  0
 36 18  1  0
 30 25  1  0
 36 31  1  0
  4 39  1  0
  4 40  1  0
  6 41  1  0
  7 42  1  0
 10 43  1  0
 11 44  1  0
 13 45  1  0
 14 46  1  0
 15 47  1  0
 17 48  1  0
 17 49  1  0
 24 50  1  0
 24 51  1  0
 26 52  1  0
 27 53  1  0
 28 54  1  0
 29 55  1  0
 30 56  1  0
 32 57  1  0
 33 58  1  0
 34 59  1  0
 35 60  1  0
 38 61  1  0
M  CHG  2   3  -1  20  -1
M  END
>  <UniqueID>  (48) 
48

>  <SMILES>  (48) 
O=C([N-]Cc1ccc(F)cc1)c1cccc(Cc2c([O-])n(C(=O)Cc3ccccc3)c3ccccc23)c1O

>  <Energy>  (48) 
102.6368030017

>  <Genealogy>  (48) 
O=C([N-]Cc1ccc(F)cc1)c1cccc(Cc2c([O-])n(C(=O)Cc3ccccc3)c3ccccc23)c1O (protonated)
O=C([N-]Cc1ccc(F)cc1)c1cccc(Cc2c([O-])n(C(=O)Cc3ccccc3)c3ccccc23)c1O (3D coordinates assigned)
O=C([N-]Cc1ccc(F)cc1)c1cccc(Cc2c([O-])n(C(=O)Cc3ccccc3)c3ccccc23)c1O (optimized conformer: 102.6368030017 kcal/mol)

>  <smiles>  (48) 
O=C(NCc1ccc(F)cc1)c1cccc(Cc2c(O)n(C(=O)Cc3ccccc3)c3ccccc23)c1O

>  <score_type>  (48) 
oracle

>  <origin>  (48) 
adg

>  <m_score__min__energy>  (48) 
-15.15

>  <m_primary>  (48) 
energy

$$$$
48:0
     RDKit          3D

 47 50  0  0  0  0  0  0  0  0999 V2000
   56.4230   28.9920   45.3140 O   0  0  0  0  0  0  0  0  0  0  0  0
   57.5110   28.3730   45.4590 C   0  0  0  0  0  0  0  0  0  0  0  0
   57.6540   27.0080   44.8470 C   0  0  0  0  0  0  0  0  0  0  0  0
   57.1390   25.9590   45.7830 C   0  0  0  0  0  0  0  0  0  0  0  0
   57.8860   24.9630   46.2890 N   0  0  0  0  0  0  0  0  0  0  0  0
   57.0190   24.2960   47.0810 C   0  0  0  0  0  0  0  0  0  0  0  0
   57.3510   23.2780   47.7430 O   0  0  0  0  0  0  0  0  0  0  0  0
   55.7690   24.8060   47.1120 N   0  0  0  0  0  0  0  0  0  0  0  0
   55.8630   25.8590   46.2840 C   0  0  0  0  0  0  0  0  0  0  0  0
   54.8050   26.7130   45.9950 O   0  0  0  0  0  0  0  0  0  0  0  0
   58.5660   28.9630   46.2400 N   0  0  0  0  0  0  0  0  0  0  0  0
   59.2510   28.3030   47.3380 C   0  0  0  0  0  0  0  0  0  0  0  0
   60.3900   29.2380   47.7150 C   0  0  0  0  0  0  0  0  0  0  0  0
   59.9650   30.6390   47.2070 C   0  0  1  0  0  0  0  0  0  0  0  0
   59.1400   31.4150   48.2880 C   0  0  0  0  0  0  0  0  0  0  0  0
   59.9120   32.4910   48.9400 N   0  0  0  0  0  0  0  0  0  0  0  0
   59.6000   33.8670   48.4870 C   0  0  0  0  0  0  0  0  0  0  0  0
   59.0050   33.9280   47.1050 C   0  0  0  0  0  0  0  0  0  0  0  0
   57.6550   33.6140   46.8860 C   0  0  0  0  0  0  0  0  0  0  0  0
   57.1420   33.6580   45.5890 C   0  0  0  0  0  0  0  0  0  0  0  0
   57.9700   34.0240   44.5270 C   0  0  0  0  0  0  0  0  0  0  0  0
   59.3050   34.3470   44.7820 C   0  0  0  0  0  0  0  0  0  0  0  0
   59.7880   34.2930   46.0520 N   0  0  0  0  0  0  0  0  0  0  0  0
   61.3460   32.1920   49.0970 C   0  0  0  0  0  0  0  0  0  0  0  0
   61.9960   31.6690   47.8000 C   0  0  0  0  0  0  0  0  0  0  0  0
   61.0690   31.4080   46.7600 O   0  0  0  0  0  0  0  0  0  0  0  0
   59.0810   30.2990   45.9910 C   0  0  0  0  0  0  0  0  0  0  0  0
   57.0807   26.9696   43.9090 H   0  0  0  0  0  0  0  0  0  0  0  0
   58.7187   26.8164   44.6478 H   0  0  0  0  0  0  0  0  0  0  0  0
   58.5691   28.1624   48.1896 H   0  0  0  0  0  0  0  0  0  0  0  0
   59.6147   27.3040   47.0554 H   0  0  0  0  0  0  0  0  0  0  0  0
   60.5305   29.2515   48.8059 H   0  0  0  0  0  0  0  0  0  0  0  0
   61.3440   28.9166   47.2717 H   0  0  0  0  0  0  0  0  0  0  0  0
   58.2585   31.8602   47.8034 H   0  0  0  0  0  0  0  0  0  0  0  0
   58.8586   30.6926   49.0684 H   0  0  0  0  0  0  0  0  0  0  0  0
   58.8836   34.3114   49.1936 H   0  0  0  0  0  0  0  0  0  0  0  0
   60.5514   34.4180   48.4524 H   0  0  0  0  0  0  0  0  0  0  0  0
   57.0065   33.3355   47.7297 H   0  0  0  0  0  0  0  0  0  0  0  0
   56.0876   33.4048   45.4042 H   0  0  0  0  0  0  0  0  0  0  0  0
   57.5759   34.0578   43.5006 H   0  0  0  0  0  0  0  0  0  0  0  0
   59.9660   34.6452   43.9548 H   0  0  0  0  0  0  0  0  0  0  0  0
   61.8649   33.1124   49.4031 H   0  0  0  0  0  0  0  0  0  0  0  0
   61.4367   31.3994   49.8543 H   0  0  0  0  0  0  0  0  0  0  0  0
   62.7138   32.4225   47.4436 H   0  0  0  0  0  0  0  0  0  0  0  0
   62.4781   30.7116   48.0470 H   0  0  0  0  0  0  0  0  0  0  0  0
   58.2538   31.0190   45.9050 H   0  0  0  0  0  0  0  0  0  0  0  0
   59.6492   30.3461   45.0503 H   0  0  0  0  0  0  0  0  0  0  0  0
  1  2  2  0
  2  3  1  0
  3  4  1  0
  4  5  1  0
  5  6  1  0
  6  7  2  0
  6  8  1  0
  8  9  1  0
  9 10  1  0
  2 11  1  0
 11 12  1  0
 12 13  1  0
 13 14  1  0
 14 15  1  0
 15 16  1  0
 16 17  1  0
 17 18  1  0
 18 19  2  0
 19 20  1  0
 20 21  2  0
 21 22  1  0
 22 23  2  0
 16 24  1  0
 24 25  1  0
 25 26  1  0
 14 27  1  0
  9  4  2  0
 27 11  1  0
 14 26  1  6
 23 18  1  0
  3 28  1  0
  3 29  1  0
 12 30  1  0
 12 31  1  0
 13 32  1  0
 13 33  1  0
 15 34  1  0
 15 35  1  0
 17 36  1  0
 17 37  1  0
 19 38  1  0
 20 39  1  0
 21 40  1  0
 22 41  1  0
 24 42  1  0
 24 43  1  0
 25 44  1  0
 25 45  1  0
 27 46  1  0
 27 47  1  0
M  CHG  3   5  -1   8  -1  10  -1
M  END
>  <UniqueID>  (49) 
49

>  <SMILES>  (49) 
O=C(Cc1[n-]c(=O)[n-]c1[O-])N1CC[C@]2(CN(Cc3ccccn3)CCO2)C1

>  <Energy>  (49) 
97.28995115563225

>  <Genealogy>  (49) 
O=C(Cc1[n-]c(=O)[n-]c1[O-])N1CCC2(CN(Cc3ccccn3)CCO2)C1 (protonated)
O=C(Cc1[n-]c(=O)[n-]c1[O-])N1CC[C@]2(CN(Cc3ccccn3)CCO2)C1 (chirality)
O=C(Cc1[n-]c(=O)[n-]c1[O-])N1CC[C@]2(CN(Cc3ccccn3)CCO2)C1 (3D coordinates assigned)
O=C(Cc1[n-]c(=O)[n-]c1[O-])N1CC[C@]2(CN(Cc3ccccn3)CCO2)C1 (nonaromatic ring conformer: 97.28995115563225 kcal/mol)

>  <smiles>  (49) 
O=C(Cc1[nH]c(=O)[nH]c1O)N1CCC2(CN(Cc3ccccn3)CCO2)C1

>  <score_type>  (49) 
oracle

>  <origin>  (49) 
adg

>  <m_score__min__energy>  (49) 
-16.75

>  <m_primary>  (49) 
energy

$$$$
49:0
     RDKit          3D

 67 70  0  0  0  0  0  0  0  0999 V2000
   56.6260   30.6350   43.2620 C   0  0  0  0  0  0  0  0  0  0  0  0
   56.6350   31.2570   44.5440 O   0  0  0  0  0  0  0  0  0  0  0  0
   57.5430   32.2520   44.9430 C   0  0  0  0  0  0  0  0  0  0  0  0
   57.4090   33.5850   44.5040 C   0  0  0  0  0  0  0  0  0  0  0  0
   58.2540   34.5800   44.9960 C   0  0  0  0  0  0  0  0  0  0  0  0
   59.2440   34.2610   45.9230 C   0  0  0  0  0  0  0  0  0  0  0  0
   59.3990   32.9410   46.3530 C   0  0  0  0  0  0  0  0  0  0  0  0
   58.5860   31.9230   45.8410 C   0  0  0  0  0  0  0  0  0  0  0  0
   58.8020   30.5870   46.3240 N   0  0  0  0  0  0  0  0  0  0  0  0
   60.0260   30.0570   46.8570 C   0  0  0  0  0  0  0  0  0  0  0  0
   61.0240   29.8830   46.1060 O   0  0  0  0  0  0  0  0  0  0  0  0
   60.1280   29.7610   48.2580 N   0  0  0  0  0  0  0  0  0  0  0  0
   60.3680   28.3900   48.7320 C   0  0  0  0  0  0  0  0  0  0  0  0
   59.3400   27.4120   48.1370 C   0  0  0  0  0  0  0  0  0  0  0  0
   59.8010   26.8410   46.7850 C   0  0  0  0  0  0  0  0  0  0  0  0
   58.6400   26.3500   46.0040 N   0  0  0  0  0  0  0  0  0  0  0  0
   57.3880   26.9600   46.4720 C   0  0  0  0  0  0  0  0  0  0  0  0
   57.1510   28.2060   45.6450 C   0  0  0  0  0  0  0  0  0  0  0  0
   57.8450   27.9300   44.3280 C   0  0  0  0  0  0  0  0  0  0  0  0
   58.7400   26.7200   44.5770 C   0  0  0  0  0  0  0  0  0  0  0  0
   59.8900   30.7970   49.2250 C   0  0  0  0  0  0  0  0  0  0  0  0
   58.9020   30.6180   50.2050 C   0  0  0  0  0  0  0  0  0  0  0  0
   58.6910   31.5960   51.1820 C   0  0  0  0  0  0  0  0  0  0  0  0
   57.4460   31.3690   52.3960 Cl  0  0  0  0  0  0  0  0  0  0  0  0
   59.4710   32.7540   51.1910 C   0  0  0  0  0  0  0  0  0  0  0  0
   60.4600   32.9390   50.2230 C   0  0  0  0  0  0  0  0  0  0  0  0
   60.6820   31.9670   49.2320 C   0  0  0  0  0  0  0  0  0  0  0  0
   61.6710   32.1770   48.2100 N   0  0  0  0  0  0  0  0  0  0  0  0
   63.0380   33.2220   48.4380 S   0  0  0  0  0  0  0  0  0  0  0  0
   62.5750   34.5810   48.8910 O   0  0  0  0  0  0  0  0  0  0  0  0
   63.7630   33.3810   47.1310 O   0  0  0  0  0  0  0  0  0  0  0  0
   64.1410   32.5090   49.6110 C   0  0  0  0  0  0  0  0  0  0  0  0
   63.7500   31.4140   50.3960 C   0  0  0  0  0  0  0  0  0  0  0  0
   64.6520   30.8420   51.3000 C   0  0  0  0  0  0  0  0  0  0  0  0
   65.9510   31.3490   51.4100 C   0  0  0  0  0  0  0  0  0  0  0  0
   66.3440   32.4370   50.6270 C   0  0  0  0  0  0  0  0  0  0  0  0
   65.4420   33.0170   49.7310 C   0  0  0  0  0  0  0  0  0  0  0  0
   56.6102   29.5420   43.3849 H   0  0  0  0  0  0  0  0  0  0  0  0
   55.7324   30.9544   42.7057 H   0  0  0  0  0  0  0  0  0  0  0  0
   57.5285   30.9284   42.7057 H   0  0  0  0  0  0  0  0  0  0  0  0
   56.6327   33.8423   43.7684 H   0  0  0  0  0  0  0  0  0  0  0  0
   58.1385   35.6182   44.6515 H   0  0  0  0  0  0  0  0  0  0  0  0
   59.9036   35.0486   46.3163 H   0  0  0  0  0  0  0  0  0  0  0  0
   60.1678   32.6991   47.1016 H   0  0  0  0  0  0  0  0  0  0  0  0
   61.3785   28.0770   48.4304 H   0  0  0  0  0  0  0  0  0  0  0  0
   60.2708   28.3763   49.8276 H   0  0  0  0  0  0  0  0  0  0  0  0
   59.1923   26.5803   48.8416 H   0  0  0  0  0  0  0  0  0  0  0  0
   58.4035   27.9644   47.9702 H   0  0  0  0  0  0  0  0  0  0  0  0
   60.3129   27.6301   46.2147 H   0  0  0  0  0  0  0  0  0  0  0  0
   60.4860   26.0003   46.9695 H   0  0  0  0  0  0  0  0  0  0  0  0
   56.5539   26.2557   46.3372 H   0  0  0  0  0  0  0  0  0  0  0  0
   57.4558   27.2118   47.5407 H   0  0  0  0  0  0  0  0  0  0  0  0
   56.0744   28.3696   45.4895 H   0  0  0  0  0  0  0  0  0  0  0  0
   57.5357   29.1117   46.1367 H   0  0  0  0  0  0  0  0  0  0  0  0
   57.1058   27.7053   43.5449 H   0  0  0  0  0  0  0  0  0  0  0  0
   58.4250   28.7996   43.9853 H   0  0  0  0  0  0  0  0  0  0  0  0
   58.4089   25.8782   43.9511 H   0  0  0  0  0  0  0  0  0  0  0  0
   59.7822   26.9627   44.3222 H   0  0  0  0  0  0  0  0  0  0  0  0
   58.2903   29.7038   50.2048 H   0  0  0  0  0  0  0  0  0  0  0  0
   59.3061   33.5214   51.9616 H   0  0  0  0  0  0  0  0  0  0  0  0
   61.0710   33.8536   50.2359 H   0  0  0  0  0  0  0  0  0  0  0  0
   61.6920   31.5440   47.3780 H   0  0  0  0  0  0  0  0  0  0  0  0
   62.7334   31.0047   50.3008 H   0  0  0  0  0  0  0  0  0  0  0  0
   64.3391   29.9925   51.9249 H   0  0  0  0  0  0  0  0  0  0  0  0
   66.6627   30.8912   52.1127 H   0  0  0  0  0  0  0  0  0  0  0  0
   67.3646   32.8376   50.7158 H   0  0  0  0  0  0  0  0  0  0  0  0
   65.7540   33.8752   49.1177 H   0  0  0  0  0  0  0  0  0  0  0  0
  1  2  1  0
  2  3  1  0
  3  4  2  0
  4  5  1  0
  5  6  2  0
  6  7  1  0
  7  8  2  0
  8  9  1  0
  9 10  1  0
 10 11  2  0
 10 12  1  0
 12 13  1  0
 13 14  1  0
 14 15  1  0
 15 16  1  0
 16 17  1  0
 17 18  1  0
 18 19  1  0
 19 20  1  0
 12 21  1  0
 21 22  2  0
 22 23  1  0
 23 24  1  0
 23 25  2  0
 25 26  1  0
 26 27  2  0
 27 28  1  0
 28 29  1  0
 29 30  2  0
 29 31  2  0
 29 32  1  0
 32 33  2  0
 33 34  1  0
 34 35  2  0
 35 36  1  0
 36 37  2  0
  8  3  1  0
 20 16  1  0
 27 21  1  0
 37 32  1  0
  1 38  1  0
  1 39  1  0
  1 40  1  0
  4 41  1  0
  5 42  1  0
  6 43  1  0
  7 44  1  0
 13 45  1  0
 13 46  1  0
 14 47  1  0
 14 48  1  0
 15 49  1  0
 15 50  1  0
 17 51  1  0
 17 52  1  0
 18 53  1  0
 18 54  1  0
 19 55  1  0
 19 56  1  0
 20 57  1  0
 20 58  1  0
 22 59  1  0
 25 60  1  0
 26 61  1  0
 28 62  1  0
 33 63  1  0
 34 64  1  0
 35 65  1  0
 36 66  1  0
 37 67  1  0
M  CHG  1   9  -1
M  END
>  <UniqueID>  (50) 
50

>  <SMILES>  (50) 
COc1ccccc1[N-]C(=O)N(CCCN1CCCC1)c1cc(Cl)ccc1NS(=O)(=O)c1ccccc1

>  <Energy>  (50) 
85.82278313412964

>  <Genealogy>  (50) 
COc1ccccc1[N-]C(=O)N(CCCN1CCCC1)c1cc(Cl)ccc1NS(=O)(=O)c1ccccc1 (protonated)
COc1ccccc1[N-]C(=O)N(CCCN1CCCC1)c1cc(Cl)ccc1NS(=O)(=O)c1ccccc1 (3D coordinates assigned)
COc1ccccc1[N-]C(=O)N(CCCN1CCCC1)c1cc(Cl)ccc1NS(=O)(=O)c1ccccc1 (nonaromatic ring conformer: 85.82278313412964 kcal/mol)

>  <smiles>  (50) 
COc1ccccc1NC(=O)N(CCCN1CCCC1)c1cc(Cl)ccc1NS(=O)(=O)c1ccccc1

>  <score_type>  (50) 
oracle

>  <origin>  (50) 
adg

>  <m_score__min__energy>  (50) 
-10.85

>  <m_primary>  (50) 
energy

$$$$
50:0
     RDKit          3D

 52 54  0  0  0  0  0  0  0  0999 V2000
   59.5175   27.5129   47.9075 H   0  0  0  0  0  0  0  0  0  0  0  0
   59.0390   28.3670   47.4060 C   0  0  0  0  0  0  0  0  0  0  0  0
   57.9770   28.2760   46.1030 S   0  0  0  0  0  0  0  0  0  0  0  0
   57.7760   29.9370   46.0250 C   0  0  0  0  0  0  0  0  0  0  0  0
   56.9380   30.5230   45.2270 N   0  0  0  0  0  0  0  0  0  0  0  0
   57.3040   31.2510   44.0470 C   0  0  0  0  0  0  0  0  0  0  0  0
   56.7670   30.9950   42.9350 O   0  0  0  0  0  0  0  0  0  0  0  0
   58.4030   32.2600   44.1260 C   0  0  0  0  0  0  0  0  0  0  0  0
   59.3326   31.7632   44.4409 H   0  0  0  0  0  0  0  0  0  0  0  0
   58.5446   32.7202   43.1370 H   0  0  0  0  0  0  0  0  0  0  0  0
   57.9780   33.5290   45.3110 S   0  0  0  0  0  0  0  0  0  0  0  0
   57.8770   34.8500   44.5990 O   0  0  0  0  0  0  0  0  0  0  0  0
   56.6480   33.2140   45.9340 O   0  0  0  0  0  0  0  0  0  0  0  0
   59.2080   33.6180   46.5750 C   0  0  0  0  0  0  0  0  0  0  0  0
   58.8580   33.9530   47.8860 C   0  0  0  0  0  0  0  0  0  0  0  0
   57.7993   34.0830   48.1548 H   0  0  0  0  0  0  0  0  0  0  0  0
   59.8480   34.1230   48.8550 C   0  0  0  0  0  0  0  0  0  0  0  0
   59.5614   34.3792   49.8857 H   0  0  0  0  0  0  0  0  0  0  0  0
   61.2050   33.9710   48.5300 C   0  0  0  0  0  0  0  0  0  0  0  0
   62.2340   34.1920   49.6090 C   0  0  0  0  0  0  0  0  0  0  0  0
   61.7585   34.0899   50.5956 H   0  0  0  0  0  0  0  0  0  0  0  0
   63.0358   33.4456   49.5094 H   0  0  0  0  0  0  0  0  0  0  0  0
   62.6587   35.2018   49.5094 H   0  0  0  0  0  0  0  0  0  0  0  0
   61.5690   33.6360   47.2000 C   0  0  0  0  0  0  0  0  0  0  0  0
   62.9850   33.5110   46.7730 C   0  0  0  0  0  0  0  0  0  0  0  0
   63.5040   34.3870   46.0300 O   0  0  0  0  0  0  0  0  0  0  0  0
   63.7730   32.3890   47.1760 N   0  0  0  0  0  0  0  0  0  0  0  0
   64.7530   32.2870   46.8340 H   0  0  0  0  0  0  0  0  0  0  0  0
   63.4070   31.6870   47.8570 H   0  0  0  0  0  0  0  0  0  0  0  0
   60.5570   33.4510   46.2400 C   0  0  0  0  0  0  0  0  0  0  0  0
   60.8297   33.1712   45.2117 H   0  0  0  0  0  0  0  0  0  0  0  0
   58.4900   30.5800   46.9740 N   0  0  0  0  0  0  0  0  0  0  0  0
   59.2090   29.7140   47.7420 C   0  0  0  0  0  0  0  0  0  0  0  0
   60.0180   30.1960   48.8890 C   0  0  0  0  0  0  0  0  0  0  0  0
   61.3880   30.4500   48.6860 C   0  0  0  0  0  0  0  0  0  0  0  0
   61.8321   30.2647   47.6969 H   0  0  0  0  0  0  0  0  0  0  0  0
   62.1960   30.9360   49.7260 C   0  0  0  0  0  0  0  0  0  0  0  0
   63.5590   31.2140   49.5550 O   0  0  0  0  0  0  0  0  0  0  0  0
   64.4120   31.7230   50.5760 C   0  0  0  0  0  0  0  0  0  0  0  0
   63.9932   31.4731   51.5620 H   0  0  0  0  0  0  0  0  0  0  0  0
   65.4110   31.2732   50.4772 H   0  0  0  0  0  0  0  0  0  0  0  0
   64.4905   32.8157   50.4772 H   0  0  0  0  0  0  0  0  0  0  0  0
   61.6290   31.1530   50.9840 C   0  0  0  0  0  0  0  0  0  0  0  0
   62.2515   31.5431   51.8028 H   0  0  0  0  0  0  0  0  0  0  0  0
   60.2790   30.8790   51.2110 C   0  0  0  0  0  0  0  0  0  0  0  0
   59.8487   31.0499   52.2088 H   0  0  0  0  0  0  0  0  0  0  0  0
   59.4630   30.3860   50.1750 C   0  0  0  0  0  0  0  0  0  0  0  0
   58.1170   30.0530   50.4030 O   0  0  0  0  0  0  0  0  0  0  0  0
   57.3520   30.4840   51.5240 C   0  0  0  0  0  0  0  0  0  0  0  0
   57.8663   30.1942   52.4522 H   0  0  0  0  0  0  0  0  0  0  0  0
   57.2402   31.5779   51.4929 H   0  0  0  0  0  0  0  0  0  0  0  0
   56.3585   30.0129   51.4929 H   0  0  0  0  0  0  0  0  0  0  0  0
  1  2  1  0
  2  3  1  0
  3  4  1  0
  4  5  2  0
  5  6  1  0
  6  7  2  0
  6  8  1  0
  8  9  1  0
  8 10  1  0
  8 11  1  0
 11 12  2  0
 11 13  2  0
 11 14  1  0
 14 15  2  0
 15 16  1  0
 15 17  1  0
 17 18  1  0
 17 19  2  0
 19 20  1  0
 20 21  1  0
 20 22  1  0
 20 23  1  0
 19 24  1  0
 24 25  1  0
 25 26  2  0
 25 27  1  0
 27 28  1  0
 27 29  1  0
 24 30  2  0
 30 31  1  0
  4 32  1  0
 32 33  1  0
 33 34  1  0
 34 35  2  0
 35 36  1  0
 35 37  1  0
 37 38  1  0
 38 39  1  0
 39 40  1  0
 39 41  1  0
 39 42  1  0
 37 43  2  0
 43 44  1  0
 43 45  1  0
 45 46  1  0
 45 47  2  0
 47 48  1  0
 48 49  1  0
 49 50  1  0
 49 51  1  0
 49 52  1  0
 33  2  2  0
 47 34  1  0
 30 14  1  0
M  CHG  1  32  -1
M  END
>  <UniqueID>  (51) 
51

>  <SMILES>  (51) 
COc1ccc(OC)c(-c2cs/c(=N/C(=O)CS(=O)(=O)c3ccc(C)c(C(N)=O)c3)[n-]2)c1

>  <Energy>  (51) 
84.4497745770134

>  <Genealogy>  (51) 
COc1ccc(OC)c(-c2csc(=NC(=O)CS(=O)(=O)c3ccc(C)c(C(N)=O)c3)[n-]2)c1 (protonated)
COc1ccc(OC)c(-c2cs/c(=N/C(=O)CS(=O)(=O)c3ccc(C)c(C(N)=O)c3)[n-]2)c1 (cis-trans isomerization)
COc1ccc(OC)c(-c2cs/c(=N/C(=O)CS(=O)(=O)c3ccc(C)c(C(N)=O)c3)[n-]2)c1 (3D coordinates assigned)
COc1ccc(OC)c(-c2cs/c(=N/C(=O)CS(=O)(=O)c3ccc(C)c(C(N)=O)c3)[n-]2)c1 (optimized conformer: 84.4497745770134 kcal/mol)

>  <smiles>  (51) 
COc1ccc(OC)c(-c2csc(=NC(=O)CS(=O)(=O)c3ccc(C)c(C(N)=O)c3)[nH]2)c1

>  <score_type>  (51) 
oracle

>  <origin>  (51) 
adg

>  <m_score__min__energy>  (51) 
-10.81

>  <m_primary>  (51) 
energy

$$$$
51:0
     RDKit          3D

 66 70  0  0  0  0  0  0  0  0999 V2000
   59.4950   34.5130   44.6050 C   0  0  0  0  0  0  0  0  0  0  0  0
   59.3110   34.1020   46.0390 C   0  0  0  0  0  0  0  0  0  0  0  0
   59.8180   34.9210   47.0590 C   0  0  0  0  0  0  0  0  0  0  0  0
   59.6370   34.5730   48.3970 C   0  0  0  0  0  0  0  0  0  0  0  0
   58.9480   33.4030   48.7100 C   0  0  0  0  0  0  0  0  0  0  0  0
   58.4750   32.6060   47.7180 N   0  0  0  0  0  0  0  0  0  0  0  0
   58.6440   32.9060   46.4000 C   0  0  0  0  0  0  0  0  0  0  0  0
   58.1220   31.9560   45.3950 C   0  0  0  0  0  0  0  0  0  0  0  0
   57.9680   32.3630   44.0730 C   0  0  0  0  0  0  0  0  0  0  0  0
   57.3980   31.4810   43.1580 C   0  0  0  0  0  0  0  0  0  0  0  0
   57.2640   31.8550   41.9600 O   0  0  0  0  0  0  0  0  0  0  0  0
   56.9780   30.2360   43.5590 N   0  0  0  0  0  0  0  0  0  0  0  0
   56.2590   29.3720   42.6110 C   0  0  0  0  0  0  0  0  0  0  0  0
   57.2020   29.8330   44.8570 C   0  0  0  0  0  0  0  0  0  0  0  0
   56.8560   28.5520   45.3200 O   0  0  0  0  0  0  0  0  0  0  0  0
   57.3830   27.3060   44.8420 C   0  0  0  0  0  0  0  0  0  0  0  0
   57.8180   26.4610   46.0550 C   0  0  0  0  0  0  0  0  0  0  0  0
   59.2390   26.7890   46.5580 C   0  0  0  0  0  0  0  0  0  0  0  0
   59.7250   28.0610   46.0100 N   0  0  0  0  0  0  0  0  0  0  0  0
   60.2460   29.0790   46.8780 C   0  0  0  0  0  0  0  0  0  0  0  0
   60.7820   30.2550   46.3380 C   0  0  0  0  0  0  0  0  0  0  0  0
   61.3890   31.1990   47.1700 C   0  0  0  0  0  0  0  0  0  0  0  0
   61.4500   30.9880   48.5570 C   0  0  0  0  0  0  0  0  0  0  0  0
   62.1140   31.9420   49.4090 N   0  0  0  0  0  0  0  0  0  0  0  0
   61.4630   32.4280   50.6030 C   0  0  0  0  0  0  0  0  0  0  0  0
   60.3770   31.9170   50.9900 O   0  0  0  0  0  0  0  0  0  0  0  0
   62.1010   33.4950   51.4500 C   0  0  0  0  0  0  0  0  0  0  0  0
   63.0700   34.3480   50.6300 C   0  0  0  0  0  0  0  0  0  0  0  0
   64.0990   33.4700   49.9160 C   0  0  0  0  0  0  0  0  0  0  0  0
   63.4080   32.4650   49.0430 C   0  0  0  0  0  0  0  0  0  0  0  0
   63.9860   32.0710   47.9920 O   0  0  0  0  0  0  0  0  0  0  0  0
   60.8820   29.8230   49.0990 C   0  0  0  0  0  0  0  0  0  0  0  0
   60.2930   28.8700   48.2640 C   0  0  0  0  0  0  0  0  0  0  0  0
   59.7150   28.2830   44.5590 C   0  0  0  0  0  0  0  0  0  0  0  0
   58.5730   27.5110   43.8830 C   0  0  0  0  0  0  0  0  0  0  0  0
   57.7360   30.7040   45.7570 N   0  0  0  0  0  0  0  0  0  0  0  0
   59.9442   35.5163   44.5659 H   0  0  0  0  0  0  0  0  0  0  0  0
   60.1575   33.7947   44.0998 H   0  0  0  0  0  0  0  0  0  0  0  0
   58.5180   34.5287   44.0998 H   0  0  0  0  0  0  0  0  0  0  0  0
   60.3611   35.8424   46.8019 H   0  0  0  0  0  0  0  0  0  0  0  0
   60.0339   35.2153   49.1970 H   0  0  0  0  0  0  0  0  0  0  0  0
   58.7872   33.1248   49.7620 H   0  0  0  0  0  0  0  0  0  0  0  0
   58.2913   33.3654   43.7558 H   0  0  0  0  0  0  0  0  0  0  0  0
   55.6520   28.6426   43.1674 H   0  0  0  0  0  0  0  0  0  0  0  0
   55.6032   29.9880   41.9782 H   0  0  0  0  0  0  0  0  0  0  0  0
   56.9839   28.8390   41.9782 H   0  0  0  0  0  0  0  0  0  0  0  0
   56.5977   26.7880   44.2720 H   0  0  0  0  0  0  0  0  0  0  0  0
   57.1084   26.6402   46.8762 H   0  0  0  0  0  0  0  0  0  0  0  0
   57.8251   25.4100   45.7303 H   0  0  0  0  0  0  0  0  0  0  0  0
   59.2226   26.8561   47.6558 H   0  0  0  0  0  0  0  0  0  0  0  0
   59.9159   25.9889   46.2238 H   0  0  0  0  0  0  0  0  0  0  0  0
   60.7248   30.4360   45.2545 H   0  0  0  0  0  0  0  0  0  0  0  0
   61.8216   32.1126   46.7362 H   0  0  0  0  0  0  0  0  0  0  0  0
   61.3141   34.1432   51.8631 H   0  0  0  0  0  0  0  0  0  0  0  0
   62.6657   33.0065   52.2578 H   0  0  0  0  0  0  0  0  0  0  0  0
   62.5020   34.9191   49.8809 H   0  0  0  0  0  0  0  0  0  0  0  0
   63.6011   35.0297   51.3106 H   0  0  0  0  0  0  0  0  0  0  0  0
   64.7490   34.1041   49.2952 H   0  0  0  0  0  0  0  0  0  0  0  0
   64.6997   32.9380   50.6684 H   0  0  0  0  0  0  0  0  0  0  0  0
   60.9011   29.6602   50.1867 H   0  0  0  0  0  0  0  0  0  0  0  0
   59.8649   27.9530   48.6951 H   0  0  0  0  0  0  0  0  0  0  0  0
   59.5865   29.3576   44.3621 H   0  0  0  0  0  0  0  0  0  0  0  0
   60.6689   27.9224   44.1466 H   0  0  0  0  0  0  0  0  0  0  0  0
   58.2303   28.0769   43.0042 H   0  0  0  0  0  0  0  0  0  0  0  0
   58.9528   26.5216   43.5884 H   0  0  0  0  0  0  0  0  0  0  0  0
   57.8280   30.4020   46.7520 H   0  0  0  0  0  0  0  0  0  0  0  0
  1  2  1  0
  2  3  2  0
  3  4  1  0
  4  5  2  0
  5  6  1  0
  6  7  2  0
  7  8  1  0
  8  9  2  0
  9 10  1  0
 10 11  2  0
 10 12  1  0
 12 13  1  0
 12 14  1  0
 14 15  1  0
 15 16  1  0
 16 17  1  0
 17 18  1  0
 18 19  1  0
 19 20  1  0
 20 21  2  0
 21 22  1  0
 22 23  2  0
 23 24  1  0
 24 25  1  0
 25 26  2  0
 25 27  1  0
 27 28  1  0
 28 29  1  0
 29 30  1  0
 30 31  2  0
 23 32  1  0
 32 33  2  0
 19 34  1  0
 34 35  1  0
 14 36  2  0
  7  2  1  0
 36  8  1  0
 35 16  1  0
 33 20  1  0
 30 24  1  0
  1 37  1  0
  1 38  1  0
  1 39  1  0
  3 40  1  0
  4 41  1  0
  5 42  1  0
  9 43  1  0
 13 44  1  0
 13 45  1  0
 13 46  1  0
 16 47  1  0
 17 48  1  0
 17 49  1  0
 18 50  1  0
 18 51  1  0
 21 52  1  0
 22 53  1  0
 27 54  1  0
 27 55  1  0
 28 56  1  0
 28 57  1  0
 29 58  1  0
 29 59  1  0
 32 60  1  0
 33 61  1  0
 34 62  1  0
 34 63  1  0
 35 64  1  0
 35 65  1  0
 36 66  1  0
M  CHG  1  36   1
M  END
>  <UniqueID>  (52) 
52

>  <SMILES>  (52) 
Cc1cccnc1-c1cc(=O)n(C)c(OC2CCN(c3ccc(N4C(=O)CCCC4=O)cc3)CC2)[nH+]1

>  <Energy>  (52) 
94.30255721593828

>  <Genealogy>  (52) 
Cc1cccnc1-c1cc(=O)n(C)c(OC2CCN(c3ccc(N4C(=O)CCCC4=O)cc3)CC2)[nH+]1 (protonated)
Cc1cccnc1-c1cc(=O)n(C)c(OC2CCN(c3ccc(N4C(=O)CCCC4=O)cc3)CC2)[nH+]1 (3D coordinates assigned)
Cc1cccnc1-c1cc(=O)n(C)c(OC2CCN(c3ccc(N4C(=O)CCCC4=O)cc3)CC2)[nH+]1 (nonaromatic ring conformer: 94.30255721593828 kcal/mol)

>  <smiles>  (52) 
Cc1cccnc1-c1cc(=O)n(C)c(OC2CCN(c3ccc(N4C(=O)CCCC4=O)cc3)CC2)n1

>  <score_type>  (52) 
oracle

>  <origin>  (52) 
adg

>  <m_score__min__energy>  (52) 
-8.6799999999999997

>  <m_primary>  (52) 
energy

$$$$
52:0
     RDKit          3D

 42 45  0  0  0  0  0  0  0  0999 V2000
   59.8940   27.8613   44.1076 H   0  0  0  0  0  0  0  0  0  0  0  0
   59.1130   27.5480   44.8160 C   0  0  0  0  0  0  0  0  0  0  0  0
   58.9330   26.0050   45.4710 S   0  0  0  0  0  0  0  0  0  0  0  0
   57.5960   26.4390   46.3810 C   0  0  0  0  0  0  0  0  0  0  0  0
   56.9330   25.6130   47.1340 N   0  0  0  0  0  0  0  0  0  0  0  0
   55.9180   24.7110   46.6730 C   0  0  0  0  0  0  0  0  0  0  0  0
   55.9290   23.0580   46.9710 S   0  0  0  0  0  0  0  0  0  0  0  0
   54.4650   22.8050   46.1780 C   0  0  0  0  0  0  0  0  0  0  0  0
   53.7880   21.3230   45.9980 S   0  0  0  0  0  0  0  0  0  0  0  0
   53.9380   23.9690   45.7110 N   0  0  0  0  0  0  0  0  0  0  0  0
   52.6910   24.0850   44.9420 C   0  0  0  0  0  0  0  0  0  0  0  0
   52.7924   23.5266   43.9997 H   0  0  0  0  0  0  0  0  0  0  0  0
   52.4978   25.1472   44.7314 H   0  0  0  0  0  0  0  0  0  0  0  0
   51.5230   23.5170   45.7400 C   0  0  0  0  0  0  0  0  0  0  0  0
   51.7303   23.6178   46.8156 H   0  0  0  0  0  0  0  0  0  0  0  0
   50.6051   24.0694   45.4901 H   0  0  0  0  0  0  0  0  0  0  0  0
   51.3907   22.4540   45.4901 H   0  0  0  0  0  0  0  0  0  0  0  0
   54.7420   25.0350   45.9940 C   0  0  0  0  0  0  0  0  0  0  0  0
   54.3880   26.3390   45.6600 O   0  0  0  0  0  0  0  0  0  0  0  0
   57.2590   27.7330   46.1970 N   0  0  0  0  0  0  0  0  0  0  0  0
   58.0980   28.3600   45.3290 C   0  0  0  0  0  0  0  0  0  0  0  0
   57.9060   29.7920   45.0320 C   0  0  0  0  0  0  0  0  0  0  0  0
   58.5360   30.7350   45.6960 O   0  0  0  0  0  0  0  0  0  0  0  0
   58.1590   31.8970   45.2090 C   0  0  0  0  0  0  0  0  0  0  0  0
   58.6680   33.1910   45.7170 C   0  0  0  0  0  0  0  0  0  0  0  0
   58.8320   33.4330   47.0940 C   0  0  0  0  0  0  0  0  0  0  0  0
   58.5781   32.6480   47.8215 H   0  0  0  0  0  0  0  0  0  0  0  0
   59.3160   34.6660   47.5420 C   0  0  0  0  0  0  0  0  0  0  0  0
   59.4405   34.8468   48.6199 H   0  0  0  0  0  0  0  0  0  0  0  0
   59.6420   35.6690   46.6260 C   0  0  0  0  0  0  0  0  0  0  0  0
   60.0226   36.6377   46.9820 H   0  0  0  0  0  0  0  0  0  0  0  0
   59.4840   35.4400   45.2580 C   0  0  0  0  0  0  0  0  0  0  0  0
   59.7416   36.2289   44.5360 H   0  0  0  0  0  0  0  0  0  0  0  0
   58.9990   34.2100   44.8040 C   0  0  0  0  0  0  0  0  0  0  0  0
   58.8750   34.0371   43.7248 H   0  0  0  0  0  0  0  0  0  0  0  0
   57.2630   31.7460   44.2100 N   0  0  0  0  0  0  0  0  0  0  0  0
   56.7880   32.4840   43.6450 H   0  0  0  0  0  0  0  0  0  0  0  0
   57.0910   30.4160   44.0950 C   0  0  0  0  0  0  0  0  0  0  0  0
   56.1510   29.7890   43.1140 C   0  0  0  0  0  0  0  0  0  0  0  0
   55.3550   29.2581   43.6567 H   0  0  0  0  0  0  0  0  0  0  0  0
   55.7051   30.5712   42.4821 H   0  0  0  0  0  0  0  0  0  0  0  0
   56.7019   29.0768   42.4821 H   0  0  0  0  0  0  0  0  0  0  0  0
  1  2  1  0
  2  3  1  0
  3  4  1  0
  4  5  2  0
  5  6  1  0
  6  7  1  0
  7  8  1  0
  8  9  2  0
  8 10  1  0
 10 11  1  0
 11 12  1  0
 11 13  1  0
 11 14  1  0
 14 15  1  0
 14 16  1  0
 14 17  1  0
 10 18  1  0
 18 19  1  0
  4 20  1  0
 20 21  1  0
 21 22  1  0
 22 23  1  0
 23 24  1  0
 24 25  1  0
 25 26  2  0
 26 27  1  0
 26 28  1  0
 28 29  1  0
 28 30  2  0
 30 31  1  0
 30 32  1  0
 32 33  1  0
 32 34  2  0
 34 35  1  0
 24 36  2  0
 36 37  1  0
 36 38  1  0
 38 39  1  0
 39 40  1  0
 39 41  1  0
 39 42  1  0
 21  2  2  0
 38 22  2  0
 18  6  2  0
 34 25  1  0
M  CHG  3  19  -1  20  -1  36   1
M  END
>  <UniqueID>  (53) 
53

>  <SMILES>  (53) 
CCn1c([O-])c(/N=c2\[n-]c(-c3oc(-c4ccccc4)[nH+]c3C)cs2)sc1=S

>  <Energy>  (53) 
144.14044535873657

>  <Genealogy>  (53) 
CCn1c([O-])c(N=c2[n-]c(-c3oc(-c4ccccc4)[nH+]c3C)cs2)sc1=S (protonated)
CCn1c([O-])c(/N=c2\[n-]c(-c3oc(-c4ccccc4)[nH+]c3C)cs2)sc1=S (cis-trans isomerization)
CCn1c([O-])c(/N=c2\[n-]c(-c3oc(-c4ccccc4)[nH+]c3C)cs2)sc1=S (3D coordinates assigned)
CCn1c([O-])c(/N=c2\[n-]c(-c3oc(-c4ccccc4)[nH+]c3C)cs2)sc1=S (optimized conformer: 144.14044535873657 kcal/mol)

>  <smiles>  (53) 
CCn1c(O)c(N=c2[nH]c(-c3oc(-c4ccccc4)nc3C)cs2)sc1=S

>  <score_type>  (53) 
oracle

>  <origin>  (53) 
adg

>  <m_score__min__energy>  (53) 
-12.99

>  <m_primary>  (53) 
energy

$$$$
53:0
     RDKit          3D

 35 37  0  0  0  0  0  0  0  0999 V2000
   60.2530   29.2540   46.2550 N   0  0  0  0  0  0  0  0  0  0  0  0
   59.1670   28.3330   46.3150 C   0  0  0  0  0  0  0  0  0  0  0  0
   57.9650   28.7710   45.7830 C   0  0  0  0  0  0  0  0  0  0  0  0
   57.8100   30.0990   45.1940 C   0  0  0  0  0  0  0  0  0  0  0  0
   57.9370   31.2560   45.9550 C   0  0  0  0  0  0  0  0  0  0  0  0
   57.7860   32.5020   45.3770 C   0  0  0  0  0  0  0  0  0  0  0  0
   57.5030   32.5930   44.0140 C   0  0  0  0  0  0  0  0  0  0  0  0
   57.3730   31.4340   43.2440 C   0  0  0  0  0  0  0  0  0  0  0  0
   57.5260   30.1770   43.8280 C   0  0  0  0  0  0  0  0  0  0  0  0
   56.8610   27.9810   45.7840 N   0  0  0  0  0  0  0  0  0  0  0  0
   55.6730   28.4310   45.2510 O   0  0  0  0  0  0  0  0  0  0  0  0
   56.9920   26.7550   46.3240 C   0  0  0  0  0  0  0  0  0  0  0  0
   55.8880   25.9310   46.3390 C   0  0  0  0  0  0  0  0  0  0  0  0
   54.8060   26.3260   45.8600 O   0  0  0  0  0  0  0  0  0  0  0  0
   56.0410   24.7140   46.8820 N   0  0  0  0  0  0  0  0  0  0  0  0
   57.2170   24.2850   47.4020 C   0  0  0  0  0  0  0  0  0  0  0  0
   57.2190   23.1170   47.8820 O   0  0  0  0  0  0  0  0  0  0  0  0
   58.3190   25.0700   47.4040 N   0  0  0  0  0  0  0  0  0  0  0  0
   58.2530   26.2890   46.8850 C   0  0  0  0  0  0  0  0  0  0  0  0
   59.3020   27.1220   46.8510 N   0  0  0  0  0  0  0  0  0  0  0  0
   60.5790   26.7020   47.3960 C   0  0  0  0  0  0  0  0  0  0  0  0
   60.7550   27.1680   48.7940 C   0  0  0  0  0  0  0  0  0  0  0  0
   60.8540   26.3940   49.7800 O   0  0  0  0  0  0  0  0  0  0  0  0
   60.8100   28.5390   49.0010 O   0  0  0  0  0  0  0  0  0  0  0  0
   60.4950   29.6280   45.3030 H   0  0  0  0  0  0  0  0  0  0  0  0
   60.7920   29.5500   47.1170 H   0  0  0  0  0  0  0  0  0  0  0  0
   58.1602   31.1784   47.0293 H   0  0  0  0  0  0  0  0  0  0  0  0
   57.8879   33.4128   45.9854 H   0  0  0  0  0  0  0  0  0  0  0  0
   57.3818   33.5801   43.5439 H   0  0  0  0  0  0  0  0  0  0  0  0
   57.1485   31.5138   42.1701 H   0  0  0  0  0  0  0  0  0  0  0  0
   57.4249   29.2631   43.2242 H   0  0  0  0  0  0  0  0  0  0  0  0
   55.1850   24.0950   46.8850 H   0  0  0  0  0  0  0  0  0  0  0  0
   60.6318   25.6034   47.3764 H   0  0  0  0  0  0  0  0  0  0  0  0
   61.3777   27.1442   46.7823 H   0  0  0  0  0  0  0  0  0  0  0  0
   61.0840   28.9330   49.9140 H   0  0  0  0  0  0  0  0  0  0  0  0
  1  2  1  0
  2  3  2  0
  3  4  1  0
  4  5  2  0
  5  6  1  0
  6  7  2  0
  7  8  1  0
  8  9  2  0
  3 10  1  0
 10 11  1  0
 10 12  2  0
 12 13  1  0
 13 14  2  0
 13 15  1  0
 15 16  1  0
 16 17  2  0
 16 18  1  0
 18 19  2  0
 19 20  1  0
 20 21  1  0
 21 22  1  0
 22 23  2  0
 22 24  1  0
 20  2  1  0
  9  4  1  0
 19 12  1  0
  1 25  1  0
  1 26  1  0
  5 27  1  0
  6 28  1  0
  7 29  1  0
  8 30  1  0
  9 31  1  0
 15 32  1  0
 21 33  1  0
 21 34  1  0
 24 35  1  0
M  CHG  2  10   1  11  -1
M  END
>  <smiles>  (54) 
Nc1c(-c2ccccc2)[n+]([O-])c2c(=O)[nH]c(=O)nc-2n1CC(=O)O

>  <score_type>  (54) 
oracle

>  <origin>  (54) 
adg

>  <m_score__min__energy>  (54) 
-6.9900000000000002

>  <m_primary>  (54) 
energy

$$$$
54:0
     RDKit          3D

 36 38  0  0  0  0  0  0  0  0999 V2000
   59.5710   28.2110   47.2650 H   0  0  0  0  0  0  0  0  0  0  0  0
   58.7870   27.8340   46.7470 O   0  0  0  0  0  0  0  0  0  0  0  0
   57.9160   28.6550   46.0310 C   0  0  0  0  0  0  0  0  0  0  0  0
   56.6750   28.1430   45.6250 C   0  0  0  0  0  0  0  0  0  0  0  0
   56.3816   27.1249   45.9207 H   0  0  0  0  0  0  0  0  0  0  0  0
   55.8330   28.8940   44.8700 N   0  0  0  0  0  0  0  0  0  0  0  0
   56.1570   30.1540   44.4830 C   0  0  0  0  0  0  0  0  0  0  0  0
   55.4573   30.7355   43.8647 H   0  0  0  0  0  0  0  0  0  0  0  0
   57.3760   30.7130   44.8680 C   0  0  0  0  0  0  0  0  0  0  0  0
   57.6407   31.7297   44.5422 H   0  0  0  0  0  0  0  0  0  0  0  0
   58.2640   29.9820   45.6690 C   0  0  0  0  0  0  0  0  0  0  0  0
   59.3800   30.5640   46.0210 N   0  0  0  0  0  0  0  0  0  0  0  0
   59.9020   30.7540   47.3430 C   0  0  0  0  0  0  0  0  0  0  0  0
   59.3870   30.0990   48.2860 O   0  0  0  0  0  0  0  0  0  0  0  0
   61.0930   31.6190   47.5810 C   0  0  0  0  0  0  0  0  0  0  0  0
   62.3500   31.1710   47.1240 C   0  0  0  0  0  0  0  0  0  0  0  0
   62.4367   30.1761   46.6629 H   0  0  0  0  0  0  0  0  0  0  0  0
   63.4850   31.9730   47.2490 C   0  0  0  0  0  0  0  0  0  0  0  0
   64.4587   31.6051   46.8933 H   0  0  0  0  0  0  0  0  0  0  0  0
   63.3880   33.2380   47.8230 C   0  0  0  0  0  0  0  0  0  0  0  0
   64.2822   33.8726   47.9103 H   0  0  0  0  0  0  0  0  0  0  0  0
   62.1570   33.7000   48.2870 C   0  0  0  0  0  0  0  0  0  0  0  0
   62.0840   34.7053   48.7275 H   0  0  0  0  0  0  0  0  0  0  0  0
   61.0100   32.8960   48.1980 C   0  0  0  0  0  0  0  0  0  0  0  0
   59.4630   33.5840   48.8200 S   0  0  0  0  0  0  0  0  0  0  0  0
   58.7720   33.8330   47.1790 C   0  0  0  0  0  0  0  0  0  0  0  0
   57.4530   33.4530   46.8930 C   0  0  0  0  0  0  0  0  0  0  0  0
   56.8306   32.9980   47.6776 H   0  0  0  0  0  0  0  0  0  0  0  0
   56.9270   33.6510   45.6130 C   0  0  0  0  0  0  0  0  0  0  0  0
   55.8893   33.3590   45.3940 H   0  0  0  0  0  0  0  0  0  0  0  0
   57.7190   34.2200   44.6110 C   0  0  0  0  0  0  0  0  0  0  0  0
   57.3037   34.3772   43.6046 H   0  0  0  0  0  0  0  0  0  0  0  0
   59.0380   34.5890   44.8880 C   0  0  0  0  0  0  0  0  0  0  0  0
   59.6612   35.0349   44.0988 H   0  0  0  0  0  0  0  0  0  0  0  0
   59.5660   34.3920   46.1670 C   0  0  0  0  0  0  0  0  0  0  0  0
   60.6070   34.6761   46.3805 H   0  0  0  0  0  0  0  0  0  0  0  0
  1  2  1  0
  2  3  1  0
  3  4  2  0
  4  5  1  0
  4  6  1  0
  6  7  1  0
  7  8  1  0
  7  9  2  0
  9 10  1  0
  9 11  1  0
 11 12  2  0
 12 13  1  0
 13 14  2  0
 13 15  1  0
 15 16  2  0
 16 17  1  0
 16 18  1  0
 18 19  1  0
 18 20  2  0
 20 21  1  0
 20 22  1  0
 22 23  1  0
 22 24  2  0
 24 25  1  0
 25 26  1  0
 26 27  2  0
 27 28  1  0
 27 29  1  0
 29 30  1  0
 29 31  2  0
 31 32  1  0
 31 33  1  0
 33 34  1  0
 33 35  2  0
 35 36  1  0
 11  3  1  0
 24 15  1  0
 35 26  1  0
M  CHG  1   6  -1
M  END
>  <UniqueID>  (55) 
54

>  <SMILES>  (55) 
O=C(/N=c1/cc[n-]cc1O)c1ccccc1Sc1ccccc1

>  <Energy>  (55) 
53.0474864942745

>  <Genealogy>  (55) 
O=C(N=c1cc[n-]cc1O)c1ccccc1Sc1ccccc1 (protonated)
O=C(/N=c1/cc[n-]cc1O)c1ccccc1Sc1ccccc1 (cis-trans isomerization)
O=C(/N=c1/cc[n-]cc1O)c1ccccc1Sc1ccccc1 (3D coordinates assigned)
O=C(/N=c1/cc[n-]cc1O)c1ccccc1Sc1ccccc1 (optimized conformer: 53.0474864942745 kcal/mol)

>  <smiles>  (55) 
O=C(N=c1cc[nH]cc1O)c1ccccc1Sc1ccccc1

>  <score_type>  (55) 
oracle

>  <origin>  (55) 
adg

>  <m_score__min__energy>  (55) 
-10.539999999999999

>  <m_primary>  (55) 
energy

$$$$
55:0
     RDKit          3D

 56 59  0  0  0  0  0  0  0  0999 V2000
   59.6220   35.4290   46.6800 C   0  0  0  0  0  0  0  0  0  0  0  0
   58.9320   34.2620   46.0370 C   0  0  0  0  0  0  0  0  0  0  0  0
   58.3950   33.2410   46.8360 C   0  0  0  0  0  0  0  0  0  0  0  0
   57.7870   32.1310   46.2440 C   0  0  0  0  0  0  0  0  0  0  0  0
   57.7110   32.0270   44.8490 C   0  0  0  0  0  0  0  0  0  0  0  0
   57.0210   30.5820   44.1220 S   0  0  0  0  0  0  0  0  0  0  0  0
   56.7570   30.7890   42.6570 O   0  0  0  0  0  0  0  0  0  0  0  0
   55.7250   30.2600   44.8140 O   0  0  0  0  0  0  0  0  0  0  0  0
   58.1600   29.2980   44.3380 N   0  0  0  0  0  0  0  0  0  0  0  0
   58.1510   28.3860   45.4400 C   0  0  0  0  0  0  0  0  0  0  0  0
   57.1660   27.3900   45.5240 C   0  0  0  0  0  0  0  0  0  0  0  0
   57.1900   26.4850   46.5350 N   0  0  0  0  0  0  0  0  0  0  0  0
   58.1540   26.5080   47.4900 C   0  0  0  0  0  0  0  0  0  0  0  0
   59.1570   27.4770   47.4510 C   0  0  0  0  0  0  0  0  0  0  0  0
   59.1690   28.4370   46.4220 C   0  0  0  0  0  0  0  0  0  0  0  0
   60.2090   29.5020   46.4340 C   0  0  0  0  0  0  0  0  0  0  0  0
   61.1060   29.5100   45.5460 O   0  0  0  0  0  0  0  0  0  0  0  0
   60.1840   30.5330   47.4310 N   0  0  0  0  0  0  0  0  0  0  0  0
   61.2200   31.4780   47.7290 C   0  0  0  0  0  0  0  0  0  0  0  0
   61.5560   32.4300   46.7580 C   0  0  0  0  0  0  0  0  0  0  0  0
   62.5240   33.3990   47.0250 C   0  0  0  0  0  0  0  0  0  0  0  0
   63.1660   33.4250   48.2670 C   0  0  0  0  0  0  0  0  0  0  0  0
   62.8440   32.4820   49.2500 C   0  0  0  0  0  0  0  0  0  0  0  0
   63.5030   32.5530   50.4870 O   0  0  0  0  0  0  0  0  0  0  0  0
   64.8370   32.1910   50.7130 C   0  0  0  0  0  0  0  0  0  0  0  0
   65.8140   33.1170   50.5350 N   0  0  0  0  0  0  0  0  0  0  0  0
   67.1230   32.8090   50.7300 C   0  0  0  0  0  0  0  0  0  0  0  0
   68.1750   33.8460   50.4980 C   0  0  0  0  0  0  0  0  0  0  0  0
   67.4790   31.5070   51.0980 C   0  0  0  0  0  0  0  0  0  0  0  0
   66.4650   30.5630   51.2780 C   0  0  0  0  0  0  0  0  0  0  0  0
   66.7950   29.1510   51.6440 C   0  0  0  0  0  0  0  0  0  0  0  0
   65.1710   30.9210   51.0680 N   0  0  0  0  0  0  0  0  0  0  0  0
   61.8450   31.5270   48.9870 C   0  0  0  0  0  0  0  0  0  0  0  0
   58.2630   33.0360   44.0490 C   0  0  0  0  0  0  0  0  0  0  0  0
   58.8730   34.1470   44.6400 C   0  0  0  0  0  0  0  0  0  0  0  0
   59.5644   35.3316   47.7742 H   0  0  0  0  0  0  0  0  0  0  0  0
   60.6768   35.4483   46.3686 H   0  0  0  0  0  0  0  0  0  0  0  0
   59.1306   36.3626   46.3686 H   0  0  0  0  0  0  0  0  0  0  0  0
   58.4529   33.3148   47.9320 H   0  0  0  0  0  0  0  0  0  0  0  0
   57.3661   31.3352   46.8761 H   0  0  0  0  0  0  0  0  0  0  0  0
   56.3701   27.3426   44.7662 H   0  0  0  0  0  0  0  0  0  0  0  0
   58.1445   25.7606   48.2970 H   0  0  0  0  0  0  0  0  0  0  0  0
   59.9387   27.4906   48.2248 H   0  0  0  0  0  0  0  0  0  0  0  0
   61.0539   32.4137   45.7794 H   0  0  0  0  0  0  0  0  0  0  0  0
   62.7824   34.1434   46.2574 H   0  0  0  0  0  0  0  0  0  0  0  0
   63.9284   34.1908   48.4726 H   0  0  0  0  0  0  0  0  0  0  0  0
   68.5476   34.2132   51.4656 H   0  0  0  0  0  0  0  0  0  0  0  0
   69.0062   33.4042   49.9288 H   0  0  0  0  0  0  0  0  0  0  0  0
   67.7452   34.6834   49.9288 H   0  0  0  0  0  0  0  0  0  0  0  0
   68.5344   31.2326   51.2425 H   0  0  0  0  0  0  0  0  0  0  0  0
   66.8181   29.0520   52.7393 H   0  0  0  0  0  0  0  0  0  0  0  0
   66.0302   28.4768   51.2310 H   0  0  0  0  0  0  0  0  0  0  0  0
   67.7794   28.8856   51.2310 H   0  0  0  0  0  0  0  0  0  0  0  0
   61.5510   30.8138   49.7712 H   0  0  0  0  0  0  0  0  0  0  0  0
   58.2165   32.9541   42.9530 H   0  0  0  0  0  0  0  0  0  0  0  0
   59.3084   34.9341   44.0068 H   0  0  0  0  0  0  0  0  0  0  0  0
  1  2  1  0
  2  3  2  0
  3  4  1  0
  4  5  2  0
  5  6  1  0
  6  7  2  0
  6  8  2  0
  6  9  1  0
  9 10  1  0
 10 11  2  0
 11 12  1  0
 12 13  2  0
 13 14  1  0
 14 15  2  0
 15 16  1  0
 16 17  2  0
 16 18  1  0
 18 19  1  0
 19 20  2  0
 20 21  1  0
 21 22  2  0
 22 23  1  0
 23 24  1  0
 24 25  1  0
 25 26  2  0
 26 27  1  0
 27 28  1  0
 27 29  2  0
 29 30  1  0
 30 31  1  0
 30 32  2  0
 23 33  2  0
  5 34  1  0
 34 35  2  0
 35  2  1  0
 15 10  1  0
 33 19  1  0
 32 25  1  0
  1 36  1  0
  1 37  1  0
  1 38  1  0
  3 39  1  0
  4 40  1  0
 11 41  1  0
 13 42  1  0
 14 43  1  0
 20 44  1  0
 21 45  1  0
 22 46  1  0
 28 47  1  0
 28 48  1  0
 28 49  1  0
 29 50  1  0
 31 51  1  0
 31 52  1  0
 31 53  1  0
 33 54  1  0
 34 55  1  0
 35 56  1  0
M  CHG  2   9  -1  18  -1
M  END
>  <UniqueID>  (56) 
55

>  <SMILES>  (56) 
Cc1ccc(S(=O)(=O)[N-]c2cnccc2C(=O)[N-]c2cccc(Oc3nc(C)cc(C)n3)c2)cc1

>  <Energy>  (56) 
73.16366743483518

>  <Genealogy>  (56) 
Cc1ccc(S(=O)(=O)[N-]c2cnccc2C(=O)[N-]c2cccc(Oc3nc(C)cc(C)n3)c2)cc1 (protonated)
Cc1ccc(S(=O)(=O)[N-]c2cnccc2C(=O)[N-]c2cccc(Oc3nc(C)cc(C)n3)c2)cc1 (3D coordinates assigned)
Cc1ccc(S(=O)(=O)[N-]c2cnccc2C(=O)[N-]c2cccc(Oc3nc(C)cc(C)n3)c2)cc1 (optimized conformer: 73.16366743483518 kcal/mol)

>  <smiles>  (56) 
Cc1ccc(S(=O)(=O)Nc2cnccc2C(=O)Nc2cccc(Oc3nc(C)cc(C)n3)c2)cc1

>  <score_type>  (56) 
oracle

>  <origin>  (56) 
adg

>  <m_score__min__energy>  (56) 
-12.640000000000001

>  <m_primary>  (56) 
energy

$$$$
56:0
     RDKit          3D

 39 40  0  0  0  0  0  0  0  0999 V2000
   56.2030   23.5750   43.3420 C   0  0  0  0  0  0  0  0  0  0  0  0
   55.1210   23.1210   44.3140 C   0  0  0  0  0  0  0  0  0  0  0  0
   54.4580   24.2710   44.9190 N   0  0  0  0  0  0  0  0  0  0  0  0
   55.0610   25.1110   45.9100 C   0  0  0  0  0  0  0  0  0  0  0  0
   54.7610   26.3310   45.9780 O   0  0  0  0  0  0  0  0  0  0  0  0
   56.0020   24.5700   46.8420 N   0  0  0  0  0  0  0  0  0  0  0  0
   57.4420   24.5300   46.6080 C   0  0  0  0  0  0  0  0  0  0  0  0
   57.9800   25.9230   46.4210 C   0  0  0  0  0  0  0  0  0  0  0  0
   58.0510   26.8110   47.5070 C   0  0  0  0  0  0  0  0  0  0  0  0
   58.4790   28.1270   47.3140 C   0  0  0  0  0  0  0  0  0  0  0  0
   58.8450   28.5710   46.0330 C   0  0  0  0  0  0  0  0  0  0  0  0
   59.2070   30.0150   45.8070 C   0  0  0  0  0  0  0  0  0  0  0  0
   57.9570   30.8930   45.6780 C   0  0  0  0  0  0  0  0  0  0  0  0
   57.2410   30.6180   44.4280 N   0  0  0  0  0  0  0  0  0  0  0  0
   56.1730   29.8220   44.2230 C   0  0  0  0  0  0  0  0  0  0  0  0
   55.5390   29.0450   45.1910 O   0  0  0  0  0  0  0  0  0  0  0  0
   55.7920   29.9050   42.9040 C   0  0  0  0  0  0  0  0  0  0  0  0
   56.6090   30.7660   42.2610 N   0  0  0  0  0  0  0  0  0  0  0  0
   57.4670   31.1770   43.2200 C   0  0  0  0  0  0  0  0  0  0  0  0
   58.3870   32.0090   43.0010 O   0  0  0  0  0  0  0  0  0  0  0  0
   58.7880   27.6800   44.9520 C   0  0  0  0  0  0  0  0  0  0  0  0
   58.3600   26.3630   45.1450 C   0  0  0  0  0  0  0  0  0  0  0  0
   57.0734   23.9402   43.9068 H   0  0  0  0  0  0  0  0  0  0  0  0
   56.5059   22.7281   42.7088 H   0  0  0  0  0  0  0  0  0  0  0  0
   55.8108   24.3845   42.7088 H   0  0  0  0  0  0  0  0  0  0  0  0
   54.3771   22.5192   43.7713 H   0  0  0  0  0  0  0  0  0  0  0  0
   55.5881   22.5222   45.1098 H   0  0  0  0  0  0  0  0  0  0  0  0
   57.9371   24.0628   47.4720 H   0  0  0  0  0  0  0  0  0  0  0  0
   57.6404   23.9448   45.6979 H   0  0  0  0  0  0  0  0  0  0  0  0
   57.7685   26.4690   48.5136 H   0  0  0  0  0  0  0  0  0  0  0  0
   58.5294   28.8178   48.1686 H   0  0  0  0  0  0  0  0  0  0  0  0
   59.8075   30.3705   46.6573 H   0  0  0  0  0  0  0  0  0  0  0  0
   59.7771   30.0856   44.8689 H   0  0  0  0  0  0  0  0  0  0  0  0
   57.2874   30.6904   46.5268 H   0  0  0  0  0  0  0  0  0  0  0  0
   58.2713   31.9471   45.6741 H   0  0  0  0  0  0  0  0  0  0  0  0
   55.1480   28.1370   44.9800 H   0  0  0  0  0  0  0  0  0  0  0  0
   54.9551   29.3572   42.4462 H   0  0  0  0  0  0  0  0  0  0  0  0
   59.0814   28.0186   43.9474 H   0  0  0  0  0  0  0  0  0  0  0  0
   58.3212   25.6692   44.2923 H   0  0  0  0  0  0  0  0  0  0  0  0
  1  2  1  0
  2  3  1  0
  3  4  1  0
  4  5  2  0
  4  6  1  0
  6  7  1  0
  7  8  1  0
  8  9  2  0
  9 10  1  0
 10 11  2  0
 11 12  1  0
 12 13  1  0
 13 14  1  0
 14 15  1  0
 15 16  1  0
 15 17  2  0
 17 18  1  0
 18 19  1  0
 19 20  2  0
 11 21  1  0
 21 22  2  0
 22  8  1  0
 19 14  1  0
  1 23  1  0
  1 24  1  0
  1 25  1  0
  2 26  1  0
  2 27  1  0
  7 28  1  0
  7 29  1  0
  9 30  1  0
 10 31  1  0
 12 32  1  0
 12 33  1  0
 13 34  1  0
 13 35  1  0
 16 36  1  0
 17 37  1  0
 21 38  1  0
 22 39  1  0
M  CHG  3   3  -1   6  -1  18  -1
M  END
>  <UniqueID>  (57) 
56

>  <SMILES>  (57) 
CC[N-]C(=O)[N-]Cc1ccc(CCn2c(O)c[n-]c2=O)cc1

>  <Energy>  (57) 
57.162887954972796

>  <Genealogy>  (57) 
CC[N-]C(=O)[N-]Cc1ccc(CCn2c(O)c[n-]c2=O)cc1 (protonated)
CC[N-]C(=O)[N-]Cc1ccc(CCn2c(O)c[n-]c2=O)cc1 (3D coordinates assigned)
CC[N-]C(=O)[N-]Cc1ccc(CCn2c(O)c[n-]c2=O)cc1 (optimized conformer: 57.162887954972796 kcal/mol)

>  <smiles>  (57) 
CCNC(=O)NCc1ccc(CCn2c(O)c[nH]c2=O)cc1

>  <score_type>  (57) 
oracle

>  <origin>  (57) 
adg

>  <m_score__min__energy>  (57) 
-11.960000000000001

>  <m_primary>  (57) 
energy

$$$$
57:0
     RDKit          3D

 27 28  0  0  0  0  0  0  0  0999 V2000
   60.7130   29.6710   51.5690 N   0  0  0  0  0  0  0  0  0  0  0  0
   59.3020   29.7030   51.3680 C   0  0  0  0  0  0  0  0  0  0  0  0
   58.8470   30.1250   50.2710 O   0  0  0  0  0  0  0  0  0  0  0  0
   58.3770   29.2470   52.4350 C   0  0  0  0  0  0  0  0  0  0  0  0
   58.8450   28.4460   53.4910 C   0  0  0  0  0  0  0  0  0  0  0  0
   57.9700   28.0100   54.4880 C   0  0  0  0  0  0  0  0  0  0  0  0
   56.6230   28.3760   54.4520 C   0  0  0  0  0  0  0  0  0  0  0  0
   56.1430   29.1970   53.4170 C   0  0  0  0  0  0  0  0  0  0  0  0
   54.7610   29.5760   53.3290 N   0  0  0  0  0  0  0  0  0  0  0  0
   54.1630   30.3780   52.3030 C   0  0  0  0  0  0  0  0  0  0  0  0
   54.7750   30.6140   51.2260 O   0  0  0  0  0  0  0  0  0  0  0  0
   52.7910   30.9320   52.5100 C   0  0  0  0  0  0  0  0  0  0  0  0
   52.1000   31.0850   51.1920 C   0  0  0  0  0  0  0  0  0  0  0  0
   52.1010   29.9400   49.9570 S   0  0  0  0  0  0  0  0  0  0  0  0
   51.0670   30.8560   48.9970 C   0  0  0  0  0  0  0  0  0  0  0  0
   50.6680   30.5110   47.8550 O   0  0  0  0  0  0  0  0  0  0  0  0
   50.6970   32.0120   49.5870 N   0  0  0  0  0  0  0  0  0  0  0  0
   51.2670   32.1360   50.8130 C   0  0  0  0  0  0  0  0  0  0  0  0
   51.0220   33.2380   51.6240 O   0  0  0  0  0  0  0  0  0  0  0  0
   57.0180   29.6090   52.4040 C   0  0  0  0  0  0  0  0  0  0  0  0
   61.3720   29.8550   50.7800 H   0  0  0  0  0  0  0  0  0  0  0  0
   59.9066   28.1610   53.5322 H   0  0  0  0  0  0  0  0  0  0  0  0
   58.3434   27.3755   55.3053 H   0  0  0  0  0  0  0  0  0  0  0  0
   55.9364   28.0213   55.2348 H   0  0  0  0  0  0  0  0  0  0  0  0
   52.2132   30.2466   53.1475 H   0  0  0  0  0  0  0  0  0  0  0  0
   52.8670   31.9160   52.9957 H   0  0  0  0  0  0  0  0  0  0  0  0
   56.6380   30.2230   51.5742 H   0  0  0  0  0  0  0  0  0  0  0  0
  1  2  1  0
  2  3  2  0
  2  4  1  0
  4  5  2  0
  5  6  1  0
  6  7  2  0
  7  8  1  0
  8  9  1  0
  9 10  1  0
 10 11  2  0
 10 12  1  0
 12 13  1  0
 13 14  1  0
 14 15  1  0
 15 16  2  0
 15 17  1  0
 17 18  1  0
 18 19  1  0
  8 20  2  0
 20  4  1  0
 18 13  2  0
  1 21  1  0
  5 22  1  0
  6 23  1  0
  7 24  1  0
 12 25  1  0
 12 26  1  0
 20 27  1  0
M  CHG  4   1  -1   9  -1  17  -1  19  -1
M  END
>  <UniqueID>  (58) 
57

>  <SMILES>  (58) 
[NH-]C(=O)c1cccc([N-]C(=O)Cc2sc(=O)[n-]c2[O-])c1

>  <Energy>  (58) 
59.80466998791809

>  <Genealogy>  (58) 
[NH-]C(=O)c1cccc([N-]C(=O)Cc2sc(=O)[n-]c2[O-])c1 (protonated)
[NH-]C(=O)c1cccc([N-]C(=O)Cc2sc(=O)[n-]c2[O-])c1 (3D coordinates assigned)
[NH-]C(=O)c1cccc([N-]C(=O)Cc2sc(=O)[n-]c2[O-])c1 (optimized conformer: 59.80466998791809 kcal/mol)

>  <smiles>  (58) 
NC(=O)c1cccc(NC(=O)Cc2sc(=O)[nH]c2O)c1

>  <score_type>  (58) 
oracle

>  <origin>  (58) 
adg

>  <m_score__min__energy>  (58) 
-17

>  <m_primary>  (58) 
energy

$$$$
58:0
     RDKit          3D

 35 36  0  0  0  0  0  0  0  0999 V2000
   57.1700   24.9970   44.7400 C   0  0  0  0  0  0  0  0  0  0  0  0
   56.0660   25.0690   45.7880 C   0  0  0  0  0  0  0  0  0  0  0  0
   56.0890   26.3270   46.4600 O   0  0  0  0  0  0  0  0  0  0  0  0
   56.7970   27.4390   45.9900 C   0  0  0  0  0  0  0  0  0  0  0  0
   58.0060   27.6020   46.3080 O   0  0  0  0  0  0  0  0  0  0  0  0
   56.1220   28.3890   45.1530 N   0  0  0  0  0  0  0  0  0  0  0  0
   56.6950   29.6330   44.7140 C   0  0  0  0  0  0  0  0  0  0  0  0
   56.6410   29.9930   43.3630 C   0  0  0  0  0  0  0  0  0  0  0  0
   57.1700   31.2260   42.9760 C   0  0  0  0  0  0  0  0  0  0  0  0
   57.1350   31.5810   41.7680 O   0  0  0  0  0  0  0  0  0  0  0  0
   57.7200   32.0500   43.9060 N   0  0  0  0  0  0  0  0  0  0  0  0
   57.7710   31.6870   45.2130 C   0  0  0  0  0  0  0  0  0  0  0  0
   58.4670   32.7970   46.4320 S   0  0  0  0  0  0  0  0  0  0  0  0
   59.6200   31.5570   47.1230 C   0  0  0  0  0  0  0  0  0  0  0  0
   61.0320   32.0790   47.1360 C   0  0  0  0  0  0  0  0  0  0  0  0
   62.0670   31.3020   47.6800 C   0  0  0  0  0  0  0  0  0  0  0  0
   63.3710   31.8060   47.7380 C   0  0  0  0  0  0  0  0  0  0  0  0
   63.6490   33.0870   47.2550 C   0  0  0  0  0  0  0  0  0  0  0  0
   62.6240   33.8660   46.7100 C   0  0  0  0  0  0  0  0  0  0  0  0
   61.3200   33.3660   46.6490 C   0  0  0  0  0  0  0  0  0  0  0  0
   57.2680   30.4870   45.6040 N   0  0  0  0  0  0  0  0  0  0  0  0
   58.1473   24.9333   45.2408 H   0  0  0  0  0  0  0  0  0  0  0  0
   57.0213   24.1066   44.1114 H   0  0  0  0  0  0  0  0  0  0  0  0
   57.1382   25.8991   44.1114 H   0  0  0  0  0  0  0  0  0  0  0  0
   55.0912   24.9411   45.2947 H   0  0  0  0  0  0  0  0  0  0  0  0
   56.2279   24.2706   46.5271 H   0  0  0  0  0  0  0  0  0  0  0  0
   55.1320   28.1780   44.8940 H   0  0  0  0  0  0  0  0  0  0  0  0
   56.1907   29.3180   42.6203 H   0  0  0  0  0  0  0  0  0  0  0  0
   59.3157   31.3178   48.1527 H   0  0  0  0  0  0  0  0  0  0  0  0
   59.5856   30.6572   46.4912 H   0  0  0  0  0  0  0  0  0  0  0  0
   61.8520   30.2931   48.0621 H   0  0  0  0  0  0  0  0  0  0  0  0
   64.1784   31.1927   48.1645 H   0  0  0  0  0  0  0  0  0  0  0  0
   64.6742   33.4827   47.3035 H   0  0  0  0  0  0  0  0  0  0  0  0
   62.8440   34.8740   46.3286 H   0  0  0  0  0  0  0  0  0  0  0  0
   60.5165   33.9816   46.2185 H   0  0  0  0  0  0  0  0  0  0  0  0
  1  2  1  0
  2  3  1  0
  3  4  1  0
  4  5  2  0
  4  6  1  0
  6  7  1  0
  7  8  2  0
  8  9  1  0
  9 10  2  0
  9 11  1  0
 11 12  1  0
 12 13  1  0
 13 14  1  0
 14 15  1  0
 15 16  2  0
 16 17  1  0
 17 18  2  0
 18 19  1  0
 19 20  2  0
 12 21  2  0
 21  7  1  0
 20 15  1  0
  1 22  1  0
  1 23  1  0
  1 24  1  0
  2 25  1  0
  2 26  1  0
  6 27  1  0
  8 28  1  0
 14 29  1  0
 14 30  1  0
 16 31  1  0
 17 32  1  0
 18 33  1  0
 19 34  1  0
 20 35  1  0
M  CHG  1  11  -1
M  END
>  <UniqueID>  (59) 
58

>  <SMILES>  (59) 
CCOC(=O)Nc1cc(=O)[n-]c(SCc2ccccc2)n1

>  <Energy>  (59) 
26.075710839676503

>  <Genealogy>  (59) 
CCOC(=O)Nc1cc(=O)[n-]c(SCc2ccccc2)n1 (protonated)
CCOC(=O)Nc1cc(=O)[n-]c(SCc2ccccc2)n1 (3D coordinates assigned)
CCOC(=O)Nc1cc(=O)[n-]c(SCc2ccccc2)n1 (optimized conformer: 26.075710839676503 kcal/mol)

>  <smiles>  (59) 
CCOC(=O)Nc1cc(=O)[nH]c(SCc2ccccc2)n1

>  <score_type>  (59) 
oracle

>  <origin>  (59) 
adg

>  <m_score__min__energy>  (59) 
-8.6199999999999992

>  <m_primary>  (59) 
energy

$$$$
59:0
     RDKit          3D

 32 33  0  0  0  0  0  0  0  0999 V2000
   59.4551   35.6995   44.9207 H   0  0  0  0  0  0  0  0  0  0  0  0
   59.2600   34.8590   45.6030 C   0  0  0  0  0  0  0  0  0  0  0  0
   58.2170   33.8810   45.2340 C   0  0  0  0  0  0  0  0  0  0  0  0
   57.0500   34.3080   45.0240 O   0  0  0  0  0  0  0  0  0  0  0  0
   58.5160   32.4800   45.0740 N   0  0  0  0  0  0  0  0  0  0  0  0
   59.5120   32.2020   44.9450 H   0  0  0  0  0  0  0  0  0  0  0  0
   57.5090   31.4560   44.9780 C   0  0  0  0  0  0  0  0  0  0  0  0
   56.2930   31.7760   44.8690 O   0  0  0  0  0  0  0  0  0  0  0  0
   57.8780   30.0210   44.9880 C   0  0  0  0  0  0  0  0  0  0  0  0
   58.9530   29.5730   45.7730 C   0  0  0  0  0  0  0  0  0  0  0  0
   59.5193   30.2897   46.3859 H   0  0  0  0  0  0  0  0  0  0  0  0
   59.3060   28.2230   45.7790 C   0  0  0  0  0  0  0  0  0  0  0  0
   60.1441   27.8710   46.3984 H   0  0  0  0  0  0  0  0  0  0  0  0
   58.5850   27.3230   44.9910 C   0  0  0  0  0  0  0  0  0  0  0  0
   58.8940   26.1030   44.9890 O   0  0  0  0  0  0  0  0  0  0  0  0
   57.5520   27.7670   44.2230 N   0  0  0  0  0  0  0  0  0  0  0  0
   57.0240   27.0890   43.6280 H   0  0  0  0  0  0  0  0  0  0  0  0
   57.1900   29.0800   44.2030 C   0  0  0  0  0  0  0  0  0  0  0  0
   56.3532   29.4061   43.5679 H   0  0  0  0  0  0  0  0  0  0  0  0
   59.9810   34.7710   46.7310 C   0  0  0  0  0  0  0  0  0  0  0  0
   59.8419   35.5479   47.4972 H   0  0  0  0  0  0  0  0  0  0  0  0
   60.9550   33.6860   47.0040 C   0  0  0  0  0  0  0  0  0  0  0  0
   62.3450   33.8440   46.8210 C   0  0  0  0  0  0  0  0  0  0  0  0
   62.7425   34.8012   46.4525 H   0  0  0  0  0  0  0  0  0  0  0  0
   63.2200   32.7920   47.1050 C   0  0  0  0  0  0  0  0  0  0  0  0
   64.3016   32.9224   46.9530 H   0  0  0  0  0  0  0  0  0  0  0  0
   62.7260   31.5760   47.5810 C   0  0  0  0  0  0  0  0  0  0  0  0
   63.4173   30.7484   47.7983 H   0  0  0  0  0  0  0  0  0  0  0  0
   61.3540   31.4110   47.7810 C   0  0  0  0  0  0  0  0  0  0  0  0
   60.9650   30.4544   48.1599 H   0  0  0  0  0  0  0  0  0  0  0  0
   60.4740   32.4610   47.5000 C   0  0  0  0  0  0  0  0  0  0  0  0
   59.3952   32.3275   47.6685 H   0  0  0  0  0  0  0  0  0  0  0  0
  1  2  1  0
  2  3  1  0
  3  4  2  0
  3  5  1  0
  5  6  1  0
  5  7  1  0
  7  8  2  0
  7  9  1  0
  9 10  1  0
 10 11  1  0
 10 12  2  0
 12 13  1  0
 12 14  1  0
 14 15  2  0
 14 16  1  0
 16 17  1  0
 16 18  1  0
 18 19  1  0
  2 20  2  0
 20 21  1  0
 20 22  1  0
 22 23  2  0
 23 24  1  0
 23 25  1  0
 25 26  1  0
 25 27  2  0
 27 28  1  0
 27 29  1  0
 29 30  1  0
 29 31  2  0
 31 32  1  0
 18  9  2  0
 31 22  1  0
M  END
>  <UniqueID>  (60) 
59

>  <SMILES>  (60) 
O=C(/C=C/c1ccccc1)NC(=O)c1ccc(=O)[nH]c1

>  <Energy>  (60) 
39.54216178411026

>  <Genealogy>  (60) 
O=C(/C=C/c1ccccc1)NC(=O)c1ccc(=O)[nH]c1 (cis-trans isomerization)
O=C(/C=C/c1ccccc1)NC(=O)c1ccc(=O)[nH]c1 (3D coordinates assigned)
O=C(/C=C/c1ccccc1)NC(=O)c1ccc(=O)[nH]c1 (optimized conformer: 39.54216178411026 kcal/mol)

>  <smiles>  (60) 
O=C(C=Cc1ccccc1)NC(=O)c1ccc(=O)[nH]c1

>  <score_type>  (60) 
oracle

>  <origin>  (60) 
adg

>  <m_score__min__energy>  (60) 
-7.5999999999999996

>  <m_primary>  (60) 
energy

$$$$
60:0
     RDKit          3D

 48 51  0  0  0  0  0  0  0  0999 V2000
   56.1953   23.6052   45.8205 H   0  0  0  0  0  0  0  0  0  0  0  0
   56.0760   24.6980   45.8600 C   0  0  0  0  0  0  0  0  0  0  0  0
   54.9040   25.3480   45.9920 N   0  0  0  0  0  0  0  0  0  0  0  0
   55.1430   26.6510   46.0020 N   0  0  0  0  0  0  0  0  0  0  0  0
   56.4710   26.8350   45.8760 C   0  0  0  0  0  0  0  0  0  0  0  0
   57.1170   28.1520   45.8470 C   0  0  0  0  0  0  0  0  0  0  0  0
   58.2700   28.2940   46.3360 O   0  0  0  0  0  0  0  0  0  0  0  0
   56.4490   29.2510   45.2160 N   0  0  0  0  0  0  0  0  0  0  0  0
   57.0490   30.4780   44.7740 C   0  0  0  0  0  0  0  0  0  0  0  0
   57.0720   30.8520   43.4190 C   0  0  0  0  0  0  0  0  0  0  0  0
   56.6123   30.1995   42.6621 H   0  0  0  0  0  0  0  0  0  0  0  0
   57.6770   32.0500   43.0310 C   0  0  0  0  0  0  0  0  0  0  0  0
   57.6765   32.3464   41.9717 H   0  0  0  0  0  0  0  0  0  0  0  0
   58.2820   32.8720   43.9830 C   0  0  0  0  0  0  0  0  0  0  0  0
   58.7413   33.8227   43.6744 H   0  0  0  0  0  0  0  0  0  0  0  0
   58.3060   32.4880   45.3360 C   0  0  0  0  0  0  0  0  0  0  0  0
   58.8980   33.2870   46.3240 O   0  0  0  0  0  0  0  0  0  0  0  0
   60.2080   33.1490   46.8050 C   0  0  0  0  0  0  0  0  0  0  0  0
   60.9740   34.2490   47.2240 C   0  0  0  0  0  0  0  0  0  0  0  0
   60.5426   35.2605   47.1960 H   0  0  0  0  0  0  0  0  0  0  0  0
   62.2470   34.0670   47.6640 N   0  0  0  0  0  0  0  0  0  0  0  0
   62.8280   32.8340   47.7090 C   0  0  0  0  0  0  0  0  0  0  0  0
   64.0460   32.6730   48.1400 N   0  0  0  0  0  0  0  0  0  0  0  0
   64.4650   32.4760   49.5010 C   0  0  0  0  0  0  0  0  0  0  0  0
   65.6030   32.8510   49.8900 O   0  0  0  0  0  0  0  0  0  0  0  0
   63.6140   31.7900   50.4270 N   0  0  0  0  0  0  0  0  0  0  0  0
   62.3260   32.2300   50.8790 C   0  0  0  0  0  0  0  0  0  0  0  0
   62.1850   33.1510   51.9280 C   0  0  0  0  0  0  0  0  0  0  0  0
   63.0787   33.5691   52.4143 H   0  0  0  0  0  0  0  0  0  0  0  0
   60.9160   33.5380   52.3560 C   0  0  0  0  0  0  0  0  0  0  0  0
   60.8151   34.2705   53.1704 H   0  0  0  0  0  0  0  0  0  0  0  0
   59.7700   33.0030   51.7590 C   0  0  0  0  0  0  0  0  0  0  0  0
   58.2000   33.5380   52.3520 Cl  0  0  0  0  0  0  0  0  0  0  0  0
   59.8930   32.0530   50.7200 C   0  0  0  0  0  0  0  0  0  0  0  0
   58.6620   31.4520   50.0710 C   0  0  0  0  0  0  0  0  0  0  0  0
   57.8400   30.9160   51.0450 F   0  0  0  0  0  0  0  0  0  0  0  0
   57.9390   32.3970   49.3650 F   0  0  0  0  0  0  0  0  0  0  0  0
   59.0420   30.4510   49.1950 F   0  0  0  0  0  0  0  0  0  0  0  0
   61.1820   31.6700   50.2980 C   0  0  0  0  0  0  0  0  0  0  0  0
   61.2908   30.9202   49.5005 H   0  0  0  0  0  0  0  0  0  0  0  0
   62.1020   31.7160   47.2820 C   0  0  0  0  0  0  0  0  0  0  0  0
   62.5588   30.7157   47.3080 H   0  0  0  0  0  0  0  0  0  0  0  0
   60.7940   31.8800   46.8230 C   0  0  0  0  0  0  0  0  0  0  0  0
   60.2222   31.0074   46.4742 H   0  0  0  0  0  0  0  0  0  0  0  0
   57.6800   31.2960   45.7210 C   0  0  0  0  0  0  0  0  0  0  0  0
   57.6836   30.9980   46.7799 H   0  0  0  0  0  0  0  0  0  0  0  0
   57.1030   25.6140   45.7820 C   0  0  0  0  0  0  0  0  0  0  0  0
   58.1793   25.4160   45.6704 H   0  0  0  0  0  0  0  0  0  0  0  0
  1  2  1  0
  2  3  2  0
  3  4  1  0
  4  5  1  0
  5  6  1  0
  6  7  2  0
  6  8  1  0
  8  9  1  0
  9 10  2  0
 10 11  1  0
 10 12  1  0
 12 13  1  0
 12 14  2  0
 14 15  1  0
 14 16  1  0
 16 17  1  0
 17 18  1  0
 18 19  2  0
 19 20  1  0
 19 21  1  0
 21 22  1  0
 22 23  2  0
 23 24  1  0
 24 25  2  0
 24 26  1  0
 26 27  1  0
 27 28  2  0
 28 29  1  0
 28 30  1  0
 30 31  1  0
 30 32  2  0
 32 33  1  0
 32 34  1  0
 34 35  1  0
 35 36  1  0
 35 37  1  0
 35 38  1  0
 34 39  2  0
 39 40  1  0
 22 41  1  0
 41 42  1  0
 41 43  2  0
 43 44  1  0
 16 45  2  0
 45 46  1  0
  5 47  2  0
 47 48  1  0
 47  2  1  0
 45  9  1  0
 43 18  1  0
 39 27  1  0
M  CHG  4   4  -1   8  -1  21  -1  26  -1
M  END
>  <UniqueID>  (61) 
60

>  <SMILES>  (61) 
O=C(/N=c1/ccc(Oc2cccc([N-]C(=O)c3ccn[n-]3)c2)c[n-]1)[N-]c1ccc(Cl)c(C(F)(F)F)c1

>  <Energy>  (61) 
100.06140372428894

>  <Genealogy>  (61) 
O=C(N=c1ccc(Oc2cccc([N-]C(=O)c3ccn[n-]3)c2)c[n-]1)[N-]c1ccc(Cl)c(C(F)(F)F)c1 (protonated)
O=C(/N=c1/ccc(Oc2cccc([N-]C(=O)c3ccn[n-]3)c2)c[n-]1)[N-]c1ccc(Cl)c(C(F)(F)F)c1 (cis-trans isomerization)
O=C(/N=c1/ccc(Oc2cccc([N-]C(=O)c3ccn[n-]3)c2)c[n-]1)[N-]c1ccc(Cl)c(C(F)(F)F)c1 (3D coordinates assigned)
O=C(/N=c1/ccc(Oc2cccc([N-]C(=O)c3ccn[n-]3)c2)c[n-]1)[N-]c1ccc(Cl)c(C(F)(F)F)c1 (optimized conformer: 100.06140372428894 kcal/mol)

>  <smiles>  (61) 
O=C(N=c1ccc(Oc2cccc(NC(=O)c3ccn[nH]3)c2)c[nH]1)Nc1ccc(Cl)c(C(F)(F)F)c1

>  <score_type>  (61) 
oracle

>  <origin>  (61) 
adg

>  <m_score__min__energy>  (61) 
-14.800000000000001

>  <m_primary>  (61) 
energy

$$$$
61:0
     RDKit          3D

 51 54  0  0  0  0  0  0  0  0999 V2000
   55.1520   23.8430   46.0780 C   0  0  0  0  0  0  0  0  0  0  0  0
   56.3890   24.7060   46.1180 C   0  0  0  0  0  0  0  0  0  0  0  0
   57.6670   24.1140   46.2350 C   0  0  0  0  0  0  0  0  0  0  0  0
   57.8350   22.7290   46.3000 O   0  0  0  0  0  0  0  0  0  0  0  0
   58.8070   24.9220   46.3070 C   0  0  0  0  0  0  0  0  0  0  0  0
   58.7020   26.3110   46.2440 C   0  0  0  0  0  0  0  0  0  0  0  0
   57.4460   26.9180   46.1080 C   0  0  0  0  0  0  0  0  0  0  0  0
   57.3590   28.4220   46.0230 C   0  0  0  0  0  0  0  0  0  0  0  0
   56.2750   28.9680   44.6540 S   0  0  0  0  0  0  0  0  0  0  0  0
   57.0320   30.5820   44.4690 C   0  0  0  0  0  0  0  0  0  0  0  0
   57.2250   31.1230   43.1940 C   0  0  0  0  0  0  0  0  0  0  0  0
   57.8070   32.3820   43.0680 C   0  0  0  0  0  0  0  0  0  0  0  0
   58.1900   33.0900   44.2090 C   0  0  0  0  0  0  0  0  0  0  0  0
   58.8050   34.2920   44.0770 F   0  0  0  0  0  0  0  0  0  0  0  0
   57.9920   32.5130   45.4730 C   0  0  0  0  0  0  0  0  0  0  0  0
   58.4270   33.1940   46.6970 C   0  0  0  0  0  0  0  0  0  0  0  0
   58.0110   34.3520   46.9570 O   0  0  0  0  0  0  0  0  0  0  0  0
   59.3680   32.5530   47.5580 N   0  0  0  0  0  0  0  0  0  0  0  0
   60.7270   32.9640   47.7500 C   0  0  0  0  0  0  0  0  0  0  0  0
   61.6090   33.0990   46.6580 C   0  0  0  0  0  0  0  0  0  0  0  0
   62.9240   33.5620   46.8580 C   0  0  0  0  0  0  0  0  0  0  0  0
   63.3710   33.8850   48.1480 C   0  0  0  0  0  0  0  0  0  0  0  0
   62.4880   33.7350   49.2170 C   0  0  0  0  0  0  0  0  0  0  0  0
   61.2020   33.3010   49.0290 C   0  0  0  0  0  0  0  0  0  0  0  0
   60.5170   33.2150   50.2710 N   0  0  0  0  0  0  0  0  0  0  0  0
   59.1500   32.7570   50.4890 C   0  0  0  0  0  0  0  0  0  0  0  0
   61.4270   33.6050   51.3490 C   0  0  0  0  0  0  0  0  0  0  0  0
   62.7490   34.0110   50.6590 C   0  0  0  0  0  0  0  0  0  0  0  0
   57.4230   31.2800   45.5670 N   0  0  0  0  0  0  0  0  0  0  0  0
   56.2890   26.1130   46.0620 C   0  0  0  0  0  0  0  0  0  0  0  0
   55.0350   26.7150   45.9660 O   0  0  0  0  0  0  0  0  0  0  0  0
   54.8288   23.6175   47.1050 H   0  0  0  0  0  0  0  0  0  0  0  0
   54.3488   24.3777   45.5499 H   0  0  0  0  0  0  0  0  0  0  0  0
   55.3766   22.9045   45.5499 H   0  0  0  0  0  0  0  0  0  0  0  0
   57.6220   22.1020   45.5360 H   0  0  0  0  0  0  0  0  0  0  0  0
   59.7976   24.4561   46.4146 H   0  0  0  0  0  0  0  0  0  0  0  0
   59.6079   26.9324   46.3012 H   0  0  0  0  0  0  0  0  0  0  0  0
   56.9566   28.8088   46.9709 H   0  0  0  0  0  0  0  0  0  0  0  0
   58.3701   28.8111   45.8324 H   0  0  0  0  0  0  0  0  0  0  0  0
   56.9202   30.5598   42.2996 H   0  0  0  0  0  0  0  0  0  0  0  0
   57.9648   32.8182   42.0706 H   0  0  0  0  0  0  0  0  0  0  0  0
   61.2681   32.8413   45.6444 H   0  0  0  0  0  0  0  0  0  0  0  0
   63.6031   33.6708   45.9995 H   0  0  0  0  0  0  0  0  0  0  0  0
   64.3960   34.2488   48.3127 H   0  0  0  0  0  0  0  0  0  0  0  0
   58.9533   32.6911   51.5693 H   0  0  0  0  0  0  0  0  0  0  0  0
   58.4474   33.4688   50.0311 H   0  0  0  0  0  0  0  0  0  0  0  0
   59.0181   31.7656   50.0311 H   0  0  0  0  0  0  0  0  0  0  0  0
   61.0122   34.4543   51.9117 H   0  0  0  0  0  0  0  0  0  0  0  0
   61.5801   32.7847   52.0658 H   0  0  0  0  0  0  0  0  0  0  0  0
   62.9665   35.0769   50.8222 H   0  0  0  0  0  0  0  0  0  0  0  0
   63.6209   33.4652   51.0487 H   0  0  0  0  0  0  0  0  0  0  0  0
  1  2  1  0
  2  3  2  0
  3  4  1  0
  3  5  1  0
  5  6  2  0
  6  7  1  0
  7  8  1  0
  8  9  1  0
  9 10  1  0
 10 11  2  0
 11 12  1  0
 12 13  2  0
 13 14  1  0
 13 15  1  0
 15 16  1  0
 16 17  2  0
 16 18  1  0
 18 19  1  0
 19 20  2  0
 20 21  1  0
 21 22  2  0
 22 23  1  0
 23 24  2  0
 24 25  1  0
 25 26  1  0
 25 27  1  0
 27 28  1  0
 15 29  2  0
  7 30  2  0
 30 31  1  0
 30  2  1  0
 29 10  1  0
 24 19  1  0
 28 23  1  0
  1 32  1  0
  1 33  1  0
  1 34  1  0
  4 35  1  0
  5 36  1  0
  6 37  1  0
  8 38  1  0
  8 39  1  0
 11 40  1  0
 12 41  1  0
 20 42  1  0
 21 43  1  0
 22 44  1  0
 26 45  1  0
 26 46  1  0
 26 47  1  0
 27 48  1  0
 27 49  1  0
 28 50  1  0
 28 51  1  0
M  CHG  2  18  -1  31  -1
M  END
>  <UniqueID>  (62) 
61

>  <SMILES>  (62) 
Cc1c(O)ccc(CSc2ccc(F)c(C(=O)[N-]c3cccc4c3N(C)CC4)n2)c1[O-]

>  <Energy>  (62) 
72.79555062717188

>  <Genealogy>  (62) 
Cc1c(O)ccc(CSc2ccc(F)c(C(=O)[N-]c3cccc4c3N(C)CC4)n2)c1[O-] (protonated)
Cc1c(O)ccc(CSc2ccc(F)c(C(=O)[N-]c3cccc4c3N(C)CC4)n2)c1[O-] (3D coordinates assigned)
Cc1c(O)ccc(CSc2ccc(F)c(C(=O)[N-]c3cccc4c3N(C)CC4)n2)c1[O-] (nonaromatic ring conformer: 72.79555062717188 kcal/mol)

>  <smiles>  (62) 
Cc1c(O)ccc(CSc2ccc(F)c(C(=O)Nc3cccc4c3N(C)CC4)n2)c1O

>  <score_type>  (62) 
oracle

>  <origin>  (62) 
adg

>  <m_score__min__energy>  (62) 
-13.59

>  <m_primary>  (62) 
energy

$$$$
62:0
     RDKit          3D

 32 33  0  0  0  0  0  0  0  0999 V2000
   58.1680   31.9840   44.9840 C   0  0  0  0  0  0  0  0  0  0  0  0
   58.4530   30.9800   46.0210 N   0  0  0  0  0  0  0  0  0  0  0  0
   59.3560   31.3150   46.9950 C   0  0  0  0  0  0  0  0  0  0  0  0
   59.6530   30.4350   48.0280 C   0  0  0  0  0  0  0  0  0  0  0  0
   59.0310   29.1970   48.0700 C   0  0  0  0  0  0  0  0  0  0  0  0
   58.1400   28.8200   47.0570 C   0  0  0  0  0  0  0  0  0  0  0  0
   57.4590   27.5580   47.1300 N   0  0  0  0  0  0  0  0  0  0  0  0
   58.0470   26.2670   46.9220 C   0  0  0  0  0  0  0  0  0  0  0  0
   59.1430   26.0040   47.4850 O   0  0  0  0  0  0  0  0  0  0  0  0
   57.3490   25.2110   46.1570 C   0  0  0  0  0  0  0  0  0  0  0  0
   58.0360   24.0190   45.8620 C   0  0  0  0  0  0  0  0  0  0  0  0
   57.4280   23.0160   45.1060 C   0  0  0  0  0  0  0  0  0  0  0  0
   56.1280   23.1900   44.6290 C   0  0  0  0  0  0  0  0  0  0  0  0
   55.5260   22.1930   43.8710 O   0  0  0  0  0  0  0  0  0  0  0  0
   55.4300   24.3660   44.9160 C   0  0  0  0  0  0  0  0  0  0  0  0
   56.0220   25.3750   45.6870 C   0  0  0  0  0  0  0  0  0  0  0  0
   55.2600   26.5050   45.9880 O   0  0  0  0  0  0  0  0  0  0  0  0
   57.8640   29.7310   46.0070 C   0  0  0  0  0  0  0  0  0  0  0  0
   56.7550   29.2540   44.6900 S   0  0  0  0  0  0  0  0  0  0  0  0
   56.9350   30.1610   43.5060 O   0  0  0  0  0  0  0  0  0  0  0  0
   57.0150   27.8470   44.2300 O   0  0  0  0  0  0  0  0  0  0  0  0
   55.1710   29.3600   45.2400 O   0  0  0  0  0  0  0  0  0  0  0  0
   57.8974   32.9374   45.4612 H   0  0  0  0  0  0  0  0  0  0  0  0
   59.0608   32.1279   44.3577 H   0  0  0  0  0  0  0  0  0  0  0  0
   57.3328   31.6374   44.3577 H   0  0  0  0  0  0  0  0  0  0  0  0
   59.8534   32.2955   46.9586 H   0  0  0  0  0  0  0  0  0  0  0  0
   60.3763   30.7185   48.8068 H   0  0  0  0  0  0  0  0  0  0  0  0
   59.2379   28.5079   48.9021 H   0  0  0  0  0  0  0  0  0  0  0  0
   59.0624   23.8764   46.2309 H   0  0  0  0  0  0  0  0  0  0  0  0
   57.9741   22.0869   44.8857 H   0  0  0  0  0  0  0  0  0  0  0  0
   54.4075   24.5007   44.5335 H   0  0  0  0  0  0  0  0  0  0  0  0
   55.6410   27.4410   46.0060 H   0  0  0  0  0  0  0  0  0  0  0  0
  1  2  1  0
  2  3  2  0
  3  4  1  0
  4  5  2  0
  5  6  1  0
  6  7  1  0
  7  8  1  0
  8  9  2  0
  8 10  1  0
 10 11  2  0
 11 12  1  0
 12 13  2  0
 13 14  1  0
 13 15  1  0
 15 16  2  0
 16 17  1  0
  6 18  2  0
 18 19  1  0
 19 20  2  0
 19 21  2  0
 19 22  1  0
 18  2  1  0
 16 10  1  0
  1 23  1  0
  1 24  1  0
  1 25  1  0
  3 26  1  0
  4 27  1  0
  5 28  1  0
 11 29  1  0
 12 30  1  0
 15 31  1  0
 17 32  1  0
M  CHG  4   2   1   7  -1  14  -1  22  -1
M  END
>  <UniqueID>  (63) 
62

>  <SMILES>  (63) 
C[n+]1cccc([N-]C(=O)c2ccc([O-])cc2O)c1S(=O)(=O)[O-]

>  <Energy>  (63) 
49.54861605975535

>  <Genealogy>  (63) 
C[n+]1cccc([N-]C(=O)c2ccc([O-])cc2O)c1S(=O)(=O)[O-] (protonated)
C[n+]1cccc([N-]C(=O)c2ccc([O-])cc2O)c1S(=O)(=O)[O-] (3D coordinates assigned)
C[n+]1cccc([N-]C(=O)c2ccc([O-])cc2O)c1S(=O)(=O)[O-] (optimized conformer: 49.54861605975535 kcal/mol)

>  <smiles>  (63) 
C[n+]1cccc(NC(=O)c2ccc(O)cc2O)c1S(=O)(=O)O

>  <score_type>  (63) 
oracle

>  <origin>  (63) 
adg

>  <m_score__min__energy>  (63) 
-12.640000000000001

>  <m_primary>  (63) 
energy

$$$$
63:0
     RDKit          3D

 40 43  0  0  0  0  0  0  0  0999 V2000
   55.4830   25.1940   46.3690 O   0  0  0  0  0  0  0  0  0  0  0  0
   56.2020   26.1900   46.0950 C   0  0  0  0  0  0  0  0  0  0  0  0
   55.6240   27.3220   45.6190 N   0  0  0  0  0  0  0  0  0  0  0  0
   56.3520   28.4260   45.3090 C   0  0  0  0  0  0  0  0  0  0  0  0
   55.7040   29.5650   44.8220 C   0  0  0  0  0  0  0  0  0  0  0  0
   56.4390   30.7060   44.4940 C   0  0  0  0  0  0  0  0  0  0  0  0
   57.8280   30.7260   44.6600 C   0  0  0  0  0  0  0  0  0  0  0  0
   58.5280   31.8900   44.3090 O   0  0  0  0  0  0  0  0  0  0  0  0
   58.8830   32.9220   45.1900 C   0  0  0  0  0  0  0  0  0  0  0  0
   58.9250   32.7290   46.5850 C   0  0  0  0  0  0  0  0  0  0  0  0
   59.2700   33.7880   47.4310 C   0  0  0  0  0  0  0  0  0  0  0  0
   59.5610   35.0460   46.8960 C   0  0  0  0  0  0  0  0  0  0  0  0
   59.5000   35.2480   45.5140 C   0  0  0  0  0  0  0  0  0  0  0  0
   59.1560   34.1910   44.6660 C   0  0  0  0  0  0  0  0  0  0  0  0
   58.4880   29.5740   45.1260 C   0  0  0  0  0  0  0  0  0  0  0  0
   57.7580   28.4200   45.4660 C   0  0  0  0  0  0  0  0  0  0  0  0
   58.3800   27.2480   45.9520 C   0  0  0  0  0  0  0  0  0  0  0  0
   60.1380   27.1350   46.0910 Cl  0  0  0  0  0  0  0  0  0  0  0  0
   57.5870   26.1330   46.2890 C   0  0  0  0  0  0  0  0  0  0  0  0
   58.1580   24.9550   46.7900 O   0  0  0  0  0  0  0  0  0  0  0  0
   57.8220   23.6630   46.3580 C   0  0  0  0  0  0  0  0  0  0  0  0
   56.9900   22.8810   47.1680 C   0  0  0  0  0  0  0  0  0  0  0  0
   56.6330   21.5880   46.7760 C   0  0  0  0  0  0  0  0  0  0  0  0
   57.1090   21.0600   45.5720 C   0  0  0  0  0  0  0  0  0  0  0  0
   56.7440   19.7700   45.1930 O   0  0  0  0  0  0  0  0  0  0  0  0
   57.9500   21.8320   44.7590 C   0  0  0  0  0  0  0  0  0  0  0  0
   58.3090   23.1260   45.1500 C   0  0  0  0  0  0  0  0  0  0  0  0
   54.6112   29.5623   44.6968 H   0  0  0  0  0  0  0  0  0  0  0  0
   55.9226   31.5949   44.1026 H   0  0  0  0  0  0  0  0  0  0  0  0
   58.6859   31.7429   47.0099 H   0  0  0  0  0  0  0  0  0  0  0  0
   59.3124   33.6306   48.5189 H   0  0  0  0  0  0  0  0  0  0  0  0
   59.8378   35.8766   47.5619 H   0  0  0  0  0  0  0  0  0  0  0  0
   59.7229   36.2396   45.0933 H   0  0  0  0  0  0  0  0  0  0  0  0
   59.0995   34.3576   43.5802 H   0  0  0  0  0  0  0  0  0  0  0  0
   59.5835   29.5755   45.2253 H   0  0  0  0  0  0  0  0  0  0  0  0
   56.6149   23.2869   48.1191 H   0  0  0  0  0  0  0  0  0  0  0  0
   55.9749   20.9832   47.4172 H   0  0  0  0  0  0  0  0  0  0  0  0
   57.3180   19.2200   44.5640 H   0  0  0  0  0  0  0  0  0  0  0  0
   58.3283   21.4196   43.8120 H   0  0  0  0  0  0  0  0  0  0  0  0
   58.9740   23.7266   44.5120 H   0  0  0  0  0  0  0  0  0  0  0  0
  1  2  2  0
  2  3  1  0
  3  4  1  0
  4  5  2  0
  5  6  1  0
  6  7  2  0
  7  8  1  0
  8  9  1  0
  9 10  2  0
 10 11  1  0
 11 12  2  0
 12 13  1  0
 13 14  2  0
  7 15  1  0
 15 16  2  0
 16 17  1  0
 17 18  1  0
 17 19  2  0
 19 20  1  0
 20 21  1  0
 21 22  2  0
 22 23  1  0
 23 24  2  0
 24 25  1  0
 24 26  1  0
 26 27  2  0
 19  2  1  0
 27 21  1  0
 16  4  1  0
 14  9  1  0
  5 28  1  0
  6 29  1  0
 10 30  1  0
 11 31  1  0
 12 32  1  0
 13 33  1  0
 14 34  1  0
 15 35  1  0
 22 36  1  0
 23 37  1  0
 25 38  1  0
 26 39  1  0
 27 40  1  0
M  CHG  1   3  -1
M  END
>  <UniqueID>  (64) 
63

>  <SMILES>  (64) 
O=c1[n-]c2ccc(Oc3ccccc3)cc2c(Cl)c1Oc1ccc(O)cc1

>  <Energy>  (64) 
65.24166754308679

>  <Genealogy>  (64) 
O=c1[n-]c2ccc(Oc3ccccc3)cc2c(Cl)c1Oc1ccc(O)cc1 (protonated)
O=c1[n-]c2ccc(Oc3ccccc3)cc2c(Cl)c1Oc1ccc(O)cc1 (3D coordinates assigned)
O=c1[n-]c2ccc(Oc3ccccc3)cc2c(Cl)c1Oc1ccc(O)cc1 (optimized conformer: 65.24166754308679 kcal/mol)

>  <smiles>  (64) 
O=c1[nH]c2ccc(Oc3ccccc3)cc2c(Cl)c1Oc1ccc(O)cc1

>  <score_type>  (64) 
oracle

>  <origin>  (64) 
adg

>  <m_score__min__energy>  (64) 
-10.31

>  <m_primary>  (64) 
energy

$$$$
64:0
     RDKit          3D

 46 48  0  0  0  0  0  0  0  0999 V2000
   55.4480   30.6440   52.1400 C   0  0  0  0  0  0  0  0  0  0  0  0
   56.6940   30.1670   51.6420 O   0  0  0  0  0  0  0  0  0  0  0  0
   57.7450   30.9920   51.2170 C   0  0  0  0  0  0  0  0  0  0  0  0
   57.8570   32.2690   51.7790 C   0  0  0  0  0  0  0  0  0  0  0  0
   58.8950   33.1240   51.3970 C   0  0  0  0  0  0  0  0  0  0  0  0
   59.8390   32.7180   50.4460 C   0  0  0  0  0  0  0  0  0  0  0  0
   60.8740   33.6090   50.1160 O   0  0  0  0  0  0  0  0  0  0  0  0
   61.3350   33.8870   48.7940 C   0  0  0  0  0  0  0  0  0  0  0  0
   60.1910   34.2450   47.9000 C   0  0  0  0  0  0  0  0  0  0  0  0
   59.2590   34.9720   48.3380 O   0  0  0  0  0  0  0  0  0  0  0  0
   60.1460   33.7240   46.5660 N   0  0  0  0  0  0  0  0  0  0  0  0
   59.3840   32.5900   46.1330 C   0  0  0  0  0  0  0  0  0  0  0  0
   58.2140   32.8070   45.3950 C   0  0  0  0  0  0  0  0  0  0  0  0
   57.4180   31.7290   44.9940 C   0  0  0  0  0  0  0  0  0  0  0  0
   57.7800   30.4200   45.3400 C   0  0  0  0  0  0  0  0  0  0  0  0
   56.7690   29.0560   44.8750 S   0  0  0  0  0  0  0  0  0  0  0  0
   55.3170   29.4450   44.8740 O   0  0  0  0  0  0  0  0  0  0  0  0
   57.1580   28.6110   43.4920 O   0  0  0  0  0  0  0  0  0  0  0  0
   57.0030   27.7420   45.9840 N   0  0  0  0  0  0  0  0  0  0  0  0
   56.4070   26.5950   45.8590 C   0  0  0  0  0  0  0  0  0  0  0  0
   56.9600   25.4890   45.2570 C   0  0  0  0  0  0  0  0  0  0  0  0
   55.9580   24.5480   45.3760 C   0  0  0  0  0  0  0  0  0  0  0  0
   55.9950   23.1500   44.8590 C   0  0  0  0  0  0  0  0  0  0  0  0
   54.9250   25.0860   45.9880 O   0  0  0  0  0  0  0  0  0  0  0  0
   55.1610   26.3280   46.2990 N   0  0  0  0  0  0  0  0  0  0  0  0
   58.9430   30.1990   46.0890 C   0  0  0  0  0  0  0  0  0  0  0  0
   59.7380   31.2760   46.4910 C   0  0  0  0  0  0  0  0  0  0  0  0
   59.7160   31.4430   49.8620 C   0  0  0  0  0  0  0  0  0  0  0  0
   58.6840   30.5830   50.2520 C   0  0  0  0  0  0  0  0  0  0  0  0
   55.4659   30.6372   53.2398 H   0  0  0  0  0  0  0  0  0  0  0  0
   55.2789   31.6704   51.7824 H   0  0  0  0  0  0  0  0  0  0  0  0
   54.6367   29.9929   51.7824 H   0  0  0  0  0  0  0  0  0  0  0  0
   57.1226   32.6024   52.5270 H   0  0  0  0  0  0  0  0  0  0  0  0
   58.9708   34.1246   51.8476 H   0  0  0  0  0  0  0  0  0  0  0  0
   62.0436   34.7277   48.8279 H   0  0  0  0  0  0  0  0  0  0  0  0
   61.8281   32.9883   48.3950 H   0  0  0  0  0  0  0  0  0  0  0  0
   57.9187   33.8326   45.1287 H   0  0  0  0  0  0  0  0  0  0  0  0
   56.5060   31.9090   44.4059 H   0  0  0  0  0  0  0  0  0  0  0  0
   57.9529   25.3815   44.7959 H   0  0  0  0  0  0  0  0  0  0  0  0
   56.0136   22.4467   45.7046 H   0  0  0  0  0  0  0  0  0  0  0  0
   55.1015   22.9622   44.2455 H   0  0  0  0  0  0  0  0  0  0  0  0
   56.8972   23.0097   44.2455 H   0  0  0  0  0  0  0  0  0  0  0  0
   59.2318   29.1733   46.3620 H   0  0  0  0  0  0  0  0  0  0  0  0
   60.6434   31.0958   47.0892 H   0  0  0  0  0  0  0  0  0  0  0  0
   60.4355   31.1212   49.0947 H   0  0  0  0  0  0  0  0  0  0  0  0
   58.6061   29.5822   49.8022 H   0  0  0  0  0  0  0  0  0  0  0  0
  1  2  1  0
  2  3  1  0
  3  4  2  0
  4  5  1  0
  5  6  2  0
  6  7  1  0
  7  8  1  0
  8  9  1  0
  9 10  2  0
  9 11  1  0
 11 12  1  0
 12 13  2  0
 13 14  1  0
 14 15  2  0
 15 16  1  0
 16 17  2  0
 16 18  2  0
 16 19  1  0
 19 20  2  3
 20 21  1  0
 21 22  2  0
 22 23  1  0
 22 24  1  0
 24 25  1  0
 15 26  1  0
 26 27  2  0
  6 28  1  0
 28 29  2  0
 29  3  1  0
 27 12  1  0
 25 20  1  0
  1 30  1  0
  1 31  1  0
  1 32  1  0
  4 33  1  0
  5 34  1  0
  8 35  1  0
  8 36  1  0
 13 37  1  0
 14 38  1  0
 21 39  1  0
 23 40  1  0
 23 41  1  0
 23 42  1  0
 26 43  1  0
 27 44  1  0
 28 45  1  0
 29 46  1  0
M  CHG  2  11  -1  25  -1
M  END
>  <UniqueID>  (65) 
64

>  <SMILES>  (65) 
COc1ccc(OCC(=O)[N-]c2ccc(S(=O)(=O)N=c3cc(C)o[n-]3)cc2)cc1

>  <Energy>  (65) 
82.04877924879885

>  <Genealogy>  (65) 
COc1ccc(OCC(=O)[N-]c2ccc(S(=O)(=O)N=c3cc(C)o[n-]3)cc2)cc1 (protonated)
COc1ccc(OCC(=O)[N-]c2ccc(S(=O)(=O)N=c3cc(C)o[n-]3)cc2)cc1 (3D coordinates assigned)
COc1ccc(OCC(=O)[N-]c2ccc(S(=O)(=O)N=c3cc(C)o[n-]3)cc2)cc1 (optimized conformer: 82.04877924879885 kcal/mol)

>  <smiles>  (65) 
COc1ccc(OCC(=O)Nc2ccc(S(=O)(=O)N=c3cc(C)o[nH]3)cc2)cc1

>  <score_type>  (65) 
oracle

>  <origin>  (65) 
adg

>  <m_score__min__energy>  (65) 
-11.65

>  <m_primary>  (65) 
energy

$$$$
65:0
     RDKit          3D

 56 59  0  0  0  0  0  0  0  0999 V2000
   56.3020   29.4070   42.6330 C   0  0  0  0  0  0  0  0  0  0  0  0
   57.0230   29.9170   43.8450 C   0  0  0  0  0  0  0  0  0  0  0  0
   57.1060   29.2760   45.0690 C   0  0  0  0  0  0  0  0  0  0  0  0
   56.4820   28.0320   45.4100 N   0  0  0  0  0  0  0  0  0  0  0  0
   57.0470   26.9990   46.2280 C   0  0  0  0  0  0  0  0  0  0  0  0
   57.5150   27.2790   47.3650 O   0  0  0  0  0  0  0  0  0  0  0  0
   57.1290   25.6100   45.7170 C   0  0  0  0  0  0  0  0  0  0  0  0
   55.9660   24.9350   45.2990 C   0  0  0  0  0  0  0  0  0  0  0  0
   56.0430   23.6280   44.8090 C   0  0  0  0  0  0  0  0  0  0  0  0
   57.2790   22.9740   44.7340 C   0  0  0  0  0  0  0  0  0  0  0  0
   57.3920   21.3390   44.0830 S   0  0  0  0  0  0  0  0  0  0  0  0
   58.6360   21.2100   43.2480 O   0  0  0  0  0  0  0  0  0  0  0  0
   56.2020   21.1010   43.1950 O   0  0  0  0  0  0  0  0  0  0  0  0
   57.3940   20.1590   45.3800 N   0  0  0  0  0  0  0  0  0  0  0  0
   57.4110   20.8130   46.7130 C   0  0  0  0  0  0  0  0  0  0  0  0
   56.0130   20.8920   47.3550 C   0  0  0  0  0  0  0  0  0  0  0  0
   55.0220   21.0340   46.3630 O   0  0  0  0  0  0  0  0  0  0  0  0
   54.9120   19.8440   45.6000 C   0  0  0  0  0  0  0  0  0  0  0  0
   56.2760   19.2020   45.2510 C   0  0  0  0  0  0  0  0  0  0  0  0
   58.4390   23.6400   45.1450 C   0  0  0  0  0  0  0  0  0  0  0  0
   58.3660   24.9480   45.6340 C   0  0  0  0  0  0  0  0  0  0  0  0
   57.7840   30.1610   45.8870 C   0  0  0  0  0  0  0  0  0  0  0  0
   58.0370   30.0030   47.1110 O   0  0  0  0  0  0  0  0  0  0  0  0
   58.1130   31.2620   45.1780 N   0  0  0  0  0  0  0  0  0  0  0  0
   58.8380   32.4000   45.6790 C   0  0  0  0  0  0  0  0  0  0  0  0
   60.0380   32.2210   46.3870 C   0  0  0  0  0  0  0  0  0  0  0  0
   60.7480   33.3280   46.8630 C   0  0  0  0  0  0  0  0  0  0  0  0
   60.2680   34.6210   46.6300 C   0  0  0  0  0  0  0  0  0  0  0  0
   59.0790   34.8070   45.9190 C   0  0  0  0  0  0  0  0  0  0  0  0
   58.3670   33.7020   45.4420 C   0  0  0  0  0  0  0  0  0  0  0  0
   57.6330   31.1250   43.9440 N   0  0  0  0  0  0  0  0  0  0  0  0
   57.7300   32.1280   42.8800 C   0  0  0  0  0  0  0  0  0  0  0  0
   55.4414   28.7983   42.9474 H   0  0  0  0  0  0  0  0  0  0  0  0
   55.9492   30.2576   42.0313 H   0  0  0  0  0  0  0  0  0  0  0  0
   56.9865   28.7911   42.0313 H   0  0  0  0  0  0  0  0  0  0  0  0
   54.9903   25.4395   45.3584 H   0  0  0  0  0  0  0  0  0  0  0  0
   55.1290   23.1112   44.4810 H   0  0  0  0  0  0  0  0  0  0  0  0
   58.2830   19.6170   45.2740 H   0  0  0  0  0  0  0  0  0  0  0  0
   58.0717   20.2381   47.3785 H   0  0  0  0  0  0  0  0  0  0  0  0
   57.7706   21.8431   46.5728 H   0  0  0  0  0  0  0  0  0  0  0  0
   55.8243   19.9710   47.9261 H   0  0  0  0  0  0  0  0  0  0  0  0
   55.9766   21.7658   48.0221 H   0  0  0  0  0  0  0  0  0  0  0  0
   54.3221   19.1154   46.1755 H   0  0  0  0  0  0  0  0  0  0  0  0
   54.4308   20.1148   44.6486 H   0  0  0  0  0  0  0  0  0  0  0  0
   56.4537   18.3563   45.9316 H   0  0  0  0  0  0  0  0  0  0  0  0
   56.2346   18.8713   44.2027 H   0  0  0  0  0  0  0  0  0  0  0  0
   59.4128   23.1322   45.0831 H   0  0  0  0  0  0  0  0  0  0  0  0
   59.2834   25.4625   45.9560 H   0  0  0  0  0  0  0  0  0  0  0  0
   60.4209   31.2058   46.5678 H   0  0  0  0  0  0  0  0  0  0  0  0
   61.6846   33.1817   47.4210 H   0  0  0  0  0  0  0  0  0  0  0  0
   60.8260   35.4911   47.0062 H   0  0  0  0  0  0  0  0  0  0  0  0
   58.7028   35.8241   45.7344 H   0  0  0  0  0  0  0  0  0  0  0  0
   57.4342   33.8530   44.8789 H   0  0  0  0  0  0  0  0  0  0  0  0
   57.8268   33.1285   43.3269 H   0  0  0  0  0  0  0  0  0  0  0  0
   58.6120   31.9178   42.2572 H   0  0  0  0  0  0  0  0  0  0  0  0
   56.8241   32.0907   42.2572 H   0  0  0  0  0  0  0  0  0  0  0  0
  1  2  1  0
  2  3  2  0
  3  4  1  0
  4  5  1  0
  5  6  2  0
  5  7  1  0
  7  8  2  0
  8  9  1  0
  9 10  2  0
 10 11  1  0
 11 12  2  0
 11 13  2  0
 11 14  1  0
 14 15  1  0
 15 16  1  0
 16 17  1  0
 17 18  1  0
 18 19  1  0
 10 20  1  0
 20 21  2  0
  3 22  1  0
 22 23  2  0
 22 24  1  0
 24 25  1  0
 25 26  2  0
 26 27  1  0
 27 28  2  0
 28 29  1  0
 29 30  2  0
 24 31  1  0
 31 32  1  0
 31  2  1  0
 21  7  1  0
 30 25  1  0
 19 14  1  0
  1 33  1  0
  1 34  1  0
  1 35  1  0
  8 36  1  0
  9 37  1  0
 14 38  1  0
 15 39  1  0
 15 40  1  0
 16 41  1  0
 16 42  1  0
 18 43  1  0
 18 44  1  0
 19 45  1  0
 19 46  1  0
 20 47  1  0
 21 48  1  0
 26 49  1  0
 27 50  1  0
 28 51  1  0
 29 52  1  0
 30 53  1  0
 32 54  1  0
 32 55  1  0
 32 56  1  0
M  CHG  2   4  -1  14   1
M  END
>  <UniqueID>  (66) 
65

>  <SMILES>  (66) 
Cc1c([N-]C(=O)c2ccc(S(=O)(=O)[NH+]3CCOCC3)cc2)c(=O)n(-c2ccccc2)n1C

>  <Energy>  (66) 
114.4811039223976

>  <Genealogy>  (66) 
Cc1c([N-]C(=O)c2ccc(S(=O)(=O)[NH+]3CCOCC3)cc2)c(=O)n(-c2ccccc2)n1C (protonated)
Cc1c([N-]C(=O)c2ccc(S(=O)(=O)[NH+]3CCOCC3)cc2)c(=O)n(-c2ccccc2)n1C (3D coordinates assigned)
Cc1c([N-]C(=O)c2ccc(S(=O)(=O)[NH+]3CCOCC3)cc2)c(=O)n(-c2ccccc2)n1C (nonaromatic ring conformer: 114.4811039223976 kcal/mol)

>  <smiles>  (66) 
Cc1c(NC(=O)c2ccc(S(=O)(=O)N3CCOCC3)cc2)c(=O)n(-c2ccccc2)n1C

>  <score_type>  (66) 
oracle

>  <origin>  (66) 
adg

>  <m_score__min__energy>  (66) 
-9.8300000000000001

>  <m_primary>  (66) 
energy

$$$$
66:0
     RDKit          3D

 53 54  0  0  1  0  0  0  0  0999 V2000
   57.0600   23.7290   43.7720 C   0  0  0  0  0  0  0  0  0  0  0  0
   56.9980   25.1910   43.8310 N   0  0  0  0  0  0  0  0  0  0  0  0
   57.2660   25.8060   45.0720 C   0  0  0  0  0  0  0  0  0  0  0  0
   57.5410   25.0560   46.0470 O   0  0  0  0  0  0  0  0  0  0  0  0
   57.2290   27.2520   45.2340 C   0  0  0  0  0  0  0  0  0  0  0  0
   58.3060   28.1030   45.2830 C   0  0  0  0  0  0  0  0  0  0  0  0
   57.7610   29.3700   45.4460 C   0  0  0  0  0  0  0  0  0  0  0  0
   58.3890   30.4730   45.5420 N   0  0  0  0  0  0  0  0  0  0  0  0
   57.7170   31.7240   45.6190 C   0  0  0  0  0  0  0  0  0  0  0  0
   56.6430   31.9770   45.0160 O   0  0  0  0  0  0  0  0  0  0  0  0
   58.3530   32.7470   46.4640 C   0  0  0  0  0  0  0  0  0  0  0  0
   58.4560   32.4690   47.8100 C   0  0  0  0  0  0  0  0  0  0  0  0
   59.0460   33.3800   48.7010 C   0  0  0  0  0  0  0  0  0  0  0  0
   59.0990   33.0190   50.0080 O   0  0  0  0  0  0  0  0  0  0  0  0
   58.2600   32.2460   50.7730 C   0  0  0  0  0  0  0  0  0  0  0  0
   58.3530   30.7800   50.5520 C   0  0  0  0  0  0  0  0  0  0  0  0
   57.5150   30.0920   51.2300 O   0  0  0  0  0  0  0  0  0  0  0  0
   59.2560   30.1460   49.6860 N   0  0  0  0  0  0  0  0  0  0  0  0
   59.4330   28.7550   49.4280 C   0  0  0  0  0  0  0  0  0  0  0  0
   59.7860   28.2960   48.0750 C   0  0  0  0  0  0  0  0  0  0  0  0
   60.4950   26.9140   48.1620 C   0  0  0  0  0  0  0  0  0  0  0  0
   60.6400   29.1740   47.2170 C   0  0  0  0  0  0  0  0  0  0  0  0
   59.5020   34.5450   48.1420 C   0  0  0  0  0  0  0  0  0  0  0  0
   59.4110   34.8470   46.7990 C   0  0  0  0  0  0  0  0  0  0  0  0
   58.8280   33.9340   45.9490 C   0  0  0  0  0  0  0  0  0  0  0  0
   58.7090   34.2180   44.4960 C   0  0  0  0  0  0  0  0  0  0  0  0
   56.4100   29.2760   45.4930 N   0  0  0  0  0  0  0  0  0  0  0  0
   56.1120   27.9930   45.3630 N   0  0  0  0  0  0  0  0  0  0  0  0
   57.0773   23.3212   44.7935 H   0  0  0  0  0  0  0  0  0  0  0  0
   56.1773   23.3458   43.2391 H   0  0  0  0  0  0  0  0  0  0  0  0
   57.9720   23.4219   43.2391 H   0  0  0  0  0  0  0  0  0  0  0  0
   56.7610   25.7550   42.9790 H   0  0  0  0  0  0  0  0  0  0  0  0
   59.3710   27.8380   45.2091 H   0  0  0  0  0  0  0  0  0  0  0  0
   58.0681   31.5140   48.1941 H   0  0  0  0  0  0  0  0  0  0  0  0
   58.4894   32.4434   51.8305 H   0  0  0  0  0  0  0  0  0  0  0  0
   57.2391   32.5292   50.4771 H   0  0  0  0  0  0  0  0  0  0  0  0
   59.8900   30.8110   49.1280 H   0  0  0  0  0  0  0  0  0  0  0  0
   60.2314   28.4067   50.0997 H   0  0  0  0  0  0  0  0  0  0  0  0
   58.4260   28.3397   49.5808 H   0  0  0  0  0  0  0  0  0  0  0  0
   58.8062   28.2827   47.5751 H   0  0  0  0  0  0  0  0  0  0  0  0
   60.6356   26.6399   49.2180 H   0  0  0  0  0  0  0  0  0  0  0  0
   59.8762   26.1525   47.6648 H   0  0  0  0  0  0  0  0  0  0  0  0
   61.4745   26.9724   47.6648 H   0  0  0  0  0  0  0  0  0  0  0  0
   61.2643   29.8158   47.8560 H   0  0  0  0  0  0  0  0  0  0  0  0
   61.2858   28.5498   46.5819 H   0  0  0  0  0  0  0  0  0  0  0  0
   59.9981   29.8022   46.5819 H   0  0  0  0  0  0  0  0  0  0  0  0
   59.9703   35.2863   48.8062 H   0  0  0  0  0  0  0  0  0  0  0  0
   59.7979   35.8018   46.4134 H   0  0  0  0  0  0  0  0  0  0  0  0
   58.2875   35.2238   44.3523 H   0  0  0  0  0  0  0  0  0  0  0  0
   59.7040   34.1673   44.0298 H   0  0  0  0  0  0  0  0  0  0  0  0
   58.0473   33.4731   44.0298 H   0  0  0  0  0  0  0  0  0  0  0  0
   55.7490   30.0980   45.6120 H   0  0  0  0  0  0  0  0  0  0  0  0
   55.1440   27.5890   45.3590 H   0  0  0  0  0  0  0  0  0  0  0  0
  1  2  1  0
  2  3  1  0
  3  4  2  0
  3  5  1  0
  5  6  2  0
  6  7  1  0
  7  8  2  0
  8  9  1  0
  9 10  2  0
  9 11  1  0
 11 12  2  0
 12 13  1  0
 13 14  1  0
 14 15  1  0
 15 16  1  0
 16 17  2  0
 16 18  1  0
 18 19  1  0
 19 20  1  0
 20 21  1  0
 20 22  1  0
 13 23  2  0
 23 24  1  0
 24 25  2  0
 25 26  1  0
  7 27  1  0
 27 28  1  0
 28  5  1  0
 25 11  1  0
  1 29  1  0
  1 30  1  0
  1 31  1  0
  2 32  1  0
  6 33  1  0
 12 34  1  0
 15 35  1  0
 15 36  1  0
 18 37  1  0
 19 38  1  0
 19 39  1  0
 20 40  1  0
 21 41  1  0
 21 42  1  0
 21 43  1  0
 22 44  1  0
 22 45  1  0
 22 46  1  0
 23 47  1  0
 24 48  1  0
 26 49  1  0
 26 50  1  0
 26 51  1  0
 27 52  1  0
 28 53  1  0
M  END
>  <smiles>  (67) 
CNC(=O)c1cc(=NC(=O)c2cc(OCC(=O)NCC(C)C)ccc2C)[nH][nH]1

>  <score_type>  (67) 
oracle

>  <origin>  (67) 
adg

>  <m_score__min__energy>  (67) 
-8.4700000000000006

>  <m_primary>  (67) 
energy

$$$$
67:0
     RDKit          3D

 59 61  0  0  0  0  0  0  0  0999 V2000
   57.0180   25.3130   44.9290 C   0  0  0  0  0  0  0  0  0  0  0  0
   57.9380   26.3430   44.5890 O   0  0  0  0  0  0  0  0  0  0  0  0
   58.4250   27.2290   45.5540 C   0  0  0  0  0  0  0  0  0  0  0  0
   59.5080   26.8420   46.3700 C   0  0  0  0  0  0  0  0  0  0  0  0
   60.1550   25.4940   46.2160 C   0  0  0  0  0  0  0  0  0  0  0  0
   59.9480   27.6970   47.3880 C   0  0  0  0  0  0  0  0  0  0  0  0
   59.3630   28.9540   47.5670 C   0  0  0  0  0  0  0  0  0  0  0  0
   59.8310   29.8490   48.6420 C   0  0  0  0  0  0  0  0  0  0  0  0
   60.0740   29.3620   49.7800 O   0  0  0  0  0  0  0  0  0  0  0  0
   60.0200   31.2560   48.4400 N   0  0  0  0  0  0  0  0  0  0  0  0
   59.1050   32.5180   49.2070 S   0  0  0  0  0  0  0  0  0  0  0  0
   58.8280   32.1140   50.6270 O   0  0  0  0  0  0  0  0  0  0  0  0
   57.7910   32.7130   48.5050 O   0  0  0  0  0  0  0  0  0  0  0  0
   60.0210   34.0520   49.2050 C   0  0  0  0  0  0  0  0  0  0  0  0
   61.3260   33.8810   48.4770 C   0  0  0  0  0  0  0  0  0  0  0  0
   61.3510   33.8730   47.0710 C   0  0  0  0  0  0  0  0  0  0  0  0
   62.5540   33.6670   46.3870 C   0  0  0  0  0  0  0  0  0  0  0  0
   63.7380   33.4600   47.0990 C   0  0  0  0  0  0  0  0  0  0  0  0
   63.7230   33.4580   48.4960 C   0  0  0  0  0  0  0  0  0  0  0  0
   64.8740   33.2480   49.1830 F   0  0  0  0  0  0  0  0  0  0  0  0
   62.5230   33.6650   49.1870 C   0  0  0  0  0  0  0  0  0  0  0  0
   62.5260   33.6500   50.5430 F   0  0  0  0  0  0  0  0  0  0  0  0
   58.3010   29.3450   46.7440 C   0  0  0  0  0  0  0  0  0  0  0  0
   57.8300   28.5030   45.7200 C   0  0  0  0  0  0  0  0  0  0  0  0
   56.7240   28.9730   44.8470 C   0  0  0  0  0  0  0  0  0  0  0  0
   55.5270   28.7210   45.1600 O   0  0  0  0  0  0  0  0  0  0  0  0
   56.9980   29.7460   43.6710 N   0  0  0  0  0  0  0  0  0  0  0  0
   56.8840   31.2000   43.6090 C   0  0  0  0  0  0  0  0  0  0  0  0
   57.9950   31.8710   44.4350 C   0  0  1  0  0  0  0  0  0  0  0  0
   58.5320   33.1310   43.7100 C   0  0  0  0  0  0  0  0  0  0  0  0
   59.1540   34.1040   44.7110 C   0  0  0  0  0  0  0  0  0  0  0  0
   58.1200   34.5600   45.7550 C   0  0  0  0  0  0  0  0  0  0  0  0
   57.0080   33.5170   45.9800 C   0  0  0  0  0  0  0  0  0  0  0  0
   57.5090   32.1450   45.8080 N   0  0  0  0  0  0  0  0  0  0  0  0
   56.9460   25.2324   46.0237 H   0  0  0  0  0  0  0  0  0  0  0  0
   56.0284   25.5533   44.5131 H   0  0  0  0  0  0  0  0  0  0  0  0
   57.3681   24.3567   44.5131 H   0  0  0  0  0  0  0  0  0  0  0  0
   60.3588   25.0694   47.2101 H   0  0  0  0  0  0  0  0  0  0  0  0
   59.4801   24.8244   45.6626 H   0  0  0  0  0  0  0  0  0  0  0  0
   61.0995   25.6017   45.6626 H   0  0  0  0  0  0  0  0  0  0  0  0
   60.7626   27.3761   48.0539 H   0  0  0  0  0  0  0  0  0  0  0  0
   59.4254   34.8294   48.7041 H   0  0  0  0  0  0  0  0  0  0  0  0
   60.2276   34.3462   50.2446 H   0  0  0  0  0  0  0  0  0  0  0  0
   60.4201   34.0295   46.5062 H   0  0  0  0  0  0  0  0  0  0  0  0
   62.5676   33.6680   45.2871 H   0  0  0  0  0  0  0  0  0  0  0  0
   64.6828   33.2985   46.5593 H   0  0  0  0  0  0  0  0  0  0  0  0
   57.8273   30.3254   46.9000 H   0  0  0  0  0  0  0  0  0  0  0  0
   56.9681   31.5239   42.5611 H   0  0  0  0  0  0  0  0  0  0  0  0
   55.9090   31.4952   44.0241 H   0  0  0  0  0  0  0  0  0  0  0  0
   58.8514   31.1872   44.5303 H   0  0  0  0  0  0  0  0  0  0  0  0
   59.2951   32.8289   42.9776 H   0  0  0  0  0  0  0  0  0  0  0  0
   57.6944   33.6319   43.2025 H   0  0  0  0  0  0  0  0  0  0  0  0
   59.9885   33.6054   45.2257 H   0  0  0  0  0  0  0  0  0  0  0  0
   59.5111   34.9885   44.1631 H   0  0  0  0  0  0  0  0  0  0  0  0
   58.6370   34.7358   46.7099 H   0  0  0  0  0  0  0  0  0  0  0  0
   57.6456   35.4775   45.3765 H   0  0  0  0  0  0  0  0  0  0  0  0
   56.6158   33.6282   47.0017 H   0  0  0  0  0  0  0  0  0  0  0  0
   56.2179   33.6905   45.2345 H   0  0  0  0  0  0  0  0  0  0  0  0
   58.2920   31.9920   46.4880 H   0  0  0  0  0  0  0  0  0  0  0  0
  1  2  1  0
  2  3  1  0
  3  4  2  0
  4  5  1  0
  4  6  1  0
  6  7  2  0
  7  8  1  0
  8  9  2  0
  8 10  1  0
 10 11  1  0
 11 12  2  0
 11 13  2  0
 11 14  1  0
 14 15  1  0
 15 16  2  0
 16 17  1  0
 17 18  2  0
 18 19  1  0
 19 20  1  0
 19 21  2  0
 21 22  1  0
  7 23  1  0
 23 24  2  0
 24 25  1  0
 25 26  2  0
 25 27  1  0
 27 28  1  0
 28 29  1  0
 29 30  1  0
 30 31  1  0
 31 32  1  0
 32 33  1  0
 33 34  1  0
 24  3  1  0
 34 29  1  0
 21 15  1  0
  1 35  1  0
  1 36  1  0
  1 37  1  0
  5 38  1  0
  5 39  1  0
  5 40  1  0
  6 41  1  0
 14 42  1  0
 14 43  1  0
 16 44  1  0
 17 45  1  0
 18 46  1  0
 23 47  1  0
 28 48  1  0
 28 49  1  0
 29 50  1  1
 30 51  1  0
 30 52  1  0
 31 53  1  0
 31 54  1  0
 32 55  1  0
 32 56  1  0
 33 57  1  0
 33 58  1  0
 34 59  1  0
M  CHG  2  10  -1  27  -1
M  END
>  <UniqueID>  (68) 
66

>  <SMILES>  (68) 
COc1c(C)cc(C(=O)[N-]S(=O)(=O)Cc2cccc(F)c2F)cc1C(=O)[N-]C[C@H]1CCCCN1

>  <Energy>  (68) 
71.66534851176989

>  <Genealogy>  (68) 
COc1c(C)cc(C(=O)[N-]S(=O)(=O)Cc2cccc(F)c2F)cc1C(=O)[N-]CC1CCCCN1 (protonated)
COc1c(C)cc(C(=O)[N-]S(=O)(=O)Cc2cccc(F)c2F)cc1C(=O)[N-]C[C@H]1CCCCN1 (chirality)
COc1c(C)cc(C(=O)[N-]S(=O)(=O)Cc2cccc(F)c2F)cc1C(=O)[N-]C[C@H]1CCCCN1 (3D coordinates assigned)
COc1c(C)cc(C(=O)[N-]S(=O)(=O)Cc2cccc(F)c2F)cc1C(=O)[N-]C[C@H]1CCCCN1 (nonaromatic ring conformer: 71.66534851176989 kcal/mol)

>  <smiles>  (68) 
COc1c(C)cc(C(=O)NS(=O)(=O)Cc2cccc(F)c2F)cc1C(=O)NCC1CCCCN1

>  <score_type>  (68) 
oracle

>  <origin>  (68) 
adg

>  <m_score__min__energy>  (68) 
-12.449999999999999

>  <m_primary>  (68) 
energy

$$$$
68:0
     RDKit          3D

 48 50  0  0  0  0  0  0  0  0999 V2000
   62.9950   33.4940   46.6710 C   0  0  0  0  0  0  0  0  0  0  0  0
   61.7080   33.4770   47.3670 N   0  0  0  0  0  0  0  0  0  0  0  0
   60.4780   33.5810   46.6230 C   0  0  0  0  0  0  0  0  0  0  0  0
   60.0320   34.8280   46.1480 C   0  0  0  0  0  0  0  0  0  0  0  0
   58.8420   34.9240   45.4210 C   0  0  0  0  0  0  0  0  0  0  0  0
   58.0890   33.7790   45.1550 C   0  0  0  0  0  0  0  0  0  0  0  0
   58.5260   32.5340   45.6140 C   0  0  0  0  0  0  0  0  0  0  0  0
   59.7150   32.4320   46.3420 C   0  0  0  0  0  0  0  0  0  0  0  0
   61.6850   33.2750   49.0960 S   0  0  0  0  0  0  0  0  0  0  0  0
   63.0730   32.9970   49.6050 O   0  0  0  0  0  0  0  0  0  0  0  0
   61.1720   34.5370   49.7320 O   0  0  0  0  0  0  0  0  0  0  0  0
   60.6620   31.9050   49.5190 C   0  0  0  0  0  0  0  0  0  0  0  0
   61.1130   30.6050   49.2640 C   0  0  0  0  0  0  0  0  0  0  0  0
   60.3130   29.5080   49.5950 C   0  0  0  0  0  0  0  0  0  0  0  0
   59.0570   29.7050   50.1750 C   0  0  0  0  0  0  0  0  0  0  0  0
   58.5820   31.0070   50.4130 C   0  0  0  0  0  0  0  0  0  0  0  0
   57.3020   31.2370   51.0280 N   0  0  0  0  0  0  0  0  0  0  0  0
   56.7370   30.3930   52.0430 C   0  0  0  0  0  0  0  0  0  0  0  0
   57.1580   29.2150   52.2030 O   0  0  0  0  0  0  0  0  0  0  0  0
   55.6090   30.8900   52.8950 C   0  0  0  0  0  0  0  0  0  0  0  0
   54.4370   30.1050   52.6770 O   0  0  0  0  0  0  0  0  0  0  0  0
   53.3950   30.4320   51.7940 C   0  0  0  0  0  0  0  0  0  0  0  0
   53.1810   29.7440   50.5810 C   0  0  0  0  0  0  0  0  0  0  0  0
   52.1300   30.1170   49.7380 C   0  0  0  0  0  0  0  0  0  0  0  0
   51.2850   31.1700   50.0920 C   0  0  0  0  0  0  0  0  0  0  0  0
   51.4880   31.8550   51.2940 C   0  0  0  0  0  0  0  0  0  0  0  0
   50.6460   32.9020   51.6460 O   0  0  0  0  0  0  0  0  0  0  0  0
   52.5380   31.4850   52.1400 C   0  0  0  0  0  0  0  0  0  0  0  0
   59.4010   32.1030   50.0990 C   0  0  0  0  0  0  0  0  0  0  0  0
   63.8108   33.5048   47.4089 H   0  0  0  0  0  0  0  0  0  0  0  0
   63.0827   32.5969   46.0405 H   0  0  0  0  0  0  0  0  0  0  0  0
   63.0590   34.3931   46.0405 H   0  0  0  0  0  0  0  0  0  0  0  0
   60.6235   35.7331   46.3500 H   0  0  0  0  0  0  0  0  0  0  0  0
   58.4982   35.9037   45.0578 H   0  0  0  0  0  0  0  0  0  0  0  0
   57.1519   33.8570   44.5842 H   0  0  0  0  0  0  0  0  0  0  0  0
   57.9332   31.6320   45.4021 H   0  0  0  0  0  0  0  0  0  0  0  0
   60.0562   31.4484   46.6972 H   0  0  0  0  0  0  0  0  0  0  0  0
   62.0987   30.4464   48.8023 H   0  0  0  0  0  0  0  0  0  0  0  0
   60.6728   28.4872   49.3986 H   0  0  0  0  0  0  0  0  0  0  0  0
   58.4372   28.8378   50.4466 H   0  0  0  0  0  0  0  0  0  0  0  0
   56.7290   32.0420   50.6860 H   0  0  0  0  0  0  0  0  0  0  0  0
   55.8982   30.8230   53.9542 H   0  0  0  0  0  0  0  0  0  0  0  0
   55.3933   31.9349   52.6272 H   0  0  0  0  0  0  0  0  0  0  0  0
   53.8427   28.9121   50.2979 H   0  0  0  0  0  0  0  0  0  0  0  0
   51.9684   29.5787   48.7924 H   0  0  0  0  0  0  0  0  0  0  0  0
   50.4596   31.4609   49.4256 H   0  0  0  0  0  0  0  0  0  0  0  0
   52.6925   32.0254   53.0855 H   0  0  0  0  0  0  0  0  0  0  0  0
   59.0510   33.1244   50.3095 H   0  0  0  0  0  0  0  0  0  0  0  0
  1  2  1  0
  2  3  1  0
  3  4  2  0
  4  5  1  0
  5  6  2  0
  6  7  1  0
  7  8  2  0
  2  9  1  0
  9 10  2  0
  9 11  2  0
  9 12  1  0
 12 13  2  0
 13 14  1  0
 14 15  2  0
 15 16  1  0
 16 17  1  0
 17 18  1  0
 18 19  2  0
 18 20  1  0
 20 21  1  0
 21 22  1  0
 22 23  2  0
 23 24  1  0
 24 25  2  0
 25 26  1  0
 26 27  1  0
 26 28  2  0
 16 29  2  0
  8  3  1  0
 29 12  1  0
 28 22  1  0
  1 30  1  0
  1 31  1  0
  1 32  1  0
  4 33  1  0
  5 34  1  0
  6 35  1  0
  7 36  1  0
  8 37  1  0
 13 38  1  0
 14 39  1  0
 15 40  1  0
 17 41  1  0
 20 42  1  0
 20 43  1  0
 23 44  1  0
 24 45  1  0
 25 46  1  0
 28 47  1  0
 29 48  1  0
M  CHG  1  27  -1
M  END
>  <UniqueID>  (69) 
67

>  <SMILES>  (69) 
CN(c1ccccc1)S(=O)(=O)c1cccc(NC(=O)COc2cccc([O-])c2)c1

>  <Energy>  (69) 
57.2972722043811

>  <Genealogy>  (69) 
CN(c1ccccc1)S(=O)(=O)c1cccc(NC(=O)COc2cccc([O-])c2)c1 (protonated)
CN(c1ccccc1)S(=O)(=O)c1cccc(NC(=O)COc2cccc([O-])c2)c1 (3D coordinates assigned)
CN(c1ccccc1)S(=O)(=O)c1cccc(NC(=O)COc2cccc([O-])c2)c1 (optimized conformer: 57.2972722043811 kcal/mol)

>  <smiles>  (69) 
CN(c1ccccc1)S(=O)(=O)c1cccc(NC(=O)COc2cccc(O)c2)c1

>  <score_type>  (69) 
oracle

>  <origin>  (69) 
adg

>  <m_score__min__energy>  (69) 
-13.130000000000001

>  <m_primary>  (69) 
energy

$$$$
69:0
     RDKit          3D

 72 76  0  0  0  0  0  0  0  0999 V2000
   58.1360   32.0160   42.0740 C   0  0  0  0  0  0  0  0  0  0  0  0
   57.0520   31.7390   43.0310 N   0  0  0  0  0  0  0  0  0  0  0  0
   57.4170   32.1780   44.3990 C   0  0  0  0  0  0  0  0  0  0  0  0
   58.2090   31.1100   45.1680 C   0  0  0  0  0  0  0  0  0  0  0  0
   57.5290   29.8110   45.1200 N   0  0  0  0  0  0  0  0  0  0  0  0
   58.0100   28.6970   45.9010 C   0  0  0  0  0  0  0  0  0  0  0  0
   57.2130   27.7850   46.2480 O   0  0  0  0  0  0  0  0  0  0  0  0
   59.4630   28.5680   46.2660 C   0  0  0  0  0  0  0  0  0  0  0  0
   59.6450   28.7910   47.7020 N   0  0  0  0  0  0  0  0  0  0  0  0
   60.0340   27.8920   48.6290 C   0  0  0  0  0  0  0  0  0  0  0  0
   60.3200   26.5580   48.3630 O   0  0  0  0  0  0  0  0  0  0  0  0
   60.1100   28.4980   49.8650 C   0  0  0  0  0  0  0  0  0  0  0  0
   59.7570   29.7910   49.7110 N   0  0  0  0  0  0  0  0  0  0  0  0
   59.7250   30.8200   50.7530 C   0  0  0  0  0  0  0  0  0  0  0  0
   58.6450   31.8890   50.4830 C   0  0  1  0  0  0  0  0  0  0  0  0
   57.7140   31.9770   51.6160 N   0  0  0  0  0  0  0  0  0  0  0  0
   57.0800   30.8220   52.1760 C   0  0  0  0  0  0  0  0  0  0  0  0
   57.2100   29.6940   51.6270 O   0  0  0  0  0  0  0  0  0  0  0  0
   56.3330   30.9560   53.3520 O   0  0  0  0  0  0  0  0  0  0  0  0
   55.2780   30.0680   53.7150 C   0  0  0  0  0  0  0  0  0  0  0  0
   54.0190   30.4130   52.9670 C   0  0  0  0  0  0  0  0  0  0  0  0
   54.0070   30.4550   51.5630 C   0  0  0  0  0  0  0  0  0  0  0  0
   52.8360   30.8000   50.8790 C   0  0  0  0  0  0  0  0  0  0  0  0
   51.6740   31.1100   51.5920 C   0  0  0  0  0  0  0  0  0  0  0  0
   51.6800   31.0730   52.9890 C   0  0  0  0  0  0  0  0  0  0  0  0
   52.8480   30.7290   53.6760 C   0  0  0  0  0  0  0  0  0  0  0  0
   59.2680   33.2380   50.1960 C   0  0  0  0  0  0  0  0  0  0  0  0
   59.2020   34.1400   51.0750 O   0  0  0  0  0  0  0  0  0  0  0  0
   59.9370   33.5600   48.9130 C   0  0  0  0  0  0  0  0  0  0  0  0
   59.3220   34.2470   47.8670 C   0  0  0  0  0  0  0  0  0  0  0  0
   60.1740   34.4100   46.8330 N   0  0  0  0  0  0  0  0  0  0  0  0
   61.3310   33.8450   47.2090 C   0  0  0  0  0  0  0  0  0  0  0  0
   62.5140   33.8050   46.4720 C   0  0  0  0  0  0  0  0  0  0  0  0
   63.6370   33.2030   47.0610 C   0  0  0  0  0  0  0  0  0  0  0  0
   63.5570   32.6650   48.3630 C   0  0  0  0  0  0  0  0  0  0  0  0
   62.3530   32.7210   49.0870 C   0  0  0  0  0  0  0  0  0  0  0  0
   61.2380   33.3120   48.4760 C   0  0  0  0  0  0  0  0  0  0  0  0
   59.4770   29.9370   48.3970 C   0  0  0  0  0  0  0  0  0  0  0  0
   59.1060   31.0230   47.8750 O   0  0  0  0  0  0  0  0  0  0  0  0
   56.3320   29.6680   44.2850 C   0  0  0  0  0  0  0  0  0  0  0  0
   56.5910   30.3280   42.9270 C   0  0  0  0  0  0  0  0  0  0  0  0
   59.0591   32.2519   42.6238 H   0  0  0  0  0  0  0  0  0  0  0  0
   58.3018   31.1314   41.4416 H   0  0  0  0  0  0  0  0  0  0  0  0
   57.8570   32.8717   41.4416 H   0  0  0  0  0  0  0  0  0  0  0  0
   58.0311   33.0877   44.3254 H   0  0  0  0  0  0  0  0  0  0  0  0
   56.4836   32.3635   44.9506 H   0  0  0  0  0  0  0  0  0  0  0  0
   59.2075   31.0096   44.7176 H   0  0  0  0  0  0  0  0  0  0  0  0
   58.2886   31.4238   46.2193 H   0  0  0  0  0  0  0  0  0  0  0  0
   59.8144   27.5582   46.0076 H   0  0  0  0  0  0  0  0  0  0  0  0
   60.0412   29.3204   45.7096 H   0  0  0  0  0  0  0  0  0  0  0  0
   60.4054   28.0141   50.8076 H   0  0  0  0  0  0  0  0  0  0  0  0
   59.5138   30.3391   51.7195 H   0  0  0  0  0  0  0  0  0  0  0  0
   60.7034   31.3227   50.7616 H   0  0  0  0  0  0  0  0  0  0  0  0
   58.0808   31.5835   49.5895 H   0  0  0  0  0  0  0  0  0  0  0  0
   57.5810   32.8860   52.1150 H   0  0  0  0  0  0  0  0  0  0  0  0
   55.5728   29.0366   53.4714 H   0  0  0  0  0  0  0  0  0  0  0  0
   55.0882   30.1629   54.7943 H   0  0  0  0  0  0  0  0  0  0  0  0
   54.9209   30.2159   50.9995 H   0  0  0  0  0  0  0  0  0  0  0  0
   52.8297   30.8273   49.7794 H   0  0  0  0  0  0  0  0  0  0  0  0
   50.7547   31.3831   51.0532 H   0  0  0  0  0  0  0  0  0  0  0  0
   50.7645   31.3149   53.5488 H   0  0  0  0  0  0  0  0  0  0  0  0
   52.8502   30.7057   54.7757 H   0  0  0  0  0  0  0  0  0  0  0  0
   58.2828   34.6074   47.8825 H   0  0  0  0  0  0  0  0  0  0  0  0
   59.9730   34.8920   45.9280 H   0  0  0  0  0  0  0  0  0  0  0  0
   62.5657   34.2323   45.4597 H   0  0  0  0  0  0  0  0  0  0  0  0
   64.5844   33.1504   46.5046 H   0  0  0  0  0  0  0  0  0  0  0  0
   64.4441   32.1978   48.8154 H   0  0  0  0  0  0  0  0  0  0  0  0
   62.2876   32.3119   50.1060 H   0  0  0  0  0  0  0  0  0  0  0  0
   56.1086   28.6007   44.1400 H   0  0  0  0  0  0  0  0  0  0  0  0
   55.4753   30.1520   44.7767 H   0  0  0  0  0  0  0  0  0  0  0  0
   57.3623   29.7477   42.3993 H   0  0  0  0  0  0  0  0  0  0  0  0
   55.6338   30.3395   42.3851 H   0  0  0  0  0  0  0  0  0  0  0  0
  1  2  1  0
  2  3  1  0
  3  4  1  0
  4  5  1  0
  5  6  1  0
  6  7  2  0
  6  8  1  0
  8  9  1  0
  9 10  1  0
 10 11  1  0
 10 12  2  0
 12 13  1  0
 13 14  1  0
 14 15  1  0
 15 16  1  0
 16 17  1  0
 17 18  2  0
 17 19  1  0
 19 20  1  0
 20 21  1  0
 21 22  2  0
 22 23  1  0
 23 24  2  0
 24 25  1  0
 25 26  2  0
 15 27  1  0
 27 28  2  0
 27 29  1  0
 29 30  2  0
 30 31  1  0
 31 32  1  0
 32 33  2  0
 33 34  1  0
 34 35  2  0
 35 36  1  0
 36 37  2  0
 13 38  1  0
 38 39  2  0
  5 40  1  0
 40 41  1  0
 41  2  1  0
 38  9  1  0
 26 21  1  0
 37 29  1  0
 37 32  1  0
  1 42  1  0
  1 43  1  0
  1 44  1  0
  3 45  1  0
  3 46  1  0
  4 47  1  0
  4 48  1  0
  8 49  1  0
  8 50  1  0
 12 51  1  0
 14 52  1  0
 14 53  1  0
 15 54  1  6
 16 55  1  0
 20 56  1  0
 20 57  1  0
 22 58  1  0
 23 59  1  0
 24 60  1  0
 25 61  1  0
 26 62  1  0
 30 63  1  0
 31 64  1  0
 33 65  1  0
 34 66  1  0
 35 67  1  0
 36 68  1  0
 40 69  1  0
 40 70  1  0
 41 71  1  0
 41 72  1  0
M  CHG  1  11  -1
M  END
>  <UniqueID>  (70) 
68

>  <SMILES>  (70) 
CN1CCN(C(=O)Cn2c([O-])cn(C[C@@H](NC(=O)OCc3ccccc3)C(=O)c3c[nH]c4ccccc34)c2=O)CC1

>  <Energy>  (70) 
147.98397378335974

>  <Genealogy>  (70) 
CN1CCN(C(=O)Cn2c([O-])cn(CC(NC(=O)OCc3ccccc3)C(=O)c3c[nH]c4ccccc34)c2=O)CC1 (protonated)
CN1CCN(C(=O)Cn2c([O-])cn(C[C@@H](NC(=O)OCc3ccccc3)C(=O)c3c[nH]c4ccccc34)c2=O)CC1 (chirality)
CN1CCN(C(=O)Cn2c([O-])cn(C[C@@H](NC(=O)OCc3ccccc3)C(=O)c3c[nH]c4ccccc34)c2=O)CC1 (3D coordinates assigned)
CN1CCN(C(=O)Cn2c([O-])cn(C[C@@H](NC(=O)OCc3ccccc3)C(=O)c3c[nH]c4ccccc34)c2=O)CC1 (nonaromatic ring conformer: 147.98397378335974 kcal/mol)

>  <smiles>  (70) 
CN1CCN(C(=O)Cn2c(O)cn(CC(NC(=O)OCc3ccccc3)C(=O)c3c[nH]c4ccccc34)c2=O)CC1

>  <score_type>  (70) 
oracle

>  <origin>  (70) 
adg

>  <m_score__min__energy>  (70) 
-12.98

>  <m_primary>  (70) 
energy

$$$$
70:0
     RDKit          3D

 29 31  0  0  0  0  0  0  0  0999 V2000
   59.1070   24.2520   46.7250 O   0  0  0  0  0  0  0  0  0  0  0  0
   58.2710   24.3150   45.7830 C   0  0  0  0  0  0  0  0  0  0  0  0
   58.2310   23.2120   44.7630 C   0  0  0  0  0  0  0  0  0  0  0  0
   57.1130   22.3030   45.0270 N   0  0  0  0  0  0  0  0  0  0  0  0
   56.7470   21.7600   46.2020 C   0  0  0  0  0  0  0  0  0  0  0  0
   57.3660   21.9970   47.4270 O   0  0  0  0  0  0  0  0  0  0  0  0
   55.6730   20.9240   46.0000 C   0  0  0  0  0  0  0  0  0  0  0  0
   55.3580   20.9210   44.6870 N   0  0  0  0  0  0  0  0  0  0  0  0
   56.2560   21.7640   44.1350 C   0  0  0  0  0  0  0  0  0  0  0  0
   56.2880   22.0150   42.9000 O   0  0  0  0  0  0  0  0  0  0  0  0
   57.3610   25.4770   45.7160 C   0  0  0  0  0  0  0  0  0  0  0  0
   56.0120   25.4540   46.0650 C   0  0  0  0  0  0  0  0  0  0  0  0
   55.4510   26.6680   45.8790 N   0  0  0  0  0  0  0  0  0  0  0  0
   56.4320   27.4680   45.4240 C   0  0  0  0  0  0  0  0  0  0  0  0
   56.3360   28.8250   45.1130 C   0  0  0  0  0  0  0  0  0  0  0  0
   55.1290   29.5040   45.2250 O   0  0  0  0  0  0  0  0  0  0  0  0
   57.4980   29.4900   44.6870 C   0  0  0  0  0  0  0  0  0  0  0  0
   58.7220   28.7950   44.5950 C   0  0  0  0  0  0  0  0  0  0  0  0
   58.7950   27.4290   44.9170 C   0  0  0  0  0  0  0  0  0  0  0  0
   57.6190   26.7820   45.3150 C   0  0  0  0  0  0  0  0  0  0  0  0
   58.1110   23.6506   43.7614 H   0  0  0  0  0  0  0  0  0  0  0  0
   59.1706   22.6430   44.8204 H   0  0  0  0  0  0  0  0  0  0  0  0
   58.1390   22.6450   47.5120 H   0  0  0  0  0  0  0  0  0  0  0  0
   55.1544   20.3504   46.7823 H   0  0  0  0  0  0  0  0  0  0  0  0
   55.4778   24.5687   46.4403 H   0  0  0  0  0  0  0  0  0  0  0  0
   54.4560   26.9300   46.0610 H   0  0  0  0  0  0  0  0  0  0  0  0
   57.4531   30.5572   44.4241 H   0  0  0  0  0  0  0  0  0  0  0  0
   59.6276   29.3271   44.2682 H   0  0  0  0  0  0  0  0  0  0  0  0
   59.7486   26.8839   44.8580 H   0  0  0  0  0  0  0  0  0  0  0  0
  1  2  2  0
  2  3  1  0
  3  4  1  0
  4  5  1  0
  5  6  1  0
  5  7  2  0
  7  8  1  0
  8  9  1  0
  9 10  2  0
  2 11  1  0
 11 12  2  0
 12 13  1  0
 13 14  1  0
 14 15  2  0
 15 16  1  0
 15 17  1  0
 17 18  2  0
 18 19  1  0
 19 20  2  0
  9  4  1  0
 20 11  1  0
 20 14  1  0
  3 21  1  0
  3 22  1  0
  6 23  1  0
  7 24  1  0
 12 25  1  0
 13 26  1  0
 17 27  1  0
 18 28  1  0
 19 29  1  0
M  CHG  2   8  -1  16  -1
M  END
>  <UniqueID>  (71) 
69

>  <SMILES>  (71) 
O=C(Cn1c(O)c[n-]c1=O)c1c[nH]c2c([O-])cccc12

>  <Energy>  (71) 
97.98716755299345

>  <Genealogy>  (71) 
O=C(Cn1c(O)c[n-]c1=O)c1c[nH]c2c([O-])cccc12 (protonated)
O=C(Cn1c(O)c[n-]c1=O)c1c[nH]c2c([O-])cccc12 (3D coordinates assigned)
O=C(Cn1c(O)c[n-]c1=O)c1c[nH]c2c([O-])cccc12 (optimized conformer: 97.98716755299345 kcal/mol)

>  <smiles>  (71) 
O=C(Cn1c(O)c[nH]c1=O)c1c[nH]c2c(O)cccc12

>  <score_type>  (71) 
oracle

>  <origin>  (71) 
adg

>  <m_score__min__energy>  (71) 
-11.6

>  <m_primary>  (71) 
energy

$$$$
71:0
     RDKit          3D

 49 52  0  0  0  0  0  0  0  0999 V2000
   60.5650   30.6060   49.8410 H   0  0  0  0  0  0  0  0  0  0  0  0
   60.7890   29.6580   49.6530 O   0  0  0  0  0  0  0  0  0  0  0  0
   59.6570   29.0970   49.0420 C   0  0  1  0  0  0  0  0  0  0  0  0
   58.9761   28.8158   49.8589 H   0  0  0  0  0  0  0  0  0  0  0  0
   58.9930   30.0850   48.0840 C   0  0  0  0  0  0  0  0  0  0  0  0
   58.0990   30.5279   48.5473 H   0  0  0  0  0  0  0  0  0  0  0  0
   59.6650   30.9164   47.8248 H   0  0  0  0  0  0  0  0  0  0  0  0
   58.6250   29.3040   46.9140 N   0  0  0  0  0  0  0  0  0  0  0  0
   57.7830   29.7730   45.8440 C   0  0  0  0  0  0  0  0  0  0  0  0
   57.9370   31.0420   45.3780 N   0  0  0  0  0  0  0  0  0  0  0  0
   57.2060   31.5160   44.3320 C   0  0  0  0  0  0  0  0  0  0  0  0
   57.3930   32.7190   43.8760 N   0  0  0  0  0  0  0  0  0  0  0  0
   57.3270   33.9480   44.6720 C   0  0  0  0  0  0  0  0  0  0  0  0
   56.3060   34.0626   45.0651 H   0  0  0  0  0  0  0  0  0  0  0  0
   57.5980   34.7913   44.0198 H   0  0  0  0  0  0  0  0  0  0  0  0
   58.2950   33.9220   45.8290 C   0  0  0  0  0  0  0  0  0  0  0  0
   57.8650   33.5100   47.1000 C   0  0  0  0  0  0  0  0  0  0  0  0
   56.8083   33.2508   47.2621 H   0  0  0  0  0  0  0  0  0  0  0  0
   58.7710   33.4270   48.1610 C   0  0  0  0  0  0  0  0  0  0  0  0
   58.4219   33.1132   49.1558 H   0  0  0  0  0  0  0  0  0  0  0  0
   60.1230   33.7420   47.9630 C   0  0  0  0  0  0  0  0  0  0  0  0
   61.0900   33.5920   49.0720 C   0  0  0  0  0  0  0  0  0  0  0  0
   62.1840   34.2150   49.0210 O   0  0  0  0  0  0  0  0  0  0  0  0
   60.8430   32.7250   50.1910 N   0  0  0  0  0  0  0  0  0  0  0  0
   59.7470   32.6690   50.8920 C   0  0  0  0  0  0  0  0  0  0  0  0
   58.9550   31.5570   50.8790 N   0  0  0  0  0  0  0  0  0  0  0  0
   57.8000   31.4860   51.5930 C   0  0  0  0  0  0  0  0  0  0  0  0
   57.1912   30.5703   51.5645 H   0  0  0  0  0  0  0  0  0  0  0  0
   57.3870   32.5750   52.3620 C   0  0  0  0  0  0  0  0  0  0  0  0
   56.4549   32.5239   52.9438 H   0  0  0  0  0  0  0  0  0  0  0  0
   58.1710   33.7300   52.3840 C   0  0  0  0  0  0  0  0  0  0  0  0
   57.8564   34.5982   52.9817 H   0  0  0  0  0  0  0  0  0  0  0  0
   59.3550   33.7810   51.6460 C   0  0  0  0  0  0  0  0  0  0  0  0
   59.9756   34.6891   51.6571 H   0  0  0  0  0  0  0  0  0  0  0  0
   60.5450   34.2000   46.7040 C   0  0  0  0  0  0  0  0  0  0  0  0
   61.5964   34.4838   46.5492 H   0  0  0  0  0  0  0  0  0  0  0  0
   59.6350   34.2970   45.6460 C   0  0  0  0  0  0  0  0  0  0  0  0
   59.9710   34.6687   44.6667 H   0  0  0  0  0  0  0  0  0  0  0  0
   56.2870   30.7110   43.7370 N   0  0  0  0  0  0  0  0  0  0  0  0
   56.0810   29.4430   44.1760 C   0  0  0  0  0  0  0  0  0  0  0  0
   55.3249   28.8095   43.6891 H   0  0  0  0  0  0  0  0  0  0  0  0
   56.8260   28.9420   45.2430 C   0  0  0  0  0  0  0  0  0  0  0  0
   56.6664   27.9160   45.6060 H   0  0  0  0  0  0  0  0  0  0  0  0
   59.1310   27.9430   46.9710 C   0  0  0  0  0  0  0  0  0  0  0  0
   58.3016   27.2300   47.0879 H   0  0  0  0  0  0  0  0  0  0  0  0
   59.6644   27.6691   46.0488 H   0  0  0  0  0  0  0  0  0  0  0  0
   60.0470   27.8950   48.1850 C   0  0  0  0  0  0  0  0  0  0  0  0
   59.8952   26.9597   48.7437 H   0  0  0  0  0  0  0  0  0  0  0  0
   61.1078   27.9286   47.8958 H   0  0  0  0  0  0  0  0  0  0  0  0
  1  2  1  0
  2  3  1  0
  3  4  1  1
  3  5  1  0
  5  6  1  0
  5  7  1  0
  5  8  1  0
  8  9  1  0
  9 10  2  0
 10 11  1  0
 11 12  2  3
 12 13  1  0
 13 14  1  0
 13 15  1  0
 13 16  1  0
 16 17  2  0
 17 18  1  0
 17 19  1  0
 19 20  1  0
 19 21  2  0
 21 22  1  0
 22 23  2  0
 22 24  1  0
 24 25  2  0
 25 26  1  0
 26 27  1  0
 27 28  1  0
 27 29  2  0
 29 30  1  0
 29 31  1  0
 31 32  1  0
 31 33  2  0
 33 34  1  0
 21 35  1  0
 35 36  1  0
 35 37  2  0
 37 38  1  0
 11 39  1  0
 39 40  1  0
 40 41  1  0
 40 42  2  0
 42 43  1  0
  8 44  1  0
 44 45  1  0
 44 46  1  0
 44 47  1  0
 47 48  1  0
 47 49  1  0
 47  3  1  0
 42  9  1  0
 37 16  1  0
 33 25  1  0
M  CHG  2  26  -1  39  -1
M  END
>  <UniqueID>  (72) 
70

>  <SMILES>  (72) 
O=C(/N=c1/cccc[n-]1)c1ccc(CN=c2nc(N3CC[C@@H](O)C3)cc[n-]2)cc1

>  <Energy>  (72) 
58.38398978542255

>  <Genealogy>  (72) 
O=C(N=c1cccc[n-]1)c1ccc(CN=c2nc(N3CCC(O)C3)cc[n-]2)cc1 (protonated)
O=C(N=c1cccc[n-]1)c1ccc(CN=c2nc(N3CC[C@@H](O)C3)cc[n-]2)cc1 (chirality)
O=C(/N=c1/cccc[n-]1)c1ccc(CN=c2nc(N3CC[C@@H](O)C3)cc[n-]2)cc1 (cis-trans isomerization)
O=C(/N=c1/cccc[n-]1)c1ccc(CN=c2nc(N3CC[C@@H](O)C3)cc[n-]2)cc1 (3D coordinates assigned)
O=C(/N=c1/cccc[n-]1)c1ccc(CN=c2nc(N3CC[C@@H](O)C3)cc[n-]2)cc1 (nonaromatic ring conformer: 58.38398978542255 kcal/mol)

>  <smiles>  (72) 
O=C(N=c1cccc[nH]1)c1ccc(CN=c2nc(N3CCC(O)C3)cc[nH]2)cc1

>  <score_type>  (72) 
oracle

>  <origin>  (72) 
adg

>  <m_score__min__energy>  (72) 
-11.25

>  <m_primary>  (72) 
energy

$$$$
72:0
     RDKit          3D

 38 39  0  0  0  0  0  0  0  0999 V2000
   54.7930   26.3160   45.9310 N   0  0  0  0  0  0  0  0  0  0  0  0
   55.8920   25.0620   46.3870 S   0  0  0  0  0  0  0  0  0  0  0  0
   57.0790   25.6640   47.0860 O   0  0  0  0  0  0  0  0  0  0  0  0
   55.1990   24.1080   47.3180 O   0  0  0  0  0  0  0  0  0  0  0  0
   56.4310   24.1770   44.9340 C   0  0  0  0  0  0  0  0  0  0  0  0
   57.4880   24.9750   44.1710 C   0  0  0  0  0  0  0  0  0  0  0  0
   57.3900   26.3950   44.4990 N   0  0  0  0  0  0  0  0  0  0  0  0
   57.9920   27.4190   43.6900 C   0  0  0  0  0  0  0  0  0  0  0  0
   58.6540   27.0980   42.6660 O   0  0  0  0  0  0  0  0  0  0  0  0
   57.8250   28.8490   44.0380 C   0  0  0  0  0  0  0  0  0  0  0  0
   56.6100   29.4920   43.7420 C   0  0  0  0  0  0  0  0  0  0  0  0
   56.4270   30.8430   44.0430 C   0  0  0  0  0  0  0  0  0  0  0  0
   57.4570   31.5820   44.6380 C   0  0  0  0  0  0  0  0  0  0  0  0
   57.2490   33.0290   44.9990 C   0  0  0  0  0  0  0  0  0  0  0  0
   58.1850   33.4310   46.0610 N   0  0  0  0  0  0  0  0  0  0  0  0
   58.0740   32.8600   47.2990 C   0  0  0  0  0  0  0  0  0  0  0  0
   58.9250   33.2410   48.3330 C   0  0  0  0  0  0  0  0  0  0  0  0
   59.8830   34.2190   48.0810 C   0  0  0  0  0  0  0  0  0  0  0  0
   60.6690   34.5880   48.9930 O   0  0  0  0  0  0  0  0  0  0  0  0
   59.9670   34.7760   46.8480 N   0  0  0  0  0  0  0  0  0  0  0  0
   59.1330   34.4000   45.8430 C   0  0  0  0  0  0  0  0  0  0  0  0
   59.2460   34.9510   44.7160 O   0  0  0  0  0  0  0  0  0  0  0  0
   58.6690   30.9470   44.9450 C   0  0  0  0  0  0  0  0  0  0  0  0
   58.8620   29.5920   44.6470 C   0  0  0  0  0  0  0  0  0  0  0  0
   60.3920   28.8570   45.1160 Cl  0  0  0  0  0  0  0  0  0  0  0  0
   54.8510   27.0550   46.6660 H   0  0  0  0  0  0  0  0  0  0  0  0
   56.8595   23.2109   45.2389 H   0  0  0  0  0  0  0  0  0  0  0  0
   55.5640   24.0216   44.2750 H   0  0  0  0  0  0  0  0  0  0  0  0
   58.4877   24.6078   44.4461 H   0  0  0  0  0  0  0  0  0  0  0  0
   57.3215   24.8462   43.0913 H   0  0  0  0  0  0  0  0  0  0  0  0
   56.8530   26.6650   45.3550 H   0  0  0  0  0  0  0  0  0  0  0  0
   55.7952   28.9247   43.2684 H   0  0  0  0  0  0  0  0  0  0  0  0
   55.4681   31.3298   43.8114 H   0  0  0  0  0  0  0  0  0  0  0  0
   57.4201   33.6530   44.1094 H   0  0  0  0  0  0  0  0  0  0  0  0
   56.2189   33.1625   45.3611 H   0  0  0  0  0  0  0  0  0  0  0  0
   57.3060   32.0934   47.4792 H   0  0  0  0  0  0  0  0  0  0  0  0
   58.8421   32.7790   49.3278 H   0  0  0  0  0  0  0  0  0  0  0  0
   59.4767   31.5190   45.4249 H   0  0  0  0  0  0  0  0  0  0  0  0
  1  2  1  0
  2  3  2  0
  2  4  2  0
  2  5  1  0
  5  6  1  0
  6  7  1  0
  7  8  1  0
  8  9  2  0
  8 10  1  0
 10 11  2  0
 11 12  1  0
 12 13  2  0
 13 14  1  0
 14 15  1  0
 15 16  1  0
 16 17  2  0
 17 18  1  0
 18 19  2  0
 18 20  1  0
 20 21  1  0
 21 22  2  0
 13 23  1  0
 23 24  2  0
 24 25  1  0
 24 10  1  0
 21 15  1  0
  1 26  1  0
  5 27  1  0
  5 28  1  0
  6 29  1  0
  6 30  1  0
  7 31  1  0
 11 32  1  0
 12 33  1  0
 14 34  1  0
 14 35  1  0
 16 36  1  0
 17 37  1  0
 23 38  1  0
M  CHG  2   1  -1  20  -1
M  END
>  <UniqueID>  (73) 
71

>  <SMILES>  (73) 
[NH-]S(=O)(=O)CCNC(=O)c1ccc(Cn2ccc(=O)[n-]c2=O)cc1Cl

>  <Energy>  (73) 
36.127387990911316

>  <Genealogy>  (73) 
[NH-]S(=O)(=O)CCNC(=O)c1ccc(Cn2ccc(=O)[n-]c2=O)cc1Cl (protonated)
[NH-]S(=O)(=O)CCNC(=O)c1ccc(Cn2ccc(=O)[n-]c2=O)cc1Cl (3D coordinates assigned)
[NH-]S(=O)(=O)CCNC(=O)c1ccc(Cn2ccc(=O)[n-]c2=O)cc1Cl (optimized conformer: 36.127387990911316 kcal/mol)

>  <smiles>  (73) 
NS(=O)(=O)CCNC(=O)c1ccc(Cn2ccc(=O)[nH]c2=O)cc1Cl

>  <score_type>  (73) 
oracle

>  <origin>  (73) 
adg

>  <m_score__min__energy>  (73) 
-12.279999999999999

>  <m_primary>  (73) 
energy

$$$$
73:0
     RDKit          3D

 43 46  0  0  0  0  0  0  0  0999 V2000
   59.1856   34.6840   45.8621 H   0  0  0  0  0  0  0  0  0  0  0  0
   58.8650   33.6330   45.8110 C   0  0  0  0  0  0  0  0  0  0  0  0
   57.3770   33.0810   45.2480 S   0  0  0  0  0  0  0  0  0  0  0  0
   57.7490   31.4720   45.5250 C   0  0  0  0  0  0  0  0  0  0  0  0
   56.8570   30.3880   45.2270 N   0  0  0  0  0  0  0  0  0  0  0  0
   57.1780   29.1490   44.9880 C   0  0  0  0  0  0  0  0  0  0  0  0
   57.4830   28.7170   43.7480 N   0  0  0  0  0  0  0  0  0  0  0  0
   57.7910   27.3910   43.7270 C   0  0  0  0  0  0  0  0  0  0  0  0
   58.1520   26.7060   42.4450 C   0  0  0  0  0  0  0  0  0  0  0  0
   58.6543   25.7529   42.6673 H   0  0  0  0  0  0  0  0  0  0  0  0
   57.2389   26.5122   41.8630 H   0  0  0  0  0  0  0  0  0  0  0  0
   58.8280   27.3497   41.8630 H   0  0  0  0  0  0  0  0  0  0  0  0
   57.7330   26.7500   44.9740 C   0  0  0  0  0  0  0  0  0  0  0  0
   57.9440   25.3130   45.2520 C   0  0  0  0  0  0  0  0  0  0  0  0
   58.4600   24.9740   46.3520 O   0  0  0  0  0  0  0  0  0  0  0  0
   57.5800   24.2930   44.2980 N   0  0  0  0  0  0  0  0  0  0  0  0
   56.3940   24.4470   43.4460 C   0  0  0  0  0  0  0  0  0  0  0  0
   55.6102   24.9771   44.0068 H   0  0  0  0  0  0  0  0  0  0  0  0
   56.6686   25.0220   42.5493 H   0  0  0  0  0  0  0  0  0  0  0  0
   55.8680   23.0730   43.0170 C   0  0  0  0  0  0  0  0  0  0  0  0
   54.8027   23.1538   42.7552 H   0  0  0  0  0  0  0  0  0  0  0  0
   56.4352   22.7203   42.1430 H   0  0  0  0  0  0  0  0  0  0  0  0
   56.0230   22.1560   44.0790 O   0  0  0  0  0  0  0  0  0  0  0  0
   57.3920   21.8170   44.2390 C   0  0  0  0  0  0  0  0  0  0  0  0
   57.5112   21.2980   45.2015 H   0  0  0  0  0  0  0  0  0  0  0  0
   57.6687   21.1829   43.3838 H   0  0  0  0  0  0  0  0  0  0  0  0
   58.3410   23.0400   44.2220 C   0  0  0  0  0  0  0  0  0  0  0  0
   59.0224   22.9794   45.0834 H   0  0  0  0  0  0  0  0  0  0  0  0
   58.9105   23.0306   43.2810 H   0  0  0  0  0  0  0  0  0  0  0  0
   57.2680   27.8990   46.1150 S   0  0  0  0  0  0  0  0  0  0  0  0
   58.9900   31.3290   46.0360 N   0  0  0  0  0  0  0  0  0  0  0  0
   59.6240   32.5230   46.2030 C   0  0  0  0  0  0  0  0  0  0  0  0
   61.0070   32.5900   46.7480 C   0  0  0  0  0  0  0  0  0  0  0  0
   61.5680   31.5270   47.4860 C   0  0  0  0  0  0  0  0  0  0  0  0
   60.9756   30.6186   47.6699 H   0  0  0  0  0  0  0  0  0  0  0  0
   62.8710   31.6180   47.9860 C   0  0  0  0  0  0  0  0  0  0  0  0
   63.2971   30.7830   48.5614 H   0  0  0  0  0  0  0  0  0  0  0  0
   63.6320   32.7650   47.7570 C   0  0  0  0  0  0  0  0  0  0  0  0
   64.6573   32.8325   48.1496 H   0  0  0  0  0  0  0  0  0  0  0  0
   63.0920   33.8260   47.0300 C   0  0  0  0  0  0  0  0  0  0  0  0
   63.6919   34.7305   46.8511 H   0  0  0  0  0  0  0  0  0  0  0  0
   61.7890   33.7420   46.5280 C   0  0  0  0  0  0  0  0  0  0  0  0
   61.3705   34.5832   45.9559 H   0  0  0  0  0  0  0  0  0  0  0  0
  1  2  1  0
  2  3  1  0
  3  4  1  0
  4  5  1  0
  5  6  2  0
  6  7  1  0
  7  8  1  0
  8  9  1  0
  9 10  1  0
  9 11  1  0
  9 12  1  0
  8 13  2  0
 13 14  1  0
 14 15  2  0
 14 16  1  0
 16 17  1  0
 17 18  1  0
 17 19  1  0
 17 20  1  0
 20 21  1  0
 20 22  1  0
 20 23  1  0
 23 24  1  0
 24 25  1  0
 24 26  1  0
 24 27  1  0
 27 28  1  0
 27 29  1  0
 13 30  1  0
  4 31  2  0
 31 32  1  0
 32 33  1  0
 33 34  2  0
 34 35  1  0
 34 36  1  0
 36 37  1  0
 36 38  2  0
 38 39  1  0
 38 40  1  0
 40 41  1  0
 40 42  2  0
 42 43  1  0
 32  2  2  0
 42 33  1  0
 30  6  1  0
 27 16  1  0
M  CHG  1   7  -1
M  END
>  <UniqueID>  (74) 
72

>  <SMILES>  (74) 
Cc1[n-]/c(=N/c2nc(-c3ccccc3)cs2)sc1C(=O)N1CCOCC1

>  <Energy>  (74) 
121.61294642361042

>  <Genealogy>  (74) 
Cc1[n-]c(=Nc2nc(-c3ccccc3)cs2)sc1C(=O)N1CCOCC1 (protonated)
Cc1[n-]/c(=N/c2nc(-c3ccccc3)cs2)sc1C(=O)N1CCOCC1 (cis-trans isomerization)
Cc1[n-]/c(=N/c2nc(-c3ccccc3)cs2)sc1C(=O)N1CCOCC1 (3D coordinates assigned)
Cc1[n-]/c(=N/c2nc(-c3ccccc3)cs2)sc1C(=O)N1CCOCC1 (nonaromatic ring conformer: 121.61294642361042 kcal/mol)

>  <smiles>  (74) 
Cc1[nH]c(=Nc2nc(-c3ccccc3)cs2)sc1C(=O)N1CCOCC1

>  <score_type>  (74) 
oracle

>  <origin>  (74) 
adg

>  <m_score__min__energy>  (74) 
-10.6

>  <m_primary>  (74) 
energy

$$$$
74:0
     RDKit          3D

 39 41  0  0  0  0  0  0  0  0999 V2000
   55.8850   22.4230   43.6830 O   0  0  0  0  0  0  0  0  0  0  0  0
   56.3350   23.3800   44.3650 C   0  0  0  0  0  0  0  0  0  0  0  0
   55.4430   24.3730   44.8680 N   0  0  0  0  0  0  0  0  0  0  0  0
   55.9240   25.4950   45.6100 C   0  0  0  0  0  0  0  0  0  0  0  0
   55.0950   26.3410   46.0380 O   0  0  0  0  0  0  0  0  0  0  0  0
   57.3810   25.6620   45.8520 C   0  0  0  0  0  0  0  0  0  0  0  0
   57.8330   26.7870   46.4520 C   0  0  0  0  0  0  0  0  0  0  0  0
   57.7810   28.1450   45.8740 C   0  0  0  0  0  0  0  0  0  0  0  0
   58.3770   29.2100   46.5610 C   0  0  0  0  0  0  0  0  0  0  0  0
   58.2800   30.5120   46.0650 C   0  0  0  0  0  0  0  0  0  0  0  0
   57.5450   30.7720   44.8960 C   0  0  0  0  0  0  0  0  0  0  0  0
   57.4030   32.1450   44.3670 C   0  0  0  0  0  0  0  0  0  0  0  0
   58.4230   32.9810   44.1160 C   0  0  0  0  0  0  0  0  0  0  0  0
   58.8390   34.1100   44.9800 C   0  0  0  0  0  0  0  0  0  0  0  0
   58.6500   35.2820   44.5580 O   0  0  0  0  0  0  0  0  0  0  0  0
   59.4310   33.9200   46.3270 C   0  0  0  0  0  0  0  0  0  0  0  0
   60.8160   34.0800   46.5010 C   0  0  0  0  0  0  0  0  0  0  0  0
   61.4030   33.8570   47.7510 C   0  0  0  0  0  0  0  0  0  0  0  0
   60.6110   33.4880   48.8400 C   0  0  0  0  0  0  0  0  0  0  0  0
   61.1820   33.2680   50.0500 F   0  0  0  0  0  0  0  0  0  0  0  0
   59.2300   33.3530   48.6850 C   0  0  0  0  0  0  0  0  0  0  0  0
   58.6350   33.5740   47.4380 C   0  0  0  0  0  0  0  0  0  0  0  0
   57.2870   33.4670   47.3250 F   0  0  0  0  0  0  0  0  0  0  0  0
   56.9550   29.7060   44.2030 C   0  0  0  0  0  0  0  0  0  0  0  0
   57.0530   28.4020   44.7000 C   0  0  0  0  0  0  0  0  0  0  0  0
   58.2640   24.5350   45.4350 C   0  0  0  0  0  0  0  0  0  0  0  0
   59.4640   24.4700   45.8130 O   0  0  0  0  0  0  0  0  0  0  0  0
   57.7340   23.4660   44.6440 N   0  0  0  0  0  0  0  0  0  0  0  0
   58.2760   26.6816   47.4533 H   0  0  0  0  0  0  0  0  0  0  0  0
   58.9243   29.0201   47.4961 H   0  0  0  0  0  0  0  0  0  0  0  0
   58.7811   31.3375   46.5918 H   0  0  0  0  0  0  0  0  0  0  0  0
   56.3851   32.5091   44.1637 H   0  0  0  0  0  0  0  0  0  0  0  0
   58.9971   32.8138   43.1927 H   0  0  0  0  0  0  0  0  0  0  0  0
   61.4426   34.3825   45.6490 H   0  0  0  0  0  0  0  0  0  0  0  0
   62.4897   33.9725   47.8761 H   0  0  0  0  0  0  0  0  0  0  0  0
   58.6071   33.0717   49.5469 H   0  0  0  0  0  0  0  0  0  0  0  0
   56.4129   29.8955   43.2648 H   0  0  0  0  0  0  0  0  0  0  0  0
   56.5583   27.5748   44.1698 H   0  0  0  0  0  0  0  0  0  0  0  0
   58.3710   22.7090   44.3070 H   0  0  0  0  0  0  0  0  0  0  0  0
  1  2  2  0
  2  3  1  0
  3  4  1  0
  4  5  2  0
  4  6  1  0
  6  7  2  3
  7  8  1  0
  8  9  2  0
  9 10  1  0
 10 11  2  0
 11 12  1  0
 12 13  2  3
 13 14  1  0
 14 15  2  0
 14 16  1  0
 16 17  2  0
 17 18  1  0
 18 19  2  0
 19 20  1  0
 19 21  1  0
 21 22  2  0
 22 23  1  0
 11 24  1  0
 24 25  2  0
  6 26  1  0
 26 27  2  0
 26 28  1  0
 28  2  1  0
 25  8  1  0
 22 16  1  0
  7 29  1  0
  9 30  1  0
 10 31  1  0
 12 32  1  0
 13 33  1  0
 17 34  1  0
 18 35  1  0
 21 36  1  0
 24 37  1  0
 25 38  1  0
 28 39  1  0
M  CHG  1   3  -1
M  END
>  <UniqueID>  (75) 
73

>  <SMILES>  (75) 
O=C1[N-]C(=O)C(=Cc2ccc(C=CC(=O)c3ccc(F)cc3F)cc2)C(=O)N1

>  <Energy>  (75) 
60.47700061901168

>  <Genealogy>  (75) 
O=C1[N-]C(=O)C(=Cc2ccc(C=CC(=O)c3ccc(F)cc3F)cc2)C(=O)N1 (protonated)
O=C1[N-]C(=O)C(=Cc2ccc(C=CC(=O)c3ccc(F)cc3F)cc2)C(=O)N1 (3D coordinates assigned)
O=C1[N-]C(=O)C(=Cc2ccc(C=CC(=O)c3ccc(F)cc3F)cc2)C(=O)N1 (nonaromatic ring conformer: 60.47700061901168 kcal/mol)

>  <smiles>  (75) 
O=C1NC(=O)C(=Cc2ccc(C=CC(=O)c3ccc(F)cc3F)cc2)C(=O)N1

>  <score_type>  (75) 
oracle

>  <origin>  (75) 
adg

>  <m_score__min__energy>  (75) 
-11.02

>  <m_primary>  (75) 
energy

$$$$
75:0
     RDKit          3D

 41 43  0  0  0  0  0  0  0  0999 V2000
   54.0620   24.0420   45.2640 C   0  0  0  0  0  0  0  0  0  0  0  0
   55.0940   25.0570   45.6270 C   0  0  0  0  0  0  0  0  0  0  0  0
   56.4580   24.8720   45.5820 C   0  0  0  0  0  0  0  0  0  0  0  0
   56.9640   26.1070   45.9270 C   0  0  0  0  0  0  0  0  0  0  0  0
   58.4140   26.4780   46.0020 C   0  0  0  0  0  0  0  0  0  0  0  0
   58.5550   27.9430   46.1430 N   0  0  0  0  0  0  0  0  0  0  0  0
   59.6120   28.2620   47.1320 C   0  0  0  0  0  0  0  0  0  0  0  0
   59.1720   29.3660   48.0590 C   0  0  0  0  0  0  0  0  0  0  0  0
   58.9780   29.1170   49.4270 C   0  0  0  0  0  0  0  0  0  0  0  0
   58.6230   30.1580   50.2890 C   0  0  0  0  0  0  0  0  0  0  0  0
   58.4580   31.4600   49.7940 C   0  0  0  0  0  0  0  0  0  0  0  0
   58.1070   32.5270   50.6790 N   0  0  0  0  0  0  0  0  0  0  0  0
   58.6450   31.7090   48.4280 C   0  0  0  0  0  0  0  0  0  0  0  0
   58.9980   30.6690   47.5650 C   0  0  0  0  0  0  0  0  0  0  0  0
   58.8230   28.5800   44.8300 C   0  0  0  0  0  0  0  0  0  0  0  0
   57.5810   29.2360   44.3140 C   0  0  0  0  0  0  0  0  0  0  0  0
   57.0150   29.0290   43.0730 C   0  0  0  0  0  0  0  0  0  0  0  0
   55.8850   29.8160   43.0460 C   0  0  0  0  0  0  0  0  0  0  0  0
   55.8350   30.4580   44.2680 C   0  0  0  0  0  0  0  0  0  0  0  0
   56.8610   30.0930   45.0010 O   0  0  0  0  0  0  0  0  0  0  0  0
   55.9550   26.9720   46.1440 N   0  0  0  0  0  0  0  0  0  0  0  0
   54.8120   26.3330   45.9560 N   0  0  0  0  0  0  0  0  0  0  0  0
   53.6286   23.6157   46.1808 H   0  0  0  0  0  0  0  0  0  0  0  0
   53.2686   24.5214   44.6718 H   0  0  0  0  0  0  0  0  0  0  0  0
   54.5281   23.2407   44.6718 H   0  0  0  0  0  0  0  0  0  0  0  0
   57.0123   23.9558   45.3304 H   0  0  0  0  0  0  0  0  0  0  0  0
   58.8722   25.9827   46.8708 H   0  0  0  0  0  0  0  0  0  0  0  0
   58.9175   26.1542   45.0792 H   0  0  0  0  0  0  0  0  0  0  0  0
   59.8330   27.3620   47.7246 H   0  0  0  0  0  0  0  0  0  0  0  0
   60.5083   28.5974   46.5897 H   0  0  0  0  0  0  0  0  0  0  0  0
   59.1060   28.0983   49.8219 H   0  0  0  0  0  0  0  0  0  0  0  0
   58.4724   29.9556   51.3597 H   0  0  0  0  0  0  0  0  0  0  0  0
   58.8450   33.1010   51.1440 H   0  0  0  0  0  0  0  0  0  0  0  0
   57.1050   32.7490   50.8780 H   0  0  0  0  0  0  0  0  0  0  0  0
   58.5133   32.7274   48.0337 H   0  0  0  0  0  0  0  0  0  0  0  0
   59.1404   30.8716   46.4932 H   0  0  0  0  0  0  0  0  0  0  0  0
   59.6125   29.3369   44.9472 H   0  0  0  0  0  0  0  0  0  0  0  0
   59.1468   27.8092   44.1151 H   0  0  0  0  0  0  0  0  0  0  0  0
   57.3880   28.3729   42.2728 H   0  0  0  0  0  0  0  0  0  0  0  0
   55.1671   29.9136   42.2183 H   0  0  0  0  0  0  0  0  0  0  0  0
   55.0541   31.1673   44.5796 H   0  0  0  0  0  0  0  0  0  0  0  0
  1  2  1  0
  2  3  2  0
  3  4  1  0
  4  5  1  0
  5  6  1  0
  6  7  1  0
  7  8  1  0
  8  9  2  0
  9 10  1  0
 10 11  2  0
 11 12  1  0
 11 13  1  0
 13 14  2  0
  6 15  1  0
 15 16  1  0
 16 17  2  0
 17 18  1  0
 18 19  2  0
 19 20  1  0
  4 21  2  0
 21 22  1  0
 22  2  1  0
 14  8  1  0
 20 16  1  0
  1 23  1  0
  1 24  1  0
  1 25  1  0
  3 26  1  0
  5 27  1  0
  5 28  1  0
  7 29  1  0
  7 30  1  0
  9 31  1  0
 10 32  1  0
 12 33  1  0
 12 34  1  0
 13 35  1  0
 14 36  1  0
 15 37  1  0
 15 38  1  0
 17 39  1  0
 18 40  1  0
 19 41  1  0
M  CHG  1  22  -1
M  END
>  <UniqueID>  (76) 
74

>  <SMILES>  (76) 
Cc1cc(CN(Cc2ccc(N)cc2)Cc2ccco2)n[n-]1

>  <Energy>  (76) 
94.24412635696741

>  <Genealogy>  (76) 
Cc1cc(CN(Cc2ccc(N)cc2)Cc2ccco2)n[n-]1 (protonated)
Cc1cc(CN(Cc2ccc(N)cc2)Cc2ccco2)n[n-]1 (3D coordinates assigned)
Cc1cc(CN(Cc2ccc(N)cc2)Cc2ccco2)n[n-]1 (optimized conformer: 94.24412635696741 kcal/mol)

>  <smiles>  (76) 
Cc1cc(CN(Cc2ccc(N)cc2)Cc2ccco2)n[nH]1

>  <score_type>  (76) 
oracle

>  <origin>  (76) 
adg

>  <m_score__min__energy>  (76) 
-9

>  <m_primary>  (76) 
energy

$$$$
76:0
     RDKit          3D

 64 67  0  0  0  0  0  0  0  0999 V2000
   58.1750   32.3430   41.7460 C   0  0  0  0  0  0  0  0  0  0  0  0
   57.3910   32.6590   42.8920 O   0  0  0  0  0  0  0  0  0  0  0  0
   57.7740   32.4030   44.2180 C   0  0  0  0  0  0  0  0  0  0  0  0
   58.4920   33.3510   44.9730 C   0  0  0  0  0  0  0  0  0  0  0  0
   58.8490   33.0810   46.2960 C   0  0  0  0  0  0  0  0  0  0  0  0
   58.4920   31.8650   46.8930 C   0  0  0  0  0  0  0  0  0  0  0  0
   58.8840   31.5810   48.2870 C   0  0  0  0  0  0  0  0  0  0  0  0
   59.9940   32.0620   48.8820 N   0  0  0  0  0  0  0  0  0  0  0  0
   59.9840   31.5990   50.1220 N   0  0  0  0  0  0  0  0  0  0  0  0
   58.8660   30.8590   50.2410 C   0  0  0  0  0  0  0  0  0  0  0  0
   58.4700   30.1350   51.4890 C   0  0  0  0  0  0  0  0  0  0  0  0
   58.0260   31.1180   52.5770 C   0  0  0  0  0  0  0  0  0  0  0  0
   56.5580   30.9770   52.8440 C   0  0  0  0  0  0  0  0  0  0  0  0
   56.1670   30.6940   54.0090 O   0  0  0  0  0  0  0  0  0  0  0  0
   55.6120   31.2610   51.8010 N   0  0  0  0  0  0  0  0  0  0  0  0
   54.2060   30.9720   51.8830 C   0  0  0  0  0  0  0  0  0  0  0  0
   53.7360   29.6960   52.2470 C   0  0  0  0  0  0  0  0  0  0  0  0
   52.3620   29.4380   52.2940 C   0  0  0  0  0  0  0  0  0  0  0  0
   51.4480   30.4420   51.9670 C   0  0  0  0  0  0  0  0  0  0  0  0
   51.9050   31.7050   51.5820 C   0  0  0  0  0  0  0  0  0  0  0  0
   50.9960   32.7000   51.2460 O   0  0  0  0  0  0  0  0  0  0  0  0
   53.2790   31.9670   51.5340 C   0  0  0  0  0  0  0  0  0  0  0  0
   58.1910   30.8360   49.1160 O   0  0  0  0  0  0  0  0  0  0  0  0
   57.7700   30.9210   46.1480 C   0  0  0  0  0  0  0  0  0  0  0  0
   57.4220   31.1760   44.8130 C   0  0  0  0  0  0  0  0  0  0  0  0
   56.4810   29.9600   43.9380 S   0  0  0  0  0  0  0  0  0  0  0  0
   55.1440   29.7430   44.5910 O   0  0  0  0  0  0  0  0  0  0  0  0
   56.2370   30.4540   42.5390 O   0  0  0  0  0  0  0  0  0  0  0  0
   57.3540   28.4570   43.8510 N   0  0  0  0  0  0  0  0  0  0  0  0
   57.3690   27.7600   45.1400 C   0  0  0  0  0  0  0  0  0  0  0  0
   58.4460   26.6620   45.1800 C   0  0  0  0  0  0  0  0  0  0  0  0
   59.7850   27.2100   45.4980 N   0  0  0  0  0  0  0  0  0  0  0  0
   59.9370   28.6070   45.0230 C   0  0  0  0  0  0  0  0  0  0  0  0
   60.9470   29.3880   45.8790 C   0  0  0  0  0  0  0  0  0  0  0  0
   60.5650   29.4910   47.2440 O   0  0  0  0  0  0  0  0  0  0  0  0
   59.8260   28.3710   47.7150 C   0  0  0  0  0  0  0  0  0  0  0  0
   60.1010   27.0690   46.9410 C   0  0  0  0  0  0  0  0  0  0  0  0
   59.1510   31.9496   42.0665 H   0  0  0  0  0  0  0  0  0  0  0  0
   57.6541   31.5846   41.1431 H   0  0  0  0  0  0  0  0  0  0  0  0
   58.3256   33.2507   41.1431 H   0  0  0  0  0  0  0  0  0  0  0  0
   58.7738   34.3116   44.5170 H   0  0  0  0  0  0  0  0  0  0  0  0
   59.4141   33.8279   46.8729 H   0  0  0  0  0  0  0  0  0  0  0  0
   57.6385   29.4521   51.2602 H   0  0  0  0  0  0  0  0  0  0  0  0
   59.3401   29.5727   51.8588 H   0  0  0  0  0  0  0  0  0  0  0  0
   58.5838   30.9104   53.5021 H   0  0  0  0  0  0  0  0  0  0  0  0
   58.2285   32.1434   52.2343 H   0  0  0  0  0  0  0  0  0  0  0  0
   55.9570   31.7920   50.9690 H   0  0  0  0  0  0  0  0  0  0  0  0
   54.4520   28.8987   52.4954 H   0  0  0  0  0  0  0  0  0  0  0  0
   52.0006   28.4419   52.5892 H   0  0  0  0  0  0  0  0  0  0  0  0
   50.3680   30.2384   52.0125 H   0  0  0  0  0  0  0  0  0  0  0  0
   53.6351   32.9595   51.2206 H   0  0  0  0  0  0  0  0  0  0  0  0
   57.4734   29.9705   46.6155 H   0  0  0  0  0  0  0  0  0  0  0  0
   57.5737   28.4895   45.9375 H   0  0  0  0  0  0  0  0  0  0  0  0
   56.3879   27.2838   45.2841 H   0  0  0  0  0  0  0  0  0  0  0  0
   58.1725   25.9240   45.9485 H   0  0  0  0  0  0  0  0  0  0  0  0
   58.4962   26.1986   44.1836 H   0  0  0  0  0  0  0  0  0  0  0  0
   60.2875   28.5936   43.9804 H   0  0  0  0  0  0  0  0  0  0  0  0
   58.9599   29.1060   45.1021 H   0  0  0  0  0  0  0  0  0  0  0  0
   61.9192   28.8762   45.8261 H   0  0  0  0  0  0  0  0  0  0  0  0
   60.9947   30.4103   45.4757 H   0  0  0  0  0  0  0  0  0  0  0  0
   60.0836   28.2062   48.7717 H   0  0  0  0  0  0  0  0  0  0  0  0
   58.7617   28.6084   47.5705 H   0  0  0  0  0  0  0  0  0  0  0  0
   61.1641   26.8080   47.0491 H   0  0  0  0  0  0  0  0  0  0  0  0
   59.4567   26.2805   47.3572 H   0  0  0  0  0  0  0  0  0  0  0  0
  1  2  1  0
  2  3  1  0
  3  4  2  0
  4  5  1  0
  5  6  2  0
  6  7  1  0
  7  8  2  0
  8  9  1  0
  9 10  2  0
 10 11  1  0
 11 12  1  0
 12 13  1  0
 13 14  2  0
 13 15  1  0
 15 16  1  0
 16 17  2  0
 17 18  1  0
 18 19  2  0
 19 20  1  0
 20 21  1  0
 20 22  2  0
 10 23  1  0
  6 24  1  0
 24 25  2  0
 25 26  1  0
 26 27  2  0
 26 28  2  0
 26 29  1  0
 29 30  1  0
 30 31  1  0
 31 32  1  0
 32 33  1  0
 33 34  1  0
 34 35  1  0
 35 36  1  0
 36 37  1  0
 25  3  1  0
 37 32  1  0
 23  7  1  0
 22 16  1  0
  1 38  1  0
  1 39  1  0
  1 40  1  0
  4 41  1  0
  5 42  1  0
 11 43  1  0
 11 44  1  0
 12 45  1  0
 12 46  1  0
 15 47  1  0
 17 48  1  0
 18 49  1  0
 19 50  1  0
 22 51  1  0
 24 52  1  0
 30 53  1  0
 30 54  1  0
 31 55  1  0
 31 56  1  0
 33 57  1  0
 33 58  1  0
 34 59  1  0
 34 60  1  0
 36 61  1  0
 36 62  1  0
 37 63  1  0
 37 64  1  0
M  CHG  2  21  -1  29  -1
M  END
>  <UniqueID>  (77) 
75

>  <SMILES>  (77) 
COc1ccc(-c2nnc(CCC(=O)Nc3cccc([O-])c3)o2)cc1S(=O)(=O)[N-]CCN1CCOCC1

>  <Energy>  (77) 
113.8030420514226

>  <Genealogy>  (77) 
COc1ccc(-c2nnc(CCC(=O)Nc3cccc([O-])c3)o2)cc1S(=O)(=O)[N-]CCN1CCOCC1 (protonated)
COc1ccc(-c2nnc(CCC(=O)Nc3cccc([O-])c3)o2)cc1S(=O)(=O)[N-]CCN1CCOCC1 (3D coordinates assigned)
COc1ccc(-c2nnc(CCC(=O)Nc3cccc([O-])c3)o2)cc1S(=O)(=O)[N-]CCN1CCOCC1 (nonaromatic ring conformer: 113.8030420514226 kcal/mol)

>  <smiles>  (77) 
COc1ccc(-c2nnc(CCC(=O)Nc3cccc(O)c3)o2)cc1S(=O)(=O)NCCN1CCOCC1

>  <score_type>  (77) 
oracle

>  <origin>  (77) 
adg

>  <m_score__min__energy>  (77) 
-15.359999999999999

>  <m_primary>  (77) 
energy

$$$$
77:0
     RDKit          3D

 42 44  0  0  0  0  0  0  0  0999 V2000
   61.1870   35.2121   48.3474 H   0  0  0  0  0  0  0  0  0  0  0  0
   60.4840   34.5010   47.8890 C   0  0  0  0  0  0  0  0  0  0  0  0
   60.7930   33.1380   47.8490 C   0  0  0  0  0  0  0  0  0  0  0  0
   61.7394   32.7770   48.2781 H   0  0  0  0  0  0  0  0  0  0  0  0
   59.9020   32.2330   47.2650 C   0  0  0  0  0  0  0  0  0  0  0  0
   60.1457   31.1605   47.2464 H   0  0  0  0  0  0  0  0  0  0  0  0
   58.7000   32.6840   46.7030 C   0  0  0  0  0  0  0  0  0  0  0  0
   57.8260   31.7390   46.1460 O   0  0  0  0  0  0  0  0  0  0  0  0
   57.5540   31.5770   44.7780 C   0  0  0  0  0  0  0  0  0  0  0  0
   57.8420   32.5890   43.8440 C   0  0  0  0  0  0  0  0  0  0  0  0
   58.2899   33.5348   44.1828 H   0  0  0  0  0  0  0  0  0  0  0  0
   57.5620   32.3990   42.4880 C   0  0  0  0  0  0  0  0  0  0  0  0
   57.7840   33.1968   41.7639 H   0  0  0  0  0  0  0  0  0  0  0  0
   57.0010   31.1980   42.0520 C   0  0  0  0  0  0  0  0  0  0  0  0
   56.7664   31.0559   40.9867 H   0  0  0  0  0  0  0  0  0  0  0  0
   56.7370   30.1760   42.9670 C   0  0  0  0  0  0  0  0  0  0  0  0
   56.2923   29.2319   42.6194 H   0  0  0  0  0  0  0  0  0  0  0  0
   57.0370   30.3480   44.3310 C   0  0  0  0  0  0  0  0  0  0  0  0
   56.7650   29.3210   45.2960 N   0  0  0  0  0  0  0  0  0  0  0  0
   57.7340   28.5070   45.9670 C   0  0  0  0  0  0  0  0  0  0  0  0
   58.9530   28.8110   45.8640 O   0  0  0  0  0  0  0  0  0  0  0  0
   57.3240   27.3400   46.6980 N   0  0  0  0  0  0  0  0  0  0  0  0
   56.4740   26.4430   46.2940 C   0  0  0  0  0  0  0  0  0  0  0  0
   55.1510   26.6490   46.1310 N   0  0  0  0  0  0  0  0  0  0  0  0
   54.6550   25.5180   45.7240 O   0  0  0  0  0  0  0  0  0  0  0  0
   55.5900   24.5980   45.6220 C   0  0  0  0  0  0  0  0  0  0  0  0
   55.3520   23.1980   45.1560 C   0  0  0  0  0  0  0  0  0  0  0  0
   54.2962   22.9360   45.3194 H   0  0  0  0  0  0  0  0  0  0  0  0
   56.0025   22.5170   45.7245 H   0  0  0  0  0  0  0  0  0  0  0  0
   55.7330   23.0480   43.4200 S   0  0  0  0  0  0  0  0  0  0  0  0
   54.4980   23.3420   42.6180 O   0  0  0  0  0  0  0  0  0  0  0  0
   56.1970   21.6490   43.1180 O   0  0  0  0  0  0  0  0  0  0  0  0
   57.0100   24.2060   42.9720 C   0  0  0  0  0  0  0  0  0  0  0  0
   57.4661   24.6196   43.8835 H   0  0  0  0  0  0  0  0  0  0  0  0
   57.7796   23.6914   42.3779 H   0  0  0  0  0  0  0  0  0  0  0  0
   56.5729   25.0221   42.3779 H   0  0  0  0  0  0  0  0  0  0  0  0
   56.8030   25.1450   45.9820 C   0  0  0  0  0  0  0  0  0  0  0  0
   57.7908   24.6620   46.0122 H   0  0  0  0  0  0  0  0  0  0  0  0
   58.3840   34.0550   46.7640 C   0  0  0  0  0  0  0  0  0  0  0  0
   57.4297   34.4162   46.3531 H   0  0  0  0  0  0  0  0  0  0  0  0
   59.2790   34.9590   47.3450 C   0  0  0  0  0  0  0  0  0  0  0  0
   59.0354   36.0313   47.3743 H   0  0  0  0  0  0  0  0  0  0  0  0
  1  2  1  0
  2  3  2  0
  3  4  1  0
  3  5  1  0
  5  6  1  0
  5  7  2  0
  7  8  1  0
  8  9  1  0
  9 10  2  0
 10 11  1  0
 10 12  1  0
 12 13  1  0
 12 14  2  0
 14 15  1  0
 14 16  1  0
 16 17  1  0
 16 18  2  0
 18 19  1  0
 19 20  1  0
 20 21  2  0
 20 22  1  0
 22 23  2  0
 23 24  1  0
 24 25  1  0
 25 26  1  0
 26 27  1  0
 27 28  1  0
 27 29  1  0
 27 30  1  0
 30 31  2  0
 30 32  2  0
 30 33  1  0
 33 34  1  0
 33 35  1  0
 33 36  1  0
 26 37  2  0
 37 38  1  0
  7 39  1  0
 39 40  1  0
 39 41  2  0
 41 42  1  0
 41  2  1  0
 18  9  1  0
 37 23  1  0
M  CHG  2  19  -1  24  -1
M  END
>  <UniqueID>  (78) 
76

>  <SMILES>  (78) 
CS(=O)(=O)Cc1c/c(=N/C(=O)[N-]c2ccccc2Oc2ccccc2)[n-]o1

>  <Energy>  (78) 
78.92465668823188

>  <Genealogy>  (78) 
CS(=O)(=O)Cc1cc(=NC(=O)[N-]c2ccccc2Oc2ccccc2)[n-]o1 (protonated)
CS(=O)(=O)Cc1c/c(=N/C(=O)[N-]c2ccccc2Oc2ccccc2)[n-]o1 (cis-trans isomerization)
CS(=O)(=O)Cc1c/c(=N/C(=O)[N-]c2ccccc2Oc2ccccc2)[n-]o1 (3D coordinates assigned)
CS(=O)(=O)Cc1c/c(=N/C(=O)[N-]c2ccccc2Oc2ccccc2)[n-]o1 (optimized conformer: 78.92465668823188 kcal/mol)

>  <smiles>  (78) 
CS(=O)(=O)Cc1cc(=NC(=O)Nc2ccccc2Oc2ccccc2)[nH]o1

>  <score_type>  (78) 
oracle

>  <origin>  (78) 
adg

>  <m_score__min__energy>  (78) 
-12.279999999999999

>  <m_primary>  (78) 
energy

$$$$
78:0
     RDKit          3D

 42 44  0  0  0  0  0  0  0  0999 V2000
   54.7740   26.7150   45.0540 H   0  0  0  0  0  0  0  0  0  0  0  0
   55.1760   26.6800   46.0160 N   0  0  0  0  0  0  0  0  0  0  0  0
   56.8750   26.9570   45.8630 S   0  0  0  0  0  0  0  0  0  0  0  0
   57.5110   26.9270   47.2250 O   0  0  0  0  0  0  0  0  0  0  0  0
   57.4870   25.8730   45.0210 O   0  0  0  0  0  0  0  0  0  0  0  0
   57.1500   28.5240   45.1090 C   0  0  0  0  0  0  0  0  0  0  0  0
   58.4410   29.0660   45.0620 C   0  0  0  0  0  0  0  0  0  0  0  0
   59.2837   28.5134   45.5030 H   0  0  0  0  0  0  0  0  0  0  0  0
   58.6620   30.3060   44.4570 C   0  0  0  0  0  0  0  0  0  0  0  0
   59.6772   30.7286   44.4306 H   0  0  0  0  0  0  0  0  0  0  0  0
   57.5960   31.0150   43.8830 C   0  0  0  0  0  0  0  0  0  0  0  0
   57.8370   32.3600   43.2520 C   0  0  0  0  0  0  0  0  0  0  0  0
   58.9023   32.4529   42.9940 H   0  0  0  0  0  0  0  0  0  0  0  0
   57.2183   32.4436   42.3464 H   0  0  0  0  0  0  0  0  0  0  0  0
   57.4700   33.4340   44.1760 N   0  0  0  0  0  0  0  0  0  0  0  0
   58.1350   33.7540   45.2470 C   0  0  0  0  0  0  0  0  0  0  0  0
   58.0750   32.9420   46.3350 N   0  0  0  0  0  0  0  0  0  0  0  0
   58.7480   33.2320   47.4800 C   0  0  0  0  0  0  0  0  0  0  0  0
   58.6370   32.3470   48.5620 O   0  0  0  0  0  0  0  0  0  0  0  0
   59.5420   31.2790   48.8530 C   0  0  0  0  0  0  0  0  0  0  0  0
   60.1923   31.6337   49.6662 H   0  0  0  0  0  0  0  0  0  0  0  0
   60.3270   30.9090   47.6040 C   0  0  0  0  0  0  0  0  0  0  0  0
   59.7327   31.1115   46.7008 H   0  0  0  0  0  0  0  0  0  0  0  0
   61.2534   31.4949   47.5121 H   0  0  0  0  0  0  0  0  0  0  0  0
   60.6060   29.4250   47.7350 C   0  0  0  0  0  0  0  0  0  0  0  0
   60.7008   28.9621   46.7417 H   0  0  0  0  0  0  0  0  0  0  0  0
   61.5481   29.2315   48.2688 H   0  0  0  0  0  0  0  0  0  0  0  0
   59.4090   28.8530   48.4760 C   0  0  0  0  0  0  0  0  0  0  0  0
   58.6737   28.4555   47.7609 H   0  0  0  0  0  0  0  0  0  0  0  0
   59.7082   28.0267   49.1377 H   0  0  0  0  0  0  0  0  0  0  0  0
   58.8010   30.0060   49.2720 C   0  0  0  0  0  0  0  0  0  0  0  0
   57.7293   30.0998   49.0424 H   0  0  0  0  0  0  0  0  0  0  0  0
   58.9005   29.8318   50.3536 H   0  0  0  0  0  0  0  0  0  0  0  0
   59.5280   34.4000   47.5350 C   0  0  0  0  0  0  0  0  0  0  0  0
   60.0858   34.6602   48.4467 H   0  0  0  0  0  0  0  0  0  0  0  0
   59.5800   35.2220   46.4100 C   0  0  0  0  0  0  0  0  0  0  0  0
   60.1822   36.1423   46.4288 H   0  0  0  0  0  0  0  0  0  0  0  0
   58.8880   34.8870   45.2920 N   0  0  0  0  0  0  0  0  0  0  0  0
   56.3030   30.4670   43.9260 C   0  0  0  0  0  0  0  0  0  0  0  0
   55.4604   31.0159   43.4802 H   0  0  0  0  0  0  0  0  0  0  0  0
   56.0830   29.2270   44.5330 C   0  0  0  0  0  0  0  0  0  0  0  0
   55.0689   28.8016   44.5586 H   0  0  0  0  0  0  0  0  0  0  0  0
  1  2  1  0
  2  3  1  0
  3  4  2  0
  3  5  2  0
  3  6  1  0
  6  7  2  0
  7  8  1  0
  7  9  1  0
  9 10  1  0
  9 11  2  0
 11 12  1  0
 12 13  1  0
 12 14  1  0
 12 15  1  0
 15 16  2  0
 16 17  1  0
 17 18  2  0
 18 19  1  0
 19 20  1  0
 20 21  1  0
 20 22  1  0
 22 23  1  0
 22 24  1  0
 22 25  1  0
 25 26  1  0
 25 27  1  0
 25 28  1  0
 28 29  1  0
 28 30  1  0
 28 31  1  0
 31 32  1  0
 31 33  1  0
 18 34  1  0
 34 35  1  0
 34 36  2  0
 36 37  1  0
 36 38  1  0
 11 39  1  0
 39 40  1  0
 39 41  2  0
 41 42  1  0
 41  6  1  0
 38 16  1  0
 31 20  1  0
M  CHG  2   2  -1  38  -1
M  END
>  <UniqueID>  (79) 
77

>  <SMILES>  (79) 
[NH-]S(=O)(=O)c1ccc(C/N=c2/nc(OC3CCCC3)cc[n-]2)cc1

>  <Energy>  (79) 
43.10881571481861

>  <Genealogy>  (79) 
[NH-]S(=O)(=O)c1ccc(CN=c2nc(OC3CCCC3)cc[n-]2)cc1 (protonated)
[NH-]S(=O)(=O)c1ccc(C/N=c2/nc(OC3CCCC3)cc[n-]2)cc1 (cis-trans isomerization)
[NH-]S(=O)(=O)c1ccc(C/N=c2/nc(OC3CCCC3)cc[n-]2)cc1 (3D coordinates assigned)
[NH-]S(=O)(=O)c1ccc(C/N=c2/nc(OC3CCCC3)cc[n-]2)cc1 (nonaromatic ring conformer: 43.10881571481861 kcal/mol)

>  <smiles>  (79) 
NS(=O)(=O)c1ccc(CN=c2nc(OC3CCCC3)cc[nH]2)cc1

>  <score_type>  (79) 
oracle

>  <origin>  (79) 
adg

>  <m_score__min__energy>  (79) 
-11.949999999999999

>  <m_primary>  (79) 
energy

$$$$
79:0
     RDKit          3D

 67 71  0  0  0  0  0  0  0  0999 V2000
   60.2720   33.8890   52.8390 N   0  0  0  0  0  0  0  0  0  0  0  0
   60.3830   33.3410   51.2040 S   0  0  0  0  0  0  0  0  0  0  0  0
   59.8370   31.9420   51.1380 O   0  0  0  0  0  0  0  0  0  0  0  0
   59.5630   34.2420   50.3210 O   0  0  0  0  0  0  0  0  0  0  0  0
   62.0730   33.3650   50.6640 C   0  0  0  0  0  0  0  0  0  0  0  0
   63.0230   34.0390   51.4480 C   0  0  0  0  0  0  0  0  0  0  0  0
   64.3590   34.1000   51.0520 C   0  0  0  0  0  0  0  0  0  0  0  0
   64.7710   33.4650   49.8810 C   0  0  0  0  0  0  0  0  0  0  0  0
   63.8400   32.7920   49.0870 C   0  0  0  0  0  0  0  0  0  0  0  0
   62.4870   32.7460   49.4580 C   0  0  0  0  0  0  0  0  0  0  0  0
   61.5370   32.0520   48.5660 C   0  0  0  0  0  0  0  0  0  0  0  0
   61.5660   30.6520   48.4510 C   0  0  0  0  0  0  0  0  0  0  0  0
   60.6870   30.0000   47.5830 C   0  0  0  0  0  0  0  0  0  0  0  0
   59.7460   30.7330   46.8400 C   0  0  0  0  0  0  0  0  0  0  0  0
   58.8690   30.0570   45.9180 N   0  0  0  0  0  0  0  0  0  0  0  0
   58.8660   30.4760   44.5110 C   0  0  0  0  0  0  0  0  0  0  0  0
   57.5540   30.0800   43.8320 C   0  0  0  0  0  0  0  0  0  0  0  0
   57.3700   28.5610   43.8790 C   0  0  0  0  0  0  0  0  0  0  0  0
   57.4750   28.0260   45.2930 C   0  0  0  0  0  0  0  0  0  0  0  0
   56.9440   26.8340   45.6360 C   0  0  0  0  0  0  0  0  0  0  0  0
   57.5690   25.5330   45.3320 C   0  0  0  0  0  0  0  0  0  0  0  0
   56.8580   24.5970   44.5680 C   0  0  0  0  0  0  0  0  0  0  0  0
   57.3990   23.3260   44.3210 C   0  0  0  0  0  0  0  0  0  0  0  0
   56.4510   22.1080   43.4780 S   0  0  0  0  0  0  0  0  0  0  0  0
   57.3780   21.1500   42.7810 O   0  0  0  0  0  0  0  0  0  0  0  0
   55.5520   22.7370   42.4500 O   0  0  0  0  0  0  0  0  0  0  0  0
   55.5170   21.2400   44.6530 N   0  0  0  0  0  0  0  0  0  0  0  0
   55.5320   21.5750   46.0470 C   0  0  0  0  0  0  0  0  0  0  0  0
   56.3240   20.8240   46.9350 C   0  0  0  0  0  0  0  0  0  0  0  0
   56.3310   21.1190   48.2970 C   0  0  0  0  0  0  0  0  0  0  0  0
   55.5430   22.1580   48.7930 C   0  0  0  0  0  0  0  0  0  0  0  0
   54.7560   22.9180   47.9240 C   0  0  0  0  0  0  0  0  0  0  0  0
   54.7480   22.6510   46.5400 C   0  0  0  0  0  0  0  0  0  0  0  0
   53.9000   23.4900   45.6530 C   0  0  0  0  0  0  0  0  0  0  0  0
   53.0510   22.9740   44.8810 O   0  0  0  0  0  0  0  0  0  0  0  0
   54.0400   24.8740   45.6580 O   0  0  0  0  0  0  0  0  0  0  0  0
   58.6510   22.9900   44.8510 C   0  0  0  0  0  0  0  0  0  0  0  0
   59.3560   23.9100   45.6260 C   0  0  0  0  0  0  0  0  0  0  0  0
   58.8130   25.1730   45.8850 C   0  0  0  0  0  0  0  0  0  0  0  0
   59.5010   26.0500   46.7180 O   0  0  0  0  0  0  0  0  0  0  0  0
   58.2270   28.8230   46.3000 C   0  0  0  0  0  0  0  0  0  0  0  0
   58.2960   28.4250   47.4940 O   0  0  0  0  0  0  0  0  0  0  0  0
   59.6980   32.1340   46.9790 C   0  0  0  0  0  0  0  0  0  0  0  0
   58.7790   32.8620   46.2970 F   0  0  0  0  0  0  0  0  0  0  0  0
   60.5890   32.7870   47.8380 C   0  0  0  0  0  0  0  0  0  0  0  0
   59.6150   34.7020   52.8450 H   0  0  0  0  0  0  0  0  0  0  0  0
   62.7103   34.5241   52.3844 H   0  0  0  0  0  0  0  0  0  0  0  0
   65.0887   34.6499   51.6644 H   0  0  0  0  0  0  0  0  0  0  0  0
   65.8294   33.4942   49.5826 H   0  0  0  0  0  0  0  0  0  0  0  0
   64.1696   32.2939   48.1633 H   0  0  0  0  0  0  0  0  0  0  0  0
   62.2830   30.0676   49.0463 H   0  0  0  0  0  0  0  0  0  0  0  0
   60.7317   28.9057   47.4804 H   0  0  0  0  0  0  0  0  0  0  0  0
   58.9840   31.5684   44.4593 H   0  0  0  0  0  0  0  0  0  0  0  0
   59.6976   29.9774   43.9917 H   0  0  0  0  0  0  0  0  0  0  0  0
   56.7149   30.5637   44.3535 H   0  0  0  0  0  0  0  0  0  0  0  0
   57.5819   30.4051   42.7815 H   0  0  0  0  0  0  0  0  0  0  0  0
   56.3779   28.3097   43.4757 H   0  0  0  0  0  0  0  0  0  0  0  0
   58.1684   28.1006   43.2786 H   0  0  0  0  0  0  0  0  0  0  0  0
   55.9856   26.8323   46.1758 H   0  0  0  0  0  0  0  0  0  0  0  0
   55.8709   24.8602   44.1600 H   0  0  0  0  0  0  0  0  0  0  0  0
   56.9418   19.9985   46.5516 H   0  0  0  0  0  0  0  0  0  0  0  0
   56.9592   20.5313   48.9825 H   0  0  0  0  0  0  0  0  0  0  0  0
   55.5413   22.3793   49.8705 H   0  0  0  0  0  0  0  0  0  0  0  0
   54.1359   23.7336   48.3243 H   0  0  0  0  0  0  0  0  0  0  0  0
   59.0799   21.9962   44.6551 H   0  0  0  0  0  0  0  0  0  0  0  0
   60.3415   23.6421   46.0347 H   0  0  0  0  0  0  0  0  0  0  0  0
   60.5460   33.8811   47.9430 H   0  0  0  0  0  0  0  0  0  0  0  0
  1  2  1  0
  2  3  2  0
  2  4  2  0
  2  5  1  0
  5  6  2  0
  6  7  1  0
  7  8  2  0
  8  9  1  0
  9 10  2  0
 10 11  1  0
 11 12  2  0
 12 13  1  0
 13 14  2  0
 14 15  1  0
 15 16  1  0
 16 17  1  0
 17 18  1  0
 18 19  1  0
 19 20  2  3
 20 21  1  0
 21 22  2  0
 22 23  1  0
 23 24  1  0
 24 25  2  0
 24 26  2  0
 24 27  1  0
 27 28  1  0
 28 29  2  0
 29 30  1  0
 30 31  2  0
 31 32  1  0
 32 33  2  0
 33 34  1  0
 34 35  2  0
 34 36  1  0
 23 37  2  0
 37 38  1  0
 38 39  2  0
 39 40  1  0
 19 41  1  0
 41 42  2  0
 14 43  1  0
 43 44  1  0
 43 45  2  0
 10  5  1  0
 45 11  1  0
 41 15  1  0
 39 21  1  0
 33 28  1  0
  1 46  1  0
  6 47  1  0
  7 48  1  0
  8 49  1  0
  9 50  1  0
 12 51  1  0
 13 52  1  0
 16 53  1  0
 16 54  1  0
 17 55  1  0
 17 56  1  0
 18 57  1  0
 18 58  1  0
 20 59  1  0
 22 60  1  0
 29 61  1  0
 30 62  1  0
 31 63  1  0
 32 64  1  0
 37 65  1  0
 38 66  1  0
 45 67  1  0
M  CHG  4   1  -1  27  -1  36  -1  40  -1
M  END
>  <UniqueID>  (80) 
78

>  <SMILES>  (80) 
[NH-]S(=O)(=O)c1ccccc1-c1ccc(N2CCCC(=Cc3cc(S(=O)(=O)[N-]c4ccccc4C(=O)[O-])ccc3[O-])C2=O)c(F)c1

>  <Energy>  (80) 
104.78837271040678

>  <Genealogy>  (80) 
[NH-]S(=O)(=O)c1ccccc1-c1ccc(N2CCCC(=Cc3cc(S(=O)(=O)[N-]c4ccccc4C(=O)[O-])ccc3[O-])C2=O)c(F)c1 (protonated)
[NH-]S(=O)(=O)c1ccccc1-c1ccc(N2CCCC(=Cc3cc(S(=O)(=O)[N-]c4ccccc4C(=O)[O-])ccc3[O-])C2=O)c(F)c1 (3D coordinates assigned)
[NH-]S(=O)(=O)c1ccccc1-c1ccc(N2CCCC(=Cc3cc(S(=O)(=O)[N-]c4ccccc4C(=O)[O-])ccc3[O-])C2=O)c(F)c1 (nonaromatic ring conformer: 104.78837271040678 kcal/mol)

>  <smiles>  (80) 
NS(=O)(=O)c1ccccc1-c1ccc(N2CCCC(=Cc3cc(S(=O)(=O)Nc4ccccc4C(=O)O)ccc3O)C2=O)c(F)c1

>  <score_type>  (80) 
oracle

>  <origin>  (80) 
adg

>  <m_score__min__energy>  (80) 
-16.969999999999999

>  <m_primary>  (80) 
energy

$$$$
80:0
     RDKit          3D

 38 40  0  0  0  0  0  0  0  0999 V2000
   55.4410   29.3630   45.2370 O   0  0  0  0  0  0  0  0  0  0  0  0
   56.6340   29.3820   44.8310 C   0  0  0  0  0  0  0  0  0  0  0  0
   57.4350   28.1190   44.8210 C   0  0  0  0  0  0  0  0  0  0  0  0
   57.8090   27.7370   46.1810 N   0  0  0  0  0  0  0  0  0  0  0  0
   57.9050   26.3960   46.6810 C   0  0  0  0  0  0  0  0  0  0  0  0
   58.6660   26.1660   47.6580 O   0  0  0  0  0  0  0  0  0  0  0  0
   57.1160   25.2860   46.1100 C   0  0  0  0  0  0  0  0  0  0  0  0
   57.7160   24.0350   45.8920 C   0  0  0  0  0  0  0  0  0  0  0  0
   56.9760   22.9850   45.3410 C   0  0  0  0  0  0  0  0  0  0  0  0
   55.6350   23.1740   45.0060 C   0  0  0  0  0  0  0  0  0  0  0  0
   55.0230   24.4070   45.2380 C   0  0  0  0  0  0  0  0  0  0  0  0
   55.7550   25.4660   45.7960 C   0  0  0  0  0  0  0  0  0  0  0  0
   55.1400   26.6970   46.0210 O   0  0  0  0  0  0  0  0  0  0  0  0
   57.2440   30.6050   44.4010 N   0  0  0  0  0  0  0  0  0  0  0  0
   57.7000   31.6810   45.2350 C   0  0  0  0  0  0  0  0  0  0  0  0
   57.0100   32.9070   45.2770 C   0  0  0  0  0  0  0  0  0  0  0  0
   57.4600   33.9470   46.0920 C   0  0  0  0  0  0  0  0  0  0  0  0
   58.6010   33.7790   46.8740 C   0  0  0  0  0  0  0  0  0  0  0  0
   59.3060   32.5750   46.8320 C   0  0  0  0  0  0  0  0  0  0  0  0
   58.8810   31.5240   46.0010 C   0  0  0  0  0  0  0  0  0  0  0  0
   59.6430   30.3010   45.9820 N   0  0  0  0  0  0  0  0  0  0  0  0
   60.0160   29.5390   47.0280 C   0  0  0  0  0  0  0  0  0  0  0  0
   60.6690   28.4340   46.6200 N   0  0  0  0  0  0  0  0  0  0  0  0
   60.6630   28.5700   45.2760 C   0  0  0  0  0  0  0  0  0  0  0  0
   60.0360   29.6930   44.8770 N   0  0  0  0  0  0  0  0  0  0  0  0
   56.8353   27.3140   44.3713 H   0  0  0  0  0  0  0  0  0  0  0  0
   58.3507   28.2842   44.2343 H   0  0  0  0  0  0  0  0  0  0  0  0
   58.7727   23.8809   46.1560 H   0  0  0  0  0  0  0  0  0  0  0  0
   57.4519   22.0079   45.1712 H   0  0  0  0  0  0  0  0  0  0  0  0
   55.0592   22.3505   44.5585 H   0  0  0  0  0  0  0  0  0  0  0  0
   53.9626   24.5489   44.9823 H   0  0  0  0  0  0  0  0  0  0  0  0
   55.6660   27.5050   46.3320 H   0  0  0  0  0  0  0  0  0  0  0  0
   56.1085   33.0468   44.6624 H   0  0  0  0  0  0  0  0  0  0  0  0
   56.9129   34.9010   46.1170 H   0  0  0  0  0  0  0  0  0  0  0  0
   58.9464   34.5957   47.5249 H   0  0  0  0  0  0  0  0  0  0  0  0
   60.2032   32.4474   47.4555 H   0  0  0  0  0  0  0  0  0  0  0  0
   59.8134   29.7872   48.0803 H   0  0  0  0  0  0  0  0  0  0  0  0
   61.1188   27.8452   44.5854 H   0  0  0  0  0  0  0  0  0  0  0  0
  1  2  2  0
  2  3  1  0
  3  4  1  0
  4  5  1  0
  5  6  2  0
  5  7  1  0
  7  8  2  0
  8  9  1  0
  9 10  2  0
 10 11  1  0
 11 12  2  0
 12 13  1  0
  2 14  1  0
 14 15  1  0
 15 16  2  0
 16 17  1  0
 17 18  2  0
 18 19  1  0
 19 20  2  0
 20 21  1  0
 21 22  1  0
 22 23  2  0
 23 24  1  0
 24 25  2  0
 12  7  1  0
 20 15  1  0
 25 21  1  0
  3 26  1  0
  3 27  1  0
  8 28  1  0
  9 29  1  0
 10 30  1  0
 11 31  1  0
 13 32  1  0
 16 33  1  0
 17 34  1  0
 18 35  1  0
 19 36  1  0
 22 37  1  0
 24 38  1  0
M  CHG  2   4  -1  14  -1
M  END
>  <UniqueID>  (81) 
79

>  <SMILES>  (81) 
O=C(C[N-]C(=O)c1ccccc1O)[N-]c1ccccc1-n1cncn1

>  <Energy>  (81) 
81.15369304990413

>  <Genealogy>  (81) 
O=C(C[N-]C(=O)c1ccccc1O)[N-]c1ccccc1-n1cncn1 (protonated)
O=C(C[N-]C(=O)c1ccccc1O)[N-]c1ccccc1-n1cncn1 (3D coordinates assigned)
O=C(C[N-]C(=O)c1ccccc1O)[N-]c1ccccc1-n1cncn1 (optimized conformer: 81.15369304990413 kcal/mol)

>  <smiles>  (81) 
O=C(CNC(=O)c1ccccc1O)Nc1ccccc1-n1cncn1

>  <score_type>  (81) 
oracle

>  <origin>  (81) 
adg

>  <m_score__min__energy>  (81) 
-11.039999999999999

>  <m_primary>  (81) 
energy

$$$$
81:0
     RDKit          3D

 32 34  0  0  0  0  0  0  0  0999 V2000
   62.5150   31.3990   49.4780 C   0  0  0  0  0  0  0  0  0  0  0  0
   61.6800   30.9650   48.3150 C   0  0  0  0  0  0  0  0  0  0  0  0
   62.1500   30.8000   47.0650 N   0  0  0  0  0  0  0  0  0  0  0  0
   61.1580   30.4580   46.3000 O   0  0  0  0  0  0  0  0  0  0  0  0
   60.0410   30.3780   46.9890 C   0  0  0  0  0  0  0  0  0  0  0  0
   58.7580   29.9670   46.3870 C   0  0  0  0  0  0  0  0  0  0  0  0
   58.2510   28.6690   46.5530 C   0  0  0  0  0  0  0  0  0  0  0  0
   57.0320   28.3070   45.9550 C   0  0  0  0  0  0  0  0  0  0  0  0
   56.5000   26.9370   46.1590 C   0  0  0  0  0  0  0  0  0  0  0  0
   57.2620   25.9840   46.4740 O   0  0  0  0  0  0  0  0  0  0  0  0
   55.1430   26.6810   46.0020 O   0  0  0  0  0  0  0  0  0  0  0  0
   56.3540   29.2650   45.1700 C   0  0  0  0  0  0  0  0  0  0  0  0
   55.1430   28.9660   44.5540 O   0  0  0  0  0  0  0  0  0  0  0  0
   56.9110   30.5400   45.0050 C   0  0  0  0  0  0  0  0  0  0  0  0
   56.3260   31.4010   44.2980 O   0  0  0  0  0  0  0  0  0  0  0  0
   58.0880   30.8530   45.6060 N   0  0  0  0  0  0  0  0  0  0  0  0
   60.3170   30.7130   48.3140 C   0  0  0  0  0  0  0  0  0  0  0  0
   59.3870   30.8930   49.4470 C   0  0  0  0  0  0  0  0  0  0  0  0
   58.9580   32.1720   49.8370 C   0  0  0  0  0  0  0  0  0  0  0  0
   58.0860   32.3020   50.9200 C   0  0  0  0  0  0  0  0  0  0  0  0
   57.6640   31.1670   51.6120 C   0  0  0  0  0  0  0  0  0  0  0  0
   58.1260   29.9110   51.2110 C   0  0  0  0  0  0  0  0  0  0  0  0
   58.9710   29.8030   50.1510 N   0  0  0  0  0  0  0  0  0  0  0  0
   62.0043   31.1336   50.4154 H   0  0  0  0  0  0  0  0  0  0  0  0
   63.4915   30.8944   49.4369 H   0  0  0  0  0  0  0  0  0  0  0  0
   62.6631   32.4882   49.4369 H   0  0  0  0  0  0  0  0  0  0  0  0
   63.1340   30.9300   46.7430 H   0  0  0  0  0  0  0  0  0  0  0  0
   58.8086   27.9340   47.1520 H   0  0  0  0  0  0  0  0  0  0  0  0
   59.3057   33.0634   49.2943 H   0  0  0  0  0  0  0  0  0  0  0  0
   57.7327   33.2976   51.2267 H   0  0  0  0  0  0  0  0  0  0  0  0
   56.9748   31.2598   52.4643 H   0  0  0  0  0  0  0  0  0  0  0  0
   57.8060   29.0089   51.7530 H   0  0  0  0  0  0  0  0  0  0  0  0
  1  2  1  0
  2  3  2  0
  3  4  1  0
  4  5  1  0
  5  6  1  0
  6  7  2  0
  7  8  1  0
  8  9  1  0
  9 10  2  0
  9 11  1  0
  8 12  2  0
 12 13  1  0
 12 14  1  0
 14 15  2  0
 14 16  1  0
  5 17  2  0
 17 18  1  0
 18 19  2  0
 19 20  1  0
 20 21  2  0
 21 22  1  0
 22 23  2  0
 17  2  1  0
 23 18  1  0
 16  6  1  0
  1 24  1  0
  1 25  1  0
  1 26  1  0
  3 27  1  0
  7 28  1  0
 19 29  1  0
 20 30  1  0
 21 31  1  0
 22 32  1  0
M  CHG  4   3   1  11  -1  13  -1  16  -1
M  END
>  <UniqueID>  (82) 
80

>  <SMILES>  (82) 
Cc1[nH+]oc(-c2cc(C(=O)[O-])c([O-])c(=O)[n-]2)c1-c1ccccn1

>  <Energy>  (82) 
76.1289724732042

>  <Genealogy>  (82) 
Cc1[nH+]oc(-c2cc(C(=O)[O-])c([O-])c(=O)[n-]2)c1-c1ccccn1 (protonated)
Cc1[nH+]oc(-c2cc(C(=O)[O-])c([O-])c(=O)[n-]2)c1-c1ccccn1 (3D coordinates assigned)
Cc1[nH+]oc(-c2cc(C(=O)[O-])c([O-])c(=O)[n-]2)c1-c1ccccn1 (optimized conformer: 76.1289724732042 kcal/mol)

>  <smiles>  (82) 
Cc1noc(-c2cc(C(=O)O)c(O)c(=O)[nH]2)c1-c1ccccn1

>  <score_type>  (82) 
oracle

>  <origin>  (82) 
adg

>  <m_score__min__energy>  (82) 
-15.210000000000001

>  <m_primary>  (82) 
energy

$$$$
82:0
     RDKit          3D

 52 55  0  0  0  0  0  0  0  0999 V2000
   52.0260   24.0130   44.9480 C   0  0  0  0  0  0  0  0  0  0  0  0
   53.0400   23.1050   44.5340 O   0  0  0  0  0  0  0  0  0  0  0  0
   54.4120   23.3990   44.5360 C   0  0  0  0  0  0  0  0  0  0  0  0
   55.1570   23.5210   43.3470 C   0  0  0  0  0  0  0  0  0  0  0  0
   56.5200   23.8130   43.4000 C   0  0  0  0  0  0  0  0  0  0  0  0
   57.1570   23.9760   44.6310 C   0  0  0  0  0  0  0  0  0  0  0  0
   56.4340   23.8350   45.8280 C   0  0  0  0  0  0  0  0  0  0  0  0
   57.1160   23.9380   47.1410 C   0  0  0  0  0  0  0  0  0  0  0  0
   57.3170   22.8940   47.8180 O   0  0  0  0  0  0  0  0  0  0  0  0
   57.5370   25.2010   47.6750 N   0  0  0  0  0  0  0  0  0  0  0  0
   57.4720   26.4420   46.9610 C   0  0  0  0  0  0  0  0  0  0  0  0
   56.3830   26.8940   46.2510 C   0  0  0  0  0  0  0  0  0  0  0  0
   55.1260   26.2980   46.2310 O   0  0  0  0  0  0  0  0  0  0  0  0
   56.6950   27.9810   45.5190 N   0  0  0  0  0  0  0  0  0  0  0  0
   57.9960   28.2340   45.7850 C   0  0  0  0  0  0  0  0  0  0  0  0
   58.7900   29.2620   45.0350 C   0  0  0  0  0  0  0  0  0  0  0  0
   58.1850   30.6220   45.2410 C   0  0  0  0  0  0  0  0  0  0  0  0
   56.9260   31.0490   44.8290 C   0  0  0  0  0  0  0  0  0  0  0  0
   55.9810   30.2380   44.2140 O   0  0  0  0  0  0  0  0  0  0  0  0
   56.7150   32.3640   45.0800 N   0  0  0  0  0  0  0  0  0  0  0  0
   57.8660   32.7620   45.6530 C   0  0  0  0  0  0  0  0  0  0  0  0
   58.1400   34.0220   46.0680 N   0  0  0  0  0  0  0  0  0  0  0  0
   59.3590   34.2970   46.6230 C   0  0  0  0  0  0  0  0  0  0  0  0
   60.3360   33.2750   46.7620 C   0  0  0  0  0  0  0  0  0  0  0  0
   61.6260   33.5190   47.3380 N   0  0  0  0  0  0  0  0  0  0  0  0
   62.7250   32.3110   47.9210 S   0  0  0  0  0  0  0  0  0  0  0  0
   61.8550   31.0980   48.8910 C   0  0  0  0  0  0  0  0  0  0  0  0
   63.7510   32.9780   48.7930 O   0  0  0  0  0  0  0  0  0  0  0  0
   63.4250   31.6520   46.7670 O   0  0  0  0  0  0  0  0  0  0  0  0
   60.0320   31.9740   46.3250 C   0  0  0  0  0  0  0  0  0  0  0  0
   58.7770   31.7490   45.7680 C   0  0  0  0  0  0  0  0  0  0  0  0
   58.5100   27.3130   46.6900 C   0  0  0  0  0  0  0  0  0  0  0  0
   59.9110   27.2620   47.2230 C   0  0  0  0  0  0  0  0  0  0  0  0
   55.0560   23.5700   45.7690 C   0  0  0  0  0  0  0  0  0  0  0  0
   51.9895   24.0457   46.0469 H   0  0  0  0  0  0  0  0  0  0  0  0
   52.2514   25.0168   44.5586 H   0  0  0  0  0  0  0  0  0  0  0  0
   51.0531   23.6786   44.5586 H   0  0  0  0  0  0  0  0  0  0  0  0
   54.6626   23.3856   42.3737 H   0  0  0  0  0  0  0  0  0  0  0  0
   57.0950   23.9152   42.4678 H   0  0  0  0  0  0  0  0  0  0  0  0
   58.2300   24.2160   44.6646 H   0  0  0  0  0  0  0  0  0  0  0  0
   54.3500   26.6960   46.7470 H   0  0  0  0  0  0  0  0  0  0  0  0
   59.8263   29.2636   45.4039 H   0  0  0  0  0  0  0  0  0  0  0  0
   58.7789   29.0181   43.9624 H   0  0  0  0  0  0  0  0  0  0  0  0
   59.5850   35.3179   46.9647 H   0  0  0  0  0  0  0  0  0  0  0  0
   62.0052   31.3074   49.9604 H   0  0  0  0  0  0  0  0  0  0  0  0
   60.7813   31.1420   48.6560 H   0  0  0  0  0  0  0  0  0  0  0  0
   62.2410   30.0951   48.6560 H   0  0  0  0  0  0  0  0  0  0  0  0
   60.7641   31.1586   46.4205 H   0  0  0  0  0  0  0  0  0  0  0  0
   59.8852   27.2629   48.3227 H   0  0  0  0  0  0  0  0  0  0  0  0
   60.4050   26.3453   46.8686 H   0  0  0  0  0  0  0  0  0  0  0  0
   60.4703   28.1404   46.8686 H   0  0  0  0  0  0  0  0  0  0  0  0
   54.4759   23.4959   46.7007 H   0  0  0  0  0  0  0  0  0  0  0  0
  1  2  1  0
  2  3  1  0
  3  4  2  0
  4  5  1  0
  5  6  2  0
  6  7  1  0
  7  8  1  0
  8  9  2  0
  8 10  1  0
 10 11  1  0
 11 12  2  0
 12 13  1  0
 12 14  1  0
 14 15  1  0
 15 16  1  0
 16 17  1  0
 17 18  2  0
 18 19  1  0
 18 20  1  0
 20 21  1  0
 21 22  2  0
 22 23  1  0
 23 24  2  0
 24 25  1  0
 25 26  1  0
 26 27  1  0
 26 28  2  0
 26 29  2  0
 24 30  1  0
 30 31  2  0
 15 32  2  0
 32 33  1  0
  7 34  2  0
 34  3  1  0
 32 11  1  0
 31 17  1  0
 31 21  1  0
  1 35  1  0
  1 36  1  0
  1 37  1  0
  4 38  1  0
  5 39  1  0
  6 40  1  0
 13 41  1  0
 16 42  1  0
 16 43  1  0
 23 44  1  0
 27 45  1  0
 27 46  1  0
 27 47  1  0
 30 48  1  0
 33 49  1  0
 33 50  1  0
 33 51  1  0
 34 52  1  0
M  CHG  5  10  -1  14  -1  19  -1  20  -1  25  -1
M  END
>  <UniqueID>  (83) 
81

>  <SMILES>  (83) 
COc1cccc(C(=O)[N-]c2c(O)[n-]c(Cc3c([O-])[n-]c4ncc([N-]S(C)(=O)=O)cc34)c2C)c1

>  <Energy>  (83) 
115.58542576683428

>  <Genealogy>  (83) 
COc1cccc(C(=O)[N-]c2c(O)[n-]c(Cc3c([O-])[n-]c4ncc([N-]S(C)(=O)=O)cc34)c2C)c1 (protonated)
COc1cccc(C(=O)[N-]c2c(O)[n-]c(Cc3c([O-])[n-]c4ncc([N-]S(C)(=O)=O)cc34)c2C)c1 (3D coordinates assigned)
COc1cccc(C(=O)[N-]c2c(O)[n-]c(Cc3c([O-])[n-]c4ncc([N-]S(C)(=O)=O)cc34)c2C)c1 (optimized conformer: 115.58542576683428 kcal/mol)

>  <smiles>  (83) 
COc1cccc(C(=O)Nc2c(O)[nH]c(Cc3c(O)[nH]c4ncc(NS(C)(=O)=O)cc34)c2C)c1

>  <score_type>  (83) 
oracle

>  <origin>  (83) 
adg

>  <m_score__min__energy>  (83) 
-16.710000000000001

>  <m_primary>  (83) 
energy

$$$$
83:0
     RDKit          3D

 53 55  0  0  0  0  0  0  0  0999 V2000
   55.0955   28.9852   43.4996 H   0  0  0  0  0  0  0  0  0  0  0  0
   55.8920   29.7290   43.6490 C   0  0  0  0  0  0  0  0  0  0  0  0
   56.2390   30.1880   44.8800 N   0  0  0  0  0  0  0  0  0  0  0  0
   57.2400   31.0930   44.8060 C   0  0  0  0  0  0  0  0  0  0  0  0
   57.7780   31.6800   45.8330 N   0  0  0  0  0  0  0  0  0  0  0  0
   58.0030   33.0910   45.9850 C   0  0  0  0  0  0  0  0  0  0  0  0
   57.4860   33.9120   45.1770 O   0  0  0  0  0  0  0  0  0  0  0  0
   58.8550   33.5930   47.0850 C   0  0  0  0  0  0  0  0  0  0  0  0
   58.5180   33.2610   48.3040 N   0  0  0  0  0  0  0  0  0  0  0  0
   58.7880   32.0590   49.0440 C   0  0  0  0  0  0  0  0  0  0  0  0
   58.1520   31.7690   50.0900 O   0  0  0  0  0  0  0  0  0  0  0  0
   59.7800   31.0770   48.5020 C   0  0  0  0  0  0  0  0  0  0  0  0
   60.0506   31.3657   47.4756 H   0  0  0  0  0  0  0  0  0  0  0  0
   60.6715   31.0815   49.1463 H   0  0  0  0  0  0  0  0  0  0  0  0
   59.1880   29.6640   48.4880 C   0  0  0  0  0  0  0  0  0  0  0  0
   59.7849   29.0153   49.1460 H   0  0  0  0  0  0  0  0  0  0  0  0
   58.1478   29.7115   48.8427 H   0  0  0  0  0  0  0  0  0  0  0  0
   59.2000   29.0990   47.0930 C   0  0  0  0  0  0  0  0  0  0  0  0
   60.2080   29.4640   46.1840 C   0  0  0  0  0  0  0  0  0  0  0  0
   60.9832   30.1839   46.4854 H   0  0  0  0  0  0  0  0  0  0  0  0
   60.2290   28.9150   44.8970 C   0  0  0  0  0  0  0  0  0  0  0  0
   61.0150   29.2101   44.1863 H   0  0  0  0  0  0  0  0  0  0  0  0
   59.2520   27.9920   44.5140 C   0  0  0  0  0  0  0  0  0  0  0  0
   59.2687   27.5626   43.5014 H   0  0  0  0  0  0  0  0  0  0  0  0
   58.2540   27.6140   45.4160 C   0  0  0  0  0  0  0  0  0  0  0  0
   57.4887   26.8838   45.1142 H   0  0  0  0  0  0  0  0  0  0  0  0
   58.2270   28.1630   46.7020 C   0  0  0  0  0  0  0  0  0  0  0  0
   57.4413   27.8611   47.4102 H   0  0  0  0  0  0  0  0  0  0  0  0
   60.1330   34.3410   46.7460 C   0  0  0  0  0  0  0  0  0  0  0  0
   59.9855   35.4133   46.9419 H   0  0  0  0  0  0  0  0  0  0  0  0
   60.3675   34.1731   45.6845 H   0  0  0  0  0  0  0  0  0  0  0  0
   61.2860   33.8410   47.5790 C   0  0  0  0  0  0  0  0  0  0  0  0
   61.4040   34.2040   48.9290 C   0  0  0  0  0  0  0  0  0  0  0  0
   60.6568   34.8720   49.3822 H   0  0  0  0  0  0  0  0  0  0  0  0
   62.4640   33.7230   49.7020 C   0  0  0  0  0  0  0  0  0  0  0  0
   62.5415   34.0164   50.7593 H   0  0  0  0  0  0  0  0  0  0  0  0
   63.4350   32.8670   49.1450 C   0  0  0  0  0  0  0  0  0  0  0  0
   64.5440   32.3780   49.9430 N   0  0  0  0  0  0  0  0  0  0  0  0
   65.8610   33.0210   49.8630 C   0  0  0  0  0  0  0  0  0  0  0  0
   66.2408   33.2064   50.8786 H   0  0  0  0  0  0  0  0  0  0  0  0
   66.5587   32.3621   49.3252 H   0  0  0  0  0  0  0  0  0  0  0  0
   65.7706   33.9763   49.3252 H   0  0  0  0  0  0  0  0  0  0  0  0
   64.3630   31.2440   50.8580 C   0  0  0  0  0  0  0  0  0  0  0  0
   64.4197   31.5990   51.8976 H   0  0  0  0  0  0  0  0  0  0  0  0
   63.3799   30.7833   50.6809 H   0  0  0  0  0  0  0  0  0  0  0  0
   65.1538   30.5002   50.6809 H   0  0  0  0  0  0  0  0  0  0  0  0
   63.3060   32.5030   47.7900 C   0  0  0  0  0  0  0  0  0  0  0  0
   64.0503   31.8339   47.3335 H   0  0  0  0  0  0  0  0  0  0  0  0
   62.2440   32.9820   47.0200 C   0  0  0  0  0  0  0  0  0  0  0  0
   62.1578   32.6829   45.9650 H   0  0  0  0  0  0  0  0  0  0  0  0
   57.7340   31.3560   43.2250 S   0  0  0  0  0  0  0  0  0  0  0  0
   56.6170   30.2680   42.5920 C   0  0  0  0  0  0  0  0  0  0  0  0
   56.4837   30.0255   41.5274 H   0  0  0  0  0  0  0  0  0  0  0  0
  1  2  1  0
  2  3  1  0
  3  4  1  0
  4  5  2  0
  5  6  1  0
  6  7  2  0
  6  8  1  0
  8  9  2  3
  9 10  1  0
 10 11  2  0
 10 12  1  0
 12 13  1  0
 12 14  1  0
 12 15  1  0
 15 16  1  0
 15 17  1  0
 15 18  1  0
 18 19  2  0
 19 20  1  0
 19 21  1  0
 21 22  1  0
 21 23  2  0
 23 24  1  0
 23 25  1  0
 25 26  1  0
 25 27  2  0
 27 28  1  0
  8 29  1  0
 29 30  1  0
 29 31  1  0
 29 32  1  0
 32 33  2  0
 33 34  1  0
 33 35  1  0
 35 36  1  0
 35 37  2  0
 37 38  1  0
 38 39  1  0
 39 40  1  0
 39 41  1  0
 39 42  1  0
 38 43  1  0
 43 44  1  0
 43 45  1  0
 43 46  1  0
 37 47  1  0
 47 48  1  0
 47 49  2  0
 49 50  1  0
  4 51  1  0
 51 52  1  0
 52 53  1  0
 52  2  2  0
 27 18  1  0
 49 32  1  0
M  CHG  1   3  -1
M  END
>  <UniqueID>  (84) 
82

>  <SMILES>  (84) 
CN(C)c1ccc(CC(=NC(=O)CCc2ccccc2)C(=O)/N=c2\[n-]ccs2)cc1

>  <Energy>  (84) 
88.88784555884074

>  <Genealogy>  (84) 
CN(C)c1ccc(CC(=NC(=O)CCc2ccccc2)C(=O)N=c2[n-]ccs2)cc1 (protonated)
CN(C)c1ccc(CC(=NC(=O)CCc2ccccc2)C(=O)/N=c2\[n-]ccs2)cc1 (cis-trans isomerization)
CN(C)c1ccc(CC(=NC(=O)CCc2ccccc2)C(=O)/N=c2\[n-]ccs2)cc1 (3D coordinates assigned)
CN(C)c1ccc(CC(=NC(=O)CCc2ccccc2)C(=O)/N=c2\[n-]ccs2)cc1 (optimized conformer: 88.88784555884074 kcal/mol)

>  <smiles>  (84) 
CN(C)c1ccc(CC(=NC(=O)CCc2ccccc2)C(=O)N=c2[nH]ccs2)cc1

>  <score_type>  (84) 
oracle

>  <origin>  (84) 
adg

>  <m_score__min__energy>  (84) 
-10.949999999999999

>  <m_primary>  (84) 
energy

$$$$
84:0
     RDKit          3D

 55 58  0  0  1  0  0  0  0  0999 V2000
   55.5060   23.1470   43.0540 N   0  0  0  0  0  0  0  0  0  0  0  0
   56.5270   23.0810   43.8440 C   0  0  0  0  0  0  0  0  0  0  0  0
   57.5000   22.1390   43.6710 C   0  0  0  0  0  0  0  0  0  0  0  0
   58.5990   22.0880   44.5390 C   0  0  0  0  0  0  0  0  0  0  0  0
   58.6670   23.0060   45.5620 C   0  0  0  0  0  0  0  0  0  0  0  0
   57.7040   23.9340   45.7290 C   0  0  0  0  0  0  0  0  0  0  0  0
   57.6400   24.9680   46.7880 C   0  0  0  0  0  0  0  0  0  0  0  0
   57.7210   26.3170   46.3150 N   0  0  0  0  0  0  0  0  0  0  0  0
   56.6090   27.0680   45.9190 C   0  0  0  0  0  0  0  0  0  0  0  0
   55.4780   26.5310   45.9980 O   0  0  0  0  0  0  0  0  0  0  0  0
   56.6480   28.4390   45.4210 C   0  0  0  0  0  0  0  0  0  0  0  0
   55.6020   28.9970   44.7290 N   0  0  0  0  0  0  0  0  0  0  0  0
   55.9710   30.2470   44.3960 N   0  0  0  0  0  0  0  0  0  0  0  0
   57.2020   30.5090   44.8450 C   0  0  0  0  0  0  0  0  0  0  0  0
   57.7910   31.6270   44.6560 N   0  0  0  0  0  0  0  0  0  0  0  0
   57.6610   32.7910   45.4190 C   0  0  0  0  0  0  0  0  0  0  0  0
   56.7180   33.5960   45.4470 O   0  0  0  0  0  0  0  0  0  0  0  0
   58.8040   33.1080   46.3200 C   0  0  0  0  0  0  0  0  0  0  0  0
   60.0070   32.4000   46.1600 C   0  0  0  0  0  0  0  0  0  0  0  0
   61.0530   32.7100   46.9970 C   0  0  0  0  0  0  0  0  0  0  0  0
   60.9020   33.7030   47.9700 C   0  0  0  0  0  0  0  0  0  0  0  0
   62.0580   33.9340   48.7930 N   0  0  0  0  0  0  0  0  0  0  0  0
   63.4040   33.8820   48.2000 C   0  0  0  0  0  0  0  0  0  0  0  0
   64.3380   33.0800   49.0660 C   0  0  0  0  0  0  0  0  0  0  0  0
   63.9330   33.0110   50.4510 N   0  0  0  0  0  0  0  0  0  0  0  0
   63.2560   34.2490   50.8200 C   0  0  0  0  0  0  0  0  0  0  0  0
   61.8770   34.2250   50.2000 C   0  0  0  0  0  0  0  0  0  0  0  0
   59.7250   34.4000   48.1330 C   0  0  0  0  0  0  0  0  0  0  0  0
   58.6680   34.0880   47.2890 C   0  0  0  0  0  0  0  0  0  0  0  0
   57.6760   29.3710   45.5110 C   0  0  0  0  0  0  0  0  0  0  0  0
   59.3590   29.2250   46.3200 Br  0  0  0  0  0  0  0  0  0  0  0  0
   56.6510   23.9400   44.8510 N   0  0  0  0  0  0  0  0  0  0  0  0
   55.6790   23.3170   42.0430 H   0  0  0  0  0  0  0  0  0  0  0  0
   57.4208   21.4161   42.8457 H   0  0  0  0  0  0  0  0  0  0  0  0
   59.3878   21.3329   44.4059 H   0  0  0  0  0  0  0  0  0  0  0  0
   59.5212   22.9820   46.2546 H   0  0  0  0  0  0  0  0  0  0  0  0
   56.6870   24.8500   47.3245 H   0  0  0  0  0  0  0  0  0  0  0  0
   58.5205   24.8107   47.4283 H   0  0  0  0  0  0  0  0  0  0  0  0
   58.6730   26.7510   46.2720 H   0  0  0  0  0  0  0  0  0  0  0  0
   54.6850   28.5590   44.4940 H   0  0  0  0  0  0  0  0  0  0  0  0
   55.3240   30.8560   43.8610 H   0  0  0  0  0  0  0  0  0  0  0  0
   60.1089   31.6219   45.3891 H   0  0  0  0  0  0  0  0  0  0  0  0
   62.0100   32.1761   46.9011 H   0  0  0  0  0  0  0  0  0  0  0  0
   63.3426   33.4145   47.2062 H   0  0  0  0  0  0  0  0  0  0  0  0
   63.7929   34.9076   48.1168 H   0  0  0  0  0  0  0  0  0  0  0  0
   64.3873   32.0559   48.6675 H   0  0  0  0  0  0  0  0  0  0  0  0
   65.3133   33.5880   49.0420 H   0  0  0  0  0  0  0  0  0  0  0  0
   63.3580   32.1730   50.6040 H   0  0  0  0  0  0  0  0  0  0  0  0
   63.1728   34.3179   51.9147 H   0  0  0  0  0  0  0  0  0  0  0  0
   63.8239   35.1194   50.4596 H   0  0  0  0  0  0  0  0  0  0  0  0
   61.2625   33.4445   50.6725 H   0  0  0  0  0  0  0  0  0  0  0  0
   61.3627   35.1869   50.3420 H   0  0  0  0  0  0  0  0  0  0  0  0
   59.6262   35.1770   48.9053 H   0  0  0  0  0  0  0  0  0  0  0  0
   57.7131   34.6244   47.3909 H   0  0  0  0  0  0  0  0  0  0  0  0
   55.8780   24.6650   44.9610 H   0  0  0  0  0  0  0  0  0  0  0  0
  1  2  2  3
  2  3  1  0
  3  4  2  0
  4  5  1  0
  5  6  2  0
  6  7  1  0
  7  8  1  0
  8  9  1  0
  9 10  2  0
  9 11  1  0
 11 12  1  0
 12 13  1  0
 13 14  1  0
 14 15  2  0
 15 16  1  0
 16 17  2  0
 16 18  1  0
 18 19  2  0
 19 20  1  0
 20 21  2  0
 21 22  1  0
 22 23  1  0
 23 24  1  0
 24 25  1  0
 25 26  1  0
 26 27  1  0
 21 28  1  0
 28 29  2  0
 14 30  1  0
 30 31  1  0
  6 32  1  0
 32  2  1  0
 30 11  2  0
 29 18  1  0
 27 22  1  0
  1 33  1  0
  3 34  1  0
  4 35  1  0
  5 36  1  0
  7 37  1  0
  7 38  1  0
  8 39  1  0
 12 40  1  0
 13 41  1  0
 19 42  1  0
 20 43  1  0
 23 44  1  0
 23 45  1  0
 24 46  1  0
 24 47  1  0
 25 48  1  0
 26 49  1  0
 26 50  1  0
 27 51  1  0
 27 52  1  0
 28 53  1  0
 29 54  1  0
 32 55  1  0
M  END
>  <smiles>  (85) 
N=c1cccc(CNC(=O)c2[nH][nH]c(=NC(=O)c3ccc(N4CCNCC4)cc3)c2Br)[nH]1

>  <score_type>  (85) 
oracle

>  <origin>  (85) 
adg

>  <m_score__min__energy>  (85) 
-10.1

>  <m_primary>  (85) 
energy

$$$$
85:0
     RDKit          3D

 43 45  0  0  0  0  0  0  0  0999 V2000
   60.0240   34.7610   45.3690 O   0  0  0  0  0  0  0  0  0  0  0  0
   59.7570   33.6310   45.8590 C   0  0  0  0  0  0  0  0  0  0  0  0
   60.7940   32.8360   46.4370 N   0  0  0  0  0  0  0  0  0  0  0  0
   61.3030   33.0220   47.7910 C   0  0  0  0  0  0  0  0  0  0  0  0
   60.7080   31.9970   48.7610 C   0  0  0  0  0  0  0  0  0  0  0  0
   61.0220   30.6640   48.3520 O   0  0  0  0  0  0  0  0  0  0  0  0
   60.2030   29.8110   47.5910 C   0  0  0  0  0  0  0  0  0  0  0  0
   59.1040   29.1130   48.1310 C   0  0  0  0  0  0  0  0  0  0  0  0
   58.3180   28.2920   47.3160 C   0  0  0  0  0  0  0  0  0  0  0  0
   58.6030   28.1690   45.9480 C   0  0  0  0  0  0  0  0  0  0  0  0
   57.7440   27.2980   45.0720 C   0  0  0  0  0  0  0  0  0  0  0  0
   57.2680   26.0970   45.8280 C   0  0  0  0  0  0  0  0  0  0  0  0
   58.2480   24.8330   46.3600 S   0  0  0  0  0  0  0  0  0  0  0  0
   56.9560   24.0210   47.0670 C   0  0  0  0  0  0  0  0  0  0  0  0
   57.0560   22.9220   47.6700 O   0  0  0  0  0  0  0  0  0  0  0  0
   55.7870   24.6790   46.9230 N   0  0  0  0  0  0  0  0  0  0  0  0
   55.9610   25.8400   46.2390 C   0  0  0  0  0  0  0  0  0  0  0  0
   54.9010   26.6990   45.9800 O   0  0  0  0  0  0  0  0  0  0  0  0
   59.7030   28.8540   45.4120 C   0  0  0  0  0  0  0  0  0  0  0  0
   60.4890   29.6740   46.2270 C   0  0  0  0  0  0  0  0  0  0  0  0
   58.4360   33.0840   45.7800 N   0  0  0  0  0  0  0  0  0  0  0  0
   57.9060   32.2250   44.7610 C   0  0  0  0  0  0  0  0  0  0  0  0
   57.2850   31.0330   45.1570 C   0  0  0  0  0  0  0  0  0  0  0  0
   56.7520   30.1600   44.2050 C   0  0  0  0  0  0  0  0  0  0  0  0
   56.8180   30.4780   42.8450 C   0  0  0  0  0  0  0  0  0  0  0  0
   56.2850   29.5990   41.9050 O   0  0  0  0  0  0  0  0  0  0  0  0
   57.4130   31.6810   42.4420 C   0  0  0  0  0  0  0  0  0  0  0  0
   57.9470   32.5560   43.3940 C   0  0  0  0  0  0  0  0  0  0  0  0
   62.3972   32.9101   47.7798 H   0  0  0  0  0  0  0  0  0  0  0  0
   61.0152   34.0273   48.1324 H   0  0  0  0  0  0  0  0  0  0  0  0
   61.1195   32.1715   49.7661 H   0  0  0  0  0  0  0  0  0  0  0  0
   59.6142   32.1137   48.7675 H   0  0  0  0  0  0  0  0  0  0  0  0
   58.8631   29.2146   49.1995 H   0  0  0  0  0  0  0  0  0  0  0  0
   57.4716   27.7396   47.7502 H   0  0  0  0  0  0  0  0  0  0  0  0
   56.8741   27.8770   44.7284 H   0  0  0  0  0  0  0  0  0  0  0  0
   58.3412   26.9617   44.2116 H   0  0  0  0  0  0  0  0  0  0  0  0
   59.9486   28.7456   44.3453 H   0  0  0  0  0  0  0  0  0  0  0  0
   61.3410   30.2173   45.7923 H   0  0  0  0  0  0  0  0  0  0  0  0
   57.2165   30.7825   46.2259 H   0  0  0  0  0  0  0  0  0  0  0  0
   56.2793   29.2202   44.5263 H   0  0  0  0  0  0  0  0  0  0  0  0
   55.5340   28.9620   42.1420 H   0  0  0  0  0  0  0  0  0  0  0  0
   57.4603   31.9382   41.3735 H   0  0  0  0  0  0  0  0  0  0  0  0
   58.4002   33.5055   43.0730 H   0  0  0  0  0  0  0  0  0  0  0  0
  1  2  2  0
  2  3  1  0
  3  4  1  0
  4  5  1  0
  5  6  1  0
  6  7  1  0
  7  8  2  0
  8  9  1  0
  9 10  2  0
 10 11  1  0
 11 12  1  0
 12 13  1  0
 13 14  1  0
 14 15  2  0
 14 16  1  0
 16 17  1  0
 17 18  1  0
 10 19  1  0
 19 20  2  0
  2 21  1  0
 21 22  1  0
 22 23  2  0
 23 24  1  0
 24 25  2  0
 25 26  1  0
 25 27  1  0
 27 28  2  0
 20  7  1  0
 28 22  1  0
 17 12  2  0
  4 29  1  0
  4 30  1  0
  5 31  1  0
  5 32  1  0
  8 33  1  0
  9 34  1  0
 11 35  1  0
 11 36  1  0
 19 37  1  0
 20 38  1  0
 23 39  1  0
 24 40  1  0
 26 41  1  0
 27 42  1  0
 28 43  1  0
M  CHG  4   3  -1  16  -1  18  -1  21  -1
M  END
>  <UniqueID>  (86) 
83

>  <SMILES>  (86) 
O=C([N-]CCOc1ccc(Cc2sc(=O)[n-]c2[O-])cc1)[N-]c1ccc(O)cc1

>  <Energy>  (86) 
73.34323364429781

>  <Genealogy>  (86) 
O=C([N-]CCOc1ccc(Cc2sc(=O)[n-]c2[O-])cc1)[N-]c1ccc(O)cc1 (protonated)
O=C([N-]CCOc1ccc(Cc2sc(=O)[n-]c2[O-])cc1)[N-]c1ccc(O)cc1 (3D coordinates assigned)
O=C([N-]CCOc1ccc(Cc2sc(=O)[n-]c2[O-])cc1)[N-]c1ccc(O)cc1 (optimized conformer: 73.34323364429781 kcal/mol)

>  <smiles>  (86) 
O=C(NCCOc1ccc(Cc2sc(=O)[nH]c2O)cc1)Nc1ccc(O)cc1

>  <score_type>  (86) 
oracle

>  <origin>  (86) 
adg

>  <m_score__min__energy>  (86) 
-15.390000000000001

>  <m_primary>  (86) 
energy

$$$$
86:0
     RDKit          3D

 64 67  0  0  1  0  0  0  0  0999 V2000
   60.8620   29.5260   52.5110 C   0  0  0  0  0  0  0  0  0  0  0  0
   61.7750   29.3430   51.4650 O   0  0  0  0  0  0  0  0  0  0  0  0
   61.5220   29.8220   50.1970 C   0  0  0  0  0  0  0  0  0  0  0  0
   60.5320   29.2270   49.4620 C   0  0  0  0  0  0  0  0  0  0  0  0
   60.2050   29.6220   48.2020 C   0  0  0  0  0  0  0  0  0  0  0  0
   60.9010   30.7110   47.5670 C   0  0  0  0  0  0  0  0  0  0  0  0
   60.5220   31.1660   46.4350 N   0  0  0  0  0  0  0  0  0  0  0  0
   59.5070   31.4120   45.7890 C   0  0  0  0  0  0  0  0  0  0  0  0
   58.6820   30.4060   45.2380 C   0  0  0  0  0  0  0  0  0  0  0  0
   59.0000   29.1320   45.0140 C   0  0  0  0  0  0  0  0  0  0  0  0
   60.2060   28.3380   45.0580 C   0  0  0  0  0  0  0  0  0  0  0  0
   57.8310   28.3870   44.4100 C   0  0  0  0  0  0  0  0  0  0  0  0
   57.8160   27.0180   44.0800 C   0  0  0  0  0  0  0  0  0  0  0  0
   58.1000   26.6230   42.9170 O   0  0  0  0  0  0  0  0  0  0  0  0
   57.4760   26.0540   45.0750 N   0  0  0  0  0  0  0  0  0  0  0  0
   57.1410   26.4830   46.4420 C   0  0  0  0  0  0  0  0  0  0  0  0
   57.4550   24.6310   44.7520 C   0  0  0  0  0  0  0  0  0  0  0  0
   56.5280   29.4610   44.2230 S   0  0  0  0  0  0  0  0  0  0  0  0
   57.4510   30.8760   44.9140 C   0  0  0  0  0  0  0  0  0  0  0  0
   57.0030   32.1470   45.0550 N   0  0  0  0  0  0  0  0  0  0  0  0
   57.8070   33.0960   45.5650 C   0  0  0  0  0  0  0  0  0  0  0  0
   59.0320   32.6990   45.9170 N   0  0  0  0  0  0  0  0  0  0  0  0
   59.8930   33.7680   46.4500 C   0  0  0  0  0  0  0  0  0  0  0  0
   59.5050   33.8930   47.8750 C   0  0  0  0  0  0  0  0  0  0  0  0
   59.5110   35.0270   48.4010 O   0  0  0  0  0  0  0  0  0  0  0  0
   59.1390   32.7430   48.5950 N   0  0  0  0  0  0  0  0  0  0  0  0
   58.7420   32.6730   49.9430 C   0  0  0  0  0  0  0  0  0  0  0  0
   59.3850   33.5010   50.8660 C   0  0  0  0  0  0  0  0  0  0  0  0
   59.0570   33.4870   52.2020 C   0  0  0  0  0  0  0  0  0  0  0  0
   58.0800   32.6630   52.7160 C   0  0  0  0  0  0  0  0  0  0  0  0
   57.4340   31.8370   51.8130 C   0  0  0  0  0  0  0  0  0  0  0  0
   56.1930   30.7720   52.4040 S   0  0  0  0  0  0  0  0  0  0  0  0
   54.7030   31.1960   51.6480 N   0  0  0  0  0  0  0  0  0  0  0  0
   56.0890   30.8430   53.9000 O   0  0  0  0  0  0  0  0  0  0  0  0
   56.5330   29.3450   52.0080 O   0  0  0  0  0  0  0  0  0  0  0  0
   57.7690   31.8530   50.4550 C   0  0  0  0  0  0  0  0  0  0  0  0
   61.9260   31.3100   48.3590 C   0  0  0  0  0  0  0  0  0  0  0  0
   62.2060   30.8650   49.6190 C   0  0  0  0  0  0  0  0  0  0  0  0
   61.3825   29.4217   53.4744 H   0  0  0  0  0  0  0  0  0  0  0  0
   60.4197   30.5307   52.4401 H   0  0  0  0  0  0  0  0  0  0  0  0
   60.0667   28.7694   52.4401 H   0  0  0  0  0  0  0  0  0  0  0  0
   59.9754   28.3911   49.9109 H   0  0  0  0  0  0  0  0  0  0  0  0
   59.3993   29.1033   47.6618 H   0  0  0  0  0  0  0  0  0  0  0  0
   60.4857   28.1538   46.1058 H   0  0  0  0  0  0  0  0  0  0  0  0
   60.0314   27.3776   44.5509 H   0  0  0  0  0  0  0  0  0  0  0  0
   61.0192   28.8779   44.5509 H   0  0  0  0  0  0  0  0  0  0  0  0
   57.6505   25.8305   47.1663 H   0  0  0  0  0  0  0  0  0  0  0  0
   57.4689   27.5224   46.5908 H   0  0  0  0  0  0  0  0  0  0  0  0
   56.0531   26.4168   46.5908 H   0  0  0  0  0  0  0  0  0  0  0  0
   57.4463   24.0440   45.6822 H   0  0  0  0  0  0  0  0  0  0  0  0
   56.5534   24.4015   44.1652 H   0  0  0  0  0  0  0  0  0  0  0  0
   58.3495   24.3750   44.1652 H   0  0  0  0  0  0  0  0  0  0  0  0
   57.4752   34.1379   45.6851 H   0  0  0  0  0  0  0  0  0  0  0  0
   60.9540   33.4917   46.3603 H   0  0  0  0  0  0  0  0  0  0  0  0
   59.7681   34.7134   45.9016 H   0  0  0  0  0  0  0  0  0  0  0  0
   59.1700   31.8290   48.0520 H   0  0  0  0  0  0  0  0  0  0  0  0
   60.1744   34.1822   50.5155 H   0  0  0  0  0  0  0  0  0  0  0  0
   59.5955   34.1595   52.8859 H   0  0  0  0  0  0  0  0  0  0  0  0
   57.8270   32.6617   53.7865 H   0  0  0  0  0  0  0  0  0  0  0  0
   54.8790   31.2670   50.6230 H   0  0  0  0  0  0  0  0  0  0  0  0
   54.4360   32.1520   51.9790 H   0  0  0  0  0  0  0  0  0  0  0  0
   57.2306   31.1811   49.7704 H   0  0  0  0  0  0  0  0  0  0  0  0
   62.5037   32.1495   47.9448 H   0  0  0  0  0  0  0  0  0  0  0  0
   63.0060   31.3577   50.1910 H   0  0  0  0  0  0  0  0  0  0  0  0
  1  2  1  0
  2  3  1  0
  3  4  2  0
  4  5  1  0
  5  6  2  0
  6  7  1  0
  7  8  2  0
  8  9  1  0
  9 10  1  0
 10 11  1  0
 10 12  2  0
 12 13  1  0
 13 14  2  0
 13 15  1  0
 15 16  1  0
 15 17  1  0
 12 18  1  0
 18 19  1  0
 19 20  1  0
 20 21  2  0
 21 22  1  0
 22 23  1  0
 23 24  1  0
 24 25  2  0
 24 26  1  0
 26 27  1  0
 27 28  2  0
 28 29  1  0
 29 30  2  0
 30 31  1  0
 31 32  1  0
 32 33  1  0
 32 34  2  0
 32 35  2  0
 31 36  2  0
  6 37  1  0
 37 38  2  0
 38  3  1  0
 22  8  1  0
 36 27  1  0
 19  9  2  0
  1 39  1  0
  1 40  1  0
  1 41  1  0
  4 42  1  0
  5 43  1  0
 11 44  1  0
 11 45  1  0
 11 46  1  0
 16 47  1  0
 16 48  1  0
 16 49  1  0
 17 50  1  0
 17 51  1  0
 17 52  1  0
 21 53  1  0
 23 54  1  0
 23 55  1  0
 26 56  1  0
 28 57  1  0
 29 58  1  0
 30 59  1  0
 33 60  1  0
 33 61  1  0
 36 62  1  0
 37 63  1  0
 38 64  1  0
M  END
>  <smiles>  (87) 
COc1ccc(N=c2c3c(C)c(C(=O)N(C)C)sc3ncn2CC(=O)Nc2cccc(S(N)(=O)=O)c2)cc1

>  <score_type>  (87) 
oracle

>  <origin>  (87) 
adg

>  <m_score__min__energy>  (87) 
-10.24

>  <m_primary>  (87) 
energy

$$$$
87:0
     RDKit          3D

 41 43  0  0  0  0  0  0  0  0999 V2000
   61.4448   29.0537   47.6181 H   0  0  0  0  0  0  0  0  0  0  0  0
   60.9940   29.8520   48.2260 C   0  0  0  0  0  0  0  0  0  0  0  0
   60.1230   29.5400   49.2200 N   0  0  0  0  0  0  0  0  0  0  0  0
   59.5560   30.5130   49.9880 C   0  0  0  0  0  0  0  0  0  0  0  0
   58.7240   30.2130   50.9410 N   0  0  0  0  0  0  0  0  0  0  0  0
   57.8430   31.1650   51.6150 C   0  0  0  0  0  0  0  0  0  0  0  0
   57.6093   31.9911   50.9273 H   0  0  0  0  0  0  0  0  0  0  0  0
   58.3536   31.5492   52.5104 H   0  0  0  0  0  0  0  0  0  0  0  0
   56.5710   30.4980   52.0330 C   0  0  0  0  0  0  0  0  0  0  0  0
   56.4920   29.2410   52.0060 O   0  0  0  0  0  0  0  0  0  0  0  0
   55.4300   31.3000   52.3640 N   0  0  0  0  0  0  0  0  0  0  0  0
   54.0540   30.9720   52.1250 C   0  0  0  0  0  0  0  0  0  0  0  0
   53.5240   29.7030   52.4270 C   0  0  0  0  0  0  0  0  0  0  0  0
   54.1756   28.9214   52.8448 H   0  0  0  0  0  0  0  0  0  0  0  0
   52.1710   29.4340   52.1970 C   0  0  0  0  0  0  0  0  0  0  0  0
   51.7631   28.4382   52.4252 H   0  0  0  0  0  0  0  0  0  0  0  0
   51.3360   30.4270   51.6780 C   0  0  0  0  0  0  0  0  0  0  0  0
   50.2742   30.2100   51.4897 H   0  0  0  0  0  0  0  0  0  0  0  0
   51.8510   31.6970   51.3980 C   0  0  0  0  0  0  0  0  0  0  0  0
   51.0180   32.6880   50.8930 O   0  0  0  0  0  0  0  0  0  0  0  0
   53.2030   31.9690   51.6290 C   0  0  0  0  0  0  0  0  0  0  0  0
   53.6015   32.9727   51.4199 H   0  0  0  0  0  0  0  0  0  0  0  0
   59.8600   31.8150   49.7540 N   0  0  0  0  0  0  0  0  0  0  0  0
   60.7270   32.1730   48.7670 C   0  0  0  0  0  0  0  0  0  0  0  0
   61.0370   33.5150   48.5330 O   0  0  0  0  0  0  0  0  0  0  0  0
   60.0450   34.5330   48.4630 C   0  0  0  0  0  0  0  0  0  0  0  0
   59.3742   34.4532   49.3311 H   0  0  0  0  0  0  0  0  0  0  0  0
   60.5288   35.5209   48.4668 H   0  0  0  0  0  0  0  0  0  0  0  0
   59.2530   34.3650   47.2000 C   0  0  0  0  0  0  0  0  0  0  0  0
   59.6520   35.0190   46.0230 C   0  0  0  0  0  0  0  0  0  0  0  0
   60.5647   35.6329   46.0193 H   0  0  0  0  0  0  0  0  0  0  0  0
   58.8920   34.8920   44.8550 C   0  0  0  0  0  0  0  0  0  0  0  0
   59.2130   35.3984   43.9328 H   0  0  0  0  0  0  0  0  0  0  0  0
   57.7250   34.1220   44.8590 C   0  0  0  0  0  0  0  0  0  0  0  0
   57.1310   34.0190   43.9389 H   0  0  0  0  0  0  0  0  0  0  0  0
   57.3130   33.4830   46.0320 C   0  0  0  0  0  0  0  0  0  0  0  0
   56.3919   32.8817   46.0354 H   0  0  0  0  0  0  0  0  0  0  0  0
   58.0700   33.6070   47.2010 C   0  0  0  0  0  0  0  0  0  0  0  0
   57.7383   33.1096   48.1243 H   0  0  0  0  0  0  0  0  0  0  0  0
   61.3160   31.1850   47.9770 C   0  0  0  0  0  0  0  0  0  0  0  0
   62.0195   31.4525   47.1748 H   0  0  0  0  0  0  0  0  0  0  0  0
  1  2  1  0
  2  3  1  0
  3  4  1  0
  4  5  2  0
  5  6  1  0
  6  7  1  0
  6  8  1  0
  6  9  1  0
  9 10  2  0
  9 11  1  0
 11 12  1  0
 12 13  2  0
 13 14  1  0
 13 15  1  0
 15 16  1  0
 15 17  2  0
 17 18  1  0
 17 19  1  0
 19 20  1  0
 19 21  2  0
 21 22  1  0
  4 23  1  0
 23 24  2  0
 24 25  1  0
 25 26  1  0
 26 27  1  0
 26 28  1  0
 26 29  1  0
 29 30  2  0
 30 31  1  0
 30 32  1  0
 32 33  1  0
 32 34  2  0
 34 35  1  0
 34 36  1  0
 36 37  1  0
 36 38  2  0
 38 39  1  0
 24 40  1  0
 40 41  1  0
 40  2  2  0
 21 12  1  0
 38 29  1  0
M  CHG  3   3  -1  11  -1  20  -1
M  END
>  <UniqueID>  (88) 
84

>  <SMILES>  (88) 
O=C(C/N=c1/nc(OCc2ccccc2)cc[n-]1)[N-]c1cccc([O-])c1

>  <Energy>  (88) 
44.15327896738541

>  <Genealogy>  (88) 
O=C(CN=c1nc(OCc2ccccc2)cc[n-]1)[N-]c1cccc([O-])c1 (protonated)
O=C(C/N=c1/nc(OCc2ccccc2)cc[n-]1)[N-]c1cccc([O-])c1 (cis-trans isomerization)
O=C(C/N=c1/nc(OCc2ccccc2)cc[n-]1)[N-]c1cccc([O-])c1 (3D coordinates assigned)
O=C(C/N=c1/nc(OCc2ccccc2)cc[n-]1)[N-]c1cccc([O-])c1 (optimized conformer: 44.15327896738541 kcal/mol)

>  <smiles>  (88) 
O=C(CN=c1nc(OCc2ccccc2)cc[nH]1)Nc1cccc(O)c1

>  <score_type>  (88) 
oracle

>  <origin>  (88) 
adg

>  <m_score__min__energy>  (88) 
-13.82

>  <m_primary>  (88) 
energy

$$$$
88:0
     RDKit          3D

 33 34  0  0  0  0  0  0  0  0999 V2000
   56.8630   29.0750   42.8300 N   0  0  0  0  0  0  0  0  0  0  0  0
   56.6060   29.5840   44.4620 S   0  0  0  0  0  0  0  0  0  0  0  0
   55.8500   28.5220   45.2110 O   0  0  0  0  0  0  0  0  0  0  0  0
   55.7940   30.8490   44.4700 O   0  0  0  0  0  0  0  0  0  0  0  0
   58.1620   29.8650   45.2380 C   0  0  0  0  0  0  0  0  0  0  0  0
   58.2870   30.8320   46.2440 C   0  0  0  0  0  0  0  0  0  0  0  0
   59.5260   31.0600   46.8510 C   0  0  0  0  0  0  0  0  0  0  0  0
   60.6590   30.3310   46.4450 C   0  0  0  0  0  0  0  0  0  0  0  0
   61.9200   30.5170   47.0310 O   0  0  0  0  0  0  0  0  0  0  0  0
   62.1660   31.2400   48.2050 C   0  0  0  0  0  0  0  0  0  0  0  0
   62.0390   30.7060   49.3410 O   0  0  0  0  0  0  0  0  0  0  0  0
   62.5760   32.6740   48.1060 C   0  0  0  0  0  0  0  0  0  0  0  0
   61.3950   33.5150   47.7090 C   0  0  0  0  0  0  0  0  0  0  0  0
   60.4310   33.8800   48.6650 C   0  0  0  0  0  0  0  0  0  0  0  0
   59.3130   34.6300   48.2860 C   0  0  0  0  0  0  0  0  0  0  0  0
   59.1450   35.0120   46.9520 C   0  0  0  0  0  0  0  0  0  0  0  0
   60.0920   34.6420   45.9940 C   0  0  0  0  0  0  0  0  0  0  0  0
   61.2110   33.8910   46.3680 C   0  0  0  0  0  0  0  0  0  0  0  0
   60.5240   29.3570   45.4500 C   0  0  0  0  0  0  0  0  0  0  0  0
   59.2850   29.1280   44.8430 C   0  0  0  0  0  0  0  0  0  0  0  0
   57.8730   29.2390   42.6140 H   0  0  0  0  0  0  0  0  0  0  0  0
   56.7140   28.0410   42.8050 H   0  0  0  0  0  0  0  0  0  0  0  0
   57.4077   31.4138   46.5574 H   0  0  0  0  0  0  0  0  0  0  0  0
   59.6152   31.8120   47.6488 H   0  0  0  0  0  0  0  0  0  0  0  0
   62.9549   33.0137   49.0812 H   0  0  0  0  0  0  0  0  0  0  0  0
   63.3652   32.7745   47.3464 H   0  0  0  0  0  0  0  0  0  0  0  0
   60.5564   33.5748   49.7143 H   0  0  0  0  0  0  0  0  0  0  0  0
   58.5650   34.9196   49.0387 H   0  0  0  0  0  0  0  0  0  0  0  0
   58.2665   35.6044   46.6563 H   0  0  0  0  0  0  0  0  0  0  0  0
   59.9574   34.9417   44.9442 H   0  0  0  0  0  0  0  0  0  0  0  0
   61.9498   33.5936   45.6093 H   0  0  0  0  0  0  0  0  0  0  0  0
   61.3995   28.7664   45.1425 H   0  0  0  0  0  0  0  0  0  0  0  0
   59.1926   28.3674   44.0537 H   0  0  0  0  0  0  0  0  0  0  0  0
  1  2  1  0
  2  3  2  0
  2  4  2  0
  2  5  1  0
  5  6  2  0
  6  7  1  0
  7  8  2  0
  8  9  1  0
  9 10  1  0
 10 11  2  0
 10 12  1  0
 12 13  1  0
 13 14  2  0
 14 15  1  0
 15 16  2  0
 16 17  1  0
 17 18  2  0
  8 19  1  0
 19 20  2  0
 20  5  1  0
 18 13  1  0
  1 21  1  0
  1 22  1  0
  6 23  1  0
  7 24  1  0
 12 25  1  0
 12 26  1  0
 14 27  1  0
 15 28  1  0
 16 29  1  0
 17 30  1  0
 18 31  1  0
 19 32  1  0
 20 33  1  0
M  END
>  <UniqueID>  (89) 
85

>  <SMILES>  (89) 
NS(=O)(=O)c1ccc(OC(=O)Cc2ccccc2)cc1

>  <Energy>  (89) 
34.57538082715988

>  <Genealogy>  (89) 
NS(=O)(=O)c1ccc(OC(=O)Cc2ccccc2)cc1 (3D coordinates assigned)
NS(=O)(=O)c1ccc(OC(=O)Cc2ccccc2)cc1 (optimized conformer: 34.57538082715988 kcal/mol)

>  <smiles>  (89) 
NS(=O)(=O)c1ccc(OC(=O)Cc2ccccc2)cc1

>  <score_type>  (89) 
oracle

>  <origin>  (89) 
adg

>  <m_score__min__energy>  (89) 
-8.0099999999999998

>  <m_primary>  (89) 
energy

$$$$
89:0
     RDKit          3D

 41 43  0  0  0  0  0  0  0  0999 V2000
   57.5740   28.6510   46.7630 O   0  0  0  0  0  0  0  0  0  0  0  0
   57.2180   28.5040   45.5640 C   0  0  0  0  0  0  0  0  0  0  0  0
   57.5380   27.2320   44.8490 C   0  0  0  0  0  0  0  0  0  0  0  0
   57.1430   26.0630   45.6950 C   0  0  0  0  0  0  0  0  0  0  0  0
   58.1540   24.7790   46.1070 S   0  0  0  0  0  0  0  0  0  0  0  0
   56.9220   23.9640   46.9130 C   0  0  0  0  0  0  0  0  0  0  0  0
   57.0660   22.8560   47.4910 O   0  0  0  0  0  0  0  0  0  0  0  0
   55.7470   24.6260   46.8740 N   0  0  0  0  0  0  0  0  0  0  0  0
   55.8680   25.7930   46.1880 C   0  0  0  0  0  0  0  0  0  0  0  0
   54.7860   26.6440   45.9960 O   0  0  0  0  0  0  0  0  0  0  0  0
   56.5120   29.5440   44.8740 N   0  0  0  0  0  0  0  0  0  0  0  0
   57.0850   30.7560   44.3650 C   0  0  0  0  0  0  0  0  0  0  0  0
   57.1950   30.9200   42.9780 C   0  0  0  0  0  0  0  0  0  0  0  0
   57.7540   32.0850   42.4470 C   0  0  0  0  0  0  0  0  0  0  0  0
   58.2020   33.0990   43.2970 C   0  0  0  0  0  0  0  0  0  0  0  0
   58.0780   32.9570   44.6860 C   0  0  0  0  0  0  0  0  0  0  0  0
   58.5750   34.0060   45.5900 C   0  0  0  0  0  0  0  0  0  0  0  0
   57.7650   34.5880   46.3590 O   0  0  0  0  0  0  0  0  0  0  0  0
   59.9660   34.3510   45.6530 N   0  0  0  0  0  0  0  0  0  0  0  0
   60.9080   33.8680   46.6630 C   0  0  0  0  0  0  0  0  0  0  0  0
   60.4000   32.6050   47.3100 C   0  0  0  0  0  0  0  0  0  0  0  0
   59.6000   32.6750   48.4630 C   0  0  0  0  0  0  0  0  0  0  0  0
   59.0890   31.5080   49.0390 C   0  0  0  0  0  0  0  0  0  0  0  0
   59.3740   30.2610   48.4720 C   0  0  0  0  0  0  0  0  0  0  0  0
   58.8480   29.1080   49.0500 O   0  0  0  0  0  0  0  0  0  0  0  0
   60.1810   30.1850   47.3300 C   0  0  0  0  0  0  0  0  0  0  0  0
   60.6970   31.3490   46.7550 C   0  0  0  0  0  0  0  0  0  0  0  0
   57.4990   31.7950   45.2170 C   0  0  0  0  0  0  0  0  0  0  0  0
   56.9855   27.1983   43.8984 H   0  0  0  0  0  0  0  0  0  0  0  0
   58.6191   27.1885   44.6506 H   0  0  0  0  0  0  0  0  0  0  0  0
   56.8393   30.1272   42.3035 H   0  0  0  0  0  0  0  0  0  0  0  0
   57.8416   32.2041   41.3570 H   0  0  0  0  0  0  0  0  0  0  0  0
   58.6526   34.0099   42.8759 H   0  0  0  0  0  0  0  0  0  0  0  0
   61.8766   33.6630   46.1836 H   0  0  0  0  0  0  0  0  0  0  0  0
   61.0196   34.6404   47.4382 H   0  0  0  0  0  0  0  0  0  0  0  0
   59.3747   33.6524   48.9145 H   0  0  0  0  0  0  0  0  0  0  0  0
   58.4613   31.5704   49.9402 H   0  0  0  0  0  0  0  0  0  0  0  0
   58.2060   28.5090   48.5450 H   0  0  0  0  0  0  0  0  0  0  0  0
   60.4093   29.2056   46.8843 H   0  0  0  0  0  0  0  0  0  0  0  0
   61.3385   31.2818   45.8640 H   0  0  0  0  0  0  0  0  0  0  0  0
   57.3683   31.6962   46.3047 H   0  0  0  0  0  0  0  0  0  0  0  0
  1  2  2  0
  2  3  1  0
  3  4  1  0
  4  5  1  0
  5  6  1  0
  6  7  2  0
  6  8  1  0
  8  9  1  0
  9 10  1  0
  2 11  1  0
 11 12  1  0
 12 13  2  0
 13 14  1  0
 14 15  2  0
 15 16  1  0
 16 17  1  0
 17 18  2  0
 17 19  1  0
 19 20  1  0
 20 21  1  0
 21 22  2  0
 22 23  1  0
 23 24  2  0
 24 25  1  0
 24 26  1  0
 26 27  2  0
 16 28  2  0
  9  4  2  0
 28 12  1  0
 27 21  1  0
  3 29  1  0
  3 30  1  0
 13 31  1  0
 14 32  1  0
 15 33  1  0
 20 34  1  0
 20 35  1  0
 22 36  1  0
 23 37  1  0
 25 38  1  0
 26 39  1  0
 27 40  1  0
 28 41  1  0
M  CHG  4   8  -1  10  -1  11  -1  19  -1
M  END
>  <UniqueID>  (90) 
86

>  <SMILES>  (90) 
O=C(Cc1sc(=O)[n-]c1[O-])[N-]c1cccc(C(=O)[N-]Cc2ccc(O)cc2)c1

>  <Energy>  (90) 
76.20754601983113

>  <Genealogy>  (90) 
O=C(Cc1sc(=O)[n-]c1[O-])[N-]c1cccc(C(=O)[N-]Cc2ccc(O)cc2)c1 (protonated)
O=C(Cc1sc(=O)[n-]c1[O-])[N-]c1cccc(C(=O)[N-]Cc2ccc(O)cc2)c1 (3D coordinates assigned)
O=C(Cc1sc(=O)[n-]c1[O-])[N-]c1cccc(C(=O)[N-]Cc2ccc(O)cc2)c1 (optimized conformer: 76.20754601983113 kcal/mol)

>  <smiles>  (90) 
O=C(Cc1sc(=O)[nH]c1O)Nc1cccc(C(=O)NCc2ccc(O)cc2)c1

>  <score_type>  (90) 
oracle

>  <origin>  (90) 
adg

>  <m_score__min__energy>  (90) 
-16.800000000000001

>  <m_primary>  (90) 
energy

$$$$
90:0
     RDKit          3D

 45 47  0  0  0  0  0  0  0  0999 V2000
   54.8750   26.3490   45.9870 N   0  0  0  0  0  0  0  0  0  0  0  0
   55.7730   25.2900   46.3140 C   0  0  0  0  0  0  0  0  0  0  0  0
   55.3120   24.1510   46.5970 O   0  0  0  0  0  0  0  0  0  0  0  0
   57.2260   25.5350   46.3200 C   0  0  0  0  0  0  0  0  0  0  0  0
   58.1390   24.5160   46.0130 C   0  0  0  0  0  0  0  0  0  0  0  0
   59.5060   24.7920   46.0350 C   0  0  0  0  0  0  0  0  0  0  0  0
   59.9550   26.0730   46.3570 C   0  0  0  0  0  0  0  0  0  0  0  0
   59.0200   27.0810   46.6550 C   0  0  0  0  0  0  0  0  0  0  0  0
   59.4360   28.4240   46.9850 N   0  0  0  0  0  0  0  0  0  0  0  0
   58.6560   29.1600   47.9950 C   0  0  0  0  0  0  0  0  0  0  0  0
   58.5730   30.6360   47.6290 C   0  0  0  0  0  0  0  0  0  0  0  0
   59.9160   31.1800   47.4960 N   0  0  0  0  0  0  0  0  0  0  0  0
   60.9650   30.3920   46.9290 C   0  0  0  0  0  0  0  0  0  0  0  0
   62.1250   30.8760   46.8340 O   0  0  0  0  0  0  0  0  0  0  0  0
   60.6970   28.9860   46.4390 C   0  0  2  0  0  0  0  0  0  0  0  0
   60.7050   28.9540   44.8930 C   0  0  0  0  0  0  0  0  0  0  0  0
   59.3390   28.6760   44.3100 C   0  0  0  0  0  0  0  0  0  0  0  0
   59.1410   27.5600   43.7560 O   0  0  0  0  0  0  0  0  0  0  0  0
   58.2510   29.6170   44.4180 N   0  0  0  0  0  0  0  0  0  0  0  0
   58.5020   31.0580   44.5400 C   0  0  0  0  0  0  0  0  0  0  0  0
   57.3020   31.8570   44.0200 C   0  0  0  0  0  0  0  0  0  0  0  0
   56.0970   31.3970   44.5980 O   0  0  0  0  0  0  0  0  0  0  0  0
   55.8440   30.0730   44.1730 C   0  0  0  0  0  0  0  0  0  0  0  0
   56.9040   29.1180   44.7250 C   0  0  0  0  0  0  0  0  0  0  0  0
   57.6920   26.7770   46.6290 N   0  0  0  0  0  0  0  0  0  0  0  0
   55.1510   27.3470   46.1210 H   0  0  0  0  0  0  0  0  0  0  0  0
   57.7804   23.5081   45.7571 H   0  0  0  0  0  0  0  0  0  0  0  0
   60.2306   23.9990   45.7983 H   0  0  0  0  0  0  0  0  0  0  0  0
   61.0325   26.2933   46.3777 H   0  0  0  0  0  0  0  0  0  0  0  0
   57.6401   28.7411   48.0445 H   0  0  0  0  0  0  0  0  0  0  0  0
   59.1531   29.0617   48.9713 H   0  0  0  0  0  0  0  0  0  0  0  0
   58.0363   30.7475   46.6753 H   0  0  0  0  0  0  0  0  0  0  0  0
   58.0343   31.1795   48.4192 H   0  0  0  0  0  0  0  0  0  0  0  0
   60.1290   32.1270   47.8810 H   0  0  0  0  0  0  0  0  0  0  0  0
   61.5068   28.3424   46.8131 H   0  0  0  0  0  0  0  0  0  0  0  0
   61.0544   29.9290   44.5223 H   0  0  0  0  0  0  0  0  0  0  0  0
   61.3728   28.1378   44.5803 H   0  0  0  0  0  0  0  0  0  0  0  0
   58.6724   31.3076   45.5977 H   0  0  0  0  0  0  0  0  0  0  0  0
   59.3883   31.3169   43.9421 H   0  0  0  0  0  0  0  0  0  0  0  0
   57.4399   32.9185   44.2732 H   0  0  0  0  0  0  0  0  0  0  0  0
   57.2398   31.7253   42.9297 H   0  0  0  0  0  0  0  0  0  0  0  0
   54.8530   29.7607   44.5340 H   0  0  0  0  0  0  0  0  0  0  0  0
   55.8762   30.0413   43.0739 H   0  0  0  0  0  0  0  0  0  0  0  0
   56.7869   29.0376   45.8158 H   0  0  0  0  0  0  0  0  0  0  0  0
   56.7736   28.1308   44.2576 H   0  0  0  0  0  0  0  0  0  0  0  0
  1  2  1  0
  2  3  2  0
  2  4  1  0
  4  5  2  0
  5  6  1  0
  6  7  2  0
  7  8  1  0
  8  9  1  0
  9 10  1  0
 10 11  1  0
 11 12  1  0
 12 13  1  0
 13 14  2  0
 13 15  1  0
 15 16  1  0
 16 17  1  0
 17 18  2  0
 17 19  1  0
 19 20  1  0
 20 21  1  0
 21 22  1  0
 22 23  1  0
 23 24  1  0
  8 25  2  0
 25  4  1  0
 15  9  1  0
 24 19  1  0
  1 26  1  0
  5 27  1  0
  6 28  1  0
  7 29  1  0
 10 30  1  0
 10 31  1  0
 11 32  1  0
 11 33  1  0
 12 34  1  0
 15 35  1  1
 16 36  1  0
 16 37  1  0
 20 38  1  0
 20 39  1  0
 21 40  1  0
 21 41  1  0
 23 42  1  0
 23 43  1  0
 24 44  1  0
 24 45  1  0
M  CHG  1   1  -1
M  END
>  <UniqueID>  (91) 
87

>  <SMILES>  (91) 
[NH-]C(=O)c1cccc(N2CCNC(=O)[C@@H]2CC(=O)N2CCOCC2)n1

>  <Energy>  (91) 
48.62738243384532

>  <Genealogy>  (91) 
[NH-]C(=O)c1cccc(N2CCNC(=O)C2CC(=O)N2CCOCC2)n1 (protonated)
[NH-]C(=O)c1cccc(N2CCNC(=O)[C@@H]2CC(=O)N2CCOCC2)n1 (chirality)
[NH-]C(=O)c1cccc(N2CCNC(=O)[C@@H]2CC(=O)N2CCOCC2)n1 (3D coordinates assigned)
[NH-]C(=O)c1cccc(N2CCNC(=O)[C@@H]2CC(=O)N2CCOCC2)n1 (nonaromatic ring conformer: 48.62738243384532 kcal/mol)

>  <smiles>  (91) 
NC(=O)c1cccc(N2CCNC(=O)C2CC(=O)N2CCOCC2)n1

>  <score_type>  (91) 
oracle

>  <origin>  (91) 
adg

>  <m_score__min__energy>  (91) 
-10.81

>  <m_primary>  (91) 
energy

$$$$
91:0
     RDKit          3D

 49 52  0  0  0  0  0  0  0  0999 V2000
   59.6330   34.9360   45.3050 C   0  0  0  0  0  0  0  0  0  0  0  0
   58.5290   33.7200   44.6230 S   0  0  0  0  0  0  0  0  0  0  0  0
   57.1110   34.2160   44.6910 O   0  0  0  0  0  0  0  0  0  0  0  0
   58.8900   33.4810   43.1840 O   0  0  0  0  0  0  0  0  0  0  0  0
   58.6730   32.2380   45.5130 N   0  0  0  0  0  0  0  0  0  0  0  0
   59.5370   32.0050   46.5230 C   0  0  0  0  0  0  0  0  0  0  0  0
   59.3460   30.7300   47.0380 C   0  0  0  0  0  0  0  0  0  0  0  0
   58.3200   30.1720   46.2930 C   0  0  0  0  0  0  0  0  0  0  0  0
   57.6850   28.9200   46.3820 C   0  0  0  0  0  0  0  0  0  0  0  0
   58.1440   27.8510   47.3620 C   0  0  0  0  0  0  0  0  0  0  0  0
   58.1220   26.4730   46.8190 N   0  0  0  0  0  0  0  0  0  0  0  0
   59.4040   26.0580   46.2090 C   0  0  0  0  0  0  0  0  0  0  0  0
   59.3820   24.5840   45.7520 C   0  0  0  0  0  0  0  0  0  0  0  0
   58.0230   24.0320   45.7930 N   0  0  0  0  0  0  0  0  0  0  0  0
   57.5410   23.1940   44.7240 C   0  0  0  0  0  0  0  0  0  0  0  0
   56.4590   23.6050   43.9250 C   0  0  0  0  0  0  0  0  0  0  0  0
   56.0020   22.7920   42.8820 C   0  0  0  0  0  0  0  0  0  0  0  0
   56.6230   21.5670   42.6240 C   0  0  0  0  0  0  0  0  0  0  0  0
   57.7040   21.1540   43.4070 C   0  0  0  0  0  0  0  0  0  0  0  0
   58.1640   21.9630   44.4510 C   0  0  0  0  0  0  0  0  0  0  0  0
   57.2210   24.2000   47.0130 C   0  0  0  0  0  0  0  0  0  0  0  0
   57.6320   25.4670   47.7750 C   0  0  0  0  0  0  0  0  0  0  0  0
   56.5710   28.7030   45.5300 C   0  0  0  0  0  0  0  0  0  0  0  0
   55.8450   27.5190   45.6010 O   0  0  0  0  0  0  0  0  0  0  0  0
   56.1750   29.6870   44.5990 C   0  0  0  0  0  0  0  0  0  0  0  0
   56.8560   30.9090   44.5130 C   0  0  0  0  0  0  0  0  0  0  0  0
   57.9250   31.1250   45.3840 C   0  0  0  0  0  0  0  0  0  0  0  0
   59.5933   34.8922   46.4034 H   0  0  0  0  0  0  0  0  0  0  0  0
   60.6593   34.7302   44.9667 H   0  0  0  0  0  0  0  0  0  0  0  0
   59.3293   35.9377   44.9667 H   0  0  0  0  0  0  0  0  0  0  0  0
   60.2864   32.7234   46.8867 H   0  0  0  0  0  0  0  0  0  0  0  0
   59.8959   30.2599   47.8666 H   0  0  0  0  0  0  0  0  0  0  0  0
   59.1747   28.0840   47.6674 H   0  0  0  0  0  0  0  0  0  0  0  0
   57.4335   27.8689   48.2016 H   0  0  0  0  0  0  0  0  0  0  0  0
   59.6041   26.6966   45.3360 H   0  0  0  0  0  0  0  0  0  0  0  0
   60.1904   26.1636   46.9709 H   0  0  0  0  0  0  0  0  0  0  0  0
   59.7624   24.5228   44.7217 H   0  0  0  0  0  0  0  0  0  0  0  0
   60.0144   23.9994   46.4364 H   0  0  0  0  0  0  0  0  0  0  0  0
   55.9696   24.5704   44.1210 H   0  0  0  0  0  0  0  0  0  0  0  0
   55.1523   23.1177   42.2640 H   0  0  0  0  0  0  0  0  0  0  0  0
   56.2610   20.9282   41.8049 H   0  0  0  0  0  0  0  0  0  0  0  0
   58.1941   20.1908   43.2020 H   0  0  0  0  0  0  0  0  0  0  0  0
   59.0178   21.6347   45.0620 H   0  0  0  0  0  0  0  0  0  0  0  0
   56.1589   24.2756   46.7370 H   0  0  0  0  0  0  0  0  0  0  0  0
   57.3905   23.3302   47.6647 H   0  0  0  0  0  0  0  0  0  0  0  0
   56.7627   25.8680   48.3169 H   0  0  0  0  0  0  0  0  0  0  0  0
   58.4287   25.2226   48.4930 H   0  0  0  0  0  0  0  0  0  0  0  0
   55.3216   29.4925   43.9328 H   0  0  0  0  0  0  0  0  0  0  0  0
   56.5572   31.6743   43.7815 H   0  0  0  0  0  0  0  0  0  0  0  0
  1  2  1  0
  2  3  2  0
  2  4  2  0
  2  5  1  0
  5  6  1  0
  6  7  2  0
  7  8  1  0
  8  9  2  0
  9 10  1  0
 10 11  1  0
 11 12  1  0
 12 13  1  0
 13 14  1  0
 14 15  1  0
 15 16  2  0
 16 17  1  0
 17 18  2  0
 18 19  1  0
 19 20  2  0
 14 21  1  0
 21 22  1  0
  9 23  1  0
 23 24  1  0
 23 25  2  0
 25 26  1  0
 26 27  2  0
 27  5  1  0
 27  8  1  0
 22 11  1  0
 20 15  1  0
  1 28  1  0
  1 29  1  0
  1 30  1  0
  6 31  1  0
  7 32  1  0
 10 33  1  0
 10 34  1  0
 12 35  1  0
 12 36  1  0
 13 37  1  0
 13 38  1  0
 16 39  1  0
 17 40  1  0
 18 41  1  0
 19 42  1  0
 20 43  1  0
 21 44  1  0
 21 45  1  0
 22 46  1  0
 22 47  1  0
 25 48  1  0
 26 49  1  0
M  CHG  1  24  -1
M  END
>  <UniqueID>  (92) 
88

>  <SMILES>  (92) 
CS(=O)(=O)n1ccc2c(CN3CCN(c4ccccc4)CC3)c([O-])ccc21

>  <Energy>  (92) 
97.51793895759847

>  <Genealogy>  (92) 
CS(=O)(=O)n1ccc2c(CN3CCN(c4ccccc4)CC3)c([O-])ccc21 (protonated)
CS(=O)(=O)n1ccc2c(CN3CCN(c4ccccc4)CC3)c([O-])ccc21 (3D coordinates assigned)
CS(=O)(=O)n1ccc2c(CN3CCN(c4ccccc4)CC3)c([O-])ccc21 (nonaromatic ring conformer: 97.51793895759847 kcal/mol)

>  <smiles>  (92) 
CS(=O)(=O)n1ccc2c(CN3CCN(c4ccccc4)CC3)c(O)ccc21

>  <score_type>  (92) 
oracle

>  <origin>  (92) 
adg

>  <m_score__min__energy>  (92) 
-11.470000000000001

>  <m_primary>  (92) 
energy

$$$$
92:0
     RDKit          3D

 37 39  0  0  0  0  0  0  0  0999 V2000
   59.4990   28.3680   46.8300 C   0  0  0  0  0  0  0  0  0  0  0  0
   58.6360   29.0800   46.0870 C   0  0  0  0  0  0  0  0  0  0  0  0
   57.7410   28.5930   45.1190 C   0  0  0  0  0  0  0  0  0  0  0  0
   57.3860   27.3330   44.7940 C   0  0  0  0  0  0  0  0  0  0  0  0
   57.2390   26.2100   45.7390 C   0  0  0  0  0  0  0  0  0  0  0  0
   55.9970   25.9430   46.3310 C   0  0  0  0  0  0  0  0  0  0  0  0
   54.8770   26.6980   46.0000 O   0  0  0  0  0  0  0  0  0  0  0  0
   55.8780   24.9340   47.2310 N   0  0  0  0  0  0  0  0  0  0  0  0
   56.9500   24.1790   47.5850 C   0  0  0  0  0  0  0  0  0  0  0  0
   56.7750   22.9700   48.6670 S   0  0  0  0  0  0  0  0  0  0  0  0
   58.1690   24.4360   47.0470 N   0  0  0  0  0  0  0  0  0  0  0  0
   58.3410   25.4350   46.1440 C   0  0  0  0  0  0  0  0  0  0  0  0
   59.4920   25.6600   45.6810 O   0  0  0  0  0  0  0  0  0  0  0  0
   57.2130   29.7060   44.4840 C   0  0  0  0  0  0  0  0  0  0  0  0
   57.7420   30.8140   45.1110 C   0  0  0  0  0  0  0  0  0  0  0  0
   57.4220   32.2310   44.7450 C   0  0  0  0  0  0  0  0  0  0  0  0
   58.6060   30.4380   46.0800 N   0  0  0  0  0  0  0  0  0  0  0  0
   59.3570   31.3290   46.9250 C   0  0  0  0  0  0  0  0  0  0  0  0
   58.6990   32.1520   47.8480 C   0  0  0  0  0  0  0  0  0  0  0  0
   59.4300   33.0120   48.6730 C   0  0  0  0  0  0  0  0  0  0  0  0
   60.8330   33.0590   48.5890 C   0  0  0  0  0  0  0  0  0  0  0  0
   61.6030   33.9690   49.4650 C   0  0  0  0  0  0  0  0  0  0  0  0
   61.2240   34.1970   50.6440 O   0  0  0  0  0  0  0  0  0  0  0  0
   62.7580   34.5860   48.9970 O   0  0  0  0  0  0  0  0  0  0  0  0
   61.4880   32.2290   47.6630 C   0  0  0  0  0  0  0  0  0  0  0  0
   60.7550   31.3700   46.8380 C   0  0  0  0  0  0  0  0  0  0  0  0
   60.1485   28.8769   47.5575 H   0  0  0  0  0  0  0  0  0  0  0  0
   59.5564   27.2760   46.7111 H   0  0  0  0  0  0  0  0  0  0  0  0
   57.1890   27.1248   43.7320 H   0  0  0  0  0  0  0  0  0  0  0  0
   56.5067   29.7054   43.6407 H   0  0  0  0  0  0  0  0  0  0  0  0
   57.2879   32.8250   45.6611 H   0  0  0  0  0  0  0  0  0  0  0  0
   58.2477   32.6521   44.1526 H   0  0  0  0  0  0  0  0  0  0  0  0
   56.4955   32.2564   44.1526 H   0  0  0  0  0  0  0  0  0  0  0  0
   57.6021   32.1215   47.9240 H   0  0  0  0  0  0  0  0  0  0  0  0
   58.9041   33.6564   49.3928 H   0  0  0  0  0  0  0  0  0  0  0  0
   62.5850   32.2552   47.5866 H   0  0  0  0  0  0  0  0  0  0  0  0
   61.2781   30.7238   46.1177 H   0  0  0  0  0  0  0  0  0  0  0  0
  1  2  2  0
  2  3  1  0
  3  4  2  3
  4  5  1  0
  5  6  2  0
  6  7  1  0
  6  8  1  0
  8  9  1  0
  9 10  2  0
  9 11  1  0
 11 12  1  0
 12 13  2  0
  3 14  1  0
 14 15  2  0
 15 16  1  0
 15 17  1  0
 17 18  1  0
 18 19  2  0
 19 20  1  0
 20 21  2  0
 21 22  1  0
 22 23  2  0
 22 24  1  0
 21 25  1  0
 25 26  2  0
 17  2  1  0
 26 18  1  0
 12  5  1  0
  1 27  1  0
  1 28  1  0
  4 29  1  0
 14 30  1  0
 16 31  1  0
 16 32  1  0
 16 33  1  0
 19 34  1  0
 20 35  1  0
 25 36  1  0
 26 37  1  0
M  CHG  4   7  -1   8  -1  11  -1  24  -1
M  END
>  <UniqueID>  (93) 
89

>  <SMILES>  (93) 
C=c1c(=Cc2c([O-])[n-]c(=S)[n-]c2=O)cc(C)n1-c1ccc(C(=O)[O-])cc1

>  <Energy>  (93) 
89.11460628156239

>  <Genealogy>  (93) 
C=c1c(=Cc2c([O-])[n-]c(=S)[n-]c2=O)cc(C)n1-c1ccc(C(=O)[O-])cc1 (protonated)
C=c1c(=Cc2c([O-])[n-]c(=S)[n-]c2=O)cc(C)n1-c1ccc(C(=O)[O-])cc1 (3D coordinates assigned)
C=c1c(=Cc2c([O-])[n-]c(=S)[n-]c2=O)cc(C)n1-c1ccc(C(=O)[O-])cc1 (optimized conformer: 89.11460628156239 kcal/mol)

>  <smiles>  (93) 
C=c1c(=Cc2c(O)[nH]c(=S)[nH]c2=O)cc(C)n1-c1ccc(C(=O)O)cc1

>  <score_type>  (93) 
oracle

>  <origin>  (93) 
adg

>  <m_score__min__energy>  (93) 
-15.279999999999999

>  <m_primary>  (93) 
energy

$$$$
93:0
     RDKit          3D

 24 25  0  0  0  0  0  0  0  0999 V2000
   65.3990   32.7060   49.9360 C   0  0  0  0  0  0  0  0  0  0  0  0
   64.5470   33.8270   49.7140 O   0  0  0  0  0  0  0  0  0  0  0  0
   63.3860   33.7940   48.9290 C   0  0  0  0  0  0  0  0  0  0  0  0
   62.1070   34.0410   49.4600 C   0  0  0  0  0  0  0  0  0  0  0  0
   60.9800   33.9970   48.6330 C   0  0  0  0  0  0  0  0  0  0  0  0
   61.1070   33.6970   47.2670 C   0  0  0  0  0  0  0  0  0  0  0  0
   59.9400   33.6630   46.4240 N   0  0  0  0  0  0  0  0  0  0  0  0
   59.2850   34.9610   45.6180 S   0  0  0  0  0  0  0  0  0  0  0  0
   57.9890   34.2180   44.8670 C   0  0  0  0  0  0  0  0  0  0  0  0
   58.0580   32.8850   45.2650 C   0  0  0  0  0  0  0  0  0  0  0  0
   57.0970   31.8990   44.8400 C   0  0  0  0  0  0  0  0  0  0  0  0
   56.3260   31.1070   44.4990 N   0  0  0  0  0  0  0  0  0  0  0  0
   59.1390   32.6020   46.1290 C   0  0  0  0  0  0  0  0  0  0  0  0
   59.3290   31.4550   46.6180 O   0  0  0  0  0  0  0  0  0  0  0  0
   62.3880   33.4630   46.7390 C   0  0  0  0  0  0  0  0  0  0  0  0
   63.5140   33.5090   47.5650 C   0  0  0  0  0  0  0  0  0  0  0  0
   65.5204   32.5462   51.0175 H   0  0  0  0  0  0  0  0  0  0  0  0
   64.9520   31.8099   49.4809 H   0  0  0  0  0  0  0  0  0  0  0  0
   66.3821   32.8968   49.4809 H   0  0  0  0  0  0  0  0  0  0  0  0
   61.9928   34.2697   50.5299 H   0  0  0  0  0  0  0  0  0  0  0  0
   59.9851   34.1992   49.0564 H   0  0  0  0  0  0  0  0  0  0  0  0
   57.2441   34.6811   44.2032 H   0  0  0  0  0  0  0  0  0  0  0  0
   62.5052   33.2420   45.6678 H   0  0  0  0  0  0  0  0  0  0  0  0
   64.5103   33.3194   47.1391 H   0  0  0  0  0  0  0  0  0  0  0  0
  1  2  1  0
  2  3  1  0
  3  4  2  0
  4  5  1  0
  5  6  2  0
  6  7  1  0
  7  8  1  0
  8  9  1  0
  9 10  2  0
 10 11  1  0
 11 12  3  0
 10 13  1  0
 13 14  2  0
  6 15  1  0
 15 16  2  0
 16  3  1  0
 13  7  1  0
  1 17  1  0
  1 18  1  0
  1 19  1  0
  4 20  1  0
  5 21  1  0
  9 22  1  0
 15 23  1  0
 16 24  1  0
M  END
>  <UniqueID>  (94) 
90

>  <SMILES>  (94) 
COc1ccc(-n2scc(C#N)c2=O)cc1

>  <Energy>  (94) 
61.60763898030837

>  <Genealogy>  (94) 
COc1ccc(-n2scc(C#N)c2=O)cc1 (3D coordinates assigned)
COc1ccc(-n2scc(C#N)c2=O)cc1 (optimized conformer: 61.60763898030837 kcal/mol)

>  <smiles>  (94) 
COc1ccc(-n2scc(C#N)c2=O)cc1

>  <score_type>  (94) 
oracle

>  <origin>  (94) 
adg

>  <m_score__min__energy>  (94) 
-5.7199999999999998

>  <m_primary>  (94) 
energy

$$$$
94:0
     RDKit          3D

 49 51  0  0  0  0  0  0  0  0999 V2000
   59.2300   35.2700   44.8690 C   0  0  0  0  0  0  0  0  0  0  0  0
   59.1230   34.4230   46.1100 C   0  0  0  0  0  0  0  0  0  0  0  0
   60.0160   34.6580   47.1710 C   0  0  0  0  0  0  0  0  0  0  0  0
   59.9420   33.8970   48.3390 C   0  0  0  0  0  0  0  0  0  0  0  0
   58.9780   32.8930   48.4650 C   0  0  0  0  0  0  0  0  0  0  0  0
   58.0900   32.6400   47.4180 C   0  0  0  0  0  0  0  0  0  0  0  0
   58.1560   33.3880   46.2280 C   0  0  0  0  0  0  0  0  0  0  0  0
   57.1510   33.1110   45.1340 C   0  0  0  0  0  0  0  0  0  0  0  0
   56.7210   31.7200   45.2070 N   0  0  0  0  0  0  0  0  0  0  0  0
   57.3530   30.6520   44.4890 C   0  0  0  0  0  0  0  0  0  0  0  0
   57.5480   30.7540   43.2480 O   0  0  0  0  0  0  0  0  0  0  0  0
   57.7610   29.4250   45.2090 C   0  0  0  0  0  0  0  0  0  0  0  0
   58.9550   29.3890   45.9440 C   0  0  0  0  0  0  0  0  0  0  0  0
   59.3240   28.2330   46.6410 C   0  0  0  0  0  0  0  0  0  0  0  0
   58.4850   27.1130   46.6410 C   0  0  0  0  0  0  0  0  0  0  0  0
   58.8630   25.9790   47.3530 O   0  0  0  0  0  0  0  0  0  0  0  0
   57.2730   27.1430   45.9300 C   0  0  0  0  0  0  0  0  0  0  0  0
   56.1500   25.7810   46.0150 S   0  0  0  0  0  0  0  0  0  0  0  0
   54.7510   26.3370   45.9930 O   0  0  0  0  0  0  0  0  0  0  0  0
   56.3750   25.0010   47.2810 O   0  0  0  0  0  0  0  0  0  0  0  0
   56.4040   24.7350   44.6500 N   0  0  0  0  0  0  0  0  0  0  0  0
   56.6180   23.3180   44.7010 C   0  0  0  0  0  0  0  0  0  0  0  0
   56.5230   22.5890   43.5100 C   0  0  0  0  0  0  0  0  0  0  0  0
   56.6690   21.2020   43.5180 C   0  0  0  0  0  0  0  0  0  0  0  0
   56.9280   20.5300   44.7170 C   0  0  0  0  0  0  0  0  0  0  0  0
   57.0570   21.2530   45.9120 C   0  0  0  0  0  0  0  0  0  0  0  0
   57.3620   20.4190   47.4340 S   0  0  0  0  0  0  0  0  0  0  0  0
   58.9270   19.6890   47.3790 N   0  0  0  0  0  0  0  0  0  0  0  0
   56.3150   19.3570   47.6440 O   0  0  0  0  0  0  0  0  0  0  0  0
   57.3030   21.3880   48.5830 O   0  0  0  0  0  0  0  0  0  0  0  0
   56.9100   22.6490   45.9010 C   0  0  0  0  0  0  0  0  0  0  0  0
   56.9270   28.2920   45.2000 C   0  0  0  0  0  0  0  0  0  0  0  0
   59.3631   36.3239   45.1547 H   0  0  0  0  0  0  0  0  0  0  0  0
   60.0936   34.9398   44.2730 H   0  0  0  0  0  0  0  0  0  0  0  0
   58.3114   35.1649   44.2730 H   0  0  0  0  0  0  0  0  0  0  0  0
   60.7776   35.4465   47.0798 H   0  0  0  0  0  0  0  0  0  0  0  0
   60.6450   34.0883   49.1632 H   0  0  0  0  0  0  0  0  0  0  0  0
   58.9189   32.3013   49.3904 H   0  0  0  0  0  0  0  0  0  0  0  0
   57.3325   31.8495   47.5241 H   0  0  0  0  0  0  0  0  0  0  0  0
   56.2800   33.7708   45.2611 H   0  0  0  0  0  0  0  0  0  0  0  0
   57.6152   33.2994   44.1547 H   0  0  0  0  0  0  0  0  0  0  0  0
   59.6058   30.2754   45.9728 H   0  0  0  0  0  0  0  0  0  0  0  0
   60.2765   28.2046   47.1906 H   0  0  0  0  0  0  0  0  0  0  0  0
   56.3320   23.1132   42.5619 H   0  0  0  0  0  0  0  0  0  0  0  0
   56.5803   20.6354   42.5794 H   0  0  0  0  0  0  0  0  0  0  0  0
   57.0305   19.4348   44.7228 H   0  0  0  0  0  0  0  0  0  0  0  0
   59.3580   19.9610   46.4540 H   0  0  0  0  0  0  0  0  0  0  0  0
   57.0237   23.2202   46.8342 H   0  0  0  0  0  0  0  0  0  0  0  0
   55.9951   28.3061   44.6157 H   0  0  0  0  0  0  0  0  0  0  0  0
  1  2  1  0
  2  3  2  0
  3  4  1  0
  4  5  2  0
  5  6  1  0
  6  7  2  0
  7  8  1  0
  8  9  1  0
  9 10  1  0
 10 11  2  0
 10 12  1  0
 12 13  2  0
 13 14  1  0
 14 15  2  0
 15 16  1  0
 15 17  1  0
 17 18  1  0
 18 19  2  0
 18 20  2  0
 18 21  1  0
 21 22  1  0
 22 23  2  0
 23 24  1  0
 24 25  2  0
 25 26  1  0
 26 27  1  0
 27 28  1  0
 27 29  2  0
 27 30  2  0
 26 31  2  0
 17 32  2  0
  7  2  1  0
 32 12  1  0
 31 22  1  0
  1 33  1  0
  1 34  1  0
  1 35  1  0
  3 36  1  0
  4 37  1  0
  5 38  1  0
  6 39  1  0
  8 40  1  0
  8 41  1  0
 13 42  1  0
 14 43  1  0
 23 44  1  0
 24 45  1  0
 25 46  1  0
 28 47  1  0
 31 48  1  0
 32 49  1  0
M  CHG  4   9  -1  16  -1  21  -1  28  -1
M  END
>  <UniqueID>  (95) 
91

>  <SMILES>  (95) 
Cc1ccccc1C[N-]C(=O)c1ccc([O-])c(S(=O)(=O)[N-]c2cccc(S([NH-])(=O)=O)c2)c1

>  <Energy>  (95) 
57.77698524686066

>  <Genealogy>  (95) 
Cc1ccccc1C[N-]C(=O)c1ccc([O-])c(S(=O)(=O)[N-]c2cccc(S([NH-])(=O)=O)c2)c1 (protonated)
Cc1ccccc1C[N-]C(=O)c1ccc([O-])c(S(=O)(=O)[N-]c2cccc(S([NH-])(=O)=O)c2)c1 (3D coordinates assigned)
Cc1ccccc1C[N-]C(=O)c1ccc([O-])c(S(=O)(=O)[N-]c2cccc(S([NH-])(=O)=O)c2)c1 (optimized conformer: 57.77698524686066 kcal/mol)

>  <smiles>  (95) 
Cc1ccccc1CNC(=O)c1ccc(O)c(S(=O)(=O)Nc2cccc(S(N)(=O)=O)c2)c1

>  <score_type>  (95) 
oracle

>  <origin>  (95) 
adg

>  <m_score__min__energy>  (95) 
-16

>  <m_primary>  (95) 
energy

$$$$
95:0
     RDKit          3D

 39 40  0  0  0  0  0  0  0  0999 V2000
   62.9940   31.6460   48.9740 C   0  0  0  0  0  0  0  0  0  0  0  0
   62.1460   32.8430   47.9630 S   0  0  0  0  0  0  0  0  0  0  0  0
   62.9860   33.2200   46.7740 O   0  0  0  0  0  0  0  0  0  0  0  0
   61.9060   34.0690   48.7950 O   0  0  0  0  0  0  0  0  0  0  0  0
   60.6120   32.2190   47.4440 N   0  0  0  0  0  0  0  0  0  0  0  0
   59.6920   32.8530   46.5430 C   0  0  0  0  0  0  0  0  0  0  0  0
   58.5660   32.1210   46.1400 C   0  0  0  0  0  0  0  0  0  0  0  0
   57.6370   32.6600   45.2450 C   0  0  0  0  0  0  0  0  0  0  0  0
   56.4960   31.8750   44.8720 N   0  0  0  0  0  0  0  0  0  0  0  0
   56.4890   30.7390   43.9970 C   0  0  0  0  0  0  0  0  0  0  0  0
   57.1890   30.7790   42.9510 O   0  0  0  0  0  0  0  0  0  0  0  0
   55.6090   29.5750   44.2370 C   0  0  0  0  0  0  0  0  0  0  0  0
   54.6130   29.3880   43.4900 O   0  0  0  0  0  0  0  0  0  0  0  0
   55.9100   28.5950   45.2390 N   0  0  0  0  0  0  0  0  0  0  0  0
   57.2090   28.0720   45.5650 C   0  0  0  0  0  0  0  0  0  0  0  0
   58.3600   28.8500   45.3380 C   0  0  0  0  0  0  0  0  0  0  0  0
   59.6210   28.3750   45.6950 C   0  0  0  0  0  0  0  0  0  0  0  0
   59.7510   27.1270   46.3000 C   0  0  0  0  0  0  0  0  0  0  0  0
   58.6190   26.3530   46.5570 C   0  0  0  0  0  0  0  0  0  0  0  0
   57.3340   26.8090   46.2010 C   0  0  0  0  0  0  0  0  0  0  0  0
   56.1540   25.9470   46.4940 C   0  0  0  0  0  0  0  0  0  0  0  0
   54.8690   26.2830   45.9700 N   0  0  0  0  0  0  0  0  0  0  0  0
   56.2660   24.9170   47.2090 O   0  0  0  0  0  0  0  0  0  0  0  0
   57.8080   33.9770   44.7880 C   0  0  0  0  0  0  0  0  0  0  0  0
   58.9070   34.7270   45.2040 C   0  0  0  0  0  0  0  0  0  0  0  0
   59.8480   34.1810   46.0890 C   0  0  0  0  0  0  0  0  0  0  0  0
   60.9050   34.9720   46.5330 O   0  0  0  0  0  0  0  0  0  0  0  0
   62.8283   31.8799   50.0360 H   0  0  0  0  0  0  0  0  0  0  0  0
   62.6058   30.6403   48.7551 H   0  0  0  0  0  0  0  0  0  0  0  0
   64.0715   31.6787   48.7551 H   0  0  0  0  0  0  0  0  0  0  0  0
   58.4111   31.1059   46.5345 H   0  0  0  0  0  0  0  0  0  0  0  0
   58.2634   29.8428   44.8742 H   0  0  0  0  0  0  0  0  0  0  0  0
   60.5142   28.9862   45.4988 H   0  0  0  0  0  0  0  0  0  0  0  0
   60.7475   26.7512   46.5755 H   0  0  0  0  0  0  0  0  0  0  0  0
   58.7311   25.3732   47.0443 H   0  0  0  0  0  0  0  0  0  0  0  0
   54.7710   26.7250   45.0310 H   0  0  0  0  0  0  0  0  0  0  0  0
   57.0722   34.4182   44.0995 H   0  0  0  0  0  0  0  0  0  0  0  0
   59.0371   35.7551   44.8352 H   0  0  0  0  0  0  0  0  0  0  0  0
   61.4980   34.6880   47.3030 H   0  0  0  0  0  0  0  0  0  0  0  0
  1  2  1  0
  2  3  2  0
  2  4  2  0
  2  5  1  0
  5  6  1  0
  6  7  2  0
  7  8  1  0
  8  9  1  0
  9 10  1  0
 10 11  2  0
 10 12  1  0
 12 13  2  0
 12 14  1  0
 14 15  1  0
 15 16  2  0
 16 17  1  0
 17 18  2  0
 18 19  1  0
 19 20  2  0
 20 21  1  0
 21 22  1  0
 21 23  2  0
  8 24  2  0
 24 25  1  0
 25 26  2  0
 26 27  1  0
 26  6  1  0
 20 15  1  0
  1 28  1  0
  1 29  1  0
  1 30  1  0
  7 31  1  0
 16 32  1  0
 17 33  1  0
 18 34  1  0
 19 35  1  0
 22 36  1  0
 24 37  1  0
 25 38  1  0
 27 39  1  0
M  CHG  4   5  -1   9  -1  14  -1  22  -1
M  END
>  <UniqueID>  (96) 
92

>  <SMILES>  (96) 
CS(=O)(=O)[N-]c1cc([N-]C(=O)C(=O)[N-]c2ccccc2C([NH-])=O)ccc1O

>  <Energy>  (96) 
54.927832858374096

>  <Genealogy>  (96) 
CS(=O)(=O)[N-]c1cc([N-]C(=O)C(=O)[N-]c2ccccc2C([NH-])=O)ccc1O (protonated)
CS(=O)(=O)[N-]c1cc([N-]C(=O)C(=O)[N-]c2ccccc2C([NH-])=O)ccc1O (3D coordinates assigned)
CS(=O)(=O)[N-]c1cc([N-]C(=O)C(=O)[N-]c2ccccc2C([NH-])=O)ccc1O (optimized conformer: 54.927832858374096 kcal/mol)

>  <smiles>  (96) 
CS(=O)(=O)Nc1cc(NC(=O)C(=O)Nc2ccccc2C(N)=O)ccc1O

>  <score_type>  (96) 
oracle

>  <origin>  (96) 
adg

>  <m_score__min__energy>  (96) 
-15.369999999999999

>  <m_primary>  (96) 
energy

$$$$
