0:0
     RDKit          3D

 59 62  0  0  0  0  0  0  0  0999 V2000
   56.2860   29.8380   42.9890 C   0  0  0  0  0  0  0  0  0  0  0  0
   56.8350   30.1630   44.3160 N   0  0  0  0  0  0  0  0  0  0  0  0
   58.1920   30.7590   44.2070 C   0  0  0  0  0  0  0  0  0  0  0  0
   59.2990   29.7460   44.5310 C   0  0  0  0  0  0  0  0  0  0  0  0
   59.1700   29.2340   45.9150 N   0  0  0  0  0  0  0  0  0  0  0  0
   59.9270   27.9760   46.0710 C   0  0  0  0  0  0  0  0  0  0  0  0
   59.8790   27.5020   47.4910 C   0  0  0  0  0  0  0  0  0  0  0  0
   59.0870   26.5770   47.8170 O   0  0  0  0  0  0  0  0  0  0  0  0
   60.7640   28.0760   48.4610 N   0  0  0  0  0  0  0  0  0  0  0  0
   60.3090   28.7340   49.6800 C   0  0  0  0  0  0  0  0  0  0  0  0
   59.7750   30.1040   49.3710 C   0  0  0  0  0  0  0  0  0  0  0  0
   59.7090   30.6010   48.1210 N   0  0  0  0  0  0  0  0  0  0  0  0
   59.2100   31.8480   48.2520 C   0  0  0  0  0  0  0  0  0  0  0  0
   58.9650   32.7900   47.1340 C   0  0  0  0  0  0  0  0  0  0  0  0
   57.6480   33.0430   46.7070 C   0  0  0  0  0  0  0  0  0  0  0  0
   57.4010   33.9370   45.6590 C   0  0  0  0  0  0  0  0  0  0  0  0
   58.4620   34.5930   45.0340 C   0  0  0  0  0  0  0  0  0  0  0  0
   59.7730   34.3570   45.4520 C   0  0  0  0  0  0  0  0  0  0  0  0
   60.0300   33.4620   46.4970 C   0  0  0  0  0  0  0  0  0  0  0  0
   61.3130   33.2940   46.9060 F   0  0  0  0  0  0  0  0  0  0  0  0
   58.9730   32.0900   49.5930 C   0  0  0  0  0  0  0  0  0  0  0  0
   59.3330   30.9950   50.2920 N   0  0  0  0  0  0  0  0  0  0  0  0
   59.2380   30.8350   51.7460 C   0  0  0  0  0  0  0  0  0  0  0  0
   57.8230   30.5210   52.1570 C   0  0  0  0  0  0  0  0  0  0  0  0
   57.4960   29.2460   52.6510 C   0  0  0  0  0  0  0  0  0  0  0  0
   56.1830   28.9490   53.0260 C   0  0  0  0  0  0  0  0  0  0  0  0
   55.1840   29.9210   52.9150 C   0  0  0  0  0  0  0  0  0  0  0  0
   55.5000   31.1940   52.4300 C   0  0  0  0  0  0  0  0  0  0  0  0
   56.8130   31.4970   52.0520 C   0  0  0  0  0  0  0  0  0  0  0  0
   57.0980   32.7420   51.5980 F   0  0  0  0  0  0  0  0  0  0  0  0
   57.7600   29.1030   46.3700 C   0  0  0  0  0  0  0  0  0  0  0  0
   56.7770   28.9750   45.1990 C   0  0  0  0  0  0  0  0  0  0  0  0
   55.3450   29.2809   43.1079 H   0  0  0  0  0  0  0  0  0  0  0  0
   56.0939   30.7680   42.4339 H   0  0  0  0  0  0  0  0  0  0  0  0
   57.0090   29.2223   42.4339 H   0  0  0  0  0  0  0  0  0  0  0  0
   58.3365   31.1250   43.1798 H   0  0  0  0  0  0  0  0  0  0  0  0
   58.2602   31.5784   44.9377 H   0  0  0  0  0  0  0  0  0  0  0  0
   59.2297   28.9023   43.8286 H   0  0  0  0  0  0  0  0  0  0  0  0
   60.2714   30.2514   44.4364 H   0  0  0  0  0  0  0  0  0  0  0  0
   59.4878   27.2070   45.4186 H   0  0  0  0  0  0  0  0  0  0  0  0
   60.9759   28.1577   45.7940 H   0  0  0  0  0  0  0  0  0  0  0  0
   59.5131   28.1309   50.1414 H   0  0  0  0  0  0  0  0  0  0  0  0
   61.1598   28.8313   50.3704 H   0  0  0  0  0  0  0  0  0  0  0  0
   59.9660   30.1030   47.2400 H   0  0  0  0  0  0  0  0  0  0  0  0
   56.8067   32.5344   47.2006 H   0  0  0  0  0  0  0  0  0  0  0  0
   56.3687   34.1228   45.3275 H   0  0  0  0  0  0  0  0  0  0  0  0
   58.2655   35.2965   44.2115 H   0  0  0  0  0  0  0  0  0  0  0  0
   60.6073   34.8765   44.9581 H   0  0  0  0  0  0  0  0  0  0  0  0
   58.5610   33.0177   50.0168 H   0  0  0  0  0  0  0  0  0  0  0  0
   59.8966   30.0127   52.0624 H   0  0  0  0  0  0  0  0  0  0  0  0
   59.5444   31.7763   52.2256 H   0  0  0  0  0  0  0  0  0  0  0  0
   58.2781   28.4779   52.7428 H   0  0  0  0  0  0  0  0  0  0  0  0
   55.9348   27.9483   53.4094 H   0  0  0  0  0  0  0  0  0  0  0  0
   54.1507   29.6846   53.2088 H   0  0  0  0  0  0  0  0  0  0  0  0
   54.7144   31.9593   52.3454 H   0  0  0  0  0  0  0  0  0  0  0  0
   57.6747   28.2070   47.0024 H   0  0  0  0  0  0  0  0  0  0  0  0
   57.5012   30.0156   46.9269 H   0  0  0  0  0  0  0  0  0  0  0  0
   57.0324   28.0799   44.6128 H   0  0  0  0  0  0  0  0  0  0  0  0
   55.7587   28.8950   45.6073 H   0  0  0  0  0  0  0  0  0  0  0  0
  1  2  1  0
  2  3  1  0
  3  4  1  0
  4  5  1  0
  5  6  1  0
  6  7  1  0
  7  8  2  0
  7  9  1  0
  9 10  1  0
 10 11  1  0
 11 12  2  0
 12 13  1  0
 13 14  1  0
 14 15  2  0
 15 16  1  0
 16 17  2  0
 17 18  1  0
 18 19  2  0
 19 20  1  0
 13 21  2  0
 21 22  1  0
 22 23  1  0
 23 24  1  0
 24 25  2  0
 25 26  1  0
 26 27  2  0
 27 28  1  0
 28 29  2  0
 29 30  1  0
  5 31  1  0
 31 32  1  0
 32  2  1  0
 22 11  1  0
 29 24  1  0
 19 14  1  0
  1 33  1  0
  1 34  1  0
  1 35  1  0
  3 36  1  0
  3 37  1  0
  4 38  1  0
  4 39  1  0
  6 40  1  0
  6 41  1  0
 10 42  1  0
 10 43  1  0
 12 44  1  0
 15 45  1  0
 16 46  1  0
 17 47  1  0
 18 48  1  0
 21 49  1  0
 23 50  1  0
 23 51  1  0
 25 52  1  0
 26 53  1  0
 27 54  1  0
 28 55  1  0
 31 56  1  0
 31 57  1  0
 32 58  1  0
 32 59  1  0
M  CHG  2   9  -1  12   1
M  END
>  <UniqueID>  (1) 
1

>  <SMILES>  (1) 
CN1CCN(CC(=O)[N-]Cc2[nH+]c(-c3ccccc3F)cn2Cc2ccccc2F)CC1

>  <Energy>  (1) 
102.3246913804068

>  <Genealogy>  (1) 
CN1CCN(CC(=O)[N-]Cc2[nH+]c(-c3ccccc3F)cn2Cc2ccccc2F)CC1 (protonated)
CN1CCN(CC(=O)[N-]Cc2[nH+]c(-c3ccccc3F)cn2Cc2ccccc2F)CC1 (3D coordinates assigned)
CN1CCN(CC(=O)[N-]Cc2[nH+]c(-c3ccccc3F)cn2Cc2ccccc2F)CC1 (nonaromatic ring conformer: 102.3246913804068 kcal/mol)

>  <smiles>  (1) 
CN1CCN(CC(=O)NCc2nc(-c3ccccc3F)cn2Cc2ccccc2F)CC1

>  <score_type>  (1) 
oracle

>  <origin>  (1) 
adg

>  <m_score__min__energy>  (1) 
-8.2599999999999998

>  <m_primary>  (1) 
energy

$$$$
1:0
     RDKit          3D

 42 44  0  0  0  0  0  0  0  0999 V2000
   60.1060   25.9780   46.7380 C   0  0  0  0  0  0  0  0  0  0  0  0
   59.3700   27.0810   47.0030 C   0  0  0  0  0  0  0  0  0  0  0  0
   59.7230   27.9060   48.1100 C   0  0  0  0  0  0  0  0  0  0  0  0
   60.5610   27.4100   49.2320 C   0  0  0  0  0  0  0  0  0  0  0  0
   61.4550   28.1440   49.7310 O   0  0  0  0  0  0  0  0  0  0  0  0
   60.3920   26.1210   49.7220 O   0  0  0  0  0  0  0  0  0  0  0  0
   59.2690   29.2340   48.1520 C   0  0  0  0  0  0  0  0  0  0  0  0
   59.6110   30.0680   49.2140 O   0  0  0  0  0  0  0  0  0  0  0  0
   58.4730   29.7440   47.1310 C   0  0  0  0  0  0  0  0  0  0  0  0
   58.1140   31.0890   47.1620 O   0  0  0  0  0  0  0  0  0  0  0  0
   58.0190   28.9150   46.0950 C   0  0  0  0  0  0  0  0  0  0  0  0
   57.1510   29.5250   45.0590 C   0  0  0  0  0  0  0  0  0  0  0  0
   55.9010   29.4020   45.1500 O   0  0  0  0  0  0  0  0  0  0  0  0
   57.7010   30.2620   43.9610 N   0  0  0  0  0  0  0  0  0  0  0  0
   57.1810   31.5440   43.5000 C   0  0  0  0  0  0  0  0  0  0  0  0
   57.7030   32.6390   44.3830 C   0  0  0  0  0  0  0  0  0  0  0  0
   58.8950   33.3070   44.0550 C   0  0  0  0  0  0  0  0  0  0  0  0
   59.3970   34.3040   44.8980 C   0  0  0  0  0  0  0  0  0  0  0  0
   58.7200   34.6310   46.0770 C   0  0  0  0  0  0  0  0  0  0  0  0
   59.2090   35.5960   46.8940 F   0  0  0  0  0  0  0  0  0  0  0  0
   57.5430   33.9580   46.4170 C   0  0  0  0  0  0  0  0  0  0  0  0
   57.0370   32.9610   45.5770 C   0  0  0  0  0  0  0  0  0  0  0  0
   58.3510   27.5290   46.0950 C   0  0  0  0  0  0  0  0  0  0  0  0
   57.6590   26.6870   45.2720 C   0  0  0  0  0  0  0  0  0  0  0  0
   56.9160   25.4710   45.6840 C   0  0  0  0  0  0  0  0  0  0  0  0
   55.5520   25.5150   46.0270 C   0  0  0  0  0  0  0  0  0  0  0  0
   54.8480   26.7130   45.9990 O   0  0  0  0  0  0  0  0  0  0  0  0
   54.9040   24.3730   46.3720 N   0  0  0  0  0  0  0  0  0  0  0  0
   55.5440   23.1760   46.3740 C   0  0  0  0  0  0  0  0  0  0  0  0
   54.9230   22.1320   46.7020 O   0  0  0  0  0  0  0  0  0  0  0  0
   56.8510   23.1030   46.0160 N   0  0  0  0  0  0  0  0  0  0  0  0
   57.5450   24.2160   45.6640 C   0  0  0  0  0  0  0  0  0  0  0  0
   58.7580   24.1100   45.3340 O   0  0  0  0  0  0  0  0  0  0  0  0
   59.8435   25.3332   45.8863 H   0  0  0  0  0  0  0  0  0  0  0  0
   60.9672   25.7255   47.3741 H   0  0  0  0  0  0  0  0  0  0  0  0
   57.5062   31.7211   42.4642 H   0  0  0  0  0  0  0  0  0  0  0  0
   56.0818   31.5312   43.5406 H   0  0  0  0  0  0  0  0  0  0  0  0
   59.4347   33.0452   43.1330 H   0  0  0  0  0  0  0  0  0  0  0  0
   60.3253   34.8313   44.6332 H   0  0  0  0  0  0  0  0  0  0  0  0
   57.0138   34.2131   47.3470 H   0  0  0  0  0  0  0  0  0  0  0  0
   56.1151   32.4276   45.8520 H   0  0  0  0  0  0  0  0  0  0  0  0
   57.6519   26.9344   44.2002 H   0  0  0  0  0  0  0  0  0  0  0  0
  1  2  2  0
  2  3  1  0
  3  4  1  0
  4  5  2  0
  4  6  1  0
  3  7  2  0
  7  8  1  0
  7  9  1  0
  9 10  1  0
  9 11  2  0
 11 12  1  0
 12 13  2  0
 12 14  1  0
 14 15  1  0
 15 16  1  0
 16 17  2  0
 17 18  1  0
 18 19  2  0
 19 20  1  0
 19 21  1  0
 21 22  2  0
 11 23  1  0
 23 24  2  3
 24 25  1  0
 25 26  2  0
 26 27  1  0
 26 28  1  0
 28 29  1  0
 29 30  2  0
 29 31  1  0
 31 32  1  0
 32 33  2  0
 23  2  1  0
 32 25  1  0
 22 16  1  0
  1 34  1  0
  1 35  1  0
 15 36  1  0
 15 37  1  0
 17 38  1  0
 18 39  1  0
 21 40  1  0
 22 41  1  0
 24 42  1  0
M  CHG  7   6  -1   8  -1  10  -1  14  -1  27  -1  28  -1  31  -1
M  END
>  <UniqueID>  (2) 
2

>  <SMILES>  (2) 
C=c1c(C(=O)[O-])c([O-])c([O-])c(C(=O)[N-]Cc2ccc(F)cc2)c1=Cc1c([O-])[n-]c(=O)[n-]c1=O

>  <Energy>  (2) 
87.81592206318533

>  <Genealogy>  (2) 
C=c1c(C(=O)[O-])c([O-])c([O-])c(C(=O)[N-]Cc2ccc(F)cc2)c1=Cc1c([O-])[n-]c(=O)[n-]c1=O (protonated)
C=c1c(C(=O)[O-])c([O-])c([O-])c(C(=O)[N-]Cc2ccc(F)cc2)c1=Cc1c([O-])[n-]c(=O)[n-]c1=O (3D coordinates assigned)
C=c1c(C(=O)[O-])c([O-])c([O-])c(C(=O)[N-]Cc2ccc(F)cc2)c1=Cc1c([O-])[n-]c(=O)[n-]c1=O (optimized conformer: 87.81592206318533 kcal/mol)

>  <smiles>  (2) 
C=c1c(C(=O)O)c(O)c(O)c(C(=O)NCc2ccc(F)cc2)c1=Cc1c(O)[nH]c(=O)[nH]c1=O

>  <score_type>  (2) 
oracle

>  <origin>  (2) 
adg

>  <m_score__min__energy>  (2) 
-19.620000000000001

>  <m_primary>  (2) 
energy

$$$$
2:0
     RDKit          3D

 44 45  0  0  0  0  0  0  0  0999 V2000
   55.1550   26.7060   46.0180 N   0  0  0  0  0  0  0  0  0  0  0  0
   55.9070   25.4950   46.0050 C   0  0  0  0  0  0  0  0  0  0  0  0
   55.6260   24.5730   46.8140 O   0  0  0  0  0  0  0  0  0  0  0  0
   57.0220   25.3160   45.0210 C   0  0  0  0  0  0  0  0  0  0  0  0
   58.3220   25.9980   45.4770 C   0  0  0  0  0  0  0  0  0  0  0  0
   58.1310   26.9360   46.6770 C   0  0  0  0  0  0  0  0  0  0  0  0
   59.4880   26.7540   47.8910 S   0  0  0  0  0  0  0  0  0  0  0  0
   60.6090   27.9710   47.1090 C   0  0  0  0  0  0  0  0  0  0  0  0
   59.8920   29.2610   46.8190 C   0  0  0  0  0  0  0  0  0  0  0  0
   59.5130   30.1100   47.8690 C   0  0  0  0  0  0  0  0  0  0  0  0
   58.8000   31.2820   47.6070 C   0  0  0  0  0  0  0  0  0  0  0  0
   58.4410   31.6150   46.2910 C   0  0  0  0  0  0  0  0  0  0  0  0
   57.6760   32.8460   46.0050 C   0  0  0  0  0  0  0  0  0  0  0  0
   56.6770   32.7830   45.2410 O   0  0  0  0  0  0  0  0  0  0  0  0
   58.0410   34.1200   46.5560 N   0  0  0  0  0  0  0  0  0  0  0  0
   59.3250   34.4480   47.1740 C   0  0  0  0  0  0  0  0  0  0  0  0
   60.4650   34.3330   46.1580 C   0  0  0  0  0  0  0  0  0  0  0  0
   61.6540   33.7350   46.7590 N   0  0  0  0  0  0  0  0  0  0  0  0
   61.6880   32.9870   47.8780 C   0  0  0  0  0  0  0  0  0  0  0  0
   62.9910   32.5940   48.0940 C   0  0  0  0  0  0  0  0  0  0  0  0
   63.7050   33.1530   47.0530 C   0  0  0  0  0  0  0  0  0  0  0  0
   62.8720   33.8440   46.2510 N   0  0  0  0  0  0  0  0  0  0  0  0
   58.8600   30.7890   45.2370 C   0  0  0  0  0  0  0  0  0  0  0  0
   59.5680   29.6140   45.5000 C   0  0  0  0  0  0  0  0  0  0  0  0
   54.1690   26.7200   46.3620 H   0  0  0  0  0  0  0  0  0  0  0  0
   57.2129   24.2400   44.8955 H   0  0  0  0  0  0  0  0  0  0  0  0
   56.7122   25.7838   44.0748 H   0  0  0  0  0  0  0  0  0  0  0  0
   59.0454   25.2178   45.7562 H   0  0  0  0  0  0  0  0  0  0  0  0
   58.6770   26.6137   44.6374 H   0  0  0  0  0  0  0  0  0  0  0  0
   58.1090   27.9757   46.3184 H   0  0  0  0  0  0  0  0  0  0  0  0
   57.1852   26.6737   47.1737 H   0  0  0  0  0  0  0  0  0  0  0  0
   61.4502   28.1727   47.7885 H   0  0  0  0  0  0  0  0  0  0  0  0
   60.9709   27.5517   46.1586 H   0  0  0  0  0  0  0  0  0  0  0  0
   59.7788   29.8514   48.9046 H   0  0  0  0  0  0  0  0  0  0  0  0
   58.5182   31.9478   48.4360 H   0  0  0  0  0  0  0  0  0  0  0  0
   59.2873   35.4781   47.5581 H   0  0  0  0  0  0  0  0  0  0  0  0
   59.5119   33.7391   47.9941 H   0  0  0  0  0  0  0  0  0  0  0  0
   60.1339   33.7050   45.3178 H   0  0  0  0  0  0  0  0  0  0  0  0
   60.7232   35.3442   45.8105 H   0  0  0  0  0  0  0  0  0  0  0  0
   60.8246   32.7334   48.5106 H   0  0  0  0  0  0  0  0  0  0  0  0
   63.3771   31.9720   48.9150 H   0  0  0  0  0  0  0  0  0  0  0  0
   64.7896   33.0498   46.9015 H   0  0  0  0  0  0  0  0  0  0  0  0
   58.6297   31.0682   44.1982 H   0  0  0  0  0  0  0  0  0  0  0  0
   59.8733   28.9617   44.6686 H   0  0  0  0  0  0  0  0  0  0  0  0
  1  2  1  0
  2  3  2  0
  2  4  1  0
  4  5  1  0
  5  6  1  0
  6  7  1  0
  7  8  1  0
  8  9  1  0
  9 10  2  0
 10 11  1  0
 11 12  2  0
 12 13  1  0
 13 14  2  0
 13 15  1  0
 15 16  1  0
 16 17  1  0
 17 18  1  0
 18 19  1  0
 19 20  2  0
 20 21  1  0
 21 22  2  0
 12 23  1  0
 23 24  2  0
 24  9  1  0
 22 18  1  0
  1 25  1  0
  4 26  1  0
  4 27  1  0
  5 28  1  0
  5 29  1  0
  6 30  1  0
  6 31  1  0
  8 32  1  0
  8 33  1  0
 10 34  1  0
 11 35  1  0
 16 36  1  0
 16 37  1  0
 17 38  1  0
 17 39  1  0
 19 40  1  0
 20 41  1  0
 21 42  1  0
 23 43  1  0
 24 44  1  0
M  CHG  2   1  -1  15  -1
M  END
>  <UniqueID>  (3) 
3

>  <SMILES>  (3) 
[NH-]C(=O)CCCSCc1ccc(C(=O)[N-]CCn2cccn2)cc1

>  <Energy>  (3) 
63.5024142024964

>  <Genealogy>  (3) 
[NH-]C(=O)CCCSCc1ccc(C(=O)[N-]CCn2cccn2)cc1 (protonated)
[NH-]C(=O)CCCSCc1ccc(C(=O)[N-]CCn2cccn2)cc1 (3D coordinates assigned)
[NH-]C(=O)CCCSCc1ccc(C(=O)[N-]CCn2cccn2)cc1 (optimized conformer: 63.5024142024964 kcal/mol)

>  <smiles>  (3) 
NC(=O)CCCSCc1ccc(C(=O)NCCn2cccn2)cc1

>  <score_type>  (3) 
oracle

>  <origin>  (3) 
adg

>  <m_score__min__energy>  (3) 
-11.59

>  <m_primary>  (3) 
energy

$$$$
3:0
     RDKit          3D

 64 68  0  0  0  0  0  0  0  0999 V2000
   61.4430   33.2540   47.4120 O   0  0  0  0  0  0  0  0  0  0  0  0
   60.3100   32.7450   47.6290 C   0  0  0  0  0  0  0  0  0  0  0  0
   59.2530   32.9010   46.6210 C   0  0  0  0  0  0  0  0  0  0  0  0
   58.5670   34.1180   46.5070 C   0  0  0  0  0  0  0  0  0  0  0  0
   57.4910   34.2350   45.6230 C   0  0  0  0  0  0  0  0  0  0  0  0
   57.0770   33.1310   44.8740 C   0  0  0  0  0  0  0  0  0  0  0  0
   57.7530   31.9080   44.9870 C   0  0  0  0  0  0  0  0  0  0  0  0
   57.1090   30.4680   44.2110 S   0  0  0  0  0  0  0  0  0  0  0  0
   57.3170   30.5520   42.7230 O   0  0  0  0  0  0  0  0  0  0  0  0
   55.6310   30.3730   44.4820 O   0  0  0  0  0  0  0  0  0  0  0  0
   57.9610   29.1040   44.8950 N   0  0  0  0  0  0  0  0  0  0  0  0
   59.3950   29.1210   44.5500 C   0  0  0  0  0  0  0  0  0  0  0  0
   60.0920   27.8440   45.0720 C   0  0  0  0  0  0  0  0  0  0  0  0
   59.1600   27.0660   45.8980 N   0  0  0  0  0  0  0  0  0  0  0  0
   58.6230   25.8300   45.3910 C   0  0  0  0  0  0  0  0  0  0  0  0
   57.7500   25.8240   44.2870 C   0  0  0  0  0  0  0  0  0  0  0  0
   57.2490   24.6180   43.7910 C   0  0  0  0  0  0  0  0  0  0  0  0
   57.6110   23.4090   44.3910 C   0  0  0  0  0  0  0  0  0  0  0  0
   58.4820   23.4060   45.4850 C   0  0  0  0  0  0  0  0  0  0  0  0
   58.9900   24.6100   45.9820 C   0  0  0  0  0  0  0  0  0  0  0  0
   58.4640   27.8050   46.9550 C   0  0  0  0  0  0  0  0  0  0  0  0
   57.7690   29.0460   46.3590 C   0  0  0  0  0  0  0  0  0  0  0  0
   58.8550   31.8030   45.8470 C   0  0  0  0  0  0  0  0  0  0  0  0
   60.0650   32.0000   48.8380 N   0  0  0  0  0  0  0  0  0  0  0  0
   60.9600   32.1510   49.9940 C   0  0  0  0  0  0  0  0  0  0  0  0
   60.1640   32.0760   51.3050 C   0  0  0  0  0  0  0  0  0  0  0  0
   59.1690   30.9940   51.2820 N   0  0  0  0  0  0  0  0  0  0  0  0
   58.4240   30.7040   52.4780 C   0  0  0  0  0  0  0  0  0  0  0  0
   59.0140   30.6920   53.5930 O   0  0  0  0  0  0  0  0  0  0  0  0
   56.9770   30.4270   52.4320 C   0  0  0  0  0  0  0  0  0  0  0  0
   55.9950   31.2610   51.9090 C   0  0  0  0  0  0  0  0  0  0  0  0
   54.7040   30.7310   52.0220 C   0  0  0  0  0  0  0  0  0  0  0  0
   54.6610   29.4920   52.6460 C   0  0  0  0  0  0  0  0  0  0  0  0
   56.2320   29.0550   53.0570 S   0  0  0  0  0  0  0  0  0  0  0  0
   59.0710   30.1140   50.1130 C   0  0  0  0  0  0  0  0  0  0  0  0
   59.0270   30.9540   48.8370 C   0  0  0  0  0  0  0  0  0  0  0  0
   58.8759   34.9818   47.1140 H   0  0  0  0  0  0  0  0  0  0  0  0
   56.9694   35.1976   45.5169 H   0  0  0  0  0  0  0  0  0  0  0  0
   56.2177   33.2215   44.1932 H   0  0  0  0  0  0  0  0  0  0  0  0
   59.5038   29.1717   43.4566 H   0  0  0  0  0  0  0  0  0  0  0  0
   59.8635   29.9991   45.0185 H   0  0  0  0  0  0  0  0  0  0  0  0
   60.4197   27.2328   44.2182 H   0  0  0  0  0  0  0  0  0  0  0  0
   60.9621   28.1304   45.6810 H   0  0  0  0  0  0  0  0  0  0  0  0
   57.4609   26.7734   43.8125 H   0  0  0  0  0  0  0  0  0  0  0  0
   56.5685   24.6201   42.9268 H   0  0  0  0  0  0  0  0  0  0  0  0
   57.2112   22.4605   44.0031 H   0  0  0  0  0  0  0  0  0  0  0  0
   58.7682   22.4539   45.9557 H   0  0  0  0  0  0  0  0  0  0  0  0
   59.6796   24.6017   46.8390 H   0  0  0  0  0  0  0  0  0  0  0  0
   57.7099   27.1529   47.4198 H   0  0  0  0  0  0  0  0  0  0  0  0
   59.1943   28.1279   47.7116 H   0  0  0  0  0  0  0  0  0  0  0  0
   56.6925   28.9969   46.5796 H   0  0  0  0  0  0  0  0  0  0  0  0
   58.2119   29.9472   46.8081 H   0  0  0  0  0  0  0  0  0  0  0  0
   59.4092   30.8552   45.9144 H   0  0  0  0  0  0  0  0  0  0  0  0
   61.7093   31.3458   49.9791 H   0  0  0  0  0  0  0  0  0  0  0  0
   61.4551   33.1315   49.9344 H   0  0  0  0  0  0  0  0  0  0  0  0
   60.8630   31.8985   52.1356 H   0  0  0  0  0  0  0  0  0  0  0  0
   59.6286   33.0283   51.4333 H   0  0  0  0  0  0  0  0  0  0  0  0
   56.2106   32.2384   51.4526 H   0  0  0  0  0  0  0  0  0  0  0  0
   53.8071   31.2485   51.6507 H   0  0  0  0  0  0  0  0  0  0  0  0
   53.7553   28.8982   52.8385 H   0  0  0  0  0  0  0  0  0  0  0  0
   59.9461   29.4483   50.0823 H   0  0  0  0  0  0  0  0  0  0  0  0
   58.1520   29.5138   50.1854 H   0  0  0  0  0  0  0  0  0  0  0  0
   59.1855   30.2951   47.9706 H   0  0  0  0  0  0  0  0  0  0  0  0
   58.0444   31.4455   48.7833 H   0  0  0  0  0  0  0  0  0  0  0  0
  1  2  2  0
  2  3  1  0
  3  4  2  0
  4  5  1  0
  5  6  2  0
  6  7  1  0
  7  8  1  0
  8  9  2  0
  8 10  2  0
  8 11  1  0
 11 12  1  0
 12 13  1  0
 13 14  1  0
 14 15  1  0
 15 16  2  0
 16 17  1  0
 17 18  2  0
 18 19  1  0
 19 20  2  0
 14 21  1  0
 21 22  1  0
  7 23  2  0
  2 24  1  0
 24 25  1  0
 25 26  1  0
 26 27  1  0
 27 28  1  0
 28 29  2  0
 28 30  1  0
 30 31  2  0
 31 32  1  0
 32 33  2  0
 33 34  1  0
 27 35  1  0
 35 36  1  0
 23  3  1  0
 36 24  1  0
 22 11  1  0
 34 30  1  0
 20 15  1  0
  4 37  1  0
  5 38  1  0
  6 39  1  0
 12 40  1  0
 12 41  1  0
 13 42  1  0
 13 43  1  0
 16 44  1  0
 17 45  1  0
 18 46  1  0
 19 47  1  0
 20 48  1  0
 21 49  1  0
 21 50  1  0
 22 51  1  0
 22 52  1  0
 23 53  1  0
 25 54  1  0
 25 55  1  0
 26 56  1  0
 26 57  1  0
 31 58  1  0
 32 59  1  0
 33 60  1  0
 35 61  1  0
 35 62  1  0
 36 63  1  0
 36 64  1  0
M  END
>  <UniqueID>  (4) 
4

>  <SMILES>  (4) 
O=C(c1cccc(S(=O)(=O)N2CCN(c3ccccc3)CC2)c1)N1CCN(C(=O)c2cccs2)CC1

>  <Energy>  (4) 
113.71733728873068

>  <Genealogy>  (4) 
O=C(c1cccc(S(=O)(=O)N2CCN(c3ccccc3)CC2)c1)N1CCN(C(=O)c2cccs2)CC1 (3D coordinates assigned)
O=C(c1cccc(S(=O)(=O)N2CCN(c3ccccc3)CC2)c1)N1CCN(C(=O)c2cccs2)CC1 (nonaromatic ring conformer: 113.71733728873068 kcal/mol)

>  <smiles>  (4) 
O=C(c1cccc(S(=O)(=O)N2CCN(c3ccccc3)CC2)c1)N1CCN(C(=O)c2cccs2)CC1

>  <score_type>  (4) 
oracle

>  <origin>  (4) 
adg

>  <m_score__min__energy>  (4) 
-9.6699999999999999

>  <m_primary>  (4) 
energy

$$$$
4:0
     RDKit          3D

 54 56  0  0  0  0  0  0  0  0999 V2000
   59.9880   35.3570   45.6890 C   0  0  0  0  0  0  0  0  0  0  0  0
   58.7240   34.9580   45.5470 C   0  0  0  0  0  0  0  0  0  0  0  0
   58.3420   33.5480   45.2690 C   0  0  0  0  0  0  0  0  0  0  0  0
   58.0380   33.1440   43.9560 C   0  0  0  0  0  0  0  0  0  0  0  0
   57.6060   31.8450   43.6910 C   0  0  0  0  0  0  0  0  0  0  0  0
   57.4690   30.9150   44.7280 C   0  0  0  0  0  0  0  0  0  0  0  0
   56.9670   29.2540   44.3710 S   0  0  0  0  0  0  0  0  0  0  0  0
   56.9360   29.1050   42.8740 O   0  0  0  0  0  0  0  0  0  0  0  0
   55.5640   29.0620   44.8760 O   0  0  0  0  0  0  0  0  0  0  0  0
   57.9540   27.9940   45.1040 N   0  0  0  0  0  0  0  0  0  0  0  0
   59.3520   28.0140   44.6460 C   0  0  0  0  0  0  0  0  0  0  0  0
   60.1460   29.1170   45.3460 C   0  0  0  0  0  0  0  0  0  0  0  0
   59.9280   29.0890   46.7970 N   0  0  0  0  0  0  0  0  0  0  0  0
   60.7730   29.9040   47.6380 C   0  0  0  0  0  0  0  0  0  0  0  0
   61.6380   30.8530   47.0700 C   0  0  0  0  0  0  0  0  0  0  0  0
   62.4790   31.6240   47.8780 C   0  0  0  0  0  0  0  0  0  0  0  0
   62.4710   31.4600   49.2730 C   0  0  0  0  0  0  0  0  0  0  0  0
   63.3460   32.2920   50.1270 C   0  0  0  0  0  0  0  0  0  0  0  0
   64.5990   32.2260   50.0170 O   0  0  0  0  0  0  0  0  0  0  0  0
   62.7970   33.1560   51.0680 O   0  0  0  0  0  0  0  0  0  0  0  0
   61.6110   30.5050   49.8420 C   0  0  0  0  0  0  0  0  0  0  0  0
   60.7690   29.7370   49.0330 C   0  0  0  0  0  0  0  0  0  0  0  0
   59.0730   28.0520   47.3900 C   0  0  0  0  0  0  0  0  0  0  0  0
   57.7860   27.8210   46.5670 C   0  0  0  0  0  0  0  0  0  0  0  0
   57.7780   31.3010   46.0380 C   0  0  0  0  0  0  0  0  0  0  0  0
   58.1920   32.6130   46.3240 C   0  0  0  0  0  0  0  0  0  0  0  0
   58.4520   32.9740   47.7300 C   0  0  0  0  0  0  0  0  0  0  0  0
   57.8610   32.3490   48.6520 O   0  0  0  0  0  0  0  0  0  0  0  0
   59.4550   33.9580   48.0210 N   0  0  0  0  0  0  0  0  0  0  0  0
   60.3230   33.9640   48.9920 C   0  0  0  0  0  0  0  0  0  0  0  0
   61.6420   34.5010   48.8370 N   0  0  0  0  0  0  0  0  0  0  0  0
   59.9560   33.3790   50.2420 N   0  0  0  0  0  0  0  0  0  0  0  0
   60.2112   36.4144   45.8940 H   0  0  0  0  0  0  0  0  0  0  0  0
   60.8078   34.6288   45.6012 H   0  0  0  0  0  0  0  0  0  0  0  0
   57.9248   35.7081   45.6400 H   0  0  0  0  0  0  0  0  0  0  0  0
   58.1424   33.8614   43.1287 H   0  0  0  0  0  0  0  0  0  0  0  0
   57.3709   31.5486   42.6581 H   0  0  0  0  0  0  0  0  0  0  0  0
   59.8163   27.0417   44.8674 H   0  0  0  0  0  0  0  0  0  0  0  0
   59.3618   28.2103   43.5637 H   0  0  0  0  0  0  0  0  0  0  0  0
   61.2172   28.9730   45.1413 H   0  0  0  0  0  0  0  0  0  0  0  0
   59.8047   30.0894   44.9613 H   0  0  0  0  0  0  0  0  0  0  0  0
   61.6541   30.9912   45.9788 H   0  0  0  0  0  0  0  0  0  0  0  0
   63.1511   32.3636   47.4184 H   0  0  0  0  0  0  0  0  0  0  0  0
   61.6006   30.3609   50.9325 H   0  0  0  0  0  0  0  0  0  0  0  0
   60.0980   28.9960   49.4920 H   0  0  0  0  0  0  0  0  0  0  0  0
   59.6385   27.1096   47.4366 H   0  0  0  0  0  0  0  0  0  0  0  0
   58.7775   28.3894   48.3944 H   0  0  0  0  0  0  0  0  0  0  0  0
   57.4378   26.7945   46.7541 H   0  0  0  0  0  0  0  0  0  0  0  0
   57.0646   28.5851   46.8922 H   0  0  0  0  0  0  0  0  0  0  0  0
   57.6956   30.5677   46.8538 H   0  0  0  0  0  0  0  0  0  0  0  0
   62.2570   34.6070   49.6740 H   0  0  0  0  0  0  0  0  0  0  0  0
   62.0910   34.6100   47.9030 H   0  0  0  0  0  0  0  0  0  0  0  0
   59.0120   32.9530   50.3710 H   0  0  0  0  0  0  0  0  0  0  0  0
   60.6320   33.3600   51.0380 H   0  0  0  0  0  0  0  0  0  0  0  0
  1  2  2  0
  2  3  1  0
  3  4  2  0
  4  5  1  0
  5  6  2  0
  6  7  1  0
  7  8  2  0
  7  9  2  0
  7 10  1  0
 10 11  1  0
 11 12  1  0
 12 13  1  0
 13 14  1  0
 14 15  2  0
 15 16  1  0
 16 17  2  0
 17 18  1  0
 18 19  2  0
 18 20  1  0
 17 21  1  0
 21 22  2  0
 13 23  1  0
 23 24  1  0
  6 25  1  0
 25 26  2  0
 26 27  1  0
 27 28  2  0
 27 29  1  0
 29 30  2  3
 30 31  1  0
 30 32  1  0
 26  3  1  0
 24 10  1  0
 22 14  1  0
  1 33  1  0
  1 34  1  0
  2 35  1  0
  4 36  1  0
  5 37  1  0
 11 38  1  0
 11 39  1  0
 12 40  1  0
 12 41  1  0
 15 42  1  0
 16 43  1  0
 21 44  1  0
 22 45  1  0
 23 46  1  0
 23 47  1  0
 24 48  1  0
 24 49  1  0
 25 50  1  0
 31 51  1  0
 31 52  1  0
 32 53  1  0
 32 54  1  0
M  CHG  1  20  -1
M  END
>  <UniqueID>  (5) 
5

>  <SMILES>  (5) 
C=Cc1ccc(S(=O)(=O)N2CCN(c3ccc(C(=O)[O-])cc3)CC2)cc1C(=O)N=C(N)N

>  <Energy>  (5) 
77.99010915647061

>  <Genealogy>  (5) 
C=Cc1ccc(S(=O)(=O)N2CCN(c3ccc(C(=O)[O-])cc3)CC2)cc1C(=O)N=C(N)N (protonated)
C=Cc1ccc(S(=O)(=O)N2CCN(c3ccc(C(=O)[O-])cc3)CC2)cc1C(=O)N=C(N)N (3D coordinates assigned)
C=Cc1ccc(S(=O)(=O)N2CCN(c3ccc(C(=O)[O-])cc3)CC2)cc1C(=O)N=C(N)N (nonaromatic ring conformer: 77.99010915647061 kcal/mol)

>  <smiles>  (5) 
C=Cc1ccc(S(=O)(=O)N2CCN(c3ccc(C(=O)O)cc3)CC2)cc1C(=O)N=C(N)N

>  <score_type>  (5) 
oracle

>  <origin>  (5) 
adg

>  <m_score__min__energy>  (5) 
-11.279999999999999

>  <m_primary>  (5) 
energy

$$$$
5:0
     RDKit          3D

 38 42  0  0  0  0  0  0  0  0999 V2000
   54.8320   29.3150   44.2710 O   0  0  0  0  0  0  0  0  0  0  0  0
   56.0320   29.5380   44.5870 C   0  0  0  0  0  0  0  0  0  0  0  0
   56.6240   28.7370   45.6240 N   0  0  0  0  0  0  0  0  0  0  0  0
   56.6230   27.4370   45.6860 C   0  0  0  0  0  0  0  0  0  0  0  0
   57.7260   26.6740   45.4530 N   0  0  0  0  0  0  0  0  0  0  0  0
   57.2560   25.4320   45.6320 C   0  0  0  0  0  0  0  0  0  0  0  0
   57.9580   24.2340   45.5350 C   0  0  0  0  0  0  0  0  0  0  0  0
   57.2490   23.0410   45.7740 C   0  0  0  0  0  0  0  0  0  0  0  0
   55.8740   23.0810   46.1000 C   0  0  0  0  0  0  0  0  0  0  0  0
   55.1970   24.3110   46.1900 C   0  0  0  0  0  0  0  0  0  0  0  0
   55.9310   25.4710   45.9480 C   0  0  0  0  0  0  0  0  0  0  0  0
   55.4980   26.7390   45.9840 N   0  0  0  0  0  0  0  0  0  0  0  0
   56.7600   30.6400   43.9100 C   0  0  0  0  0  0  0  0  0  0  0  0
   56.6940   30.7450   42.5120 C   0  0  0  0  0  0  0  0  0  0  0  0
   57.3770   31.7620   41.8410 C   0  0  0  0  0  0  0  0  0  0  0  0
   58.1290   32.6940   42.5550 C   0  0  0  0  0  0  0  0  0  0  0  0
   58.1950   32.6250   43.9580 C   0  0  0  0  0  0  0  0  0  0  0  0
   58.9370   33.5530   44.7110 C   0  0  0  0  0  0  0  0  0  0  0  0
   59.5770   34.4770   44.1380 O   0  0  0  0  0  0  0  0  0  0  0  0
   58.9590   33.4390   46.1120 C   0  0  0  0  0  0  0  0  0  0  0  0
   59.6870   34.3270   46.9250 C   0  0  0  0  0  0  0  0  0  0  0  0
   59.6800   34.1730   48.3150 C   0  0  0  0  0  0  0  0  0  0  0  0
   58.9490   33.1370   48.9040 C   0  0  0  0  0  0  0  0  0  0  0  0
   58.2210   32.2500   48.1060 C   0  0  0  0  0  0  0  0  0  0  0  0
   58.2220   32.3940   46.7140 C   0  0  0  0  0  0  0  0  0  0  0  0
   57.5300   31.5420   45.9680 O   0  0  0  0  0  0  0  0  0  0  0  0
   57.4950   31.6000   44.6390 C   0  0  0  0  0  0  0  0  0  0  0  0
   59.0281   24.2197   45.2808 H   0  0  0  0  0  0  0  0  0  0  0  0
   57.7676   22.0733   45.7067 H   0  0  0  0  0  0  0  0  0  0  0  0
   55.3293   22.1433   46.2847 H   0  0  0  0  0  0  0  0  0  0  0  0
   54.1272   24.3557   46.4422 H   0  0  0  0  0  0  0  0  0  0  0  0
   56.0984   30.0191   41.9390 H   0  0  0  0  0  0  0  0  0  0  0  0
   57.3213   31.8279   40.7444 H   0  0  0  0  0  0  0  0  0  0  0  0
   58.6725   33.4860   42.0190 H   0  0  0  0  0  0  0  0  0  0  0  0
   60.2630   35.1442   46.4663 H   0  0  0  0  0  0  0  0  0  0  0  0
   60.2513   34.8691   48.9467 H   0  0  0  0  0  0  0  0  0  0  0  0
   58.9468   33.0197   49.9977 H   0  0  0  0  0  0  0  0  0  0  0  0
   57.6460   31.4369   48.5732 H   0  0  0  0  0  0  0  0  0  0  0  0
  1  2  2  0
  2  3  1  0
  3  4  2  3
  4  5  1  0
  5  6  1  0
  6  7  2  0
  7  8  1  0
  8  9  2  0
  9 10  1  0
 10 11  2  0
 11 12  1  0
  2 13  1  0
 13 14  2  0
 14 15  1  0
 15 16  2  0
 16 17  1  0
 17 18  1  0
 18 19  2  0
 18 20  1  0
 20 21  2  0
 21 22  1  0
 22 23  2  0
 23 24  1  0
 24 25  2  0
 25 26  1  0
 26 27  1  0
 12  4  1  0
 27 13  1  0
 11  6  1  0
 27 17  2  0
 25 20  1  0
  7 28  1  0
  8 29  1  0
  9 30  1  0
 10 31  1  0
 14 32  1  0
 15 33  1  0
 16 34  1  0
 21 35  1  0
 22 36  1  0
 23 37  1  0
 24 38  1  0
M  CHG  2   5  -1  12  -1
M  END
>  <UniqueID>  (6) 
6

>  <SMILES>  (6) 
O=C(N=c1[n-]c2ccccc2[n-]1)c1cccc2c(=O)c3ccccc3oc12

>  <Energy>  (6) 
96.11126981893385

>  <Genealogy>  (6) 
O=C(N=c1[n-]c2ccccc2[n-]1)c1cccc2c(=O)c3ccccc3oc12 (protonated)
O=C(N=c1[n-]c2ccccc2[n-]1)c1cccc2c(=O)c3ccccc3oc12 (3D coordinates assigned)
O=C(N=c1[n-]c2ccccc2[n-]1)c1cccc2c(=O)c3ccccc3oc12 (optimized conformer: 96.11126981893385 kcal/mol)

>  <smiles>  (6) 
O=C(N=c1[nH]c2ccccc2[nH]1)c1cccc2c(=O)c3ccccc3oc12

>  <score_type>  (6) 
oracle

>  <origin>  (6) 
adg

>  <m_score__min__energy>  (6) 
-13.050000000000001

>  <m_primary>  (6) 
energy

$$$$
6:0
     RDKit          3D

 31 32  0  0  0  0  0  0  0  0999 V2000
   52.6049   24.8749   45.4266 H   0  0  0  0  0  0  0  0  0  0  0  0
   53.6890   24.8250   45.6060 C   0  0  0  0  0  0  0  0  0  0  0  0
   54.4040   25.9650   45.7960 N   0  0  0  0  0  0  0  0  0  0  0  0
   55.7460   25.9420   46.0080 C   0  0  0  0  0  0  0  0  0  0  0  0
   56.3610   27.0680   46.2340 N   0  0  0  0  0  0  0  0  0  0  0  0
   57.6200   27.4870   45.6880 C   0  0  0  0  0  0  0  0  0  0  0  0
   58.6940   27.2390   46.2980 O   0  0  0  0  0  0  0  0  0  0  0  0
   57.6690   28.1580   44.4280 N   0  0  0  0  0  0  0  0  0  0  0  0
   56.6270   29.4890   44.0430 S   0  0  0  0  0  0  0  0  0  0  0  0
   55.3980   29.4110   44.9050 O   0  0  0  0  0  0  0  0  0  0  0  0
   56.2260   29.4060   42.5980 O   0  0  0  0  0  0  0  0  0  0  0  0
   57.4790   31.0090   44.3130 C   0  0  0  0  0  0  0  0  0  0  0  0
   57.8050   31.8450   43.2360 C   0  0  0  0  0  0  0  0  0  0  0  0
   57.5906   31.5230   42.2063 H   0  0  0  0  0  0  0  0  0  0  0  0
   58.4030   33.0890   43.4690 C   0  0  0  0  0  0  0  0  0  0  0  0
   58.6599   33.7422   42.6221 H   0  0  0  0  0  0  0  0  0  0  0  0
   58.6740   33.5020   44.7760 C   0  0  0  0  0  0  0  0  0  0  0  0
   59.1342   34.4844   44.9582 H   0  0  0  0  0  0  0  0  0  0  0  0
   58.3600   32.6660   45.8530 C   0  0  0  0  0  0  0  0  0  0  0  0
   58.6810   33.1950   47.4950 Cl  0  0  0  0  0  0  0  0  0  0  0  0
   57.7720   31.4180   45.6220 C   0  0  0  0  0  0  0  0  0  0  0  0
   57.5389   30.7559   46.4690 H   0  0  0  0  0  0  0  0  0  0  0  0
   56.4010   24.6940   46.0430 C   0  0  0  0  0  0  0  0  0  0  0  0
   57.4858   24.6421   46.2179 H   0  0  0  0  0  0  0  0  0  0  0  0
   55.6820   23.5560   45.8590 N   0  0  0  0  0  0  0  0  0  0  0  0
   54.3390   23.5910   45.6400 C   0  0  0  0  0  0  0  0  0  0  0  0
   53.6070   22.4170   45.4510 O   0  0  0  0  0  0  0  0  0  0  0  0
   52.9350   21.7490   46.5140 C   0  0  0  0  0  0  0  0  0  0  0  0
   53.3110   22.1228   47.4778 H   0  0  0  0  0  0  0  0  0  0  0  0
   51.8543   21.9411   46.4427 H   0  0  0  0  0  0  0  0  0  0  0  0
   53.1206   20.6671   46.4427 H   0  0  0  0  0  0  0  0  0  0  0  0
  1  2  1  0
  2  3  1  0
  3  4  1  0
  4  5  2  0
  5  6  1  0
  6  7  2  0
  6  8  1  0
  8  9  1  0
  9 10  2  0
  9 11  2  0
  9 12  1  0
 12 13  2  0
 13 14  1  0
 13 15  1  0
 15 16  1  0
 15 17  2  0
 17 18  1  0
 17 19  1  0
 19 20  1  0
 19 21  2  0
 21 22  1  0
  4 23  1  0
 23 24  1  0
 23 25  2  0
 25 26  1  0
 26 27  1  0
 27 28  1  0
 28 29  1  0
 28 30  1  0
 28 31  1  0
 26  2  2  0
 21 12  1  0
M  CHG  2   3  -1   8  -1
M  END
>  <UniqueID>  (7) 
7

>  <SMILES>  (7) 
COc1c[n-]/c(=N/C(=O)[N-]S(=O)(=O)c2cccc(Cl)c2)cn1

>  <Energy>  (7) 
38.631813520416195

>  <Genealogy>  (7) 
COc1c[n-]c(=NC(=O)[N-]S(=O)(=O)c2cccc(Cl)c2)cn1 (protonated)
COc1c[n-]/c(=N/C(=O)[N-]S(=O)(=O)c2cccc(Cl)c2)cn1 (cis-trans isomerization)
COc1c[n-]/c(=N/C(=O)[N-]S(=O)(=O)c2cccc(Cl)c2)cn1 (3D coordinates assigned)
COc1c[n-]/c(=N/C(=O)[N-]S(=O)(=O)c2cccc(Cl)c2)cn1 (optimized conformer: 38.631813520416195 kcal/mol)

>  <smiles>  (7) 
COc1c[nH]c(=NC(=O)NS(=O)(=O)c2cccc(Cl)c2)cn1

>  <score_type>  (7) 
oracle

>  <origin>  (7) 
adg

>  <m_score__min__energy>  (7) 
-10.16

>  <m_primary>  (7) 
energy

$$$$
7:0
     RDKit          3D

 51 53  0  0  0  0  0  0  0  0999 V2000
   65.7660   32.8730   49.7760 C   0  0  0  0  0  0  0  0  0  0  0  0
   64.3040   33.0000   50.1080 C   0  0  0  0  0  0  0  0  0  0  0  0
   63.3410   32.7240   49.1280 C   0  0  0  0  0  0  0  0  0  0  0  0
   61.9710   32.8150   49.4130 C   0  0  0  0  0  0  0  0  0  0  0  0
   61.0420   32.4500   48.3800 N   0  0  0  0  0  0  0  0  0  0  0  0
   60.9650   33.1790   47.1440 C   0  0  0  0  0  0  0  0  0  0  0  0
   61.9180   33.9300   46.7980 O   0  0  0  0  0  0  0  0  0  0  0  0
   59.7330   33.1510   46.3190 C   0  0  0  0  0  0  0  0  0  0  0  0
   59.3430   34.3360   45.6740 C   0  0  0  0  0  0  0  0  0  0  0  0
   58.1700   34.3830   44.9240 C   0  0  0  0  0  0  0  0  0  0  0  0
   57.3730   33.2480   44.7950 C   0  0  0  0  0  0  0  0  0  0  0  0
   57.7490   32.0410   45.4090 C   0  0  0  0  0  0  0  0  0  0  0  0
   56.9750   30.8420   45.2450 N   0  0  0  0  0  0  0  0  0  0  0  0
   56.5860   30.0700   43.7420 S   0  0  0  0  0  0  0  0  0  0  0  0
   57.0110   31.1300   42.3780 C   0  0  0  0  0  0  0  0  0  0  0  0
   57.3790   28.8000   43.6350 O   0  0  0  0  0  0  0  0  0  0  0  0
   55.1220   29.7290   43.7030 O   0  0  0  0  0  0  0  0  0  0  0  0
   58.9320   31.9900   46.1780 C   0  0  0  0  0  0  0  0  0  0  0  0
   59.3560   30.7360   46.7400 N   0  0  0  0  0  0  0  0  0  0  0  0
   58.8790   30.3710   48.0750 C   0  0  0  0  0  0  0  0  0  0  0  0
   59.3510   28.9620   48.4390 C   0  0  0  0  0  0  0  0  0  0  0  0
   59.3150   28.1420   47.2900 O   0  0  0  0  0  0  0  0  0  0  0  0
   60.3660   28.4900   46.4050 C   0  0  0  0  0  0  0  0  0  0  0  0
   60.4860   30.0110   46.1490 C   0  0  0  0  0  0  0  0  0  0  0  0
   61.5510   33.2320   50.7000 C   0  0  0  0  0  0  0  0  0  0  0  0
   60.1250   33.4650   51.0300 C   0  0  0  0  0  0  0  0  0  0  0  0
   59.8100   34.1630   52.0310 O   0  0  0  0  0  0  0  0  0  0  0  0
   59.1170   32.9570   50.2240 O   0  0  0  0  0  0  0  0  0  0  0  0
   62.5230   33.4840   51.6840 C   0  0  0  0  0  0  0  0  0  0  0  0
   63.8860   33.3680   51.3980 C   0  0  0  0  0  0  0  0  0  0  0  0
   65.1440   33.7400   52.7980 Br  0  0  0  0  0  0  0  0  0  0  0  0
   66.3503   32.8222   50.7066 H   0  0  0  0  0  0  0  0  0  0  0  0
   65.9306   31.9572   49.1893 H   0  0  0  0  0  0  0  0  0  0  0  0
   66.0860   33.7467   49.1893 H   0  0  0  0  0  0  0  0  0  0  0  0
   63.6652   32.4311   48.1185 H   0  0  0  0  0  0  0  0  0  0  0  0
   60.1840   31.9470   48.6930 H   0  0  0  0  0  0  0  0  0  0  0  0
   59.9698   35.2357   45.7619 H   0  0  0  0  0  0  0  0  0  0  0  0
   57.8719   35.3204   44.4316 H   0  0  0  0  0  0  0  0  0  0  0  0
   56.4434   33.2966   44.2089 H   0  0  0  0  0  0  0  0  0  0  0  0
   57.3945   32.0865   42.7626 H   0  0  0  0  0  0  0  0  0  0  0  0
   57.7843   30.6452   41.7640 H   0  0  0  0  0  0  0  0  0  0  0  0
   56.1170   31.3137   41.7640 H   0  0  0  0  0  0  0  0  0  0  0  0
   59.2740   31.0875   48.8102 H   0  0  0  0  0  0  0  0  0  0  0  0
   57.7792   30.3934   48.0812 H   0  0  0  0  0  0  0  0  0  0  0  0
   60.3803   29.0082   48.8244 H   0  0  0  0  0  0  0  0  0  0  0  0
   58.6892   28.5415   49.2104 H   0  0  0  0  0  0  0  0  0  0  0  0
   61.3140   28.1344   46.8349 H   0  0  0  0  0  0  0  0  0  0  0  0
   60.1407   28.0181   45.4373 H   0  0  0  0  0  0  0  0  0  0  0  0
   61.4217   30.3780   46.5959 H   0  0  0  0  0  0  0  0  0  0  0  0
   60.4829   30.1841   45.0627 H   0  0  0  0  0  0  0  0  0  0  0  0
   62.2055   33.7773   52.6955 H   0  0  0  0  0  0  0  0  0  0  0  0
  1  2  1  0
  2  3  2  0
  3  4  1  0
  4  5  1  0
  5  6  1  0
  6  7  2  0
  6  8  1  0
  8  9  2  0
  9 10  1  0
 10 11  2  0
 11 12  1  0
 12 13  1  0
 13 14  1  0
 14 15  1  0
 14 16  2  0
 14 17  2  0
 12 18  2  0
 18 19  1  0
 19 20  1  0
 20 21  1  0
 21 22  1  0
 22 23  1  0
 23 24  1  0
  4 25  2  0
 25 26  1  0
 26 27  2  0
 26 28  1  0
 25 29  1  0
 29 30  2  0
 30 31  1  0
 30  2  1  0
 18  8  1  0
 24 19  1  0
  1 32  1  0
  1 33  1  0
  1 34  1  0
  3 35  1  0
  5 36  1  0
  9 37  1  0
 10 38  1  0
 11 39  1  0
 15 40  1  0
 15 41  1  0
 15 42  1  0
 20 43  1  0
 20 44  1  0
 21 45  1  0
 21 46  1  0
 23 47  1  0
 23 48  1  0
 24 49  1  0
 24 50  1  0
 29 51  1  0
M  CHG  2  13  -1  28  -1
M  END
>  <UniqueID>  (8) 
8

>  <SMILES>  (8) 
Cc1cc(NC(=O)c2cccc([N-]S(C)(=O)=O)c2N2CCOCC2)c(C(=O)[O-])cc1Br

>  <Energy>  (8) 
77.07630517662678

>  <Genealogy>  (8) 
Cc1cc(NC(=O)c2cccc([N-]S(C)(=O)=O)c2N2CCOCC2)c(C(=O)[O-])cc1Br (protonated)
Cc1cc(NC(=O)c2cccc([N-]S(C)(=O)=O)c2N2CCOCC2)c(C(=O)[O-])cc1Br (3D coordinates assigned)
Cc1cc(NC(=O)c2cccc([N-]S(C)(=O)=O)c2N2CCOCC2)c(C(=O)[O-])cc1Br (nonaromatic ring conformer: 77.07630517662678 kcal/mol)

>  <smiles>  (8) 
Cc1cc(NC(=O)c2cccc(NS(C)(=O)=O)c2N2CCOCC2)c(C(=O)O)cc1Br

>  <score_type>  (8) 
oracle

>  <origin>  (8) 
adg

>  <m_score__min__energy>  (8) 
-12.49

>  <m_primary>  (8) 
energy

$$$$
8:0
     RDKit          3D

 71 75  0  0  0  0  0  0  0  0999 V2000
   62.7810   33.8690   46.8000 C   0  0  0  0  0  0  0  0  0  0  0  0
   62.6720   33.2180   48.1150 N   0  0  0  0  0  0  0  0  0  0  0  0
   63.0310   31.7830   48.0170 C   0  0  0  0  0  0  0  0  0  0  0  0
   63.5170   31.2340   49.3620 C   0  0  0  0  0  0  0  0  0  0  0  0
   64.7590   31.9120   49.7880 N   0  0  0  0  0  0  0  0  0  0  0  0
   65.0170   31.6970   51.5050 S   0  0  0  0  0  0  0  0  0  0  0  0
   66.4480   31.3020   51.7440 O   0  0  0  0  0  0  0  0  0  0  0  0
   64.7710   32.9990   52.2150 O   0  0  0  0  0  0  0  0  0  0  0  0
   63.9490   30.4600   52.1760 C   0  0  0  0  0  0  0  0  0  0  0  0
   64.4490   29.1870   52.4880 C   0  0  0  0  0  0  0  0  0  0  0  0
   63.5990   28.2050   53.0020 C   0  0  0  0  0  0  0  0  0  0  0  0
   62.2440   28.4840   53.2030 C   0  0  0  0  0  0  0  0  0  0  0  0
   61.7310   29.7520   52.8920 C   0  0  0  0  0  0  0  0  0  0  0  0
   60.2660   30.0410   53.0850 C   0  0  0  0  0  0  0  0  0  0  0  0
   59.7670   30.9100   52.0100 N   0  0  0  0  0  0  0  0  0  0  0  0
   60.0560   30.5990   50.6090 C   0  0  0  0  0  0  0  0  0  0  0  0
   60.5030   31.8630   49.8930 C   0  0  0  0  0  0  0  0  0  0  0  0
   59.4460   32.8810   49.9830 N   0  0  0  0  0  0  0  0  0  0  0  0
   59.2660   33.8100   48.9000 C   0  0  0  0  0  0  0  0  0  0  0  0
   59.6630   35.0000   49.0260 O   0  0  0  0  0  0  0  0  0  0  0  0
   58.6070   33.4030   47.6470 C   0  0  0  0  0  0  0  0  0  0  0  0
   58.0570   34.2200   46.6800 C   0  0  0  0  0  0  0  0  0  0  0  0
   57.5920   33.4560   45.6720 N   0  0  0  0  0  0  0  0  0  0  0  0
   57.8300   32.1880   45.9750 N   0  0  0  0  0  0  0  0  0  0  0  0
   57.4630   31.0820   45.1290 C   0  0  0  0  0  0  0  0  0  0  0  0
   57.1180   31.3100   43.7850 C   0  0  0  0  0  0  0  0  0  0  0  0
   56.7560   30.2440   42.9560 C   0  0  0  0  0  0  0  0  0  0  0  0
   56.7210   28.9420   43.4620 C   0  0  0  0  0  0  0  0  0  0  0  0
   57.0450   28.6990   44.8030 C   0  0  0  0  0  0  0  0  0  0  0  0
   56.9910   27.0610   45.4500 S   0  0  0  0  0  0  0  0  0  0  0  0
   55.3900   26.7050   45.9950 N   0  0  0  0  0  0  0  0  0  0  0  0
   57.3880   26.0820   44.3800 O   0  0  0  0  0  0  0  0  0  0  0  0
   57.9480   26.9300   46.6010 O   0  0  0  0  0  0  0  0  0  0  0  0
   57.4220   29.7660   45.6300 C   0  0  0  0  0  0  0  0  0  0  0  0
   58.4570   32.1180   47.1680 C   0  0  0  0  0  0  0  0  0  0  0  0
   58.7450   33.1410   51.2520 C   0  0  0  0  0  0  0  0  0  0  0  0
   59.0570   32.1240   52.3210 C   0  0  0  0  0  0  0  0  0  0  0  0
   58.6820   32.3560   53.5030 O   0  0  0  0  0  0  0  0  0  0  0  0
   62.5940   30.7420   52.3920 C   0  0  0  0  0  0  0  0  0  0  0  0
   64.8300   33.3400   49.3920 C   0  0  0  0  0  0  0  0  0  0  0  0
   63.4410   33.9550   49.1490 C   0  0  0  0  0  0  0  0  0  0  0  0
   62.9612   34.9454   46.9375 H   0  0  0  0  0  0  0  0  0  0  0  0
   63.6174   33.4258   46.2397 H   0  0  0  0  0  0  0  0  0  0  0  0
   61.8458   33.7225   46.2397 H   0  0  0  0  0  0  0  0  0  0  0  0
   62.1457   31.2139   47.6972 H   0  0  0  0  0  0  0  0  0  0  0  0
   63.8469   31.6799   47.2864 H   0  0  0  0  0  0  0  0  0  0  0  0
   62.7380   31.3981   50.1211 H   0  0  0  0  0  0  0  0  0  0  0  0
   63.7227   30.1592   49.2504 H   0  0  0  0  0  0  0  0  0  0  0  0
   65.5136   28.9615   52.3274 H   0  0  0  0  0  0  0  0  0  0  0  0
   63.9968   27.2097   53.2492 H   0  0  0  0  0  0  0  0  0  0  0  0
   61.5781   27.7069   53.6062 H   0  0  0  0  0  0  0  0  0  0  0  0
   59.7058   29.0944   53.0747 H   0  0  0  0  0  0  0  0  0  0  0  0
   60.1282   30.5526   54.0490 H   0  0  0  0  0  0  0  0  0  0  0  0
   60.8560   29.8458   50.5578 H   0  0  0  0  0  0  0  0  0  0  0  0
   59.1501   30.2040   50.1259 H   0  0  0  0  0  0  0  0  0  0  0  0
   61.4206   32.2454   50.3639 H   0  0  0  0  0  0  0  0  0  0  0  0
   60.6999   31.6335   48.8354 H   0  0  0  0  0  0  0  0  0  0  0  0
   58.0064   35.3179   46.7249 H   0  0  0  0  0  0  0  0  0  0  0  0
   57.1330   32.3339   43.3832 H   0  0  0  0  0  0  0  0  0  0  0  0
   56.4982   30.4307   41.9031 H   0  0  0  0  0  0  0  0  0  0  0  0
   56.4383   28.1057   42.8057 H   0  0  0  0  0  0  0  0  0  0  0  0
   54.7720   26.7170   45.1520 H   0  0  0  0  0  0  0  0  0  0  0  0
   57.6883   29.5740   46.6799 H   0  0  0  0  0  0  0  0  0  0  0  0
   58.7900   31.1978   47.6703 H   0  0  0  0  0  0  0  0  0  0  0  0
   59.0411   34.1352   51.6179 H   0  0  0  0  0  0  0  0  0  0  0  0
   57.6657   33.0810   51.0481 H   0  0  0  0  0  0  0  0  0  0  0  0
   62.2027   31.7455   52.1687 H   0  0  0  0  0  0  0  0  0  0  0  0
   65.3298   33.9037   50.1935 H   0  0  0  0  0  0  0  0  0  0  0  0
   65.3901   33.3968   48.4469 H   0  0  0  0  0  0  0  0  0  0  0  0
   62.8752   33.9348   50.0921 H   0  0  0  0  0  0  0  0  0  0  0  0
   63.5868   34.9845   48.7901 H   0  0  0  0  0  0  0  0  0  0  0  0
  1  2  1  0
  2  3  1  0
  3  4  1  0
  4  5  1  0
  5  6  1  0
  6  7  2  0
  6  8  2  0
  6  9  1  0
  9 10  2  0
 10 11  1  0
 11 12  2  0
 12 13  1  0
 13 14  1  0
 14 15  1  0
 15 16  1  0
 16 17  1  0
 17 18  1  0
 18 19  1  0
 19 20  2  0
 19 21  1  0
 21 22  1  0
 22 23  2  0
 23 24  1  0
 24 25  1  0
 25 26  2  0
 26 27  1  0
 27 28  2  0
 28 29  1  0
 29 30  1  0
 30 31  1  0
 30 32  2  0
 30 33  2  0
 29 34  2  0
 24 35  1  0
 18 36  1  0
 36 37  1  0
 37 38  2  0
 13 39  2  0
  5 40  1  0
 40 41  1  0
 41  2  1  0
 39  9  1  0
 37 15  1  0
 35 21  2  0
 34 25  1  0
  1 42  1  0
  1 43  1  0
  1 44  1  0
  3 45  1  0
  3 46  1  0
  4 47  1  0
  4 48  1  0
 10 49  1  0
 11 50  1  0
 12 51  1  0
 14 52  1  0
 14 53  1  0
 16 54  1  0
 16 55  1  0
 17 56  1  0
 17 57  1  0
 22 58  1  0
 26 59  1  0
 27 60  1  0
 28 61  1  0
 31 62  1  0
 34 63  1  0
 35 64  1  0
 36 65  1  0
 36 66  1  0
 39 67  1  0
 40 68  1  0
 40 69  1  0
 41 70  1  0
 41 71  1  0
M  CHG  1  31  -1
M  END
>  <UniqueID>  (9) 
9

>  <SMILES>  (9) 
CN1CCN(S(=O)(=O)c2cccc(CN3CCN(C(=O)c4cnn(-c5cccc(S([NH-])(=O)=O)c5)c4)CC3=O)c2)CC1

>  <Energy>  (9) 
119.41570443429211

>  <Genealogy>  (9) 
CN1CCN(S(=O)(=O)c2cccc(CN3CCN(C(=O)c4cnn(-c5cccc(S([NH-])(=O)=O)c5)c4)CC3=O)c2)CC1 (protonated)
CN1CCN(S(=O)(=O)c2cccc(CN3CCN(C(=O)c4cnn(-c5cccc(S([NH-])(=O)=O)c5)c4)CC3=O)c2)CC1 (3D coordinates assigned)
CN1CCN(S(=O)(=O)c2cccc(CN3CCN(C(=O)c4cnn(-c5cccc(S([NH-])(=O)=O)c5)c4)CC3=O)c2)CC1 (nonaromatic ring conformer: 119.41570443429211 kcal/mol)

>  <smiles>  (9) 
CN1CCN(S(=O)(=O)c2cccc(CN3CCN(C(=O)c4cnn(-c5cccc(S(N)(=O)=O)c5)c4)CC3=O)c2)CC1

>  <score_type>  (9) 
oracle

>  <origin>  (9) 
adg

>  <m_score__min__energy>  (9) 
-13.279999999999999

>  <m_primary>  (9) 
energy

$$$$
9:0
     RDKit          3D

 59 62  0  0  0  0  0  0  0  0999 V2000
   66.5880   30.5870   51.2300 C   0  0  0  0  0  0  0  0  0  0  0  0
   65.3560   31.3450   51.5110 N   0  0  0  0  0  0  0  0  0  0  0  0
   64.1690   30.4950   51.3380 C   0  0  0  0  0  0  0  0  0  0  0  0
   65.2710   32.5070   50.6440 C   0  0  0  0  0  0  0  0  0  0  0  0
   66.1550   32.7230   49.8240 O   0  0  0  0  0  0  0  0  0  0  0  0
   64.1230   33.4890   50.7940 C   0  0  0  0  0  0  0  0  0  0  0  0
   63.0510   33.3300   49.7850 N   0  0  0  0  0  0  0  0  0  0  0  0
   61.7240   33.0450   50.3700 C   0  0  0  0  0  0  0  0  0  0  0  0
   60.6430   33.1740   49.2890 C   0  0  0  0  0  0  0  0  0  0  0  0
   61.0560   32.5060   48.0490 N   0  0  0  0  0  0  0  0  0  0  0  0
   60.2140   32.5920   46.8870 C   0  0  0  0  0  0  0  0  0  0  0  0
   60.0040   33.8180   46.2390 C   0  0  0  0  0  0  0  0  0  0  0  0
   59.1570   33.8780   45.1290 C   0  0  0  0  0  0  0  0  0  0  0  0
   58.9730   34.9850   44.5550 O   0  0  0  0  0  0  0  0  0  0  0  0
   58.5210   32.7090   44.6690 C   0  0  0  0  0  0  0  0  0  0  0  0
   57.6800   32.7210   43.5420 C   0  0  0  0  0  0  0  0  0  0  0  0
   57.0820   31.5400   43.1000 C   0  0  0  0  0  0  0  0  0  0  0  0
   57.3080   30.3390   43.7740 C   0  0  0  0  0  0  0  0  0  0  0  0
   58.1350   30.2990   44.9110 C   0  0  0  0  0  0  0  0  0  0  0  0
   58.3790   29.0010   45.5900 C   0  0  0  0  0  0  0  0  0  0  0  0
   59.6160   28.7320   46.2010 C   0  0  0  0  0  0  0  0  0  0  0  0
   59.8470   27.4960   46.8080 C   0  0  0  0  0  0  0  0  0  0  0  0
   58.8470   26.5210   46.8160 C   0  0  0  0  0  0  0  0  0  0  0  0
   57.6050   26.7790   46.2210 C   0  0  0  0  0  0  0  0  0  0  0  0
   56.3310   25.5620   46.2420 S   0  0  0  0  0  0  0  0  0  0  0  0
   54.7990   26.3250   45.9970 N   0  0  0  0  0  0  0  0  0  0  0  0
   56.5730   24.5570   45.1510 O   0  0  0  0  0  0  0  0  0  0  0  0
   56.3240   24.8460   47.5650 O   0  0  0  0  0  0  0  0  0  0  0  0
   57.3720   28.0210   45.6170 C   0  0  0  0  0  0  0  0  0  0  0  0
   58.7480   31.4920   45.3580 C   0  0  0  0  0  0  0  0  0  0  0  0
   59.5790   31.4770   46.4360 N   0  0  0  0  0  0  0  0  0  0  0  0
   62.2640   31.6720   48.0510 C   0  0  0  0  0  0  0  0  0  0  0  0
   63.4420   32.4540   48.6500 C   0  0  0  0  0  0  0  0  0  0  0  0
   67.0630   30.2948   52.1781 H   0  0  0  0  0  0  0  0  0  0  0  0
   66.3397   29.6852   50.6510 H   0  0  0  0  0  0  0  0  0  0  0  0
   67.2810   31.2152   50.6510 H   0  0  0  0  0  0  0  0  0  0  0  0
   65.3930   31.6500   52.5100 H   0  0  0  0  0  0  0  0  0  0  0  0
   63.7737   30.2120   52.3247 H   0  0  0  0  0  0  0  0  0  0  0  0
   63.3997   31.0488   50.7799 H   0  0  0  0  0  0  0  0  0  0  0  0
   64.4455   29.5883   50.7799 H   0  0  0  0  0  0  0  0  0  0  0  0
   63.6804   33.3522   51.7917 H   0  0  0  0  0  0  0  0  0  0  0  0
   64.5463   34.4939   50.6490 H   0  0  0  0  0  0  0  0  0  0  0  0
   61.7153   32.0225   50.7755 H   0  0  0  0  0  0  0  0  0  0  0  0
   61.5197   33.7644   51.1767 H   0  0  0  0  0  0  0  0  0  0  0  0
   59.7132   32.7129   49.6534 H   0  0  0  0  0  0  0  0  0  0  0  0
   60.4863   34.2418   49.0761 H   0  0  0  0  0  0  0  0  0  0  0  0
   60.5036   34.7280   46.6027 H   0  0  0  0  0  0  0  0  0  0  0  0
   57.4930   33.6639   43.0073 H   0  0  0  0  0  0  0  0  0  0  0  0
   56.4287   31.5559   42.2152 H   0  0  0  0  0  0  0  0  0  0  0  0
   56.8346   29.4143   43.4123 H   0  0  0  0  0  0  0  0  0  0  0  0
   60.4052   29.4983   46.2009 H   0  0  0  0  0  0  0  0  0  0  0  0
   60.8185   27.2897   47.2809 H   0  0  0  0  0  0  0  0  0  0  0  0
   59.0352   25.5469   47.2912 H   0  0  0  0  0  0  0  0  0  0  0  0
   54.7230   27.0910   46.7060 H   0  0  0  0  0  0  0  0  0  0  0  0
   56.3935   28.2310   45.1604 H   0  0  0  0  0  0  0  0  0  0  0  0
   62.0824   30.7694   48.6530 H   0  0  0  0  0  0  0  0  0  0  0  0
   62.5081   31.3881   47.0167 H   0  0  0  0  0  0  0  0  0  0  0  0
   64.1930   31.7341   49.0075 H   0  0  0  0  0  0  0  0  0  0  0  0
   63.8366   33.1060   47.8568 H   0  0  0  0  0  0  0  0  0  0  0  0
  1  2  1  0
  2  3  1  0
  2  4  1  0
  4  5  2  0
  4  6  1  0
  6  7  1  0
  7  8  1  0
  8  9  1  0
  9 10  1  0
 10 11  1  0
 11 12  2  0
 12 13  1  0
 13 14  2  0
 13 15  1  0
 15 16  2  0
 16 17  1  0
 17 18  2  0
 18 19  1  0
 19 20  1  0
 20 21  2  0
 21 22  1  0
 22 23  2  0
 23 24  1  0
 24 25  1  0
 25 26  1  0
 25 27  2  0
 25 28  2  0
 24 29  2  0
 19 30  2  0
 30 31  1  0
 10 32  1  0
 32 33  1  0
 33  7  1  0
 31 11  1  0
 30 15  1  0
 29 20  1  0
  1 34  1  0
  1 35  1  0
  1 36  1  0
  2 37  1  0
  3 38  1  0
  3 39  1  0
  3 40  1  0
  6 41  1  0
  6 42  1  0
  8 43  1  0
  8 44  1  0
  9 45  1  0
  9 46  1  0
 12 47  1  0
 16 48  1  0
 17 49  1  0
 18 50  1  0
 21 51  1  0
 22 52  1  0
 23 53  1  0
 26 54  1  0
 29 55  1  0
 32 56  1  0
 32 57  1  0
 33 58  1  0
 33 59  1  0
M  CHG  3   2   1  26  -1  31  -1
M  END
>  <UniqueID>  (10) 
10

>  <SMILES>  (10) 
C[NH+](C)C(=O)CN1CCN(c2cc(=O)c3cccc(-c4cccc(S([NH-])(=O)=O)c4)c3[n-]2)CC1

>  <Energy>  (10) 
84.59649496491666

>  <Genealogy>  (10) 
C[NH+](C)C(=O)CN1CCN(c2cc(=O)c3cccc(-c4cccc(S([NH-])(=O)=O)c4)c3[n-]2)CC1 (protonated)
C[NH+](C)C(=O)CN1CCN(c2cc(=O)c3cccc(-c4cccc(S([NH-])(=O)=O)c4)c3[n-]2)CC1 (3D coordinates assigned)
C[NH+](C)C(=O)CN1CCN(c2cc(=O)c3cccc(-c4cccc(S([NH-])(=O)=O)c4)c3[n-]2)CC1 (nonaromatic ring conformer: 84.59649496491666 kcal/mol)

>  <smiles>  (10) 
CN(C)C(=O)CN1CCN(c2cc(=O)c3cccc(-c4cccc(S(N)(=O)=O)c4)c3[nH]2)CC1

>  <score_type>  (10) 
oracle

>  <origin>  (10) 
adg

>  <m_score__min__energy>  (10) 
-12.699999999999999

>  <m_primary>  (10) 
energy

$$$$
10:0
     RDKit          3D

 58 60  0  0  0  0  0  0  0  0999 V2000
   55.5640   21.3510   49.8440 C   0  0  0  0  0  0  0  0  0  0  0  0
   55.2850   21.4260   48.4150 N   0  0  0  0  0  0  0  0  0  0  0  0
   55.7300   22.3670   47.6360 C   0  0  0  0  0  0  0  0  0  0  0  0
   57.0670   22.5900   47.4990 N   0  0  0  0  0  0  0  0  0  0  0  0
   57.5360   23.5740   46.6900 C   0  0  0  0  0  0  0  0  0  0  0  0
   56.6420   24.3850   45.9770 C   0  0  0  0  0  0  0  0  0  0  0  0
   57.1250   25.4600   45.0750 C   0  0  0  0  0  0  0  0  0  0  0  0
   57.3350   26.7530   45.5790 C   0  0  0  0  0  0  0  0  0  0  0  0
   57.7740   27.7880   44.7400 C   0  0  0  0  0  0  0  0  0  0  0  0
   57.9900   29.1510   45.2830 C   0  0  0  0  0  0  0  0  0  0  0  0
   57.0020   29.9270   45.4060 O   0  0  0  0  0  0  0  0  0  0  0  0
   59.3080   29.6050   45.6360 N   0  0  0  0  0  0  0  0  0  0  0  0
   59.5630   30.7890   46.4070 C   0  0  0  0  0  0  0  0  0  0  0  0
   58.6070   31.4570   46.8900 O   0  0  0  0  0  0  0  0  0  0  0  0
   60.9170   31.2200   46.6140 N   0  0  0  0  0  0  0  0  0  0  0  0
   61.2730   32.3120   47.4770 C   0  0  0  0  0  0  0  0  0  0  0  0
   62.2770   32.1170   48.4370 C   0  0  0  0  0  0  0  0  0  0  0  0
   62.6670   33.1540   49.3150 C   0  0  0  0  0  0  0  0  0  0  0  0
   63.7780   32.9800   50.3730 C   0  0  0  0  0  0  0  0  0  0  0  0
   65.1840   32.7920   49.7540 C   0  0  0  0  0  0  0  0  0  0  0  0
   63.4740   31.7360   51.2350 C   0  0  0  0  0  0  0  0  0  0  0  0
   63.8300   34.2310   51.2780 C   0  0  0  0  0  0  0  0  0  0  0  0
   61.9960   34.3890   49.2080 C   0  0  0  0  0  0  0  0  0  0  0  0
   60.9760   34.5810   48.2740 C   0  0  0  0  0  0  0  0  0  0  0  0
   60.5950   33.5420   47.4090 C   0  0  0  0  0  0  0  0  0  0  0  0
   59.5380   33.6910   46.4960 O   0  0  0  0  0  0  0  0  0  0  0  0
   59.3500   34.8230   45.6530 C   0  0  0  0  0  0  0  0  0  0  0  0
   58.0180   27.4930   43.3900 C   0  0  0  0  0  0  0  0  0  0  0  0
   57.8200   26.2350   42.9120 N   0  0  0  0  0  0  0  0  0  0  0  0
   57.3860   25.2210   43.7110 C   0  0  0  0  0  0  0  0  0  0  0  0
   57.2430   24.0680   43.2230 O   0  0  0  0  0  0  0  0  0  0  0  0
   55.2710   24.1320   46.1280 C   0  0  0  0  0  0  0  0  0  0  0  0
   54.8460   23.1380   46.9500 N   0  0  0  0  0  0  0  0  0  0  0  0
   54.6525   21.5960   50.4089 H   0  0  0  0  0  0  0  0  0  0  0  0
   55.8918   20.3328   50.1006 H   0  0  0  0  0  0  0  0  0  0  0  0
   56.3582   22.0675   50.1006 H   0  0  0  0  0  0  0  0  0  0  0  0
   58.6198   23.7354   46.5937 H   0  0  0  0  0  0  0  0  0  0  0  0
   57.1532   26.9572   46.6445 H   0  0  0  0  0  0  0  0  0  0  0  0
   60.1350   29.0700   45.2900 H   0  0  0  0  0  0  0  0  0  0  0  0
   61.6580   30.8200   45.9950 H   0  0  0  0  0  0  0  0  0  0  0  0
   62.7711   31.1368   48.5081 H   0  0  0  0  0  0  0  0  0  0  0  0
   65.9282   32.6925   50.5579 H   0  0  0  0  0  0  0  0  0  0  0  0
   65.1925   31.8847   49.1321 H   0  0  0  0  0  0  0  0  0  0  0  0
   65.4306   33.6652   49.1321 H   0  0  0  0  0  0  0  0  0  0  0  0
   63.5393   32.0031   52.3001 H   0  0  0  0  0  0  0  0  0  0  0  0
   62.4606   31.3724   51.0096 H   0  0  0  0  0  0  0  0  0  0  0  0
   64.2055   30.9460   51.0096 H   0  0  0  0  0  0  0  0  0  0  0  0
   63.8171   33.9209   52.3333 H   0  0  0  0  0  0  0  0  0  0  0  0
   64.7523   34.7941   51.0725 H   0  0  0  0  0  0  0  0  0  0  0  0
   62.9576   34.8687   51.0725 H   0  0  0  0  0  0  0  0  0  0  0  0
   62.2814   35.2174   49.8731 H   0  0  0  0  0  0  0  0  0  0  0  0
   60.4665   35.5541   48.2151 H   0  0  0  0  0  0  0  0  0  0  0  0
   59.2010   35.7202   46.2717 H   0  0  0  0  0  0  0  0  0  0  0  0
   60.2379   34.9588   45.0180 H   0  0  0  0  0  0  0  0  0  0  0  0
   58.4659   34.6645   45.0180 H   0  0  0  0  0  0  0  0  0  0  0  0
   58.3720   28.2848   42.7134 H   0  0  0  0  0  0  0  0  0  0  0  0
   58.0190   26.0460   41.9040 H   0  0  0  0  0  0  0  0  0  0  0  0
   54.5375   24.7406   45.5789 H   0  0  0  0  0  0  0  0  0  0  0  0
  1  2  1  0
  2  3  2  3
  3  4  1  0
  4  5  2  0
  5  6  1  0
  6  7  1  0
  7  8  2  0
  8  9  1  0
  9 10  1  0
 10 11  2  0
 10 12  1  0
 12 13  1  0
 13 14  2  0
 13 15  1  0
 15 16  1  0
 16 17  2  0
 17 18  1  0
 18 19  1  0
 19 20  1  0
 19 21  1  0
 19 22  1  0
 18 23  2  0
 23 24  1  0
 24 25  2  0
 25 26  1  0
 26 27  1  0
  9 28  2  0
 28 29  1  0
 29 30  1  0
 30 31  2  0
  6 32  2  0
 32 33  1  0
 33  3  1  0
 30  7  1  0
 25 16  1  0
  1 34  1  0
  1 35  1  0
  1 36  1  0
  5 37  1  0
  8 38  1  0
 12 39  1  0
 15 40  1  0
 17 41  1  0
 20 42  1  0
 20 43  1  0
 20 44  1  0
 21 45  1  0
 21 46  1  0
 21 47  1  0
 22 48  1  0
 22 49  1  0
 22 50  1  0
 23 51  1  0
 24 52  1  0
 27 53  1  0
 27 54  1  0
 27 55  1  0
 28 56  1  0
 29 57  1  0
 32 58  1  0
M  CHG  1  33  -1
M  END
>  <UniqueID>  (11) 
11

>  <SMILES>  (11) 
CN=c1ncc(-c2cc(C(=O)NC(=O)Nc3cc(C(C)(C)C)ccc3OC)c[nH]c2=O)c[n-]1

>  <Energy>  (11) 
75.10599659962706

>  <Genealogy>  (11) 
CN=c1ncc(-c2cc(C(=O)NC(=O)Nc3cc(C(C)(C)C)ccc3OC)c[nH]c2=O)c[n-]1 (protonated)
CN=c1ncc(-c2cc(C(=O)NC(=O)Nc3cc(C(C)(C)C)ccc3OC)c[nH]c2=O)c[n-]1 (3D coordinates assigned)
CN=c1ncc(-c2cc(C(=O)NC(=O)Nc3cc(C(C)(C)C)ccc3OC)c[nH]c2=O)c[n-]1 (optimized conformer: 75.10599659962706 kcal/mol)

>  <smiles>  (11) 
CN=c1ncc(-c2cc(C(=O)NC(=O)Nc3cc(C(C)(C)C)ccc3OC)c[nH]c2=O)c[nH]1

>  <score_type>  (11) 
oracle

>  <origin>  (11) 
adg

>  <m_score__min__energy>  (11) 
-9.4600000000000009

>  <m_primary>  (11) 
energy

$$$$
11:0
     RDKit          3D

 46 48  0  0  0  0  0  0  0  0999 V2000
   63.6880   32.0360   48.3130 C   0  0  0  0  0  0  0  0  0  0  0  0
   63.2450   33.3600   48.0440 O   0  0  0  0  0  0  0  0  0  0  0  0
   62.3770   33.6660   46.9920 C   0  0  0  0  0  0  0  0  0  0  0  0
   62.8280   33.8420   45.8250 O   0  0  0  0  0  0  0  0  0  0  0  0
   60.9000   33.8090   47.2710 C   0  0  1  0  0  0  0  0  0  0  0  0
   60.7160   34.2930   48.7210 C   0  0  0  0  0  0  0  0  0  0  0  0
   60.3160   34.8150   46.3820 N   0  0  0  0  0  0  0  0  0  0  0  0
   59.2330   34.2150   45.7090 C   0  0  0  0  0  0  0  0  0  0  0  0
   58.5250   34.8310   44.8680 O   0  0  0  0  0  0  0  0  0  0  0  0
   59.0440   32.8580   46.0420 N   0  0  0  0  0  0  0  0  0  0  0  0
   58.1740   31.7390   45.0420 S   0  0  0  0  0  0  0  0  0  0  0  0
   58.4870   32.0040   43.5960 O   0  0  0  0  0  0  0  0  0  0  0  0
   56.6950   31.9160   45.2450 O   0  0  0  0  0  0  0  0  0  0  0  0
   58.6420   30.0990   45.4740 C   0  0  0  0  0  0  0  0  0  0  0  0
   59.9340   29.6390   45.1870 C   0  0  0  0  0  0  0  0  0  0  0  0
   60.3000   28.3280   45.5010 C   0  0  0  0  0  0  0  0  0  0  0  0
   59.3780   27.4640   46.1140 C   0  0  0  0  0  0  0  0  0  0  0  0
   59.7570   26.0440   46.4120 C   0  0  0  0  0  0  0  0  0  0  0  0
   58.0770   27.9190   46.3760 C   0  0  0  0  0  0  0  0  0  0  0  0
   57.7120   29.2310   46.0610 C   0  0  0  0  0  0  0  0  0  0  0  0
   60.1380   32.4670   46.9250 C   0  0  2  0  0  0  0  0  0  0  0  0
   59.6360   31.6800   48.1210 C   0  0  0  0  0  0  0  0  0  0  0  0
   58.5960   32.1680   48.9370 C   0  0  0  0  0  0  0  0  0  0  0  0
   58.1680   31.4360   50.0490 C   0  0  0  0  0  0  0  0  0  0  0  0
   58.7750   30.2180   50.3620 C   0  0  0  0  0  0  0  0  0  0  0  0
   59.8140   29.7300   49.5670 C   0  0  0  0  0  0  0  0  0  0  0  0
   60.2450   30.4570   48.4530 C   0  0  0  0  0  0  0  0  0  0  0  0
   63.7400   31.8806   49.4007 H   0  0  0  0  0  0  0  0  0  0  0  0
   62.9816   31.3165   47.8732 H   0  0  0  0  0  0  0  0  0  0  0  0
   64.6851   31.8865   47.8732 H   0  0  0  0  0  0  0  0  0  0  0  0
   61.0193   33.4953   49.4151 H   0  0  0  0  0  0  0  0  0  0  0  0
   61.3382   35.1839   48.8919 H   0  0  0  0  0  0  0  0  0  0  0  0
   59.6591   34.5456   48.8919 H   0  0  0  0  0  0  0  0  0  0  0  0
   60.6628   30.3127   44.7127 H   0  0  0  0  0  0  0  0  0  0  0  0
   61.3139   27.9711   45.2673 H   0  0  0  0  0  0  0  0  0  0  0  0
   59.7965   25.8959   47.5013 H   0  0  0  0  0  0  0  0  0  0  0  0
   59.0085   25.3656   45.9767 H   0  0  0  0  0  0  0  0  0  0  0  0
   60.7440   25.8288   45.9767 H   0  0  0  0  0  0  0  0  0  0  0  0
   57.3409   27.2402   46.8314 H   0  0  0  0  0  0  0  0  0  0  0  0
   56.6919   29.5829   46.2745 H   0  0  0  0  0  0  0  0  0  0  0  0
   60.8412   31.7650   46.4529 H   0  0  0  0  0  0  0  0  0  0  0  0
   58.1184   33.1297   48.6981 H   0  0  0  0  0  0  0  0  0  0  0  0
   57.3517   31.8204   50.6783 H   0  0  0  0  0  0  0  0  0  0  0  0
   58.4344   29.6426   51.2354 H   0  0  0  0  0  0  0  0  0  0  0  0
   60.2941   28.7725   49.8174 H   0  0  0  0  0  0  0  0  0  0  0  0
   61.0662   30.0694   47.8321 H   0  0  0  0  0  0  0  0  0  0  0  0
  1  2  1  0
  2  3  1  0
  3  4  2  0
  3  5  1  0
  5  6  1  1
  5  7  1  0
  7  8  1  0
  8  9  2  0
  8 10  1  0
 10 11  1  0
 11 12  2  0
 11 13  2  0
 11 14  1  0
 14 15  2  0
 15 16  1  0
 16 17  2  0
 17 18  1  0
 17 19  1  0
 19 20  2  0
 10 21  1  0
 21 22  1  0
 22 23  2  0
 23 24  1  0
 24 25  2  0
 25 26  1  0
 26 27  2  0
 21  5  1  0
 27 22  1  0
 20 14  1  0
  1 28  1  0
  1 29  1  0
  1 30  1  0
  6 31  1  0
  6 32  1  0
  6 33  1  0
 15 34  1  0
 16 35  1  0
 18 36  1  0
 18 37  1  0
 18 38  1  0
 19 39  1  0
 20 40  1  0
 21 41  1  6
 23 42  1  0
 24 43  1  0
 25 44  1  0
 26 45  1  0
 27 46  1  0
M  CHG  1   7  -1
M  END
>  <UniqueID>  (12) 
12

>  <SMILES>  (12) 
COC(=O)[C@@]1(C)[N-]C(=O)N(S(=O)(=O)c2ccc(C)cc2)[C@@H]1c1ccccc1

>  <Energy>  (12) 
61.59981817873102

>  <Genealogy>  (12) 
COC(=O)C1(C)[N-]C(=O)N(S(=O)(=O)c2ccc(C)cc2)C1c1ccccc1 (protonated)
COC(=O)[C@@]1(C)[N-]C(=O)N(S(=O)(=O)c2ccc(C)cc2)[C@@H]1c1ccccc1 (chirality)
COC(=O)[C@@]1(C)[N-]C(=O)N(S(=O)(=O)c2ccc(C)cc2)[C@@H]1c1ccccc1 (3D coordinates assigned)
COC(=O)[C@@]1(C)[N-]C(=O)N(S(=O)(=O)c2ccc(C)cc2)[C@@H]1c1ccccc1 (nonaromatic ring conformer: 61.59981817873102 kcal/mol)

>  <smiles>  (12) 
COC(=O)C1(C)NC(=O)N(S(=O)(=O)c2ccc(C)cc2)C1c1ccccc1

>  <score_type>  (12) 
oracle

>  <origin>  (12) 
adg

>  <m_score__min__energy>  (12) 
-9.8800000000000008

>  <m_primary>  (12) 
energy

$$$$
12:0
     RDKit          3D

 56 59  0  0  0  0  0  0  0  0999 V2000
   58.8570   33.0320   43.7460 O   0  0  0  0  0  0  0  0  0  0  0  0
   57.7120   32.5980   44.0450 C   0  0  0  0  0  0  0  0  0  0  0  0
   57.1440   31.4050   43.3270 C   0  0  0  0  0  0  0  0  0  0  0  0
   57.3940   30.1610   44.0760 N   0  0  0  0  0  0  0  0  0  0  0  0
   58.6810   29.8270   44.3960 C   0  0  0  0  0  0  0  0  0  0  0  0
   58.9580   28.6720   45.1260 C   0  0  0  0  0  0  0  0  0  0  0  0
   57.9120   27.8480   45.5560 C   0  0  0  0  0  0  0  0  0  0  0  0
   58.2000   26.6210   46.3320 C   0  0  0  0  0  0  0  0  0  0  0  0
   58.7400   26.7110   47.4670 O   0  0  0  0  0  0  0  0  0  0  0  0
   57.9040   25.3240   45.8070 N   0  0  0  0  0  0  0  0  0  0  0  0
   58.0480   23.9310   46.2650 C   0  0  0  0  0  0  0  0  0  0  0  0
   57.6630   23.2940   44.9720 C   0  0  0  0  0  0  0  0  0  0  0  0
   57.5120   24.7100   44.5230 C   0  0  0  0  0  0  0  0  0  0  0  0
   56.5920   28.2000   45.2210 C   0  0  0  0  0  0  0  0  0  0  0  0
   55.5200   27.4100   45.6320 O   0  0  0  0  0  0  0  0  0  0  0  0
   56.3500   29.3660   44.4830 C   0  0  0  0  0  0  0  0  0  0  0  0
   55.1590   29.6800   44.2030 O   0  0  0  0  0  0  0  0  0  0  0  0
   56.9250   33.2700   45.0370 N   0  0  0  0  0  0  0  0  0  0  0  0
   57.4560   34.3620   45.8480 C   0  0  0  0  0  0  0  0  0  0  0  0
   58.3600   33.8160   46.9130 C   0  0  0  0  0  0  0  0  0  0  0  0
   58.3140   32.4580   47.2560 C   0  0  0  0  0  0  0  0  0  0  0  0
   59.1870   31.9670   48.2260 C   0  0  0  0  0  0  0  0  0  0  0  0
   60.1120   32.8240   48.8380 C   0  0  0  0  0  0  0  0  0  0  0  0
   61.0340   32.3260   49.8800 C   0  0  0  0  0  0  0  0  0  0  0  0
   60.5590   31.9610   50.9900 O   0  0  0  0  0  0  0  0  0  0  0  0
   62.4550   32.2600   49.6610 N   0  0  0  0  0  0  0  0  0  0  0  0
   63.3470   31.5140   50.5310 C   0  0  0  0  0  0  0  0  0  0  0  0
   64.7510   31.7830   50.0060 C   0  0  0  0  0  0  0  0  0  0  0  0
   64.6340   33.0440   49.1550 C   0  0  0  0  0  0  0  0  0  0  0  0
   63.1750   33.1160   48.7290 C   0  0  0  0  0  0  0  0  0  0  0  0
   60.1150   34.1790   48.4770 C   0  0  0  0  0  0  0  0  0  0  0  0
   59.2560   34.6360   47.5250 N   0  0  0  0  0  0  0  0  0  0  0  0
   56.0587   31.5407   43.2095 H   0  0  0  0  0  0  0  0  0  0  0  0
   57.6344   31.3242   42.3457 H   0  0  0  0  0  0  0  0  0  0  0  0
   59.5074   30.4774   44.0736 H   0  0  0  0  0  0  0  0  0  0  0  0
   59.9991   28.4084   45.3640 H   0  0  0  0  0  0  0  0  0  0  0  0
   59.0775   23.6884   46.5671 H   0  0  0  0  0  0  0  0  0  0  0  0
   57.4751   23.6368   47.1567 H   0  0  0  0  0  0  0  0  0  0  0  0
   58.4559   22.7190   44.4712 H   0  0  0  0  0  0  0  0  0  0  0  0
   56.8772   22.5307   44.8729 H   0  0  0  0  0  0  0  0  0  0  0  0
   58.1958   24.9702   43.7016 H   0  0  0  0  0  0  0  0  0  0  0  0
   56.5372   25.0018   44.1050 H   0  0  0  0  0  0  0  0  0  0  0  0
   55.9420   32.9570   45.2020 H   0  0  0  0  0  0  0  0  0  0  0  0
   58.0243   35.0504   45.2052 H   0  0  0  0  0  0  0  0  0  0  0  0
   56.6214   34.8988   46.3225 H   0  0  0  0  0  0  0  0  0  0  0  0
   57.5956   31.7855   46.7644 H   0  0  0  0  0  0  0  0  0  0  0  0
   59.1497   30.9053   48.5114 H   0  0  0  0  0  0  0  0  0  0  0  0
   63.2518   31.8639   51.5695 H   0  0  0  0  0  0  0  0  0  0  0  0
   63.1113   30.4395   50.5307 H   0  0  0  0  0  0  0  0  0  0  0  0
   65.4487   31.9460   50.8406 H   0  0  0  0  0  0  0  0  0  0  0  0
   65.1389   30.9334   49.4249 H   0  0  0  0  0  0  0  0  0  0  0  0
   64.9061   33.9318   49.7447 H   0  0  0  0  0  0  0  0  0  0  0  0
   65.3103   33.0142   48.2879 H   0  0  0  0  0  0  0  0  0  0  0  0
   62.8063   34.1503   48.7936 H   0  0  0  0  0  0  0  0  0  0  0  0
   63.0376   32.7913   47.6870 H   0  0  0  0  0  0  0  0  0  0  0  0
   60.8137   34.8748   48.9646 H   0  0  0  0  0  0  0  0  0  0  0  0
  1  2  2  0
  2  3  1  0
  3  4  1  0
  4  5  1  0
  5  6  2  0
  6  7  1  0
  7  8  1  0
  8  9  2  0
  8 10  1  0
 10 11  1  0
 11 12  1  0
 12 13  1  0
  7 14  2  0
 14 15  1  0
 14 16  1  0
 16 17  2  0
  2 18  1  0
 18 19  1  0
 19 20  1  0
 20 21  2  0
 21 22  1  0
 22 23  2  0
 23 24  1  0
 24 25  2  0
 24 26  1  0
 26 27  1  0
 27 28  1  0
 28 29  1  0
 29 30  1  0
 23 31  1  0
 31 32  2  0
 16  4  1  0
 32 20  1  0
 13 10  1  0
 30 26  1  0
  3 33  1  0
  3 34  1  0
  5 35  1  0
  6 36  1  0
 11 37  1  0
 11 38  1  0
 12 39  1  0
 12 40  1  0
 13 41  1  0
 13 42  1  0
 18 43  1  0
 19 44  1  0
 19 45  1  0
 21 46  1  0
 22 47  1  0
 27 48  1  0
 27 49  1  0
 28 50  1  0
 28 51  1  0
 29 52  1  0
 29 53  1  0
 30 54  1  0
 30 55  1  0
 31 56  1  0
M  CHG  1  15  -1
M  END
>  <UniqueID>  (13) 
13

>  <SMILES>  (13) 
O=C(Cn1ccc(C(=O)N2CCC2)c([O-])c1=O)NCc1ccc(C(=O)N2CCCC2)cn1

>  <Energy>  (13) 
108.92867689372935

>  <Genealogy>  (13) 
O=C(Cn1ccc(C(=O)N2CCC2)c([O-])c1=O)NCc1ccc(C(=O)N2CCCC2)cn1 (protonated)
O=C(Cn1ccc(C(=O)N2CCC2)c([O-])c1=O)NCc1ccc(C(=O)N2CCCC2)cn1 (3D coordinates assigned)
O=C(Cn1ccc(C(=O)N2CCC2)c([O-])c1=O)NCc1ccc(C(=O)N2CCCC2)cn1 (nonaromatic ring conformer: 108.92867689372935 kcal/mol)

>  <smiles>  (13) 
O=C(Cn1ccc(C(=O)N2CCC2)c(O)c1=O)NCc1ccc(C(=O)N2CCCC2)cn1

>  <score_type>  (13) 
oracle

>  <origin>  (13) 
adg

>  <m_score__min__energy>  (13) 
-13.01

>  <m_primary>  (13) 
energy

$$$$
13:0
     RDKit          3D

 49 52  0  0  0  0  0  0  0  0999 V2000
   51.2030   30.6700   47.9020 H   0  0  0  0  0  0  0  0  0  0  0  0
   51.5040   30.0900   48.6760 O   0  0  0  0  0  0  0  0  0  0  0  0
   51.7250   30.6130   49.9490 C   0  0  0  0  0  0  0  0  0  0  0  0
   52.3840   29.8300   50.9040 C   0  0  0  0  0  0  0  0  0  0  0  0
   52.7308   28.8209   50.6368 H   0  0  0  0  0  0  0  0  0  0  0  0
   52.6060   30.3220   52.2000 C   0  0  0  0  0  0  0  0  0  0  0  0
   53.3450   29.5270   53.2000 C   0  0  0  0  0  0  0  0  0  0  0  0
   52.7610   28.8675   53.8589 H   0  0  0  0  0  0  0  0  0  0  0  0
   54.6760   29.5490   53.3650 C   0  0  0  0  0  0  0  0  0  0  0  0
   55.4450   28.9720   54.7480 S   0  0  0  0  0  0  0  0  0  0  0  0
   56.9940   29.3180   54.1930 C   0  0  0  0  0  0  0  0  0  0  0  0
   58.0970   29.1130   54.9160 C   0  0  0  0  0  0  0  0  0  0  0  0
   59.0834   29.3600   54.4965 H   0  0  0  0  0  0  0  0  0  0  0  0
   58.0196   28.6970   55.9314 H   0  0  0  0  0  0  0  0  0  0  0  0
   56.9550   29.8600   52.9430 N   0  0  0  0  0  0  0  0  0  0  0  0
   58.1080   30.2360   52.1670 C   0  0  0  0  0  0  0  0  0  0  0  0
   59.1850   29.3480   52.0330 C   0  0  0  0  0  0  0  0  0  0  0  0
   59.1416   28.3570   52.5085 H   0  0  0  0  0  0  0  0  0  0  0  0
   60.3130   29.7190   51.2970 C   0  0  0  0  0  0  0  0  0  0  0  0
   61.1567   29.0203   51.1973 H   0  0  0  0  0  0  0  0  0  0  0  0
   60.3730   30.9750   50.6870 C   0  0  0  0  0  0  0  0  0  0  0  0
   61.2652   31.2618   50.1111 H   0  0  0  0  0  0  0  0  0  0  0  0
   59.2990   31.8730   50.8060 C   0  0  0  0  0  0  0  0  0  0  0  0
   59.3610   33.2120   50.1780 C   0  0  0  0  0  0  0  0  0  0  0  0
   59.4540   34.2290   50.9190 O   0  0  0  0  0  0  0  0  0  0  0  0
   59.3040   33.3820   48.7480 N   0  0  0  0  0  0  0  0  0  0  0  0
   58.5090   32.4860   47.9020 C   0  0  0  0  0  0  0  0  0  0  0  0
   59.1675   31.7328   47.4448 H   0  0  0  0  0  0  0  0  0  0  0  0
   57.7471   31.9822   48.5149 H   0  0  0  0  0  0  0  0  0  0  0  0
   57.8230   33.3010   46.8010 C   0  0  0  0  0  0  0  0  0  0  0  0
   57.3317   32.6139   46.0963 H   0  0  0  0  0  0  0  0  0  0  0  0
   57.0810   33.9674   47.2651 H   0  0  0  0  0  0  0  0  0  0  0  0
   58.7670   34.0900   46.0990 O   0  0  0  0  0  0  0  0  0  0  0  0
   59.3210   35.0620   46.9670 C   0  0  0  0  0  0  0  0  0  0  0  0
   59.9830   35.7248   46.3904 H   0  0  0  0  0  0  0  0  0  0  0  0
   58.5009   35.6388   47.4194 H   0  0  0  0  0  0  0  0  0  0  0  0
   60.1280   34.3960   48.0860 C   0  0  0  0  0  0  0  0  0  0  0  0
   61.0225   33.9192   47.6586 H   0  0  0  0  0  0  0  0  0  0  0  0
   60.4320   35.1566   48.8202 H   0  0  0  0  0  0  0  0  0  0  0  0
   58.1760   31.5020   51.5650 C   0  0  0  0  0  0  0  0  0  0  0  0
   57.3431   32.2099   51.6883 H   0  0  0  0  0  0  0  0  0  0  0  0
   55.6750   29.9820   52.4790 C   0  0  0  0  0  0  0  0  0  0  0  0
   55.4300   30.4050   51.3160 O   0  0  0  0  0  0  0  0  0  0  0  0
   52.2060   31.6290   52.5170 C   0  0  0  0  0  0  0  0  0  0  0  0
   52.4121   32.0378   53.5172 H   0  0  0  0  0  0  0  0  0  0  0  0
   51.5470   32.4130   51.5670 C   0  0  0  0  0  0  0  0  0  0  0  0
   51.2209   33.4306   51.8279 H   0  0  0  0  0  0  0  0  0  0  0  0
   51.3000   31.9100   50.2860 C   0  0  0  0  0  0  0  0  0  0  0  0
   50.6410   32.7010   49.3540 O   0  0  0  0  0  0  0  0  0  0  0  0
  1  2  1  0
  2  3  1  0
  3  4  2  0
  4  5  1  0
  4  6  1  0
  6  7  1  0
  7  8  1  0
  7  9  2  0
  9 10  1  0
 10 11  1  0
 11 12  2  0
 12 13  1  0
 12 14  1  0
 11 15  1  0
 15 16  1  0
 16 17  2  0
 17 18  1  0
 17 19  1  0
 19 20  1  0
 19 21  2  0
 21 22  1  0
 21 23  1  0
 23 24  1  0
 24 25  2  0
 24 26  1  0
 26 27  1  0
 27 28  1  0
 27 29  1  0
 27 30  1  0
 30 31  1  0
 30 32  1  0
 30 33  1  0
 33 34  1  0
 34 35  1  0
 34 36  1  0
 34 37  1  0
 37 38  1  0
 37 39  1  0
 23 40  2  0
 40 41  1  0
 15 42  1  0
 42 43  2  0
  6 44  2  0
 44 45  1  0
 44 46  1  0
 46 47  1  0
 46 48  2  0
 48 49  1  0
 48  3  1  0
 42  9  1  0
 40 16  1  0
 37 26  1  0
M  CHG  1  49  -1
M  END
>  <UniqueID>  (14) 
14

>  <SMILES>  (14) 
C=c1s/c(=C/c2ccc([O-])c(O)c2)c(=O)n1-c1cccc(C(=O)N2CCOCC2)c1

>  <Energy>  (14) 
106.52399136005586

>  <Genealogy>  (14) 
C=c1sc(=Cc2ccc([O-])c(O)c2)c(=O)n1-c1cccc(C(=O)N2CCOCC2)c1 (protonated)
C=c1s/c(=C/c2ccc([O-])c(O)c2)c(=O)n1-c1cccc(C(=O)N2CCOCC2)c1 (cis-trans isomerization)
C=c1s/c(=C/c2ccc([O-])c(O)c2)c(=O)n1-c1cccc(C(=O)N2CCOCC2)c1 (3D coordinates assigned)
C=c1s/c(=C/c2ccc([O-])c(O)c2)c(=O)n1-c1cccc(C(=O)N2CCOCC2)c1 (nonaromatic ring conformer: 106.52399136005586 kcal/mol)

>  <smiles>  (14) 
C=c1sc(=Cc2ccc(O)c(O)c2)c(=O)n1-c1cccc(C(=O)N2CCOCC2)c1

>  <score_type>  (14) 
oracle

>  <origin>  (14) 
adg

>  <m_score__min__energy>  (14) 
-13.41

>  <m_primary>  (14) 
energy

$$$$
14:0
     RDKit          3D

 48 51  0  0  0  0  0  0  0  0999 V2000
   57.4680   25.1180   47.5020 C   0  0  0  0  0  0  0  0  0  0  0  0
   57.9040   25.9830   46.5780 C   0  0  0  0  0  0  0  0  0  0  0  0
   58.6980   27.0250   46.9010 N   0  0  0  0  0  0  0  0  0  0  0  0
   58.8540   27.7680   45.7890 C   0  0  0  0  0  0  0  0  0  0  0  0
   59.6810   28.9880   45.7310 C   0  0  0  0  0  0  0  0  0  0  0  0
   60.3470   29.2260   44.6890 O   0  0  0  0  0  0  0  0  0  0  0  0
   59.7450   29.9030   46.8390 N   0  0  0  0  0  0  0  0  0  0  0  0
   60.0690   29.3940   48.1820 C   0  0  0  0  0  0  0  0  0  0  0  0
   60.4510   30.5340   49.1330 C   0  0  0  0  0  0  0  0  0  0  0  0
   61.3660   31.4610   48.4510 N   0  0  0  0  0  0  0  0  0  0  0  0
   62.6410   31.7950   49.0320 C   0  0  0  0  0  0  0  0  0  0  0  0
   63.0700   31.1710   50.2170 C   0  0  0  0  0  0  0  0  0  0  0  0
   64.3030   31.5050   50.7860 C   0  0  0  0  0  0  0  0  0  0  0  0
   65.1150   32.4680   50.1800 C   0  0  0  0  0  0  0  0  0  0  0  0
   66.3090   32.7920   50.7350 F   0  0  0  0  0  0  0  0  0  0  0  0
   64.6950   33.0980   49.0070 C   0  0  0  0  0  0  0  0  0  0  0  0
   63.4630   32.7660   48.4340 C   0  0  0  0  0  0  0  0  0  0  0  0
   61.0100   31.9920   47.1250 C   0  0  0  0  0  0  0  0  0  0  0  0
   59.7230   31.3510   46.5900 C   0  0  0  0  0  0  0  0  0  0  0  0
   58.1790   27.1930   44.7300 C   0  0  0  0  0  0  0  0  0  0  0  0
   57.5820   26.0400   45.2130 C   0  0  0  0  0  0  0  0  0  0  0  0
   56.8720   25.2020   44.4340 C   0  0  0  0  0  0  0  0  0  0  0  0
   55.6540   24.4770   44.8430 C   0  0  0  0  0  0  0  0  0  0  0  0
   54.6560   25.1050   45.6060 C   0  0  0  0  0  0  0  0  0  0  0  0
   54.7730   26.4440   45.9640 O   0  0  0  0  0  0  0  0  0  0  0  0
   53.5650   24.4010   46.0050 N   0  0  0  0  0  0  0  0  0  0  0  0
   53.4260   23.0880   45.6920 C   0  0  0  0  0  0  0  0  0  0  0  0
   52.4050   22.4570   46.0690 O   0  0  0  0  0  0  0  0  0  0  0  0
   54.3900   22.4530   44.9780 N   0  0  0  0  0  0  0  0  0  0  0  0
   55.5000   23.1120   44.5550 C   0  0  0  0  0  0  0  0  0  0  0  0
   56.3790   22.4900   43.9010 O   0  0  0  0  0  0  0  0  0  0  0  0
   56.8216   24.2781   47.2075 H   0  0  0  0  0  0  0  0  0  0  0  0
   57.7561   25.2472   48.5557 H   0  0  0  0  0  0  0  0  0  0  0  0
   59.0900   27.2420   47.8450 H   0  0  0  0  0  0  0  0  0  0  0  0
   59.1918   28.8683   48.5871 H   0  0  0  0  0  0  0  0  0  0  0  0
   60.9271   28.7111   48.0966 H   0  0  0  0  0  0  0  0  0  0  0  0
   59.5433   31.0748   49.4391 H   0  0  0  0  0  0  0  0  0  0  0  0
   60.9489   30.1171   50.0208 H   0  0  0  0  0  0  0  0  0  0  0  0
   62.4319   30.4157   50.6992 H   0  0  0  0  0  0  0  0  0  0  0  0
   64.6340   31.0097   51.7108 H   0  0  0  0  0  0  0  0  0  0  0  0
   65.3343   33.8570   48.5325 H   0  0  0  0  0  0  0  0  0  0  0  0
   63.1358   33.2671   47.5110 H   0  0  0  0  0  0  0  0  0  0  0  0
   60.8621   33.0792   47.2032 H   0  0  0  0  0  0  0  0  0  0  0  0
   61.8281   31.7574   46.4281 H   0  0  0  0  0  0  0  0  0  0  0  0
   58.8551   31.7956   47.0991 H   0  0  0  0  0  0  0  0  0  0  0  0
   59.6514   31.5314   45.5073 H   0  0  0  0  0  0  0  0  0  0  0  0
   58.1257   27.5769   43.7006 H   0  0  0  0  0  0  0  0  0  0  0  0
   57.2304   25.0448   43.4060 H   0  0  0  0  0  0  0  0  0  0  0  0
  1  2  2  0
  2  3  1  0
  3  4  1  0
  4  5  1  0
  5  6  2  0
  5  7  1  0
  7  8  1  0
  8  9  1  0
  9 10  1  0
 10 11  1  0
 11 12  2  0
 12 13  1  0
 13 14  2  0
 14 15  1  0
 14 16  1  0
 16 17  2  0
 10 18  1  0
 18 19  1  0
  4 20  2  0
 20 21  1  0
 21 22  2  3
 22 23  1  0
 23 24  2  0
 24 25  1  0
 24 26  1  0
 26 27  1  0
 27 28  2  0
 27 29  1  0
 29 30  1  0
 30 31  2  0
 21  2  1  0
 30 23  1  0
 19  7  1  0
 17 11  1  0
  1 32  1  0
  1 33  1  0
  3 34  1  0
  8 35  1  0
  8 36  1  0
  9 37  1  0
  9 38  1  0
 12 39  1  0
 13 40  1  0
 16 41  1  0
 17 42  1  0
 18 43  1  0
 18 44  1  0
 19 45  1  0
 19 46  1  0
 20 47  1  0
 22 48  1  0
M  CHG  3  25  -1  26  -1  29  -1
M  END
>  <UniqueID>  (15) 
15

>  <SMILES>  (15) 
C=c1[nH]c(C(=O)N2CCN(c3ccc(F)cc3)CC2)cc1=Cc1c([O-])[n-]c(=O)[n-]c1=O

>  <Energy>  (15) 
101.99604245418553

>  <Genealogy>  (15) 
C=c1[nH]c(C(=O)N2CCN(c3ccc(F)cc3)CC2)cc1=Cc1c([O-])[n-]c(=O)[n-]c1=O (protonated)
C=c1[nH]c(C(=O)N2CCN(c3ccc(F)cc3)CC2)cc1=Cc1c([O-])[n-]c(=O)[n-]c1=O (3D coordinates assigned)
C=c1[nH]c(C(=O)N2CCN(c3ccc(F)cc3)CC2)cc1=Cc1c([O-])[n-]c(=O)[n-]c1=O (nonaromatic ring conformer: 101.99604245418553 kcal/mol)

>  <smiles>  (15) 
C=c1[nH]c(C(=O)N2CCN(c3ccc(F)cc3)CC2)cc1=Cc1c(O)[nH]c(=O)[nH]c1=O

>  <score_type>  (15) 
oracle

>  <origin>  (15) 
adg

>  <m_score__min__energy>  (15) 
-15.630000000000001

>  <m_primary>  (15) 
energy

$$$$
15:0
     RDKit          3D

 58 61  0  0  0  0  0  0  0  0999 V2000
   57.4000   34.1750   44.7140 C   0  0  0  0  0  0  0  0  0  0  0  0
   57.7910   32.8600   45.3090 C   0  0  0  0  0  0  0  0  0  0  0  0
   57.6070   31.6690   44.7100 N   0  0  0  0  0  0  0  0  0  0  0  0
   58.0800   30.7150   45.4990 N   0  0  0  0  0  0  0  0  0  0  0  0
   58.0600   29.3180   45.1540 C   0  0  0  0  0  0  0  0  0  0  0  0
   58.8800   28.8220   44.1290 C   0  0  0  0  0  0  0  0  0  0  0  0
   58.8400   27.4680   43.7870 C   0  0  0  0  0  0  0  0  0  0  0  0
   57.9750   26.6000   44.4560 C   0  0  0  0  0  0  0  0  0  0  0  0
   57.1320   27.0800   45.4760 C   0  0  0  0  0  0  0  0  0  0  0  0
   56.2050   26.1600   46.1760 C   0  0  0  0  0  0  0  0  0  0  0  0
   54.7930   26.3420   46.0810 N   0  0  0  0  0  0  0  0  0  0  0  0
   56.6550   25.2040   46.8650 O   0  0  0  0  0  0  0  0  0  0  0  0
   57.1810   28.4450   45.8150 C   0  0  0  0  0  0  0  0  0  0  0  0
   58.5590   31.2820   46.6330 C   0  0  0  0  0  0  0  0  0  0  0  0
   59.1260   30.5400   47.8100 C   0  0  0  0  0  0  0  0  0  0  0  0
   58.4180   32.6600   46.5280 C   0  0  0  0  0  0  0  0  0  0  0  0
   58.7740   33.7090   47.5450 C   0  0  0  0  0  0  0  0  0  0  0  0
   60.1620   34.2370   47.2980 C   0  0  0  0  0  0  0  0  0  0  0  0
   60.3170   35.1920   46.4880 O   0  0  0  0  0  0  0  0  0  0  0  0
   61.3110   33.6880   47.9730 N   0  0  0  0  0  0  0  0  0  0  0  0
   62.5490   33.4630   47.2160 C   0  0  0  0  0  0  0  0  0  0  0  0
   63.7720   33.7790   48.0800 C   0  0  0  0  0  0  0  0  0  0  0  0
   63.6430   33.1350   49.3920 N   0  0  0  0  0  0  0  0  0  0  0  0
   64.7990   32.5890   50.0560 C   0  0  0  0  0  0  0  0  0  0  0  0
   64.7700   31.2900   50.5960 C   0  0  0  0  0  0  0  0  0  0  0  0
   65.8980   30.7650   51.2370 C   0  0  0  0  0  0  0  0  0  0  0  0
   67.0620   31.5320   51.3460 C   0  0  0  0  0  0  0  0  0  0  0  0
   67.0990   32.8250   50.8170 C   0  0  0  0  0  0  0  0  0  0  0  0
   65.9740   33.3520   50.1740 C   0  0  0  0  0  0  0  0  0  0  0  0
   62.4130   33.3830   50.1530 C   0  0  0  0  0  0  0  0  0  0  0  0
   61.1880   33.0610   49.2960 C   0  0  0  0  0  0  0  0  0  0  0  0
   57.1865   34.8930   45.5196 H   0  0  0  0  0  0  0  0  0  0  0  0
   58.2238   34.5556   44.0924 H   0  0  0  0  0  0  0  0  0  0  0  0
   56.5020   34.0437   44.0924 H   0  0  0  0  0  0  0  0  0  0  0  0
   57.1810   31.5110   43.7680 H   0  0  0  0  0  0  0  0  0  0  0  0
   59.5575   29.5024   43.5923 H   0  0  0  0  0  0  0  0  0  0  0  0
   59.4920   27.0847   42.9882 H   0  0  0  0  0  0  0  0  0  0  0  0
   57.9521   25.5343   44.1843 H   0  0  0  0  0  0  0  0  0  0  0  0
   54.3050   26.2890   45.1590 H   0  0  0  0  0  0  0  0  0  0  0  0
   56.5231   28.8325   46.6069 H   0  0  0  0  0  0  0  0  0  0  0  0
   58.7711   31.0045   48.7418 H   0  0  0  0  0  0  0  0  0  0  0  0
   58.7974   29.4908   47.7749 H   0  0  0  0  0  0  0  0  0  0  0  0
   60.2247   30.5815   47.7749 H   0  0  0  0  0  0  0  0  0  0  0  0
   58.0543   34.5381   47.4763 H   0  0  0  0  0  0  0  0  0  0  0  0
   58.7396   33.2573   48.5474 H   0  0  0  0  0  0  0  0  0  0  0  0
   62.5926   32.4108   46.8983 H   0  0  0  0  0  0  0  0  0  0  0  0
   62.5537   34.1254   46.3378 H   0  0  0  0  0  0  0  0  0  0  0  0
   64.6774   33.4058   47.5791 H   0  0  0  0  0  0  0  0  0  0  0  0
   63.8427   34.8679   48.2190 H   0  0  0  0  0  0  0  0  0  0  0  0
   63.8558   30.6838   50.5139 H   0  0  0  0  0  0  0  0  0  0  0  0
   65.8688   29.7481   51.6554 H   0  0  0  0  0  0  0  0  0  0  0  0
   67.9486   31.1176   51.8482 H   0  0  0  0  0  0  0  0  0  0  0  0
   68.0139   33.4291   50.9064 H   0  0  0  0  0  0  0  0  0  0  0  0
   66.0089   34.3697   49.7581 H   0  0  0  0  0  0  0  0  0  0  0  0
   62.4062   32.7466   51.0502 H   0  0  0  0  0  0  0  0  0  0  0  0
   62.3787   34.4432   50.4444 H   0  0  0  0  0  0  0  0  0  0  0  0
   61.1068   31.9708   49.1745 H   0  0  0  0  0  0  0  0  0  0  0  0
   60.2896   33.4530   49.7952 H   0  0  0  0  0  0  0  0  0  0  0  0
  1  2  1  0
  2  3  2  0
  3  4  1  0
  4  5  1  0
  5  6  2  0
  6  7  1  0
  7  8  2  0
  8  9  1  0
  9 10  1  0
 10 11  1  0
 10 12  2  0
  9 13  2  0
  4 14  1  0
 14 15  1  0
 14 16  2  0
 16 17  1  0
 17 18  1  0
 18 19  2  0
 18 20  1  0
 20 21  1  0
 21 22  1  0
 22 23  1  0
 23 24  1  0
 24 25  2  0
 25 26  1  0
 26 27  2  0
 27 28  1  0
 28 29  2  0
 23 30  1  0
 30 31  1  0
 16  2  1  0
 31 20  1  0
 13  5  1  0
 29 24  1  0
  1 32  1  0
  1 33  1  0
  1 34  1  0
  3 35  1  0
  6 36  1  0
  7 37  1  0
  8 38  1  0
 11 39  1  0
 13 40  1  0
 15 41  1  0
 15 42  1  0
 15 43  1  0
 17 44  1  0
 17 45  1  0
 21 46  1  0
 21 47  1  0
 22 48  1  0
 22 49  1  0
 25 50  1  0
 26 51  1  0
 27 52  1  0
 28 53  1  0
 29 54  1  0
 30 55  1  0
 30 56  1  0
 31 57  1  0
 31 58  1  0
M  CHG  2   3   1  11  -1
M  END
>  <UniqueID>  (16) 
16

>  <SMILES>  (16) 
Cc1[nH+]n(-c2cccc(C([NH-])=O)c2)c(C)c1CC(=O)N1CCN(c2ccccc2)CC1

>  <Energy>  (16) 
99.38144122391988

>  <Genealogy>  (16) 
Cc1[nH+]n(-c2cccc(C([NH-])=O)c2)c(C)c1CC(=O)N1CCN(c2ccccc2)CC1 (protonated)
Cc1[nH+]n(-c2cccc(C([NH-])=O)c2)c(C)c1CC(=O)N1CCN(c2ccccc2)CC1 (3D coordinates assigned)
Cc1[nH+]n(-c2cccc(C([NH-])=O)c2)c(C)c1CC(=O)N1CCN(c2ccccc2)CC1 (nonaromatic ring conformer: 99.38144122391988 kcal/mol)

>  <smiles>  (16) 
Cc1nn(-c2cccc(C(N)=O)c2)c(C)c1CC(=O)N1CCN(c2ccccc2)CC1

>  <score_type>  (16) 
oracle

>  <origin>  (16) 
adg

>  <m_score__min__energy>  (16) 
-12.41

>  <m_primary>  (16) 
energy

$$$$
16:0
     RDKit          3D

 69 72  0  0  0  0  0  0  0  0999 V2000
   63.6220   32.8480   47.1940 C   0  0  0  0  0  0  0  0  0  0  0  0
   62.3910   32.0460   47.6080 C   0  0  0  0  0  0  0  0  0  0  0  0
   61.1620   32.8430   47.4050 N   0  0  0  0  0  0  0  0  0  0  0  0
   60.7870   33.5380   48.6520 C   0  0  0  0  0  0  0  0  0  0  0  0
   59.6580   34.5720   48.4400 C   0  0  0  0  0  0  0  0  0  0  0  0
   59.0450   34.5090   47.0970 N   0  0  0  0  0  0  0  0  0  0  0  0
   57.8620   33.6270   46.9740 C   0  0  0  0  0  0  0  0  0  0  0  0
   57.8370   32.8100   45.7020 C   0  0  0  0  0  0  0  0  0  0  0  0
   57.7440   33.4450   44.4550 C   0  0  0  0  0  0  0  0  0  0  0  0
   57.7730   32.6960   43.2780 C   0  0  0  0  0  0  0  0  0  0  0  0
   57.8960   31.3050   43.3320 C   0  0  0  0  0  0  0  0  0  0  0  0
   57.9640   30.6480   44.5730 C   0  0  0  0  0  0  0  0  0  0  0  0
   58.0960   29.2170   44.6650 N   0  0  0  0  0  0  0  0  0  0  0  0
   57.9540   28.4620   45.8830 C   0  0  0  0  0  0  0  0  0  0  0  0
   57.7760   29.0530   46.9810 O   0  0  0  0  0  0  0  0  0  0  0  0
   58.0340   26.9810   45.8540 C   0  0  0  0  0  0  0  0  0  0  0  0
   56.8470   26.2440   45.6860 C   0  0  0  0  0  0  0  0  0  0  0  0
   56.8560   24.8390   45.6790 C   0  0  0  0  0  0  0  0  0  0  0  0
   55.6240   24.0930   45.5360 N   0  0  0  0  0  0  0  0  0  0  0  0
   55.0970   23.7610   44.2070 C   0  0  0  0  0  0  0  0  0  0  0  0
   53.5660   23.7250   44.2530 C   0  0  0  0  0  0  0  0  0  0  0  0
   53.0440   22.7570   45.2510 N   0  0  0  0  0  0  0  0  0  0  0  0
   51.7240   23.1840   45.7450 C   0  0  0  0  0  0  0  0  0  0  0  0
   53.9700   22.4590   46.3730 C   0  0  0  0  0  0  0  0  0  0  0  0
   54.8840   23.6430   46.7240 C   0  0  0  0  0  0  0  0  0  0  0  0
   58.0810   24.1700   45.8320 C   0  0  0  0  0  0  0  0  0  0  0  0
   59.2670   24.8870   45.9930 C   0  0  0  0  0  0  0  0  0  0  0  0
   59.2630   26.2890   46.0000 C   0  0  0  0  0  0  0  0  0  0  0  0
   60.5720   27.0160   46.1660 C   0  0  0  0  0  0  0  0  0  0  0  0
   57.9560   31.4110   45.7510 C   0  0  0  0  0  0  0  0  0  0  0  0
   59.9950   34.4700   45.9630 C   0  0  0  0  0  0  0  0  0  0  0  0
   61.3430   33.8300   46.3280 C   0  0  0  0  0  0  0  0  0  0  0  0
   64.1534   33.1942   48.0928 H   0  0  0  0  0  0  0  0  0  0  0  0
   64.2901   32.2114   46.5954 H   0  0  0  0  0  0  0  0  0  0  0  0
   63.3096   33.7164   46.5954 H   0  0  0  0  0  0  0  0  0  0  0  0
   62.3337   31.1310   47.0002 H   0  0  0  0  0  0  0  0  0  0  0  0
   62.4761   31.7881   48.6740 H   0  0  0  0  0  0  0  0  0  0  0  0
   60.4469   32.7901   49.3835 H   0  0  0  0  0  0  0  0  0  0  0  0
   61.6737   34.0817   49.0098 H   0  0  0  0  0  0  0  0  0  0  0  0
   58.8738   34.3897   49.1895 H   0  0  0  0  0  0  0  0  0  0  0  0
   60.1098   35.5697   48.5427 H   0  0  0  0  0  0  0  0  0  0  0  0
   57.8547   32.9359   47.8298 H   0  0  0  0  0  0  0  0  0  0  0  0
   56.9774   34.2804   46.9514 H   0  0  0  0  0  0  0  0  0  0  0  0
   57.6477   34.5396   44.4045 H   0  0  0  0  0  0  0  0  0  0  0  0
   57.6988   33.2022   42.3042 H   0  0  0  0  0  0  0  0  0  0  0  0
   57.9398   30.7221   42.4002 H   0  0  0  0  0  0  0  0  0  0  0  0
   58.4730   28.7140   43.8300 H   0  0  0  0  0  0  0  0  0  0  0  0
   55.8939   26.7781   45.5577 H   0  0  0  0  0  0  0  0  0  0  0  0
   55.4233   24.5226   43.4835 H   0  0  0  0  0  0  0  0  0  0  0  0
   55.4756   22.7746   43.9009 H   0  0  0  0  0  0  0  0  0  0  0  0
   53.1982   24.7290   44.5112 H   0  0  0  0  0  0  0  0  0  0  0  0
   53.2118   23.4036   43.2624 H   0  0  0  0  0  0  0  0  0  0  0  0
   51.7263   23.1832   46.8450 H   0  0  0  0  0  0  0  0  0  0  0  0
   51.5063   24.1984   45.3795 H   0  0  0  0  0  0  0  0  0  0  0  0
   50.9534   22.4893   45.3795 H   0  0  0  0  0  0  0  0  0  0  0  0
   53.3741   22.2003   47.2607 H   0  0  0  0  0  0  0  0  0  0  0  0
   54.6152   21.6263   46.0564 H   0  0  0  0  0  0  0  0  0  0  0  0
   54.2707   24.4732   47.1043 H   0  0  0  0  0  0  0  0  0  0  0  0
   55.6042   23.3210   47.4905 H   0  0  0  0  0  0  0  0  0  0  0  0
   58.1058   23.0703   45.8249 H   0  0  0  0  0  0  0  0  0  0  0  0
   60.2167   24.3458   46.1159 H   0  0  0  0  0  0  0  0  0  0  0  0
   60.7907   27.1375   47.2372 H   0  0  0  0  0  0  0  0  0  0  0  0
   61.3766   26.4355   45.6910 H   0  0  0  0  0  0  0  0  0  0  0  0
   60.5045   28.0059   45.6910 H   0  0  0  0  0  0  0  0  0  0  0  0
   58.0440   30.9073   46.7249 H   0  0  0  0  0  0  0  0  0  0  0  0
   59.5415   33.8894   45.1462 H   0  0  0  0  0  0  0  0  0  0  0  0
   60.1952   35.5103   45.6669 H   0  0  0  0  0  0  0  0  0  0  0  0
   61.7590   33.3286   45.4417 H   0  0  0  0  0  0  0  0  0  0  0  0
   62.0316   34.6154   46.6729 H   0  0  0  0  0  0  0  0  0  0  0  0
  1  2  1  0
  2  3  1  0
  3  4  1  0
  4  5  1  0
  5  6  1  0
  6  7  1  0
  7  8  1  0
  8  9  2  0
  9 10  1  0
 10 11  2  0
 11 12  1  0
 12 13  1  0
 13 14  1  0
 14 15  2  0
 14 16  1  0
 16 17  2  0
 17 18  1  0
 18 19  1  0
 19 20  1  0
 20 21  1  0
 21 22  1  0
 22 23  1  0
 22 24  1  0
 24 25  1  0
 18 26  2  0
 26 27  1  0
 27 28  2  0
 28 29  1  0
 12 30  2  0
  6 31  1  0
 31 32  1  0
 32  3  1  0
 30  8  1  0
 28 16  1  0
 25 19  1  0
  1 33  1  0
  1 34  1  0
  1 35  1  0
  2 36  1  0
  2 37  1  0
  4 38  1  0
  4 39  1  0
  5 40  1  0
  5 41  1  0
  7 42  1  0
  7 43  1  0
  9 44  1  0
 10 45  1  0
 11 46  1  0
 13 47  1  0
 17 48  1  0
 20 49  1  0
 20 50  1  0
 21 51  1  0
 21 52  1  0
 23 53  1  0
 23 54  1  0
 23 55  1  0
 24 56  1  0
 24 57  1  0
 25 58  1  0
 25 59  1  0
 26 60  1  0
 27 61  1  0
 29 62  1  0
 29 63  1  0
 29 64  1  0
 30 65  1  0
 31 66  1  0
 31 67  1  0
 32 68  1  0
 32 69  1  0
M  END
>  <UniqueID>  (17) 
17

>  <SMILES>  (17) 
CCN1CCN(Cc2cccc(NC(=O)c3cc(N4CCN(C)CC4)ccc3C)c2)CC1

>  <Energy>  (17) 
98.94040898353515

>  <Genealogy>  (17) 
CCN1CCN(Cc2cccc(NC(=O)c3cc(N4CCN(C)CC4)ccc3C)c2)CC1 (3D coordinates assigned)
CCN1CCN(Cc2cccc(NC(=O)c3cc(N4CCN(C)CC4)ccc3C)c2)CC1 (nonaromatic ring conformer: 98.94040898353515 kcal/mol)

>  <smiles>  (17) 
CCN1CCN(Cc2cccc(NC(=O)c3cc(N4CCN(C)CC4)ccc3C)c2)CC1

>  <score_type>  (17) 
oracle

>  <origin>  (17) 
adg

>  <m_score__min__energy>  (17) 
-9.1199999999999992

>  <m_primary>  (17) 
energy

$$$$
17:0
     RDKit          3D

 50 53  0  0  0  0  0  0  0  0999 V2000
   55.1530   26.7090   46.0210 O   0  0  0  0  0  0  0  0  0  0  0  0
   56.1590   26.0110   46.3090 C   0  0  0  0  0  0  0  0  0  0  0  0
   56.0410   24.9820   47.2360 O   0  0  0  0  0  0  0  0  0  0  0  0
   57.4750   26.2790   45.6500 C   0  0  0  0  0  0  0  0  0  0  0  0
   58.5780   25.9430   46.5480 N   0  0  0  0  0  0  0  0  0  0  0  0
   59.6300   26.8330   46.9510 C   0  0  0  0  0  0  0  0  0  0  0  0
   60.8240   26.4870   46.7570 O   0  0  0  0  0  0  0  0  0  0  0  0
   59.3570   28.1250   47.6110 C   0  0  0  0  0  0  0  0  0  0  0  0
   59.6170   28.3010   48.9780 C   0  0  0  0  0  0  0  0  0  0  0  0
   59.3360   29.5230   49.5970 C   0  0  0  0  0  0  0  0  0  0  0  0
   58.7840   30.5820   48.8600 C   0  0  0  0  0  0  0  0  0  0  0  0
   58.4560   31.8900   49.5280 C   0  0  0  0  0  0  0  0  0  0  0  0
   59.2120   32.9820   48.9090 N   0  0  0  0  0  0  0  0  0  0  0  0
   60.1890   33.7380   49.4760 C   0  0  0  0  0  0  0  0  0  0  0  0
   60.7870   33.5100   51.1510 S   0  0  0  0  0  0  0  0  0  0  0  0
   61.7130   31.9960   50.7420 C   0  0  0  0  0  0  0  0  0  0  0  0
   62.4440   32.1950   49.4450 C   0  0  0  0  0  0  0  0  0  0  0  0
   62.1820   31.3550   48.3500 C   0  0  0  0  0  0  0  0  0  0  0  0
   62.8330   31.5620   47.1300 C   0  0  0  0  0  0  0  0  0  0  0  0
   63.7390   32.6150   46.9890 C   0  0  0  0  0  0  0  0  0  0  0  0
   64.0010   33.4600   48.0710 C   0  0  0  0  0  0  0  0  0  0  0  0
   63.3590   33.2560   49.2960 C   0  0  0  0  0  0  0  0  0  0  0  0
   63.6190   34.0950   50.3310 F   0  0  0  0  0  0  0  0  0  0  0  0
   60.6670   34.7130   48.6610 N   0  0  0  0  0  0  0  0  0  0  0  0
   59.9420   34.5480   47.5400 C   0  0  0  0  0  0  0  0  0  0  0  0
   60.0150   35.2980   46.3690 C   0  0  0  0  0  0  0  0  0  0  0  0
   59.1440   34.9580   45.3180 C   0  0  0  0  0  0  0  0  0  0  0  0
   58.2300   33.8900   45.4630 C   0  0  0  0  0  0  0  0  0  0  0  0
   58.1800   33.1510   46.6600 C   0  0  0  0  0  0  0  0  0  0  0  0
   59.0620   33.5120   47.6820 C   0  0  0  0  0  0  0  0  0  0  0  0
   58.5130   30.4000   47.4950 C   0  0  0  0  0  0  0  0  0  0  0  0
   58.7900   29.1780   46.8770 C   0  0  0  0  0  0  0  0  0  0  0  0
   57.5532   25.6695   44.7376 H   0  0  0  0  0  0  0  0  0  0  0  0
   57.5349   27.3484   45.3996 H   0  0  0  0  0  0  0  0  0  0  0  0
   60.0436   27.4746   49.5654 H   0  0  0  0  0  0  0  0  0  0  0  0
   59.5489   29.6550   50.6681 H   0  0  0  0  0  0  0  0  0  0  0  0
   57.3793   32.0901   49.4246 H   0  0  0  0  0  0  0  0  0  0  0  0
   58.7274   31.8258   50.5921 H   0  0  0  0  0  0  0  0  0  0  0  0
   62.4365   31.7806   51.5421 H   0  0  0  0  0  0  0  0  0  0  0  0
   61.0141   31.1521   50.6448 H   0  0  0  0  0  0  0  0  0  0  0  0
   61.4612   30.5304   48.4528 H   0  0  0  0  0  0  0  0  0  0  0  0
   62.6310   30.8940   46.2797 H   0  0  0  0  0  0  0  0  0  0  0  0
   64.2463   32.7794   46.0269 H   0  0  0  0  0  0  0  0  0  0  0  0
   64.7153   34.2889   47.9582 H   0  0  0  0  0  0  0  0  0  0  0  0
   60.7296   36.1283   46.2692 H   0  0  0  0  0  0  0  0  0  0  0  0
   59.1746   35.5271   44.3772 H   0  0  0  0  0  0  0  0  0  0  0  0
   57.5529   33.6344   44.6347 H   0  0  0  0  0  0  0  0  0  0  0  0
   57.4718   32.3189   46.7864 H   0  0  0  0  0  0  0  0  0  0  0  0
   58.0802   31.2239   46.9086 H   0  0  0  0  0  0  0  0  0  0  0  0
   58.5625   29.0406   45.8096 H   0  0  0  0  0  0  0  0  0  0  0  0
  1  2  2  0
  2  3  1  0
  2  4  1  0
  4  5  1  0
  5  6  1  0
  6  7  2  0
  6  8  1  0
  8  9  2  0
  9 10  1  0
 10 11  2  0
 11 12  1  0
 12 13  1  0
 13 14  1  0
 14 15  1  0
 15 16  1  0
 16 17  1  0
 17 18  2  0
 18 19  1  0
 19 20  2  0
 20 21  1  0
 21 22  2  0
 22 23  1  0
 14 24  2  0
 24 25  1  0
 25 26  2  0
 26 27  1  0
 27 28  2  0
 28 29  1  0
 29 30  2  0
 11 31  1  0
 31 32  2  0
 32  8  1  0
 30 13  1  0
 22 17  1  0
 30 25  1  0
  4 33  1  0
  4 34  1  0
  9 35  1  0
 10 36  1  0
 12 37  1  0
 12 38  1  0
 16 39  1  0
 16 40  1  0
 18 41  1  0
 19 42  1  0
 20 43  1  0
 21 44  1  0
 26 45  1  0
 27 46  1  0
 28 47  1  0
 29 48  1  0
 31 49  1  0
 32 50  1  0
M  CHG  2   3  -1   5  -1
M  END
>  <UniqueID>  (18) 
18

>  <SMILES>  (18) 
O=C([O-])C[N-]C(=O)c1ccc(Cn2c(SCc3ccccc3F)nc3ccccc32)cc1

>  <Energy>  (18) 
88.88058153812005

>  <Genealogy>  (18) 
O=C([O-])C[N-]C(=O)c1ccc(Cn2c(SCc3ccccc3F)nc3ccccc32)cc1 (protonated)
O=C([O-])C[N-]C(=O)c1ccc(Cn2c(SCc3ccccc3F)nc3ccccc32)cc1 (3D coordinates assigned)
O=C([O-])C[N-]C(=O)c1ccc(Cn2c(SCc3ccccc3F)nc3ccccc32)cc1 (optimized conformer: 88.88058153812005 kcal/mol)

>  <smiles>  (18) 
O=C(O)CNC(=O)c1ccc(Cn2c(SCc3ccccc3F)nc3ccccc32)cc1

>  <score_type>  (18) 
oracle

>  <origin>  (18) 
adg

>  <m_score__min__energy>  (18) 
-13.720000000000001

>  <m_primary>  (18) 
energy

$$$$
18:0
     RDKit          3D

 55 59  0  0  0  0  0  0  0  0999 V2000
   57.5440   30.6970   46.0440 H   0  0  0  0  0  0  0  0  0  0  0  0
   57.7920   29.9960   46.7320 O   0  0  0  0  0  0  0  0  0  0  0  0
   58.3690   28.7810   46.3650 C   0  0  0  0  0  0  0  0  0  0  0  0
   58.1830   28.1590   45.1430 C   0  0  0  0  0  0  0  0  0  0  0  0
   57.3900   28.6760   43.9810 C   0  0  0  0  0  0  0  0  0  0  0  0
   56.5468   27.9964   43.7882 H   0  0  0  0  0  0  0  0  0  0  0  0
   58.0467   28.7288   43.1001 H   0  0  0  0  0  0  0  0  0  0  0  0
   56.8600   30.0480   44.2700 C   0  0  0  0  0  0  0  0  0  0  0  0
   55.7480   30.1700   44.8540 O   0  0  0  0  0  0  0  0  0  0  0  0
   57.6070   31.1990   43.8470 N   0  0  0  0  0  0  0  0  0  0  0  0
   57.9920   32.1830   44.6050 C   0  0  0  0  0  0  0  0  0  0  0  0
   58.9330   32.0800   45.5680 N   0  0  0  0  0  0  0  0  0  0  0  0
   59.1390   33.2680   46.2040 C   0  0  0  0  0  0  0  0  0  0  0  0
   60.1210   33.3920   47.3100 C   0  0  0  0  0  0  0  0  0  0  0  0
   59.8080   34.0960   48.4880 C   0  0  0  0  0  0  0  0  0  0  0  0
   58.8160   34.5583   48.5982 H   0  0  0  0  0  0  0  0  0  0  0  0
   60.7440   34.2140   49.5190 C   0  0  0  0  0  0  0  0  0  0  0  0
   60.4857   34.7706   50.4319 H   0  0  0  0  0  0  0  0  0  0  0  0
   62.0110   33.6260   49.3950 C   0  0  0  0  0  0  0  0  0  0  0  0
   62.9580   33.7400   50.4260 C   0  0  0  0  0  0  0  0  0  0  0  0
   62.7076   34.2953   51.3419 H   0  0  0  0  0  0  0  0  0  0  0  0
   64.2190   33.1490   50.2910 C   0  0  0  0  0  0  0  0  0  0  0  0
   64.9576   33.2402   51.1011 H   0  0  0  0  0  0  0  0  0  0  0  0
   64.5420   32.4430   49.1290 C   0  0  0  0  0  0  0  0  0  0  0  0
   65.5338   31.9781   49.0275 H   0  0  0  0  0  0  0  0  0  0  0  0
   63.6090   32.3260   48.0960 C   0  0  0  0  0  0  0  0  0  0  0  0
   63.8694   31.7702   47.1832 H   0  0  0  0  0  0  0  0  0  0  0  0
   62.3400   32.9150   48.2180 C   0  0  0  0  0  0  0  0  0  0  0  0
   61.3960   32.8080   47.1830 C   0  0  0  0  0  0  0  0  0  0  0  0
   61.6556   32.2623   46.2638 H   0  0  0  0  0  0  0  0  0  0  0  0
   58.3440   34.3200   45.7360 C   0  0  0  0  0  0  0  0  0  0  0  0
   58.3553   35.3531   46.1135 H   0  0  0  0  0  0  0  0  0  0  0  0
   57.3670   33.7340   44.4960 S   0  0  0  0  0  0  0  0  0  0  0  0
   58.9280   26.9920   45.1740 C   0  0  0  0  0  0  0  0  0  0  0  0
   59.0288   26.2468   44.3711 H   0  0  0  0  0  0  0  0  0  0  0  0
   59.5180   26.9580   46.4220 C   0  0  0  0  0  0  0  0  0  0  0  0
   60.3460   25.9370   46.8780 O   0  0  0  0  0  0  0  0  0  0  0  0
   59.1880   28.0450   47.1490 N   0  0  0  0  0  0  0  0  0  0  0  0
   59.5970   28.3300   48.5270 C   0  0  0  0  0  0  0  0  0  0  0  0
   58.7002   28.4124   49.1586 H   0  0  0  0  0  0  0  0  0  0  0  0
   60.2416   27.5105   48.8776 H   0  0  0  0  0  0  0  0  0  0  0  0
   60.3890   29.6430   48.6060 C   0  0  0  0  0  0  0  0  0  0  0  0
   61.4464   29.4117   48.8020 H   0  0  0  0  0  0  0  0  0  0  0  0
   60.2757   30.1732   47.6489 H   0  0  0  0  0  0  0  0  0  0  0  0
   59.8710   30.5330   49.7040 C   0  0  0  0  0  0  0  0  0  0  0  0
   58.6060   31.1330   49.5870 C   0  0  0  0  0  0  0  0  0  0  0  0
   57.9824   30.9294   48.7040 H   0  0  0  0  0  0  0  0  0  0  0  0
   58.1370   31.9880   50.5890 C   0  0  0  0  0  0  0  0  0  0  0  0
   57.1426   32.4492   50.4968 H   0  0  0  0  0  0  0  0  0  0  0  0
   58.9300   32.2570   51.7070 C   0  0  0  0  0  0  0  0  0  0  0  0
   58.5587   32.9289   52.4949 H   0  0  0  0  0  0  0  0  0  0  0  0
   60.1940   31.6740   51.8260 C   0  0  0  0  0  0  0  0  0  0  0  0
   60.8180   31.8897   52.7059 H   0  0  0  0  0  0  0  0  0  0  0  0
   60.6670   30.8160   50.8270 C   0  0  0  0  0  0  0  0  0  0  0  0
   61.6645   30.3619   50.9209 H   0  0  0  0  0  0  0  0  0  0  0  0
  1  2  1  0
  2  3  1  0
  3  4  2  0
  4  5  1  0
  5  6  1  0
  5  7  1  0
  5  8  1  0
  8  9  2  0
  8 10  1  0
 10 11  2  0
 11 12  1  0
 12 13  1  0
 13 14  1  0
 14 15  2  0
 15 16  1  0
 15 17  1  0
 17 18  1  0
 17 19  2  0
 19 20  1  0
 20 21  1  0
 20 22  2  0
 22 23  1  0
 22 24  1  0
 24 25  1  0
 24 26  2  0
 26 27  1  0
 26 28  1  0
 28 29  2  0
 29 30  1  0
 13 31  2  0
 31 32  1  0
 31 33  1  0
  4 34  1  0
 34 35  1  0
 34 36  2  0
 36 37  1  0
 36 38  1  0
 38 39  1  0
 39 40  1  0
 39 41  1  0
 39 42  1  0
 42 43  1  0
 42 44  1  0
 42 45  1  0
 45 46  2  0
 46 47  1  0
 46 48  1  0
 48 49  1  0
 48 50  2  0
 50 51  1  0
 50 52  1  0
 52 53  1  0
 52 54  2  0
 54 55  1  0
 38  3  1  0
 54 45  1  0
 33 11  1  0
 29 14  1  0
 28 19  1  0
M  CHG  2  12  -1  37  -1
M  END
>  <UniqueID>  (19) 
19

>  <SMILES>  (19) 
O=C(Cc1cc([O-])n(CCc2ccccc2)c1O)/N=c1\[n-]c(-c2ccc3ccccc3c2)cs1

>  <Energy>  (19) 
120.13547258718255

>  <Genealogy>  (19) 
O=C(Cc1cc([O-])n(CCc2ccccc2)c1O)N=c1[n-]c(-c2ccc3ccccc3c2)cs1 (protonated)
O=C(Cc1cc([O-])n(CCc2ccccc2)c1O)/N=c1\[n-]c(-c2ccc3ccccc3c2)cs1 (cis-trans isomerization)
O=C(Cc1cc([O-])n(CCc2ccccc2)c1O)/N=c1\[n-]c(-c2ccc3ccccc3c2)cs1 (3D coordinates assigned)
O=C(Cc1cc([O-])n(CCc2ccccc2)c1O)/N=c1\[n-]c(-c2ccc3ccccc3c2)cs1 (optimized conformer: 120.13547258718255 kcal/mol)

>  <smiles>  (19) 
O=C(Cc1cc(O)n(CCc2ccccc2)c1O)N=c1[nH]c(-c2ccc3ccccc3c2)cs1

>  <score_type>  (19) 
oracle

>  <origin>  (19) 
adg

>  <m_score__min__energy>  (19) 
-13.630000000000001

>  <m_primary>  (19) 
energy

$$$$
19:0
     RDKit          3D

 50 53  0  0  0  0  0  0  0  0999 V2000
   60.9698   34.1001   48.3941 H   0  0  0  0  0  0  0  0  0  0  0  0
   60.0380   33.8690   48.9310 C   0  0  0  0  0  0  0  0  0  0  0  0
   59.2342   34.6180   48.9853 H   0  0  0  0  0  0  0  0  0  0  0  0
   59.8830   32.6830   49.5150 C   0  0  0  0  0  0  0  0  0  0  0  0
   58.5070   32.2160   50.3620 S   0  0  0  0  0  0  0  0  0  0  0  0
   59.0800   30.6970   50.8260 C   0  0  0  0  0  0  0  0  0  0  0  0
   58.4350   29.7750   51.5550 C   0  0  0  0  0  0  0  0  0  0  0  0
   58.8243   28.7462   51.5451 H   0  0  0  0  0  0  0  0  0  0  0  0
   57.2360   30.0520   52.3700 C   0  0  0  0  0  0  0  0  0  0  0  0
   56.0110   30.1460   51.9090 O   0  0  0  0  0  0  0  0  0  0  0  0
   55.1970   30.4000   52.9100 C   0  0  0  0  0  0  0  0  0  0  0  0
   53.7350   30.5680   52.7480 C   0  0  0  0  0  0  0  0  0  0  0  0
   52.8490   30.3650   53.8200 C   0  0  0  0  0  0  0  0  0  0  0  0
   53.2411   30.0728   54.8053 H   0  0  0  0  0  0  0  0  0  0  0  0
   51.4740   30.5320   53.6420 C   0  0  0  0  0  0  0  0  0  0  0  0
   50.7889   30.3722   54.4877 H   0  0  0  0  0  0  0  0  0  0  0  0
   50.9650   30.9010   52.3950 C   0  0  0  0  0  0  0  0  0  0  0  0
   49.8806   31.0294   52.2624 H   0  0  0  0  0  0  0  0  0  0  0  0
   51.8320   31.1090   51.3090 C   0  0  0  0  0  0  0  0  0  0  0  0
   51.2990   31.5010   49.9850 C   0  0  0  0  0  0  0  0  0  0  0  0
   51.0210   32.7050   49.7360 O   0  0  0  0  0  0  0  0  0  0  0  0
   51.0970   30.5460   48.9950 O   0  0  0  0  0  0  0  0  0  0  0  0
   53.2150   30.9410   51.4950 C   0  0  0  0  0  0  0  0  0  0  0  0
   53.8999   31.1033   50.6497 H   0  0  0  0  0  0  0  0  0  0  0  0
   55.9260   30.4770   54.0870 C   0  0  0  0  0  0  0  0  0  0  0  0
   55.5355   30.6762   55.0959 H   0  0  0  0  0  0  0  0  0  0  0  0
   57.2400   30.2530   53.7350 C   0  0  0  0  0  0  0  0  0  0  0  0
   58.1124   30.2377   54.4048 H   0  0  0  0  0  0  0  0  0  0  0  0
   60.3670   30.5370   50.3180 C   0  0  0  0  0  0  0  0  0  0  0  0
   60.9722   29.6328   50.4796 H   0  0  0  0  0  0  0  0  0  0  0  0
   60.8160   31.6440   49.5790 C   0  0  0  0  0  0  0  0  0  0  0  0
   62.1050   31.6710   48.9460 N   0  0  0  0  0  0  0  0  0  0  0  0
   63.2920   32.1090   49.6830 C   0  0  0  0  0  0  0  0  0  0  0  0
   62.9802   32.5421   50.6449 H   0  0  0  0  0  0  0  0  0  0  0  0
   63.9453   31.2398   49.8492 H   0  0  0  0  0  0  0  0  0  0  0  0
   64.0720   33.1680   48.8810 C   0  0  0  0  0  0  0  0  0  0  0  0
   63.6545   34.1572   49.1200 H   0  0  0  0  0  0  0  0  0  0  0  0
   65.1282   33.0674   49.1714 H   0  0  0  0  0  0  0  0  0  0  0  0
   64.0170   32.9830   47.4010 N   0  0  0  0  0  0  0  0  0  0  0  0
   64.9840   33.1350   47.0260 H   0  0  0  0  0  0  0  0  0  0  0  0
   63.1610   34.0030   46.7630 C   0  0  0  0  0  0  0  0  0  0  0  0
   62.6604   34.5995   47.5398 H   0  0  0  0  0  0  0  0  0  0  0  0
   63.7804   34.6620   46.1369 H   0  0  0  0  0  0  0  0  0  0  0  0
   62.4045   33.5073   46.1369 H   0  0  0  0  0  0  0  0  0  0  0  0
   63.6170   31.6150   46.9960 C   0  0  0  0  0  0  0  0  0  0  0  0
   63.5822   31.5647   45.8977 H   0  0  0  0  0  0  0  0  0  0  0  0
   64.3566   30.9085   47.4009 H   0  0  0  0  0  0  0  0  0  0  0  0
   62.2380   31.2350   47.5550 C   0  0  0  0  0  0  0  0  0  0  0  0
   61.4572   31.7180   46.9491 H   0  0  0  0  0  0  0  0  0  0  0  0
   62.1299   30.1410   47.5156 H   0  0  0  0  0  0  0  0  0  0  0  0
  1  2  1  0
  2  3  1  0
  2  4  2  0
  4  5  1  0
  5  6  1  0
  6  7  2  0
  7  8  1  0
  7  9  1  0
  9 10  1  0
 10 11  1  0
 11 12  1  0
 12 13  2  0
 13 14  1  0
 13 15  1  0
 15 16  1  0
 15 17  2  0
 17 18  1  0
 17 19  1  0
 19 20  1  0
 20 21  2  0
 20 22  1  0
 19 23  2  0
 23 24  1  0
 11 25  2  0
 25 26  1  0
 25 27  1  0
 27 28  1  0
  6 29  1  0
 29 30  1  0
 29 31  2  0
 31 32  1  0
 32 33  1  0
 33 34  1  0
 33 35  1  0
 33 36  1  0
 36 37  1  0
 36 38  1  0
 36 39  1  0
 39 40  1  0
 39 41  1  0
 41 42  1  0
 41 43  1  0
 41 44  1  0
 39 45  1  0
 45 46  1  0
 45 47  1  0
 45 48  1  0
 48 49  1  0
 48 50  1  0
 31  4  1  0
 48 32  1  0
 27  9  2  0
 23 12  1  0
M  CHG  2  22  -1  39   1
M  END
>  <UniqueID>  (20) 
20

>  <SMILES>  (20) 
C=c1s/c(=C\c2ccc(-c3cccc(C(=O)[O-])c3)o2)cc1N1CC[NH+](C)CC1

>  <Energy>  (20) 
120.00146394084024

>  <Genealogy>  (20) 
C=c1sc(=Cc2ccc(-c3cccc(C(=O)[O-])c3)o2)cc1N1CC[NH+](C)CC1 (protonated)
C=c1s/c(=C\c2ccc(-c3cccc(C(=O)[O-])c3)o2)cc1N1CC[NH+](C)CC1 (cis-trans isomerization)
C=c1s/c(=C\c2ccc(-c3cccc(C(=O)[O-])c3)o2)cc1N1CC[NH+](C)CC1 (3D coordinates assigned)
C=c1s/c(=C\c2ccc(-c3cccc(C(=O)[O-])c3)o2)cc1N1CC[NH+](C)CC1 (nonaromatic ring conformer: 120.00146394084024 kcal/mol)

>  <smiles>  (20) 
C=c1sc(=Cc2ccc(-c3cccc(C(=O)O)c3)o2)cc1N1CCN(C)CC1

>  <score_type>  (20) 
oracle

>  <origin>  (20) 
adg

>  <m_score__min__energy>  (20) 
-11.640000000000001

>  <m_primary>  (20) 
energy

$$$$
20:0
     RDKit          3D

 44 46  0  0  0  0  0  0  0  0999 V2000
   55.3430   30.2730   44.0900 C   0  0  0  0  0  0  0  0  0  0  0  0
   56.2970   29.5530   44.6850 C   0  0  0  0  0  0  0  0  0  0  0  0
   56.0680   28.3510   45.2500 N   0  0  0  0  0  0  0  0  0  0  0  0
   57.2600   27.8840   45.6830 C   0  0  0  0  0  0  0  0  0  0  0  0
   57.4400   26.6870   46.2690 C   0  0  0  0  0  0  0  0  0  0  0  0
   56.9120   25.4250   45.7060 C   0  0  0  0  0  0  0  0  0  0  0  0
   55.5290   25.1940   45.5390 C   0  0  0  0  0  0  0  0  0  0  0  0
   54.5700   26.1320   45.9280 O   0  0  0  0  0  0  0  0  0  0  0  0
   55.1060   24.0190   45.0050 N   0  0  0  0  0  0  0  0  0  0  0  0
   55.9840   23.0500   44.6460 C   0  0  0  0  0  0  0  0  0  0  0  0
   55.5630   21.9720   44.1520 O   0  0  0  0  0  0  0  0  0  0  0  0
   57.3160   23.2360   44.8270 N   0  0  0  0  0  0  0  0  0  0  0  0
   57.7960   24.3930   45.3510 C   0  0  0  0  0  0  0  0  0  0  0  0
   59.0400   24.5310   45.5020 O   0  0  0  0  0  0  0  0  0  0  0  0
   58.2650   28.8050   45.4000 C   0  0  0  0  0  0  0  0  0  0  0  0
   59.7290   28.6630   45.6970 C   0  0  0  0  0  0  0  0  0  0  0  0
   57.6470   29.8740   44.7640 C   0  0  0  0  0  0  0  0  0  0  0  0
   58.3110   31.0870   44.2420 C   0  0  0  0  0  0  0  0  0  0  0  0
   58.3350   31.2780   42.9960 O   0  0  0  0  0  0  0  0  0  0  0  0
   58.9130   32.0540   45.1250 N   0  0  0  0  0  0  0  0  0  0  0  0
   59.0200   33.4510   44.6800 C   0  0  0  0  0  0  0  0  0  0  0  0
   59.6420   34.3470   45.7600 C   0  0  0  0  0  0  0  0  0  0  0  0
   59.0510   34.0280   47.1400 C   0  0  0  0  0  0  0  0  0  0  0  0
   57.6800   34.3360   47.1360 O   0  0  0  0  0  0  0  0  0  0  0  0
   59.2680   32.5450   47.5350 C   0  0  0  0  0  0  0  0  0  0  0  0
   59.6090   31.6260   46.3480 C   0  0  0  0  0  0  0  0  0  0  0  0
   55.5873   31.2489   43.6450 H   0  0  0  0  0  0  0  0  0  0  0  0
   54.3127   29.8903   44.0448 H   0  0  0  0  0  0  0  0  0  0  0  0
   55.1440   27.8630   45.2990 H   0  0  0  0  0  0  0  0  0  0  0  0
   58.0063   26.6443   47.2110 H   0  0  0  0  0  0  0  0  0  0  0  0
   53.6970   25.8740   46.3700 H   0  0  0  0  0  0  0  0  0  0  0  0
   59.8824   28.6481   46.7861 H   0  0  0  0  0  0  0  0  0  0  0  0
   60.1022   27.7244   45.2613 H   0  0  0  0  0  0  0  0  0  0  0  0
   60.2756   29.5123   45.2613 H   0  0  0  0  0  0  0  0  0  0  0  0
   59.6494   33.4904   43.7787 H   0  0  0  0  0  0  0  0  0  0  0  0
   58.0058   33.8218   44.4704 H   0  0  0  0  0  0  0  0  0  0  0  0
   60.7288   34.1793   45.7857 H   0  0  0  0  0  0  0  0  0  0  0  0
   59.4221   35.3969   45.5165 H   0  0  0  0  0  0  0  0  0  0  0  0
   59.5727   34.6414   47.8894 H   0  0  0  0  0  0  0  0  0  0  0  0
   57.2050   33.5300   46.8010 H   0  0  0  0  0  0  0  0  0  0  0  0
   60.0950   32.4969   48.2588 H   0  0  0  0  0  0  0  0  0  0  0  0
   58.3174   32.1843   47.9548 H   0  0  0  0  0  0  0  0  0  0  0  0
   60.6944   31.6557   46.1719 H   0  0  0  0  0  0  0  0  0  0  0  0
   59.2830   30.6047   46.5942 H   0  0  0  0  0  0  0  0  0  0  0  0
  1  2  2  0
  2  3  1  0
  3  4  1  0
  4  5  2  3
  5  6  1  0
  6  7  2  0
  7  8  1  0
  7  9  1  0
  9 10  1  0
 10 11  2  0
 10 12  1  0
 12 13  1  0
 13 14  2  0
  4 15  1  0
 15 16  1  0
 15 17  2  0
 17 18  1  0
 18 19  2  0
 18 20  1  0
 20 21  1  0
 21 22  1  0
 22 23  1  0
 23 24  1  0
 23 25  1  0
 25 26  1  0
 17  2  1  0
 26 20  1  0
 13  6  1  0
  1 27  1  0
  1 28  1  0
  3 29  1  0
  5 30  1  0
  8 31  1  0
 16 32  1  0
 16 33  1  0
 16 34  1  0
 21 35  1  0
 21 36  1  0
 22 37  1  0
 22 38  1  0
 23 39  1  0
 24 40  1  0
 25 41  1  0
 25 42  1  0
 26 43  1  0
 26 44  1  0
M  CHG  2   9  -1  12  -1
M  END
>  <UniqueID>  (21) 
21

>  <SMILES>  (21) 
C=c1[nH]c(=Cc2c(O)[n-]c(=O)[n-]c2=O)c(C)c1C(=O)N1CCC(O)CC1

>  <Energy>  (21) 
88.94357729120097

>  <Genealogy>  (21) 
C=c1[nH]c(=Cc2c(O)[n-]c(=O)[n-]c2=O)c(C)c1C(=O)N1CCC(O)CC1 (protonated)
C=c1[nH]c(=Cc2c(O)[n-]c(=O)[n-]c2=O)c(C)c1C(=O)N1CCC(O)CC1 (3D coordinates assigned)
C=c1[nH]c(=Cc2c(O)[n-]c(=O)[n-]c2=O)c(C)c1C(=O)N1CCC(O)CC1 (nonaromatic ring conformer: 88.94357729120097 kcal/mol)

>  <smiles>  (21) 
C=c1[nH]c(=Cc2c(O)[nH]c(=O)[nH]c2=O)c(C)c1C(=O)N1CCC(O)CC1

>  <score_type>  (21) 
oracle

>  <origin>  (21) 
adg

>  <m_score__min__energy>  (21) 
-13.32

>  <m_primary>  (21) 
energy

$$$$
21:0
     RDKit          3D

 52 55  0  0  0  0  0  0  0  0999 V2000
   53.7310   26.3380   46.7340 H   0  0  0  0  0  0  0  0  0  0  0  0
   54.3290   26.0100   45.9840 O   0  0  0  0  0  0  0  0  0  0  0  0
   55.7000   26.2480   45.9890 C   0  0  0  0  0  0  0  0  0  0  0  0
   56.2440   27.4370   45.6850 N   0  0  0  0  0  0  0  0  0  0  0  0
   57.5690   27.1990   45.7870 C   0  0  0  0  0  0  0  0  0  0  0  0
   58.4540   28.1010   45.4880 N   0  0  0  0  0  0  0  0  0  0  0  0
   58.1920   29.5110   45.4830 C   0  0  0  0  0  0  0  0  0  0  0  0
   57.4720   30.0910   44.4260 C   0  0  0  0  0  0  0  0  0  0  0  0
   57.0813   29.4568   43.6166 H   0  0  0  0  0  0  0  0  0  0  0  0
   57.2500   31.4690   44.3980 C   0  0  0  0  0  0  0  0  0  0  0  0
   56.6842   31.9179   43.5683 H   0  0  0  0  0  0  0  0  0  0  0  0
   57.7460   32.2780   45.4230 C   0  0  0  0  0  0  0  0  0  0  0  0
   57.5730   33.3640   45.3975 H   0  0  0  0  0  0  0  0  0  0  0  0
   58.4610   31.7110   46.4800 C   0  0  0  0  0  0  0  0  0  0  0  0
   58.8448   32.3516   47.2877 H   0  0  0  0  0  0  0  0  0  0  0  0
   58.6920   30.3270   46.5160 C   0  0  0  0  0  0  0  0  0  0  0  0
   59.5210   29.6020   47.8950 S   0  0  0  0  0  0  0  0  0  0  0  0
   58.5060   28.8850   48.7450 O   0  0  0  0  0  0  0  0  0  0  0  0
   60.5450   28.6060   47.4250 O   0  0  0  0  0  0  0  0  0  0  0  0
   60.3200   30.8460   48.7330 O   0  0  0  0  0  0  0  0  0  0  0  0
   59.8490   30.9010   50.0570 C   0  0  0  0  0  0  0  0  0  0  0  0
   60.7013   30.9303   50.7518 H   0  0  0  0  0  0  0  0  0  0  0  0
   59.2398   30.0113   50.2744 H   0  0  0  0  0  0  0  0  0  0  0  0
   59.0230   32.1350   50.2230 C   0  0  0  0  0  0  0  0  0  0  0  0
   57.8470   32.0360   50.6690 O   0  0  0  0  0  0  0  0  0  0  0  0
   59.5680   33.4060   49.8280 N   0  0  0  0  0  0  0  0  0  0  0  0
   59.8160   33.8050   48.6130 C   0  0  0  0  0  0  0  0  0  0  0  0
   58.9070   34.5350   47.9040 N   0  0  0  0  0  0  0  0  0  0  0  0
   59.1570   34.9650   46.6380 C   0  0  0  0  0  0  0  0  0  0  0  0
   58.3997   35.5504   46.0960 H   0  0  0  0  0  0  0  0  0  0  0  0
   60.3750   34.6630   46.0270 C   0  0  0  0  0  0  0  0  0  0  0  0
   60.5832   35.0062   45.0029 H   0  0  0  0  0  0  0  0  0  0  0  0
   61.3260   33.9210   46.7290 C   0  0  0  0  0  0  0  0  0  0  0  0
   62.2909   33.6771   46.2606 H   0  0  0  0  0  0  0  0  0  0  0  0
   61.0490   33.4890   48.0280 C   0  0  0  0  0  0  0  0  0  0  0  0
   61.7940   32.9046   48.5879 H   0  0  0  0  0  0  0  0  0  0  0  0
   57.8870   25.9300   46.1290 N   0  0  0  0  0  0  0  0  0  0  0  0
   56.6920   25.3330   46.2700 C   0  0  0  0  0  0  0  0  0  0  0  0
   56.5280   23.8630   46.5110 C   0  0  0  0  0  0  0  0  0  0  0  0
   57.2895   23.5250   47.2292 H   0  0  0  0  0  0  0  0  0  0  0  0
   55.5224   23.6746   46.9150 H   0  0  0  0  0  0  0  0  0  0  0  0
   56.6900   23.1060   45.2210 C   0  0  0  0  0  0  0  0  0  0  0  0
   55.9370   23.4680   44.0900 C   0  0  0  0  0  0  0  0  0  0  0  0
   55.2491   24.3248   44.1421 H   0  0  0  0  0  0  0  0  0  0  0  0
   56.0580   22.7450   42.9000 C   0  0  0  0  0  0  0  0  0  0  0  0
   55.4627   23.0308   42.0203 H   0  0  0  0  0  0  0  0  0  0  0  0
   56.9350   21.6590   42.8270 C   0  0  0  0  0  0  0  0  0  0  0  0
   57.0334   21.0943   41.8882 H   0  0  0  0  0  0  0  0  0  0  0  0
   57.6870   21.2900   43.9460 C   0  0  0  0  0  0  0  0  0  0  0  0
   58.3772   20.4356   43.8864 H   0  0  0  0  0  0  0  0  0  0  0  0
   57.5630   22.0060   45.1420 C   0  0  0  0  0  0  0  0  0  0  0  0
   58.1501   21.7076   46.0231 H   0  0  0  0  0  0  0  0  0  0  0  0
  1  2  1  0
  2  3  1  0
  3  4  1  0
  4  5  1  0
  5  6  2  3
  6  7  1  0
  7  8  2  0
  8  9  1  0
  8 10  1  0
 10 11  1  0
 10 12  2  0
 12 13  1  0
 12 14  1  0
 14 15  1  0
 14 16  2  0
 16 17  1  0
 17 18  2  0
 17 19  2  0
 17 20  1  0
 20 21  1  0
 21 22  1  0
 21 23  1  0
 21 24  1  0
 24 25  2  0
 24 26  1  0
 26 27  2  0
 27 28  1  0
 28 29  1  0
 29 30  1  0
 29 31  2  0
 31 32  1  0
 31 33  1  0
 33 34  1  0
 33 35  2  0
 35 36  1  0
  5 37  1  0
 37 38  1  0
 38 39  1  0
 39 40  1  0
 39 41  1  0
 39 42  1  0
 42 43  2  0
 43 44  1  0
 43 45  1  0
 45 46  1  0
 45 47  2  0
 47 48  1  0
 47 49  1  0
 49 50  1  0
 49 51  2  0
 51 52  1  0
 38  3  2  0
 51 42  1  0
 16  7  1  0
 35 27  1  0
M  CHG  3   4  -1  28  -1  37  -1
M  END
>  <UniqueID>  (22) 
22

>  <SMILES>  (22) 
O=C(COS(=O)(=O)c1ccccc1N=c1[n-]c(O)c(Cc2ccccc2)[n-]1)/N=c1/cccc[n-]1

>  <Energy>  (22) 
91.64578536094442

>  <Genealogy>  (22) 
O=C(COS(=O)(=O)c1ccccc1N=c1[n-]c(O)c(Cc2ccccc2)[n-]1)N=c1cccc[n-]1 (protonated)
O=C(COS(=O)(=O)c1ccccc1N=c1[n-]c(O)c(Cc2ccccc2)[n-]1)/N=c1/cccc[n-]1 (cis-trans isomerization)
O=C(COS(=O)(=O)c1ccccc1N=c1[n-]c(O)c(Cc2ccccc2)[n-]1)/N=c1/cccc[n-]1 (3D coordinates assigned)
O=C(COS(=O)(=O)c1ccccc1N=c1[n-]c(O)c(Cc2ccccc2)[n-]1)/N=c1/cccc[n-]1 (optimized conformer: 91.64578536094442 kcal/mol)

>  <smiles>  (22) 
O=C(COS(=O)(=O)c1ccccc1N=c1[nH]c(O)c(Cc2ccccc2)[nH]1)N=c1cccc[nH]1

>  <score_type>  (22) 
oracle

>  <origin>  (22) 
adg

>  <m_score__min__energy>  (22) 
-14.48

>  <m_primary>  (22) 
energy

$$$$
22:0
     RDKit          3D

 68 72  0  0  0  0  0  0  0  0999 V2000
   62.4530   30.5120   50.6250 C   0  0  0  0  0  0  0  0  0  0  0  0
   61.0410   30.8410   50.2550 C   0  0  0  0  0  0  0  0  0  0  0  0
   60.1240   31.3200   51.1170 N   0  0  0  0  0  0  0  0  0  0  0  0
   58.9800   31.4820   50.4660 N   0  0  0  0  0  0  0  0  0  0  0  0
   57.7590   32.0080   51.0660 C   0  0  0  0  0  0  0  0  0  0  0  0
   59.1430   31.1280   49.1750 C   0  0  0  0  0  0  0  0  0  0  0  0
   60.4500   30.6990   49.0060 C   0  0  0  0  0  0  0  0  0  0  0  0
   61.0560   30.1450   47.7490 C   0  0  0  0  0  0  0  0  0  0  0  0
   59.9960   29.9290   46.7010 C   0  0  0  0  0  0  0  0  0  0  0  0
   59.5310   31.0100   45.9380 C   0  0  0  0  0  0  0  0  0  0  0  0
   58.5490   30.8170   44.9580 C   0  0  0  0  0  0  0  0  0  0  0  0
   58.0640   31.9680   44.1740 C   0  0  0  0  0  0  0  0  0  0  0  0
   57.8720   31.8470   42.9370 O   0  0  0  0  0  0  0  0  0  0  0  0
   57.9080   33.2540   44.7890 N   0  0  0  0  0  0  0  0  0  0  0  0
   58.8990   34.3010   44.5120 C   0  0  0  0  0  0  0  0  0  0  0  0
   59.3700   34.9460   45.8310 C   0  0  0  0  0  0  0  0  0  0  0  0
   59.2870   33.9520   46.9240 N   0  0  0  0  0  0  0  0  0  0  0  0
   59.9780   34.4500   48.1310 C   0  0  0  0  0  0  0  0  0  0  0  0
   61.4070   33.9600   48.1680 C   0  0  0  0  0  0  0  0  0  0  0  0
   62.1470   34.0440   49.3610 C   0  0  0  0  0  0  0  0  0  0  0  0
   63.4760   33.6110   49.4060 C   0  0  0  0  0  0  0  0  0  0  0  0
   64.0720   33.0850   48.2570 C   0  0  0  0  0  0  0  0  0  0  0  0
   63.3480   33.0020   47.0620 C   0  0  0  0  0  0  0  0  0  0  0  0
   62.0160   33.4350   47.0170 C   0  0  0  0  0  0  0  0  0  0  0  0
   57.8740   33.5990   47.2210 C   0  0  0  0  0  0  0  0  0  0  0  0
   57.0290   33.4470   45.9390 C   0  0  0  0  0  0  0  0  0  0  0  0
   58.0440   29.5290   44.7320 C   0  0  0  0  0  0  0  0  0  0  0  0
   58.4640   28.4450   45.5200 C   0  0  0  0  0  0  0  0  0  0  0  0
   57.8720   27.1000   45.3090 C   0  0  0  0  0  0  0  0  0  0  0  0
   57.9400   26.4820   44.0420 C   0  0  0  0  0  0  0  0  0  0  0  0
   57.3930   25.2090   43.8420 C   0  0  0  0  0  0  0  0  0  0  0  0
   56.7740   24.5410   44.9020 C   0  0  0  0  0  0  0  0  0  0  0  0
   56.6980   25.1480   46.1630 C   0  0  0  0  0  0  0  0  0  0  0  0
   57.2410   26.4210   46.3670 C   0  0  0  0  0  0  0  0  0  0  0  0
   59.4430   28.6540   46.5060 C   0  0  0  0  0  0  0  0  0  0  0  0
   62.5492   30.4896   51.7206 H   0  0  0  0  0  0  0  0  0  0  0  0
   62.7201   29.5276   50.2132 H   0  0  0  0  0  0  0  0  0  0  0  0
   63.1277   31.2770   50.2132 H   0  0  0  0  0  0  0  0  0  0  0  0
   60.2710   31.5320   52.1300 H   0  0  0  0  0  0  0  0  0  0  0  0
   57.8439   31.9714   52.1621 H   0  0  0  0  0  0  0  0  0  0  0  0
   57.6115   33.0495   50.7442 H   0  0  0  0  0  0  0  0  0  0  0  0
   56.9008   31.3998   50.7442 H   0  0  0  0  0  0  0  0  0  0  0  0
   58.3720   31.1721   48.3916 H   0  0  0  0  0  0  0  0  0  0  0  0
   61.8046   30.8539   47.3655 H   0  0  0  0  0  0  0  0  0  0  0  0
   61.5298   29.1793   47.9790 H   0  0  0  0  0  0  0  0  0  0  0  0
   59.9403   32.0164   46.1104 H   0  0  0  0  0  0  0  0  0  0  0  0
   59.7626   33.8571   43.9952 H   0  0  0  0  0  0  0  0  0  0  0  0
   58.4397   35.0731   43.8772 H   0  0  0  0  0  0  0  0  0  0  0  0
   60.4108   35.2850   45.7221 H   0  0  0  0  0  0  0  0  0  0  0  0
   58.7268   35.8062   46.0684 H   0  0  0  0  0  0  0  0  0  0  0  0
   59.9734   35.5500   48.1219 H   0  0  0  0  0  0  0  0  0  0  0  0
   59.4517   34.0739   49.0207 H   0  0  0  0  0  0  0  0  0  0  0  0
   61.6763   34.4539   50.2667 H   0  0  0  0  0  0  0  0  0  0  0  0
   64.0495   33.6842   50.3418 H   0  0  0  0  0  0  0  0  0  0  0  0
   65.1142   32.7348   48.2917 H   0  0  0  0  0  0  0  0  0  0  0  0
   63.8249   32.5966   46.1575 H   0  0  0  0  0  0  0  0  0  0  0  0
   61.4467   33.3635   46.0785 H   0  0  0  0  0  0  0  0  0  0  0  0
   57.8551   32.6475   47.7726 H   0  0  0  0  0  0  0  0  0  0  0  0
   57.4400   34.4158   47.8164 H   0  0  0  0  0  0  0  0  0  0  0  0
   56.3639   32.5768   46.0407 H   0  0  0  0  0  0  0  0  0  0  0  0
   56.4282   34.3562   45.7893 H   0  0  0  0  0  0  0  0  0  0  0  0
   57.3107   29.3655   43.9286 H   0  0  0  0  0  0  0  0  0  0  0  0
   58.4265   27.0046   43.2052 H   0  0  0  0  0  0  0  0  0  0  0  0
   57.4504   24.7348   42.8511 H   0  0  0  0  0  0  0  0  0  0  0  0
   56.3467   23.5394   44.7468 H   0  0  0  0  0  0  0  0  0  0  0  0
   56.2093   24.6212   46.9958 H   0  0  0  0  0  0  0  0  0  0  0  0
   57.1743   26.8927   47.3585 H   0  0  0  0  0  0  0  0  0  0  0  0
   59.7784   27.8122   47.1296 H   0  0  0  0  0  0  0  0  0  0  0  0
  1  2  1  0
  2  3  2  0
  3  4  1  0
  4  5  1  0
  4  6  1  0
  6  7  2  0
  7  8  1  0
  8  9  1  0
  9 10  2  0
 10 11  1  0
 11 12  1  0
 12 13  2  0
 12 14  1  0
 14 15  1  0
 15 16  1  0
 16 17  1  0
 17 18  1  0
 18 19  1  0
 19 20  2  0
 20 21  1  0
 21 22  2  0
 22 23  1  0
 23 24  2  0
 17 25  1  0
 25 26  1  0
 11 27  2  0
 27 28  1  0
 28 29  1  0
 29 30  2  0
 30 31  1  0
 31 32  2  0
 32 33  1  0
 33 34  2  0
 28 35  2  0
  7  2  1  0
 35  9  1  0
 26 14  1  0
 34 29  1  0
 24 19  1  0
  1 36  1  0
  1 37  1  0
  1 38  1  0
  3 39  1  0
  5 40  1  0
  5 41  1  0
  5 42  1  0
  6 43  1  0
  8 44  1  0
  8 45  1  0
 10 46  1  0
 15 47  1  0
 15 48  1  0
 16 49  1  0
 16 50  1  0
 18 51  1  0
 18 52  1  0
 20 53  1  0
 21 54  1  0
 22 55  1  0
 23 56  1  0
 24 57  1  0
 25 58  1  0
 25 59  1  0
 26 60  1  0
 26 61  1  0
 27 62  1  0
 30 63  1  0
 31 64  1  0
 32 65  1  0
 33 66  1  0
 34 67  1  0
 35 68  1  0
M  CHG  1   3   1
M  END
>  <UniqueID>  (23) 
23

>  <SMILES>  (23) 
Cc1[nH+]n(C)cc1Cc1cc(C(=O)N2CCN(Cc3ccccc3)CC2)cc(-c2ccccc2)c1

>  <Energy>  (23) 
117.53750565563723

>  <Genealogy>  (23) 
Cc1[nH+]n(C)cc1Cc1cc(C(=O)N2CCN(Cc3ccccc3)CC2)cc(-c2ccccc2)c1 (protonated)
Cc1[nH+]n(C)cc1Cc1cc(C(=O)N2CCN(Cc3ccccc3)CC2)cc(-c2ccccc2)c1 (3D coordinates assigned)
Cc1[nH+]n(C)cc1Cc1cc(C(=O)N2CCN(Cc3ccccc3)CC2)cc(-c2ccccc2)c1 (nonaromatic ring conformer: 117.53750565563723 kcal/mol)

>  <smiles>  (23) 
Cc1nn(C)cc1Cc1cc(C(=O)N2CCN(Cc3ccccc3)CC2)cc(-c2ccccc2)c1

>  <score_type>  (23) 
oracle

>  <origin>  (23) 
adg

>  <m_score__min__energy>  (23) 
-9.0899999999999999

>  <m_primary>  (23) 
energy

$$$$
23:0
     RDKit          3D

 52 54  0  0  0  0  0  0  0  0999 V2000
   58.9120   29.8680   49.1190 C   0  0  0  0  0  0  0  0  0  0  0  0
   59.0990   30.6480   47.9040 N   0  0  0  0  0  0  0  0  0  0  0  0
   59.2010   30.0830   46.5930 C   0  0  0  0  0  0  0  0  0  0  0  0
   60.1290   30.4630   45.8330 O   0  0  0  0  0  0  0  0  0  0  0  0
   58.2910   29.0260   46.1310 C   0  0  0  0  0  0  0  0  0  0  0  0
   58.3830   27.7510   46.5470 N   0  0  0  0  0  0  0  0  0  0  0  0
   57.3690   27.1230   45.9120 C   0  0  0  0  0  0  0  0  0  0  0  0
   57.0300   25.6940   46.1150 C   0  0  0  0  0  0  0  0  0  0  0  0
   58.0680   24.7570   46.2850 C   0  0  0  0  0  0  0  0  0  0  0  0
   57.7820   23.4010   46.4550 C   0  0  0  0  0  0  0  0  0  0  0  0
   56.4580   22.9590   46.4560 C   0  0  0  0  0  0  0  0  0  0  0  0
   56.1770   21.6090   46.6250 O   0  0  0  0  0  0  0  0  0  0  0  0
   55.4160   23.8730   46.2860 C   0  0  0  0  0  0  0  0  0  0  0  0
   55.6910   25.2390   46.1110 C   0  0  0  0  0  0  0  0  0  0  0  0
   54.6350   26.1300   45.9230 O   0  0  0  0  0  0  0  0  0  0  0  0
   56.6580   27.9390   45.1030 N   0  0  0  0  0  0  0  0  0  0  0  0
   57.2280   29.1450   45.2520 C   0  0  0  0  0  0  0  0  0  0  0  0
   56.7800   30.3670   44.5490 C   0  0  0  0  0  0  0  0  0  0  0  0
   55.6270   30.8160   44.7830 O   0  0  0  0  0  0  0  0  0  0  0  0
   57.5960   31.0520   43.5850 N   0  0  0  0  0  0  0  0  0  0  0  0
   57.7770   32.4980   43.4430 C   0  0  0  0  0  0  0  0  0  0  0  0
   58.1800   33.1410   44.7470 C   0  0  0  0  0  0  0  0  0  0  0  0
   57.3620   33.0030   45.8800 C   0  0  0  0  0  0  0  0  0  0  0  0
   57.7940   33.4690   47.1230 C   0  0  0  0  0  0  0  0  0  0  0  0
   59.0360   34.1080   47.2450 C   0  0  0  0  0  0  0  0  0  0  0  0
   59.5720   34.4820   48.6010 C   0  0  0  0  0  0  0  0  0  0  0  0
   60.6220   33.5330   49.0230 N   0  0  0  0  0  0  0  0  0  0  0  0
   61.9360   34.1930   48.9950 C   0  0  0  0  0  0  0  0  0  0  0  0
   60.3590   33.0190   50.3810 C   0  0  0  0  0  0  0  0  0  0  0  0
   59.8170   34.3220   46.0990 C   0  0  0  0  0  0  0  0  0  0  0  0
   59.3850   33.8540   44.8550 C   0  0  0  0  0  0  0  0  0  0  0  0
   59.0667   30.5132   49.9964 H   0  0  0  0  0  0  0  0  0  0  0  0
   57.8906   29.4601   49.1393 H   0  0  0  0  0  0  0  0  0  0  0  0
   59.6374   29.0413   49.1393 H   0  0  0  0  0  0  0  0  0  0  0  0
   59.1141   25.0970   46.2838 H   0  0  0  0  0  0  0  0  0  0  0  0
   58.6016   22.6796   46.5884 H   0  0  0  0  0  0  0  0  0  0  0  0
   54.3738   23.5210   46.2892 H   0  0  0  0  0  0  0  0  0  0  0  0
   54.7680   27.1330   45.9740 H   0  0  0  0  0  0  0  0  0  0  0  0
   58.5610   32.6873   42.6950 H   0  0  0  0  0  0  0  0  0  0  0  0
   56.8176   32.9342   43.1278 H   0  0  0  0  0  0  0  0  0  0  0  0
   56.3755   32.5251   45.7876 H   0  0  0  0  0  0  0  0  0  0  0  0
   57.1576   33.3344   48.0100 H   0  0  0  0  0  0  0  0  0  0  0  0
   59.9975   35.4953   48.5550 H   0  0  0  0  0  0  0  0  0  0  0  0
   58.7489   34.4485   49.3300 H   0  0  0  0  0  0  0  0  0  0  0  0
   62.2812   34.3664   50.0249 H   0  0  0  0  0  0  0  0  0  0  0  0
   62.6579   33.5505   48.4696 H   0  0  0  0  0  0  0  0  0  0  0  0
   61.8517   35.1557   48.4696 H   0  0  0  0  0  0  0  0  0  0  0  0
   60.7284   33.7409   51.1242 H   0  0  0  0  0  0  0  0  0  0  0  0
   59.2767   32.8756   50.5155 H   0  0  0  0  0  0  0  0  0  0  0  0
   60.8758   32.0573   50.5155 H   0  0  0  0  0  0  0  0  0  0  0  0
   60.7729   34.8602   46.1801 H   0  0  0  0  0  0  0  0  0  0  0  0
   59.9911   34.0449   43.9571 H   0  0  0  0  0  0  0  0  0  0  0  0
  1  2  1  0
  2  3  1  0
  3  4  2  0
  3  5  1  0
  5  6  1  0
  6  7  1  0
  7  8  1  0
  8  9  2  0
  9 10  1  0
 10 11  2  0
 11 12  1  0
 11 13  1  0
 13 14  2  0
 14 15  1  0
  7 16  2  0
 16 17  1  0
 17 18  1  0
 18 19  2  0
 18 20  1  0
 20 21  1  0
 21 22  1  0
 22 23  2  0
 23 24  1  0
 24 25  2  0
 25 26  1  0
 26 27  1  0
 27 28  1  0
 27 29  1  0
 25 30  1  0
 30 31  2  0
 17  5  2  0
 31 22  1  0
 14  8  1  0
  1 32  1  0
  1 33  1  0
  1 34  1  0
  9 35  1  0
 10 36  1  0
 13 37  1  0
 15 38  1  0
 21 39  1  0
 21 40  1  0
 23 41  1  0
 24 42  1  0
 26 43  1  0
 26 44  1  0
 28 45  1  0
 28 46  1  0
 28 47  1  0
 29 48  1  0
 29 49  1  0
 29 50  1  0
 30 51  1  0
 31 52  1  0
M  CHG  4   2  -1   6  -1  12  -1  20  -1
M  END
>  <UniqueID>  (24) 
24

>  <SMILES>  (24) 
C[N-]C(=O)c1[n-]c(-c2ccc([O-])cc2O)nc1C(=O)[N-]Cc1ccc(CN(C)C)cc1

>  <Energy>  (24) 
83.31579626555448

>  <Genealogy>  (24) 
C[N-]C(=O)c1[n-]c(-c2ccc([O-])cc2O)nc1C(=O)[N-]Cc1ccc(CN(C)C)cc1 (protonated)
C[N-]C(=O)c1[n-]c(-c2ccc([O-])cc2O)nc1C(=O)[N-]Cc1ccc(CN(C)C)cc1 (3D coordinates assigned)
C[N-]C(=O)c1[n-]c(-c2ccc([O-])cc2O)nc1C(=O)[N-]Cc1ccc(CN(C)C)cc1 (optimized conformer: 83.31579626555448 kcal/mol)

>  <smiles>  (24) 
CNC(=O)c1[nH]c(-c2ccc(O)cc2O)nc1C(=O)NCc1ccc(CN(C)C)cc1

>  <score_type>  (24) 
oracle

>  <origin>  (24) 
adg

>  <m_score__min__energy>  (24) 
-14.02

>  <m_primary>  (24) 
energy

$$$$
24:0
     RDKit          3D

 74 77  0  0  0  0  0  0  0  0999 V2000
   60.4520   29.9200   49.6060 C   0  0  0  0  0  0  0  0  0  0  0  0
   59.9330   29.7290   48.1850 C   0  0  0  0  0  0  0  0  0  0  0  0
   58.6010   28.9720   48.1790 C   0  0  0  0  0  0  0  0  0  0  0  0
   58.4600   28.2050   46.9310 N   0  0  0  0  0  0  0  0  0  0  0  0
   57.6750   26.9650   46.9500 C   0  0  0  0  0  0  0  0  0  0  0  0
   56.4410   27.0880   46.1020 C   0  0  0  0  0  0  0  0  0  0  0  0
   56.1720   28.2010   45.5730 O   0  0  0  0  0  0  0  0  0  0  0  0
   55.5740   25.9620   45.9060 N   0  0  0  0  0  0  0  0  0  0  0  0
   55.9690   24.6730   45.4180 C   0  0  0  0  0  0  0  0  0  0  0  0
   55.2540   23.5110   45.7640 C   0  0  0  0  0  0  0  0  0  0  0  0
   55.6410   22.2660   45.2620 C   0  0  0  0  0  0  0  0  0  0  0  0
   56.7380   22.1710   44.4030 C   0  0  0  0  0  0  0  0  0  0  0  0
   57.4360   23.3210   44.0290 C   0  0  0  0  0  0  0  0  0  0  0  0
   57.0490   24.5830   44.5240 C   0  0  0  0  0  0  0  0  0  0  0  0
   57.7130   25.7630   44.1520 O   0  0  0  0  0  0  0  0  0  0  0  0
   57.7770   26.2710   42.8230 C   0  0  0  0  0  0  0  0  0  0  0  0
   59.0470   28.6720   45.6920 C   0  0  0  0  0  0  0  0  0  0  0  0
   60.0550   28.0900   45.2030 O   0  0  0  0  0  0  0  0  0  0  0  0
   58.4880   29.8260   44.9710 C   0  0  0  0  0  0  0  0  0  0  0  0
   57.8040   29.6310   43.7650 C   0  0  0  0  0  0  0  0  0  0  0  0
   57.2670   30.7200   43.0770 C   0  0  0  0  0  0  0  0  0  0  0  0
   57.3850   32.0080   43.6050 C   0  0  0  0  0  0  0  0  0  0  0  0
   58.0580   32.2140   44.8170 C   0  0  0  0  0  0  0  0  0  0  0  0
   58.1170   33.8160   45.5420 S   0  0  0  0  0  0  0  0  0  0  0  0
   57.2370   33.8360   46.7590 O   0  0  0  0  0  0  0  0  0  0  0  0
   57.5930   34.8390   44.5740 O   0  0  0  0  0  0  0  0  0  0  0  0
   59.7260   34.2460   46.0080 N   0  0  0  0  0  0  0  0  0  0  0  0
   60.2440   33.9830   47.3140 C   0  0  0  0  0  0  0  0  0  0  0  0
   59.4510   34.1560   48.4570 C   0  0  0  0  0  0  0  0  0  0  0  0
   59.9720   33.8720   49.7230 C   0  0  0  0  0  0  0  0  0  0  0  0
   61.2760   33.3850   49.8510 C   0  0  0  0  0  0  0  0  0  0  0  0
   62.0680   33.1840   48.7110 C   0  0  0  0  0  0  0  0  0  0  0  0
   63.4190   32.5980   48.8240 C   0  0  0  0  0  0  0  0  0  0  0  0
   63.7360   31.6600   48.0420 O   0  0  0  0  0  0  0  0  0  0  0  0
   64.3650   33.0520   49.8180 N   0  0  0  0  0  0  0  0  0  0  0  0
   63.8920   33.5510   51.1180 C   0  0  0  0  0  0  0  0  0  0  0  0
   64.9620   34.4440   51.7430 C   0  0  0  0  0  0  0  0  0  0  0  0
   66.1890   33.7490   51.8380 O   0  0  0  0  0  0  0  0  0  0  0  0
   66.6890   33.4940   50.5370 C   0  0  0  0  0  0  0  0  0  0  0  0
   65.7510   32.5690   49.7470 C   0  0  0  0  0  0  0  0  0  0  0  0
   61.5610   33.5290   47.4480 C   0  0  0  0  0  0  0  0  0  0  0  0
   58.6300   31.1220   45.4870 C   0  0  0  0  0  0  0  0  0  0  0  0
   59.6698   29.6321   50.3238 H   0  0  0  0  0  0  0  0  0  0  0  0
   61.3405   29.2899   49.7596 H   0  0  0  0  0  0  0  0  0  0  0  0
   60.7201   30.9757   49.7596 H   0  0  0  0  0  0  0  0  0  0  0  0
   59.7872   30.7154   47.7206 H   0  0  0  0  0  0  0  0  0  0  0  0
   60.6710   29.1400   47.6207 H   0  0  0  0  0  0  0  0  0  0  0  0
   58.5709   28.2821   49.0352 H   0  0  0  0  0  0  0  0  0  0  0  0
   57.7757   29.6956   48.2517 H   0  0  0  0  0  0  0  0  0  0  0  0
   58.2948   26.1424   46.5638 H   0  0  0  0  0  0  0  0  0  0  0  0
   57.3658   26.7653   47.9866 H   0  0  0  0  0  0  0  0  0  0  0  0
   54.3847   23.5836   46.4341 H   0  0  0  0  0  0  0  0  0  0  0  0
   55.0821   21.3613   45.5431 H   0  0  0  0  0  0  0  0  0  0  0  0
   57.0526   21.1888   44.0205 H   0  0  0  0  0  0  0  0  0  0  0  0
   58.2930   23.2418   43.3440 H   0  0  0  0  0  0  0  0  0  0  0  0
   57.9144   27.3619   42.8537 H   0  0  0  0  0  0  0  0  0  0  0  0
   58.6241   25.8094   42.2944 H   0  0  0  0  0  0  0  0  0  0  0  0
   56.8419   26.0340   42.2944 H   0  0  0  0  0  0  0  0  0  0  0  0
   57.6894   28.6154   43.3582 H   0  0  0  0  0  0  0  0  0  0  0  0
   56.7505   30.5641   42.1184 H   0  0  0  0  0  0  0  0  0  0  0  0
   56.9484   32.8630   43.0679 H   0  0  0  0  0  0  0  0  0  0  0  0
   58.4164   34.5160   48.3576 H   0  0  0  0  0  0  0  0  0  0  0  0
   59.3549   34.0320   50.6195 H   0  0  0  0  0  0  0  0  0  0  0  0
   61.6819   33.1589   50.8480 H   0  0  0  0  0  0  0  0  0  0  0  0
   62.9689   34.1316   50.9736 H   0  0  0  0  0  0  0  0  0  0  0  0
   63.6905   32.6999   51.7851 H   0  0  0  0  0  0  0  0  0  0  0  0
   65.0992   35.3380   51.1169 H   0  0  0  0  0  0  0  0  0  0  0  0
   64.6380   34.7362   52.7528 H   0  0  0  0  0  0  0  0  0  0  0  0
   66.7879   34.4480   49.9983 H   0  0  0  0  0  0  0  0  0  0  0  0
   67.6654   32.9966   50.6329 H   0  0  0  0  0  0  0  0  0  0  0  0
   66.0710   32.5432   48.6949 H   0  0  0  0  0  0  0  0  0  0  0  0
   65.7972   31.5608   50.1846 H   0  0  0  0  0  0  0  0  0  0  0  0
   62.2026   33.4420   46.5587 H   0  0  0  0  0  0  0  0  0  0  0  0
   59.1912   31.2830   46.4193 H   0  0  0  0  0  0  0  0  0  0  0  0
  1  2  1  0
  2  3  1  0
  3  4  1  0
  4  5  1  0
  5  6  1  0
  6  7  2  0
  6  8  1  0
  8  9  1  0
  9 10  2  0
 10 11  1  0
 11 12  2  0
 12 13  1  0
 13 14  2  0
 14 15  1  0
 15 16  1  0
  4 17  1  0
 17 18  2  0
 17 19  1  0
 19 20  2  0
 20 21  1  0
 21 22  2  0
 22 23  1  0
 23 24  1  0
 24 25  2  0
 24 26  2  0
 24 27  1  0
 27 28  1  0
 28 29  2  0
 29 30  1  0
 30 31  2  0
 31 32  1  0
 32 33  1  0
 33 34  2  0
 33 35  1  0
 35 36  1  0
 36 37  1  0
 37 38  1  0
 38 39  1  0
 39 40  1  0
 32 41  2  0
 23 42  2  0
 14  9  1  0
 42 19  1  0
 41 28  1  0
 40 35  1  0
  1 43  1  0
  1 44  1  0
  1 45  1  0
  2 46  1  0
  2 47  1  0
  3 48  1  0
  3 49  1  0
  5 50  1  0
  5 51  1  0
 10 52  1  0
 11 53  1  0
 12 54  1  0
 13 55  1  0
 16 56  1  0
 16 57  1  0
 16 58  1  0
 20 59  1  0
 21 60  1  0
 22 61  1  0
 29 62  1  0
 30 63  1  0
 31 64  1  0
 36 65  1  0
 36 66  1  0
 37 67  1  0
 37 68  1  0
 39 69  1  0
 39 70  1  0
 40 71  1  0
 40 72  1  0
 41 73  1  0
 42 74  1  0
M  CHG  2   8  -1  27  -1
M  END
>  <UniqueID>  (25) 
25

>  <SMILES>  (25) 
CCCN(CC(=O)[N-]c1ccccc1OC)C(=O)c1cccc(S(=O)(=O)[N-]c2cccc(C(=O)N3CCOCC3)c2)c1

>  <Energy>  (25) 
94.10035777138272

>  <Genealogy>  (25) 
CCCN(CC(=O)[N-]c1ccccc1OC)C(=O)c1cccc(S(=O)(=O)[N-]c2cccc(C(=O)N3CCOCC3)c2)c1 (protonated)
CCCN(CC(=O)[N-]c1ccccc1OC)C(=O)c1cccc(S(=O)(=O)[N-]c2cccc(C(=O)N3CCOCC3)c2)c1 (3D coordinates assigned)
CCCN(CC(=O)[N-]c1ccccc1OC)C(=O)c1cccc(S(=O)(=O)[N-]c2cccc(C(=O)N3CCOCC3)c2)c1 (nonaromatic ring conformer: 94.10035777138272 kcal/mol)

>  <smiles>  (25) 
CCCN(CC(=O)Nc1ccccc1OC)C(=O)c1cccc(S(=O)(=O)Nc2cccc(C(=O)N3CCOCC3)c2)c1

>  <score_type>  (25) 
oracle

>  <origin>  (25) 
adg

>  <m_score__min__energy>  (25) 
-12.41

>  <m_primary>  (25) 
energy

$$$$
25:0
     RDKit          3D

 65 70  0  0  0  0  0  0  0  0999 V2000
   63.2060   33.4510   54.0300 C   0  0  0  0  0  0  0  0  0  0  0  0
   62.5570   32.2410   53.4120 C   0  0  0  0  0  0  0  0  0  0  0  0
   62.7870   31.9860   52.0820 N   0  0  0  0  0  0  0  0  0  0  0  0
   62.2120   30.9250   51.4470 C   0  0  0  0  0  0  0  0  0  0  0  0
   62.4600   30.7030   50.2340 O   0  0  0  0  0  0  0  0  0  0  0  0
   61.3380   30.1230   52.1710 C   0  0  0  0  0  0  0  0  0  0  0  0
   61.0880   30.3960   53.4880 C   0  0  0  0  0  0  0  0  0  0  0  0
   61.7720   31.3810   54.1620 N   0  0  0  0  0  0  0  0  0  0  0  0
   61.7990   31.4290   55.6320 C   0  0  0  0  0  0  0  0  0  0  0  0
   60.0690   29.6030   53.9260 N   0  0  0  0  0  0  0  0  0  0  0  0
   59.1100   29.8230   55.0240 C   0  0  0  0  0  0  0  0  0  0  0  0
   57.8740   30.6060   54.5400 C   0  0  0  0  0  0  0  0  0  0  0  0
   58.2470   31.8320   53.7470 C   0  0  0  0  0  0  0  0  0  0  0  0
   58.8830   32.9170   54.3730 C   0  0  0  0  0  0  0  0  0  0  0  0
   59.1520   34.0850   53.6560 C   0  0  0  0  0  0  0  0  0  0  0  0
   58.8060   34.1760   52.3070 C   0  0  0  0  0  0  0  0  0  0  0  0
   58.1940   33.0940   51.6720 C   0  0  0  0  0  0  0  0  0  0  0  0
   57.9150   31.9260   52.3880 C   0  0  0  0  0  0  0  0  0  0  0  0
   59.7850   28.8320   52.8420 C   0  0  0  0  0  0  0  0  0  0  0  0
   58.8530   27.9810   52.8290 O   0  0  0  0  0  0  0  0  0  0  0  0
   60.5460   29.1110   51.7570 N   0  0  0  0  0  0  0  0  0  0  0  0
   60.3970   28.5490   50.4110 C   0  0  0  0  0  0  0  0  0  0  0  0
   60.0700   29.6280   49.4090 C   0  0  0  0  0  0  0  0  0  0  0  0
   59.1360   30.6290   49.7180 C   0  0  0  0  0  0  0  0  0  0  0  0
   58.8500   31.6390   48.7970 C   0  0  0  0  0  0  0  0  0  0  0  0
   59.4900   31.6580   47.5490 C   0  0  0  0  0  0  0  0  0  0  0  0
   59.2170   32.7460   46.5860 C   0  0  0  0  0  0  0  0  0  0  0  0
   59.9840   33.9220   46.6940 C   0  0  0  0  0  0  0  0  0  0  0  0
   59.7260   35.0170   45.8720 C   0  0  0  0  0  0  0  0  0  0  0  0
   58.7030   34.9550   44.9280 C   0  0  0  0  0  0  0  0  0  0  0  0
   57.9450   33.7910   44.7900 C   0  0  0  0  0  0  0  0  0  0  0  0
   58.1910   32.6660   45.6010 C   0  0  0  0  0  0  0  0  0  0  0  0
   57.4020   31.4300   45.3490 C   0  0  0  0  0  0  0  0  0  0  0  0
   56.3130   31.3520   44.5650 N   0  0  0  0  0  0  0  0  0  0  0  0
   55.9080   30.0950   44.6680 N   0  0  0  0  0  0  0  0  0  0  0  0
   56.7080   29.4320   45.4840 N   0  0  0  0  0  0  0  0  0  0  0  0
   57.6530   30.2420   45.9310 N   0  0  0  0  0  0  0  0  0  0  0  0
   60.4450   30.6750   47.2500 C   0  0  0  0  0  0  0  0  0  0  0  0
   60.7330   29.6680   48.1720 C   0  0  0  0  0  0  0  0  0  0  0  0
   63.1628   33.3705   55.1262 H   0  0  0  0  0  0  0  0  0  0  0  0
   64.2561   33.5087   53.7076 H   0  0  0  0  0  0  0  0  0  0  0  0
   62.6732   34.3577   53.7076 H   0  0  0  0  0  0  0  0  0  0  0  0
   63.4180   32.6160   51.5330 H   0  0  0  0  0  0  0  0  0  0  0  0
   61.2976   30.5377   56.0372 H   0  0  0  0  0  0  0  0  0  0  0  0
   62.8426   31.4523   55.9790 H   0  0  0  0  0  0  0  0  0  0  0  0
   61.2770   32.3329   55.9790 H   0  0  0  0  0  0  0  0  0  0  0  0
   58.7853   28.8482   55.4168 H   0  0  0  0  0  0  0  0  0  0  0  0
   59.6089   30.4120   55.8077 H   0  0  0  0  0  0  0  0  0  0  0  0
   57.2639   29.9465   53.9053 H   0  0  0  0  0  0  0  0  0  0  0  0
   57.3167   30.9372   55.4287 H   0  0  0  0  0  0  0  0  0  0  0  0
   59.1704   32.8463   55.4324 H   0  0  0  0  0  0  0  0  0  0  0  0
   59.6380   34.9357   54.1560 H   0  0  0  0  0  0  0  0  0  0  0  0
   59.0151   35.0984   51.7454 H   0  0  0  0  0  0  0  0  0  0  0  0
   57.9307   33.1604   50.6061 H   0  0  0  0  0  0  0  0  0  0  0  0
   57.4325   31.0764   51.8826 H   0  0  0  0  0  0  0  0  0  0  0  0
   61.3380   28.0599   50.1190 H   0  0  0  0  0  0  0  0  0  0  0  0
   59.5727   27.8208   50.4241 H   0  0  0  0  0  0  0  0  0  0  0  0
   58.6257   30.6179   50.6924 H   0  0  0  0  0  0  0  0  0  0  0  0
   58.1205   32.4221   49.0510 H   0  0  0  0  0  0  0  0  0  0  0  0
   60.7952   33.9767   47.4349 H   0  0  0  0  0  0  0  0  0  0  0  0
   60.3303   35.9311   45.9683 H   0  0  0  0  0  0  0  0  0  0  0  0
   58.4921   35.8257   44.2897 H   0  0  0  0  0  0  0  0  0  0  0  0
   57.1440   33.7518   44.0371 H   0  0  0  0  0  0  0  0  0  0  0  0
   60.9697   30.6981   46.2835 H   0  0  0  0  0  0  0  0  0  0  0  0
   61.4834   28.9015   47.9284 H   0  0  0  0  0  0  0  0  0  0  0  0
  1  2  1  0
  2  3  2  0
  3  4  1  0
  4  5  2  0
  4  6  1  0
  6  7  2  0
  7  8  1  0
  8  9  1  0
  7 10  1  0
 10 11  1  0
 11 12  1  0
 12 13  1  0
 13 14  2  0
 14 15  1  0
 15 16  2  0
 16 17  1  0
 17 18  2  0
 10 19  1  0
 19 20  2  0
 19 21  1  0
 21 22  1  0
 22 23  1  0
 23 24  2  0
 24 25  1  0
 25 26  2  0
 26 27  1  0
 27 28  2  0
 28 29  1  0
 29 30  2  0
 30 31  1  0
 31 32  2  0
 32 33  1  0
 33 34  1  0
 34 35  2  0
 35 36  1  0
 36 37  1  0
 26 38  1  0
 38 39  2  0
  8  2  1  0
 18 13  1  0
 39 23  1  0
 21  6  1  0
 32 27  1  0
 37 33  2  0
  1 40  1  0
  1 41  1  0
  1 42  1  0
  3 43  1  0
  9 44  1  0
  9 45  1  0
  9 46  1  0
 11 47  1  0
 11 48  1  0
 12 49  1  0
 12 50  1  0
 14 51  1  0
 15 52  1  0
 16 53  1  0
 17 54  1  0
 18 55  1  0
 22 56  1  0
 22 57  1  0
 24 58  1  0
 25 59  1  0
 28 60  1  0
 29 61  1  0
 30 62  1  0
 31 63  1  0
 38 64  1  0
 39 65  1  0
M  CHG  2   3   1  36  -1
M  END
>  <UniqueID>  (26) 
26

>  <SMILES>  (26) 
Cc1[nH+]c(=O)c2c(n1C)n(CCc1ccccc1)c(=O)n2Cc1ccc(-c2ccccc2-c2nn[n-]n2)cc1

>  <Energy>  (26) 
168.87379788552434

>  <Genealogy>  (26) 
Cc1[nH+]c(=O)c2c(n1C)n(CCc1ccccc1)c(=O)n2Cc1ccc(-c2ccccc2-c2nn[n-]n2)cc1 (protonated)
Cc1[nH+]c(=O)c2c(n1C)n(CCc1ccccc1)c(=O)n2Cc1ccc(-c2ccccc2-c2nn[n-]n2)cc1 (3D coordinates assigned)
Cc1[nH+]c(=O)c2c(n1C)n(CCc1ccccc1)c(=O)n2Cc1ccc(-c2ccccc2-c2nn[n-]n2)cc1 (optimized conformer: 168.87379788552434 kcal/mol)

>  <smiles>  (26) 
Cc1nc(=O)c2c(n1C)n(CCc1ccccc1)c(=O)n2Cc1ccc(-c2ccccc2-c2nn[nH]n2)cc1

>  <score_type>  (26) 
oracle

>  <origin>  (26) 
adg

>  <m_score__min__energy>  (26) 
-10.42

>  <m_primary>  (26) 
energy

$$$$
26:0
     RDKit          3D

 57 60  0  0  0  0  0  0  0  0999 V2000
   58.1280   30.9440   50.7350 C   0  0  0  0  0  0  0  0  0  0  0  0
   57.9000   32.2620   50.2550 O   0  0  0  0  0  0  0  0  0  0  0  0
   58.9340   33.0250   49.7080 C   0  0  0  0  0  0  0  0  0  0  0  0
   60.0020   33.4400   50.5220 C   0  0  0  0  0  0  0  0  0  0  0  0
   60.0390   33.0290   52.2300 Cl  0  0  0  0  0  0  0  0  0  0  0  0
   61.0460   34.1970   49.9810 C   0  0  0  0  0  0  0  0  0  0  0  0
   61.0340   34.5500   48.6290 C   0  0  0  0  0  0  0  0  0  0  0  0
   59.9730   34.1530   47.8100 C   0  0  0  0  0  0  0  0  0  0  0  0
   59.9640   34.5020   46.4970 N   0  0  0  0  0  0  0  0  0  0  0  0
   58.9560   34.1450   45.6600 C   0  0  0  0  0  0  0  0  0  0  0  0
   59.0070   34.5000   44.4520 O   0  0  0  0  0  0  0  0  0  0  0  0
   57.8690   33.3910   46.1450 C   0  0  0  0  0  0  0  0  0  0  0  0
   56.7410   32.9490   45.2410 C   0  0  0  0  0  0  0  0  0  0  0  0
   57.0880   31.6540   44.4970 C   0  0  0  0  0  0  0  0  0  0  0  0
   56.6550   30.4730   45.2440 N   0  0  0  0  0  0  0  0  0  0  0  0
   57.5130   29.5220   45.8880 C   0  0  0  0  0  0  0  0  0  0  0  0
   57.1890   28.3050   45.8710 O   0  0  0  0  0  0  0  0  0  0  0  0
   58.7490   29.9230   46.5870 C   0  0  0  0  0  0  0  0  0  0  0  0
   59.0580   29.3750   47.8370 C   0  0  0  0  0  0  0  0  0  0  0  0
   60.2320   29.7480   48.4920 C   0  0  0  0  0  0  0  0  0  0  0  0
   61.1060   30.6640   47.8850 C   0  0  0  0  0  0  0  0  0  0  0  0
   62.3310   31.0420   48.5400 N   0  0  0  0  0  0  0  0  0  0  0  0
   62.5340   30.7210   49.9590 C   0  0  0  0  0  0  0  0  0  0  0  0
   63.6640   31.5710   50.5520 C   0  0  0  0  0  0  0  0  0  0  0  0
   63.6000   32.9260   49.9760 N   0  0  0  0  0  0  0  0  0  0  0  0
   64.4800   33.8430   50.7150 C   0  0  0  0  0  0  0  0  0  0  0  0
   63.9510   32.9220   48.5350 C   0  0  0  0  0  0  0  0  0  0  0  0
   63.4260   31.6740   47.7920 C   0  0  0  0  0  0  0  0  0  0  0  0
   60.8030   31.1580   46.6480 N   0  0  0  0  0  0  0  0  0  0  0  0
   59.6610   30.8080   45.9960 C   0  0  0  0  0  0  0  0  0  0  0  0
   57.8600   33.0160   47.4960 C   0  0  0  0  0  0  0  0  0  0  0  0
   58.9120   33.3900   48.3450 C   0  0  0  0  0  0  0  0  0  0  0  0
   58.1271   30.9491   51.8350 H   0  0  0  0  0  0  0  0  0  0  0  0
   57.3317   30.2783   50.3708 H   0  0  0  0  0  0  0  0  0  0  0  0
   59.1017   30.5844   50.3708 H   0  0  0  0  0  0  0  0  0  0  0  0
   61.8805   34.5160   50.6227 H   0  0  0  0  0  0  0  0  0  0  0  0
   61.8608   35.1412   48.2085 H   0  0  0  0  0  0  0  0  0  0  0  0
   55.8406   32.7804   45.8500 H   0  0  0  0  0  0  0  0  0  0  0  0
   56.5686   33.7387   44.4949 H   0  0  0  0  0  0  0  0  0  0  0  0
   56.5882   31.6600   43.5171 H   0  0  0  0  0  0  0  0  0  0  0  0
   58.1807   31.6061   44.3795 H   0  0  0  0  0  0  0  0  0  0  0  0
   58.3749   28.6498   48.3034 H   0  0  0  0  0  0  0  0  0  0  0  0
   60.4718   29.3264   49.4793 H   0  0  0  0  0  0  0  0  0  0  0  0
   61.6039   30.9215   50.5110 H   0  0  0  0  0  0  0  0  0  0  0  0
   62.8083   29.6592   50.0451 H   0  0  0  0  0  0  0  0  0  0  0  0
   63.5473   31.6290   51.6443 H   0  0  0  0  0  0  0  0  0  0  0  0
   64.6359   31.1130   50.3159 H   0  0  0  0  0  0  0  0  0  0  0  0
   64.3385   33.6956   51.7959 H   0  0  0  0  0  0  0  0  0  0  0  0
   65.5280   33.6379   50.4510 H   0  0  0  0  0  0  0  0  0  0  0  0
   64.2319   34.8816   50.4510 H   0  0  0  0  0  0  0  0  0  0  0  0
   63.5181   33.8178   48.0658 H   0  0  0  0  0  0  0  0  0  0  0  0
   65.0486   32.9119   48.4626 H   0  0  0  0  0  0  0  0  0  0  0  0
   63.0585   31.9736   46.7994 H   0  0  0  0  0  0  0  0  0  0  0  0
   64.2488   30.9506   47.6941 H   0  0  0  0  0  0  0  0  0  0  0  0
   61.4500   31.8310   46.1820 H   0  0  0  0  0  0  0  0  0  0  0  0
   59.4523   31.2224   44.9986 H   0  0  0  0  0  0  0  0  0  0  0  0
   57.0220   32.4243   47.8929 H   0  0  0  0  0  0  0  0  0  0  0  0
  1  2  1  0
  2  3  1  0
  3  4  2  0
  4  5  1  0
  4  6  1  0
  6  7  2  0
  7  8  1  0
  8  9  1  0
  9 10  1  0
 10 11  2  0
 10 12  1  0
 12 13  1  0
 13 14  1  0
 14 15  1  0
 15 16  1  0
 16 17  2  0
 16 18  1  0
 18 19  2  0
 19 20  1  0
 20 21  2  0
 21 22  1  0
 22 23  1  0
 23 24  1  0
 24 25  1  0
 25 26  1  0
 25 27  1  0
 27 28  1  0
 21 29  1  0
 29 30  2  0
 12 31  2  0
 31 32  1  0
 32  3  1  0
 32  8  2  0
 30 18  1  0
 28 22  1  0
  1 33  1  0
  1 34  1  0
  1 35  1  0
  6 36  1  0
  7 37  1  0
 13 38  1  0
 13 39  1  0
 14 40  1  0
 14 41  1  0
 19 42  1  0
 20 43  1  0
 23 44  1  0
 23 45  1  0
 24 46  1  0
 24 47  1  0
 26 48  1  0
 26 49  1  0
 26 50  1  0
 27 51  1  0
 27 52  1  0
 28 53  1  0
 28 54  1  0
 29 55  1  0
 30 56  1  0
 31 57  1  0
M  CHG  3   9  -1  15  -1  29   1
M  END
>  <UniqueID>  (27) 
27

>  <SMILES>  (27) 
COc1c(Cl)ccc2[n-]c(=O)c(CC[N-]C(=O)c3ccc(N4CCN(C)CC4)[nH+]c3)cc12

>  <Energy>  (27) 
81.304823996931

>  <Genealogy>  (27) 
COc1c(Cl)ccc2[n-]c(=O)c(CC[N-]C(=O)c3ccc(N4CCN(C)CC4)[nH+]c3)cc12 (protonated)
COc1c(Cl)ccc2[n-]c(=O)c(CC[N-]C(=O)c3ccc(N4CCN(C)CC4)[nH+]c3)cc12 (3D coordinates assigned)
COc1c(Cl)ccc2[n-]c(=O)c(CC[N-]C(=O)c3ccc(N4CCN(C)CC4)[nH+]c3)cc12 (nonaromatic ring conformer: 81.304823996931 kcal/mol)

>  <smiles>  (27) 
COc1c(Cl)ccc2[nH]c(=O)c(CCNC(=O)c3ccc(N4CCN(C)CC4)nc3)cc12

>  <score_type>  (27) 
oracle

>  <origin>  (27) 
adg

>  <m_score__min__energy>  (27) 
-9.7200000000000006

>  <m_primary>  (27) 
energy

$$$$
27:0
     RDKit          3D

 50 52  0  0  0  0  0  0  0  0999 V2000
   58.9760   29.1790   47.4760 C   0  0  0  0  0  0  0  0  0  0  0  0
   58.4880   28.1090   46.8390 C   0  0  0  0  0  0  0  0  0  0  0  0
   58.2230   26.9520   47.4930 N   0  0  0  0  0  0  0  0  0  0  0  0
   57.7730   26.1160   46.5360 C   0  0  0  0  0  0  0  0  0  0  0  0
   57.4210   24.8370   46.7340 C   0  0  0  0  0  0  0  0  0  0  0  0
   56.1200   24.2740   46.3310 C   0  0  0  0  0  0  0  0  0  0  0  0
   55.8810   22.9450   46.2910 N   0  0  0  0  0  0  0  0  0  0  0  0
   54.6200   22.8550   45.8160 C   0  0  0  0  0  0  0  0  0  0  0  0
   54.0410   21.7530   45.6250 O   0  0  0  0  0  0  0  0  0  0  0  0
   54.0530   24.0500   45.5500 N   0  0  0  0  0  0  0  0  0  0  0  0
   52.7500   24.3050   44.9420 C   0  0  0  0  0  0  0  0  0  0  0  0
   55.0100   24.9460   45.8480 C   0  0  0  0  0  0  0  0  0  0  0  0
   54.9060   26.3180   45.6360 O   0  0  0  0  0  0  0  0  0  0  0  0
   57.7840   26.7760   45.3280 C   0  0  0  0  0  0  0  0  0  0  0  0
   57.4430   26.2890   44.2140 O   0  0  0  0  0  0  0  0  0  0  0  0
   58.2140   28.0390   45.5070 N   0  0  0  0  0  0  0  0  0  0  0  0
   58.3750   29.0540   44.4550 C   0  0  0  0  0  0  0  0  0  0  0  0
   57.2620   30.0640   44.5290 C   0  0  0  0  0  0  0  0  0  0  0  0
   56.1230   29.6830   44.9190 O   0  0  0  0  0  0  0  0  0  0  0  0
   57.4870   31.4530   44.2020 N   0  0  0  0  0  0  0  0  0  0  0  0
   57.7520   31.8290   42.8080 C   0  0  0  0  0  0  0  0  0  0  0  0
   57.4280   32.4750   45.2660 C   0  0  0  0  0  0  0  0  0  0  0  0
   58.3770   32.1050   46.4260 C   0  0  0  0  0  0  0  0  0  0  0  0
   58.4810   33.2600   47.4280 C   0  0  0  0  0  0  0  0  0  0  0  0
   58.9690   34.5750   46.7790 C   0  0  0  0  0  0  0  0  0  0  0  0
   58.9490   34.5560   45.2410 C   0  0  0  0  0  0  0  0  0  0  0  0
   57.6740   33.9000   44.6950 C   0  0  0  0  0  0  0  0  0  0  0  0
   59.1813   30.1047   46.9185 H   0  0  0  0  0  0  0  0  0  0  0  0
   59.1720   29.1333   48.5574 H   0  0  0  0  0  0  0  0  0  0  0  0
   58.1448   24.1701   47.2253 H   0  0  0  0  0  0  0  0  0  0  0  0
   51.9991   24.4520   45.7323 H   0  0  0  0  0  0  0  0  0  0  0  0
   52.8072   25.2090   44.3179 H   0  0  0  0  0  0  0  0  0  0  0  0
   52.4622   23.4461   44.3179 H   0  0  0  0  0  0  0  0  0  0  0  0
   55.5220   26.8030   44.9960 H   0  0  0  0  0  0  0  0  0  0  0  0
   59.3392   29.5661   44.5894 H   0  0  0  0  0  0  0  0  0  0  0  0
   58.3446   28.5594   43.4729 H   0  0  0  0  0  0  0  0  0  0  0  0
   58.3855   32.7279   42.7848 H   0  0  0  0  0  0  0  0  0  0  0  0
   58.2686   31.0030   42.2973 H   0  0  0  0  0  0  0  0  0  0  0  0
   56.8004   32.0378   42.2973 H   0  0  0  0  0  0  0  0  0  0  0  0
   56.4118   32.4941   45.6866 H   0  0  0  0  0  0  0  0  0  0  0  0
   57.9883   31.2139   46.9407 H   0  0  0  0  0  0  0  0  0  0  0  0
   59.3767   31.9015   46.0148 H   0  0  0  0  0  0  0  0  0  0  0  0
   57.4882   33.4331   47.8688 H   0  0  0  0  0  0  0  0  0  0  0  0
   59.2213   32.9721   48.1890 H   0  0  0  0  0  0  0  0  0  0  0  0
   58.3196   35.3932   47.1237 H   0  0  0  0  0  0  0  0  0  0  0  0
   60.0174   34.7112   47.0830 H   0  0  0  0  0  0  0  0  0  0  0  0
   59.0031   35.5907   44.8716 H   0  0  0  0  0  0  0  0  0  0  0  0
   59.8112   33.9667   44.8955 H   0  0  0  0  0  0  0  0  0  0  0  0
   56.8144   34.5348   44.9561 H   0  0  0  0  0  0  0  0  0  0  0  0
   57.7971   33.8001   43.6065 H   0  0  0  0  0  0  0  0  0  0  0  0
  1  2  2  0
  2  3  1  0
  3  4  1  0
  4  5  2  3
  5  6  1  0
  6  7  1  0
  7  8  1  0
  8  9  2  0
  8 10  1  0
 10 11  1  0
 10 12  1  0
 12 13  1  0
  4 14  1  0
 14 15  2  0
 14 16  1  0
 16 17  1  0
 17 18  1  0
 18 19  2  0
 18 20  1  0
 20 21  1  0
 20 22  1  0
 22 23  1  0
 23 24  1  0
 24 25  1  0
 25 26  1  0
 26 27  1  0
 16  2  1  0
 27 22  1  0
 12  6  2  0
  1 28  1  0
  1 29  1  0
  5 30  1  0
 11 31  1  0
 11 32  1  0
 11 33  1  0
 13 34  1  0
 17 35  1  0
 17 36  1  0
 21 37  1  0
 21 38  1  0
 21 39  1  0
 22 40  1  0
 23 41  1  0
 23 42  1  0
 24 43  1  0
 24 44  1  0
 25 45  1  0
 25 46  1  0
 26 47  1  0
 26 48  1  0
 27 49  1  0
 27 50  1  0
M  CHG  2   3  -1   7  -1
M  END
>  <UniqueID>  (28) 
28

>  <SMILES>  (28) 
C=c1[n-]c(=Cc2[n-]c(=O)n(C)c2O)c(=O)n1CC(=O)N(C)C1CCCCC1

>  <Energy>  (28) 
121.68274734314103

>  <Genealogy>  (28) 
C=c1[n-]c(=Cc2[n-]c(=O)n(C)c2O)c(=O)n1CC(=O)N(C)C1CCCCC1 (protonated)
C=c1[n-]c(=Cc2[n-]c(=O)n(C)c2O)c(=O)n1CC(=O)N(C)C1CCCCC1 (3D coordinates assigned)
C=c1[n-]c(=Cc2[n-]c(=O)n(C)c2O)c(=O)n1CC(=O)N(C)C1CCCCC1 (nonaromatic ring conformer: 121.68274734314103 kcal/mol)

>  <smiles>  (28) 
C=c1[nH]c(=Cc2[nH]c(=O)n(C)c2O)c(=O)n1CC(=O)N(C)C1CCCCC1

>  <score_type>  (28) 
oracle

>  <origin>  (28) 
adg

>  <m_score__min__energy>  (28) 
-12.94

>  <m_primary>  (28) 
energy

$$$$
28:0
     RDKit          3D

 41 44  0  0  0  0  0  0  0  0999 V2000
   56.6560   33.8410   46.8660 H   0  0  0  0  0  0  0  0  0  0  0  0
   57.6580   33.8000   47.1570 N   0  0  0  0  0  0  0  0  0  0  0  0
   58.5980   33.6610   45.7140 S   0  0  0  0  0  0  0  0  0  0  0  0
   60.0410   33.4450   46.0750 O   0  0  0  0  0  0  0  0  0  0  0  0
   58.4860   34.9310   44.9180 O   0  0  0  0  0  0  0  0  0  0  0  0
   58.0120   32.3010   44.7590 C   0  0  0  0  0  0  0  0  0  0  0  0
   57.6730   32.4830   43.4130 C   0  0  0  0  0  0  0  0  0  0  0  0
   57.7777   33.4749   42.9490 H   0  0  0  0  0  0  0  0  0  0  0  0
   57.2020   31.4060   42.6590 C   0  0  0  0  0  0  0  0  0  0  0  0
   56.9412   31.5505   41.6002 H   0  0  0  0  0  0  0  0  0  0  0  0
   57.0610   30.1460   43.2450 C   0  0  0  0  0  0  0  0  0  0  0  0
   56.6930   29.3023   42.6427 H   0  0  0  0  0  0  0  0  0  0  0  0
   57.3860   29.9470   44.6000 C   0  0  0  0  0  0  0  0  0  0  0  0
   57.2320   28.6100   45.2250 C   0  0  0  0  0  0  0  0  0  0  0  0
   58.2540   27.8800   45.8440 C   0  0  0  0  0  0  0  0  0  0  0  0
   59.3080   28.1711   45.9641 H   0  0  0  0  0  0  0  0  0  0  0  0
   57.6510   26.7190   46.2690 C   0  0  0  0  0  0  0  0  0  0  0  0
   58.1360   25.6090   46.9430 C   0  0  0  0  0  0  0  0  0  0  0  0
   59.1913   25.5438   47.2465 H   0  0  0  0  0  0  0  0  0  0  0  0
   57.2590   24.6000   47.2170 N   0  0  0  0  0  0  0  0  0  0  0  0
   55.9380   24.6720   46.8420 C   0  0  0  0  0  0  0  0  0  0  0  0
   55.1170   23.7000   47.1070 N   0  0  0  0  0  0  0  0  0  0  0  0
   54.5660   22.7770   46.1160 C   0  0  0  0  0  0  0  0  0  0  0  0
   54.1624   21.8926   46.6308 H   0  0  0  0  0  0  0  0  0  0  0  0
   53.7683   23.2899   45.5586 H   0  0  0  0  0  0  0  0  0  0  0  0
   55.6290   22.3430   45.1500 C   0  0  0  0  0  0  0  0  0  0  0  0
   55.4880   22.6100   43.8220 N   0  0  0  0  0  0  0  0  0  0  0  0
   56.4150   22.2170   42.9080 C   0  0  0  0  0  0  0  0  0  0  0  0
   56.2708   22.4522   41.8432 H   0  0  0  0  0  0  0  0  0  0  0  0
   57.5500   21.5150   43.3200 C   0  0  0  0  0  0  0  0  0  0  0  0
   58.3029   21.1943   42.5850 H   0  0  0  0  0  0  0  0  0  0  0  0
   57.7180   21.2250   44.6750 C   0  0  0  0  0  0  0  0  0  0  0  0
   58.6072   20.6734   45.0141 H   0  0  0  0  0  0  0  0  0  0  0  0
   56.7560   21.6360   45.5990 C   0  0  0  0  0  0  0  0  0  0  0  0
   56.8795   21.4084   46.6681 H   0  0  0  0  0  0  0  0  0  0  0  0
   55.4740   25.7750   46.1800 N   0  0  0  0  0  0  0  0  0  0  0  0
   56.3430   26.7780   45.9080 C   0  0  0  0  0  0  0  0  0  0  0  0
   56.0590   27.9230   45.2700 N   0  0  0  0  0  0  0  0  0  0  0  0
   55.1340   28.1990   44.8750 H   0  0  0  0  0  0  0  0  0  0  0  0
   57.8610   31.0390   45.3500 C   0  0  0  0  0  0  0  0  0  0  0  0
   58.1164   30.9007   46.4110 H   0  0  0  0  0  0  0  0  0  0  0  0
  1  2  1  0
  2  3  1  0
  3  4  2  0
  3  5  2  0
  3  6  1  0
  6  7  2  0
  7  8  1  0
  7  9  1  0
  9 10  1  0
  9 11  2  0
 11 12  1  0
 11 13  1  0
 13 14  1  0
 14 15  2  0
 15 16  1  0
 15 17  1  0
 17 18  2  0
 18 19  1  0
 18 20  1  0
 20 21  1  0
 21 22  2  0
 22 23  1  0
 23 24  1  0
 23 25  1  0
 23 26  1  0
 26 27  2  0
 27 28  1  0
 28 29  1  0
 28 30  2  0
 30 31  1  0
 30 32  1  0
 32 33  1  0
 32 34  2  0
 34 35  1  0
 21 36  1  0
 36 37  2  0
 37 38  1  0
 38 39  1  0
 13 40  2  0
 40 41  1  0
 40  6  1  0
 38 14  1  0
 37 17  1  0
 34 26  1  0
M  CHG  2   2  -1  20  -1
M  END
>  <UniqueID>  (29) 
29

>  <SMILES>  (29) 
[NH-]S(=O)(=O)c1cccc(-c2cc3c[n-]/c(=N\Cc4ccccn4)nc3[nH]2)c1

>  <Energy>  (29) 
83.39692696783884

>  <Genealogy>  (29) 
[NH-]S(=O)(=O)c1cccc(-c2cc3c[n-]c(=NCc4ccccn4)nc3[nH]2)c1 (protonated)
[NH-]S(=O)(=O)c1cccc(-c2cc3c[n-]/c(=N\Cc4ccccn4)nc3[nH]2)c1 (cis-trans isomerization)
[NH-]S(=O)(=O)c1cccc(-c2cc3c[n-]/c(=N\Cc4ccccn4)nc3[nH]2)c1 (3D coordinates assigned)
[NH-]S(=O)(=O)c1cccc(-c2cc3c[n-]/c(=N\Cc4ccccn4)nc3[nH]2)c1 (optimized conformer: 83.39692696783884 kcal/mol)

>  <smiles>  (29) 
NS(=O)(=O)c1cccc(-c2cc3c[nH]c(=NCc4ccccn4)nc3[nH]2)c1

>  <score_type>  (29) 
oracle

>  <origin>  (29) 
adg

>  <m_score__min__energy>  (29) 
-12.029999999999999

>  <m_primary>  (29) 
energy

$$$$
29:0
     RDKit          3D

 45 47  0  0  0  0  0  0  0  0999 V2000
   59.7170   27.9120   43.7480 O   0  0  0  0  0  0  0  0  0  0  0  0
   58.7400   27.3870   44.3460 C   0  0  0  0  0  0  0  0  0  0  0  0
   58.9760   26.2500   45.2940 C   0  0  0  0  0  0  0  0  0  0  0  0
   57.8490   26.1570   46.3320 C   0  0  0  0  0  0  0  0  0  0  0  0
   56.8080   25.1960   45.9080 N   0  0  0  0  0  0  0  0  0  0  0  0
   57.1250   23.8940   45.5950 C   0  0  0  0  0  0  0  0  0  0  0  0
   56.1420   22.9840   45.2770 C   0  0  0  0  0  0  0  0  0  0  0  0
   54.8180   23.3990   45.2160 C   0  0  0  0  0  0  0  0  0  0  0  0
   53.9010   22.5960   44.9050 O   0  0  0  0  0  0  0  0  0  0  0  0
   54.5200   24.6900   45.5090 N   0  0  0  0  0  0  0  0  0  0  0  0
   55.4870   25.5810   45.8600 C   0  0  0  0  0  0  0  0  0  0  0  0
   55.1470   26.7600   46.1430 O   0  0  0  0  0  0  0  0  0  0  0  0
   56.6970   21.3200   44.9860 S   0  0  0  0  0  0  0  0  0  0  0  0
   58.4110   21.9460   44.8970 C   0  0  0  0  0  0  0  0  0  0  0  0
   58.5020   23.3100   45.5940 C   0  0  0  0  0  0  0  0  0  0  0  0
   57.4150   27.9070   44.1710 N   0  0  0  0  0  0  0  0  0  0  0  0
   57.1540   29.2330   43.6170 C   0  0  0  0  0  0  0  0  0  0  0  0
   56.1550   29.9500   44.4670 C   0  0  0  0  0  0  0  0  0  0  0  0
   55.1610   29.3260   44.9300 O   0  0  0  0  0  0  0  0  0  0  0  0
   56.3520   31.3050   44.7630 O   0  0  0  0  0  0  0  0  0  0  0  0
   57.3870   32.0940   44.1800 C   0  0  0  0  0  0  0  0  0  0  0  0
   58.0560   32.9420   45.2270 C   0  0  0  0  0  0  0  0  0  0  0  0
   58.6380   34.1750   44.8880 C   0  0  0  0  0  0  0  0  0  0  0  0
   59.2820   34.9410   45.8640 C   0  0  0  0  0  0  0  0  0  0  0  0
   59.3580   34.4800   47.1830 C   0  0  0  0  0  0  0  0  0  0  0  0
   58.7840   33.2530   47.5280 C   0  0  0  0  0  0  0  0  0  0  0  0
   58.9090   32.6570   49.1730 Cl  0  0  0  0  0  0  0  0  0  0  0  0
   58.1300   32.4880   46.5550 C   0  0  0  0  0  0  0  0  0  0  0  0
   59.0192   25.3098   44.7246 H   0  0  0  0  0  0  0  0  0  0  0  0
   59.9252   26.4246   45.8217 H   0  0  0  0  0  0  0  0  0  0  0  0
   58.2722   25.8268   47.2922 H   0  0  0  0  0  0  0  0  0  0  0  0
   57.3859   27.1497   46.4325 H   0  0  0  0  0  0  0  0  0  0  0  0
   59.0860   21.2350   45.3959 H   0  0  0  0  0  0  0  0  0  0  0  0
   58.7035   22.0564   43.8424 H   0  0  0  0  0  0  0  0  0  0  0  0
   58.8592   23.1833   46.6266 H   0  0  0  0  0  0  0  0  0  0  0  0
   59.2083   23.9715   45.0709 H   0  0  0  0  0  0  0  0  0  0  0  0
   56.6170   27.4010   44.6190 H   0  0  0  0  0  0  0  0  0  0  0  0
   58.0910   29.8086   43.5908 H   0  0  0  0  0  0  0  0  0  0  0  0
   56.7544   29.1281   42.5975 H   0  0  0  0  0  0  0  0  0  0  0  0
   58.1338   31.4295   43.7209 H   0  0  0  0  0  0  0  0  0  0  0  0
   56.9457   32.7525   43.4174 H   0  0  0  0  0  0  0  0  0  0  0  0
   58.5867   34.5388   43.8512 H   0  0  0  0  0  0  0  0  0  0  0  0
   59.7302   35.9087   45.5944 H   0  0  0  0  0  0  0  0  0  0  0  0
   59.8692   35.0829   47.9480 H   0  0  0  0  0  0  0  0  0  0  0  0
   57.6718   31.5269   46.8312 H   0  0  0  0  0  0  0  0  0  0  0  0
  1  2  2  0
  2  3  1  0
  3  4  1  0
  4  5  1  0
  5  6  1  0
  6  7  2  0
  7  8  1  0
  8  9  2  0
  8 10  1  0
 10 11  1  0
 11 12  2  0
  7 13  1  0
 13 14  1  0
 14 15  1  0
  2 16  1  0
 16 17  1  0
 17 18  1  0
 18 19  2  0
 18 20  1  0
 20 21  1  0
 21 22  1  0
 22 23  2  0
 23 24  1  0
 24 25  2  0
 25 26  1  0
 26 27  1  0
 26 28  2  0
 11  5  1  0
 28 22  1  0
 15  6  1  0
  3 29  1  0
  3 30  1  0
  4 31  1  0
  4 32  1  0
 14 33  1  0
 14 34  1  0
 15 35  1  0
 15 36  1  0
 16 37  1  0
 17 38  1  0
 17 39  1  0
 21 40  1  0
 21 41  1  0
 23 42  1  0
 24 43  1  0
 25 44  1  0
 28 45  1  0
M  CHG  1  10  -1
M  END
>  <UniqueID>  (30) 
30

>  <SMILES>  (30) 
O=C(CCn1c2c(c(=O)[n-]c1=O)SCC2)NCC(=O)OCc1cccc(Cl)c1

>  <Energy>  (30) 
47.110421888044016

>  <Genealogy>  (30) 
O=C(CCn1c2c(c(=O)[n-]c1=O)SCC2)NCC(=O)OCc1cccc(Cl)c1 (protonated)
O=C(CCn1c2c(c(=O)[n-]c1=O)SCC2)NCC(=O)OCc1cccc(Cl)c1 (3D coordinates assigned)
O=C(CCn1c2c(c(=O)[n-]c1=O)SCC2)NCC(=O)OCc1cccc(Cl)c1 (nonaromatic ring conformer: 47.110421888044016 kcal/mol)

>  <smiles>  (30) 
O=C(CCn1c2c(c(=O)[nH]c1=O)SCC2)NCC(=O)OCc1cccc(Cl)c1

>  <score_type>  (30) 
oracle

>  <origin>  (30) 
adg

>  <m_score__min__energy>  (30) 
-11.73

>  <m_primary>  (30) 
energy

$$$$
30:0
     RDKit          3D

 46 49  0  0  0  0  0  0  0  0999 V2000
   61.6440   34.2580   48.4770 C   0  0  0  0  0  0  0  0  0  0  0  0
   61.0020   33.2390   47.9110 C   0  0  0  0  0  0  0  0  0  0  0  0
   61.4840   31.8650   47.7700 C   0  0  0  0  0  0  0  0  0  0  0  0
   62.5960   31.4210   48.1630 O   0  0  0  0  0  0  0  0  0  0  0  0
   60.4470   31.0940   47.0890 C   0  0  0  0  0  0  0  0  0  0  0  0
   60.4440   29.7510   46.7320 C   0  0  0  0  0  0  0  0  0  0  0  0
   59.3120   29.2220   46.0700 C   0  0  0  0  0  0  0  0  0  0  0  0
   59.2820   27.8610   45.6950 C   0  0  0  0  0  0  0  0  0  0  0  0
   60.3660   27.0520   46.0150 O   0  0  0  0  0  0  0  0  0  0  0  0
   58.1560   27.3350   45.0190 C   0  0  0  0  0  0  0  0  0  0  0  0
   58.0260   25.9990   44.5830 O   0  0  0  0  0  0  0  0  0  0  0  0
   56.8550   25.1800   44.5260 C   0  0  1  0  0  0  0  0  0  0  0  0
   57.2580   23.9040   44.0350 O   0  0  0  0  0  0  0  0  0  0  0  0
   56.4990   22.7960   44.5140 C   0  0  2  0  0  0  0  0  0  0  0  0
   56.6420   21.6280   43.5270 C   0  0  0  0  0  0  0  0  0  0  0  0
   56.1190   21.9800   42.2740 O   0  0  0  0  0  0  0  0  0  0  0  0
   55.0080   23.1380   44.7600 C   0  0  2  0  0  0  0  0  0  0  0  0
   54.4150   23.5810   43.5630 O   0  0  0  0  0  0  0  0  0  0  0  0
   54.9050   24.2290   45.8550 C   0  0  2  0  0  0  0  0  0  0  0  0
   53.7350   24.9980   45.6950 O   0  0  0  0  0  0  0  0  0  0  0  0
   56.1800   25.1080   45.9230 C   0  0  2  0  0  0  0  0  0  0  0  0
   55.8570   26.3870   46.4060 O   0  0  0  0  0  0  0  0  0  0  0  0
   57.0680   28.1730   44.7600 C   0  0  0  0  0  0  0  0  0  0  0  0
   57.0750   29.5170   45.1260 C   0  0  0  0  0  0  0  0  0  0  0  0
   55.9560   30.2880   44.8270 O   0  0  0  0  0  0  0  0  0  0  0  0
   58.1940   30.0690   45.7820 C   0  0  0  0  0  0  0  0  0  0  0  0
   58.2360   31.4380   46.1650 C   0  0  0  0  0  0  0  0  0  0  0  0
   57.1790   32.3060   45.9090 O   0  0  0  0  0  0  0  0  0  0  0  0
   59.3740   31.9170   46.8130 C   0  0  0  0  0  0  0  0  0  0  0  0
   59.6700   33.2620   47.3050 C   0  0  0  0  0  0  0  0  0  0  0  0
   58.9120   34.2650   47.2230 O   0  0  0  0  0  0  0  0  0  0  0  0
   61.1707   35.2500   48.5210 H   0  0  0  0  0  0  0  0  0  0  0  0
   62.6479   34.1083   48.9009 H   0  0  0  0  0  0  0  0  0  0  0  0
   61.3081   29.1099   46.9607 H   0  0  0  0  0  0  0  0  0  0  0  0
   56.0962   25.5997   43.8492 H   0  0  0  0  0  0  0  0  0  0  0  0
   56.9029   22.5115   45.4968 H   0  0  0  0  0  0  0  0  0  0  0  0
   57.7068   21.3746   43.4171 H   0  0  0  0  0  0  0  0  0  0  0  0
   56.0856   20.7623   43.9155 H   0  0  0  0  0  0  0  0  0  0  0  0
   56.0930   22.9710   42.2410 H   0  0  0  0  0  0  0  0  0  0  0  0
   54.4736   22.2389   45.1007 H   0  0  0  0  0  0  0  0  0  0  0  0
   55.1500   23.8160   42.9390 H   0  0  0  0  0  0  0  0  0  0  0  0
   54.8315   23.7180   46.8263 H   0  0  0  0  0  0  0  0  0  0  0  0
   53.7550   25.7270   46.3690 H   0  0  0  0  0  0  0  0  0  0  0  0
   56.8992   24.6543   46.6208 H   0  0  0  0  0  0  0  0  0  0  0  0
   54.9330   26.3430   46.7690 H   0  0  0  0  0  0  0  0  0  0  0  0
   56.1828   27.7604   44.2538 H   0  0  0  0  0  0  0  0  0  0  0  0
  1  2  2  0
  2  3  1  0
  3  4  2  0
  3  5  1  0
  5  6  2  0
  6  7  1  0
  7  8  2  0
  8  9  1  0
  8 10  1  0
 10 11  1  0
 11 12  1  0
 12 13  1  0
 13 14  1  0
 14 15  1  0
 15 16  1  0
 14 17  1  0
 17 18  1  0
 17 19  1  0
 19 20  1  0
 19 21  1  0
 21 22  1  0
 10 23  2  0
 23 24  1  0
 24 25  1  0
 24 26  2  0
 26 27  1  0
 27 28  1  0
 27 29  2  0
 29 30  1  0
 30 31  2  0
 30  2  1  0
 29  5  1  0
 26  7  1  0
 21 12  1  0
  1 32  1  0
  1 33  1  0
  6 34  1  0
 12 35  1  6
 14 36  1  1
 15 37  1  0
 15 38  1  0
 16 39  1  0
 17 40  1  1
 18 41  1  0
 19 42  1  1
 20 43  1  0
 21 44  1  1
 22 45  1  0
 23 46  1  0
M  CHG  3   9  -1  25  -1  28  -1
M  END
>  <UniqueID>  (31) 
31

>  <SMILES>  (31) 
C=C1C(=O)c2cc3c([O-])c(O[C@H]4O[C@H](CO)C(O)C(O)C4O)cc([O-])c3c([O-])c2C1=O

>  <Energy>  (31) 
105.33373434489074

>  <Genealogy>  (31) 
C=C1C(=O)c2cc3c([O-])c(OC4OC(CO)C(O)C(O)C4O)cc([O-])c3c([O-])c2C1=O (protonated)
C=C1C(=O)c2cc3c([O-])c(O[C@H]4O[C@H](CO)C(O)C(O)C4O)cc([O-])c3c([O-])c2C1=O (chirality)
C=C1C(=O)c2cc3c([O-])c(O[C@H]4O[C@H](CO)C(O)C(O)C4O)cc([O-])c3c([O-])c2C1=O (3D coordinates assigned)
C=C1C(=O)c2cc3c([O-])c(O[C@H]4O[C@H](CO)C(O)C(O)C4O)cc([O-])c3c([O-])c2C1=O (nonaromatic ring conformer: 105.33373434489074 kcal/mol)

>  <smiles>  (31) 
C=C1C(=O)c2cc3c(O)c(OC4OC(CO)C(O)C(O)C4O)cc(O)c3c(O)c2C1=O

>  <score_type>  (31) 
oracle

>  <origin>  (31) 
adg

>  <m_score__min__energy>  (31) 
-14.640000000000001

>  <m_primary>  (31) 
energy

$$$$
31:0
     RDKit          3D

 50 52  0  0  0  0  0  0  0  0999 V2000
   63.2210   33.5730   47.4730 C   0  0  0  0  0  0  0  0  0  0  0  0
   62.6350   33.9210   48.6230 C   0  0  0  0  0  0  0  0  0  0  0  0
   61.1920   34.3760   48.6840 C   0  0  0  0  0  0  0  0  0  0  0  0
   60.3570   33.8770   47.5630 N   0  0  0  0  0  0  0  0  0  0  0  0
   59.0620   33.3200   48.0350 C   0  0  0  0  0  0  0  0  0  0  0  0
   57.9770   33.2550   46.9350 C   0  0  0  0  0  0  0  0  0  0  0  0
   58.5660   33.2470   45.5890 N   0  0  0  0  0  0  0  0  0  0  0  0
   57.9650   32.4570   44.5440 C   0  0  0  0  0  0  0  0  0  0  0  0
   58.2240   32.7440   43.1930 C   0  0  0  0  0  0  0  0  0  0  0  0
   57.6410   31.9740   42.1840 C   0  0  0  0  0  0  0  0  0  0  0  0
   56.7860   30.9190   42.5110 C   0  0  0  0  0  0  0  0  0  0  0  0
   56.4940   30.6360   43.8530 C   0  0  0  0  0  0  0  0  0  0  0  0
   55.5930   29.5170   44.2000 C   0  0  0  0  0  0  0  0  0  0  0  0
   54.5340   29.3480   43.5390 O   0  0  0  0  0  0  0  0  0  0  0  0
   55.9090   28.5890   45.2440 N   0  0  0  0  0  0  0  0  0  0  0  0
   57.0650   27.6970   45.2270 C   0  0  0  0  0  0  0  0  0  0  0  0
   58.2870   28.4560   45.6540 C   0  0  0  0  0  0  0  0  0  0  0  0
   58.2810   29.1910   46.8520 C   0  0  0  0  0  0  0  0  0  0  0  0
   59.4090   29.9260   47.2340 C   0  0  0  0  0  0  0  0  0  0  0  0
   60.5460   29.9390   46.4180 C   0  0  0  0  0  0  0  0  0  0  0  0
   60.5530   29.2250   45.2150 C   0  0  0  0  0  0  0  0  0  0  0  0
   59.4260   28.4890   44.8310 C   0  0  0  0  0  0  0  0  0  0  0  0
   57.1040   31.3960   44.8650 C   0  0  0  0  0  0  0  0  0  0  0  0
   59.6100   34.2230   45.2420 C   0  0  0  0  0  0  0  0  0  0  0  0
   60.1730   34.8900   46.5040 C   0  0  0  0  0  0  0  0  0  0  0  0
   64.2717   33.2474   47.4676 H   0  0  0  0  0  0  0  0  0  0  0  0
   62.6525   33.6123   46.5321 H   0  0  0  0  0  0  0  0  0  0  0  0
   63.2192   33.8754   49.5539 H   0  0  0  0  0  0  0  0  0  0  0  0
   60.7552   34.0174   49.6277 H   0  0  0  0  0  0  0  0  0  0  0  0
   61.1997   35.4737   48.6129 H   0  0  0  0  0  0  0  0  0  0  0  0
   60.9000   33.0820   47.1420 H   0  0  0  0  0  0  0  0  0  0  0  0
   59.2380   32.3010   48.4102 H   0  0  0  0  0  0  0  0  0  0  0  0
   58.6870   33.9957   48.8178 H   0  0  0  0  0  0  0  0  0  0  0  0
   57.3864   32.3370   47.0709 H   0  0  0  0  0  0  0  0  0  0  0  0
   57.3431   34.1493   47.0261 H   0  0  0  0  0  0  0  0  0  0  0  0
   58.8892   33.5793   42.9288 H   0  0  0  0  0  0  0  0  0  0  0  0
   57.8558   32.1991   41.1289 H   0  0  0  0  0  0  0  0  0  0  0  0
   56.3400   30.3077   41.7126 H   0  0  0  0  0  0  0  0  0  0  0  0
   56.8926   26.8597   45.9193 H   0  0  0  0  0  0  0  0  0  0  0  0
   57.2124   27.3061   44.2094 H   0  0  0  0  0  0  0  0  0  0  0  0
   57.3862   29.1885   47.4918 H   0  0  0  0  0  0  0  0  0  0  0  0
   59.4020   30.4938   48.1761 H   0  0  0  0  0  0  0  0  0  0  0  0
   61.4347   30.5110   46.7228 H   0  0  0  0  0  0  0  0  0  0  0  0
   61.4444   29.2420   44.5707 H   0  0  0  0  0  0  0  0  0  0  0  0
   59.4317   27.9341   43.8812 H   0  0  0  0  0  0  0  0  0  0  0  0
   56.9047   31.1570   45.9201 H   0  0  0  0  0  0  0  0  0  0  0  0
   60.4246   33.7070   44.7128 H   0  0  0  0  0  0  0  0  0  0  0  0
   59.1679   34.9992   44.6001 H   0  0  0  0  0  0  0  0  0  0  0  0
   61.1422   35.3549   46.2704 H   0  0  0  0  0  0  0  0  0  0  0  0
   59.4690   35.6592   46.8543 H   0  0  0  0  0  0  0  0  0  0  0  0
  1  2  2  0
  2  3  1  0
  3  4  1  0
  4  5  1  0
  5  6  1  0
  6  7  1  0
  7  8  1  0
  8  9  2  0
  9 10  1  0
 10 11  2  0
 11 12  1  0
 12 13  1  0
 13 14  2  0
 13 15  1  0
 15 16  1  0
 16 17  1  0
 17 18  2  0
 18 19  1  0
 19 20  2  0
 20 21  1  0
 21 22  2  0
 12 23  2  0
  7 24  1  0
 24 25  1  0
 25  4  1  0
 23  8  1  0
 22 17  1  0
  1 26  1  0
  1 27  1  0
  2 28  1  0
  3 29  1  0
  3 30  1  0
  4 31  1  0
  5 32  1  0
  5 33  1  0
  6 34  1  0
  6 35  1  0
  9 36  1  0
 10 37  1  0
 11 38  1  0
 16 39  1  0
 16 40  1  0
 18 41  1  0
 19 42  1  0
 20 43  1  0
 21 44  1  0
 22 45  1  0
 23 46  1  0
 24 47  1  0
 24 48  1  0
 25 49  1  0
 25 50  1  0
M  CHG  2   4   1  15  -1
M  END
>  <UniqueID>  (32) 
32

>  <SMILES>  (32) 
C=CC[NH+]1CCN(c2cccc(C(=O)[N-]Cc3ccccc3)c2)CC1

>  <Energy>  (32) 
66.22708144046216

>  <Genealogy>  (32) 
C=CC[NH+]1CCN(c2cccc(C(=O)[N-]Cc3ccccc3)c2)CC1 (protonated)
C=CC[NH+]1CCN(c2cccc(C(=O)[N-]Cc3ccccc3)c2)CC1 (3D coordinates assigned)
C=CC[NH+]1CCN(c2cccc(C(=O)[N-]Cc3ccccc3)c2)CC1 (nonaromatic ring conformer: 66.22708144046216 kcal/mol)

>  <smiles>  (32) 
C=CCN1CCN(c2cccc(C(=O)NCc3ccccc3)c2)CC1

>  <score_type>  (32) 
oracle

>  <origin>  (32) 
adg

>  <m_score__min__energy>  (32) 
-8.8100000000000005

>  <m_primary>  (32) 
energy

$$$$
32:0
     RDKit          3D

 75 79  0  0  0  0  0  0  0  0999 V2000
   55.6424   30.9852   44.6406 H   0  0  0  0  0  0  0  0  0  0  0  0
   56.7210   30.9480   44.4280 C   0  0  0  0  0  0  0  0  0  0  0  0
   57.4760   32.2120   44.5410 C   0  0  0  0  0  0  0  0  0  0  0  0
   57.8180   32.7900   43.4780 O   0  0  0  0  0  0  0  0  0  0  0  0
   57.8790   32.7610   45.8130 N   0  0  0  0  0  0  0  0  0  0  0  0
   58.2950   34.1630   45.8990 C   0  0  0  0  0  0  0  0  0  0  0  0
   58.0007   34.5759   46.8752 H   0  0  0  0  0  0  0  0  0  0  0  0
   57.8106   34.7444   45.1007 H   0  0  0  0  0  0  0  0  0  0  0  0
   59.8160   34.2410   45.7460 C   0  0  0  0  0  0  0  0  0  0  0  0
   60.1515   35.2559   46.0055 H   0  0  0  0  0  0  0  0  0  0  0  0
   60.0747   34.0026   44.7038 H   0  0  0  0  0  0  0  0  0  0  0  0
   60.4880   33.2730   46.6270 N   0  0  0  0  0  0  0  0  0  0  0  0
   61.8860   33.4660   46.9010 C   0  0  0  0  0  0  0  0  0  0  0  0
   62.6570   33.8560   45.9820 O   0  0  0  0  0  0  0  0  0  0  0  0
   62.4340   33.1860   48.2380 C   0  0  0  0  0  0  0  0  0  0  0  0
   63.8200   33.1080   48.4320 C   0  0  0  0  0  0  0  0  0  0  0  0
   64.5018   33.2734   47.5848 H   0  0  0  0  0  0  0  0  0  0  0  0
   64.3390   32.8210   49.6970 C   0  0  0  0  0  0  0  0  0  0  0  0
   65.4269   32.7315   49.8327 H   0  0  0  0  0  0  0  0  0  0  0  0
   63.4840   32.6460   50.7960 C   0  0  0  0  0  0  0  0  0  0  0  0
   64.0630   32.3830   52.1610 C   0  0  0  0  0  0  0  0  0  0  0  0
   63.3481   32.7077   52.9313 H   0  0  0  0  0  0  0  0  0  0  0  0
   64.2605   31.3068   52.2744 H   0  0  0  0  0  0  0  0  0  0  0  0
   65.0034   32.9423   52.2744 H   0  0  0  0  0  0  0  0  0  0  0  0
   62.0890   32.7880   50.6170 C   0  0  0  0  0  0  0  0  0  0  0  0
   61.1980   32.7270   51.7420 N   0  0  0  0  0  0  0  0  0  0  0  0
   60.6420   33.5770   51.9890 H   0  0  0  0  0  0  0  0  0  0  0  0
   60.8770   31.4870   52.3910 C   0  0  0  0  0  0  0  0  0  0  0  0
   61.3970   30.4060   51.9930 O   0  0  0  0  0  0  0  0  0  0  0  0
   59.8950   31.4540   53.5200 C   0  0  0  0  0  0  0  0  0  0  0  0
   60.1029   30.5816   54.1569 H   0  0  0  0  0  0  0  0  0  0  0  0
   59.9919   32.3793   54.1068 H   0  0  0  0  0  0  0  0  0  0  0  0
   58.5020   31.3570   52.9900 C   0  0  0  0  0  0  0  0  0  0  0  0
   57.4140   30.1250   53.3450 S   0  0  0  0  0  0  0  0  0  0  0  0
   56.2110   30.7630   52.3400 C   0  0  0  0  0  0  0  0  0  0  0  0
   54.9040   30.1890   52.1510 N   0  0  0  0  0  0  0  0  0  0  0  0
   54.5820   28.8690   52.7170 C   0  0  0  0  0  0  0  0  0  0  0  0
   54.5937   28.1208   51.9107 H   0  0  0  0  0  0  0  0  0  0  0  0
   55.3332   28.6271   53.4832 H   0  0  0  0  0  0  0  0  0  0  0  0
   53.1910   28.8690   53.3820 C   0  0  0  0  0  0  0  0  0  0  0  0
   52.7833   27.8485   53.3339 H   0  0  0  0  0  0  0  0  0  0  0  0
   53.3295   29.2180   54.4159 H   0  0  0  0  0  0  0  0  0  0  0  0
   52.1840   29.8270   52.7150 C   0  0  0  0  0  0  0  0  0  0  0  0
   51.1920   29.3518   52.7114 H   0  0  0  0  0  0  0  0  0  0  0  0
   52.1769   30.7641   53.2911 H   0  0  0  0  0  0  0  0  0  0  0  0
   52.5740   30.1640   51.2750 C   0  0  0  0  0  0  0  0  0  0  0  0
   52.6197   29.2378   50.6833 H   0  0  0  0  0  0  0  0  0  0  0  0
   51.8224   30.8429   50.8459 H   0  0  0  0  0  0  0  0  0  0  0  0
   53.9450   30.8500   51.2520 C   0  0  0  0  0  0  0  0  0  0  0  0
   54.3405   30.8201   50.2260 H   0  0  0  0  0  0  0  0  0  0  0  0
   53.8136   31.8865   51.5961 H   0  0  0  0  0  0  0  0  0  0  0  0
   56.6240   31.8970   51.7300 N   0  0  0  0  0  0  0  0  0  0  0  0
   57.8950   32.2230   52.0840 C   0  0  0  0  0  0  0  0  0  0  0  0
   58.5330   33.3390   51.5570 O   0  0  0  0  0  0  0  0  0  0  0  0
   61.5740   33.0240   49.3320 C   0  0  0  0  0  0  0  0  0  0  0  0
   60.4857   33.0822   49.1831 H   0  0  0  0  0  0  0  0  0  0  0  0
   59.9640   31.9000   46.7420 C   0  0  0  0  0  0  0  0  0  0  0  0
   60.3886   31.4288   47.6407 H   0  0  0  0  0  0  0  0  0  0  0  0
   60.2500   31.3430   45.8376 H   0  0  0  0  0  0  0  0  0  0  0  0
   58.4360   31.8930   46.8500 C   0  0  0  0  0  0  0  0  0  0  0  0
   58.1351   32.2633   47.8411 H   0  0  0  0  0  0  0  0  0  0  0  0
   58.0598   30.8680   46.7168 H   0  0  0  0  0  0  0  0  0  0  0  0
   57.2390   29.7580   44.0880 C   0  0  0  0  0  0  0  0  0  0  0  0
   56.9355   29.3383   43.1176 H   0  0  0  0  0  0  0  0  0  0  0  0
   58.1820   28.9600   44.9020 C   0  0  0  0  0  0  0  0  0  0  0  0
   57.6720   28.1750   45.9500 C   0  0  0  0  0  0  0  0  0  0  0  0
   56.5847   28.1099   46.1035 H   0  0  0  0  0  0  0  0  0  0  0  0
   58.5340   27.4770   46.7980 C   0  0  0  0  0  0  0  0  0  0  0  0
   58.1248   26.8540   47.6069 H   0  0  0  0  0  0  0  0  0  0  0  0
   59.9150   27.5700   46.6190 C   0  0  0  0  0  0  0  0  0  0  0  0
   60.5942   27.0274   47.2930 H   0  0  0  0  0  0  0  0  0  0  0  0
   60.4360   28.3520   45.5840 C   0  0  0  0  0  0  0  0  0  0  0  0
   61.5244   28.4162   45.4379 H   0  0  0  0  0  0  0  0  0  0  0  0
   59.5740   29.0530   44.7340 C   0  0  0  0  0  0  0  0  0  0  0  0
   59.9878   29.6799   43.9304 H   0  0  0  0  0  0  0  0  0  0  0  0
  1  2  1  0
  2  3  1  0
  3  4  2  0
  3  5  1  0
  5  6  1  0
  6  7  1  0
  6  8  1  0
  6  9  1  0
  9 10  1  0
  9 11  1  0
  9 12  1  0
 12 13  1  0
 13 14  2  0
 13 15  1  0
 15 16  2  0
 16 17  1  0
 16 18  1  0
 18 19  1  0
 18 20  2  0
 20 21  1  0
 21 22  1  0
 21 23  1  0
 21 24  1  0
 20 25  1  0
 25 26  1  0
 26 27  1  0
 26 28  1  0
 28 29  2  0
 28 30  1  0
 30 31  1  0
 30 32  1  0
 30 33  1  0
 33 34  1  0
 34 35  1  0
 35 36  1  0
 36 37  1  0
 37 38  1  0
 37 39  1  0
 37 40  1  0
 40 41  1  0
 40 42  1  0
 40 43  1  0
 43 44  1  0
 43 45  1  0
 43 46  1  0
 46 47  1  0
 46 48  1  0
 46 49  1  0
 49 50  1  0
 49 51  1  0
 35 52  2  0
 52 53  1  0
 53 54  1  0
 25 55  2  0
 55 56  1  0
 12 57  1  0
 57 58  1  0
 57 59  1  0
 57 60  1  0
 60 61  1  0
 60 62  1  0
  2 63  2  0
 63 64  1  0
 63 65  1  0
 65 66  2  0
 66 67  1  0
 66 68  1  0
 68 69  1  0
 68 70  2  0
 70 71  1  0
 70 72  1  0
 72 73  1  0
 72 74  2  0
 74 75  1  0
 60  5  1  0
 74 65  1  0
 55 15  1  0
 53 33  2  0
 49 36  1  0
M  CHG  1  54  -1
M  END
>  <UniqueID>  (33) 
33

>  <SMILES>  (33) 
Cc1ccc(C(=O)N2CCN(C(=O)/C=C\c3ccccc3)CC2)cc1NC(=O)Cc1sc(N2CCCCC2)nc1[O-]

>  <Energy>  (33) 
127.21836966047866

>  <Genealogy>  (33) 
Cc1ccc(C(=O)N2CCN(C(=O)C=Cc3ccccc3)CC2)cc1NC(=O)Cc1sc(N2CCCCC2)nc1[O-] (protonated)
Cc1ccc(C(=O)N2CCN(C(=O)/C=C\c3ccccc3)CC2)cc1NC(=O)Cc1sc(N2CCCCC2)nc1[O-] (cis-trans isomerization)
Cc1ccc(C(=O)N2CCN(C(=O)/C=C\c3ccccc3)CC2)cc1NC(=O)Cc1sc(N2CCCCC2)nc1[O-] (3D coordinates assigned)
Cc1ccc(C(=O)N2CCN(C(=O)/C=C\c3ccccc3)CC2)cc1NC(=O)Cc1sc(N2CCCCC2)nc1[O-] (nonaromatic ring conformer: 127.21836966047866 kcal/mol)

>  <smiles>  (33) 
Cc1ccc(C(=O)N2CCN(C(=O)C=Cc3ccccc3)CC2)cc1NC(=O)Cc1sc(N2CCCCC2)nc1O

>  <score_type>  (33) 
oracle

>  <origin>  (33) 
adg

>  <m_score__min__energy>  (33) 
-14.32

>  <m_primary>  (33) 
energy

$$$$
33:0
     RDKit          3D

 26 27  0  0  0  0  0  0  0  0999 V2000
   57.3830   31.6890   42.5710 C   0  0  0  0  0  0  0  0  0  0  0  0
   57.6280   31.0350   43.7020 C   0  0  0  0  0  0  0  0  0  0  0  0
   57.9920   29.6310   43.8340 C   0  0  0  0  0  0  0  0  0  0  0  0
   58.1480   29.3810   45.1300 C   0  0  0  0  0  0  0  0  0  0  0  0
   58.5900   28.0700   45.7030 C   0  0  0  0  0  0  0  0  0  0  0  0
   57.4060   27.1790   45.9280 C   0  0  0  0  0  0  0  0  0  0  0  0
   57.4790   25.9840   46.5420 N   0  0  0  0  0  0  0  0  0  0  0  0
   56.1920   25.5770   46.5860 C   0  0  0  0  0  0  0  0  0  0  0  0
   55.8460   24.4770   47.0920 O   0  0  0  0  0  0  0  0  0  0  0  0
   55.3060   26.4410   46.0490 N   0  0  0  0  0  0  0  0  0  0  0  0
   56.0860   27.4550   45.6420 C   0  0  0  0  0  0  0  0  0  0  0  0
   55.5910   28.6020   45.0280 O   0  0  0  0  0  0  0  0  0  0  0  0
   57.9090   30.6040   45.9040 C   0  0  0  0  0  0  0  0  0  0  0  0
   57.6010   31.5780   45.0520 C   0  0  0  0  0  0  0  0  0  0  0  0
   57.2990   32.9060   45.3770 O   0  0  0  0  0  0  0  0  0  0  0  0
   57.6350   33.5000   46.6270 C   0  0  0  0  0  0  0  0  0  0  0  0
   57.1155   32.7556   42.5993 H   0  0  0  0  0  0  0  0  0  0  0  0
   57.4477   31.1636   41.6068 H   0  0  0  0  0  0  0  0  0  0  0  0
   58.1152   28.9102   43.0123 H   0  0  0  0  0  0  0  0  0  0  0  0
   59.2839   27.5825   45.0024 H   0  0  0  0  0  0  0  0  0  0  0  0
   59.0926   28.2494   46.6649 H   0  0  0  0  0  0  0  0  0  0  0  0
   54.7310   28.5900   44.4950 H   0  0  0  0  0  0  0  0  0  0  0  0
   57.9733   30.6990   46.9980 H   0  0  0  0  0  0  0  0  0  0  0  0
   57.2733   32.8606   47.4458 H   0  0  0  0  0  0  0  0  0  0  0  0
   58.7273   33.6069   46.7003 H   0  0  0  0  0  0  0  0  0  0  0  0
   57.1638   34.4913   46.7003 H   0  0  0  0  0  0  0  0  0  0  0  0
  1  2  2  0
  2  3  1  0
  3  4  2  0
  4  5  1  0
  5  6  1  0
  6  7  1  0
  7  8  1  0
  8  9  2  0
  8 10  1  0
 10 11  1  0
 11 12  1  0
  4 13  1  0
 13 14  2  0
 14 15  1  0
 15 16  1  0
 14  2  1  0
 11  6  2  0
  1 17  1  0
  1 18  1  0
  3 19  1  0
  5 20  1  0
  5 21  1  0
 12 22  1  0
 13 23  1  0
 16 24  1  0
 16 25  1  0
 16 26  1  0
M  CHG  2   7  -1  10  -1
M  END
>  <UniqueID>  (34) 
34

>  <SMILES>  (34) 
C=C1C=C(Cc2[n-]c(=O)[n-]c2O)C=C1OC

>  <Energy>  (34) 
71.49547803915057

>  <Genealogy>  (34) 
C=C1C=C(Cc2[n-]c(=O)[n-]c2O)C=C1OC (protonated)
C=C1C=C(Cc2[n-]c(=O)[n-]c2O)C=C1OC (3D coordinates assigned)
C=C1C=C(Cc2[n-]c(=O)[n-]c2O)C=C1OC (nonaromatic ring conformer: 71.49547803915057 kcal/mol)

>  <smiles>  (34) 
C=C1C=C(Cc2[nH]c(=O)[nH]c2O)C=C1OC

>  <score_type>  (34) 
oracle

>  <origin>  (34) 
adg

>  <m_score__min__energy>  (34) 
-11

>  <m_primary>  (34) 
energy

$$$$
34:0
     RDKit          3D

 46 48  0  0  0  0  0  0  0  0999 V2000
   59.8990   28.6400   46.9650 N   0  0  0  0  0  0  0  0  0  0  0  0
   59.4410   28.4310   45.6260 C   0  0  0  0  0  0  0  0  0  0  0  0
   59.9870   27.5340   44.9300 O   0  0  0  0  0  0  0  0  0  0  0  0
   58.3550   29.2540   45.0400 C   0  0  0  0  0  0  0  0  0  0  0  0
   57.0370   28.7680   45.0290 C   0  0  0  0  0  0  0  0  0  0  0  0
   56.0030   29.5370   44.4900 C   0  0  0  0  0  0  0  0  0  0  0  0
   56.2640   30.8110   43.9850 C   0  0  0  0  0  0  0  0  0  0  0  0
   57.5660   31.3350   44.0230 C   0  0  0  0  0  0  0  0  0  0  0  0
   57.8490   32.7330   43.5190 C   0  0  0  0  0  0  0  0  0  0  0  0
   57.8630   33.7600   44.5850 N   0  0  0  0  0  0  0  0  0  0  0  0
   57.0170   33.4670   45.7700 C   0  0  0  0  0  0  0  0  0  0  0  0
   57.7810   33.5710   47.0950 C   0  0  0  0  0  0  0  0  0  0  0  0
   59.1220   33.0150   46.9210 N   0  0  0  0  0  0  0  0  0  0  0  0
   59.4610   31.7230   47.4740 C   0  0  0  0  0  0  0  0  0  0  0  0
   58.5470   30.9520   47.8700 O   0  0  0  0  0  0  0  0  0  0  0  0
   60.8140   31.2530   47.5150 N   0  0  0  0  0  0  0  0  0  0  0  0
   61.9410   31.9850   48.0100 C   0  0  0  0  0  0  0  0  0  0  0  0
   62.1730   32.0240   49.3910 C   0  0  0  0  0  0  0  0  0  0  0  0
   63.2560   32.7440   49.9030 C   0  0  0  0  0  0  0  0  0  0  0  0
   64.1030   33.4440   49.0390 C   0  0  0  0  0  0  0  0  0  0  0  0
   63.8650   33.4280   47.6630 C   0  0  0  0  0  0  0  0  0  0  0  0
   62.7830   32.7080   47.1470 C   0  0  0  0  0  0  0  0  0  0  0  0
   59.9930   33.6660   45.9330 C   0  0  0  0  0  0  0  0  0  0  0  0
   59.1720   34.4000   44.8520 C   0  0  0  0  0  0  0  0  0  0  0  0
   58.6110   30.5380   44.5230 C   0  0  0  0  0  0  0  0  0  0  0  0
   59.6000   29.4660   47.5260 H   0  0  0  0  0  0  0  0  0  0  0  0
   60.6210   28.0050   47.3720 H   0  0  0  0  0  0  0  0  0  0  0  0
   56.8177   27.7748   45.4478 H   0  0  0  0  0  0  0  0  0  0  0  0
   54.9788   29.1365   44.4636 H   0  0  0  0  0  0  0  0  0  0  0  0
   55.4460   31.4077   43.5551 H   0  0  0  0  0  0  0  0  0  0  0  0
   58.8321   32.7316   43.0256 H   0  0  0  0  0  0  0  0  0  0  0  0
   57.0331   32.9969   42.8300 H   0  0  0  0  0  0  0  0  0  0  0  0
   56.1824   34.1833   45.7900 H   0  0  0  0  0  0  0  0  0  0  0  0
   56.6666   32.4287   45.6741 H   0  0  0  0  0  0  0  0  0  0  0  0
   57.8563   34.6268   47.3945 H   0  0  0  0  0  0  0  0  0  0  0  0
   57.2463   33.0095   47.8753 H   0  0  0  0  0  0  0  0  0  0  0  0
   61.5003   31.4859   50.0750 H   0  0  0  0  0  0  0  0  0  0  0  0
   63.4420   32.7598   50.9870 H   0  0  0  0  0  0  0  0  0  0  0  0
   64.9570   34.0075   49.4429 H   0  0  0  0  0  0  0  0  0  0  0  0
   64.5296   33.9825   46.9842 H   0  0  0  0  0  0  0  0  0  0  0  0
   62.5903   32.7073   46.0640 H   0  0  0  0  0  0  0  0  0  0  0  0
   60.6368   34.3939   46.4486 H   0  0  0  0  0  0  0  0  0  0  0  0
   60.5965   32.8896   45.4402 H   0  0  0  0  0  0  0  0  0  0  0  0
   58.9954   35.4327   45.1871 H   0  0  0  0  0  0  0  0  0  0  0  0
   59.7520   34.3647   43.9180 H   0  0  0  0  0  0  0  0  0  0  0  0
   59.6414   30.9227   44.5100 H   0  0  0  0  0  0  0  0  0  0  0  0
  1  2  1  0
  2  3  2  0
  2  4  1  0
  4  5  2  0
  5  6  1  0
  6  7  2  0
  7  8  1  0
  8  9  1  0
  9 10  1  0
 10 11  1  0
 11 12  1  0
 12 13  1  0
 13 14  1  0
 14 15  2  0
 14 16  1  0
 16 17  1  0
 17 18  2  0
 18 19  1  0
 19 20  2  0
 20 21  1  0
 21 22  2  0
 13 23  1  0
 23 24  1  0
  8 25  2  0
 25  4  1  0
 24 10  1  0
 22 17  1  0
  1 26  1  0
  1 27  1  0
  5 28  1  0
  6 29  1  0
  7 30  1  0
  9 31  1  0
  9 32  1  0
 11 33  1  0
 11 34  1  0
 12 35  1  0
 12 36  1  0
 18 37  1  0
 19 38  1  0
 20 39  1  0
 21 40  1  0
 22 41  1  0
 23 42  1  0
 23 43  1  0
 24 44  1  0
 24 45  1  0
 25 46  1  0
M  CHG  1  16  -1
M  END
>  <UniqueID>  (35) 
35

>  <SMILES>  (35) 
NC(=O)c1cccc(CN2CCN(C(=O)[N-]c3ccccc3)CC2)c1

>  <Energy>  (35) 
64.79011049895337

>  <Genealogy>  (35) 
NC(=O)c1cccc(CN2CCN(C(=O)[N-]c3ccccc3)CC2)c1 (protonated)
NC(=O)c1cccc(CN2CCN(C(=O)[N-]c3ccccc3)CC2)c1 (3D coordinates assigned)
NC(=O)c1cccc(CN2CCN(C(=O)[N-]c3ccccc3)CC2)c1 (nonaromatic ring conformer: 64.79011049895337 kcal/mol)

>  <smiles>  (35) 
NC(=O)c1cccc(CN2CCN(C(=O)Nc3ccccc3)CC2)c1

>  <score_type>  (35) 
oracle

>  <origin>  (35) 
adg

>  <m_score__min__energy>  (35) 
-10.130000000000001

>  <m_primary>  (35) 
energy

$$$$
35:0
     RDKit          3D

 59 62  0  0  0  0  0  0  0  0999 V2000
   64.8900   32.3690   49.4380 C   0  0  0  0  0  0  0  0  0  0  0  0
   63.6750   32.9480   48.7790 C   0  0  0  0  0  0  0  0  0  0  0  0
   62.7480   33.6850   49.5330 C   0  0  0  0  0  0  0  0  0  0  0  0
   61.5890   34.1860   48.9310 C   0  0  0  0  0  0  0  0  0  0  0  0
   61.3370   33.9450   47.5720 C   0  0  0  0  0  0  0  0  0  0  0  0
   59.8720   34.5730   46.8110 S   0  0  0  0  0  0  0  0  0  0  0  0
   58.8970   34.9910   47.8770 O   0  0  0  0  0  0  0  0  0  0  0  0
   60.2260   35.7920   46.0020 O   0  0  0  0  0  0  0  0  0  0  0  0
   59.1210   33.3820   45.7740 N   0  0  0  0  0  0  0  0  0  0  0  0
   58.8520   33.9620   44.4430 C   0  0  0  0  0  0  0  0  0  0  0  0
   57.9210   33.0880   43.5600 C   0  0  0  0  0  0  0  0  0  0  0  0
   57.5470   31.8020   44.1750 N   0  0  0  0  0  0  0  0  0  0  0  0
   57.1530   30.7020   43.3320 C   0  0  0  0  0  0  0  0  0  0  0  0
   57.0130   30.8740   42.0890 O   0  0  0  0  0  0  0  0  0  0  0  0
   56.9200   29.4400   43.8990 O   0  0  0  0  0  0  0  0  0  0  0  0
   57.9280   28.4400   44.0280 C   0  0  0  0  0  0  0  0  0  0  0  0
   58.6730   28.6070   45.3260 C   0  0  0  0  0  0  0  0  0  0  0  0
   59.8260   29.4040   45.3910 C   0  0  0  0  0  0  0  0  0  0  0  0
   60.4940   29.5820   46.6060 C   0  0  0  0  0  0  0  0  0  0  0  0
   60.0200   28.9700   47.7800 C   0  0  0  0  0  0  0  0  0  0  0  0
   60.7240   29.1670   49.0740 C   0  0  0  0  0  0  0  0  0  0  0  0
   61.3270   30.4020   49.3810 C   0  0  0  0  0  0  0  0  0  0  0  0
   61.9920   30.5840   50.5990 C   0  0  0  0  0  0  0  0  0  0  0  0
   62.0630   29.5370   51.5220 C   0  0  0  0  0  0  0  0  0  0  0  0
   62.7100   29.7150   52.7010 F   0  0  0  0  0  0  0  0  0  0  0  0
   61.4690   28.3070   51.2300 C   0  0  0  0  0  0  0  0  0  0  0  0
   60.8030   28.1200   50.0140 C   0  0  0  0  0  0  0  0  0  0  0  0
   58.8610   28.1740   47.7100 C   0  0  0  0  0  0  0  0  0  0  0  0
   58.1920   27.9970   46.4950 C   0  0  0  0  0  0  0  0  0  0  0  0
   57.4060   31.6420   45.6300 C   0  0  0  0  0  0  0  0  0  0  0  0
   57.8800   32.8840   46.3820 C   0  0  0  0  0  0  0  0  0  0  0  0
   62.2550   33.1960   46.8220 C   0  0  0  0  0  0  0  0  0  0  0  0
   63.4140   32.6920   47.4230 C   0  0  0  0  0  0  0  0  0  0  0  0
   64.7756   32.4235   50.5307 H   0  0  0  0  0  0  0  0  0  0  0  0
   65.0068   31.3184   49.1335 H   0  0  0  0  0  0  0  0  0  0  0  0
   65.7795   32.9400   49.1335 H   0  0  0  0  0  0  0  0  0  0  0  0
   62.9338   33.8692   50.6014 H   0  0  0  0  0  0  0  0  0  0  0  0
   60.8722   34.7714   49.5256 H   0  0  0  0  0  0  0  0  0  0  0  0
   59.8050   32.5930   45.6720 H   0  0  0  0  0  0  0  0  0  0  0  0
   58.3777   34.9448   44.5815 H   0  0  0  0  0  0  0  0  0  0  0  0
   59.8178   34.0329   43.9212 H   0  0  0  0  0  0  0  0  0  0  0  0
   57.0008   33.6562   43.3593 H   0  0  0  0  0  0  0  0  0  0  0  0
   58.4809   32.8519   42.6431 H   0  0  0  0  0  0  0  0  0  0  0  0
   57.4570   27.4462   44.0062 H   0  0  0  0  0  0  0  0  0  0  0  0
   58.6384   28.5411   43.1943 H   0  0  0  0  0  0  0  0  0  0  0  0
   60.2063   29.8913   44.4811 H   0  0  0  0  0  0  0  0  0  0  0  0
   61.3987   30.2065   46.6441 H   0  0  0  0  0  0  0  0  0  0  0  0
   61.2750   31.2296   48.6583 H   0  0  0  0  0  0  0  0  0  0  0  0
   62.4595   31.5525   50.8301 H   0  0  0  0  0  0  0  0  0  0  0  0
   61.5250   27.4838   51.9575 H   0  0  0  0  0  0  0  0  0  0  0  0
   60.3377   27.1488   49.7900 H   0  0  0  0  0  0  0  0  0  0  0  0
   58.4783   27.6870   48.6191 H   0  0  0  0  0  0  0  0  0  0  0  0
   57.2844   27.3767   46.4551 H   0  0  0  0  0  0  0  0  0  0  0  0
   56.3471   31.4631   45.8683 H   0  0  0  0  0  0  0  0  0  0  0  0
   58.0291   30.7916   45.9441 H   0  0  0  0  0  0  0  0  0  0  0  0
   57.1061   33.6637   46.3263 H   0  0  0  0  0  0  0  0  0  0  0  0
   58.0661   32.6258   47.4349 H   0  0  0  0  0  0  0  0  0  0  0  0
   62.0632   33.0036   45.7561 H   0  0  0  0  0  0  0  0  0  0  0  0
   64.1226   32.0936   46.8316 H   0  0  0  0  0  0  0  0  0  0  0  0
  1  2  1  0
  2  3  2  0
  3  4  1  0
  4  5  2  0
  5  6  1  0
  6  7  2  0
  6  8  2  0
  6  9  1  0
  9 10  1  0
 10 11  1  0
 11 12  1  0
 12 13  1  0
 13 14  2  0
 13 15  1  0
 15 16  1  0
 16 17  1  0
 17 18  2  0
 18 19  1  0
 19 20  2  0
 20 21  1  0
 21 22  2  0
 22 23  1  0
 23 24  2  0
 24 25  1  0
 24 26  1  0
 26 27  2  0
 20 28  1  0
 28 29  2  0
 12 30  1  0
 30 31  1  0
  5 32  1  0
 32 33  2  0
 33  2  1  0
 31  9  1  0
 29 17  1  0
 27 21  1  0
  1 34  1  0
  1 35  1  0
  1 36  1  0
  3 37  1  0
  4 38  1  0
  9 39  1  0
 10 40  1  0
 10 41  1  0
 11 42  1  0
 11 43  1  0
 16 44  1  0
 16 45  1  0
 18 46  1  0
 19 47  1  0
 22 48  1  0
 23 49  1  0
 26 50  1  0
 27 51  1  0
 28 52  1  0
 29 53  1  0
 30 54  1  0
 30 55  1  0
 31 56  1  0
 31 57  1  0
 32 58  1  0
 33 59  1  0
M  CHG  1   9   1
M  END
>  <UniqueID>  (36) 
36

>  <SMILES>  (36) 
Cc1ccc(S(=O)(=O)[NH+]2CCN(C(=O)OCc3ccc(-c4ccc(F)cc4)cc3)CC2)cc1

>  <Energy>  (36) 
68.16379549886935

>  <Genealogy>  (36) 
Cc1ccc(S(=O)(=O)[NH+]2CCN(C(=O)OCc3ccc(-c4ccc(F)cc4)cc3)CC2)cc1 (protonated)
Cc1ccc(S(=O)(=O)[NH+]2CCN(C(=O)OCc3ccc(-c4ccc(F)cc4)cc3)CC2)cc1 (3D coordinates assigned)
Cc1ccc(S(=O)(=O)[NH+]2CCN(C(=O)OCc3ccc(-c4ccc(F)cc4)cc3)CC2)cc1 (nonaromatic ring conformer: 68.16379549886935 kcal/mol)

>  <smiles>  (36) 
Cc1ccc(S(=O)(=O)N2CCN(C(=O)OCc3ccc(-c4ccc(F)cc4)cc3)CC2)cc1

>  <score_type>  (36) 
oracle

>  <origin>  (36) 
adg

>  <m_score__min__energy>  (36) 
-7.2000000000000002

>  <m_primary>  (36) 
energy

$$$$
36:0
     RDKit          3D

 21 21  0  0  0  0  0  0  0  0999 V2000
   55.5220   29.9670   43.9800 C   0  0  0  0  0  0  0  0  0  0  0  0
   56.4660   29.3080   44.6660 C   0  0  0  0  0  0  0  0  0  0  0  0
   56.1400   28.0490   45.2720 N   0  0  0  0  0  0  0  0  0  0  0  0
   57.1320   27.2190   45.9070 C   0  0  0  0  0  0  0  0  0  0  0  0
   56.6550   25.9920   46.6440 C   0  0  0  0  0  0  0  0  0  0  0  0
   55.8150   24.8960   45.5190 Cl  0  0  0  0  0  0  0  0  0  0  0  0
   58.4430   27.5540   45.8640 C   0  0  0  0  0  0  0  0  0  0  0  0
   59.6480   26.5580   46.7000 Cl  0  0  0  0  0  0  0  0  0  0  0  0
   58.8870   28.7820   45.1430 C   0  0  0  0  0  0  0  0  0  0  0  0
   60.1680   28.9270   44.7700 C   0  0  0  0  0  0  0  0  0  0  0  0
   57.8610   29.7980   44.7830 C   0  0  0  0  0  0  0  0  0  0  0  0
   58.1660   31.1050   44.6980 C   0  0  0  0  0  0  0  0  0  0  0  0
   55.7573   30.9333   43.5100 H   0  0  0  0  0  0  0  0  0  0  0  0
   54.5119   29.5416   43.8870 H   0  0  0  0  0  0  0  0  0  0  0  0
   55.1460   27.7270   45.2680 H   0  0  0  0  0  0  0  0  0  0  0  0
   57.5190   25.4716   47.0831 H   0  0  0  0  0  0  0  0  0  0  0  0
   55.9594   26.2958   47.4401 H   0  0  0  0  0  0  0  0  0  0  0  0
   60.4866   29.8359   44.2387 H   0  0  0  0  0  0  0  0  0  0  0  0
   60.8993   28.1369   44.9956 H   0  0  0  0  0  0  0  0  0  0  0  0
   57.3881   31.8350   44.4299 H   0  0  0  0  0  0  0  0  0  0  0  0
   59.1934   31.4441   44.8966 H   0  0  0  0  0  0  0  0  0  0  0  0
  1  2  2  0
  2  3  1  0
  3  4  1  0
  4  5  1  0
  5  6  1  0
  4  7  2  0
  7  8  1  0
  7  9  1  0
  9 10  2  0
  9 11  1  0
 11 12  2  0
 11  2  1  0
  1 13  1  0
  1 14  1  0
  3 15  1  0
  5 16  1  0
  5 17  1  0
 10 18  1  0
 10 19  1  0
 12 20  1  0
 12 21  1  0
M  END
>  <UniqueID>  (37) 
37

>  <SMILES>  (37) 
C=C1NC(CCl)=C(Cl)C(=C)C1=C

>  <Energy>  (37) 
26.67612063906664

>  <Genealogy>  (37) 
C=C1NC(CCl)=C(Cl)C(=C)C1=C (3D coordinates assigned)
C=C1NC(CCl)=C(Cl)C(=C)C1=C (nonaromatic ring conformer: 26.67612063906664 kcal/mol)

>  <smiles>  (37) 
C=C1NC(CCl)=C(Cl)C(=C)C1=C

>  <score_type>  (37) 
oracle

>  <origin>  (37) 
adg

>  <m_score__min__energy>  (37) 
-5.9299999999999997

>  <m_primary>  (37) 
energy

$$$$
37:0
     RDKit          3D

 56 59  0  0  0  0  0  0  0  0999 V2000
   56.6570   29.6830   45.9580 O   0  0  0  0  0  0  0  0  0  0  0  0
   56.5560   29.2210   44.7900 C   0  0  0  0  0  0  0  0  0  0  0  0
   55.8300   30.0190   43.7500 C   0  0  0  0  0  0  0  0  0  0  0  0
   56.7980   30.4880   42.6590 C   0  0  0  0  0  0  0  0  0  0  0  0
   57.4390   31.8470   42.9850 C   0  0  0  0  0  0  0  0  0  0  0  0
   57.9460   31.8910   44.3760 N   0  0  0  0  0  0  0  0  0  0  0  0
   57.5220   32.8740   45.2400 C   0  0  0  0  0  0  0  0  0  0  0  0
   56.6720   33.7340   44.8760 O   0  0  0  0  0  0  0  0  0  0  0  0
   58.0170   32.9410   46.5030 N   0  0  0  0  0  0  0  0  0  0  0  0
   58.9360   32.0540   46.9530 C   0  0  0  0  0  0  0  0  0  0  0  0
   59.4300   32.1590   48.2610 C   0  0  0  0  0  0  0  0  0  0  0  0
   60.3800   31.2430   48.7250 C   0  0  0  0  0  0  0  0  0  0  0  0
   60.8380   30.2210   47.8880 C   0  0  0  0  0  0  0  0  0  0  0  0
   60.3490   30.1090   46.5810 C   0  0  0  0  0  0  0  0  0  0  0  0
   59.3930   31.0290   46.1030 C   0  0  0  0  0  0  0  0  0  0  0  0
   58.8730   30.9660   44.7970 C   0  0  0  0  0  0  0  0  0  0  0  0
   59.2660   30.0560   44.0120 O   0  0  0  0  0  0  0  0  0  0  0  0
   57.0580   27.9120   44.4730 N   0  0  0  0  0  0  0  0  0  0  0  0
   57.9420   27.1620   45.3300 C   0  0  0  0  0  0  0  0  0  0  0  0
   59.3320   27.3870   45.2950 C   0  0  0  0  0  0  0  0  0  0  0  0
   60.1890   26.6760   46.1380 C   0  0  0  0  0  0  0  0  0  0  0  0
   59.6770   25.7210   47.0150 C   0  0  0  0  0  0  0  0  0  0  0  0
   58.3070   25.4650   47.0450 C   0  0  0  0  0  0  0  0  0  0  0  0
   57.4320   26.1710   46.2020 C   0  0  0  0  0  0  0  0  0  0  0  0
   55.9930   25.8520   46.2510 C   0  0  0  0  0  0  0  0  0  0  0  0
   55.1560   26.7170   45.8830 O   0  0  0  0  0  0  0  0  0  0  0  0
   55.5230   24.5780   46.7080 N   0  0  0  0  0  0  0  0  0  0  0  0
   54.7380   23.6560   45.8970 C   0  0  0  0  0  0  0  0  0  0  0  0
   55.6470   22.9600   44.9250 C   0  0  0  0  0  0  0  0  0  0  0  0
   55.6160   23.2900   43.5590 C   0  0  0  0  0  0  0  0  0  0  0  0
   56.4230   22.5980   42.6480 C   0  0  0  0  0  0  0  0  0  0  0  0
   57.2560   21.5680   43.0910 C   0  0  0  0  0  0  0  0  0  0  0  0
   57.2830   21.2270   44.4470 C   0  0  0  0  0  0  0  0  0  0  0  0
   56.4780   21.9160   45.3620 C   0  0  0  0  0  0  0  0  0  0  0  0
   55.0477   29.3937   43.2951 H   0  0  0  0  0  0  0  0  0  0  0  0
   55.3804   30.9012   44.2291 H   0  0  0  0  0  0  0  0  0  0  0  0
   57.5959   29.7388   42.5496 H   0  0  0  0  0  0  0  0  0  0  0  0
   56.2223   30.6045   41.7290 H   0  0  0  0  0  0  0  0  0  0  0  0
   58.2769   32.0215   42.2940 H   0  0  0  0  0  0  0  0  0  0  0  0
   56.6699   32.6256   42.8743 H   0  0  0  0  0  0  0  0  0  0  0  0
   59.0706   32.9614   48.9221 H   0  0  0  0  0  0  0  0  0  0  0  0
   60.7677   31.3270   49.7510 H   0  0  0  0  0  0  0  0  0  0  0  0
   61.5848   29.5028   48.2575 H   0  0  0  0  0  0  0  0  0  0  0  0
   60.7108   29.3026   45.9262 H   0  0  0  0  0  0  0  0  0  0  0  0
   56.6880   27.4590   43.6070 H   0  0  0  0  0  0  0  0  0  0  0  0
   59.7464   28.1296   44.5972 H   0  0  0  0  0  0  0  0  0  0  0  0
   61.2714   26.8702   46.1098 H   0  0  0  0  0  0  0  0  0  0  0  0
   60.3542   25.1693   47.6836 H   0  0  0  0  0  0  0  0  0  0  0  0
   57.9082   24.7052   47.7332 H   0  0  0  0  0  0  0  0  0  0  0  0
   54.2557   22.9119   46.5479 H   0  0  0  0  0  0  0  0  0  0  0  0
   53.9643   24.2123   45.3476 H   0  0  0  0  0  0  0  0  0  0  0  0
   54.9553   24.0949   43.2045 H   0  0  0  0  0  0  0  0  0  0  0  0
   56.4010   22.8659   41.5814 H   0  0  0  0  0  0  0  0  0  0  0  0
   57.8900   21.0257   42.3741 H   0  0  0  0  0  0  0  0  0  0  0  0
   57.9385   20.4153   44.7956 H   0  0  0  0  0  0  0  0  0  0  0  0
   56.4966   21.6387   46.4263 H   0  0  0  0  0  0  0  0  0  0  0  0
  1  2  2  0
  2  3  1  0
  3  4  1  0
  4  5  1  0
  5  6  1  0
  6  7  1  0
  7  8  2  0
  7  9  1  0
  9 10  1  0
 10 11  2  0
 11 12  1  0
 12 13  2  0
 13 14  1  0
 14 15  2  0
 15 16  1  0
 16 17  2  0
  2 18  1  0
 18 19  1  0
 19 20  2  0
 20 21  1  0
 21 22  2  0
 22 23  1  0
 23 24  2  0
 24 25  1  0
 25 26  2  0
 25 27  1  0
 27 28  1  0
 28 29  1  0
 29 30  2  0
 30 31  1  0
 31 32  2  0
 32 33  1  0
 33 34  2  0
 16  6  1  0
 24 19  1  0
 34 29  1  0
 15 10  1  0
  3 35  1  0
  3 36  1  0
  4 37  1  0
  4 38  1  0
  5 39  1  0
  5 40  1  0
 11 41  1  0
 12 42  1  0
 13 43  1  0
 14 44  1  0
 18 45  1  0
 20 46  1  0
 21 47  1  0
 22 48  1  0
 23 49  1  0
 28 50  1  0
 28 51  1  0
 30 52  1  0
 31 53  1  0
 32 54  1  0
 33 55  1  0
 34 56  1  0
M  CHG  2   9  -1  27  -1
M  END
>  <UniqueID>  (38) 
38

>  <SMILES>  (38) 
O=C(CCCn1c(=O)[n-]c2ccccc2c1=O)Nc1ccccc1C(=O)[N-]Cc1ccccc1

>  <Energy>  (38) 
72.34218058390091

>  <Genealogy>  (38) 
O=C(CCCn1c(=O)[n-]c2ccccc2c1=O)Nc1ccccc1C(=O)[N-]Cc1ccccc1 (protonated)
O=C(CCCn1c(=O)[n-]c2ccccc2c1=O)Nc1ccccc1C(=O)[N-]Cc1ccccc1 (3D coordinates assigned)
O=C(CCCn1c(=O)[n-]c2ccccc2c1=O)Nc1ccccc1C(=O)[N-]Cc1ccccc1 (optimized conformer: 72.34218058390091 kcal/mol)

>  <smiles>  (38) 
O=C(CCCn1c(=O)[nH]c2ccccc2c1=O)Nc1ccccc1C(=O)NCc1ccccc1

>  <score_type>  (38) 
oracle

>  <origin>  (38) 
adg

>  <m_score__min__energy>  (38) 
-13.359999999999999

>  <m_primary>  (38) 
energy

$$$$
38:0
     RDKit          3D

 58 62  0  0  0  0  0  0  0  0999 V2000
   62.4230   31.9920   46.9870 O   0  0  0  0  0  0  0  0  0  0  0  0
   62.1920   32.9150   47.8170 C   0  0  0  0  0  0  0  0  0  0  0  0
   61.0100   33.7190   47.6710 N   0  0  0  0  0  0  0  0  0  0  0  0
   59.9810   33.4110   46.6710 C   0  0  0  0  0  0  0  0  0  0  0  0
   58.6140   33.2420   47.3440 C   0  0  0  0  0  0  0  0  0  0  0  0
   57.5360   32.8600   46.3090 C   0  0  0  0  0  0  0  0  0  0  0  0
   57.6970   33.5250   44.9860 N   0  0  0  0  0  0  0  0  0  0  0  0
   58.1480   32.5940   43.9270 C   0  0  0  0  0  0  0  0  0  0  0  0
   57.8490   31.1670   44.3010 C   0  0  0  0  0  0  0  0  0  0  0  0
   56.5630   30.6340   44.1210 C   0  0  0  0  0  0  0  0  0  0  0  0
   56.2880   29.3130   44.4860 C   0  0  0  0  0  0  0  0  0  0  0  0
   57.2940   28.5010   45.0380 C   0  0  0  0  0  0  0  0  0  0  0  0
   57.0160   27.0990   45.4250 C   0  0  0  0  0  0  0  0  0  0  0  0
   55.9120   26.7190   46.1130 N   0  0  0  0  0  0  0  0  0  0  0  0
   55.8590   25.4110   46.3610 N   0  0  0  0  0  0  0  0  0  0  0  0
   56.9210   24.7420   45.8710 C   0  0  0  0  0  0  0  0  0  0  0  0
   57.0930   23.3350   46.0120 N   0  0  0  0  0  0  0  0  0  0  0  0
   57.8630   22.2600   45.3630 C   0  0  0  0  0  0  0  0  0  0  0  0
   57.3610   21.1570   46.2370 C   0  0  0  0  0  0  0  0  0  0  0  0
   56.5860   22.2590   46.8800 C   0  0  0  0  0  0  0  0  0  0  0  0
   58.0010   25.7640   45.0890 S   0  0  0  0  0  0  0  0  0  0  0  0
   58.5800   29.0410   45.2220 C   0  0  0  0  0  0  0  0  0  0  0  0
   58.8530   30.3620   44.8570 C   0  0  0  0  0  0  0  0  0  0  0  0
   58.5050   34.7630   45.0540 C   0  0  0  0  0  0  0  0  0  0  0  0
   59.9270   34.5190   45.5960 C   0  0  0  0  0  0  0  0  0  0  0  0
   63.1580   33.1560   48.9170 C   0  0  0  0  0  0  0  0  0  0  0  0
   62.8550   34.0920   49.9250 C   0  0  0  0  0  0  0  0  0  0  0  0
   63.7570   34.3340   50.9640 C   0  0  0  0  0  0  0  0  0  0  0  0
   64.9750   33.6520   51.0080 C   0  0  0  0  0  0  0  0  0  0  0  0
   65.2940   32.7290   50.0090 C   0  0  0  0  0  0  0  0  0  0  0  0
   64.3960   32.4830   48.9670 C   0  0  0  0  0  0  0  0  0  0  0  0
   60.8930   34.5710   48.2640 H   0  0  0  0  0  0  0  0  0  0  0  0
   60.2427   32.4629   46.1784 H   0  0  0  0  0  0  0  0  0  0  0  0
   58.6817   32.4490   48.1033 H   0  0  0  0  0  0  0  0  0  0  0  0
   58.3310   34.1969   47.8110 H   0  0  0  0  0  0  0  0  0  0  0  0
   57.5758   31.7715   46.1551 H   0  0  0  0  0  0  0  0  0  0  0  0
   56.5720   33.1977   46.7173 H   0  0  0  0  0  0  0  0  0  0  0  0
   57.6274   32.8368   42.9889 H   0  0  0  0  0  0  0  0  0  0  0  0
   59.2355   32.7037   43.8034 H   0  0  0  0  0  0  0  0  0  0  0  0
   55.7671   31.2594   43.6903 H   0  0  0  0  0  0  0  0  0  0  0  0
   55.2766   28.9057   44.3402 H   0  0  0  0  0  0  0  0  0  0  0  0
   57.5914   22.1215   44.3061 H   0  0  0  0  0  0  0  0  0  0  0  0
   58.9531   22.3924   45.2992 H   0  0  0  0  0  0  0  0  0  0  0  0
   56.7606   20.3863   45.7315 H   0  0  0  0  0  0  0  0  0  0  0  0
   58.0136   20.4625   46.7864 H   0  0  0  0  0  0  0  0  0  0  0  0
   55.4983   22.1201   46.7925 H   0  0  0  0  0  0  0  0  0  0  0  0
   56.7096   22.3910   47.9650 H   0  0  0  0  0  0  0  0  0  0  0  0
   59.3764   28.4188   45.6563 H   0  0  0  0  0  0  0  0  0  0  0  0
   59.8623   30.7729   45.0069 H   0  0  0  0  0  0  0  0  0  0  0  0
   58.5826   35.1881   44.0424 H   0  0  0  0  0  0  0  0  0  0  0  0
   57.9995   35.4507   45.7479 H   0  0  0  0  0  0  0  0  0  0  0  0
   60.5762   34.2261   44.7577 H   0  0  0  0  0  0  0  0  0  0  0  0
   60.2638   35.4533   46.0690 H   0  0  0  0  0  0  0  0  0  0  0  0
   61.9000   34.6371   49.8938 H   0  0  0  0  0  0  0  0  0  0  0  0
   63.5074   35.0631   51.7489 H   0  0  0  0  0  0  0  0  0  0  0  0
   65.6826   33.8415   51.8286 H   0  0  0  0  0  0  0  0  0  0  0  0
   66.2548   32.1944   50.0427 H   0  0  0  0  0  0  0  0  0  0  0  0
   64.6567   31.7595   48.1805 H   0  0  0  0  0  0  0  0  0  0  0  0
  1  2  2  0
  2  3  1  0
  3  4  1  0
  4  5  1  0
  5  6  1  0
  6  7  1  0
  7  8  1  0
  8  9  1  0
  9 10  2  0
 10 11  1  0
 11 12  2  0
 12 13  1  0
 13 14  2  0
 14 15  1  0
 15 16  2  0
 16 17  1  0
 17 18  1  0
 18 19  1  0
 19 20  1  0
 16 21  1  0
 12 22  1  0
 22 23  2  0
  7 24  1  0
 24 25  1  0
  2 26  1  0
 26 27  2  0
 27 28  1  0
 28 29  2  0
 29 30  1  0
 30 31  2  0
 25  4  1  0
 31 26  1  0
 23  9  1  0
 21 13  1  0
 20 17  1  0
  3 32  1  0
  4 33  1  0
  5 34  1  0
  5 35  1  0
  6 36  1  0
  6 37  1  0
  8 38  1  0
  8 39  1  0
 10 40  1  0
 11 41  1  0
 18 42  1  0
 18 43  1  0
 19 44  1  0
 19 45  1  0
 20 46  1  0
 20 47  1  0
 22 48  1  0
 23 49  1  0
 24 50  1  0
 24 51  1  0
 25 52  1  0
 25 53  1  0
 27 54  1  0
 28 55  1  0
 29 56  1  0
 30 57  1  0
 31 58  1  0
M  END
>  <UniqueID>  (39) 
39

>  <SMILES>  (39) 
O=C(NC1CCN(Cc2ccc(-c3nnc(N4CCC4)s3)cc2)CC1)c1ccccc1

>  <Energy>  (39) 
150.43376820061556

>  <Genealogy>  (39) 
O=C(NC1CCN(Cc2ccc(-c3nnc(N4CCC4)s3)cc2)CC1)c1ccccc1 (3D coordinates assigned)
O=C(NC1CCN(Cc2ccc(-c3nnc(N4CCC4)s3)cc2)CC1)c1ccccc1 (nonaromatic ring conformer: 150.43376820061556 kcal/mol)

>  <smiles>  (39) 
O=C(NC1CCN(Cc2ccc(-c3nnc(N4CCC4)s3)cc2)CC1)c1ccccc1

>  <score_type>  (39) 
oracle

>  <origin>  (39) 
adg

>  <m_score__min__energy>  (39) 
-9.9399999999999995

>  <m_primary>  (39) 
energy

$$$$
39:0
     RDKit          3D

 70 75  0  0  0  0  0  0  0  0999 V2000
   57.4270   27.7710   44.0990 O   0  0  0  0  0  0  0  0  0  0  0  0
   57.4120   28.5580   45.0860 C   0  0  0  0  0  0  0  0  0  0  0  0
   56.4760   29.6430   45.1150 N   0  0  0  0  0  0  0  0  0  0  0  0
   56.5600   30.8030   44.2380 C   0  0  0  0  0  0  0  0  0  0  0  0
   57.5160   31.8110   44.8130 C   0  0  0  0  0  0  0  0  0  0  0  0
   57.7230   31.8650   46.2000 C   0  0  0  0  0  0  0  0  0  0  0  0
   58.5770   32.8250   46.7490 C   0  0  0  0  0  0  0  0  0  0  0  0
   59.2350   33.7490   45.9230 C   0  0  0  0  0  0  0  0  0  0  0  0
   60.1230   34.7810   46.5040 C   0  0  0  0  0  0  0  0  0  0  0  0
   59.7980   35.9950   46.4140 O   0  0  0  0  0  0  0  0  0  0  0  0
   61.3520   34.4260   47.1640 N   0  0  0  0  0  0  0  0  0  0  0  0
   62.4270   33.8220   46.3570 C   0  0  0  0  0  0  0  0  0  0  0  0
   63.7610   33.7890   47.1090 C   0  0  0  0  0  0  0  0  0  0  0  0
   63.5670   33.2080   48.4780 C   0  0  0  0  0  0  0  0  0  0  0  0
   64.5240   32.3500   49.0430 C   0  0  0  0  0  0  0  0  0  0  0  0
   64.3380   31.8490   50.3340 C   0  0  0  0  0  0  0  0  0  0  0  0
   63.2070   32.2130   51.0700 C   0  0  0  0  0  0  0  0  0  0  0  0
   62.2600   33.0790   50.5190 C   0  0  0  0  0  0  0  0  0  0  0  0
   62.4310   33.5740   49.2170 C   0  0  0  0  0  0  0  0  0  0  0  0
   61.4490   34.5570   48.6310 C   0  0  0  0  0  0  0  0  0  0  0  0
   59.0020   33.7150   44.5380 C   0  0  0  0  0  0  0  0  0  0  0  0
   58.1520   32.7500   43.9850 C   0  0  0  0  0  0  0  0  0  0  0  0
   58.3560   28.3570   46.2090 C   0  0  0  0  0  0  0  0  0  0  0  0
   58.9880   27.1150   46.3990 C   0  0  0  0  0  0  0  0  0  0  0  0
   59.9040   26.9390   47.4390 C   0  0  0  0  0  0  0  0  0  0  0  0
   60.1940   27.9930   48.3050 C   0  0  0  0  0  0  0  0  0  0  0  0
   59.5540   29.2340   48.1510 C   0  0  0  0  0  0  0  0  0  0  0  0
   59.8780   30.3830   49.0770 C   0  0  0  0  0  0  0  0  0  0  0  0
   58.8820   30.4960   50.2060 C   0  0  0  0  0  0  0  0  0  0  0  0
   58.2970   29.3530   50.6560 N   0  0  0  0  0  0  0  0  0  0  0  0
   57.3810   29.3600   51.6240 N   0  0  0  0  0  0  0  0  0  0  0  0
   56.9760   30.5130   52.2120 C   0  0  0  0  0  0  0  0  0  0  0  0
   56.0920   30.4730   53.1070 O   0  0  0  0  0  0  0  0  0  0  0  0
   57.5460   31.7310   51.8110 C   0  0  0  0  0  0  0  0  0  0  0  0
   58.5190   31.7270   50.7970 C   0  0  0  0  0  0  0  0  0  0  0  0
   59.0900   33.0600   50.3670 C   0  0  0  0  0  0  0  0  0  0  0  0
   59.4040   33.9160   51.5990 C   0  0  0  0  0  0  0  0  0  0  0  0
   58.2130   34.0590   52.5780 C   0  0  0  0  0  0  0  0  0  0  0  0
   57.0630   33.0550   52.3570 C   0  0  0  0  0  0  0  0  0  0  0  0
   58.6500   29.4140   47.0900 C   0  0  0  0  0  0  0  0  0  0  0  0
   56.9168   30.4859   43.2470 H   0  0  0  0  0  0  0  0  0  0  0  0
   55.5638   31.2602   44.1458 H   0  0  0  0  0  0  0  0  0  0  0  0
   57.2104   31.1480   46.8582 H   0  0  0  0  0  0  0  0  0  0  0  0
   58.7347   32.8567   47.8372 H   0  0  0  0  0  0  0  0  0  0  0  0
   62.1402   32.7922   46.0976 H   0  0  0  0  0  0  0  0  0  0  0  0
   62.5610   34.4375   45.4552 H   0  0  0  0  0  0  0  0  0  0  0  0
   64.4786   33.1707   46.5498 H   0  0  0  0  0  0  0  0  0  0  0  0
   64.1457   34.8151   47.2047 H   0  0  0  0  0  0  0  0  0  0  0  0
   65.4204   32.0721   48.4692 H   0  0  0  0  0  0  0  0  0  0  0  0
   65.0824   31.1675   50.7715 H   0  0  0  0  0  0  0  0  0  0  0  0
   63.0624   31.8164   52.0858 H   0  0  0  0  0  0  0  0  0  0  0  0
   61.3782   33.3737   51.1068 H   0  0  0  0  0  0  0  0  0  0  0  0
   60.4574   34.3751   49.0711 H   0  0  0  0  0  0  0  0  0  0  0  0
   61.8032   35.5727   48.8610 H   0  0  0  0  0  0  0  0  0  0  0  0
   59.4909   34.4517   43.8836 H   0  0  0  0  0  0  0  0  0  0  0  0
   57.9818   32.7272   42.8985 H   0  0  0  0  0  0  0  0  0  0  0  0
   58.7596   26.2768   45.7243 H   0  0  0  0  0  0  0  0  0  0  0  0
   60.3982   25.9658   47.5753 H   0  0  0  0  0  0  0  0  0  0  0  0
   60.9274   27.8519   49.1126 H   0  0  0  0  0  0  0  0  0  0  0  0
   60.8803   30.2253   49.5018 H   0  0  0  0  0  0  0  0  0  0  0  0
   59.8364   31.3136   48.4920 H   0  0  0  0  0  0  0  0  0  0  0  0
   60.0140   32.8930   49.7940 H   0  0  0  0  0  0  0  0  0  0  0  0
   58.3531   33.5841   49.7407 H   0  0  0  0  0  0  0  0  0  0  0  0
   60.2434   33.4531   52.1386 H   0  0  0  0  0  0  0  0  0  0  0  0
   59.6443   34.9261   51.2357 H   0  0  0  0  0  0  0  0  0  0  0  0
   58.5938   33.9219   53.6008 H   0  0  0  0  0  0  0  0  0  0  0  0
   57.7874   35.0577   52.4004 H   0  0  0  0  0  0  0  0  0  0  0  0
   56.5604   32.8773   53.3192 H   0  0  0  0  0  0  0  0  0  0  0  0
   56.3769   33.4912   51.6161 H   0  0  0  0  0  0  0  0  0  0  0  0
   58.1670   30.3919   46.9468 H   0  0  0  0  0  0  0  0  0  0  0  0
  1  2  2  0
  2  3  1  0
  3  4  1  0
  4  5  1  0
  5  6  2  0
  6  7  1  0
  7  8  2  0
  8  9  1  0
  9 10  2  0
  9 11  1  0
 11 12  1  0
 12 13  1  0
 13 14  1  0
 14 15  2  0
 15 16  1  0
 16 17  2  0
 17 18  1  0
 18 19  2  0
 19 20  1  0
  8 21  1  0
 21 22  2  0
  2 23  1  0
 23 24  2  0
 24 25  1  0
 25 26  2  0
 26 27  1  0
 27 28  1  0
 28 29  1  0
 29 30  2  0
 30 31  1  0
 31 32  1  0
 32 33  2  0
 32 34  1  0
 34 35  2  0
 35 36  1  0
 36 37  1  0
 37 38  1  0
 38 39  1  0
 27 40  2  0
 22  5  1  0
 40 23  1  0
 20 11  1  0
 35 29  1  0
 19 14  1  0
 39 34  1  0
  4 41  1  0
  4 42  1  0
  6 43  1  0
  7 44  1  0
 12 45  1  0
 12 46  1  0
 13 47  1  0
 13 48  1  0
 15 49  1  0
 16 50  1  0
 17 51  1  0
 18 52  1  0
 20 53  1  0
 20 54  1  0
 21 55  1  0
 22 56  1  0
 24 57  1  0
 25 58  1  0
 26 59  1  0
 28 60  1  0
 28 61  1  0
 36 62  1  0
 36 63  1  0
 37 64  1  0
 37 65  1  0
 38 66  1  0
 38 67  1  0
 39 68  1  0
 39 69  1  0
 40 70  1  0
M  CHG  2   3  -1  31  -1
M  END
>  <UniqueID>  (40) 
40

>  <SMILES>  (40) 
O=C([N-]Cc1ccc(C(=O)N2CCc3ccccc3C2)cc1)c1cccc(Cc2n[n-]c(=O)c3c2CCCC3)c1

>  <Energy>  (40) 
90.69608095435278

>  <Genealogy>  (40) 
O=C([N-]Cc1ccc(C(=O)N2CCc3ccccc3C2)cc1)c1cccc(Cc2n[n-]c(=O)c3c2CCCC3)c1 (protonated)
O=C([N-]Cc1ccc(C(=O)N2CCc3ccccc3C2)cc1)c1cccc(Cc2n[n-]c(=O)c3c2CCCC3)c1 (3D coordinates assigned)
O=C([N-]Cc1ccc(C(=O)N2CCc3ccccc3C2)cc1)c1cccc(Cc2n[n-]c(=O)c3c2CCCC3)c1 (nonaromatic ring conformer: 90.69608095435278 kcal/mol)

>  <smiles>  (40) 
O=C(NCc1ccc(C(=O)N2CCc3ccccc3C2)cc1)c1cccc(Cc2n[nH]c(=O)c3c2CCCC3)c1

>  <score_type>  (40) 
oracle

>  <origin>  (40) 
adg

>  <m_score__min__energy>  (40) 
-16.609999999999999

>  <m_primary>  (40) 
energy

$$$$
40:0
     RDKit          3D

 44 46  0  0  0  0  0  0  0  0999 V2000
   59.0310   28.1490   44.1220 C   0  0  0  0  0  0  0  0  0  0  0  0
   59.3540   28.7280   45.4580 C   0  0  0  0  0  0  0  0  0  0  0  0
   58.6520   28.5060   46.6250 C   0  0  0  0  0  0  0  0  0  0  0  0
   59.2830   29.3050   47.5570 C   0  0  0  0  0  0  0  0  0  0  0  0
   58.8980   29.3860   49.0020 C   0  0  0  0  0  0  0  0  0  0  0  0
   60.3130   29.9480   46.9560 N   0  0  0  0  0  0  0  0  0  0  0  0
   61.2700   30.8890   47.5500 C   0  0  0  0  0  0  0  0  0  0  0  0
   61.1680   32.3090   46.9430 C   0  0  2  0  0  0  0  0  0  0  0  0
   62.3380   33.2150   47.3400 C   0  0  0  0  0  0  0  0  0  0  0  0
   61.7970   34.1460   48.4180 C   0  0  0  0  0  0  0  0  0  0  0  0
   60.2840   34.1520   48.2390 C   0  0  0  0  0  0  0  0  0  0  0  0
   59.9680   33.0080   47.3950 N   0  0  0  0  0  0  0  0  0  0  0  0
   58.6010   32.7030   47.0320 C   0  0  0  0  0  0  0  0  0  0  0  0
   57.7220   32.6840   47.9370 O   0  0  0  0  0  0  0  0  0  0  0  0
   58.1820   32.3820   45.6450 C   0  0  0  0  0  0  0  0  0  0  0  0
   58.6320   33.1670   44.5720 C   0  0  0  0  0  0  0  0  0  0  0  0
   58.2390   32.8460   43.2730 C   0  0  0  0  0  0  0  0  0  0  0  0
   57.4120   31.7450   43.0450 C   0  0  0  0  0  0  0  0  0  0  0  0
   56.9860   30.9700   44.1350 C   0  0  0  0  0  0  0  0  0  0  0  0
   56.1110   29.7990   43.9470 C   0  0  0  0  0  0  0  0  0  0  0  0
   55.4960   29.1850   45.0770 N   0  0  0  0  0  0  0  0  0  0  0  0
   55.8980   29.3340   42.7960 O   0  0  0  0  0  0  0  0  0  0  0  0
   57.3870   31.3070   45.3910 N   0  0  0  0  0  0  0  0  0  0  0  0
   60.3440   29.6140   45.6750 N   0  0  0  0  0  0  0  0  0  0  0  0
   58.4990   27.1954   44.2546 H   0  0  0  0  0  0  0  0  0  0  0  0
   58.3935   28.8499   43.5630 H   0  0  0  0  0  0  0  0  0  0  0  0
   59.9622   27.9747   43.5630 H   0  0  0  0  0  0  0  0  0  0  0  0
   57.7871   27.8436   46.7777 H   0  0  0  0  0  0  0  0  0  0  0  0
   59.7830   29.1998   49.6282 H   0  0  0  0  0  0  0  0  0  0  0  0
   58.4990   30.3877   49.2196 H   0  0  0  0  0  0  0  0  0  0  0  0
   58.1292   28.6299   49.2196 H   0  0  0  0  0  0  0  0  0  0  0  0
   61.0751   30.9536   48.6307 H   0  0  0  0  0  0  0  0  0  0  0  0
   62.2813   30.5104   47.3404 H   0  0  0  0  0  0  0  0  0  0  0  0
   61.1591   32.1366   45.8566 H   0  0  0  0  0  0  0  0  0  0  0  0
   63.1702   32.6142   47.7355 H   0  0  0  0  0  0  0  0  0  0  0  0
   62.7247   33.7772   46.4772 H   0  0  0  0  0  0  0  0  0  0  0  0
   62.0632   33.7708   49.4172 H   0  0  0  0  0  0  0  0  0  0  0  0
   62.2196   35.1577   48.3290 H   0  0  0  0  0  0  0  0  0  0  0  0
   59.7846   34.0553   49.2143 H   0  0  0  0  0  0  0  0  0  0  0  0
   59.9388   35.0921   47.7840 H   0  0  0  0  0  0  0  0  0  0  0  0
   59.2901   34.0294   44.7544 H   0  0  0  0  0  0  0  0  0  0  0  0
   58.5810   33.4609   42.4275 H   0  0  0  0  0  0  0  0  0  0  0  0
   57.0977   31.4876   42.0228 H   0  0  0  0  0  0  0  0  0  0  0  0
   54.4880   29.3510   45.2960 H   0  0  0  0  0  0  0  0  0  0  0  0
  1  2  1  0
  2  3  1  0
  3  4  2  0
  4  5  1  0
  4  6  1  0
  6  7  1  0
  7  8  1  0
  8  9  1  0
  9 10  1  0
 10 11  1  0
 11 12  1  0
 12 13  1  0
 13 14  2  0
 13 15  1  0
 15 16  2  0
 16 17  1  0
 17 18  2  0
 18 19  1  0
 19 20  1  0
 20 21  1  0
 20 22  2  0
 19 23  2  0
  6 24  1  0
 24  2  2  0
 12  8  1  0
 23 15  1  0
  1 25  1  0
  1 26  1  0
  1 27  1  0
  3 28  1  0
  5 29  1  0
  5 30  1  0
  5 31  1  0
  7 32  1  0
  7 33  1  0
  8 34  1  6
  9 35  1  0
  9 36  1  0
 10 37  1  0
 10 38  1  0
 11 39  1  0
 11 40  1  0
 16 41  1  0
 17 42  1  0
 18 43  1  0
 21 44  1  0
M  CHG  1  21  -1
M  END
>  <UniqueID>  (41) 
41

>  <SMILES>  (41) 
Cc1cc(C)n(C[C@@H]2CCCN2C(=O)c2cccc(C([NH-])=O)n2)n1

>  <Energy>  (41) 
72.64780733108061

>  <Genealogy>  (41) 
Cc1cc(C)n(CC2CCCN2C(=O)c2cccc(C([NH-])=O)n2)n1 (protonated)
Cc1cc(C)n(C[C@@H]2CCCN2C(=O)c2cccc(C([NH-])=O)n2)n1 (chirality)
Cc1cc(C)n(C[C@@H]2CCCN2C(=O)c2cccc(C([NH-])=O)n2)n1 (3D coordinates assigned)
Cc1cc(C)n(C[C@@H]2CCCN2C(=O)c2cccc(C([NH-])=O)n2)n1 (nonaromatic ring conformer: 72.64780733108061 kcal/mol)

>  <smiles>  (41) 
Cc1cc(C)n(CC2CCCN2C(=O)c2cccc(C(N)=O)n2)n1

>  <score_type>  (41) 
oracle

>  <origin>  (41) 
adg

>  <m_score__min__energy>  (41) 
-11.73

>  <m_primary>  (41) 
energy

$$$$
41:0
     RDKit          3D

 41 43  0  0  0  0  0  0  0  0999 V2000
   63.6190   31.8840   47.1180 N   0  0  0  0  0  0  0  0  0  0  0  0
   63.0450   33.5140   47.1470 S   0  0  0  0  0  0  0  0  0  0  0  0
   63.4920   34.2210   45.8980 O   0  0  0  0  0  0  0  0  0  0  0  0
   63.6190   34.2270   48.3380 O   0  0  0  0  0  0  0  0  0  0  0  0
   61.2860   33.5150   47.2400 C   0  0  0  0  0  0  0  0  0  0  0  0
   60.5370   34.3840   46.4350 C   0  0  0  0  0  0  0  0  0  0  0  0
   59.1410   34.3820   46.5120 C   0  0  0  0  0  0  0  0  0  0  0  0
   58.4870   33.5100   47.3870 C   0  0  0  0  0  0  0  0  0  0  0  0
   59.2270   32.6220   48.1830 C   0  0  0  0  0  0  0  0  0  0  0  0
   58.5240   31.7310   49.1730 C   0  0  0  0  0  0  0  0  0  0  0  0
   59.1010   30.3800   49.1260 N   0  0  0  0  0  0  0  0  0  0  0  0
   59.7460   29.8710   50.2180 C   0  0  0  0  0  0  0  0  0  0  0  0
   60.3310   28.6040   50.1660 C   0  0  0  0  0  0  0  0  0  0  0  0
   60.2820   27.8670   48.9820 C   0  0  0  0  0  0  0  0  0  0  0  0
   60.8350   26.7350   48.9350 O   0  0  0  0  0  0  0  0  0  0  0  0
   59.6370   28.4030   47.8530 C   0  0  0  0  0  0  0  0  0  0  0  0
   59.5950   27.6740   46.5630 C   0  0  0  0  0  0  0  0  0  0  0  0
   60.5270   27.8460   45.7310 O   0  0  0  0  0  0  0  0  0  0  0  0
   58.4870   26.7450   46.2280 C   0  0  0  0  0  0  0  0  0  0  0  0
   58.7680   25.4300   45.8170 C   0  0  0  0  0  0  0  0  0  0  0  0
   57.7280   24.5490   45.4990 C   0  0  0  0  0  0  0  0  0  0  0  0
   56.4000   24.9760   45.5750 C   0  0  0  0  0  0  0  0  0  0  0  0
   56.1080   26.2860   45.9640 C   0  0  0  0  0  0  0  0  0  0  0  0
   54.7880   26.7150   46.0220 O   0  0  0  0  0  0  0  0  0  0  0  0
   57.1440   27.1660   46.2880 C   0  0  0  0  0  0  0  0  0  0  0  0
   59.0260   29.6630   47.9650 C   0  0  0  0  0  0  0  0  0  0  0  0
   60.6290   32.6340   48.1080 C   0  0  0  0  0  0  0  0  0  0  0  0
   64.5310   31.8920   46.6090 H   0  0  0  0  0  0  0  0  0  0  0  0
   61.0480   35.0684   45.7418 H   0  0  0  0  0  0  0  0  0  0  0  0
   58.5559   35.0684   45.8824 H   0  0  0  0  0  0  0  0  0  0  0  0
   57.3890   33.5198   47.4519 H   0  0  0  0  0  0  0  0  0  0  0  0
   58.6441   32.1442   50.1854 H   0  0  0  0  0  0  0  0  0  0  0  0
   57.4553   31.6780   48.9181 H   0  0  0  0  0  0  0  0  0  0  0  0
   59.8047   30.4628   51.1434 H   0  0  0  0  0  0  0  0  0  0  0  0
   60.8285   28.1886   51.0548 H   0  0  0  0  0  0  0  0  0  0  0  0
   59.8121   25.0914   45.7449 H   0  0  0  0  0  0  0  0  0  0  0  0
   57.9566   23.5187   45.1887 H   0  0  0  0  0  0  0  0  0  0  0  0
   55.5840   24.2808   45.3285 H   0  0  0  0  0  0  0  0  0  0  0  0
   56.9088   28.1965   46.5926 H   0  0  0  0  0  0  0  0  0  0  0  0
   58.4793   30.0785   47.1057 H   0  0  0  0  0  0  0  0  0  0  0  0
   61.2154   31.9466   48.7354 H   0  0  0  0  0  0  0  0  0  0  0  0
  1  2  1  0
  2  3  2  0
  2  4  2  0
  2  5  1  0
  5  6  2  0
  6  7  1  0
  7  8  2  0
  8  9  1  0
  9 10  1  0
 10 11  1  0
 11 12  1  0
 12 13  2  0
 13 14  1  0
 14 15  2  0
 14 16  1  0
 16 17  1  0
 17 18  2  0
 17 19  1  0
 19 20  2  0
 20 21  1  0
 21 22  2  0
 22 23  1  0
 23 24  1  0
 23 25  2  0
 16 26  2  0
  9 27  2  0
 27  5  1  0
 26 11  1  0
 25 19  1  0
  1 28  1  0
  6 29  1  0
  7 30  1  0
  8 31  1  0
 10 32  1  0
 10 33  1  0
 12 34  1  0
 13 35  1  0
 20 36  1  0
 21 37  1  0
 22 38  1  0
 25 39  1  0
 26 40  1  0
 27 41  1  0
M  CHG  2   1  -1  24  -1
M  END
>  <UniqueID>  (42) 
42

>  <SMILES>  (42) 
[NH-]S(=O)(=O)c1cccc(Cn2ccc(=O)c(C(=O)c3cccc([O-])c3)c2)c1

>  <Energy>  (42) 
48.93337811334622

>  <Genealogy>  (42) 
[NH-]S(=O)(=O)c1cccc(Cn2ccc(=O)c(C(=O)c3cccc([O-])c3)c2)c1 (protonated)
[NH-]S(=O)(=O)c1cccc(Cn2ccc(=O)c(C(=O)c3cccc([O-])c3)c2)c1 (3D coordinates assigned)
[NH-]S(=O)(=O)c1cccc(Cn2ccc(=O)c(C(=O)c3cccc([O-])c3)c2)c1 (optimized conformer: 48.93337811334622 kcal/mol)

>  <smiles>  (42) 
NS(=O)(=O)c1cccc(Cn2ccc(=O)c(C(=O)c3cccc(O)c3)c2)c1

>  <score_type>  (42) 
oracle

>  <origin>  (42) 
adg

>  <m_score__min__energy>  (42) 
-15.17

>  <m_primary>  (42) 
energy

$$$$
42:0
     RDKit          3D

 51 53  0  0  0  0  0  0  0  0999 V2000
   56.0370   22.9600   44.7970 C   0  0  0  0  0  0  0  0  0  0  0  0
   55.9350   24.3960   45.1850 C   0  0  0  0  0  0  0  0  0  0  0  0
   54.8360   25.0020   45.7470 C   0  0  0  0  0  0  0  0  0  0  0  0
   55.1410   26.2810   46.0260 N   0  0  0  0  0  0  0  0  0  0  0  0
   56.4240   26.4080   45.6190 C   0  0  0  0  0  0  0  0  0  0  0  0
   57.2280   27.6680   45.7970 C   0  0  2  0  0  0  0  0  0  0  0  0
   57.9060   27.7110   47.1780 C   0  0  0  0  0  0  0  0  0  0  0  0
   59.0520   28.6940   47.2420 C   0  0  0  0  0  0  0  0  0  0  0  0
   59.4210   29.2740   48.4700 C   0  0  0  0  0  0  0  0  0  0  0  0
   60.4570   30.2110   48.5240 C   0  0  0  0  0  0  0  0  0  0  0  0
   61.1320   30.5780   47.3550 C   0  0  0  0  0  0  0  0  0  0  0  0
   60.7710   30.0070   46.1310 C   0  0  0  0  0  0  0  0  0  0  0  0
   59.7340   29.0690   46.0720 C   0  0  0  0  0  0  0  0  0  0  0  0
   56.3840   28.8470   45.6130 N   0  0  0  0  0  0  0  0  0  0  0  0
   56.0050   29.3580   44.3320 C   0  0  0  0  0  0  0  0  0  0  0  0
   54.7920   29.3980   43.9920 O   0  0  0  0  0  0  0  0  0  0  0  0
   57.0620   29.8090   43.3740 C   0  0  0  0  0  0  0  0  0  0  0  0
   57.6160   31.1790   43.7960 C   0  0  0  0  0  0  0  0  0  0  0  0
   57.5370   31.3980   45.2470 N   0  0  0  0  0  0  0  0  0  0  0  0
   57.5760   33.0910   45.6600 S   0  0  0  0  0  0  0  0  0  0  0  0
   57.6200   33.9350   44.4150 O   0  0  0  0  0  0  0  0  0  0  0  0
   56.3580   33.4630   46.4610 O   0  0  0  0  0  0  0  0  0  0  0  0
   59.0100   33.3940   46.6370 C   0  0  0  0  0  0  0  0  0  0  0  0
   60.2470   33.5930   46.0060 C   0  0  0  0  0  0  0  0  0  0  0  0
   61.3930   33.8400   46.7690 C   0  0  0  0  0  0  0  0  0  0  0  0
   61.3060   33.8920   48.1650 C   0  0  0  0  0  0  0  0  0  0  0  0
   60.0750   33.6970   48.7980 C   0  0  0  0  0  0  0  0  0  0  0  0
   59.9920   33.7500   50.1500 F   0  0  0  0  0  0  0  0  0  0  0  0
   58.9260   33.4510   48.0370 C   0  0  0  0  0  0  0  0  0  0  0  0
   56.9530   25.2710   45.1170 N   0  0  0  0  0  0  0  0  0  0  0  0
   56.0812   22.3377   45.7029 H   0  0  0  0  0  0  0  0  0  0  0  0
   55.1566   22.6778   44.2009 H   0  0  0  0  0  0  0  0  0  0  0  0
   56.9484   22.8051   44.2009 H   0  0  0  0  0  0  0  0  0  0  0  0
   53.8661   24.5192   45.9371 H   0  0  0  0  0  0  0  0  0  0  0  0
   58.0163   27.6709   45.0298 H   0  0  0  0  0  0  0  0  0  0  0  0
   57.1550   27.9986   47.9285 H   0  0  0  0  0  0  0  0  0  0  0  0
   58.3191   26.7104   47.3734 H   0  0  0  0  0  0  0  0  0  0  0  0
   58.8920   28.9888   49.3913 H   0  0  0  0  0  0  0  0  0  0  0  0
   60.7418   30.6603   49.4869 H   0  0  0  0  0  0  0  0  0  0  0  0
   61.9467   31.3158   47.3988 H   0  0  0  0  0  0  0  0  0  0  0  0
   61.3031   30.2955   45.2125 H   0  0  0  0  0  0  0  0  0  0  0  0
   59.4519   28.6238   45.1065 H   0  0  0  0  0  0  0  0  0  0  0  0
   57.8804   29.0741   43.3645 H   0  0  0  0  0  0  0  0  0  0  0  0
   56.6211   29.8956   42.3700 H   0  0  0  0  0  0  0  0  0  0  0  0
   58.6697   31.2433   43.4869 H   0  0  0  0  0  0  0  0  0  0  0  0
   57.0023   31.9510   43.3087 H   0  0  0  0  0  0  0  0  0  0  0  0
   56.6470   30.9920   45.6190 H   0  0  0  0  0  0  0  0  0  0  0  0
   60.3159   33.5547   44.9088 H   0  0  0  0  0  0  0  0  0  0  0  0
   62.3623   33.9933   46.2721 H   0  0  0  0  0  0  0  0  0  0  0  0
   62.2074   34.0865   48.7647 H   0  0  0  0  0  0  0  0  0  0  0  0
   57.9572   33.3023   48.5363 H   0  0  0  0  0  0  0  0  0  0  0  0
  1  2  1  0
  2  3  2  0
  3  4  1  0
  4  5  1  0
  5  6  1  0
  6  7  1  0
  7  8  1  0
  8  9  2  0
  9 10  1  0
 10 11  2  0
 11 12  1  0
 12 13  2  0
  6 14  1  0
 14 15  1  0
 15 16  2  0
 15 17  1  0
 17 18  1  0
 18 19  1  0
 19 20  1  0
 20 21  2  0
 20 22  2  0
 20 23  1  0
 23 24  2  0
 24 25  1  0
 25 26  2  0
 26 27  1  0
 27 28  1  0
 27 29  2  0
  5 30  2  0
 30  2  1  0
 13  8  1  0
 29 23  1  0
  1 31  1  0
  1 32  1  0
  1 33  1  0
  3 34  1  0
  6 35  1  6
  7 36  1  0
  7 37  1  0
  9 38  1  0
 10 39  1  0
 11 40  1  0
 12 41  1  0
 13 42  1  0
 17 43  1  0
 17 44  1  0
 18 45  1  0
 18 46  1  0
 19 47  1  0
 24 48  1  0
 25 49  1  0
 26 50  1  0
 29 51  1  0
M  CHG  2   4  -1  14  -1
M  END
>  <UniqueID>  (43) 
43

>  <SMILES>  (43) 
Cc1c[n-]c([C@H](Cc2ccccc2)[N-]C(=O)CCNS(=O)(=O)c2cccc(F)c2)n1

>  <Energy>  (43) 
71.68871539023539

>  <Genealogy>  (43) 
Cc1c[n-]c(C(Cc2ccccc2)[N-]C(=O)CCNS(=O)(=O)c2cccc(F)c2)n1 (protonated)
Cc1c[n-]c([C@H](Cc2ccccc2)[N-]C(=O)CCNS(=O)(=O)c2cccc(F)c2)n1 (chirality)
Cc1c[n-]c([C@H](Cc2ccccc2)[N-]C(=O)CCNS(=O)(=O)c2cccc(F)c2)n1 (3D coordinates assigned)
Cc1c[n-]c([C@H](Cc2ccccc2)[N-]C(=O)CCNS(=O)(=O)c2cccc(F)c2)n1 (optimized conformer: 71.68871539023539 kcal/mol)

>  <smiles>  (43) 
Cc1c[nH]c(C(Cc2ccccc2)NC(=O)CCNS(=O)(=O)c2cccc(F)c2)n1

>  <score_type>  (43) 
oracle

>  <origin>  (43) 
adg

>  <m_score__min__energy>  (43) 
-13.01

>  <m_primary>  (43) 
energy

$$$$
43:0
     RDKit          3D

 40 42  0  0  0  0  0  0  0  0999 V2000
   56.7570   33.5334   43.6230 H   0  0  0  0  0  0  0  0  0  0  0  0
   57.4560   33.5090   44.4720 C   0  0  0  0  0  0  0  0  0  0  0  0
   58.2190   34.5150   44.8870 C   0  0  0  0  0  0  0  0  0  0  0  0
   58.2575   35.5184   44.4378 H   0  0  0  0  0  0  0  0  0  0  0  0
   59.0050   34.0630   46.0490 C   0  0  0  0  0  0  0  0  0  0  0  0
   59.9890   34.7400   46.6630 C   0  0  0  0  0  0  0  0  0  0  0  0
   59.9861   35.8371   46.5837 H   0  0  0  0  0  0  0  0  0  0  0  0
   61.0750   34.1060   47.4380 C   0  0  0  0  0  0  0  0  0  0  0  0
   62.1510   33.4680   46.8040 C   0  0  0  0  0  0  0  0  0  0  0  0
   62.1802   33.4077   45.7060 H   0  0  0  0  0  0  0  0  0  0  0  0
   63.1870   32.9080   47.5580 C   0  0  0  0  0  0  0  0  0  0  0  0
   64.0158   32.3969   47.0463 H   0  0  0  0  0  0  0  0  0  0  0  0
   63.1830   32.9900   48.9660 C   0  0  0  0  0  0  0  0  0  0  0  0
   64.2560   32.4080   49.7500 N   0  0  0  0  0  0  0  0  0  0  0  0
   65.5940   33.0120   49.7480 C   0  0  0  0  0  0  0  0  0  0  0  0
   65.9295   33.1634   50.7846 H   0  0  0  0  0  0  0  0  0  0  0  0
   66.2971   32.3440   49.2290 H   0  0  0  0  0  0  0  0  0  0  0  0
   65.5580   33.9812   49.2290 H   0  0  0  0  0  0  0  0  0  0  0  0
   64.0220   31.2070   50.5620 C   0  0  0  0  0  0  0  0  0  0  0  0
   64.0732   31.4700   51.6289 H   0  0  0  0  0  0  0  0  0  0  0  0
   63.0272   30.7974   50.3327 H   0  0  0  0  0  0  0  0  0  0  0  0
   64.7903   30.4539   50.3327 H   0  0  0  0  0  0  0  0  0  0  0  0
   62.1100   33.6620   49.5900 C   0  0  0  0  0  0  0  0  0  0  0  0
   62.0867   33.7468   50.6865 H   0  0  0  0  0  0  0  0  0  0  0  0
   61.0770   34.2210   48.8330 C   0  0  0  0  0  0  0  0  0  0  0  0
   60.2587   34.7558   49.3375 H   0  0  0  0  0  0  0  0  0  0  0  0
   58.6800   32.6980   46.3270 N   0  0  0  0  0  0  0  0  0  0  0  0
   59.0360   31.9000   47.4670 C   0  0  0  0  0  0  0  0  0  0  0  0
   58.5490   32.2460   48.7370 C   0  0  0  0  0  0  0  0  0  0  0  0
   57.8958   33.1235   48.8525 H   0  0  0  0  0  0  0  0  0  0  0  0
   58.8900   31.4810   49.8550 C   0  0  0  0  0  0  0  0  0  0  0  0
   58.5003   31.7538   50.8468 H   0  0  0  0  0  0  0  0  0  0  0  0
   59.7260   30.3690   49.7150 C   0  0  0  0  0  0  0  0  0  0  0  0
   59.9889   29.7639   50.5952 H   0  0  0  0  0  0  0  0  0  0  0  0
   60.2270   30.0270   48.4570 C   0  0  0  0  0  0  0  0  0  0  0  0
   60.8892   29.1553   48.3488 H   0  0  0  0  0  0  0  0  0  0  0  0
   59.8890   30.7900   47.3340 C   0  0  0  0  0  0  0  0  0  0  0  0
   60.4230   30.4670   46.1290 F   0  0  0  0  0  0  0  0  0  0  0  0
   57.7100   32.3690   45.3410 C   0  0  0  0  0  0  0  0  0  0  0  0
   57.1340   31.2530   45.2590 O   0  0  0  0  0  0  0  0  0  0  0  0
  1  2  1  0
  2  3  2  0
  3  4  1  0
  3  5  1  0
  5  6  2  0
  6  7  1  0
  6  8  1  0
  8  9  2  0
  9 10  1  0
  9 11  1  0
 11 12  1  0
 11 13  2  0
 13 14  1  0
 14 15  1  0
 15 16  1  0
 15 17  1  0
 15 18  1  0
 14 19  1  0
 19 20  1  0
 19 21  1  0
 19 22  1  0
 13 23  1  0
 23 24  1  0
 23 25  2  0
 25 26  1  0
  5 27  1  0
 27 28  1  0
 28 29  2  0
 29 30  1  0
 29 31  1  0
 31 32  1  0
 31 33  2  0
 33 34  1  0
 33 35  1  0
 35 36  1  0
 35 37  2  0
 37 38  1  0
 27 39  1  0
 39 40  2  0
 39  2  1  0
 25  8  1  0
 37 28  1  0
M  END
>  <UniqueID>  (44) 
44

>  <SMILES>  (44) 
CN(C)c1ccc(/C=C2\C=CC(=O)N2c2ccccc2F)cc1

>  <Energy>  (44) 
80.29328465705595

>  <Genealogy>  (44) 
CN(C)c1ccc(/C=C2\C=CC(=O)N2c2ccccc2F)cc1 (cis-trans isomerization)
CN(C)c1ccc(/C=C2\C=CC(=O)N2c2ccccc2F)cc1 (3D coordinates assigned)
CN(C)c1ccc(/C=C2\C=CC(=O)N2c2ccccc2F)cc1 (nonaromatic ring conformer: 80.29328465705595 kcal/mol)

>  <smiles>  (44) 
CN(C)c1ccc(C=C2C=CC(=O)N2c2ccccc2F)cc1

>  <score_type>  (44) 
oracle

>  <origin>  (44) 
adg

>  <m_score__min__energy>  (44) 
-7.2699999999999996

>  <m_primary>  (44) 
energy

$$$$
44:0
     RDKit          3D

 51 53  0  0  0  0  0  0  0  0999 V2000
   64.8340   33.2800   49.5540 C   0  0  0  0  0  0  0  0  0  0  0  0
   64.1110   32.5420   48.5010 N   0  0  0  0  0  0  0  0  0  0  0  0
   63.4770   33.4950   47.5490 C   0  0  0  0  0  0  0  0  0  0  0  0
   62.1920   32.9410   46.9270 C   0  0  0  0  0  0  0  0  0  0  0  0
   61.2380   32.6220   47.9960 N   0  0  0  0  0  0  0  0  0  0  0  0
   59.8470   32.9860   47.8880 C   0  0  0  0  0  0  0  0  0  0  0  0
   59.2060   33.3010   48.9300 O   0  0  0  0  0  0  0  0  0  0  0  0
   59.1420   33.0000   46.5850 C   0  0  0  0  0  0  0  0  0  0  0  0
   59.5600   33.8530   45.5520 C   0  0  0  0  0  0  0  0  0  0  0  0
   58.8840   33.8640   44.3310 C   0  0  0  0  0  0  0  0  0  0  0  0
   57.8000   33.0080   44.1200 C   0  0  0  0  0  0  0  0  0  0  0  0
   57.3930   32.1200   45.1220 C   0  0  0  0  0  0  0  0  0  0  0  0
   56.2630   31.2720   44.8700 N   0  0  0  0  0  0  0  0  0  0  0  0
   56.3020   29.9020   44.4470 C   0  0  0  0  0  0  0  0  0  0  0  0
   55.4720   29.0640   44.8920 O   0  0  0  0  0  0  0  0  0  0  0  0
   57.4020   29.4400   43.5430 C   0  0  0  0  0  0  0  0  0  0  0  0
   58.1090   28.2150   44.1320 C   0  0  0  0  0  0  0  0  0  0  0  0
   58.8870   28.5960   45.3610 C   0  0  0  0  0  0  0  0  0  0  0  0
   60.0740   29.3410   45.2430 C   0  0  0  0  0  0  0  0  0  0  0  0
   60.7690   29.7470   46.3860 C   0  0  0  0  0  0  0  0  0  0  0  0
   60.2820   29.4180   47.6540 C   0  0  0  0  0  0  0  0  0  0  0  0
   59.0990   28.6830   47.7810 C   0  0  0  0  0  0  0  0  0  0  0  0
   58.3990   28.2770   46.6400 C   0  0  0  0  0  0  0  0  0  0  0  0
   58.0590   32.1310   46.3620 C   0  0  0  0  0  0  0  0  0  0  0  0
   61.7500   32.1060   49.2710 C   0  0  0  0  0  0  0  0  0  0  0  0
   63.1720   31.5530   49.1000 C   0  0  0  0  0  0  0  0  0  0  0  0
   64.4956   32.9346   50.5420 H   0  0  0  0  0  0  0  0  0  0  0  0
   65.9143   33.0993   49.4526 H   0  0  0  0  0  0  0  0  0  0  0  0
   64.6312   34.3564   49.4526 H   0  0  0  0  0  0  0  0  0  0  0  0
   64.8330   31.9980   47.9690 H   0  0  0  0  0  0  0  0  0  0  0  0
   63.2355   34.4229   48.0882 H   0  0  0  0  0  0  0  0  0  0  0  0
   64.1916   33.6738   46.7321 H   0  0  0  0  0  0  0  0  0  0  0  0
   61.7539   33.6939   46.2553 H   0  0  0  0  0  0  0  0  0  0  0  0
   62.4214   32.0315   46.3523 H   0  0  0  0  0  0  0  0  0  0  0  0
   60.4243   34.5159   45.7053 H   0  0  0  0  0  0  0  0  0  0  0  0
   59.2056   34.5487   43.5324 H   0  0  0  0  0  0  0  0  0  0  0  0
   57.2632   33.0323   43.1602 H   0  0  0  0  0  0  0  0  0  0  0  0
   56.9771   29.1754   42.5635 H   0  0  0  0  0  0  0  0  0  0  0  0
   58.1351   30.2529   43.4342 H   0  0  0  0  0  0  0  0  0  0  0  0
   57.3577   27.4574   44.3996 H   0  0  0  0  0  0  0  0  0  0  0  0
   58.8046   27.8109   43.3818 H   0  0  0  0  0  0  0  0  0  0  0  0
   60.4574   29.6055   44.2465 H   0  0  0  0  0  0  0  0  0  0  0  0
   61.6994   30.3255   46.2874 H   0  0  0  0  0  0  0  0  0  0  0  0
   60.8297   29.7374   48.5529 H   0  0  0  0  0  0  0  0  0  0  0  0
   58.7183   28.4237   48.7799 H   0  0  0  0  0  0  0  0  0  0  0  0
   57.4642   27.7066   46.7439 H   0  0  0  0  0  0  0  0  0  0  0  0
   57.7294   31.4538   47.1638 H   0  0  0  0  0  0  0  0  0  0  0  0
   61.7656   32.9205   50.0102 H   0  0  0  0  0  0  0  0  0  0  0  0
   61.0928   31.2930   49.6133 H   0  0  0  0  0  0  0  0  0  0  0  0
   63.5554   31.2591   50.0883 H   0  0  0  0  0  0  0  0  0  0  0  0
   63.1123   30.6964   48.4124 H   0  0  0  0  0  0  0  0  0  0  0  0
  1  2  1  0
  2  3  1  0
  3  4  1  0
  4  5  1  0
  5  6  1  0
  6  7  2  0
  6  8  1  0
  8  9  2  0
  9 10  1  0
 10 11  2  0
 11 12  1  0
 12 13  1  0
 13 14  1  0
 14 15  2  0
 14 16  1  0
 16 17  1  0
 17 18  1  0
 18 19  2  0
 19 20  1  0
 20 21  2  0
 21 22  1  0
 22 23  2  0
 12 24  2  0
  5 25  1  0
 25 26  1  0
 26  2  1  0
 24  8  1  0
 23 18  1  0
  1 27  1  0
  1 28  1  0
  1 29  1  0
  2 30  1  0
  3 31  1  0
  3 32  1  0
  4 33  1  0
  4 34  1  0
  9 35  1  0
 10 36  1  0
 11 37  1  0
 16 38  1  0
 16 39  1  0
 17 40  1  0
 17 41  1  0
 19 42  1  0
 20 43  1  0
 21 44  1  0
 22 45  1  0
 23 46  1  0
 24 47  1  0
 25 48  1  0
 25 49  1  0
 26 50  1  0
 26 51  1  0
M  CHG  2   2   1  13  -1
M  END
>  <UniqueID>  (45) 
45

>  <SMILES>  (45) 
C[NH+]1CCN(C(=O)c2cccc([N-]C(=O)CCc3ccccc3)c2)CC1

>  <Energy>  (45) 
62.95215182680464

>  <Genealogy>  (45) 
C[NH+]1CCN(C(=O)c2cccc([N-]C(=O)CCc3ccccc3)c2)CC1 (protonated)
C[NH+]1CCN(C(=O)c2cccc([N-]C(=O)CCc3ccccc3)c2)CC1 (3D coordinates assigned)
C[NH+]1CCN(C(=O)c2cccc([N-]C(=O)CCc3ccccc3)c2)CC1 (nonaromatic ring conformer: 62.95215182680464 kcal/mol)

>  <smiles>  (45) 
CN1CCN(C(=O)c2cccc(NC(=O)CCc3ccccc3)c2)CC1

>  <score_type>  (45) 
oracle

>  <origin>  (45) 
adg

>  <m_score__min__energy>  (45) 
-9.2400000000000002

>  <m_primary>  (45) 
energy

$$$$
45:0
     RDKit          3D

 45 49  0  0  0  0  0  0  0  0999 V2000
   58.9167   26.9938   44.4692 H   0  0  0  0  0  0  0  0  0  0  0  0
   58.0520   27.2620   45.0940 C   0  0  0  0  0  0  0  0  0  0  0  0
   57.4500   26.1910   45.9160 C   0  0  0  0  0  0  0  0  0  0  0  0
   58.0970   25.1220   46.4140 N   0  0  0  0  0  0  0  0  0  0  0  0
   57.1310   24.4520   47.0810 C   0  0  0  0  0  0  0  0  0  0  0  0
   57.3520   23.3760   47.6940 O   0  0  0  0  0  0  0  0  0  0  0  0
   55.9110   25.0270   47.0380 N   0  0  0  0  0  0  0  0  0  0  0  0
   56.1310   26.1250   46.2970 C   0  0  0  0  0  0  0  0  0  0  0  0
   55.1450   27.0500   45.9770 O   0  0  0  0  0  0  0  0  0  0  0  0
   57.6290   28.5360   45.0480 C   0  0  0  0  0  0  0  0  0  0  0  0
   56.6000   29.1230   44.3000 C   0  0  0  0  0  0  0  0  0  0  0  0
   55.9469   28.5879   43.5949 H   0  0  0  0  0  0  0  0  0  0  0  0
   56.5290   30.4500   44.5750 N   0  0  0  0  0  0  0  0  0  0  0  0
   57.4740   30.7060   45.4640 N   0  0  0  0  0  0  0  0  0  0  0  0
   57.7810   31.8950   46.0340 C   0  0  0  0  0  0  0  0  0  0  0  0
   57.1150   32.9680   45.7300 N   0  0  0  0  0  0  0  0  0  0  0  0
   57.7140   34.1250   45.0720 C   0  0  0  0  0  0  0  0  0  0  0  0
   56.7891   34.5651   44.6710 H   0  0  0  0  0  0  0  0  0  0  0  0
   59.1020   33.8580   44.5160 C   0  0  0  0  0  0  0  0  0  0  0  0
   59.5205   32.8411   44.5456 H   0  0  0  0  0  0  0  0  0  0  0  0
   59.6020   34.0352   43.5524 H   0  0  0  0  0  0  0  0  0  0  0  0
   58.9350   34.6500   45.8040 C   0  0  0  0  0  0  0  0  0  0  0  0
   59.2331   34.2061   46.7653 H   0  0  0  0  0  0  0  0  0  0  0  0
   59.2647   35.6379   46.1581 H   0  0  0  0  0  0  0  0  0  0  0  0
   58.8050   31.9270   46.9370 N   0  0  0  0  0  0  0  0  0  0  0  0
   59.4940   30.7870   47.2490 C   0  0  0  0  0  0  0  0  0  0  0  0
   60.5910   30.8410   48.2210 C   0  0  0  0  0  0  0  0  0  0  0  0
   60.6380   30.0810   49.3380 N   0  0  0  0  0  0  0  0  0  0  0  0
   61.7270   30.2970   50.0720 N   0  0  0  0  0  0  0  0  0  0  0  0
   61.8960   29.7870   50.9660 H   0  0  0  0  0  0  0  0  0  0  0  0
   62.5580   31.2300   49.5480 C   0  0  0  0  0  0  0  0  0  0  0  0
   63.7650   31.6490   50.1180 O   0  0  0  0  0  0  0  0  0  0  0  0
   64.4190   32.8790   49.8040 C   0  0  0  0  0  0  0  0  0  0  0  0
   64.3035   33.0976   48.7322 H   0  0  0  0  0  0  0  0  0  0  0  0
   63.7920   34.0290   50.5970 C   0  0  0  0  0  0  0  0  0  0  0  0
   63.8990   33.8328   51.6741 H   0  0  0  0  0  0  0  0  0  0  0  0
   64.3019   34.9701   50.3433 H   0  0  0  0  0  0  0  0  0  0  0  0
   62.7247   34.1102   50.3433 H   0  0  0  0  0  0  0  0  0  0  0  0
   65.9030   32.7480   50.1450 C   0  0  0  0  0  0  0  0  0  0  0  0
   66.0285   32.7369   51.2378 H   0  0  0  0  0  0  0  0  0  0  0  0
   66.2953   31.8117   49.7213 H   0  0  0  0  0  0  0  0  0  0  0  0
   66.4533   33.6011   49.7213 H   0  0  0  0  0  0  0  0  0  0  0  0
   61.9460   31.8420   48.1060 S   0  0  0  0  0  0  0  0  0  0  0  0
   59.1630   29.6000   46.6580 N   0  0  0  0  0  0  0  0  0  0  0  0
   58.1440   29.5940   45.7650 C   0  0  0  0  0  0  0  0  0  0  0  0
  1  2  1  0
  2  3  1  0
  3  4  1  0
  4  5  1  0
  5  6  2  0
  5  7  1  0
  7  8  1  0
  8  9  1  0
  2 10  2  3
 10 11  1  0
 11 12  1  0
 11 13  2  0
 13 14  1  0
 14 15  1  0
 15 16  2  0
 16 17  1  0
 17 18  1  0
 17 19  1  0
 19 20  1  0
 19 21  1  0
 19 22  1  0
 22 23  1  0
 22 24  1  0
 15 25  1  0
 25 26  2  0
 26 27  1  0
 27 28  2  0
 28 29  1  0
 29 30  1  0
 29 31  2  0
 31 32  1  0
 32 33  1  0
 33 34  1  0
 33 35  1  0
 35 36  1  0
 35 37  1  0
 35 38  1  0
 33 39  1  0
 39 40  1  0
 39 41  1  0
 39 42  1  0
 31 43  1  0
 26 44  1  0
 44 45  2  0
  8  3  2  0
 45 10  1  0
 45 14  1  0
 22 17  1  0
 43 27  1  0
M  CHG  4   4  -1   7  -1   9  -1  29   1
M  END
>  <UniqueID>  (46) 
46

>  <SMILES>  (46) 
CC(C)Oc1[nH+]nc(-c2n/c(=N\C3CC3)n3ncc(=Cc4[n-]c(=O)[n-]c4[O-])c3n2)s1

>  <Energy>  (46) 
411.87621472158656

>  <Genealogy>  (46) 
CC(C)Oc1[nH+]nc(-c2nc(=NC3CC3)n3ncc(=Cc4[n-]c(=O)[n-]c4[O-])c3n2)s1 (protonated)
CC(C)Oc1[nH+]nc(-c2n/c(=N\C3CC3)n3ncc(=Cc4[n-]c(=O)[n-]c4[O-])c3n2)s1 (cis-trans isomerization)
CC(C)Oc1[nH+]nc(-c2n/c(=N\C3CC3)n3ncc(=Cc4[n-]c(=O)[n-]c4[O-])c3n2)s1 (3D coordinates assigned)
CC(C)Oc1[nH+]nc(-c2n/c(=N\C3CC3)n3ncc(=Cc4[n-]c(=O)[n-]c4[O-])c3n2)s1 (nonaromatic ring conformer: 411.87621472158656 kcal/mol)

>  <smiles>  (46) 
CC(C)Oc1nnc(-c2nc(=NC3CC3)n3ncc(=Cc4[nH]c(=O)[nH]c4O)c3n2)s1

>  <score_type>  (46) 
oracle

>  <origin>  (46) 
adg

>  <m_score__min__energy>  (46) 
-15.48

>  <m_primary>  (46) 
energy

$$$$
46:0
     RDKit          3D

 48 50  0  0  0  0  0  0  0  0999 V2000
   58.6340   29.2350   44.8370 C   0  0  0  0  0  0  0  0  0  0  0  0
   57.2270   30.2590   44.4760 S   0  0  0  0  0  0  0  0  0  0  0  0
   56.0300   29.7280   45.2130 O   0  0  0  0  0  0  0  0  0  0  0  0
   56.9700   30.2380   42.9950 O   0  0  0  0  0  0  0  0  0  0  0  0
   57.5640   31.8800   44.9920 N   0  0  0  0  0  0  0  0  0  0  0  0
   58.2320   32.2360   46.2100 C   0  0  0  0  0  0  0  0  0  0  0  0
   58.9780   33.4210   46.3340 C   0  0  0  0  0  0  0  0  0  0  0  0
   59.6190   33.7240   47.5380 C   0  0  0  0  0  0  0  0  0  0  0  0
   59.5160   32.8560   48.6270 C   0  0  0  0  0  0  0  0  0  0  0  0
   58.7600   31.6780   48.5250 C   0  0  0  0  0  0  0  0  0  0  0  0
   58.6480   30.7520   49.6740 C   0  0  0  0  0  0  0  0  0  0  0  0
   58.7860   29.5130   49.4740 O   0  0  0  0  0  0  0  0  0  0  0  0
   58.3600   31.2300   51.0030 N   0  0  0  0  0  0  0  0  0  0  0  0
   58.7900   30.4680   52.1790 C   0  0  0  0  0  0  0  0  0  0  0  0
   57.5660   29.9310   52.9500 C   0  0  0  0  0  0  0  0  0  0  0  0
   56.3440   30.7650   52.7990 N   0  0  0  0  0  0  0  0  0  0  0  0
   55.3930   30.1800   51.8260 C   0  0  0  0  0  0  0  0  0  0  0  0
   53.9770   30.6110   52.1120 C   0  0  0  0  0  0  0  0  0  0  0  0
   53.3350   30.1830   53.2850 C   0  0  0  0  0  0  0  0  0  0  0  0
   52.0300   30.5950   53.5640 C   0  0  0  0  0  0  0  0  0  0  0  0
   51.3560   31.4400   52.6780 C   0  0  0  0  0  0  0  0  0  0  0  0
   50.0900   31.8390   52.9560 F   0  0  0  0  0  0  0  0  0  0  0  0
   51.9890   31.8730   51.5070 C   0  0  0  0  0  0  0  0  0  0  0  0
   51.3220   32.7140   50.6240 O   0  0  0  0  0  0  0  0  0  0  0  0
   53.2960   31.4600   51.2240 C   0  0  0  0  0  0  0  0  0  0  0  0
   56.6640   32.1860   52.5250 C   0  0  0  0  0  0  0  0  0  0  0  0
   57.4390   32.3560   51.2080 C   0  0  0  0  0  0  0  0  0  0  0  0
   58.1340   31.3690   47.3060 C   0  0  0  0  0  0  0  0  0  0  0  0
   58.7540   29.1477   45.9270 H   0  0  0  0  0  0  0  0  0  0  0  0
   58.4809   28.2356   44.4037 H   0  0  0  0  0  0  0  0  0  0  0  0
   59.5380   29.6879   44.4037 H   0  0  0  0  0  0  0  0  0  0  0  0
   59.0573   34.1113   45.4812 H   0  0  0  0  0  0  0  0  0  0  0  0
   60.2068   34.6494   47.6283 H   0  0  0  0  0  0  0  0  0  0  0  0
   60.0299   33.0967   49.5693 H   0  0  0  0  0  0  0  0  0  0  0  0
   59.4135   29.6219   51.8544 H   0  0  0  0  0  0  0  0  0  0  0  0
   59.3663   31.1303   52.8417 H   0  0  0  0  0  0  0  0  0  0  0  0
   57.3419   28.9189   52.5821 H   0  0  0  0  0  0  0  0  0  0  0  0
   57.8309   29.9439   54.0176 H   0  0  0  0  0  0  0  0  0  0  0  0
   55.6695   30.5091   50.8135 H   0  0  0  0  0  0  0  0  0  0  0  0
   55.4442   29.0843   51.9085 H   0  0  0  0  0  0  0  0  0  0  0  0
   53.8621   29.5204   53.9872 H   0  0  0  0  0  0  0  0  0  0  0  0
   51.5315   30.2536   54.4832 H   0  0  0  0  0  0  0  0  0  0  0  0
   53.7915   31.8014   50.3032 H   0  0  0  0  0  0  0  0  0  0  0  0
   55.7253   32.7559   52.4613 H   0  0  0  0  0  0  0  0  0  0  0  0
   57.2983   32.5564   53.3438 H   0  0  0  0  0  0  0  0  0  0  0  0
   56.7260   32.3972   50.3714 H   0  0  0  0  0  0  0  0  0  0  0  0
   58.0219   33.2876   51.2563 H   0  0  0  0  0  0  0  0  0  0  0  0
   57.5602   30.4354   47.2109 H   0  0  0  0  0  0  0  0  0  0  0  0
  1  2  1  0
  2  3  2  0
  2  4  2  0
  2  5  1  0
  5  6  1  0
  6  7  2  0
  7  8  1  0
  8  9  2  0
  9 10  1  0
 10 11  1  0
 11 12  2  0
 11 13  1  0
 13 14  1  0
 14 15  1  0
 15 16  1  0
 16 17  1  0
 17 18  1  0
 18 19  2  0
 19 20  1  0
 20 21  2  0
 21 22  1  0
 21 23  1  0
 23 24  1  0
 23 25  2  0
 16 26  1  0
 26 27  1  0
 10 28  2  0
 28  6  1  0
 27 13  1  0
 25 18  1  0
  1 29  1  0
  1 30  1  0
  1 31  1  0
  7 32  1  0
  8 33  1  0
  9 34  1  0
 14 35  1  0
 14 36  1  0
 15 37  1  0
 15 38  1  0
 17 39  1  0
 17 40  1  0
 19 41  1  0
 20 42  1  0
 25 43  1  0
 26 44  1  0
 26 45  1  0
 27 46  1  0
 27 47  1  0
 28 48  1  0
M  CHG  2   5  -1  24  -1
M  END
>  <UniqueID>  (47) 
47

>  <SMILES>  (47) 
CS(=O)(=O)[N-]c1cccc(C(=O)N2CCN(Cc3ccc(F)c([O-])c3)CC2)c1

>  <Energy>  (47) 
62.295971327181086

>  <Genealogy>  (47) 
CS(=O)(=O)[N-]c1cccc(C(=O)N2CCN(Cc3ccc(F)c([O-])c3)CC2)c1 (protonated)
CS(=O)(=O)[N-]c1cccc(C(=O)N2CCN(Cc3ccc(F)c([O-])c3)CC2)c1 (3D coordinates assigned)
CS(=O)(=O)[N-]c1cccc(C(=O)N2CCN(Cc3ccc(F)c([O-])c3)CC2)c1 (nonaromatic ring conformer: 62.295971327181086 kcal/mol)

>  <smiles>  (47) 
CS(=O)(=O)Nc1cccc(C(=O)N2CCN(Cc3ccc(F)c(O)c3)CC2)c1

>  <score_type>  (47) 
oracle

>  <origin>  (47) 
adg

>  <m_score__min__energy>  (47) 
-13.94

>  <m_primary>  (47) 
energy

$$$$
47:0
     RDKit          3D

 47 49  0  0  0  0  0  0  0  0999 V2000
   60.3260   26.7060   48.2930 C   0  0  0  0  0  0  0  0  0  0  0  0
   59.1770   27.0210   47.3750 C   0  0  0  0  0  0  0  0  0  0  0  0
   59.0900   28.1240   46.5390 C   0  0  0  0  0  0  0  0  0  0  0  0
   60.0770   29.2120   46.4260 C   0  0  0  0  0  0  0  0  0  0  0  0
   60.8250   29.2360   45.4110 O   0  0  0  0  0  0  0  0  0  0  0  0
   60.1940   30.2400   47.4370 N   0  0  0  0  0  0  0  0  0  0  0  0
   59.3030   30.2190   48.6140 C   0  0  0  0  0  0  0  0  0  0  0  0
   59.6970   31.2560   49.6680 C   0  0  0  0  0  0  0  0  0  0  0  0
   60.0340   32.4870   49.0700 O   0  0  0  0  0  0  0  0  0  0  0  0
   61.2260   32.3240   48.3340 C   0  0  0  0  0  0  0  0  0  0  0  0
   60.9900   31.4360   47.1120 C   0  0  0  0  0  0  0  0  0  0  0  0
   57.9310   27.9680   45.7920 C   0  0  0  0  0  0  0  0  0  0  0  0
   57.3890   28.9780   44.4410 S   0  0  0  0  0  0  0  0  0  0  0  0
   57.3830   28.2180   43.1440 O   0  0  0  0  0  0  0  0  0  0  0  0
   55.9790   29.4210   44.7120 O   0  0  0  0  0  0  0  0  0  0  0  0
   58.3980   30.3830   44.3000 N   0  0  0  0  0  0  0  0  0  0  0  0
   58.1410   31.6740   44.8700 C   0  0  0  0  0  0  0  0  0  0  0  0
   57.8550   31.8520   46.2350 C   0  0  0  0  0  0  0  0  0  0  0  0
   57.6040   33.1300   46.7440 C   0  0  0  0  0  0  0  0  0  0  0  0
   57.6400   34.2400   45.8970 C   0  0  0  0  0  0  0  0  0  0  0  0
   57.9300   34.0730   44.5400 C   0  0  0  0  0  0  0  0  0  0  0  0
   58.1820   32.7960   44.0300 C   0  0  0  0  0  0  0  0  0  0  0  0
   57.3380   26.7850   46.2280 C   0  0  0  0  0  0  0  0  0  0  0  0
   56.0810   26.2010   45.7030 C   0  0  0  0  0  0  0  0  0  0  0  0
   54.9690   26.7100   45.9960 O   0  0  0  0  0  0  0  0  0  0  0  0
   56.1110   25.0810   44.8810 O   0  0  0  0  0  0  0  0  0  0  0  0
   58.0990   26.2230   47.1990 N   0  0  0  0  0  0  0  0  0  0  0  0
   57.8340   24.9620   47.8970 C   0  0  0  0  0  0  0  0  0  0  0  0
   59.9956   26.7966   49.3383 H   0  0  0  0  0  0  0  0  0  0  0  0
   60.6739   25.6793   48.1060 H   0  0  0  0  0  0  0  0  0  0  0  0
   61.1488   27.4117   48.1060 H   0  0  0  0  0  0  0  0  0  0  0  0
   58.2752   30.4271   48.2818 H   0  0  0  0  0  0  0  0  0  0  0  0
   59.3858   29.2247   49.0772 H   0  0  0  0  0  0  0  0  0  0  0  0
   58.8509   31.4099   50.3539 H   0  0  0  0  0  0  0  0  0  0  0  0
   60.5755   30.8816   50.2140 H   0  0  0  0  0  0  0  0  0  0  0  0
   61.5820   33.3099   48.0005 H   0  0  0  0  0  0  0  0  0  0  0  0
   61.9771   31.8450   48.9793 H   0  0  0  0  0  0  0  0  0  0  0  0
   60.4558   32.0199   46.3480 H   0  0  0  0  0  0  0  0  0  0  0  0
   61.9709   31.0988   46.7459 H   0  0  0  0  0  0  0  0  0  0  0  0
   57.8285   30.9810   46.9063 H   0  0  0  0  0  0  0  0  0  0  0  0
   57.3780   33.2613   47.8125 H   0  0  0  0  0  0  0  0  0  0  0  0
   57.4403   35.2448   46.2976 H   0  0  0  0  0  0  0  0  0  0  0  0
   57.9600   34.9470   43.8728 H   0  0  0  0  0  0  0  0  0  0  0  0
   58.4141   32.6705   42.9621 H   0  0  0  0  0  0  0  0  0  0  0  0
   57.8693   25.1299   48.9835 H   0  0  0  0  0  0  0  0  0  0  0  0
   56.8380   24.5895   47.6157 H   0  0  0  0  0  0  0  0  0  0  0  0
   58.5958   24.2201   47.6157 H   0  0  0  0  0  0  0  0  0  0  0  0
  1  2  1  0
  2  3  2  0
  3  4  1  0
  4  5  2  0
  4  6  1  0
  6  7  1  0
  7  8  1  0
  8  9  1  0
  9 10  1  0
 10 11  1  0
  3 12  1  0
 12 13  1  0
 13 14  2  0
 13 15  2  0
 13 16  1  0
 16 17  1  0
 17 18  2  0
 18 19  1  0
 19 20  2  0
 20 21  1  0
 21 22  2  0
 12 23  2  0
 23 24  1  0
 24 25  2  0
 24 26  1  0
 23 27  1  0
 27 28  1  0
 27  2  1  0
 11  6  1  0
 22 17  1  0
  1 29  1  0
  1 30  1  0
  1 31  1  0
  7 32  1  0
  7 33  1  0
  8 34  1  0
  8 35  1  0
 10 36  1  0
 10 37  1  0
 11 38  1  0
 11 39  1  0
 18 40  1  0
 19 41  1  0
 20 42  1  0
 21 43  1  0
 22 44  1  0
 28 45  1  0
 28 46  1  0
 28 47  1  0
M  CHG  2  16  -1  26  -1
M  END
>  <UniqueID>  (48) 
48

>  <SMILES>  (48) 
Cc1c(C(=O)N2CCOCC2)c(S(=O)(=O)[N-]c2ccccc2)c(C(=O)[O-])n1C

>  <Energy>  (48) 
89.59110515755435

>  <Genealogy>  (48) 
Cc1c(C(=O)N2CCOCC2)c(S(=O)(=O)[N-]c2ccccc2)c(C(=O)[O-])n1C (protonated)
Cc1c(C(=O)N2CCOCC2)c(S(=O)(=O)[N-]c2ccccc2)c(C(=O)[O-])n1C (3D coordinates assigned)
Cc1c(C(=O)N2CCOCC2)c(S(=O)(=O)[N-]c2ccccc2)c(C(=O)[O-])n1C (nonaromatic ring conformer: 89.59110515755435 kcal/mol)

>  <smiles>  (48) 
Cc1c(C(=O)N2CCOCC2)c(S(=O)(=O)Nc2ccccc2)c(C(=O)O)n1C

>  <score_type>  (48) 
oracle

>  <origin>  (48) 
adg

>  <m_score__min__energy>  (48) 
-11.43

>  <m_primary>  (48) 
energy

$$$$
48:0
     RDKit          3D

 48 51  0  0  1  0  0  0  0  0999 V2000
   57.0300   28.6410   42.8600 N   0  0  0  0  0  0  0  0  0  0  0  0
   57.3490   29.6260   44.2400 S   0  0  0  0  0  0  0  0  0  0  0  0
   56.1060   30.2260   44.8200 O   0  0  0  0  0  0  0  0  0  0  0  0
   58.3160   30.7200   43.8170 O   0  0  0  0  0  0  0  0  0  0  0  0
   58.1750   28.6780   45.4510 C   0  0  0  0  0  0  0  0  0  0  0  0
   58.3790   27.3070   45.2740 C   0  0  0  0  0  0  0  0  0  0  0  0
   59.0180   26.5500   46.2300 C   0  0  0  0  0  0  0  0  0  0  0  0
   59.4750   27.1540   47.3980 C   0  0  0  0  0  0  0  0  0  0  0  0
   59.2940   28.4980   47.6070 C   0  0  0  0  0  0  0  0  0  0  0  0
   58.6380   29.2970   46.6350 C   0  0  0  0  0  0  0  0  0  0  0  0
   58.3970   30.6070   46.9440 N   0  0  0  0  0  0  0  0  0  0  0  0
   59.0730   31.6520   46.9630 C   0  0  0  0  0  0  0  0  0  0  0  0
   60.1990   31.6850   47.7060 N   0  0  0  0  0  0  0  0  0  0  0  0
   60.9890   32.7640   47.7560 C   0  0  0  0  0  0  0  0  0  0  0  0
   62.1850   32.8120   48.5670 N   0  0  0  0  0  0  0  0  0  0  0  0
   61.9870   33.2600   49.9290 C   0  0  0  0  0  0  0  0  0  0  0  0
   63.1370   33.1320   50.8410 C   0  0  0  0  0  0  0  0  0  0  0  0
   64.3930   32.6010   50.2120 C   0  0  0  0  0  0  0  0  0  0  0  0
   64.4560   31.2210   50.2780 F   0  0  0  0  0  0  0  0  0  0  0  0
   65.4680   33.0980   50.9220 F   0  0  0  0  0  0  0  0  0  0  0  0
   64.5490   33.0650   48.7790 C   0  0  0  0  0  0  0  0  0  0  0  0
   63.4440   32.4170   47.9940 C   0  0  0  0  0  0  0  0  0  0  0  0
   60.6450   33.8380   47.0470 N   0  0  0  0  0  0  0  0  0  0  0  0
   59.5270   33.8370   46.2990 C   0  0  0  0  0  0  0  0  0  0  0  0
   59.2100   34.9650   45.6010 C   0  0  0  0  0  0  0  0  0  0  0  0
   59.9710   35.9510   45.6710 O   0  0  0  0  0  0  0  0  0  0  0  0
   58.0850   34.9480   44.8740 N   0  0  0  0  0  0  0  0  0  0  0  0
   57.2470   33.9290   44.7670 C   0  0  0  0  0  0  0  0  0  0  0  0
   57.5520   32.7540   45.4770 C   0  0  0  0  0  0  0  0  0  0  0  0
   58.6870   32.7340   46.2250 C   0  0  0  0  0  0  0  0  0  0  0  0
   56.6650   27.6940   43.1600 H   0  0  0  0  0  0  0  0  0  0  0  0
   57.8870   28.5370   42.2720 H   0  0  0  0  0  0  0  0  0  0  0  0
   58.0221   26.8232   44.3529 H   0  0  0  0  0  0  0  0  0  0  0  0
   59.1669   25.4717   46.0715 H   0  0  0  0  0  0  0  0  0  0  0  0
   59.9861   26.5481   48.1606 H   0  0  0  0  0  0  0  0  0  0  0  0
   59.6604   28.9598   48.5357 H   0  0  0  0  0  0  0  0  0  0  0  0
   61.7068   34.3231   49.8929 H   0  0  0  0  0  0  0  0  0  0  0  0
   61.2143   32.5953   50.3427 H   0  0  0  0  0  0  0  0  0  0  0  0
   63.3572   34.1276   51.2536 H   0  0  0  0  0  0  0  0  0  0  0  0
   62.8422   32.3968   51.6043 H   0  0  0  0  0  0  0  0  0  0  0  0
   64.4621   34.1601   48.7233 H   0  0  0  0  0  0  0  0  0  0  0  0
   65.5351   32.7879   48.3780 H   0  0  0  0  0  0  0  0  0  0  0  0
   63.4931   32.7439   46.9448 H   0  0  0  0  0  0  0  0  0  0  0  0
   63.5477   31.3225   48.0300 H   0  0  0  0  0  0  0  0  0  0  0  0
   61.2360   34.6710   47.0750 H   0  0  0  0  0  0  0  0  0  0  0  0
   57.8560   35.8120   44.3460 H   0  0  0  0  0  0  0  0  0  0  0  0
   56.3431   33.9988   44.1441 H   0  0  0  0  0  0  0  0  0  0  0  0
   56.8910   31.8761   45.4285 H   0  0  0  0  0  0  0  0  0  0  0  0
  1  2  1  0
  2  3  2  0
  2  4  2  0
  2  5  1  0
  5  6  2  0
  6  7  1  0
  7  8  2  0
  8  9  1  0
  9 10  2  0
 10 11  1  0
 11 12  2  0
 12 13  1  0
 13 14  2  0
 14 15  1  0
 15 16  1  0
 16 17  1  0
 17 18  1  0
 18 19  1  0
 18 20  1  0
 18 21  1  0
 21 22  1  0
 14 23  1  0
 23 24  1  0
 24 25  1  0
 25 26  2  0
 25 27  1  0
 27 28  1  0
 28 29  2  0
 29 30  1  0
 10  5  1  0
 30 12  1  0
 22 15  1  0
 30 24  2  0
  1 31  1  0
  1 32  1  0
  6 33  1  0
  7 34  1  0
  8 35  1  0
  9 36  1  0
 16 37  1  0
 16 38  1  0
 17 39  1  0
 17 40  1  0
 21 41  1  0
 21 42  1  0
 22 43  1  0
 22 44  1  0
 23 45  1  0
 27 46  1  0
 28 47  1  0
 29 48  1  0
M  END
>  <smiles>  (49) 
NS(=O)(=O)c1ccccc1N=c1nc(N2CCC(F)(F)CC2)[nH]c2c(=O)[nH]ccc12

>  <score_type>  (49) 
oracle

>  <origin>  (49) 
adg

>  <m_score__min__energy>  (49) 
-9.0299999999999994

>  <m_primary>  (49) 
energy

$$$$
49:0
     RDKit          3D

 49 52  0  0  0  0  0  0  0  0999 V2000
   51.6320   29.0990   53.9740 C   0  0  0  0  0  0  0  0  0  0  0  0
   52.9310   29.1680   53.6750 C   0  0  0  0  0  0  0  0  0  0  0  0
   53.7860   28.2870   54.1460 O   0  0  0  0  0  0  0  0  0  0  0  0
   55.0050   28.6440   53.8160 C   0  0  0  0  0  0  0  0  0  0  0  0
   54.9640   29.8100   53.0800 C   0  0  0  0  0  0  0  0  0  0  0  0
   56.1550   30.4620   52.4950 C   0  0  0  0  0  0  0  0  0  0  0  0
   56.1780   30.6630   51.2480 O   0  0  0  0  0  0  0  0  0  0  0  0
   57.2390   30.9460   53.3260 N   0  0  0  0  0  0  0  0  0  0  0  0
   57.8070   32.1820   52.7340 C   0  0  0  0  0  0  0  0  0  0  0  0
   59.2090   32.4670   53.2910 C   0  0  0  0  0  0  0  0  0  0  0  0
   60.1690   31.3670   53.0080 N   0  0  0  0  0  0  0  0  0  0  0  0
   61.1250   31.7220   51.9400 C   0  0  0  0  0  0  0  0  0  0  0  0
   60.3930   32.2120   50.7180 C   0  0  0  0  0  0  0  0  0  0  0  0
   60.3190   33.5850   50.4290 C   0  0  0  0  0  0  0  0  0  0  0  0
   59.6430   34.0280   49.2870 C   0  0  0  0  0  0  0  0  0  0  0  0
   59.0400   33.1060   48.4280 C   0  0  0  0  0  0  0  0  0  0  0  0
   59.1100   31.7380   48.7090 C   0  0  0  0  0  0  0  0  0  0  0  0
   58.5250   30.8440   47.8740 F   0  0  0  0  0  0  0  0  0  0  0  0
   59.7840   31.2910   49.8490 C   0  0  0  0  0  0  0  0  0  0  0  0
   59.5130   30.0740   52.7040 C   0  0  0  0  0  0  0  0  0  0  0  0
   58.2510   29.8780   53.5570 C   0  0  0  0  0  0  0  0  0  0  0  0
   53.6190   30.1550   52.9520 C   0  0  0  0  0  0  0  0  0  0  0  0
   53.1570   31.2480   52.3110 C   0  0  0  0  0  0  0  0  0  0  0  0
   52.2090   31.2420   51.1860 C   0  0  0  0  0  0  0  0  0  0  0  0
   52.2290   30.3550   50.1730 N   0  0  0  0  0  0  0  0  0  0  0  0
   51.2900   30.8310   49.3250 C   0  0  0  0  0  0  0  0  0  0  0  0
   50.9990   30.2540   48.2450 O   0  0  0  0  0  0  0  0  0  0  0  0
   50.6980   31.9770   49.7210 N   0  0  0  0  0  0  0  0  0  0  0  0
   51.3020   32.2300   50.8920 C   0  0  0  0  0  0  0  0  0  0  0  0
   51.0350   33.3470   51.6740 O   0  0  0  0  0  0  0  0  0  0  0  0
   50.9340   29.8465   53.5691 H   0  0  0  0  0  0  0  0  0  0  0  0
   51.2595   28.2946   54.6253 H   0  0  0  0  0  0  0  0  0  0  0  0
   55.9203   28.0966   54.0854 H   0  0  0  0  0  0  0  0  0  0  0  0
   56.8510   31.2190   54.2590 H   0  0  0  0  0  0  0  0  0  0  0  0
   57.8717   32.0609   51.6426 H   0  0  0  0  0  0  0  0  0  0  0  0
   57.1504   33.0264   52.9907 H   0  0  0  0  0  0  0  0  0  0  0  0
   59.5886   33.3927   52.8340 H   0  0  0  0  0  0  0  0  0  0  0  0
   59.1217   32.5614   54.3835 H   0  0  0  0  0  0  0  0  0  0  0  0
   61.7950   32.5153   52.3030 H   0  0  0  0  0  0  0  0  0  0  0  0
   61.7066   30.8277   51.6715 H   0  0  0  0  0  0  0  0  0  0  0  0
   60.7939   34.3136   51.1025 H   0  0  0  0  0  0  0  0  0  0  0  0
   59.5862   35.1039   49.0652 H   0  0  0  0  0  0  0  0  0  0  0  0
   58.5099   33.4563   47.5301 H   0  0  0  0  0  0  0  0  0  0  0  0
   59.8379   30.2141   50.0667 H   0  0  0  0  0  0  0  0  0  0  0  0
   59.2338   30.0546   51.6402 H   0  0  0  0  0  0  0  0  0  0  0  0
   60.2189   29.2624   52.9343 H   0  0  0  0  0  0  0  0  0  0  0  0
   57.8022   28.9056   53.3059 H   0  0  0  0  0  0  0  0  0  0  0  0
   58.5504   29.9222   54.6146 H   0  0  0  0  0  0  0  0  0  0  0  0
   53.5196   32.2266   52.6587 H   0  0  0  0  0  0  0  0  0  0  0  0
  1  2  2  0
  2  3  1  0
  3  4  1  0
  4  5  2  0
  5  6  1  0
  6  7  2  0
  6  8  1  0
  8  9  1  0
  9 10  1  0
 10 11  1  0
 11 12  1  0
 12 13  1  0
 13 14  2  0
 14 15  1  0
 15 16  2  0
 16 17  1  0
 17 18  1  0
 17 19  2  0
 11 20  1  0
 20 21  1  0
  5 22  1  0
 22 23  2  3
 23 24  1  0
 24 25  1  0
 25 26  1  0
 26 27  2  0
 26 28  1  0
 28 29  1  0
 29 30  1  0
 22  2  1  0
 29 24  2  0
 21  8  1  0
 19 13  1  0
  1 31  1  0
  1 32  1  0
  4 33  1  0
  8 34  1  0
  9 35  1  0
  9 36  1  0
 10 37  1  0
 10 38  1  0
 12 39  1  0
 12 40  1  0
 14 41  1  0
 15 42  1  0
 16 43  1  0
 19 44  1  0
 20 45  1  0
 20 46  1  0
 21 47  1  0
 21 48  1  0
 23 49  1  0
M  CHG  4   8   1  25  -1  28  -1  30  -1
M  END
>  <UniqueID>  (50) 
49

>  <SMILES>  (50) 
C=c1occ(C(=O)[NH+]2CCN(Cc3cccc(F)c3)CC2)c1=Cc1[n-]c(=O)[n-]c1[O-]

>  <Energy>  (50) 
139.80329279614978

>  <Genealogy>  (50) 
C=c1occ(C(=O)[NH+]2CCN(Cc3cccc(F)c3)CC2)c1=Cc1[n-]c(=O)[n-]c1[O-] (protonated)
C=c1occ(C(=O)[NH+]2CCN(Cc3cccc(F)c3)CC2)c1=Cc1[n-]c(=O)[n-]c1[O-] (3D coordinates assigned)
C=c1occ(C(=O)[NH+]2CCN(Cc3cccc(F)c3)CC2)c1=Cc1[n-]c(=O)[n-]c1[O-] (nonaromatic ring conformer: 139.80329279614978 kcal/mol)

>  <smiles>  (50) 
C=c1occ(C(=O)N2CCN(Cc3cccc(F)c3)CC2)c1=Cc1[nH]c(=O)[nH]c1O

>  <score_type>  (50) 
oracle

>  <origin>  (50) 
adg

>  <m_score__min__energy>  (50) 
-15.65

>  <m_primary>  (50) 
energy

$$$$
50:0
     RDKit          3D

 43 45  0  0  0  0  0  0  0  0999 V2000
   59.6532   31.2108   46.3422 H   0  0  0  0  0  0  0  0  0  0  0  0
   59.1520   30.2500   46.5310 C   0  0  0  0  0  0  0  0  0  0  0  0
   59.3953   29.6709   47.4340 H   0  0  0  0  0  0  0  0  0  0  0  0
   58.2430   29.7840   45.6590 C   0  0  0  0  0  0  0  0  0  0  0  0
   57.5280   28.5830   45.7670 C   0  0  0  0  0  0  0  0  0  0  0  0
   57.6200   27.6730   46.7620 C   0  0  0  0  0  0  0  0  0  0  0  0
   58.0825   28.0041   47.7035 H   0  0  0  0  0  0  0  0  0  0  0  0
   57.1530   26.2700   46.6960 C   0  0  0  0  0  0  0  0  0  0  0  0
   57.8820   25.1780   46.9910 N   0  0  0  0  0  0  0  0  0  0  0  0
   57.0100   24.1600   46.8210 C   0  0  0  0  0  0  0  0  0  0  0  0
   57.3300   22.9570   47.0040 O   0  0  0  0  0  0  0  0  0  0  0  0
   55.7700   24.5330   46.4440 N   0  0  0  0  0  0  0  0  0  0  0  0
   55.8770   25.8700   46.3750 C   0  0  0  0  0  0  0  0  0  0  0  0
   54.8260   26.7100   46.0240 O   0  0  0  0  0  0  0  0  0  0  0  0
   56.6880   28.5350   44.6610 C   0  0  0  0  0  0  0  0  0  0  0  0
   55.9758   27.7343   44.4126 H   0  0  0  0  0  0  0  0  0  0  0  0
   56.9190   29.6840   43.9350 C   0  0  0  0  0  0  0  0  0  0  0  0
   56.2120   30.0390   42.6610 C   0  0  0  0  0  0  0  0  0  0  0  0
   55.2518   30.5211   42.8966 H   0  0  0  0  0  0  0  0  0  0  0  0
   56.8358   30.7308   42.0760 H   0  0  0  0  0  0  0  0  0  0  0  0
   56.0298   29.1255   42.0760 H   0  0  0  0  0  0  0  0  0  0  0  0
   57.8750   30.4380   44.5250 N   0  0  0  0  0  0  0  0  0  0  0  0
   58.3470   31.7470   44.0510 C   0  0  0  0  0  0  0  0  0  0  0  0
   59.4460   31.7722   44.0897 H   0  0  0  0  0  0  0  0  0  0  0  0
   58.0028   31.8987   43.0173 H   0  0  0  0  0  0  0  0  0  0  0  0
   57.7850   32.8650   44.9320 C   0  0  0  0  0  0  0  0  0  0  0  0
   57.3236   33.6321   44.2927 H   0  0  0  0  0  0  0  0  0  0  0  0
   57.0348   32.4374   45.6135 H   0  0  0  0  0  0  0  0  0  0  0  0
   58.8760   33.4920   45.7450 C   0  0  0  0  0  0  0  0  0  0  0  0
   59.5250   34.4590   45.2640 O   0  0  0  0  0  0  0  0  0  0  0  0
   59.1110   33.0470   47.0900 N   0  0  0  0  0  0  0  0  0  0  0  0
   58.3790   32.4520   47.5390 H   0  0  0  0  0  0  0  0  0  0  0  0
   60.2280   33.4640   47.8950 C   0  0  0  0  0  0  0  0  0  0  0  0
   60.0140   33.8150   49.2380 C   0  0  0  0  0  0  0  0  0  0  0  0
   58.9968   33.7847   49.6556 H   0  0  0  0  0  0  0  0  0  0  0  0
   61.0870   34.2030   50.0480 C   0  0  0  0  0  0  0  0  0  0  0  0
   60.9103   34.4868   51.0960 H   0  0  0  0  0  0  0  0  0  0  0  0
   62.3830   34.2300   49.5260 C   0  0  0  0  0  0  0  0  0  0  0  0
   63.4230   34.6050   50.3130 F   0  0  0  0  0  0  0  0  0  0  0  0
   62.6100   33.8620   48.1980 C   0  0  0  0  0  0  0  0  0  0  0  0
   63.6318   33.8766   47.7910 H   0  0  0  0  0  0  0  0  0  0  0  0
   61.5400   33.4750   47.3850 C   0  0  0  0  0  0  0  0  0  0  0  0
   61.7244   33.1778   46.3421 H   0  0  0  0  0  0  0  0  0  0  0  0
  1  2  1  0
  2  3  1  0
  2  4  2  0
  4  5  1  0
  5  6  2  0
  6  7  1  0
  6  8  1  0
  8  9  1  0
  9 10  1  0
 10 11  2  0
 10 12  1  0
 12 13  1  0
 13 14  1  0
  5 15  1  0
 15 16  1  0
 15 17  2  0
 17 18  1  0
 18 19  1  0
 18 20  1  0
 18 21  1  0
 17 22  1  0
 22 23  1  0
 23 24  1  0
 23 25  1  0
 23 26  1  0
 26 27  1  0
 26 28  1  0
 26 29  1  0
 29 30  2  0
 29 31  1  0
 31 32  1  0
 31 33  1  0
 33 34  2  0
 34 35  1  0
 34 36  1  0
 36 37  1  0
 36 38  2  0
 38 39  1  0
 38 40  1  0
 40 41  1  0
 40 42  2  0
 42 43  1  0
 22  4  1  0
 42 33  1  0
 13  8  2  0
M  CHG  3   9  -1  12  -1  14  -1
M  END
>  <UniqueID>  (51) 
50

>  <SMILES>  (51) 
C=c1/c(=C/c2[n-]c(=O)[n-]c2[O-])cc(C)n1CCC(=O)Nc1ccc(F)cc1

>  <Energy>  (51) 
106.33952594981996

>  <Genealogy>  (51) 
C=c1c(=Cc2[n-]c(=O)[n-]c2[O-])cc(C)n1CCC(=O)Nc1ccc(F)cc1 (protonated)
C=c1/c(=C/c2[n-]c(=O)[n-]c2[O-])cc(C)n1CCC(=O)Nc1ccc(F)cc1 (cis-trans isomerization)
C=c1/c(=C/c2[n-]c(=O)[n-]c2[O-])cc(C)n1CCC(=O)Nc1ccc(F)cc1 (3D coordinates assigned)
C=c1/c(=C/c2[n-]c(=O)[n-]c2[O-])cc(C)n1CCC(=O)Nc1ccc(F)cc1 (optimized conformer: 106.33952594981996 kcal/mol)

>  <smiles>  (51) 
C=c1c(=Cc2[nH]c(=O)[nH]c2O)cc(C)n1CCC(=O)Nc1ccc(F)cc1

>  <score_type>  (51) 
oracle

>  <origin>  (51) 
adg

>  <m_score__min__energy>  (51) 
-15.949999999999999

>  <m_primary>  (51) 
energy

$$$$
51:0
     RDKit          3D

 72 76  0  0  0  0  0  0  0  0999 V2000
   59.5613   35.2822   46.3615 H   0  0  0  0  0  0  0  0  0  0  0  0
   59.9820   34.3050   46.0820 C   0  0  0  0  0  0  0  0  0  0  0  0
   61.3160   34.1710   46.1350 C   0  0  0  0  0  0  0  0  0  0  0  0
   61.8848   34.4055   45.2232 H   0  0  0  0  0  0  0  0  0  0  0  0
   62.0830   33.7330   47.3220 C   0  0  0  0  0  0  0  0  0  0  0  0
   63.2380   32.9580   47.1430 C   0  0  0  0  0  0  0  0  0  0  0  0
   63.5530   32.6720   46.1286 H   0  0  0  0  0  0  0  0  0  0  0  0
   63.9910   32.5470   48.2460 C   0  0  0  0  0  0  0  0  0  0  0  0
   64.8870   31.9261   48.0989 H   0  0  0  0  0  0  0  0  0  0  0  0
   63.6070   32.9240   49.5360 C   0  0  0  0  0  0  0  0  0  0  0  0
   64.1972   32.5943   50.4037 H   0  0  0  0  0  0  0  0  0  0  0  0
   62.4730   33.7200   49.7240 C   0  0  0  0  0  0  0  0  0  0  0  0
   62.0990   34.1050   51.0070 O   0  0  0  0  0  0  0  0  0  0  0  0
   61.7170   34.1310   48.6220 C   0  0  0  0  0  0  0  0  0  0  0  0
   60.8327   34.7679   48.7713 H   0  0  0  0  0  0  0  0  0  0  0  0
   59.0290   33.2450   45.6780 C   0  0  0  0  0  0  0  0  0  0  0  0
   58.5160   33.2500   44.3740 C   0  0  0  0  0  0  0  0  0  0  0  0
   58.8055   34.0494   43.6760 H   0  0  0  0  0  0  0  0  0  0  0  0
   57.6380   32.2450   43.9540 C   0  0  0  0  0  0  0  0  0  0  0  0
   57.2192   32.2747   42.9373 H   0  0  0  0  0  0  0  0  0  0  0  0
   57.2880   31.1980   44.8230 C   0  0  0  0  0  0  0  0  0  0  0  0
   56.3680   30.1220   44.3950 C   0  0  0  0  0  0  0  0  0  0  0  0
   55.1860   30.4200   44.0830 O   0  0  0  0  0  0  0  0  0  0  0  0
   56.7570   28.7410   44.3830 N   0  0  0  0  0  0  0  0  0  0  0  0
   58.1240   28.2490   44.2700 C   0  0  0  0  0  0  0  0  0  0  0  0
   58.1085   27.1830   43.9991 H   0  0  0  0  0  0  0  0  0  0  0  0
   58.6547   28.8180   43.4924 H   0  0  0  0  0  0  0  0  0  0  0  0
   58.8300   28.4210   45.5850 C   0  0  0  0  0  0  0  0  0  0  0  0
   58.2640   27.9010   46.7620 C   0  0  0  0  0  0  0  0  0  0  0  0
   57.3071   27.3604   46.7171 H   0  0  0  0  0  0  0  0  0  0  0  0
   58.9120   28.0680   47.9890 C   0  0  0  0  0  0  0  0  0  0  0  0
   58.4626   27.6572   48.9051 H   0  0  0  0  0  0  0  0  0  0  0  0
   60.1330   28.7570   48.0590 C   0  0  0  0  0  0  0  0  0  0  0  0
   60.8020   28.9310   49.3220 N   0  0  0  0  0  0  0  0  0  0  0  0
   60.8670   27.7690   50.2300 C   0  0  0  0  0  0  0  0  0  0  0  0
   61.4423   26.9726   49.7353 H   0  0  0  0  0  0  0  0  0  0  0  0
   59.8309   27.4662   50.4417 H   0  0  0  0  0  0  0  0  0  0  0  0
   61.5330   28.0820   51.5850 C   0  0  0  0  0  0  0  0  0  0  0  0
   62.5067   28.5555   51.3910 H   0  0  0  0  0  0  0  0  0  0  0  0
   61.6270   27.1268   52.1223 H   0  0  0  0  0  0  0  0  0  0  0  0
   60.7380   28.9870   52.4520 N   0  0  0  0  0  0  0  0  0  0  0  0
   59.6860   28.2500   53.1870 C   0  0  0  0  0  0  0  0  0  0  0  0
   59.4150   27.3471   52.6202 H   0  0  0  0  0  0  0  0  0  0  0  0
   60.0743   27.9765   54.1792 H   0  0  0  0  0  0  0  0  0  0  0  0
   58.4600   29.1070   53.3670 C   0  0  0  0  0  0  0  0  0  0  0  0
   57.3730   28.9970   52.4830 C   0  0  0  0  0  0  0  0  0  0  0  0
   57.4086   28.2698   51.6584 H   0  0  0  0  0  0  0  0  0  0  0  0
   56.2460   29.8090   52.6480 C   0  0  0  0  0  0  0  0  0  0  0  0
   55.3974   29.7187   51.9539 H   0  0  0  0  0  0  0  0  0  0  0  0
   56.1970   30.7360   53.6950 C   0  0  0  0  0  0  0  0  0  0  0  0
   55.3098   31.3733   53.8244 H   0  0  0  0  0  0  0  0  0  0  0  0
   57.2750   30.8520   54.5760 C   0  0  0  0  0  0  0  0  0  0  0  0
   57.2360   31.5815   55.3984 H   0  0  0  0  0  0  0  0  0  0  0  0
   58.4040   30.0420   54.4140 C   0  0  0  0  0  0  0  0  0  0  0  0
   59.2512   30.1376   55.1091 H   0  0  0  0  0  0  0  0  0  0  0  0
   60.1680   30.1590   51.7460 C   0  0  0  0  0  0  0  0  0  0  0  0
   59.7813   30.8661   52.4947 H   0  0  0  0  0  0  0  0  0  0  0  0
   59.3719   29.7903   51.0825 H   0  0  0  0  0  0  0  0  0  0  0  0
   61.2000   30.8880   50.8690 C   0  0  0  0  0  0  0  0  0  0  0  0
   62.1165   31.0223   51.4622 H   0  0  0  0  0  0  0  0  0  0  0  0
   60.7295   31.8353   50.5671 H   0  0  0  0  0  0  0  0  0  0  0  0
   61.5810   30.1600   49.5570 C   0  0  0  0  0  0  0  0  0  0  0  0
   62.6472   29.8935   49.6031 H   0  0  0  0  0  0  0  0  0  0  0  0
   61.3599   30.8481   48.7278 H   0  0  0  0  0  0  0  0  0  0  0  0
   60.6960   29.2790   46.8820 C   0  0  0  0  0  0  0  0  0  0  0  0
   61.6511   29.8228   46.9269 H   0  0  0  0  0  0  0  0  0  0  0  0
   60.0490   29.1110   45.6550 C   0  0  0  0  0  0  0  0  0  0  0  0
   60.4982   29.5222   44.7389 H   0  0  0  0  0  0  0  0  0  0  0  0
   57.8020   31.1910   46.1290 C   0  0  0  0  0  0  0  0  0  0  0  0
   57.5120   30.3915   46.8266 H   0  0  0  0  0  0  0  0  0  0  0  0
   58.6800   32.1940   46.5480 C   0  0  0  0  0  0  0  0  0  0  0  0
   59.1012   32.1625   47.5637 H   0  0  0  0  0  0  0  0  0  0  0  0
  1  2  1  0
  2  3  2  0
  3  4  1  0
  3  5  1  0
  5  6  2  0
  6  7  1  0
  6  8  1  0
  8  9  1  0
  8 10  2  0
 10 11  1  0
 10 12  1  0
 12 13  1  0
 12 14  2  0
 14 15  1  0
  2 16  1  0
 16 17  2  0
 17 18  1  0
 17 19  1  0
 19 20  1  0
 19 21  2  0
 21 22  1  0
 22 23  2  0
 22 24  1  0
 24 25  1  0
 25 26  1  0
 25 27  1  0
 25 28  1  0
 28 29  2  0
 29 30  1  0
 29 31  1  0
 31 32  1  0
 31 33  2  0
 33 34  1  0
 34 35  1  0
 35 36  1  0
 35 37  1  0
 35 38  1  0
 38 39  1  0
 38 40  1  0
 38 41  1  0
 41 42  1  0
 42 43  1  0
 42 44  1  0
 42 45  1  0
 45 46  2  0
 46 47  1  0
 46 48  1  0
 48 49  1  0
 48 50  2  0
 50 51  1  0
 50 52  1  0
 52 53  1  0
 52 54  2  0
 54 55  1  0
 41 56  1  0
 56 57  1  0
 56 58  1  0
 56 59  1  0
 59 60  1  0
 59 61  1  0
 59 62  1  0
 62 63  1  0
 62 64  1  0
 33 65  1  0
 65 66  1  0
 65 67  2  0
 67 68  1  0
 21 69  1  0
 69 70  1  0
 69 71  2  0
 71 72  1  0
 14  5  1  0
 71 16  1  0
 67 28  1  0
 62 34  1  0
 54 45  1  0
M  CHG  2  13  -1  24  -1
M  END
>  <UniqueID>  (52) 
51

>  <SMILES>  (52) 
O=C([N-]Cc1ccc(N2CCCN(Cc3ccccc3)CC2)cc1)c1ccc(/C=C\c2cccc([O-])c2)cc1

>  <Energy>  (52) 
107.81429416904433

>  <Genealogy>  (52) 
O=C([N-]Cc1ccc(N2CCCN(Cc3ccccc3)CC2)cc1)c1ccc(C=Cc2cccc([O-])c2)cc1 (protonated)
O=C([N-]Cc1ccc(N2CCCN(Cc3ccccc3)CC2)cc1)c1ccc(/C=C\c2cccc([O-])c2)cc1 (cis-trans isomerization)
O=C([N-]Cc1ccc(N2CCCN(Cc3ccccc3)CC2)cc1)c1ccc(/C=C\c2cccc([O-])c2)cc1 (3D coordinates assigned)
O=C([N-]Cc1ccc(N2CCCN(Cc3ccccc3)CC2)cc1)c1ccc(/C=C\c2cccc([O-])c2)cc1 (nonaromatic ring conformer: 107.81429416904433 kcal/mol)

>  <smiles>  (52) 
O=C(NCc1ccc(N2CCCN(Cc3ccccc3)CC2)cc1)c1ccc(C=Cc2cccc(O)c2)cc1

>  <score_type>  (52) 
oracle

>  <origin>  (52) 
adg

>  <m_score__min__energy>  (52) 
-12.640000000000001

>  <m_primary>  (52) 
energy

$$$$
52:0
     RDKit          3D

 55 58  0  0  0  0  0  0  0  0999 V2000
   58.0250   21.6200   43.8580 C   0  0  0  0  0  0  0  0  0  0  0  0
   56.8900   22.5990   43.8290 C   0  0  0  0  0  0  0  0  0  0  0  0
   55.9210   22.3680   43.0530 O   0  0  0  0  0  0  0  0  0  0  0  0
   56.8800   23.8190   44.6810 C   0  0  0  0  0  0  0  0  0  0  0  0
   55.6560   24.3770   45.0990 C   0  0  0  0  0  0  0  0  0  0  0  0
   55.6320   25.5260   45.8930 C   0  0  0  0  0  0  0  0  0  0  0  0
   56.8260   26.1310   46.2890 C   0  0  0  0  0  0  0  0  0  0  0  0
   58.0580   25.5810   45.9010 C   0  0  0  0  0  0  0  0  0  0  0  0
   59.3040   26.1940   46.2610 N   0  0  0  0  0  0  0  0  0  0  0  0
   59.5420   27.6020   46.3660 C   0  0  0  0  0  0  0  0  0  0  0  0
   59.5600   28.1710   47.4920 O   0  0  0  0  0  0  0  0  0  0  0  0
   59.7650   28.4070   45.1250 C   0  0  0  0  0  0  0  0  0  0  0  0
   58.6080   29.3380   44.8930 C   0  0  0  0  0  0  0  0  0  0  0  0
   57.2970   28.8520   44.8080 C   0  0  0  0  0  0  0  0  0  0  0  0
   56.2600   29.7650   44.6060 C   0  0  0  0  0  0  0  0  0  0  0  0
   55.0700   29.3630   44.5250 O   0  0  0  0  0  0  0  0  0  0  0  0
   56.5350   31.0900   44.4960 N   0  0  0  0  0  0  0  0  0  0  0  0
   57.8110   31.5470   44.5840 C   0  0  0  0  0  0  0  0  0  0  0  0
   58.1480   33.2980   44.4190 S   0  0  0  0  0  0  0  0  0  0  0  0
   57.8510   33.6850   46.1830 C   0  0  0  0  0  0  0  0  0  0  0  0
   59.1150   33.6160   46.9870 C   0  0  0  0  0  0  0  0  0  0  0  0
   59.4440   34.6020   47.7010 O   0  0  0  0  0  0  0  0  0  0  0  0
   59.9740   32.4680   46.8890 N   0  0  0  0  0  0  0  0  0  0  0  0
   60.9800   32.1320   47.8620 C   0  0  0  0  0  0  0  0  0  0  0  0
   60.8830   30.9650   48.6480 C   0  0  0  0  0  0  0  0  0  0  0  0
   61.8880   30.6450   49.5670 C   0  0  0  0  0  0  0  0  0  0  0  0
   63.0040   31.4750   49.6960 C   0  0  0  0  0  0  0  0  0  0  0  0
   63.1320   32.6110   48.8880 C   0  0  0  0  0  0  0  0  0  0  0  0
   62.1200   32.9450   47.9830 C   0  0  0  0  0  0  0  0  0  0  0  0
   64.2860   33.3990   49.0000 O   0  0  0  0  0  0  0  0  0  0  0  0
   65.4390   32.9210   49.6940 C   0  0  0  0  0  0  0  0  0  0  0  0
   65.0180   32.1440   50.9480 C   0  0  0  0  0  0  0  0  0  0  0  0
   64.0100   31.1830   50.6240 O   0  0  0  0  0  0  0  0  0  0  0  0
   58.8320   30.6770   44.7920 N   0  0  0  0  0  0  0  0  0  0  0  0
   58.0790   24.4430   45.0830 C   0  0  0  0  0  0  0  0  0  0  0  0
   58.2874   21.3937   44.9020 H   0  0  0  0  0  0  0  0  0  0  0  0
   57.7236   20.6939   43.3466 H   0  0  0  0  0  0  0  0  0  0  0  0
   58.8968   22.0541   43.3466 H   0  0  0  0  0  0  0  0  0  0  0  0
   54.7101   23.9034   44.7973 H   0  0  0  0  0  0  0  0  0  0  0  0
   54.6692   25.9554   46.2072 H   0  0  0  0  0  0  0  0  0  0  0  0
   56.8015   27.0409   46.9066 H   0  0  0  0  0  0  0  0  0  0  0  0
   60.6879   28.9953   45.2349 H   0  0  0  0  0  0  0  0  0  0  0  0
   59.8534   27.7248   44.2667 H   0  0  0  0  0  0  0  0  0  0  0  0
   57.0891   27.7756   44.8983 H   0  0  0  0  0  0  0  0  0  0  0  0
   57.4347   34.7003   46.2599 H   0  0  0  0  0  0  0  0  0  0  0  0
   57.1488   32.9393   46.5839 H   0  0  0  0  0  0  0  0  0  0  0  0
   59.8970   31.8760   46.0330 H   0  0  0  0  0  0  0  0  0  0  0  0
   60.0119   30.3024   48.5377 H   0  0  0  0  0  0  0  0  0  0  0  0
   61.7995   29.7409   50.1873 H   0  0  0  0  0  0  0  0  0  0  0  0
   62.2165   33.8483   47.3628 H   0  0  0  0  0  0  0  0  0  0  0  0
   66.0131   32.2572   49.0308 H   0  0  0  0  0  0  0  0  0  0  0  0
   66.0586   33.7789   49.9943 H   0  0  0  0  0  0  0  0  0  0  0  0
   65.8940   31.6244   51.3635 H   0  0  0  0  0  0  0  0  0  0  0  0
   64.6125   32.8512   51.6865 H   0  0  0  0  0  0  0  0  0  0  0  0
   59.0433   24.0313   44.7503 H   0  0  0  0  0  0  0  0  0  0  0  0
  1  2  1  0
  2  3  2  0
  2  4  1  0
  4  5  2  0
  5  6  1  0
  6  7  2  0
  7  8  1  0
  8  9  1  0
  9 10  1  0
 10 11  2  0
 10 12  1  0
 12 13  1  0
 13 14  2  0
 14 15  1  0
 15 16  2  0
 15 17  1  0
 17 18  1  0
 18 19  1  0
 19 20  1  0
 20 21  1  0
 21 22  2  0
 21 23  1  0
 23 24  1  0
 24 25  2  0
 25 26  1  0
 26 27  2  0
 27 28  1  0
 28 29  2  0
 28 30  1  0
 30 31  1  0
 31 32  1  0
 32 33  1  0
 18 34  2  0
  8 35  2  0
 35  4  1  0
 34 13  1  0
 29 24  1  0
 33 27  1  0
  1 36  1  0
  1 37  1  0
  1 38  1  0
  5 39  1  0
  6 40  1  0
  7 41  1  0
 12 42  1  0
 12 43  1  0
 14 44  1  0
 20 45  1  0
 20 46  1  0
 23 47  1  0
 25 48  1  0
 26 49  1  0
 29 50  1  0
 31 51  1  0
 31 52  1  0
 32 53  1  0
 32 54  1  0
 35 55  1  0
M  CHG  2   9  -1  17  -1
M  END
>  <UniqueID>  (53) 
52

>  <SMILES>  (53) 
CC(=O)c1cccc([N-]C(=O)Cc2cc(=O)[n-]c(SCC(=O)Nc3ccc4c(c3)OCCO4)n2)c1

>  <Energy>  (53) 
60.10190464301719

>  <Genealogy>  (53) 
CC(=O)c1cccc([N-]C(=O)Cc2cc(=O)[n-]c(SCC(=O)Nc3ccc4c(c3)OCCO4)n2)c1 (protonated)
CC(=O)c1cccc([N-]C(=O)Cc2cc(=O)[n-]c(SCC(=O)Nc3ccc4c(c3)OCCO4)n2)c1 (3D coordinates assigned)
CC(=O)c1cccc([N-]C(=O)Cc2cc(=O)[n-]c(SCC(=O)Nc3ccc4c(c3)OCCO4)n2)c1 (nonaromatic ring conformer: 60.10190464301719 kcal/mol)

>  <smiles>  (53) 
CC(=O)c1cccc(NC(=O)Cc2cc(=O)[nH]c(SCC(=O)Nc3ccc4c(c3)OCCO4)n2)c1

>  <score_type>  (53) 
oracle

>  <origin>  (53) 
adg

>  <m_score__min__energy>  (53) 
-12.470000000000001

>  <m_primary>  (53) 
energy

$$$$
53:0
     RDKit          3D

 69 73  0  0  0  0  0  0  0  0999 V2000
   61.1200   33.3520   52.5130 C   0  0  0  0  0  0  0  0  0  0  0  0
   61.3530   32.1140   51.6950 C   0  0  0  0  0  0  0  0  0  0  0  0
   62.6030   31.4830   51.7170 C   0  0  0  0  0  0  0  0  0  0  0  0
   62.8270   30.3390   50.9480 C   0  0  0  0  0  0  0  0  0  0  0  0
   61.8090   29.8230   50.1440 C   0  0  0  0  0  0  0  0  0  0  0  0
   60.5550   30.4560   50.0870 C   0  0  0  0  0  0  0  0  0  0  0  0
   59.4660   29.8950   49.2510 C   0  0  0  0  0  0  0  0  0  0  0  0
   58.4110   30.5610   49.0630 O   0  0  0  0  0  0  0  0  0  0  0  0
   59.5870   28.5870   48.6720 N   0  0  0  0  0  0  0  0  0  0  0  0
   59.1660   28.2560   47.3370 C   0  0  0  0  0  0  0  0  0  0  0  0
   60.0120   27.5620   46.4510 C   0  0  0  0  0  0  0  0  0  0  0  0
   59.5470   27.1720   45.1950 C   0  0  0  0  0  0  0  0  0  0  0  0
   58.2420   27.4770   44.8040 C   0  0  0  0  0  0  0  0  0  0  0  0
   57.3930   28.1830   45.6610 C   0  0  0  0  0  0  0  0  0  0  0  0
   56.0490   28.4490   45.2360 N   0  0  0  0  0  0  0  0  0  0  0  0
   55.6510   29.4080   44.2440 C   0  0  0  0  0  0  0  0  0  0  0  0
   54.5110   29.3270   43.7130 O   0  0  0  0  0  0  0  0  0  0  0  0
   56.5560   30.5230   43.8810 C   0  0  0  0  0  0  0  0  0  0  0  0
   56.7730   30.8550   42.5290 C   0  0  0  0  0  0  0  0  0  0  0  0
   57.5980   31.9280   42.1880 C   0  0  0  0  0  0  0  0  0  0  0  0
   58.2190   32.6810   43.1860 C   0  0  0  0  0  0  0  0  0  0  0  0
   58.0250   32.3610   44.5400 C   0  0  0  0  0  0  0  0  0  0  0  0
   58.6710   33.1320   45.5700 N   0  0  0  0  0  0  0  0  0  0  0  0
   58.3210   32.9180   46.9800 C   0  0  0  0  0  0  0  0  0  0  0  0
   59.5810   32.9780   47.8450 C   0  0  0  0  0  0  0  0  0  0  0  0
   60.3420   34.3280   47.6720 C   0  0  0  0  0  0  0  0  0  0  0  0
   61.8190   34.2160   47.8050 N   0  0  0  0  0  0  0  0  0  0  0  0
   62.4830   33.1620   47.0170 C   0  0  0  0  0  0  0  0  0  0  0  0
   63.5320   32.5110   47.9120 C   0  0  0  0  0  0  0  0  0  0  0  0
   63.6360   33.4150   49.1210 C   0  0  0  0  0  0  0  0  0  0  0  0
   62.2860   34.0970   49.1890 C   0  0  0  0  0  0  0  0  0  0  0  0
   59.9590   35.1040   46.3850 C   0  0  0  0  0  0  0  0  0  0  0  0
   59.6160   34.1950   45.1950 C   0  0  0  0  0  0  0  0  0  0  0  0
   57.1900   31.2830   44.8800 C   0  0  0  0  0  0  0  0  0  0  0  0
   57.8550   28.5540   46.9350 C   0  0  0  0  0  0  0  0  0  0  0  0
   60.3380   31.6090   50.8660 C   0  0  0  0  0  0  0  0  0  0  0  0
   61.1676   33.0992   53.5825 H   0  0  0  0  0  0  0  0  0  0  0  0
   61.8935   34.0979   52.2778 H   0  0  0  0  0  0  0  0  0  0  0  0
   60.1282   33.7656   52.2778 H   0  0  0  0  0  0  0  0  0  0  0  0
   63.4114   31.8899   52.3423 H   0  0  0  0  0  0  0  0  0  0  0  0
   63.8084   29.8430   50.9759 H   0  0  0  0  0  0  0  0  0  0  0  0
   61.9894   28.9144   49.5507 H   0  0  0  0  0  0  0  0  0  0  0  0
   60.0230   27.8380   49.2570 H   0  0  0  0  0  0  0  0  0  0  0  0
   61.0439   27.3264   46.7505 H   0  0  0  0  0  0  0  0  0  0  0  0
   60.2104   26.6227   44.5108 H   0  0  0  0  0  0  0  0  0  0  0  0
   57.8795   27.1597   43.8151 H   0  0  0  0  0  0  0  0  0  0  0  0
   56.2890   30.2647   41.7370 H   0  0  0  0  0  0  0  0  0  0  0  0
   57.7593   32.1810   41.1297 H   0  0  0  0  0  0  0  0  0  0  0  0
   58.8634   33.5290   42.9109 H   0  0  0  0  0  0  0  0  0  0  0  0
   57.6187   33.7002   47.3041 H   0  0  0  0  0  0  0  0  0  0  0  0
   57.8531   31.9286   47.0905 H   0  0  0  0  0  0  0  0  0  0  0  0
   59.2932   32.8648   48.9006 H   0  0  0  0  0  0  0  0  0  0  0  0
   60.2514   32.1659   47.5272 H   0  0  0  0  0  0  0  0  0  0  0  0
   59.9917   34.9260   48.5262 H   0  0  0  0  0  0  0  0  0  0  0  0
   61.7451   32.4117   46.6966 H   0  0  0  0  0  0  0  0  0  0  0  0
   62.9522   33.5885   46.1181 H   0  0  0  0  0  0  0  0  0  0  0  0
   63.2119   31.5020   48.2109 H   0  0  0  0  0  0  0  0  0  0  0  0
   64.4981   32.3974   47.3985 H   0  0  0  0  0  0  0  0  0  0  0  0
   63.8235   32.8283   50.0324 H   0  0  0  0  0  0  0  0  0  0  0  0
   64.4674   34.1310   49.0426 H   0  0  0  0  0  0  0  0  0  0  0  0
   61.5819   33.4914   49.7785 H   0  0  0  0  0  0  0  0  0  0  0  0
   62.3578   35.0815   49.6743 H   0  0  0  0  0  0  0  0  0  0  0  0
   59.0835   35.7322   46.6058 H   0  0  0  0  0  0  0  0  0  0  0  0
   60.8383   35.6972   46.0935 H   0  0  0  0  0  0  0  0  0  0  0  0
   59.1658   34.8063   44.3990 H   0  0  0  0  0  0  0  0  0  0  0  0
   60.5459   33.7183   44.8516 H   0  0  0  0  0  0  0  0  0  0  0  0
   57.0306   31.0310   45.9388 H   0  0  0  0  0  0  0  0  0  0  0  0
   57.1816   29.0838   47.6248 H   0  0  0  0  0  0  0  0  0  0  0  0
   59.3642   32.1189   50.8248 H   0  0  0  0  0  0  0  0  0  0  0  0
  1  2  1  0
  2  3  2  0
  3  4  1  0
  4  5  2  0
  5  6  1  0
  6  7  1  0
  7  8  2  0
  7  9  1  0
  9 10  1  0
 10 11  2  0
 11 12  1  0
 12 13  2  0
 13 14  1  0
 14 15  1  0
 15 16  1  0
 16 17  2  0
 16 18  1  0
 18 19  2  0
 19 20  1  0
 20 21  2  0
 21 22  1  0
 22 23  1  0
 23 24  1  0
 24 25  1  0
 25 26  1  0
 26 27  1  0
 27 28  1  0
 28 29  1  0
 29 30  1  0
 30 31  1  0
 26 32  1  0
 32 33  1  0
 22 34  2  0
 14 35  2  0
  6 36  2  0
 36  2  1  0
 35 10  1  0
 34 18  1  0
 33 23  1  0
 31 27  1  0
  1 37  1  0
  1 38  1  0
  1 39  1  0
  3 40  1  0
  4 41  1  0
  5 42  1  0
  9 43  1  0
 11 44  1  0
 12 45  1  0
 13 46  1  0
 19 47  1  0
 20 48  1  0
 21 49  1  0
 24 50  1  0
 24 51  1  0
 25 52  1  0
 25 53  1  0
 26 54  1  0
 28 55  1  0
 28 56  1  0
 29 57  1  0
 29 58  1  0
 30 59  1  0
 30 60  1  0
 31 61  1  0
 31 62  1  0
 32 63  1  0
 32 64  1  0
 33 65  1  0
 33 66  1  0
 34 67  1  0
 35 68  1  0
 36 69  1  0
M  CHG  1  15  -1
M  END
>  <UniqueID>  (54) 
53

>  <SMILES>  (54) 
Cc1cccc(C(=O)Nc2cccc([N-]C(=O)c3cccc(N4CCC(N5CCCC5)CC4)c3)c2)c1

>  <Energy>  (54) 
97.37036992622393

>  <Genealogy>  (54) 
Cc1cccc(C(=O)Nc2cccc([N-]C(=O)c3cccc(N4CCC(N5CCCC5)CC4)c3)c2)c1 (protonated)
Cc1cccc(C(=O)Nc2cccc([N-]C(=O)c3cccc(N4CCC(N5CCCC5)CC4)c3)c2)c1 (3D coordinates assigned)
Cc1cccc(C(=O)Nc2cccc([N-]C(=O)c3cccc(N4CCC(N5CCCC5)CC4)c3)c2)c1 (nonaromatic ring conformer: 97.37036992622393 kcal/mol)

>  <smiles>  (54) 
Cc1cccc(C(=O)Nc2cccc(NC(=O)c3cccc(N4CCC(N5CCCC5)CC4)c3)c2)c1

>  <score_type>  (54) 
oracle

>  <origin>  (54) 
adg

>  <m_score__min__energy>  (54) 
-12.789999999999999

>  <m_primary>  (54) 
energy

$$$$
54:0
     RDKit          3D

 29 30  0  0  0  0  0  0  0  0999 V2000
   58.5276   33.1156   47.7142 H   0  0  0  0  0  0  0  0  0  0  0  0
   58.3370   33.0330   46.6340 C   0  0  0  0  0  0  0  0  0  0  0  0
   57.3970   32.1640   46.1740 N   0  0  0  0  0  0  0  0  0  0  0  0
   57.1170   32.0260   44.8490 C   0  0  0  0  0  0  0  0  0  0  0  0
   56.2070   31.1570   44.5010 N   0  0  0  0  0  0  0  0  0  0  0  0
   56.3060   29.7250   44.4520 C   0  0  0  0  0  0  0  0  0  0  0  0
   55.5230   28.9950   45.1170 O   0  0  0  0  0  0  0  0  0  0  0  0
   57.4210   29.0930   43.6800 C   0  0  0  0  0  0  0  0  0  0  0  0
   58.2654   29.7958   43.6252 H   0  0  0  0  0  0  0  0  0  0  0  0
   57.0580   28.8513   42.6701 H   0  0  0  0  0  0  0  0  0  0  0  0
   57.9760   27.5520   44.4870 S   0  0  0  0  0  0  0  0  0  0  0  0
   58.6710   28.3790   45.9220 C   0  0  0  0  0  0  0  0  0  0  0  0
   59.7600   27.9570   46.5970 N   0  0  0  0  0  0  0  0  0  0  0  0
   60.5420   26.7500   46.3590 C   0  0  0  0  0  0  0  0  0  0  0  0
   60.8308   26.3043   47.3223 H   0  0  0  0  0  0  0  0  0  0  0  0
   59.9389   26.0291   45.7875 H   0  0  0  0  0  0  0  0  0  0  0  0
   61.4464   27.0058   45.7875 H   0  0  0  0  0  0  0  0  0  0  0  0
   59.9180   28.8310   47.6100 C   0  0  0  0  0  0  0  0  0  0  0  0
   60.7057   28.7927   48.3768 H   0  0  0  0  0  0  0  0  0  0  0  0
   58.9220   29.7830   47.5210 C   0  0  0  0  0  0  0  0  0  0  0  0
   58.7877   30.6368   48.2014 H   0  0  0  0  0  0  0  0  0  0  0  0
   58.1430   29.4920   46.4630 N   0  0  0  0  0  0  0  0  0  0  0  0
   57.2980   30.0140   46.1400 H   0  0  0  0  0  0  0  0  0  0  0  0
   57.8460   32.7960   43.9150 C   0  0  0  0  0  0  0  0  0  0  0  0
   57.6526   32.6890   42.8374 H   0  0  0  0  0  0  0  0  0  0  0  0
   58.8130   33.6930   44.3700 C   0  0  0  0  0  0  0  0  0  0  0  0
   59.3813   34.3008   43.6506 H   0  0  0  0  0  0  0  0  0  0  0  0
   59.0590   33.8190   45.7370 C   0  0  0  0  0  0  0  0  0  0  0  0
   59.8139   34.5303   46.1032 H   0  0  0  0  0  0  0  0  0  0  0  0
  1  2  1  0
  2  3  1  0
  3  4  1  0
  4  5  2  0
  5  6  1  0
  6  7  2  0
  6  8  1  0
  8  9  1  0
  8 10  1  0
  8 11  1  0
 11 12  1  0
 12 13  1  0
 13 14  1  0
 14 15  1  0
 14 16  1  0
 14 17  1  0
 13 18  1  0
 18 19  1  0
 18 20  2  0
 20 21  1  0
 20 22  1  0
 22 23  1  0
  4 24  1  0
 24 25  1  0
 24 26  2  0
 26 27  1  0
 26 28  1  0
 28 29  1  0
 28  2  2  0
 22 12  2  0
M  CHG  2   3  -1  22   1
M  END
>  <UniqueID>  (55) 
54

>  <SMILES>  (55) 
Cn1cc[nH+]c1SCC(=O)/N=c1\cccc[n-]1

>  <Energy>  (55) 
61.121502251333425

>  <Genealogy>  (55) 
Cn1cc[nH+]c1SCC(=O)N=c1cccc[n-]1 (protonated)
Cn1cc[nH+]c1SCC(=O)/N=c1\cccc[n-]1 (cis-trans isomerization)
Cn1cc[nH+]c1SCC(=O)/N=c1\cccc[n-]1 (3D coordinates assigned)
Cn1cc[nH+]c1SCC(=O)/N=c1\cccc[n-]1 (optimized conformer: 61.121502251333425 kcal/mol)

>  <smiles>  (55) 
Cn1ccnc1SCC(=O)N=c1cccc[nH]1

>  <score_type>  (55) 
oracle

>  <origin>  (55) 
adg

>  <m_score__min__energy>  (55) 
-5.6500000000000004

>  <m_primary>  (55) 
energy

$$$$
55:0
     RDKit          3D

 55 57  0  0  0  0  0  0  0  0999 V2000
   57.0170   34.4240   44.8780 C   0  0  0  0  0  0  0  0  0  0  0  0
   58.3860   33.8210   44.5750 C   0  0  0  0  0  0  0  0  0  0  0  0
   58.9780   33.1790   45.8110 C   0  0  0  0  0  0  0  0  0  0  0  0
   59.6410   34.0190   46.7260 C   0  0  0  0  0  0  0  0  0  0  0  0
   60.1420   33.5200   47.9340 C   0  0  0  0  0  0  0  0  0  0  0  0
   60.8110   34.4400   48.9120 C   0  0  0  0  0  0  0  0  0  0  0  0
   59.9330   32.1760   48.2600 C   0  0  0  0  0  0  0  0  0  0  0  0
   59.2740   31.3300   47.3690 C   0  0  0  0  0  0  0  0  0  0  0  0
   58.8140   31.8020   46.1280 C   0  0  0  0  0  0  0  0  0  0  0  0
   58.0080   30.6590   45.0340 S   0  0  0  0  0  0  0  0  0  0  0  0
   58.7650   30.5640   43.7370 O   0  0  0  0  0  0  0  0  0  0  0  0
   56.6190   31.1660   44.7600 O   0  0  0  0  0  0  0  0  0  0  0  0
   57.9200   29.0700   45.7650 N   0  0  0  0  0  0  0  0  0  0  0  0
   59.1370   28.2890   45.4550 C   0  0  0  0  0  0  0  0  0  0  0  0
   59.0280   26.8130   45.9210 C   0  0  0  0  0  0  0  0  0  0  0  0
   57.8080   26.5530   46.7200 N   0  0  2  0  0  0  0  0  0  0  0  0
   57.7160   25.1420   47.1860 C   0  0  0  0  0  0  0  0  0  0  0  0
   57.6090   24.1120   46.0760 C   0  0  0  0  0  0  0  0  0  0  0  0
   56.3590   23.8150   45.5060 C   0  0  0  0  0  0  0  0  0  0  0  0
   56.2530   22.8760   44.4760 C   0  0  0  0  0  0  0  0  0  0  0  0
   57.3960   22.2240   43.9920 C   0  0  0  0  0  0  0  0  0  0  0  0
   57.2880   21.2410   42.8590 C   0  0  0  0  0  0  0  0  0  0  0  0
   56.2620   20.3230   43.1150 O   0  0  0  0  0  0  0  0  0  0  0  0
   58.6520   22.5510   44.5260 C   0  0  0  0  0  0  0  0  0  0  0  0
   58.7580   23.4890   45.5580 C   0  0  0  0  0  0  0  0  0  0  0  0
   56.6440   27.0260   45.9930 C   0  0  0  0  0  0  0  0  0  0  0  0
   55.5840   26.4180   46.0100 O   0  0  0  0  0  0  0  0  0  0  0  0
   56.7130   28.3630   45.3110 C   0  0  0  0  0  0  0  0  0  0  0  0
   56.8765   34.4859   45.9672 H   0  0  0  0  0  0  0  0  0  0  0  0
   56.9559   35.4323   44.4426 H   0  0  0  0  0  0  0  0  0  0  0  0
   56.2319   33.7884   44.4426 H   0  0  0  0  0  0  0  0  0  0  0  0
   58.2780   33.0585   43.7895 H   0  0  0  0  0  0  0  0  0  0  0  0
   59.0581   34.6248   44.2399 H   0  0  0  0  0  0  0  0  0  0  0  0
   59.7674   35.0854   46.4875 H   0  0  0  0  0  0  0  0  0  0  0  0
   60.5769   34.1180   49.9374 H   0  0  0  0  0  0  0  0  0  0  0  0
   61.8997   34.4101   48.7578 H   0  0  0  0  0  0  0  0  0  0  0  0
   60.4469   35.4665   48.7578 H   0  0  0  0  0  0  0  0  0  0  0  0
   60.2903   31.7846   49.2239 H   0  0  0  0  0  0  0  0  0  0  0  0
   59.1117   30.2768   47.6417 H   0  0  0  0  0  0  0  0  0  0  0  0
   59.2992   28.3048   44.3671 H   0  0  0  0  0  0  0  0  0  0  0  0
   59.9774   28.7497   45.9949 H   0  0  0  0  0  0  0  0  0  0  0  0
   59.0116   26.1641   45.0329 H   0  0  0  0  0  0  0  0  0  0  0  0
   59.8960   26.6030   46.5632 H   0  0  0  0  0  0  0  0  0  0  0  0
   57.8750   27.1400   47.5860 H   0  0  0  0  0  0  0  0  0  0  0  0
   58.6165   24.9169   47.7764 H   0  0  0  0  0  0  0  0  0  0  0  0
   56.7860   25.0678   47.7688 H   0  0  0  0  0  0  0  0  0  0  0  0
   55.4567   24.3257   45.8735 H   0  0  0  0  0  0  0  0  0  0  0  0
   55.2680   22.6474   44.0430 H   0  0  0  0  0  0  0  0  0  0  0  0
   57.0677   21.7825   41.9272 H   0  0  0  0  0  0  0  0  0  0  0  0
   58.2401   20.6989   42.7605 H   0  0  0  0  0  0  0  0  0  0  0  0
   56.6880   19.5270   43.5260 H   0  0  0  0  0  0  0  0  0  0  0  0
   59.5575   22.0672   44.1310 H   0  0  0  0  0  0  0  0  0  0  0  0
   59.7474   23.7411   45.9673 H   0  0  0  0  0  0  0  0  0  0  0  0
   56.7576   28.2194   44.2213 H   0  0  0  0  0  0  0  0  0  0  0  0
   55.8197   28.9543   45.5608 H   0  0  0  0  0  0  0  0  0  0  0  0
  1  2  1  0
  2  3  1  0
  3  4  2  0
  4  5  1  0
  5  6  1  0
  5  7  2  0
  7  8  1  0
  8  9  2  0
  9 10  1  0
 10 11  2  0
 10 12  2  0
 10 13  1  0
 13 14  1  0
 14 15  1  0
 15 16  1  0
 16 17  1  0
 17 18  1  0
 18 19  2  0
 19 20  1  0
 20 21  2  0
 21 22  1  0
 22 23  1  0
 21 24  1  0
 24 25  2  0
 16 26  1  0
 26 27  2  0
 26 28  1  0
  9  3  1  0
 28 13  1  0
 25 18  1  0
  1 29  1  0
  1 30  1  0
  1 31  1  0
  2 32  1  0
  2 33  1  0
  4 34  1  0
  6 35  1  0
  6 36  1  0
  6 37  1  0
  7 38  1  0
  8 39  1  0
 14 40  1  0
 14 41  1  0
 15 42  1  0
 15 43  1  0
 16 44  1  1
 17 45  1  0
 17 46  1  0
 19 47  1  0
 20 48  1  0
 22 49  1  0
 22 50  1  0
 23 51  1  0
 24 52  1  0
 25 53  1  0
 28 54  1  0
 28 55  1  0
M  CHG  1  16   1
M  END
>  <UniqueID>  (56) 
55

>  <SMILES>  (56) 
CCc1cc(C)ccc1S(=O)(=O)N1CC[N@H+](Cc2ccc(CO)cc2)C(=O)C1

>  <Energy>  (56) 
68.16229561523062

>  <Genealogy>  (56) 
CCc1cc(C)ccc1S(=O)(=O)N1CC[NH+](Cc2ccc(CO)cc2)C(=O)C1 (protonated)
CCc1cc(C)ccc1S(=O)(=O)N1CC[N@H+](Cc2ccc(CO)cc2)C(=O)C1 (chirality)
CCc1cc(C)ccc1S(=O)(=O)N1CC[N@H+](Cc2ccc(CO)cc2)C(=O)C1 (3D coordinates assigned)
CCc1cc(C)ccc1S(=O)(=O)N1CC[N@H+](Cc2ccc(CO)cc2)C(=O)C1 (nonaromatic ring conformer: 68.16229561523062 kcal/mol)

>  <smiles>  (56) 
CCc1cc(C)ccc1S(=O)(=O)N1CCN(Cc2ccc(CO)cc2)C(=O)C1

>  <score_type>  (56) 
oracle

>  <origin>  (56) 
adg

>  <m_score__min__energy>  (56) 
-7.8899999999999997

>  <m_primary>  (56) 
energy

$$$$
56:0
     RDKit          3D

 63 66  0  0  0  0  0  0  0  0999 V2000
   55.1790   26.6910   46.1160 N   0  0  0  0  0  0  0  0  0  0  0  0
   56.8870   26.4490   46.0420 S   0  0  0  0  0  0  0  0  0  0  0  0
   57.3910   25.9740   47.3760 O   0  0  0  0  0  0  0  0  0  0  0  0
   57.2020   25.4110   45.0020 O   0  0  0  0  0  0  0  0  0  0  0  0
   57.6740   27.9580   45.6230 C   0  0  0  0  0  0  0  0  0  0  0  0
   57.1620   28.9360   44.7850 C   0  0  0  0  0  0  0  0  0  0  0  0
   58.0220   30.0320   44.6440 C   0  0  0  0  0  0  0  0  0  0  0  0
   57.6230   31.4480   43.6790 S   0  0  0  0  0  0  0  0  0  0  0  0
   58.6300   31.5770   42.5700 O   0  0  0  0  0  0  0  0  0  0  0  0
   56.2680   31.2510   43.0560 O   0  0  0  0  0  0  0  0  0  0  0  0
   57.6150   32.9160   44.6290 N   0  0  0  0  0  0  0  0  0  0  0  0
   58.8170   33.7480   44.3980 C   0  0  0  0  0  0  0  0  0  0  0  0
   59.4670   34.2200   45.6960 C   0  0  0  0  0  0  0  0  0  0  0  0
   59.7380   33.0400   46.5400 N   0  0  0  0  0  0  0  0  0  0  0  0
   60.7890   33.2190   47.6080 C   0  0  0  0  0  0  0  0  0  0  0  0
   60.2400   33.9800   48.8610 C   0  0  0  0  0  0  0  0  0  0  0  0
   61.2900   34.2920   49.8310 N   0  0  0  0  0  0  0  0  0  0  0  0
   61.2500   33.1530   51.1400 S   0  0  0  0  0  0  0  0  0  0  0  0
   62.1900   32.0210   50.8380 O   0  0  0  0  0  0  0  0  0  0  0  0
   61.7030   33.8280   52.4050 O   0  0  0  0  0  0  0  0  0  0  0  0
   59.6220   32.5080   51.3370 C   0  0  0  0  0  0  0  0  0  0  0  0
   59.2670   31.2720   50.7770 C   0  0  0  0  0  0  0  0  0  0  0  0
   57.9800   30.7590   50.9650 C   0  0  0  0  0  0  0  0  0  0  0  0
   57.0420   31.4760   51.7170 C   0  0  0  0  0  0  0  0  0  0  0  0
   55.4280   30.8320   51.9520 Cl  0  0  0  0  0  0  0  0  0  0  0  0
   57.3940   32.7080   52.2810 C   0  0  0  0  0  0  0  0  0  0  0  0
   58.6810   33.2210   52.0930 C   0  0  0  0  0  0  0  0  0  0  0  0
   62.0050   34.0090   46.9860 C   0  0  0  0  0  0  0  0  0  0  0  0
   63.3760   33.5400   47.4890 C   0  0  0  0  0  0  0  0  0  0  0  0
   63.6240   32.0640   47.1230 C   0  0  0  0  0  0  0  0  0  0  0  0
   62.3380   31.2140   47.1620 C   0  0  0  0  0  0  0  0  0  0  0  0
   61.3060   31.8180   48.1160 C   0  0  0  0  0  0  0  0  0  0  0  0
   58.4800   32.3600   46.9480 C   0  0  0  0  0  0  0  0  0  0  0  0
   57.2640   32.6780   46.0450 C   0  0  0  0  0  0  0  0  0  0  0  0
   59.1990   29.9240   45.3780 C   0  0  0  0  0  0  0  0  0  0  0  0
   59.1760   28.4510   46.1920 S   0  0  0  0  0  0  0  0  0  0  0  0
   54.8340   26.7220   45.1300 H   0  0  0  0  0  0  0  0  0  0  0  0
   56.1854   28.8595   44.2846 H   0  0  0  0  0  0  0  0  0  0  0  0
   59.5512   33.1557   43.8322 H   0  0  0  0  0  0  0  0  0  0  0  0
   58.4993   34.6424   43.8419 H   0  0  0  0  0  0  0  0  0  0  0  0
   60.4100   34.7398   45.4711 H   0  0  0  0  0  0  0  0  0  0  0  0
   58.7958   34.9142   46.2229 H   0  0  0  0  0  0  0  0  0  0  0  0
   59.7768   34.9204   48.5277 H   0  0  0  0  0  0  0  0  0  0  0  0
   59.5102   33.3237   49.3576 H   0  0  0  0  0  0  0  0  0  0  0  0
   60.0031   30.7048   50.1884 H   0  0  0  0  0  0  0  0  0  0  0  0
   57.7043   29.7909   50.5215 H   0  0  0  0  0  0  0  0  0  0  0  0
   56.6579   33.2725   52.8722 H   0  0  0  0  0  0  0  0  0  0  0  0
   58.9562   34.1877   52.5400 H   0  0  0  0  0  0  0  0  0  0  0  0
   61.9761   33.8843   45.8935 H   0  0  0  0  0  0  0  0  0  0  0  0
   61.8944   35.0588   47.2954 H   0  0  0  0  0  0  0  0  0  0  0  0
   64.1592   34.1609   47.0296 H   0  0  0  0  0  0  0  0  0  0  0  0
   63.3992   33.6378   48.5844 H   0  0  0  0  0  0  0  0  0  0  0  0
   64.0438   32.0196   46.1072 H   0  0  0  0  0  0  0  0  0  0  0  0
   64.3173   31.6498   47.8698 H   0  0  0  0  0  0  0  0  0  0  0  0
   61.9078   31.1670   46.1507 H   0  0  0  0  0  0  0  0  0  0  0  0
   62.5964   30.2065   47.5200 H   0  0  0  0  0  0  0  0  0  0  0  0
   60.4509   31.1308   48.1971 H   0  0  0  0  0  0  0  0  0  0  0  0
   61.7886   31.9653   49.0935 H   0  0  0  0  0  0  0  0  0  0  0  0
   58.6520   31.2738   46.9247 H   0  0  0  0  0  0  0  0  0  0  0  0
   58.2322   32.7314   47.9533 H   0  0  0  0  0  0  0  0  0  0  0  0
   56.5670   31.8282   46.0909 H   0  0  0  0  0  0  0  0  0  0  0  0
   56.8197   33.6099   46.4246 H   0  0  0  0  0  0  0  0  0  0  0  0
   60.0048   30.6716   45.4192 H   0  0  0  0  0  0  0  0  0  0  0  0
  1  2  1  0
  2  3  2  0
  2  4  2  0
  2  5  1  0
  5  6  2  0
  6  7  1  0
  7  8  1  0
  8  9  2  0
  8 10  2  0
  8 11  1  0
 11 12  1  0
 12 13  1  0
 13 14  1  0
 14 15  1  0
 15 16  1  0
 16 17  1  0
 17 18  1  0
 18 19  2  0
 18 20  2  0
 18 21  1  0
 21 22  2  0
 22 23  1  0
 23 24  2  0
 24 25  1  0
 24 26  1  0
 26 27  2  0
 15 28  1  0
 28 29  1  0
 29 30  1  0
 30 31  1  0
 31 32  1  0
 14 33  1  0
 33 34  1  0
  7 35  2  0
 35 36  1  0
 36  5  1  0
 34 11  1  0
 32 15  1  0
 27 21  1  0
  1 37  1  0
  6 38  1  0
 12 39  1  0
 12 40  1  0
 13 41  1  0
 13 42  1  0
 16 43  1  0
 16 44  1  0
 22 45  1  0
 23 46  1  0
 26 47  1  0
 27 48  1  0
 28 49  1  0
 28 50  1  0
 29 51  1  0
 29 52  1  0
 30 53  1  0
 30 54  1  0
 31 55  1  0
 31 56  1  0
 32 57  1  0
 32 58  1  0
 33 59  1  0
 33 60  1  0
 34 61  1  0
 34 62  1  0
 35 63  1  0
M  CHG  2   1  -1  17  -1
M  END
>  <UniqueID>  (57) 
56

>  <SMILES>  (57) 
[NH-]S(=O)(=O)c1cc(S(=O)(=O)N2CCN(C3(C[N-]S(=O)(=O)c4ccc(Cl)cc4)CCCCC3)CC2)cs1

>  <Energy>  (57) 
112.9984264745606

>  <Genealogy>  (57) 
[NH-]S(=O)(=O)c1cc(S(=O)(=O)N2CCN(C3(C[N-]S(=O)(=O)c4ccc(Cl)cc4)CCCCC3)CC2)cs1 (protonated)
[NH-]S(=O)(=O)c1cc(S(=O)(=O)N2CCN(C3(C[N-]S(=O)(=O)c4ccc(Cl)cc4)CCCCC3)CC2)cs1 (3D coordinates assigned)
[NH-]S(=O)(=O)c1cc(S(=O)(=O)N2CCN(C3(C[N-]S(=O)(=O)c4ccc(Cl)cc4)CCCCC3)CC2)cs1 (nonaromatic ring conformer: 112.9984264745606 kcal/mol)

>  <smiles>  (57) 
NS(=O)(=O)c1cc(S(=O)(=O)N2CCN(C3(CNS(=O)(=O)c4ccc(Cl)cc4)CCCCC3)CC2)cs1

>  <score_type>  (57) 
oracle

>  <origin>  (57) 
adg

>  <m_score__min__energy>  (57) 
-13.91

>  <m_primary>  (57) 
energy

$$$$
57:0
     RDKit          3D

 51 53  0  0  0  0  0  0  0  0999 V2000
   54.7250   24.9680   45.5840 C   0  0  0  0  0  0  0  0  0  0  0  0
   55.1260   26.2710   45.9920 O   0  0  0  0  0  0  0  0  0  0  0  0
   56.4360   26.7650   45.8920 C   0  0  0  0  0  0  0  0  0  0  0  0
   57.4870   25.9590   46.3420 C   0  0  0  0  0  0  0  0  0  0  0  0
   58.8090   26.4060   46.2660 C   0  0  0  0  0  0  0  0  0  0  0  0
   59.0990   27.6700   45.7320 C   0  0  0  0  0  0  0  0  0  0  0  0
   60.5210   28.1580   45.6810 C   0  0  0  0  0  0  0  0  0  0  0  0
   60.7170   29.2420   46.6380 N   0  0  0  0  0  0  0  0  0  0  0  0
   60.2360   29.1720   47.9890 C   0  0  0  0  0  0  0  0  0  0  0  0
   59.5670   28.1750   48.3730 O   0  0  0  0  0  0  0  0  0  0  0  0
   60.5510   30.2770   48.9600 C   0  0  2  0  0  0  0  0  0  0  0  0
   59.8400   30.0670   50.3180 C   0  0  0  0  0  0  0  0  0  0  0  0
   59.2180   31.4170   50.7090 C   0  0  0  0  0  0  0  0  0  0  0  0
   59.3630   32.2250   49.4820 C   0  0  0  0  0  0  0  0  0  0  0  0
   58.9090   33.3930   49.3600 O   0  0  0  0  0  0  0  0  0  0  0  0
   60.0840   31.5630   48.4580 N   0  0  0  0  0  0  0  0  0  0  0  0
   60.6080   32.2200   47.2590 C   0  0  0  0  0  0  0  0  0  0  0  0
   59.4770   32.6680   46.3730 C   0  0  0  0  0  0  0  0  0  0  0  0
   59.3830   34.0090   45.9720 C   0  0  0  0  0  0  0  0  0  0  0  0
   58.3570   34.4150   45.1160 C   0  0  0  0  0  0  0  0  0  0  0  0
   57.4230   33.4880   44.6470 C   0  0  0  0  0  0  0  0  0  0  0  0
   57.5130   32.1370   45.0310 C   0  0  0  0  0  0  0  0  0  0  0  0
   56.6040   31.1660   44.5840 O   0  0  0  0  0  0  0  0  0  0  0  0
   56.6280   30.5800   43.2870 C   0  0  0  0  0  0  0  0  0  0  0  0
   58.5430   31.7370   45.8910 C   0  0  0  0  0  0  0  0  0  0  0  0
   58.0470   28.4840   45.2830 C   0  0  0  0  0  0  0  0  0  0  0  0
   56.7250   28.0360   45.3600 C   0  0  0  0  0  0  0  0  0  0  0  0
   54.5342   24.3481   46.4724 H   0  0  0  0  0  0  0  0  0  0  0  0
   53.8070   25.0385   44.9821 H   0  0  0  0  0  0  0  0  0  0  0  0
   55.5238   24.5102   44.9821 H   0  0  0  0  0  0  0  0  0  0  0  0
   57.2710   24.9645   46.7594 H   0  0  0  0  0  0  0  0  0  0  0  0
   59.6258   25.7635   46.6267 H   0  0  0  0  0  0  0  0  0  0  0  0
   61.1990   27.3279   45.9285 H   0  0  0  0  0  0  0  0  0  0  0  0
   60.7364   28.5301   44.6685 H   0  0  0  0  0  0  0  0  0  0  0  0
   61.2310   30.0950   46.3230 H   0  0  0  0  0  0  0  0  0  0  0  0
   61.6439   30.2636   49.0839 H   0  0  0  0  0  0  0  0  0  0  0  0
   59.0548   29.3029   50.2199 H   0  0  0  0  0  0  0  0  0  0  0  0
   60.5494   29.7231   51.0851 H   0  0  0  0  0  0  0  0  0  0  0  0
   58.1585   31.2990   50.9804 H   0  0  0  0  0  0  0  0  0  0  0  0
   59.6990   31.8751   51.5858 H   0  0  0  0  0  0  0  0  0  0  0  0
   61.2049   33.0949   47.5560 H   0  0  0  0  0  0  0  0  0  0  0  0
   61.2357   31.5064   46.7051 H   0  0  0  0  0  0  0  0  0  0  0  0
   60.1192   34.7425   46.3327 H   0  0  0  0  0  0  0  0  0  0  0  0
   58.2840   35.4690   44.8098 H   0  0  0  0  0  0  0  0  0  0  0  0
   56.6151   33.8149   43.9758 H   0  0  0  0  0  0  0  0  0  0  0  0
   56.6728   29.4849   43.3802 H   0  0  0  0  0  0  0  0  0  0  0  0
   55.7175   30.8644   42.7392 H   0  0  0  0  0  0  0  0  0  0  0  0
   57.5122   30.9379   42.7392 H   0  0  0  0  0  0  0  0  0  0  0  0
   58.6213   30.6820   46.1923 H   0  0  0  0  0  0  0  0  0  0  0  0
   58.2641   29.4795   44.8684 H   0  0  0  0  0  0  0  0  0  0  0  0
   55.9071   28.6793   45.0034 H   0  0  0  0  0  0  0  0  0  0  0  0
  1  2  1  0
  2  3  1  0
  3  4  2  0
  4  5  1  0
  5  6  2  0
  6  7  1  0
  7  8  1  0
  8  9  1  0
  9 10  2  0
  9 11  1  0
 11 12  1  0
 12 13  1  0
 13 14  1  0
 14 15  2  0
 14 16  1  0
 16 17  1  0
 17 18  1  0
 18 19  2  0
 19 20  1  0
 20 21  2  0
 21 22  1  0
 22 23  1  0
 23 24  1  0
 22 25  2  0
  6 26  1  0
 26 27  2  0
 27  3  1  0
 16 11  1  0
 25 18  1  0
  1 28  1  0
  1 29  1  0
  1 30  1  0
  4 31  1  0
  5 32  1  0
  7 33  1  0
  7 34  1  0
  8 35  1  0
 11 36  1  1
 12 37  1  0
 12 38  1  0
 13 39  1  0
 13 40  1  0
 17 41  1  0
 17 42  1  0
 19 43  1  0
 20 44  1  0
 21 45  1  0
 24 46  1  0
 24 47  1  0
 24 48  1  0
 25 49  1  0
 26 50  1  0
 27 51  1  0
M  END
>  <UniqueID>  (58) 
57

>  <SMILES>  (58) 
COc1ccc(CNC(=O)[C@@H]2CCC(=O)N2Cc2cccc(OC)c2)cc1

>  <Energy>  (58) 
51.384108087634104

>  <Genealogy>  (58) 
COc1ccc(CNC(=O)[C@@H]2CCC(=O)N2Cc2cccc(OC)c2)cc1 (chirality)
COc1ccc(CNC(=O)[C@@H]2CCC(=O)N2Cc2cccc(OC)c2)cc1 (3D coordinates assigned)
COc1ccc(CNC(=O)[C@@H]2CCC(=O)N2Cc2cccc(OC)c2)cc1 (nonaromatic ring conformer: 51.384108087634104 kcal/mol)

>  <smiles>  (58) 
COc1ccc(CNC(=O)C2CCC(=O)N2Cc2cccc(OC)c2)cc1

>  <score_type>  (58) 
oracle

>  <origin>  (58) 
adg

>  <m_score__min__energy>  (58) 
-8.3499999999999996

>  <m_primary>  (58) 
energy

$$$$
58:0
     RDKit          3D

 72 76  0  0  0  0  0  0  0  0999 V2000
   56.6338   32.3337   43.3638 H   0  0  0  0  0  0  0  0  0  0  0  0
   57.1330   32.0400   44.2990 C   0  0  0  0  0  0  0  0  0  0  0  0
   57.5380   33.0290   45.2050 C   0  0  0  0  0  0  0  0  0  0  0  0
   57.2650   34.4750   44.9130 C   0  0  0  0  0  0  0  0  0  0  0  0
   57.1608   35.0268   45.8589 H   0  0  0  0  0  0  0  0  0  0  0  0
   58.0996   34.8959   44.3330 H   0  0  0  0  0  0  0  0  0  0  0  0
   56.3344   34.5626   44.3330 H   0  0  0  0  0  0  0  0  0  0  0  0
   58.1380   32.6560   46.4140 C   0  0  0  0  0  0  0  0  0  0  0  0
   58.4308   33.4284   47.1404 H   0  0  0  0  0  0  0  0  0  0  0  0
   58.3670   31.3080   46.7030 C   0  0  0  0  0  0  0  0  0  0  0  0
   58.9640   30.9680   47.8760 N   0  0  0  0  0  0  0  0  0  0  0  0
   59.2240   29.6760   48.2160 C   0  0  0  0  0  0  0  0  0  0  0  0
   59.7960   29.3940   49.3510 N   0  0  0  0  0  0  0  0  0  0  0  0
   61.1280   28.8060   49.5030 C   0  0  0  0  0  0  0  0  0  0  0  0
   61.1928   27.9018   48.8799 H   0  0  0  0  0  0  0  0  0  0  0  0
   61.8726   29.5522   49.1888 H   0  0  0  0  0  0  0  0  0  0  0  0
   61.4130   28.4260   50.9670 C   0  0  0  0  0  0  0  0  0  0  0  0
   62.4241   27.9975   51.0303 H   0  0  0  0  0  0  0  0  0  0  0  0
   61.3234   29.3390   51.5740 H   0  0  0  0  0  0  0  0  0  0  0  0
   60.4080   27.4010   51.5120 C   0  0  0  0  0  0  0  0  0  0  0  0
   59.4888   27.4335   50.9086 H   0  0  0  0  0  0  0  0  0  0  0  0
   60.8489   26.3946   51.4592 H   0  0  0  0  0  0  0  0  0  0  0  0
   60.0880   27.7170   52.9020 N   0  0  0  0  0  0  0  0  0  0  0  0
   58.7960   28.0850   53.4020 C   0  0  0  0  0  0  0  0  0  0  0  0
   58.2400   27.3230   54.2350 O   0  0  0  0  0  0  0  0  0  0  0  0
   58.1650   29.4110   53.0440 C   0  0  0  0  0  0  0  0  0  0  0  0
   57.1807   29.2178   52.5926 H   0  0  0  0  0  0  0  0  0  0  0  0
   58.0899   29.9954   53.9729 H   0  0  0  0  0  0  0  0  0  0  0  0
   58.9720   30.2110   52.0880 N   0  0  0  0  0  0  0  0  0  0  0  0
   59.4870   29.5430   51.4630 H   0  0  0  0  0  0  0  0  0  0  0  0
   59.9790   31.0480   52.8000 C   0  0  0  0  0  0  0  0  0  0  0  0
   59.5800   31.3190   53.7886 H   0  0  0  0  0  0  0  0  0  0  0  0
   60.9047   30.4608   52.8910 H   0  0  0  0  0  0  0  0  0  0  0  0
   60.3080   32.3330   52.0300 C   0  0  0  0  0  0  0  0  0  0  0  0
   61.0916   32.8848   52.5699 H   0  0  0  0  0  0  0  0  0  0  0  0
   60.6533   32.0580   51.0225 H   0  0  0  0  0  0  0  0  0  0  0  0
   59.1110   33.1970   51.8980 N   0  0  0  0  0  0  0  0  0  0  0  0
   59.3010   34.1800   50.8120 C   0  0  0  0  0  0  0  0  0  0  0  0
   58.3584   34.2927   50.2563 H   0  0  0  0  0  0  0  0  0  0  0  0
   59.5988   35.1435   51.2514 H   0  0  0  0  0  0  0  0  0  0  0  0
   60.3770   33.7210   49.8720 C   0  0  0  0  0  0  0  0  0  0  0  0
   61.4190   34.5130   49.3980 C   0  0  0  0  0  0  0  0  0  0  0  0
   61.6127   35.5723   49.6225 H   0  0  0  0  0  0  0  0  0  0  0  0
   62.1540   33.6780   48.5860 C   0  0  0  0  0  0  0  0  0  0  0  0
   63.3150   33.9170   47.8530 C   0  0  0  0  0  0  0  0  0  0  0  0
   63.7933   34.9076   47.8527 H   0  0  0  0  0  0  0  0  0  0  0  0
   63.8550   32.8480   47.1130 C   0  0  0  0  0  0  0  0  0  0  0  0
   64.7709   32.9996   46.5230 H   0  0  0  0  0  0  0  0  0  0  0  0
   63.2290   31.5830   47.1230 C   0  0  0  0  0  0  0  0  0  0  0  0
   63.6597   30.7563   46.5390 H   0  0  0  0  0  0  0  0  0  0  0  0
   62.0570   31.3710   47.8750 C   0  0  0  0  0  0  0  0  0  0  0  0
   61.5619   30.3889   47.8921 H   0  0  0  0  0  0  0  0  0  0  0  0
   61.5460   32.4490   48.5970 C   0  0  0  0  0  0  0  0  0  0  0  0
   60.4530   32.4630   49.3780 N   0  0  0  0  0  0  0  0  0  0  0  0
   59.8040   31.6680   49.5730 H   0  0  0  0  0  0  0  0  0  0  0  0
   57.8460   32.4290   51.7440 C   0  0  0  0  0  0  0  0  0  0  0  0
   57.3570   32.3527   52.7264 H   0  0  0  0  0  0  0  0  0  0  0  0
   57.2139   32.9645   51.0203 H   0  0  0  0  0  0  0  0  0  0  0  0
   58.0850   31.0120   51.2000 C   0  0  0  0  0  0  0  0  0  0  0  0
   57.1162   30.4987   51.1107 H   0  0  0  0  0  0  0  0  0  0  0  0
   58.5805   31.1047   50.2223 H   0  0  0  0  0  0  0  0  0  0  0  0
   58.8590   28.6430   47.3360 C   0  0  0  0  0  0  0  0  0  0  0  0
   59.0950   27.2580   47.6680 C   0  0  0  0  0  0  0  0  0  0  0  0
   59.2870   26.1480   47.9340 N   0  0  0  0  0  0  0  0  0  0  0  0
   58.2350   28.9620   46.1250 C   0  0  0  0  0  0  0  0  0  0  0  0
   57.9415   28.1584   45.4336 H   0  0  0  0  0  0  0  0  0  0  0  0
   57.9800   30.3050   45.7850 C   0  0  0  0  0  0  0  0  0  0  0  0
   57.3550   30.6780   44.5670 C   0  0  0  0  0  0  0  0  0  0  0  0
   56.9050   29.6530   43.5580 C   0  0  0  0  0  0  0  0  0  0  0  0
   56.5164   28.7678   44.0829 H   0  0  0  0  0  0  0  0  0  0  0  0
   56.1127   30.0826   42.9273 H   0  0  0  0  0  0  0  0  0  0  0  0
   57.7575   29.3605   42.9273 H   0  0  0  0  0  0  0  0  0  0  0  0
  1  2  1  0
  2  3  2  0
  3  4  1  0
  4  5  1  0
  4  6  1  0
  4  7  1  0
  3  8  1  0
  8  9  1  0
  8 10  2  0
 10 11  1  0
 11 12  1  0
 12 13  2  0
 13 14  1  0
 14 15  1  0
 14 16  1  0
 14 17  1  0
 17 18  1  0
 17 19  1  0
 17 20  1  0
 20 21  1  0
 20 22  1  0
 20 23  1  0
 23 24  1  0
 24 25  2  0
 24 26  1  0
 26 27  1  0
 26 28  1  0
 26 29  1  0
 29 30  1  0
 29 31  1  0
 31 32  1  0
 31 33  1  0
 31 34  1  0
 34 35  1  0
 34 36  1  0
 34 37  1  0
 37 38  1  0
 38 39  1  0
 38 40  1  0
 38 41  1  0
 41 42  2  0
 42 43  1  0
 42 44  1  0
 44 45  2  0
 45 46  1  0
 45 47  1  0
 47 48  1  0
 47 49  2  0
 49 50  1  0
 49 51  1  0
 51 52  1  0
 51 53  2  0
 53 54  1  0
 54 55  1  0
 37 56  1  0
 56 57  1  0
 56 58  1  0
 56 59  1  0
 59 60  1  0
 59 61  1  0
 12 62  1  0
 62 63  1  0
 63 64  3  0
 62 65  2  0
 65 66  1  0
 65 67  1  0
 67 68  2  0
 68 69  1  0
 69 70  1  0
 69 71  1  0
 69 72  1  0
 68  2  1  0
 67 10  1  0
 59 29  1  0
 54 41  1  0
 53 44  1  0
M  CHG  3  11  -1  23  -1  29   1
M  END
>  <UniqueID>  (59) 
58

>  <SMILES>  (59) 
Cc1cc(C)c2cc(C#N)/c(=N/CCC[N-]C(=O)C[NH+]3CCN(Cc4cc5ccccc5[nH]4)CC3)[n-]c2c1

>  <Energy>  (59) 
123.04612171355791

>  <Genealogy>  (59) 
Cc1cc(C)c2cc(C#N)c(=NCCC[N-]C(=O)C[NH+]3CCN(Cc4cc5ccccc5[nH]4)CC3)[n-]c2c1 (protonated)
Cc1cc(C)c2cc(C#N)/c(=N/CCC[N-]C(=O)C[NH+]3CCN(Cc4cc5ccccc5[nH]4)CC3)[n-]c2c1 (cis-trans isomerization)
Cc1cc(C)c2cc(C#N)/c(=N/CCC[N-]C(=O)C[NH+]3CCN(Cc4cc5ccccc5[nH]4)CC3)[n-]c2c1 (3D coordinates assigned)
Cc1cc(C)c2cc(C#N)/c(=N/CCC[N-]C(=O)C[NH+]3CCN(Cc4cc5ccccc5[nH]4)CC3)[n-]c2c1 (nonaromatic ring conformer: 123.04612171355791 kcal/mol)

>  <smiles>  (59) 
Cc1cc(C)c2cc(C#N)c(=NCCCNC(=O)CN3CCN(Cc4cc5ccccc5[nH]4)CC3)[nH]c2c1

>  <score_type>  (59) 
oracle

>  <origin>  (59) 
adg

>  <m_score__min__energy>  (59) 
-10.32

>  <m_primary>  (59) 
energy

$$$$
59:0
     RDKit          3D

 60 63  0  0  0  0  0  0  0  0999 V2000
   61.4305   33.8433   49.9229 H   0  0  0  0  0  0  0  0  0  0  0  0
   61.0950   33.8800   48.8760 C   0  0  0  0  0  0  0  0  0  0  0  0
   59.8340   34.2420   48.5240 N   0  0  0  0  0  0  0  0  0  0  0  0
   59.6580   34.2250   47.1820 C   0  0  0  0  0  0  0  0  0  0  0  0
   58.3550   34.5040   46.5140 C   0  0  0  0  0  0  0  0  0  0  0  0
   57.6256   33.7311   46.7981 H   0  0  0  0  0  0  0  0  0  0  0  0
   57.9882   35.4919   46.8294 H   0  0  0  0  0  0  0  0  0  0  0  0
   58.5770   34.4920   44.7030 S   0  0  0  0  0  0  0  0  0  0  0  0
   57.8480   32.8680   44.4720 C   0  0  0  0  0  0  0  0  0  0  0  0
   58.3240   31.7430   43.3170 S   0  0  0  0  0  0  0  0  0  0  0  0
   57.1790   30.6100   43.8370 C   0  0  0  0  0  0  0  0  0  0  0  0
   56.9900   29.4200   43.3490 N   0  0  0  0  0  0  0  0  0  0  0  0
   57.7560   28.2280   43.6060 C   0  0  0  0  0  0  0  0  0  0  0  0
   57.9010   27.3500   42.7160 O   0  0  0  0  0  0  0  0  0  0  0  0
   58.4030   28.0490   44.9250 C   0  0  0  0  0  0  0  0  0  0  0  0
   58.2700   26.8330   45.6230 C   0  0  0  0  0  0  0  0  0  0  0  0
   57.7018   26.0039   45.1760 H   0  0  0  0  0  0  0  0  0  0  0  0
   58.8560   26.6760   46.8790 C   0  0  0  0  0  0  0  0  0  0  0  0
   58.7471   25.7233   47.4180 H   0  0  0  0  0  0  0  0  0  0  0  0
   59.5800   27.7210   47.4560 C   0  0  0  0  0  0  0  0  0  0  0  0
   60.0237   27.5924   48.4543 H   0  0  0  0  0  0  0  0  0  0  0  0
   59.7460   28.9390   46.7680 C   0  0  0  0  0  0  0  0  0  0  0  0
   60.4510   30.0940   47.4330 C   0  0  0  0  0  0  0  0  0  0  0  0
   60.8640   29.7550   48.7090 F   0  0  0  0  0  0  0  0  0  0  0  0
   61.5540   30.4400   46.6780 F   0  0  0  0  0  0  0  0  0  0  0  0
   59.6080   31.1890   47.5260 F   0  0  0  0  0  0  0  0  0  0  0  0
   59.1380   29.0990   45.5100 C   0  0  0  0  0  0  0  0  0  0  0  0
   59.2375   30.0557   44.9762 H   0  0  0  0  0  0  0  0  0  0  0  0
   56.4400   31.0780   44.8650 N   0  0  0  0  0  0  0  0  0  0  0  0
   56.8120   32.3360   45.2230 C   0  0  0  0  0  0  0  0  0  0  0  0
   56.3291   32.8873   46.0433 H   0  0  0  0  0  0  0  0  0  0  0  0
   61.0600   33.7520   46.3810 S   0  0  0  0  0  0  0  0  0  0  0  0
   61.9300   33.5590   47.8090 C   0  0  0  0  0  0  0  0  0  0  0  0
   63.3500   33.1690   47.8890 C   0  0  0  0  0  0  0  0  0  0  0  0
   64.1140   33.4650   46.9280 O   0  0  0  0  0  0  0  0  0  0  0  0
   63.8820   32.4780   49.0350 N   0  0  0  0  0  0  0  0  0  0  0  0
   65.2610   32.7520   49.4480 C   0  0  0  0  0  0  0  0  0  0  0  0
   65.3549   33.8212   49.6888 H   0  0  0  0  0  0  0  0  0  0  0  0
   65.9282   32.4737   48.6189 H   0  0  0  0  0  0  0  0  0  0  0  0
   65.6610   31.9280   50.6800 C   0  0  0  0  0  0  0  0  0  0  0  0
   66.5830   32.3467   51.1098 H   0  0  0  0  0  0  0  0  0  0  0  0
   65.8219   30.8852   50.3690 H   0  0  0  0  0  0  0  0  0  0  0  0
   64.5390   31.9590   51.7540 C   0  0  0  0  0  0  0  0  0  0  0  0
   64.3945   33.0105   52.0428 H   0  0  0  0  0  0  0  0  0  0  0  0
   64.9100   31.2310   53.0100 N   0  0  0  0  0  0  0  0  0  0  0  0
   65.6610   31.7660   53.5080 H   0  0  0  0  0  0  0  0  0  0  0  0
   65.4360   29.8830   52.7050 C   0  0  0  0  0  0  0  0  0  0  0  0
   65.6442   29.3495   53.6442 H   0  0  0  0  0  0  0  0  0  0  0  0
   64.6908   29.3219   52.1220 H   0  0  0  0  0  0  0  0  0  0  0  0
   66.3642   29.9749   52.1220 H   0  0  0  0  0  0  0  0  0  0  0  0
   63.7710   31.0830   53.9410 C   0  0  0  0  0  0  0  0  0  0  0  0
   64.1361   31.1304   54.9775 H   0  0  0  0  0  0  0  0  0  0  0  0
   63.0490   31.8949   53.7691 H   0  0  0  0  0  0  0  0  0  0  0  0
   63.2805   30.1136   53.7691 H   0  0  0  0  0  0  0  0  0  0  0  0
   63.2070   31.3990   51.1530 C   0  0  0  0  0  0  0  0  0  0  0  0
   62.3817   32.0438   51.4893 H   0  0  0  0  0  0  0  0  0  0  0  0
   63.1181   30.3616   51.5079 H   0  0  0  0  0  0  0  0  0  0  0  0
   63.1710   31.3370   49.6190 C   0  0  0  0  0  0  0  0  0  0  0  0
   62.1241   31.3536   49.2819 H   0  0  0  0  0  0  0  0  0  0  0  0
   63.6640   30.4096   49.2920 H   0  0  0  0  0  0  0  0  0  0  0  0
  1  2  1  0
  2  3  1  0
  3  4  2  0
  4  5  1  0
  5  6  1  0
  5  7  1  0
  5  8  1  0
  8  9  1  0
  9 10  1  0
 10 11  1  0
 11 12  2  0
 12 13  1  0
 13 14  2  0
 13 15  1  0
 15 16  2  0
 16 17  1  0
 16 18  1  0
 18 19  1  0
 18 20  2  0
 20 21  1  0
 20 22  1  0
 22 23  1  0
 23 24  1  0
 23 25  1  0
 23 26  1  0
 22 27  2  0
 27 28  1  0
 11 29  1  0
 29 30  1  0
 30 31  1  0
  4 32  1  0
 32 33  1  0
 33 34  1  0
 34 35  2  0
 34 36  1  0
 36 37  1  0
 37 38  1  0
 37 39  1  0
 37 40  1  0
 40 41  1  0
 40 42  1  0
 40 43  1  0
 43 44  1  0
 43 45  1  0
 45 46  1  0
 45 47  1  0
 47 48  1  0
 47 49  1  0
 47 50  1  0
 45 51  1  0
 51 52  1  0
 51 53  1  0
 51 54  1  0
 43 55  1  0
 55 56  1  0
 55 57  1  0
 55 58  1  0
 58 59  1  0
 58 60  1  0
 33  2  2  0
 58 36  1  0
 30  9  2  0
 27 15  1  0
M  CHG  2  29  -1  45   1
M  END
>  <UniqueID>  (60) 
59

>  <SMILES>  (60) 
C[NH+](C)C1CCN(C(=O)c2cnc(CSc3c[n-]/c(=N/C(=O)c4cccc(C(F)(F)F)c4)s3)s2)CC1

>  <Energy>  (60) 
135.33609899395924

>  <Genealogy>  (60) 
C[NH+](C)C1CCN(C(=O)c2cnc(CSc3c[n-]c(=NC(=O)c4cccc(C(F)(F)F)c4)s3)s2)CC1 (protonated)
C[NH+](C)C1CCN(C(=O)c2cnc(CSc3c[n-]/c(=N/C(=O)c4cccc(C(F)(F)F)c4)s3)s2)CC1 (cis-trans isomerization)
C[NH+](C)C1CCN(C(=O)c2cnc(CSc3c[n-]/c(=N/C(=O)c4cccc(C(F)(F)F)c4)s3)s2)CC1 (3D coordinates assigned)
C[NH+](C)C1CCN(C(=O)c2cnc(CSc3c[n-]/c(=N/C(=O)c4cccc(C(F)(F)F)c4)s3)s2)CC1 (nonaromatic ring conformer: 135.33609899395924 kcal/mol)

>  <smiles>  (60) 
CN(C)C1CCN(C(=O)c2cnc(CSc3c[nH]c(=NC(=O)c4cccc(C(F)(F)F)c4)s3)s2)CC1

>  <score_type>  (60) 
oracle

>  <origin>  (60) 
adg

>  <m_score__min__energy>  (60) 
-10.5

>  <m_primary>  (60) 
energy

$$$$
60:0
     RDKit          3D

 51 53  0  0  0  0  0  0  0  0999 V2000
   57.3950   21.1020   42.6650 C   0  0  0  0  0  0  0  0  0  0  0  0
   57.0260   21.8920   43.8790 C   0  0  0  0  0  0  0  0  0  0  0  0
   55.7660   22.2280   44.2000 N   0  0  0  0  0  0  0  0  0  0  0  0
   55.9070   22.9380   45.3410 C   0  0  0  0  0  0  0  0  0  0  0  0
   54.7440   23.5090   46.0920 C   0  0  0  0  0  0  0  0  0  0  0  0
   54.1090   24.6750   45.3330 C   0  0  0  0  0  0  0  0  0  0  0  0
   54.4600   25.9400   45.9670 N   0  0  0  0  0  0  0  0  0  0  0  0
   55.8000   26.3480   46.2620 C   0  0  0  0  0  0  0  0  0  0  0  0
   56.4600   25.6950   47.1130 O   0  0  0  0  0  0  0  0  0  0  0  0
   56.3930   27.4830   45.6100 N   0  0  0  0  0  0  0  0  0  0  0  0
   57.6960   28.0130   46.0000 C   0  0  0  0  0  0  0  0  0  0  0  0
   57.8460   29.4210   45.5170 C   0  0  0  0  0  0  0  0  0  0  0  0
   57.6770   29.8470   44.2030 C   0  0  0  0  0  0  0  0  0  0  0  0
   57.8220   31.2300   44.0510 C   0  0  0  0  0  0  0  0  0  0  0  0
   58.0980   31.8800   45.2450 C   0  0  0  0  0  0  0  0  0  0  0  0
   58.3400   33.6070   45.4290 S   0  0  0  0  0  0  0  0  0  0  0  0
   58.8340   34.1690   44.1260 O   0  0  0  0  0  0  0  0  0  0  0  0
   57.0300   34.2590   45.7810 O   0  0  0  0  0  0  0  0  0  0  0  0
   59.5110   33.9050   46.6910 N   0  0  0  0  0  0  0  0  0  0  0  0
   60.6880   33.0430   46.4940 C   0  0  0  0  0  0  0  0  0  0  0  0
   61.6670   33.1860   47.6790 C   0  0  0  0  0  0  0  0  0  0  0  0
   61.2220   34.1540   48.6100 O   0  0  0  0  0  0  0  0  0  0  0  0
   59.9600   33.7770   49.1230 C   0  0  0  0  0  0  0  0  0  0  0  0
   58.9060   33.6360   48.0050 C   0  0  0  0  0  0  0  0  0  0  0  0
   58.1620   30.7560   46.4920 S   0  0  0  0  0  0  0  0  0  0  0  0
   57.1860   23.0590   45.7610 N   0  0  0  0  0  0  0  0  0  0  0  0
   57.8880   22.3840   44.8340 C   0  0  0  0  0  0  0  0  0  0  0  0
   59.3790   22.2800   44.8320 C   0  0  0  0  0  0  0  0  0  0  0  0
   57.8420   20.1450   42.9722 H   0  0  0  0  0  0  0  0  0  0  0  0
   56.4935   20.9097   42.0647 H   0  0  0  0  0  0  0  0  0  0  0  0
   58.1210   21.6699   42.0647 H   0  0  0  0  0  0  0  0  0  0  0  0
   53.9892   22.7218   46.2356 H   0  0  0  0  0  0  0  0  0  0  0  0
   55.1068   23.8827   47.0609 H   0  0  0  0  0  0  0  0  0  0  0  0
   54.4744   24.6750   44.2955 H   0  0  0  0  0  0  0  0  0  0  0  0
   53.0153   24.5585   45.3463 H   0  0  0  0  0  0  0  0  0  0  0  0
   55.8880   27.9560   44.8280 H   0  0  0  0  0  0  0  0  0  0  0  0
   57.7829   27.9937   47.0964 H   0  0  0  0  0  0  0  0  0  0  0  0
   58.4853   27.3929   45.5500 H   0  0  0  0  0  0  0  0  0  0  0  0
   57.4523   29.1658   43.3691 H   0  0  0  0  0  0  0  0  0  0  0  0
   57.7271   31.7481   43.0853 H   0  0  0  0  0  0  0  0  0  0  0  0
   60.3610   31.9954   46.4189 H   0  0  0  0  0  0  0  0  0  0  0  0
   61.2011   33.3471   45.5698 H   0  0  0  0  0  0  0  0  0  0  0  0
   61.7547   32.2150   48.1884 H   0  0  0  0  0  0  0  0  0  0  0  0
   62.6401   33.5121   47.2831 H   0  0  0  0  0  0  0  0  0  0  0  0
   60.0602   32.8121   49.6416 H   0  0  0  0  0  0  0  0  0  0  0  0
   59.6227   34.5639   49.8137 H   0  0  0  0  0  0  0  0  0  0  0  0
   58.5019   32.6130   48.0151 H   0  0  0  0  0  0  0  0  0  0  0  0
   58.0999   34.3633   48.1816 H   0  0  0  0  0  0  0  0  0  0  0  0
   59.7462   22.2544   45.8686 H   0  0  0  0  0  0  0  0  0  0  0  0
   59.6816   21.3586   44.3130 H   0  0  0  0  0  0  0  0  0  0  0  0
   59.8066   23.1505   44.3130 H   0  0  0  0  0  0  0  0  0  0  0  0
  1  2  1  0
  2  3  1  0
  3  4  2  0
  4  5  1  0
  5  6  1  0
  6  7  1  0
  7  8  1  0
  8  9  2  0
  8 10  1  0
 10 11  1  0
 11 12  1  0
 12 13  2  0
 13 14  1  0
 14 15  2  0
 15 16  1  0
 16 17  2  0
 16 18  2  0
 16 19  1  0
 19 20  1  0
 20 21  1  0
 21 22  1  0
 22 23  1  0
 23 24  1  0
 15 25  1  0
  4 26  1  0
 26 27  1  0
 27 28  1  0
 27  2  2  0
 25 12  1  0
 24 19  1  0
  1 29  1  0
  1 30  1  0
  1 31  1  0
  5 32  1  0
  5 33  1  0
  6 34  1  0
  6 35  1  0
 10 36  1  0
 11 37  1  0
 11 38  1  0
 13 39  1  0
 14 40  1  0
 20 41  1  0
 20 42  1  0
 21 43  1  0
 21 44  1  0
 23 45  1  0
 23 46  1  0
 24 47  1  0
 24 48  1  0
 28 49  1  0
 28 50  1  0
 28 51  1  0
M  CHG  2   7  -1  26  -1
M  END
>  <UniqueID>  (61) 
60

>  <SMILES>  (61) 
Cc1nc(CC[N-]C(=O)NCc2ccc(S(=O)(=O)N3CCOCC3)s2)[n-]c1C

>  <Energy>  (61) 
101.27143631902878

>  <Genealogy>  (61) 
Cc1nc(CC[N-]C(=O)NCc2ccc(S(=O)(=O)N3CCOCC3)s2)[n-]c1C (protonated)
Cc1nc(CC[N-]C(=O)NCc2ccc(S(=O)(=O)N3CCOCC3)s2)[n-]c1C (3D coordinates assigned)
Cc1nc(CC[N-]C(=O)NCc2ccc(S(=O)(=O)N3CCOCC3)s2)[n-]c1C (nonaromatic ring conformer: 101.27143631902878 kcal/mol)

>  <smiles>  (61) 
Cc1nc(CCNC(=O)NCc2ccc(S(=O)(=O)N3CCOCC3)s2)[nH]c1C

>  <score_type>  (61) 
oracle

>  <origin>  (61) 
adg

>  <m_score__min__energy>  (61) 
-12.279999999999999

>  <m_primary>  (61) 
energy

$$$$
61:0
     RDKit          3D

 73 77  0  0  0  0  0  0  0  0999 V2000
   55.0380   26.2180   45.9190 O   0  0  0  0  0  0  0  0  0  0  0  0
   56.2510   26.1820   46.2560 C   0  0  0  0  0  0  0  0  0  0  0  0
   56.8310   24.9170   46.6140 N   0  0  0  0  0  0  0  0  0  0  0  0
   57.9780   24.2810   45.9660 C   0  0  0  0  0  0  0  0  0  0  0  0
   57.5320   23.4300   44.8050 C   0  0  0  0  0  0  0  0  0  0  0  0
   56.4250   23.8050   44.0240 C   0  0  0  0  0  0  0  0  0  0  0  0
   55.9960   22.9880   42.9740 C   0  0  0  0  0  0  0  0  0  0  0  0
   56.6780   21.8040   42.6830 C   0  0  0  0  0  0  0  0  0  0  0  0
   57.7860   21.4290   43.4500 C   0  0  0  0  0  0  0  0  0  0  0  0
   58.2130   22.2370   44.5060 C   0  0  0  0  0  0  0  0  0  0  0  0
   57.0410   27.4300   46.2230 C   0  0  0  0  0  0  0  0  0  0  0  0
   56.7370   28.4500   45.3150 C   0  0  0  0  0  0  0  0  0  0  0  0
   57.4560   29.6490   45.3270 C   0  0  0  0  0  0  0  0  0  0  0  0
   58.5280   29.8490   46.2300 C   0  0  0  0  0  0  0  0  0  0  0  0
   59.2800   31.1060   46.2490 N   0  0  0  0  0  0  0  0  0  0  0  0
   60.6830   31.0830   46.7370 C   0  0  0  0  0  0  0  0  0  0  0  0
   61.3960   32.4390   46.7580 C   0  0  0  0  0  0  0  0  0  0  0  0
   60.4310   33.5170   46.9480 N   0  0  0  0  0  0  0  0  0  0  0  0
   60.2000   34.1670   48.2220 C   0  0  0  0  0  0  0  0  0  0  0  0
   59.2920   35.0370   48.3280 O   0  0  0  0  0  0  0  0  0  0  0  0
   61.0300   33.8800   49.4060 C   0  0  0  0  0  0  0  0  0  0  0  0
   62.4240   33.9560   49.2570 C   0  0  0  0  0  0  0  0  0  0  0  0
   63.2690   33.7790   50.3530 C   0  0  0  0  0  0  0  0  0  0  0  0
   62.7300   33.5480   51.6190 C   0  0  0  0  0  0  0  0  0  0  0  0
   61.3460   33.4890   51.7890 C   0  0  0  0  0  0  0  0  0  0  0  0
   60.4770   33.6400   50.6970 C   0  0  0  0  0  0  0  0  0  0  0  0
   59.1000   33.5390   50.9750 O   0  0  0  0  0  0  0  0  0  0  0  0
   58.3640   32.3300   51.1520 C   0  0  0  0  0  0  0  0  0  0  0  0
   58.8870   31.2840   50.2080 C   0  0  0  0  0  0  0  0  0  0  0  0
   58.5420   31.3490   48.9960 O   0  0  0  0  0  0  0  0  0  0  0  0
   59.7420   30.2060   50.6580 N   0  0  0  0  0  0  0  0  0  0  0  0
   60.1640   30.1140   52.0650 C   0  0  0  0  0  0  0  0  0  0  0  0
   60.5650   28.6770   52.4180 C   0  0  0  0  0  0  0  0  0  0  0  0
   61.4870   28.1670   51.4780 O   0  0  0  0  0  0  0  0  0  0  0  0
   60.8580   28.0500   50.2170 C   0  0  0  0  0  0  0  0  0  0  0  0
   60.5000   29.4320   49.6620 C   0  0  0  0  0  0  0  0  0  0  0  0
   59.4530   33.6080   45.8740 C   0  0  0  0  0  0  0  0  0  0  0  0
   58.5690   32.3630   45.8960 C   0  0  0  0  0  0  0  0  0  0  0  0
   58.8540   28.7820   47.1040 C   0  0  0  0  0  0  0  0  0  0  0  0
   58.1200   27.5920   47.0960 C   0  0  0  0  0  0  0  0  0  0  0  0
   58.6632   25.0598   45.6001 H   0  0  0  0  0  0  0  0  0  0  0  0
   58.4862   23.6382   46.6999 H   0  0  0  0  0  0  0  0  0  0  0  0
   55.8947   24.7443   44.2398 H   0  0  0  0  0  0  0  0  0  0  0  0
   55.1197   23.2779   42.3757 H   0  0  0  0  0  0  0  0  0  0  0  0
   56.3438   21.1668   41.8510 H   0  0  0  0  0  0  0  0  0  0  0  0
   58.3219   20.4961   43.2210 H   0  0  0  0  0  0  0  0  0  0  0  0
   59.0854   21.9389   45.1060 H   0  0  0  0  0  0  0  0  0  0  0  0
   55.9258   28.3075   44.5858 H   0  0  0  0  0  0  0  0  0  0  0  0
   57.1845   30.4499   44.6235 H   0  0  0  0  0  0  0  0  0  0  0  0
   60.6785   30.6865   47.7630 H   0  0  0  0  0  0  0  0  0  0  0  0
   61.2410   30.4592   46.0232 H   0  0  0  0  0  0  0  0  0  0  0  0
   62.1232   32.4536   47.5832 H   0  0  0  0  0  0  0  0  0  0  0  0
   61.9118   32.5864   45.7977 H   0  0  0  0  0  0  0  0  0  0  0  0
   62.8548   34.1573   48.2651 H   0  0  0  0  0  0  0  0  0  0  0  0
   64.3600   33.8216   50.2190 H   0  0  0  0  0  0  0  0  0  0  0  0
   63.3963   33.4123   52.4837 H   0  0  0  0  0  0  0  0  0  0  0  0
   60.9300   33.3217   52.7935 H   0  0  0  0  0  0  0  0  0  0  0  0
   58.4784   31.9792   52.1883 H   0  0  0  0  0  0  0  0  0  0  0  0
   57.2998   32.5140   50.9432 H   0  0  0  0  0  0  0  0  0  0  0  0
   61.0246   30.7794   52.2280 H   0  0  0  0  0  0  0  0  0  0  0  0
   59.3225   30.4140   52.7068 H   0  0  0  0  0  0  0  0  0  0  0  0
   61.0256   28.6664   53.4169 H   0  0  0  0  0  0  0  0  0  0  0  0
   59.6636   28.0467   52.4046 H   0  0  0  0  0  0  0  0  0  0  0  0
   61.5412   27.5457   49.5178 H   0  0  0  0  0  0  0  0  0  0  0  0
   59.9338   27.4653   50.3349 H   0  0  0  0  0  0  0  0  0  0  0  0
   61.4248   29.9721   49.4110 H   0  0  0  0  0  0  0  0  0  0  0  0
   59.8796   29.3048   48.7626 H   0  0  0  0  0  0  0  0  0  0  0  0
   58.8310   34.5039   46.0172 H   0  0  0  0  0  0  0  0  0  0  0  0
   59.9710   33.6775   44.9061 H   0  0  0  0  0  0  0  0  0  0  0  0
   57.7687   32.5233   46.6334 H   0  0  0  0  0  0  0  0  0  0  0  0
   58.1911   32.2305   44.8715 H   0  0  0  0  0  0  0  0  0  0  0  0
   59.6985   28.8919   47.8002 H   0  0  0  0  0  0  0  0  0  0  0  0
   58.3940   26.7771   47.7822 H   0  0  0  0  0  0  0  0  0  0  0  0
  1  2  2  0
  2  3  1  0
  3  4  1  0
  4  5  1  0
  5  6  2  0
  6  7  1  0
  7  8  2  0
  8  9  1  0
  9 10  2  0
  2 11  1  0
 11 12  2  0
 12 13  1  0
 13 14  2  0
 14 15  1  0
 15 16  1  0
 16 17  1  0
 17 18  1  0
 18 19  1  0
 19 20  2  0
 19 21  1  0
 21 22  2  0
 22 23  1  0
 23 24  2  0
 24 25  1  0
 25 26  2  0
 26 27  1  0
 27 28  1  0
 28 29  1  0
 29 30  2  0
 29 31  1  0
 31 32  1  0
 32 33  1  0
 33 34  1  0
 34 35  1  0
 35 36  1  0
 18 37  1  0
 37 38  1  0
 14 39  1  0
 39 40  2  0
 10  5  1  0
 40 11  1  0
 38 15  1  0
 26 21  1  0
 36 31  1  0
  4 41  1  0
  4 42  1  0
  6 43  1  0
  7 44  1  0
  8 45  1  0
  9 46  1  0
 10 47  1  0
 12 48  1  0
 13 49  1  0
 16 50  1  0
 16 51  1  0
 17 52  1  0
 17 53  1  0
 22 54  1  0
 23 55  1  0
 24 56  1  0
 25 57  1  0
 28 58  1  0
 28 59  1  0
 32 60  1  0
 32 61  1  0
 33 62  1  0
 33 63  1  0
 35 64  1  0
 35 65  1  0
 36 66  1  0
 36 67  1  0
 37 68  1  0
 37 69  1  0
 38 70  1  0
 38 71  1  0
 39 72  1  0
 40 73  1  0
M  CHG  1   3  -1
M  END
>  <UniqueID>  (62) 
61

>  <SMILES>  (62) 
O=C([N-]Cc1ccccc1)c1ccc(N2CCN(C(=O)c3ccccc3OCC(=O)N3CCOCC3)CC2)cc1

>  <Energy>  (62) 
97.35756402193404

>  <Genealogy>  (62) 
O=C([N-]Cc1ccccc1)c1ccc(N2CCN(C(=O)c3ccccc3OCC(=O)N3CCOCC3)CC2)cc1 (protonated)
O=C([N-]Cc1ccccc1)c1ccc(N2CCN(C(=O)c3ccccc3OCC(=O)N3CCOCC3)CC2)cc1 (3D coordinates assigned)
O=C([N-]Cc1ccccc1)c1ccc(N2CCN(C(=O)c3ccccc3OCC(=O)N3CCOCC3)CC2)cc1 (nonaromatic ring conformer: 97.35756402193404 kcal/mol)

>  <smiles>  (62) 
O=C(NCc1ccccc1)c1ccc(N2CCN(C(=O)c3ccccc3OCC(=O)N3CCOCC3)CC2)cc1

>  <score_type>  (62) 
oracle

>  <origin>  (62) 
adg

>  <m_score__min__energy>  (62) 
-11.18

>  <m_primary>  (62) 
energy

$$$$
62:0
     RDKit          3D

 41 44  0  0  0  0  0  0  0  0999 V2000
   57.9541   22.4743   45.6036 H   0  0  0  0  0  0  0  0  0  0  0  0
   57.3030   23.3530   45.7220 C   0  0  0  0  0  0  0  0  0  0  0  0
   57.8420   24.5600   46.0380 N   0  0  0  0  0  0  0  0  0  0  0  0
   57.0880   25.6830   46.2010 C   0  0  0  0  0  0  0  0  0  0  0  0
   57.7110   26.7870   46.5140 N   0  0  0  0  0  0  0  0  0  0  0  0
   58.5200   27.6380   45.6900 C   0  0  0  0  0  0  0  0  0  0  0  0
   59.7660   27.4570   45.6170 O   0  0  0  0  0  0  0  0  0  0  0  0
   57.8920   28.7010   44.8770 C   0  0  0  0  0  0  0  0  0  0  0  0
   57.3910   28.3450   43.6120 C   0  0  0  0  0  0  0  0  0  0  0  0
   57.4094   27.2915   43.2960 H   0  0  0  0  0  0  0  0  0  0  0  0
   56.8710   29.3140   42.7540 C   0  0  0  0  0  0  0  0  0  0  0  0
   56.4754   29.0213   41.7702 H   0  0  0  0  0  0  0  0  0  0  0  0
   56.8520   30.6510   43.1410 C   0  0  0  0  0  0  0  0  0  0  0  0
   56.4654   31.4164   42.4520 H   0  0  0  0  0  0  0  0  0  0  0  0
   57.3220   31.0220   44.4000 C   0  0  0  0  0  0  0  0  0  0  0  0
   57.3136   32.0825   44.6919 H   0  0  0  0  0  0  0  0  0  0  0  0
   57.8080   30.0550   45.3040 C   0  0  0  0  0  0  0  0  0  0  0  0
   58.2330   30.4960   46.6950 C   0  0  0  0  0  0  0  0  0  0  0  0
   57.3605   30.4471   47.3631 H   0  0  0  0  0  0  0  0  0  0  0  0
   59.0354   29.8222   47.0300 H   0  0  0  0  0  0  0  0  0  0  0  0
   58.7780   31.9050   46.7110 C   0  0  0  0  0  0  0  0  0  0  0  0
   57.9020   32.9300   46.5300 N   0  0  0  0  0  0  0  0  0  0  0  0
   58.2860   34.2050   46.5480 N   0  0  0  0  0  0  0  0  0  0  0  0
   59.5800   34.5580   46.7510 C   0  0  0  0  0  0  0  0  0  0  0  0
   59.8910   35.7790   46.7590 O   0  0  0  0  0  0  0  0  0  0  0  0
   60.5480   33.5610   46.9490 C   0  0  0  0  0  0  0  0  0  0  0  0
   61.9000   33.8840   47.1670 C   0  0  0  0  0  0  0  0  0  0  0  0
   62.2146   34.9379   47.1838 H   0  0  0  0  0  0  0  0  0  0  0  0
   62.8440   32.8750   47.3620 C   0  0  0  0  0  0  0  0  0  0  0  0
   63.8991   33.1356   47.5318 H   0  0  0  0  0  0  0  0  0  0  0  0
   62.4520   31.5370   47.3420 C   0  0  0  0  0  0  0  0  0  0  0  0
   63.1998   30.7454   47.4973 H   0  0  0  0  0  0  0  0  0  0  0  0
   61.1160   31.1970   47.1260 C   0  0  0  0  0  0  0  0  0  0  0  0
   60.8179   30.1383   47.1091 H   0  0  0  0  0  0  0  0  0  0  0  0
   60.1440   32.2020   46.9290 C   0  0  0  0  0  0  0  0  0  0  0  0
   55.6870   25.5980   45.9830 C   0  0  0  0  0  0  0  0  0  0  0  0
   54.8580   26.7130   46.0090 O   0  0  0  0  0  0  0  0  0  0  0  0
   55.1200   24.3580   45.6770 C   0  0  0  0  0  0  0  0  0  0  0  0
   54.0322   24.2728   45.5372 H   0  0  0  0  0  0  0  0  0  0  0  0
   55.9270   23.2280   45.5480 C   0  0  0  0  0  0  0  0  0  0  0  0
   55.4822   22.2501   45.3117 H   0  0  0  0  0  0  0  0  0  0  0  0
  1  2  1  0
  2  3  1  0
  3  4  1  0
  4  5  2  0
  5  6  1  0
  6  7  2  0
  6  8  1  0
  8  9  2  0
  9 10  1  0
  9 11  1  0
 11 12  1  0
 11 13  2  0
 13 14  1  0
 13 15  1  0
 15 16  1  0
 15 17  2  0
 17 18  1  0
 18 19  1  0
 18 20  1  0
 18 21  1  0
 21 22  2  0
 22 23  1  0
 23 24  1  0
 24 25  2  0
 24 26  1  0
 26 27  2  0
 27 28  1  0
 27 29  1  0
 29 30  1  0
 29 31  2  0
 31 32  1  0
 31 33  1  0
 33 34  1  0
 33 35  2  0
  4 36  1  0
 36 37  1  0
 36 38  2  0
 38 39  1  0
 38 40  1  0
 40 41  1  0
 40  2  2  0
 17  8  1  0
 35 21  1  0
 35 26  1  0
M  CHG  3   3  -1  23  -1  37  -1
M  END
>  <UniqueID>  (63) 
62

>  <SMILES>  (63) 
O=C(/N=c1/[n-]cccc1[O-])c1ccccc1Cc1n[n-]c(=O)c2ccccc12

>  <Energy>  (63) 
73.24963654504472

>  <Genealogy>  (63) 
O=C(N=c1[n-]cccc1[O-])c1ccccc1Cc1n[n-]c(=O)c2ccccc12 (protonated)
O=C(/N=c1/[n-]cccc1[O-])c1ccccc1Cc1n[n-]c(=O)c2ccccc12 (cis-trans isomerization)
O=C(/N=c1/[n-]cccc1[O-])c1ccccc1Cc1n[n-]c(=O)c2ccccc12 (3D coordinates assigned)
O=C(/N=c1/[n-]cccc1[O-])c1ccccc1Cc1n[n-]c(=O)c2ccccc12 (optimized conformer: 73.24963654504472 kcal/mol)

>  <smiles>  (63) 
O=C(N=c1[nH]cccc1O)c1ccccc1Cc1n[nH]c(=O)c2ccccc12

>  <score_type>  (63) 
oracle

>  <origin>  (63) 
adg

>  <m_score__min__energy>  (63) 
-14.890000000000001

>  <m_primary>  (63) 
energy

$$$$
63:0
     RDKit          3D

 64 68  0  0  0  0  0  0  0  0999 V2000
   58.7560   27.9510   43.4730 O   0  0  0  0  0  0  0  0  0  0  0  0
   58.2990   28.1830   44.6240 C   0  0  0  0  0  0  0  0  0  0  0  0
   58.5720   29.4950   45.2710 C   0  0  0  0  0  0  0  0  0  0  0  0
   59.6900   29.6430   46.1140 C   0  0  0  0  0  0  0  0  0  0  0  0
   59.9580   30.8670   46.7330 C   0  0  0  0  0  0  0  0  0  0  0  0
   59.1080   31.9620   46.5330 C   0  0  0  0  0  0  0  0  0  0  0  0
   59.4060   33.4920   47.3580 S   0  0  0  0  0  0  0  0  0  0  0  0
   60.4460   34.2800   46.6090 O   0  0  0  0  0  0  0  0  0  0  0  0
   58.1290   34.2870   47.3660 O   0  0  0  0  0  0  0  0  0  0  0  0
   59.9330   33.1900   49.0020 N   0  0  0  0  0  0  0  0  0  0  0  0
   61.2400   32.4790   49.0050 C   0  0  0  0  0  0  0  0  0  0  0  0
   61.3880   31.5330   50.1970 C   0  0  0  0  0  0  0  0  0  0  0  0
   60.3050   30.5450   50.1400 N   0  0  0  0  0  0  0  0  0  0  0  0
   60.5800   29.1400   50.2940 C   0  0  0  0  0  0  0  0  0  0  0  0
   61.0220   28.6310   51.5300 C   0  0  0  0  0  0  0  0  0  0  0  0
   61.2870   27.2650   51.6770 C   0  0  0  0  0  0  0  0  0  0  0  0
   61.1100   26.3980   50.5950 C   0  0  0  0  0  0  0  0  0  0  0  0
   60.6780   26.8980   49.3620 C   0  0  0  0  0  0  0  0  0  0  0  0
   60.4190   28.2620   49.2080 C   0  0  0  0  0  0  0  0  0  0  0  0
   58.9540   30.9930   49.7910 C   0  0  0  0  0  0  0  0  0  0  0  0
   58.8600   32.5300   49.7940 C   0  0  0  0  0  0  0  0  0  0  0  0
   58.0040   31.8290   45.6820 C   0  0  0  0  0  0  0  0  0  0  0  0
   57.7470   30.6140   45.0440 C   0  0  0  0  0  0  0  0  0  0  0  0
   57.4780   27.1340   45.2760 C   0  0  0  0  0  0  0  0  0  0  0  0
   56.1340   27.3770   45.5700 C   0  0  0  0  0  0  0  0  0  0  0  0
   55.5430   28.5950   45.2470 O   0  0  0  0  0  0  0  0  0  0  0  0
   55.3970   26.4250   46.1900 N   0  0  0  0  0  0  0  0  0  0  0  0
   55.9270   25.2250   46.5350 C   0  0  0  0  0  0  0  0  0  0  0  0
   55.1930   24.3850   47.1240 O   0  0  0  0  0  0  0  0  0  0  0  0
   57.2400   24.9390   46.2520 N   0  0  0  0  0  0  0  0  0  0  0  0
   57.8140   23.6290   46.6250 C   0  0  0  0  0  0  0  0  0  0  0  0
   57.3880   22.5620   45.6500 C   0  0  0  0  0  0  0  0  0  0  0  0
   57.0090   21.2890   46.1080 C   0  0  0  0  0  0  0  0  0  0  0  0
   56.6320   20.2940   45.1990 C   0  0  0  0  0  0  0  0  0  0  0  0
   56.6340   20.5630   43.8260 C   0  0  0  0  0  0  0  0  0  0  0  0
   57.0140   21.8250   43.3600 C   0  0  0  0  0  0  0  0  0  0  0  0
   57.3910   22.8220   44.2670 C   0  0  0  0  0  0  0  0  0  0  0  0
   58.0130   25.8740   45.6050 C   0  0  0  0  0  0  0  0  0  0  0  0
   59.2080   25.6090   45.2950 O   0  0  0  0  0  0  0  0  0  0  0  0
   60.3589   28.7870   46.2870 H   0  0  0  0  0  0  0  0  0  0  0  0
   60.8411   30.9709   47.3806 H   0  0  0  0  0  0  0  0  0  0  0  0
   60.0880   34.1360   49.4300 H   0  0  0  0  0  0  0  0  0  0  0  0
   61.3257   31.8940   48.0774 H   0  0  0  0  0  0  0  0  0  0  0  0
   62.0334   33.2373   49.0791 H   0  0  0  0  0  0  0  0  0  0  0  0
   62.3606   31.0216   50.1472 H   0  0  0  0  0  0  0  0  0  0  0  0
   61.3344   32.0993   51.1385 H   0  0  0  0  0  0  0  0  0  0  0  0
   61.1596   29.3104   52.3841 H   0  0  0  0  0  0  0  0  0  0  0  0
   61.6347   26.8733   52.6443 H   0  0  0  0  0  0  0  0  0  0  0  0
   61.3103   25.3229   50.7130 H   0  0  0  0  0  0  0  0  0  0  0  0
   60.5418   26.2147   48.5108 H   0  0  0  0  0  0  0  0  0  0  0  0
   60.0879   28.6504   48.2336 H   0  0  0  0  0  0  0  0  0  0  0  0
   58.6999   30.6197   48.7879 H   0  0  0  0  0  0  0  0  0  0  0  0
   58.2515   30.5992   50.5403 H   0  0  0  0  0  0  0  0  0  0  0  0
   57.8866   32.8205   49.3721 H   0  0  0  0  0  0  0  0  0  0  0  0
   58.9768   32.8601   50.8368 H   0  0  0  0  0  0  0  0  0  0  0  0
   57.3355   32.6865   45.5152 H   0  0  0  0  0  0  0  0  0  0  0  0
   56.8918   30.5297   44.3573 H   0  0  0  0  0  0  0  0  0  0  0  0
   58.9116   23.7022   46.6229 H   0  0  0  0  0  0  0  0  0  0  0  0
   57.4508   23.3569   47.6270 H   0  0  0  0  0  0  0  0  0  0  0  0
   57.0086   21.0733   47.1866 H   0  0  0  0  0  0  0  0  0  0  0  0
   56.3340   19.3001   45.5641 H   0  0  0  0  0  0  0  0  0  0  0  0
   56.3362   19.7806   43.1124 H   0  0  0  0  0  0  0  0  0  0  0  0
   57.0167   22.0345   42.2801 H   0  0  0  0  0  0  0  0  0  0  0  0
   57.6911   23.8135   43.8971 H   0  0  0  0  0  0  0  0  0  0  0  0
  1  2  2  0
  2  3  1  0
  3  4  2  0
  4  5  1  0
  5  6  2  0
  6  7  1  0
  7  8  2  0
  7  9  2  0
  7 10  1  0
 10 11  1  0
 11 12  1  0
 12 13  1  0
 13 14  1  0
 14 15  2  0
 15 16  1  0
 16 17  2  0
 17 18  1  0
 18 19  2  0
 13 20  1  0
 20 21  1  0
  6 22  1  0
 22 23  2  0
  2 24  1  0
 24 25  2  0
 25 26  1  0
 25 27  1  0
 27 28  1  0
 28 29  2  0
 28 30  1  0
 30 31  1  0
 31 32  1  0
 32 33  2  0
 33 34  1  0
 34 35  2  0
 35 36  1  0
 36 37  2  0
 30 38  1  0
 38 39  2  0
 23  3  1  0
 38 24  1  0
 21 10  1  0
 37 32  1  0
 19 14  1  0
  4 40  1  0
  5 41  1  0
 10 42  1  0
 11 43  1  0
 11 44  1  0
 12 45  1  0
 12 46  1  0
 15 47  1  0
 16 48  1  0
 17 49  1  0
 18 50  1  0
 19 51  1  0
 20 52  1  0
 20 53  1  0
 21 54  1  0
 21 55  1  0
 22 56  1  0
 23 57  1  0
 31 58  1  0
 31 59  1  0
 33 60  1  0
 34 61  1  0
 35 62  1  0
 36 63  1  0
 37 64  1  0
M  CHG  3  10   1  26  -1  27  -1
M  END
>  <UniqueID>  (64) 
63

>  <SMILES>  (64) 
O=C(c1ccc(S(=O)(=O)[NH+]2CCN(c3ccccc3)CC2)cc1)c1c([O-])[n-]c(=O)n(Cc2ccccc2)c1=O

>  <Energy>  (64) 
94.78099993886075

>  <Genealogy>  (64) 
O=C(c1ccc(S(=O)(=O)[NH+]2CCN(c3ccccc3)CC2)cc1)c1c([O-])[n-]c(=O)n(Cc2ccccc2)c1=O (protonated)
O=C(c1ccc(S(=O)(=O)[NH+]2CCN(c3ccccc3)CC2)cc1)c1c([O-])[n-]c(=O)n(Cc2ccccc2)c1=O (3D coordinates assigned)
O=C(c1ccc(S(=O)(=O)[NH+]2CCN(c3ccccc3)CC2)cc1)c1c([O-])[n-]c(=O)n(Cc2ccccc2)c1=O (nonaromatic ring conformer: 94.78099993886075 kcal/mol)

>  <smiles>  (64) 
O=C(c1ccc(S(=O)(=O)N2CCN(c3ccccc3)CC2)cc1)c1c(O)[nH]c(=O)n(Cc2ccccc2)c1=O

>  <score_type>  (64) 
oracle

>  <origin>  (64) 
adg

>  <m_score__min__energy>  (64) 
-13.65

>  <m_primary>  (64) 
energy

$$$$
64:0
     RDKit          3D

 58 61  0  0  0  0  0  0  0  0999 V2000
   56.8480   29.1890   52.7090 C   0  0  0  0  0  0  0  0  0  0  0  0
   57.3730   29.8460   51.5600 O   0  0  0  0  0  0  0  0  0  0  0  0
   57.9480   31.1270   51.5660 C   0  0  0  0  0  0  0  0  0  0  0  0
   57.5260   32.1300   52.4620 C   0  0  0  0  0  0  0  0  0  0  0  0
   58.1400   33.3850   52.4560 C   0  0  0  0  0  0  0  0  0  0  0  0
   59.1780   33.6540   51.5620 C   0  0  0  0  0  0  0  0  0  0  0  0
   59.6030   32.6690   50.6680 C   0  0  0  0  0  0  0  0  0  0  0  0
   58.9870   31.4080   50.6570 C   0  0  0  0  0  0  0  0  0  0  0  0
   59.4280   30.4050   49.7290 N   0  0  0  0  0  0  0  0  0  0  0  0
   58.9110   30.3720   48.3610 C   0  0  0  0  0  0  0  0  0  0  0  0
   58.5190   28.9420   47.9920 C   0  0  0  0  0  0  0  0  0  0  0  0
   59.5790   27.9980   48.3650 N   0  0  0  0  0  0  0  0  0  0  0  0
   59.6890   26.7570   47.6550 C   0  0  0  0  0  0  0  0  0  0  0  0
   60.8130   26.3940   47.2130 O   0  0  0  0  0  0  0  0  0  0  0  0
   58.5060   25.8480   47.4960 C   0  0  0  0  0  0  0  0  0  0  0  0
   58.3940   25.3920   46.1130 N   0  0  0  0  0  0  0  0  0  0  0  0
   58.1050   26.2140   44.9730 C   0  0  0  0  0  0  0  0  0  0  0  0
   57.7520   25.6520   43.9030 O   0  0  0  0  0  0  0  0  0  0  0  0
   58.1930   27.6890   45.0140 C   0  0  0  0  0  0  0  0  0  0  0  0
   57.0390   28.4810   45.1270 C   0  0  0  0  0  0  0  0  0  0  0  0
   57.1380   29.8730   45.1890 C   0  0  0  0  0  0  0  0  0  0  0  0
   58.3920   30.5050   45.1150 C   0  0  0  0  0  0  0  0  0  0  0  0
   58.5030   31.9840   45.1990 C   0  0  0  0  0  0  0  0  0  0  0  0
   57.6160   32.8100   44.4800 C   0  0  0  0  0  0  0  0  0  0  0  0
   57.7290   34.2010   44.5500 C   0  0  0  0  0  0  0  0  0  0  0  0
   58.7210   34.7850   45.3400 C   0  0  0  0  0  0  0  0  0  0  0  0
   59.6050   33.9790   46.0600 C   0  0  0  0  0  0  0  0  0  0  0  0
   59.4990   32.5860   45.9920 C   0  0  0  0  0  0  0  0  0  0  0  0
   59.5420   29.7120   44.9560 C   0  0  0  0  0  0  0  0  0  0  0  0
   59.4420   28.3190   44.8950 C   0  0  0  0  0  0  0  0  0  0  0  0
   60.1680   28.0750   49.7080 C   0  0  0  0  0  0  0  0  0  0  0  0
   60.5450   29.5170   50.0530 C   0  0  0  0  0  0  0  0  0  0  0  0
   57.2352   29.6736   53.6174 H   0  0  0  0  0  0  0  0  0  0  0  0
   55.7499   29.2536   52.6986 H   0  0  0  0  0  0  0  0  0  0  0  0
   57.1532   28.1322   52.6986 H   0  0  0  0  0  0  0  0  0  0  0  0
   56.7093   31.9236   53.1694 H   0  0  0  0  0  0  0  0  0  0  0  0
   57.8047   34.1631   53.1575 H   0  0  0  0  0  0  0  0  0  0  0  0
   59.6612   34.6422   51.5618 H   0  0  0  0  0  0  0  0  0  0  0  0
   60.4249   32.8826   49.9688 H   0  0  0  0  0  0  0  0  0  0  0  0
   58.0276   31.0234   48.2883 H   0  0  0  0  0  0  0  0  0  0  0  0
   59.6895   30.7260   47.6691 H   0  0  0  0  0  0  0  0  0  0  0  0
   57.5938   28.6734   48.5228 H   0  0  0  0  0  0  0  0  0  0  0  0
   58.3659   28.8881   46.9040 H   0  0  0  0  0  0  0  0  0  0  0  0
   58.6279   24.9764   48.1559 H   0  0  0  0  0  0  0  0  0  0  0  0
   57.5936   26.4012   47.7634 H   0  0  0  0  0  0  0  0  0  0  0  0
   56.0497   28.0017   45.1670 H   0  0  0  0  0  0  0  0  0  0  0  0
   56.2270   30.4801   45.2967 H   0  0  0  0  0  0  0  0  0  0  0  0
   56.8292   32.3565   43.8593 H   0  0  0  0  0  0  0  0  0  0  0  0
   57.0348   34.8373   43.9814 H   0  0  0  0  0  0  0  0  0  0  0  0
   58.8062   35.8803   45.3952 H   0  0  0  0  0  0  0  0  0  0  0  0
   60.3863   34.4404   46.6819 H   0  0  0  0  0  0  0  0  0  0  0  0
   60.1983   31.9564   46.5618 H   0  0  0  0  0  0  0  0  0  0  0  0
   60.5289   30.1918   44.8789 H   0  0  0  0  0  0  0  0  0  0  0  0
   60.3484   27.7122   44.7527 H   0  0  0  0  0  0  0  0  0  0  0  0
   59.4378   27.7071   50.4438 H   0  0  0  0  0  0  0  0  0  0  0  0
   61.0779   27.4573   49.7303 H   0  0  0  0  0  0  0  0  0  0  0  0
   60.7714   29.5897   51.1270 H   0  0  0  0  0  0  0  0  0  0  0  0
   61.4296   29.8137   49.4704 H   0  0  0  0  0  0  0  0  0  0  0  0
  1  2  1  0
  2  3  1  0
  3  4  2  0
  4  5  1  0
  5  6  2  0
  6  7  1  0
  7  8  2  0
  8  9  1  0
  9 10  1  0
 10 11  1  0
 11 12  1  0
 12 13  1  0
 13 14  2  0
 13 15  1  0
 15 16  1  0
 16 17  1  0
 17 18  2  0
 17 19  1  0
 19 20  2  0
 20 21  1  0
 21 22  2  0
 22 23  1  0
 23 24  2  0
 24 25  1  0
 25 26  2  0
 26 27  1  0
 27 28  2  0
 22 29  1  0
 29 30  2  0
 12 31  1  0
 31 32  1  0
  8  3  1  0
 32  9  1  0
 30 19  1  0
 28 23  1  0
  1 33  1  0
  1 34  1  0
  1 35  1  0
  4 36  1  0
  5 37  1  0
  6 38  1  0
  7 39  1  0
 10 40  1  0
 10 41  1  0
 11 42  1  0
 11 43  1  0
 15 44  1  0
 15 45  1  0
 20 46  1  0
 21 47  1  0
 24 48  1  0
 25 49  1  0
 26 50  1  0
 27 51  1  0
 28 52  1  0
 29 53  1  0
 30 54  1  0
 31 55  1  0
 31 56  1  0
 32 57  1  0
 32 58  1  0
M  CHG  1  16  -1
M  END
>  <UniqueID>  (65) 
64

>  <SMILES>  (65) 
COc1ccccc1N1CCN(C(=O)C[N-]C(=O)c2ccc(-c3ccccc3)cc2)CC1

>  <Energy>  (65) 
74.31503689794322

>  <Genealogy>  (65) 
COc1ccccc1N1CCN(C(=O)C[N-]C(=O)c2ccc(-c3ccccc3)cc2)CC1 (protonated)
COc1ccccc1N1CCN(C(=O)C[N-]C(=O)c2ccc(-c3ccccc3)cc2)CC1 (3D coordinates assigned)
COc1ccccc1N1CCN(C(=O)C[N-]C(=O)c2ccc(-c3ccccc3)cc2)CC1 (nonaromatic ring conformer: 74.31503689794322 kcal/mol)

>  <smiles>  (65) 
COc1ccccc1N1CCN(C(=O)CNC(=O)c2ccc(-c3ccccc3)cc2)CC1

>  <score_type>  (65) 
oracle

>  <origin>  (65) 
adg

>  <m_score__min__energy>  (65) 
-10.24

>  <m_primary>  (65) 
energy

$$$$
65:0
     RDKit          3D

 47 49  0  0  0  0  0  0  0  0999 V2000
   56.5460   29.3270   42.6160 C   0  0  0  0  0  0  0  0  0  0  0  0
   56.6180   29.8160   44.3300 S   0  0  0  0  0  0  0  0  0  0  0  0
   56.0290   28.7180   45.1710 O   0  0  0  0  0  0  0  0  0  0  0  0
   55.7910   31.0590   44.5150 O   0  0  0  0  0  0  0  0  0  0  0  0
   58.2580   30.1210   44.8520 N   0  0  0  0  0  0  0  0  0  0  0  0
   58.8090   28.9360   45.5420 C   0  0  0  0  0  0  0  0  0  0  0  0
   60.0700   29.2920   46.3340 C   0  0  0  0  0  0  0  0  0  0  0  0
   59.7250   30.2860   47.4760 C   0  0  0  0  0  0  0  0  0  0  0  0
   60.8950   31.0580   47.9780 N   0  0  0  0  0  0  0  0  0  0  0  0
   61.2420   30.7140   49.3660 C   0  0  0  0  0  0  0  0  0  0  0  0
   62.1050   31.8310   49.9700 C   0  0  0  0  0  0  0  0  0  0  0  0
   63.0250   32.4480   48.9850 N   0  0  0  0  0  0  0  0  0  0  0  0
   62.7770   33.8770   48.6980 C   0  0  0  0  0  0  0  0  0  0  0  0
   61.4780   34.1330   47.9840 C   0  0  0  0  0  0  0  0  0  0  0  0
   61.3060   34.1800   46.6070 C   0  0  0  0  0  0  0  0  0  0  0  0
   59.9920   34.4770   46.2240 C   0  0  0  0  0  0  0  0  0  0  0  0
   59.1290   34.6690   47.2950 C   0  0  0  0  0  0  0  0  0  0  0  0
   60.0030   34.4760   48.7180 S   0  0  0  0  0  0  0  0  0  0  0  0
   63.3440   31.6130   47.8080 C   0  0  0  0  0  0  0  0  0  0  0  0
   62.0930   31.0370   47.1070 C   0  0  0  0  0  0  0  0  0  0  0  0
   58.5230   31.1990   47.1200 C   0  0  0  0  0  0  0  0  0  0  0  0
   58.3670   31.3970   45.6030 C   0  0  0  0  0  0  0  0  0  0  0  0
   56.3860   28.2406   42.5511 H   0  0  0  0  0  0  0  0  0  0  0  0
   55.7152   29.8502   42.1200 H   0  0  0  0  0  0  0  0  0  0  0  0
   57.4923   29.5886   42.1200 H   0  0  0  0  0  0  0  0  0  0  0  0
   58.0512   28.5391   46.2336 H   0  0  0  0  0  0  0  0  0  0  0  0
   59.0747   28.1843   44.7841 H   0  0  0  0  0  0  0  0  0  0  0  0
   60.4976   28.3757   46.7670 H   0  0  0  0  0  0  0  0  0  0  0  0
   60.7975   29.7630   45.6566 H   0  0  0  0  0  0  0  0  0  0  0  0
   59.4112   29.6567   48.3219 H   0  0  0  0  0  0  0  0  0  0  0  0
   60.3211   30.6019   49.9571 H   0  0  0  0  0  0  0  0  0  0  0  0
   61.8040   29.7685   49.3797 H   0  0  0  0  0  0  0  0  0  0  0  0
   61.4400   32.6126   50.3662 H   0  0  0  0  0  0  0  0  0  0  0  0
   62.7230   31.3791   50.7598 H   0  0  0  0  0  0  0  0  0  0  0  0
   62.7634   34.4256   49.6514 H   0  0  0  0  0  0  0  0  0  0  0  0
   63.5832   34.2158   48.0307 H   0  0  0  0  0  0  0  0  0  0  0  0
   62.1201   34.0018   45.8890 H   0  0  0  0  0  0  0  0  0  0  0  0
   59.6735   34.5512   45.1737 H   0  0  0  0  0  0  0  0  0  0  0  0
   58.0573   34.9066   47.2243 H   0  0  0  0  0  0  0  0  0  0  0  0
   63.8973   32.2285   47.0835 H   0  0  0  0  0  0  0  0  0  0  0  0
   63.9373   30.7590   48.1668 H   0  0  0  0  0  0  0  0  0  0  0  0
   61.8858   31.6352   46.2075 H   0  0  0  0  0  0  0  0  0  0  0  0
   62.3046   29.9875   46.8546 H   0  0  0  0  0  0  0  0  0  0  0  0
   57.6031   30.7414   47.5131 H   0  0  0  0  0  0  0  0  0  0  0  0
   58.7062   32.1858   47.5702 H   0  0  0  0  0  0  0  0  0  0  0  0
   57.4579   31.9886   45.4198 H   0  0  0  0  0  0  0  0  0  0  0  0
   59.2733   31.9083   45.2464 H   0  0  0  0  0  0  0  0  0  0  0  0
  1  2  1  0
  2  3  2  0
  2  4  2  0
  2  5  1  0
  5  6  1  0
  6  7  1  0
  7  8  1  0
  8  9  1  0
  9 10  1  0
 10 11  1  0
 11 12  1  0
 12 13  1  0
 13 14  1  0
 14 15  2  0
 15 16  1  0
 16 17  2  0
 17 18  1  0
 12 19  1  0
 19 20  1  0
  8 21  1  0
 21 22  1  0
 22  5  1  0
 20  9  1  0
 18 14  1  0
  1 23  1  0
  1 24  1  0
  1 25  1  0
  6 26  1  0
  6 27  1  0
  7 28  1  0
  7 29  1  0
  8 30  1  0
 10 31  1  0
 10 32  1  0
 11 33  1  0
 11 34  1  0
 13 35  1  0
 13 36  1  0
 15 37  1  0
 16 38  1  0
 17 39  1  0
 19 40  1  0
 19 41  1  0
 20 42  1  0
 20 43  1  0
 21 44  1  0
 21 45  1  0
 22 46  1  0
 22 47  1  0
M  END
>  <UniqueID>  (66) 
65

>  <SMILES>  (66) 
CS(=O)(=O)N1CCC(N2CCN(Cc3cccs3)CC2)CC1

>  <Energy>  (66) 
92.33634452589101

>  <Genealogy>  (66) 
CS(=O)(=O)N1CCC(N2CCN(Cc3cccs3)CC2)CC1 (3D coordinates assigned)
CS(=O)(=O)N1CCC(N2CCN(Cc3cccs3)CC2)CC1 (nonaromatic ring conformer: 92.33634452589101 kcal/mol)

>  <smiles>  (66) 
CS(=O)(=O)N1CCC(N2CCN(Cc3cccs3)CC2)CC1

>  <score_type>  (66) 
oracle

>  <origin>  (66) 
adg

>  <m_score__min__energy>  (66) 
-7.9500000000000002

>  <m_primary>  (66) 
energy

$$$$
66:0
     RDKit          3D

 58 61  0  0  0  0  0  0  0  0999 V2000
   59.5070   34.9480   47.7220 C   0  0  0  0  0  0  0  0  0  0  0  0
   59.4110   33.6580   47.3980 C   0  0  0  0  0  0  0  0  0  0  0  0
   57.8320   32.8650   47.1440 S   0  0  0  0  0  0  0  0  0  0  0  0
   58.6940   31.7090   46.0550 C   0  0  0  0  0  0  0  0  0  0  0  0
   58.0820   31.1520   44.9810 C   0  0  0  0  0  0  0  0  0  0  0  0
   58.4970   31.5230   43.5710 C   0  0  0  0  0  0  0  0  0  0  0  0
   57.2920   31.4580   42.6230 C   0  0  0  0  0  0  0  0  0  0  0  0
   56.5890   30.0850   42.6230 C   0  0  0  0  0  0  0  0  0  0  0  0
   56.8990   29.2280   43.8620 C   0  0  0  0  0  0  0  0  0  0  0  0
   57.0340   30.0690   45.1370 C   0  0  0  0  0  0  0  0  0  0  0  0
   60.1110   31.6270   46.3040 N   0  0  0  0  0  0  0  0  0  0  0  0
   60.8290   30.3440   46.3660 C   0  0  0  0  0  0  0  0  0  0  0  0
   59.9120   29.1560   46.5120 C   0  0  0  0  0  0  0  0  0  0  0  0
   59.1450   28.7700   47.9570 S   0  0  0  0  0  0  0  0  0  0  0  0
   58.3600   27.3910   47.4150 C   0  0  0  0  0  0  0  0  0  0  0  0
   58.7020   27.1880   46.0800 C   0  0  0  0  0  0  0  0  0  0  0  0
   58.2000   26.0280   45.3130 C   0  0  0  0  0  0  0  0  0  0  0  0
   57.8150   26.1650   44.0380 C   0  0  0  0  0  0  0  0  0  0  0  0
   57.3900   24.9740   43.2280 C   0  0  0  0  0  0  0  0  0  0  0  0
   56.7220   23.9610   44.0650 N   0  0  0  0  0  0  0  0  0  0  0  0
   55.8030   23.0300   43.4640 C   0  0  0  0  0  0  0  0  0  0  0  0
   54.5870   23.3380   43.3290 O   0  0  0  0  0  0  0  0  0  0  0  0
   56.2620   21.7820   43.0280 O   0  0  0  0  0  0  0  0  0  0  0  0
   57.5430   21.2710   43.3740 C   0  0  0  0  0  0  0  0  0  0  0  0
   57.0170   23.8370   45.5030 C   0  0  0  0  0  0  0  0  0  0  0  0
   58.2510   24.6490   45.9110 C   0  0  0  0  0  0  0  0  0  0  0  0
   59.5590   28.1870   45.5680 C   0  0  0  0  0  0  0  0  0  0  0  0
   59.9760   28.2420   44.2380 O   0  0  0  0  0  0  0  0  0  0  0  0
   60.5310   32.7760   47.0530 C   0  0  0  0  0  0  0  0  0  0  0  0
   61.8010   32.9920   47.4240 C   0  0  0  0  0  0  0  0  0  0  0  0
   60.4962   35.4054   47.8713 H   0  0  0  0  0  0  0  0  0  0  0  0
   58.5970   35.5547   47.8399 H   0  0  0  0  0  0  0  0  0  0  0  0
   58.9039   32.5450   43.5702 H   0  0  0  0  0  0  0  0  0  0  0  0
   59.2611   30.8112   43.2254 H   0  0  0  0  0  0  0  0  0  0  0  0
   56.5640   32.2230   42.9308 H   0  0  0  0  0  0  0  0  0  0  0  0
   57.6692   31.6309   41.6043 H   0  0  0  0  0  0  0  0  0  0  0  0
   55.5026   30.2518   42.5799 H   0  0  0  0  0  0  0  0  0  0  0  0
   56.9656   29.5326   41.7494 H   0  0  0  0  0  0  0  0  0  0  0  0
   56.0842   28.5025   44.0023 H   0  0  0  0  0  0  0  0  0  0  0  0
   57.8619   28.7252   43.6890 H   0  0  0  0  0  0  0  0  0  0  0  0
   56.0647   30.5393   45.3590 H   0  0  0  0  0  0  0  0  0  0  0  0
   57.3445   29.4045   45.9568 H   0  0  0  0  0  0  0  0  0  0  0  0
   61.4114   30.2243   45.4405 H   0  0  0  0  0  0  0  0  0  0  0  0
   61.4717   30.3721   47.2583 H   0  0  0  0  0  0  0  0  0  0  0  0
   57.6894   26.7552   48.0118 H   0  0  0  0  0  0  0  0  0  0  0  0
   57.8099   27.1639   43.5774 H   0  0  0  0  0  0  0  0  0  0  0  0
   56.6934   25.3054   42.4438 H   0  0  0  0  0  0  0  0  0  0  0  0
   58.2889   24.5185   42.7869 H   0  0  0  0  0  0  0  0  0  0  0  0
   57.6389   21.2327   44.4691 H   0  0  0  0  0  0  0  0  0  0  0  0
   57.6578   20.2583   42.9603 H   0  0  0  0  0  0  0  0  0  0  0  0
   58.3233   21.9267   42.9603 H   0  0  0  0  0  0  0  0  0  0  0  0
   56.1498   24.1981   46.0753 H   0  0  0  0  0  0  0  0  0  0  0  0
   57.2232   22.7777   45.7161 H   0  0  0  0  0  0  0  0  0  0  0  0
   58.2828   24.7316   47.0074 H   0  0  0  0  0  0  0  0  0  0  0  0
   59.1509   24.1357   45.5412 H   0  0  0  0  0  0  0  0  0  0  0  0
   60.9520   28.2140   43.9730 H   0  0  0  0  0  0  0  0  0  0  0  0
   62.0605   33.8936   47.9982 H   0  0  0  0  0  0  0  0  0  0  0  0
   62.5836   32.2676   47.1542 H   0  0  0  0  0  0  0  0  0  0  0  0
  1  2  2  0
  2  3  1  0
  3  4  1  0
  4  5  2  3
  5  6  1  0
  6  7  1  0
  7  8  1  0
  8  9  1  0
  9 10  1  0
  4 11  1  0
 11 12  1  0
 12 13  1  0
 13 14  1  0
 14 15  1  0
 15 16  2  0
 16 17  1  0
 17 18  2  0
 18 19  1  0
 19 20  1  0
 20 21  1  0
 21 22  2  0
 21 23  1  0
 23 24  1  0
 20 25  1  0
 25 26  1  0
 16 27  1  0
 27 28  1  0
 11 29  1  0
 29 30  2  0
 29  2  1  0
 10  5  1  0
 27 13  2  0
 26 17  1  0
  1 31  1  0
  1 32  1  0
  6 33  1  0
  6 34  1  0
  7 35  1  0
  7 36  1  0
  8 37  1  0
  8 38  1  0
  9 39  1  0
  9 40  1  0
 10 41  1  0
 10 42  1  0
 12 43  1  0
 12 44  1  0
 15 45  1  0
 18 46  1  0
 19 47  1  0
 19 48  1  0
 24 49  1  0
 24 50  1  0
 24 51  1  0
 25 52  1  0
 25 53  1  0
 26 54  1  0
 26 55  1  0
 28 56  1  0
 30 57  1  0
 30 58  1  0
M  END
>  <UniqueID>  (67) 
66

>  <SMILES>  (67) 
C=C1SC(=C2CCCCC2)N(Cc2scc(C3=CCN(C(=O)OC)CC3)c2O)C1=C

>  <Energy>  (67) 
115.94780478284768

>  <Genealogy>  (67) 
C=C1SC(=C2CCCCC2)N(Cc2scc(C3=CCN(C(=O)OC)CC3)c2O)C1=C (3D coordinates assigned)
C=C1SC(=C2CCCCC2)N(Cc2scc(C3=CCN(C(=O)OC)CC3)c2O)C1=C (nonaromatic ring conformer: 115.94780478284768 kcal/mol)

>  <smiles>  (67) 
C=C1SC(=C2CCCCC2)N(Cc2scc(C3=CCN(C(=O)OC)CC3)c2O)C1=C

>  <score_type>  (67) 
oracle

>  <origin>  (67) 
adg

>  <m_score__min__energy>  (67) 
-9.1099999999999994

>  <m_primary>  (67) 
energy

$$$$
67:0
     RDKit          3D

 53 55  0  0  0  0  0  0  0  0999 V2000
   60.6730   30.8750   48.0360 C   0  0  0  0  0  0  0  0  0  0  0  0
   59.7700   31.7970   47.2590 C   0  0  0  0  0  0  0  0  0  0  0  0
   58.6690   31.2630   46.5690 C   0  0  0  0  0  0  0  0  0  0  0  0
   57.8110   32.0960   45.8310 C   0  0  0  0  0  0  0  0  0  0  0  0
   56.6800   31.5740   45.1190 N   0  0  0  0  0  0  0  0  0  0  0  0
   56.6100   30.0310   44.3300 S   0  0  0  0  0  0  0  0  0  0  0  0
   55.8220   29.0650   45.1690 O   0  0  0  0  0  0  0  0  0  0  0  0
   55.9680   30.1790   42.9800 O   0  0  0  0  0  0  0  0  0  0  0  0
   58.2690   29.4100   44.1240 C   0  0  0  0  0  0  0  0  0  0  0  0
   58.4520   28.1470   44.9190 C   0  0  0  0  0  0  0  0  0  0  0  0
   57.8180   26.9590   44.5180 C   0  0  0  0  0  0  0  0  0  0  0  0
   58.0270   25.7750   45.2300 C   0  0  0  0  0  0  0  0  0  0  0  0
   58.8740   25.7660   46.3430 C   0  0  0  0  0  0  0  0  0  0  0  0
   59.5160   26.9420   46.7410 C   0  0  0  0  0  0  0  0  0  0  0  0
   59.3100   28.1280   46.0310 C   0  0  0  0  0  0  0  0  0  0  0  0
   58.0660   33.4730   45.7820 C   0  0  0  0  0  0  0  0  0  0  0  0
   57.0270   34.5460   44.8520 Cl  0  0  0  0  0  0  0  0  0  0  0  0
   59.1660   34.0090   46.4560 C   0  0  0  0  0  0  0  0  0  0  0  0
   60.0230   33.1850   47.2030 C   0  0  0  0  0  0  0  0  0  0  0  0
   61.1790   33.7450   47.8550 N   0  0  0  0  0  0  0  0  0  0  0  0
   62.4690   33.8430   47.2400 C   0  0  0  0  0  0  0  0  0  0  0  0
   62.6090   33.6230   46.0050 O   0  0  0  0  0  0  0  0  0  0  0  0
   63.5670   34.2240   48.0210 O   0  0  0  0  0  0  0  0  0  0  0  0
   64.0500   33.4610   49.1280 C   0  0  0  0  0  0  0  0  0  0  0  0
   63.7050   31.9640   48.9280 C   0  0  0  0  0  0  0  0  0  0  0  0
   63.4840   31.2410   50.2610 C   0  0  0  0  0  0  0  0  0  0  0  0
   62.3140   31.8570   51.0520 C   0  0  0  0  0  0  0  0  0  0  0  0
   62.1350   33.3690   50.8060 C   0  0  0  0  0  0  0  0  0  0  0  0
   63.4610   34.0420   50.4340 C   0  0  0  0  0  0  0  0  0  0  0  0
   60.5185   31.0328   49.1136 H   0  0  0  0  0  0  0  0  0  0  0  0
   60.4383   29.8311   47.7809 H   0  0  0  0  0  0  0  0  0  0  0  0
   61.7216   31.0879   47.7809 H   0  0  0  0  0  0  0  0  0  0  0  0
   58.4763   30.1807   46.6068 H   0  0  0  0  0  0  0  0  0  0  0  0
   58.4485   29.1987   43.0595 H   0  0  0  0  0  0  0  0  0  0  0  0
   58.9829   30.1665   44.4818 H   0  0  0  0  0  0  0  0  0  0  0  0
   57.1548   26.9610   43.6404 H   0  0  0  0  0  0  0  0  0  0  0  0
   57.5246   24.8486   44.9147 H   0  0  0  0  0  0  0  0  0  0  0  0
   59.0348   24.8340   46.9047 H   0  0  0  0  0  0  0  0  0  0  0  0
   60.1845   26.9340   47.6145 H   0  0  0  0  0  0  0  0  0  0  0  0
   59.8217   29.0500   46.3441 H   0  0  0  0  0  0  0  0  0  0  0  0
   59.3632   35.0898   46.4008 H   0  0  0  0  0  0  0  0  0  0  0  0
   61.0750   34.1410   48.8160 H   0  0  0  0  0  0  0  0  0  0  0  0
   65.1459   33.5266   49.1969 H   0  0  0  0  0  0  0  0  0  0  0  0
   62.7868   31.8887   48.3270 H   0  0  0  0  0  0  0  0  0  0  0  0
   64.5548   31.4852   48.4194 H   0  0  0  0  0  0  0  0  0  0  0  0
   63.2616   30.1825   50.0606 H   0  0  0  0  0  0  0  0  0  0  0  0
   64.3986   31.3425   50.8637 H   0  0  0  0  0  0  0  0  0  0  0  0
   61.3864   31.3440   50.7581 H   0  0  0  0  0  0  0  0  0  0  0  0
   62.5413   31.7272   52.1204 H   0  0  0  0  0  0  0  0  0  0  0  0
   61.4182   33.5144   49.9844 H   0  0  0  0  0  0  0  0  0  0  0  0
   61.7660   33.8271   51.7355 H   0  0  0  0  0  0  0  0  0  0  0  0
   63.2881   35.1199   50.2986 H   0  0  0  0  0  0  0  0  0  0  0  0
   64.1793   33.8572   51.2463 H   0  0  0  0  0  0  0  0  0  0  0  0
  1  2  1  0
  2  3  2  0
  3  4  1  0
  4  5  1  0
  5  6  1  0
  6  7  2  0
  6  8  2  0
  6  9  1  0
  9 10  1  0
 10 11  2  0
 11 12  1  0
 12 13  2  0
 13 14  1  0
 14 15  2  0
  4 16  2  0
 16 17  1  0
 16 18  1  0
 18 19  2  0
 19 20  1  0
 20 21  1  0
 21 22  2  0
 21 23  1  0
 23 24  1  0
 24 25  1  0
 25 26  1  0
 26 27  1  0
 27 28  1  0
 28 29  1  0
 19  2  1  0
 29 24  1  0
 15 10  1  0
  1 30  1  0
  1 31  1  0
  1 32  1  0
  3 33  1  0
  9 34  1  0
  9 35  1  0
 11 36  1  0
 12 37  1  0
 13 38  1  0
 14 39  1  0
 15 40  1  0
 18 41  1  0
 20 42  1  0
 24 43  1  0
 25 44  1  0
 25 45  1  0
 26 46  1  0
 26 47  1  0
 27 48  1  0
 27 49  1  0
 28 50  1  0
 28 51  1  0
 29 52  1  0
 29 53  1  0
M  CHG  1   5  -1
M  END
>  <UniqueID>  (68) 
67

>  <SMILES>  (68) 
Cc1cc([N-]S(=O)(=O)Cc2ccccc2)c(Cl)cc1NC(=O)OC1CCCCC1

>  <Energy>  (68) 
56.11616981357472

>  <Genealogy>  (68) 
Cc1cc([N-]S(=O)(=O)Cc2ccccc2)c(Cl)cc1NC(=O)OC1CCCCC1 (protonated)
Cc1cc([N-]S(=O)(=O)Cc2ccccc2)c(Cl)cc1NC(=O)OC1CCCCC1 (3D coordinates assigned)
Cc1cc([N-]S(=O)(=O)Cc2ccccc2)c(Cl)cc1NC(=O)OC1CCCCC1 (nonaromatic ring conformer: 56.11616981357472 kcal/mol)

>  <smiles>  (68) 
Cc1cc(NS(=O)(=O)Cc2ccccc2)c(Cl)cc1NC(=O)OC1CCCCC1

>  <score_type>  (68) 
oracle

>  <origin>  (68) 
adg

>  <m_score__min__energy>  (68) 
-10.960000000000001

>  <m_primary>  (68) 
energy

$$$$
68:0
     RDKit          3D

 33 34  0  0  0  0  0  0  0  0999 V2000
   57.8610   27.1750   45.0300 C   0  0  0  0  0  0  0  0  0  0  0  0
   57.7020   28.4510   44.6820 C   0  0  0  0  0  0  0  0  0  0  0  0
   57.3880   28.8810   43.3520 N   0  0  0  0  0  0  0  0  0  0  0  0
   57.3440   30.3160   43.4990 C   0  0  0  0  0  0  0  0  0  0  0  0
   57.0180   31.2120   42.3400 C   0  0  0  0  0  0  0  0  0  0  0  0
   57.5720   30.7510   44.7470 C   0  0  0  0  0  0  0  0  0  0  0  0
   57.5990   32.1540   45.2110 C   0  0  0  0  0  0  0  0  0  0  0  0
   56.5210   32.8030   45.2800 O   0  0  0  0  0  0  0  0  0  0  0  0
   58.8370   32.7870   45.5860 N   0  0  0  0  0  0  0  0  0  0  0  0
   59.8300   32.0350   46.3710 C   0  0  0  0  0  0  0  0  0  0  0  0
   60.8610   32.9690   47.0200 C   0  0  0  0  0  0  0  0  0  0  0  0
   60.1610   34.1700   47.6690 C   0  0  0  0  0  0  0  0  0  0  0  0
   59.2690   34.9570   46.6800 C   0  0  0  0  0  0  0  0  0  0  0  0
   59.0340   34.2220   45.3510 C   0  0  0  0  0  0  0  0  0  0  0  0
   57.8290   29.5870   45.5640 C   0  0  0  0  0  0  0  0  0  0  0  0
   58.1650   29.5710   46.7790 O   0  0  0  0  0  0  0  0  0  0  0  0
   58.1018   26.9148   46.0713 H   0  0  0  0  0  0  0  0  0  0  0  0
   57.7515   26.3815   44.2761 H   0  0  0  0  0  0  0  0  0  0  0  0
   56.4500   28.5170   43.0630 H   0  0  0  0  0  0  0  0  0  0  0  0
   58.1490   28.6090   42.6880 H   0  0  0  0  0  0  0  0  0  0  0  0
   56.6645   32.1835   42.7157 H   0  0  0  0  0  0  0  0  0  0  0  0
   57.9193   31.3617   41.7274 H   0  0  0  0  0  0  0  0  0  0  0  0
   56.2313   30.7475   41.7274 H   0  0  0  0  0  0  0  0  0  0  0  0
   59.3098   31.4734   47.1609 H   0  0  0  0  0  0  0  0  0  0  0  0
   60.3624   31.3538   45.6909 H   0  0  0  0  0  0  0  0  0  0  0  0
   61.4181   32.4148   47.7897 H   0  0  0  0  0  0  0  0  0  0  0  0
   61.5499   33.3341   46.2440 H   0  0  0  0  0  0  0  0  0  0  0  0
   59.5319   33.8051   48.4942 H   0  0  0  0  0  0  0  0  0  0  0  0
   60.9449   34.8560   48.0224 H   0  0  0  0  0  0  0  0  0  0  0  0
   58.2938   35.1357   47.1566 H   0  0  0  0  0  0  0  0  0  0  0  0
   59.7949   35.8939   46.4439 H   0  0  0  0  0  0  0  0  0  0  0  0
   58.1394   34.6350   44.8620 H   0  0  0  0  0  0  0  0  0  0  0  0
   59.9153   34.3597   44.7073 H   0  0  0  0  0  0  0  0  0  0  0  0
  1  2  2  0
  2  3  1  0
  3  4  1  0
  4  5  1  0
  4  6  2  0
  6  7  1  0
  7  8  2  0
  7  9  1  0
  9 10  1  0
 10 11  1  0
 11 12  1  0
 12 13  1  0
 13 14  1  0
  6 15  1  0
 15 16  2  0
 15  2  1  0
 14  9  1  0
  1 17  1  0
  1 18  1  0
  3 19  1  0
  3 20  1  0
  5 21  1  0
  5 22  1  0
  5 23  1  0
 10 24  1  0
 10 25  1  0
 11 26  1  0
 11 27  1  0
 12 28  1  0
 12 29  1  0
 13 30  1  0
 13 31  1  0
 14 32  1  0
 14 33  1  0
M  CHG  1   3   1
M  END
>  <UniqueID>  (69) 
68

>  <SMILES>  (69) 
C=C1[NH2+]C(C)=C(C(=O)N2CCCCC2)C1=O

>  <Energy>  (69) 
54.43277357049326

>  <Genealogy>  (69) 
C=C1[NH2+]C(C)=C(C(=O)N2CCCCC2)C1=O (protonated)
C=C1[NH2+]C(C)=C(C(=O)N2CCCCC2)C1=O (3D coordinates assigned)
C=C1[NH2+]C(C)=C(C(=O)N2CCCCC2)C1=O (nonaromatic ring conformer: 54.43277357049326 kcal/mol)

>  <smiles>  (69) 
C=C1NC(C)=C(C(=O)N2CCCCC2)C1=O

>  <score_type>  (69) 
oracle

>  <origin>  (69) 
adg

>  <m_score__min__energy>  (69) 
-5.4500000000000002

>  <m_primary>  (69) 
energy

$$$$
69:0
     RDKit          3D

 50 52  0  0  0  0  0  0  0  0999 V2000
   56.3830   30.0910   42.8610 C   0  0  0  0  0  0  0  0  0  0  0  0
   56.3770   29.5760   44.2690 C   0  0  0  0  0  0  0  0  0  0  0  0
   55.2690   29.4500   44.8570 O   0  0  0  0  0  0  0  0  0  0  0  0
   57.6340   29.2130   44.9770 C   0  0  0  0  0  0  0  0  0  0  0  0
   58.7360   28.7250   44.2500 C   0  0  0  0  0  0  0  0  0  0  0  0
   59.9280   28.4000   44.9010 C   0  0  0  0  0  0  0  0  0  0  0  0
   60.0410   28.5600   46.2830 C   0  0  0  0  0  0  0  0  0  0  0  0
   58.9570   29.0500   47.0260 C   0  0  0  0  0  0  0  0  0  0  0  0
   59.0610   29.2480   48.4420 N   0  0  0  0  0  0  0  0  0  0  0  0
   60.1640   29.9480   49.0290 C   0  0  0  0  0  0  0  0  0  0  0  0
   61.2540   30.0650   48.4070 O   0  0  0  0  0  0  0  0  0  0  0  0
   59.9980   30.5710   50.3050 N   0  0  0  0  0  0  0  0  0  0  0  0
   60.0750   32.0150   50.5000 C   0  0  0  0  0  0  0  0  0  0  0  0
   59.1480   32.7420   49.5130 C   0  0  0  0  0  0  0  0  0  0  0  0
   59.8400   33.1090   48.2600 N   0  0  0  0  0  0  0  0  0  0  0  0
   59.0550   33.4250   47.0870 C   0  0  0  0  0  0  0  0  0  0  0  0
   59.5370   34.3470   46.1410 C   0  0  0  0  0  0  0  0  0  0  0  0
   58.7950   34.6350   44.9910 C   0  0  0  0  0  0  0  0  0  0  0  0
   57.5660   34.0080   44.7760 C   0  0  0  0  0  0  0  0  0  0  0  0
   57.0760   33.0920   45.7090 C   0  0  0  0  0  0  0  0  0  0  0  0
   57.8130   32.8030   46.8620 C   0  0  0  0  0  0  0  0  0  0  0  0
   61.2850   33.2060   48.2000 C   0  0  0  0  0  0  0  0  0  0  0  0
   62.0230   32.5400   47.2010 C   0  0  0  0  0  0  0  0  0  0  0  0
   63.4150   32.6640   47.1460 C   0  0  0  0  0  0  0  0  0  0  0  0
   64.0880   33.4490   48.0850 C   0  0  0  0  0  0  0  0  0  0  0  0
   63.3710   34.1110   49.0820 C   0  0  0  0  0  0  0  0  0  0  0  0
   61.9810   33.9890   49.1440 C   0  0  0  0  0  0  0  0  0  0  0  0
   57.7540   29.3580   46.3730 C   0  0  0  0  0  0  0  0  0  0  0  0
   56.3958   31.1909   42.8729 H   0  0  0  0  0  0  0  0  0  0  0  0
   57.2769   29.7195   42.3385 H   0  0  0  0  0  0  0  0  0  0  0  0
   55.4807   29.7405   42.3385 H   0  0  0  0  0  0  0  0  0  0  0  0
   58.6577   28.5986   43.1601 H   0  0  0  0  0  0  0  0  0  0  0  0
   60.7812   28.0164   44.3224 H   0  0  0  0  0  0  0  0  0  0  0  0
   60.9821   28.3013   46.7904 H   0  0  0  0  0  0  0  0  0  0  0  0
   58.1860   29.1770   49.0080 H   0  0  0  0  0  0  0  0  0  0  0  0
   59.7704   32.2580   51.5287 H   0  0  0  0  0  0  0  0  0  0  0  0
   61.1100   32.3430   50.3233 H   0  0  0  0  0  0  0  0  0  0  0  0
   58.3026   32.0816   49.2698 H   0  0  0  0  0  0  0  0  0  0  0  0
   58.8070   33.6709   49.9935 H   0  0  0  0  0  0  0  0  0  0  0  0
   60.5038   34.8449   46.3065 H   0  0  0  0  0  0  0  0  0  0  0  0
   59.1800   35.3562   44.2551 H   0  0  0  0  0  0  0  0  0  0  0  0
   56.9835   34.2358   43.8711 H   0  0  0  0  0  0  0  0  0  0  0  0
   56.1089   32.5969   45.5369 H   0  0  0  0  0  0  0  0  0  0  0  0
   57.4195   32.0855   47.5971 H   0  0  0  0  0  0  0  0  0  0  0  0
   61.5004   31.9182   46.4592 H   0  0  0  0  0  0  0  0  0  0  0  0
   63.9815   32.1418   46.3609 H   0  0  0  0  0  0  0  0  0  0  0  0
   65.1828   33.5452   48.0384 H   0  0  0  0  0  0  0  0  0  0  0  0
   63.9013   34.7301   49.8206 H   0  0  0  0  0  0  0  0  0  0  0  0
   61.4236   34.5089   49.9371 H   0  0  0  0  0  0  0  0  0  0  0  0
   56.8944   29.7169   46.9581 H   0  0  0  0  0  0  0  0  0  0  0  0
  1  2  1  0
  2  3  2  0
  2  4  1  0
  4  5  2  0
  5  6  1  0
  6  7  2  0
  7  8  1  0
  8  9  1  0
  9 10  1  0
 10 11  2  0
 10 12  1  0
 12 13  1  0
 13 14  1  0
 14 15  1  0
 15 16  1  0
 16 17  2  0
 17 18  1  0
 18 19  2  0
 19 20  1  0
 20 21  2  0
 15 22  1  0
 22 23  2  0
 23 24  1  0
 24 25  2  0
 25 26  1  0
 26 27  2  0
  8 28  2  0
 28  4  1  0
 21 16  1  0
 27 22  1  0
  1 29  1  0
  1 30  1  0
  1 31  1  0
  5 32  1  0
  6 33  1  0
  7 34  1  0
  9 35  1  0
 13 36  1  0
 13 37  1  0
 14 38  1  0
 14 39  1  0
 17 40  1  0
 18 41  1  0
 19 42  1  0
 20 43  1  0
 21 44  1  0
 23 45  1  0
 24 46  1  0
 25 47  1  0
 26 48  1  0
 27 49  1  0
 28 50  1  0
M  CHG  1  12  -1
M  END
>  <UniqueID>  (70) 
69

>  <SMILES>  (70) 
CC(=O)c1cccc(NC(=O)[N-]CCN(c2ccccc2)c2ccccc2)c1

>  <Energy>  (70) 
59.568862533187996

>  <Genealogy>  (70) 
CC(=O)c1cccc(NC(=O)[N-]CCN(c2ccccc2)c2ccccc2)c1 (protonated)
CC(=O)c1cccc(NC(=O)[N-]CCN(c2ccccc2)c2ccccc2)c1 (3D coordinates assigned)
CC(=O)c1cccc(NC(=O)[N-]CCN(c2ccccc2)c2ccccc2)c1 (optimized conformer: 59.568862533187996 kcal/mol)

>  <smiles>  (70) 
CC(=O)c1cccc(NC(=O)NCCN(c2ccccc2)c2ccccc2)c1

>  <score_type>  (70) 
oracle

>  <origin>  (70) 
adg

>  <m_score__min__energy>  (70) 
-9.9100000000000001

>  <m_primary>  (70) 
energy

$$$$
70:0
     RDKit          3D

 46 48  0  0  0  0  0  0  0  0999 V2000
   50.8200   32.7160   51.7060 N   0  0  0  0  0  0  0  0  0  0  0  0
   51.2490   31.6760   52.5840 C   0  0  0  0  0  0  0  0  0  0  0  0
   50.4310   31.2000   53.4170 O   0  0  0  0  0  0  0  0  0  0  0  0
   52.6370   31.1610   52.5220 C   0  0  0  0  0  0  0  0  0  0  0  0
   53.2400   30.5850   53.6550 C   0  0  0  0  0  0  0  0  0  0  0  0
   54.5500   30.1020   53.5930 C   0  0  0  0  0  0  0  0  0  0  0  0
   55.2790   30.1810   52.3980 C   0  0  0  0  0  0  0  0  0  0  0  0
   56.6990   29.6790   52.3480 C   0  0  0  0  0  0  0  0  0  0  0  0
   57.6500   30.7930   52.5510 N   0  0  0  0  0  0  0  0  0  0  0  0
   57.4540   31.9180   51.6250 C   0  0  0  0  0  0  0  0  0  0  0  0
   57.7660   31.5640   50.1620 C   0  0  0  0  0  0  0  0  0  0  0  0
   58.8500   30.5720   49.9720 N   0  0  0  0  0  0  0  0  0  0  0  0
   59.2380   30.2050   48.6100 C   0  0  0  0  0  0  0  0  0  0  0  0
   60.6000   30.1110   48.2340 C   0  0  0  0  0  0  0  0  0  0  0  0
   60.9670   29.7550   46.9340 C   0  0  0  0  0  0  0  0  0  0  0  0
   59.9920   29.4910   45.9740 C   0  0  0  0  0  0  0  0  0  0  0  0
   58.6390   29.5900   46.3070 C   0  0  0  0  0  0  0  0  0  0  0  0
   57.4040   29.2510   45.0970 S   0  0  0  0  0  0  0  0  0  0  0  0
   56.4100   27.9460   45.6380 N   0  0  0  0  0  0  0  0  0  0  0  0
   56.5560   30.4720   44.8830 O   0  0  0  0  0  0  0  0  0  0  0  0
   58.0520   28.8800   43.7920 O   0  0  0  0  0  0  0  0  0  0  0  0
   58.2660   29.9390   47.6130 C   0  0  0  0  0  0  0  0  0  0  0  0
   59.4480   29.8360   51.1080 C   0  0  0  0  0  0  0  0  0  0  0  0
   59.0510   30.3620   52.4920 C   0  0  0  0  0  0  0  0  0  0  0  0
   54.6860   30.7600   51.2670 C   0  0  0  0  0  0  0  0  0  0  0  0
   53.3760   31.2450   51.3280 C   0  0  0  0  0  0  0  0  0  0  0  0
   50.1150   33.4200   52.0130 H   0  0  0  0  0  0  0  0  0  0  0  0
   52.6762   30.5142   54.5968 H   0  0  0  0  0  0  0  0  0  0  0  0
   55.0118   29.6573   54.4869 H   0  0  0  0  0  0  0  0  0  0  0  0
   56.8458   28.9291   53.1392 H   0  0  0  0  0  0  0  0  0  0  0  0
   56.8828   29.2300   51.3608 H   0  0  0  0  0  0  0  0  0  0  0  0
   56.4054   32.2441   51.6891 H   0  0  0  0  0  0  0  0  0  0  0  0
   58.1545   32.7116   51.9243 H   0  0  0  0  0  0  0  0  0  0  0  0
   56.8501   31.1591   49.7068 H   0  0  0  0  0  0  0  0  0  0  0  0
   58.1161   32.4939   49.6902 H   0  0  0  0  0  0  0  0  0  0  0  0
   61.3822   30.3219   48.9781 H   0  0  0  0  0  0  0  0  0  0  0  0
   62.0316   29.6827   46.6666 H   0  0  0  0  0  0  0  0  0  0  0  0
   60.2878   29.2046   44.9540 H   0  0  0  0  0  0  0  0  0  0  0  0
   55.5400   27.9660   45.0610 H   0  0  0  0  0  0  0  0  0  0  0  0
   57.1984   30.0077   47.8688 H   0  0  0  0  0  0  0  0  0  0  0  0
   59.1339   28.7841   51.0382 H   0  0  0  0  0  0  0  0  0  0  0  0
   60.5368   29.9689   51.0257 H   0  0  0  0  0  0  0  0  0  0  0  0
   59.2047   29.5615   53.2306 H   0  0  0  0  0  0  0  0  0  0  0  0
   59.6788   31.2391   52.7078 H   0  0  0  0  0  0  0  0  0  0  0  0
   55.2538   30.8330   50.3277 H   0  0  0  0  0  0  0  0  0  0  0  0
   52.9194   31.6961   50.4347 H   0  0  0  0  0  0  0  0  0  0  0  0
  1  2  1  0
  2  3  2  0
  2  4  1  0
  4  5  2  0
  5  6  1  0
  6  7  2  0
  7  8  1  0
  8  9  1  0
  9 10  1  0
 10 11  1  0
 11 12  1  0
 12 13  1  0
 13 14  2  0
 14 15  1  0
 15 16  2  0
 16 17  1  0
 17 18  1  0
 18 19  1  0
 18 20  2  0
 18 21  2  0
 17 22  2  0
 12 23  1  0
 23 24  1  0
  7 25  1  0
 25 26  2  0
 26  4  1  0
 24  9  1  0
 22 13  1  0
  1 27  1  0
  5 28  1  0
  6 29  1  0
  8 30  1  0
  8 31  1  0
 10 32  1  0
 10 33  1  0
 11 34  1  0
 11 35  1  0
 14 36  1  0
 15 37  1  0
 16 38  1  0
 19 39  1  0
 22 40  1  0
 23 41  1  0
 23 42  1  0
 24 43  1  0
 24 44  1  0
 25 45  1  0
 26 46  1  0
M  CHG  2   1  -1  19  -1
M  END
>  <UniqueID>  (71) 
70

>  <SMILES>  (71) 
[NH-]C(=O)c1ccc(CN2CCN(c3cccc(S([NH-])(=O)=O)c3)CC2)cc1

>  <Energy>  (71) 
58.43276051938313

>  <Genealogy>  (71) 
[NH-]C(=O)c1ccc(CN2CCN(c3cccc(S([NH-])(=O)=O)c3)CC2)cc1 (protonated)
[NH-]C(=O)c1ccc(CN2CCN(c3cccc(S([NH-])(=O)=O)c3)CC2)cc1 (3D coordinates assigned)
[NH-]C(=O)c1ccc(CN2CCN(c3cccc(S([NH-])(=O)=O)c3)CC2)cc1 (nonaromatic ring conformer: 58.43276051938313 kcal/mol)

>  <smiles>  (71) 
NC(=O)c1ccc(CN2CCN(c3cccc(S(N)(=O)=O)c3)CC2)cc1

>  <score_type>  (71) 
oracle

>  <origin>  (71) 
adg

>  <m_score__min__energy>  (71) 
-12.42

>  <m_primary>  (71) 
energy

$$$$
71:0
     RDKit          3D

 55 58  0  0  0  0  0  0  0  0999 V2000
   59.5630   35.1650   46.3730 C   0  0  0  0  0  0  0  0  0  0  0  0
   58.9360   33.8380   46.0350 C   0  0  0  0  0  0  0  0  0  0  0  0
   58.2140   33.7110   44.8360 C   0  0  0  0  0  0  0  0  0  0  0  0
   57.6100   32.5010   44.4940 C   0  0  0  0  0  0  0  0  0  0  0  0
   57.7250   31.3890   45.3360 C   0  0  0  0  0  0  0  0  0  0  0  0
   57.0700   30.1120   44.9900 C   0  0  0  0  0  0  0  0  0  0  0  0
   55.8980   30.1420   44.5260 O   0  0  0  0  0  0  0  0  0  0  0  0
   57.7280   28.8410   45.1870 N   0  0  0  0  0  0  0  0  0  0  0  0
   58.8800   28.4690   44.3570 C   0  0  0  0  0  0  0  0  0  0  0  0
   57.3990   28.0270   46.3630 C   0  0  0  0  0  0  0  0  0  0  0  0
   56.8580   26.6970   45.9390 C   0  0  0  0  0  0  0  0  0  0  0  0
   55.5280   26.4360   46.0480 N   0  0  0  0  0  0  0  0  0  0  0  0
   55.0120   25.2280   45.7030 C   0  0  0  0  0  0  0  0  0  0  0  0
   53.7730   25.0310   45.8170 O   0  0  0  0  0  0  0  0  0  0  0  0
   55.8650   24.2180   45.2280 C   0  0  0  0  0  0  0  0  0  0  0  0
   55.3960   22.9440   44.8610 C   0  0  0  0  0  0  0  0  0  0  0  0
   56.2930   21.9750   44.4000 C   0  0  0  0  0  0  0  0  0  0  0  0
   57.6570   22.2690   44.3020 C   0  0  0  0  0  0  0  0  0  0  0  0
   58.1320   23.5320   44.6620 C   0  0  0  0  0  0  0  0  0  0  0  0
   57.2420   24.5090   45.1260 C   0  0  0  0  0  0  0  0  0  0  0  0
   57.7030   25.7340   45.4840 N   0  0  0  0  0  0  0  0  0  0  0  0
   58.4290   31.5110   46.5410 C   0  0  0  0  0  0  0  0  0  0  0  0
   59.0490   32.7200   46.8970 C   0  0  0  0  0  0  0  0  0  0  0  0
   59.9330   32.8090   48.4320 S   0  0  0  0  0  0  0  0  0  0  0  0
   60.1330   31.4190   48.9660 O   0  0  0  0  0  0  0  0  0  0  0  0
   59.1370   33.5930   49.4400 O   0  0  0  0  0  0  0  0  0  0  0  0
   61.4840   33.5790   48.1900 N   0  0  0  0  0  0  0  0  0  0  0  0
   62.2540   32.9030   47.1230 C   0  0  0  0  0  0  0  0  0  0  0  0
   63.4090   32.0590   47.6880 C   0  0  0  0  0  0  0  0  0  0  0  0
   64.3300   32.8240   48.4490 O   0  0  0  0  0  0  0  0  0  0  0  0
   63.7190   33.8450   49.2310 C   0  0  0  0  0  0  0  0  0  0  0  0
   62.2120   33.6510   49.4720 C   0  0  0  0  0  0  0  0  0  0  0  0
   59.6162   35.2776   47.4659 H   0  0  0  0  0  0  0  0  0  0  0  0
   60.5774   35.2096   45.9500 H   0  0  0  0  0  0  0  0  0  0  0  0
   58.9533   35.9770   45.9500 H   0  0  0  0  0  0  0  0  0  0  0  0
   58.1243   34.5744   44.1604 H   0  0  0  0  0  0  0  0  0  0  0  0
   57.0398   32.4203   43.5568 H   0  0  0  0  0  0  0  0  0  0  0  0
   59.7259   28.1959   45.0050 H   0  0  0  0  0  0  0  0  0  0  0  0
   58.6128   27.6115   43.7220 H   0  0  0  0  0  0  0  0  0  0  0  0
   59.1647   29.3209   43.7220 H   0  0  0  0  0  0  0  0  0  0  0  0
   58.3073   27.8744   46.9644 H   0  0  0  0  0  0  0  0  0  0  0  0
   56.6365   28.5503   46.9586 H   0  0  0  0  0  0  0  0  0  0  0  0
   54.3239   22.7097   44.9365 H   0  0  0  0  0  0  0  0  0  0  0  0
   55.9248   20.9788   44.1137 H   0  0  0  0  0  0  0  0  0  0  0  0
   58.3581   21.5026   43.9400 H   0  0  0  0  0  0  0  0  0  0  0  0
   59.2052   23.7596   44.5812 H   0  0  0  0  0  0  0  0  0  0  0  0
   58.4972   30.6471   47.2185 H   0  0  0  0  0  0  0  0  0  0  0  0
   61.5764   32.2447   46.5596 H   0  0  0  0  0  0  0  0  0  0  0  0
   62.6874   33.6790   46.4750 H   0  0  0  0  0  0  0  0  0  0  0  0
   62.9874   31.2739   48.3329 H   0  0  0  0  0  0  0  0  0  0  0  0
   63.9576   31.6357   46.8337 H   0  0  0  0  0  0  0  0  0  0  0  0
   64.2218   33.8755   50.2089 H   0  0  0  0  0  0  0  0  0  0  0  0
   63.8261   34.7801   48.6617 H   0  0  0  0  0  0  0  0  0  0  0  0
   62.0529   32.7169   50.0306 H   0  0  0  0  0  0  0  0  0  0  0  0
   61.8323   34.5086   50.0468 H   0  0  0  0  0  0  0  0  0  0  0  0
  1  2  1  0
  2  3  2  0
  3  4  1  0
  4  5  2  0
  5  6  1  0
  6  7  2  0
  6  8  1  0
  8  9  1  0
  8 10  1  0
 10 11  1  0
 11 12  2  0
 12 13  1  0
 13 14  2  0
 13 15  1  0
 15 16  2  0
 16 17  1  0
 17 18  2  0
 18 19  1  0
 19 20  2  0
 20 21  1  0
  5 22  1  0
 22 23  2  0
 23 24  1  0
 24 25  2  0
 24 26  2  0
 24 27  1  0
 27 28  1  0
 28 29  1  0
 29 30  1  0
 30 31  1  0
 31 32  1  0
 23  2  1  0
 32 27  1  0
 21 11  1  0
 20 15  1  0
  1 33  1  0
  1 34  1  0
  1 35  1  0
  3 36  1  0
  4 37  1  0
  9 38  1  0
  9 39  1  0
  9 40  1  0
 10 41  1  0
 10 42  1  0
 16 43  1  0
 17 44  1  0
 18 45  1  0
 19 46  1  0
 22 47  1  0
 28 48  1  0
 28 49  1  0
 29 50  1  0
 29 51  1  0
 31 52  1  0
 31 53  1  0
 32 54  1  0
 32 55  1  0
M  CHG  1  21  -1
M  END
>  <UniqueID>  (72) 
71

>  <SMILES>  (72) 
Cc1ccc(C(=O)N(C)Cc2nc(=O)c3ccccc3[n-]2)cc1S(=O)(=O)N1CCOCC1

>  <Energy>  (72) 
78.46214334037424

>  <Genealogy>  (72) 
Cc1ccc(C(=O)N(C)Cc2nc(=O)c3ccccc3[n-]2)cc1S(=O)(=O)N1CCOCC1 (protonated)
Cc1ccc(C(=O)N(C)Cc2nc(=O)c3ccccc3[n-]2)cc1S(=O)(=O)N1CCOCC1 (3D coordinates assigned)
Cc1ccc(C(=O)N(C)Cc2nc(=O)c3ccccc3[n-]2)cc1S(=O)(=O)N1CCOCC1 (nonaromatic ring conformer: 78.46214334037424 kcal/mol)

>  <smiles>  (72) 
Cc1ccc(C(=O)N(C)Cc2nc(=O)c3ccccc3[nH]2)cc1S(=O)(=O)N1CCOCC1

>  <score_type>  (72) 
oracle

>  <origin>  (72) 
adg

>  <m_score__min__energy>  (72) 
-12.4

>  <m_primary>  (72) 
energy

$$$$
72:0
     RDKit          3D

 62 64  0  0  0  0  0  0  0  0999 V2000
   57.7800   28.1170   43.3150 C   0  0  0  0  0  0  0  0  0  0  0  0
   56.7440   29.0410   43.9550 C   0  0  1  0  0  0  0  0  0  0  0  0
   56.4580   28.6120   45.2870 O   0  0  0  0  0  0  0  0  0  0  0  0
   57.4420   28.2450   46.2150 C   0  0  0  0  0  0  0  0  0  0  0  0
   57.7720   29.0540   47.1250 O   0  0  0  0  0  0  0  0  0  0  0  0
   58.0890   26.9080   46.1030 C   0  0  0  0  0  0  0  0  0  0  0  0
   59.4970   26.8460   46.0910 C   0  0  0  0  0  0  0  0  0  0  0  0
   60.1620   25.6220   46.0050 C   0  0  0  0  0  0  0  0  0  0  0  0
   59.4370   24.4360   45.9290 C   0  0  0  0  0  0  0  0  0  0  0  0
   58.0430   24.4670   45.9410 C   0  0  0  0  0  0  0  0  0  0  0  0
   57.3570   25.6890   46.0260 C   0  0  0  0  0  0  0  0  0  0  0  0
   55.8820   25.6410   46.0370 C   0  0  0  0  0  0  0  0  0  0  0  0
   55.2290   26.7170   46.0010 O   0  0  0  0  0  0  0  0  0  0  0  0
   55.1790   24.3960   46.0710 N   0  0  0  0  0  0  0  0  0  0  0  0
   54.6230   23.7520   44.8860 C   0  0  0  0  0  0  0  0  0  0  0  0
   55.7470   23.1740   44.0240 C   0  0  0  0  0  0  0  0  0  0  0  0
   55.8690   21.7120   44.2290 N   0  0  0  0  0  0  0  0  0  0  0  0
   57.2280   21.1900   43.9640 C   0  0  0  0  0  0  0  0  0  0  0  0
   58.2240   21.5020   45.1010 C   0  0  0  0  0  0  0  0  0  0  0  0
   57.7170   21.1120   46.4300 N   0  0  0  0  0  0  0  0  0  0  0  0
   57.8120   19.6600   46.6640 C   0  0  0  0  0  0  0  0  0  0  0  0
   56.3620   21.6390   46.6770 C   0  0  0  0  0  0  0  0  0  0  0  0
   55.3800   21.2760   45.5500 C   0  0  0  0  0  0  0  0  0  0  0  0
   57.2650   30.4500   43.9870 C   0  0  0  0  0  0  0  0  0  0  0  0
   57.4600   31.0690   42.9030 O   0  0  0  0  0  0  0  0  0  0  0  0
   57.4570   31.1120   45.2470 N   0  0  0  0  0  0  0  0  0  0  0  0
   58.1570   32.3620   45.3900 C   0  0  0  0  0  0  0  0  0  0  0  0
   57.6720   33.5280   44.7720 C   0  0  0  0  0  0  0  0  0  0  0  0
   58.3650   34.7350   44.8860 C   0  0  0  0  0  0  0  0  0  0  0  0
   59.5600   34.7880   45.6020 C   0  0  0  0  0  0  0  0  0  0  0  0
   60.0630   33.6370   46.2110 C   0  0  0  0  0  0  0  0  0  0  0  0
   59.3720   32.4220   46.1080 C   0  0  0  0  0  0  0  0  0  0  0  0
   59.8980   31.2580   46.7790 C   0  0  0  0  0  0  0  0  0  0  0  0
   60.3190   30.3210   47.3140 N   0  0  0  0  0  0  0  0  0  0  0  0
   58.3525   27.6063   44.1033 H   0  0  0  0  0  0  0  0  0  0  0  0
   57.2687   27.3696   42.6906 H   0  0  0  0  0  0  0  0  0  0  0  0
   58.4643   28.7102   42.6906 H   0  0  0  0  0  0  0  0  0  0  0  0
   55.8219   29.0042   43.3563 H   0  0  0  0  0  0  0  0  0  0  0  0
   60.0807   27.7765   46.1503 H   0  0  0  0  0  0  0  0  0  0  0  0
   61.2616   25.5943   45.9973 H   0  0  0  0  0  0  0  0  0  0  0  0
   59.9645   23.4732   45.8594 H   0  0  0  0  0  0  0  0  0  0  0  0
   57.4760   23.5261   45.8834 H   0  0  0  0  0  0  0  0  0  0  0  0
   53.9485   22.9403   45.1960 H   0  0  0  0  0  0  0  0  0  0  0  0
   54.0670   24.4978   44.2990 H   0  0  0  0  0  0  0  0  0  0  0  0
   55.5273   23.3724   42.9646 H   0  0  0  0  0  0  0  0  0  0  0  0
   56.6947   23.6509   44.3146 H   0  0  0  0  0  0  0  0  0  0  0  0
   57.1668   20.0986   43.8407 H   0  0  0  0  0  0  0  0  0  0  0  0
   57.5999   21.6847   43.0546 H   0  0  0  0  0  0  0  0  0  0  0  0
   59.1594   20.9563   44.9080 H   0  0  0  0  0  0  0  0  0  0  0  0
   58.3808   22.5907   45.1135 H   0  0  0  0  0  0  0  0  0  0  0  0
   57.8249   19.4631   47.7462 H   0  0  0  0  0  0  0  0  0  0  0  0
   56.9448   19.1580   46.2103 H   0  0  0  0  0  0  0  0  0  0  0  0
   58.7372   19.2752   46.2103 H   0  0  0  0  0  0  0  0  0  0  0  0
   55.9863   21.2200   47.6221 H   0  0  0  0  0  0  0  0  0  0  0  0
   56.4308   22.7359   46.7231 H   0  0  0  0  0  0  0  0  0  0  0  0
   55.2437   20.1846   45.5357 H   0  0  0  0  0  0  0  0  0  0  0  0
   54.4296   21.7933   45.7480 H   0  0  0  0  0  0  0  0  0  0  0  0
   57.0200   30.6820   46.0930 H   0  0  0  0  0  0  0  0  0  0  0  0
   56.7375   33.4891   44.1930 H   0  0  0  0  0  0  0  0  0  0  0  0
   57.9679   35.6441   44.4108 H   0  0  0  0  0  0  0  0  0  0  0  0
   60.1074   35.7383   45.6872 H   0  0  0  0  0  0  0  0  0  0  0  0
   61.0065   33.6839   46.7746 H   0  0  0  0  0  0  0  0  0  0  0  0
  1  2  1  0
  2  3  1  0
  3  4  1  0
  4  5  2  0
  4  6  1  0
  6  7  2  0
  7  8  1  0
  8  9  2  0
  9 10  1  0
 10 11  2  0
 11 12  1  0
 12 13  2  0
 12 14  1  0
 14 15  1  0
 15 16  1  0
 16 17  1  0
 17 18  1  0
 18 19  1  0
 19 20  1  0
 20 21  1  0
 20 22  1  0
 22 23  1  0
  2 24  1  0
 24 25  2  0
 24 26  1  0
 26 27  1  0
 27 28  2  0
 28 29  1  0
 29 30  2  0
 30 31  1  0
 31 32  2  0
 32 33  1  0
 33 34  3  0
 11  6  1  0
 23 17  1  0
 32 27  1  0
  1 35  1  0
  1 36  1  0
  1 37  1  0
  2 38  1  6
  7 39  1  0
  8 40  1  0
  9 41  1  0
 10 42  1  0
 15 43  1  0
 15 44  1  0
 16 45  1  0
 16 46  1  0
 18 47  1  0
 18 48  1  0
 19 49  1  0
 19 50  1  0
 21 51  1  0
 21 52  1  0
 21 53  1  0
 22 54  1  0
 22 55  1  0
 23 56  1  0
 23 57  1  0
 26 58  1  0
 28 59  1  0
 29 60  1  0
 30 61  1  0
 31 62  1  0
M  CHG  1  14  -1
M  END
>  <UniqueID>  (73) 
72

>  <SMILES>  (73) 
C[C@@H](OC(=O)c1ccccc1C(=O)[N-]CCN1CCN(C)CC1)C(=O)Nc1ccccc1C#N

>  <Energy>  (73) 
76.84175074579943

>  <Genealogy>  (73) 
CC(OC(=O)c1ccccc1C(=O)[N-]CCN1CCN(C)CC1)C(=O)Nc1ccccc1C#N (protonated)
C[C@@H](OC(=O)c1ccccc1C(=O)[N-]CCN1CCN(C)CC1)C(=O)Nc1ccccc1C#N (chirality)
C[C@@H](OC(=O)c1ccccc1C(=O)[N-]CCN1CCN(C)CC1)C(=O)Nc1ccccc1C#N (3D coordinates assigned)
C[C@@H](OC(=O)c1ccccc1C(=O)[N-]CCN1CCN(C)CC1)C(=O)Nc1ccccc1C#N (nonaromatic ring conformer: 76.84175074579943 kcal/mol)

>  <smiles>  (73) 
CC(OC(=O)c1ccccc1C(=O)NCCN1CCN(C)CC1)C(=O)Nc1ccccc1C#N

>  <score_type>  (73) 
oracle

>  <origin>  (73) 
adg

>  <m_score__min__energy>  (73) 
-11.48

>  <m_primary>  (73) 
energy

$$$$
73:0
     RDKit          3D

 41 44  0  0  0  0  0  0  0  0999 V2000
   57.9640   30.0990   44.2810 N   0  0  0  0  0  0  0  0  0  0  0  0
   58.2510   31.0300   45.1340 C   0  0  0  0  0  0  0  0  0  0  0  0
   57.3510   32.0380   45.3220 N   0  0  0  0  0  0  0  0  0  0  0  0
   57.5830   33.0710   46.1830 C   0  0  0  0  0  0  0  0  0  0  0  0
   58.7810   33.1180   46.8940 C   0  0  0  0  0  0  0  0  0  0  0  0
   59.6830   32.1220   46.6900 N   0  0  0  0  0  0  0  0  0  0  0  0
   60.8790   31.9030   47.2750 C   0  0  0  0  0  0  0  0  0  0  0  0
   61.5240   32.7900   48.2660 C   0  0  0  0  0  0  0  0  0  0  0  0
   60.9160   32.9880   49.5130 C   0  0  0  0  0  0  0  0  0  0  0  0
   61.5160   33.8160   50.4610 C   0  0  0  0  0  0  0  0  0  0  0  0
   62.7320   34.4310   50.1610 C   0  0  0  0  0  0  0  0  0  0  0  0
   63.3280   34.2090   48.9590 N   0  0  0  0  0  0  0  0  0  0  0  0
   62.7660   33.4070   48.0160 C   0  0  0  0  0  0  0  0  0  0  0  0
   63.3800   33.2060   46.9330 O   0  0  0  0  0  0  0  0  0  0  0  0
   61.4250   30.7320   46.8850 N   0  0  0  0  0  0  0  0  0  0  0  0
   60.5480   30.2080   45.9960 C   0  0  0  0  0  0  0  0  0  0  0  0
   60.7670   28.8430   45.4020 C   0  0  0  0  0  0  0  0  0  0  0  0
   59.5450   27.9630   45.5250 C   0  0  0  0  0  0  0  0  0  0  0  0
   59.0110   27.6430   46.7870 C   0  0  0  0  0  0  0  0  0  0  0  0
   57.9020   26.7990   46.8930 C   0  0  0  0  0  0  0  0  0  0  0  0
   57.3260   26.2420   45.7430 C   0  0  0  0  0  0  0  0  0  0  0  0
   55.9190   25.1940   45.8800 S   0  0  0  0  0  0  0  0  0  0  0  0
   54.4890   26.1570   45.9870 N   0  0  0  0  0  0  0  0  0  0  0  0
   55.8300   24.3000   44.6740 O   0  0  0  0  0  0  0  0  0  0  0  0
   56.0400   24.3350   47.1070 O   0  0  0  0  0  0  0  0  0  0  0  0
   57.8670   26.5380   44.4860 C   0  0  0  0  0  0  0  0  0  0  0  0
   58.9760   27.3820   44.3780 C   0  0  0  0  0  0  0  0  0  0  0  0
   59.4580   31.0780   45.8720 C   0  0  0  0  0  0  0  0  0  0  0  0
   58.4760   29.9140   43.4010 H   0  0  0  0  0  0  0  0  0  0  0  0
   56.8295   33.8614   46.3151 H   0  0  0  0  0  0  0  0  0  0  0  0
   58.9900   33.9363   47.5988 H   0  0  0  0  0  0  0  0  0  0  0  0
   59.9633   32.4891   49.7445 H   0  0  0  0  0  0  0  0  0  0  0  0
   61.0352   33.9828   51.4362 H   0  0  0  0  0  0  0  0  0  0  0  0
   63.2086   35.0954   50.8968 H   0  0  0  0  0  0  0  0  0  0  0  0
   61.0159   28.9563   44.3365 H   0  0  0  0  0  0  0  0  0  0  0  0
   61.5863   28.3616   45.9561 H   0  0  0  0  0  0  0  0  0  0  0  0
   59.4694   28.0598   47.6959 H   0  0  0  0  0  0  0  0  0  0  0  0
   57.4796   26.5710   47.8828 H   0  0  0  0  0  0  0  0  0  0  0  0
   54.7660   27.0670   46.4200 H   0  0  0  0  0  0  0  0  0  0  0  0
   57.4177   26.1048   43.5802 H   0  0  0  0  0  0  0  0  0  0  0  0
   59.4068   27.5932   43.3882 H   0  0  0  0  0  0  0  0  0  0  0  0
  1  2  2  3
  2  3  1  0
  3  4  1  0
  4  5  2  0
  5  6  1  0
  6  7  1  0
  7  8  1  0
  8  9  2  0
  9 10  1  0
 10 11  2  0
 11 12  1  0
 12 13  1  0
 13 14  2  0
  7 15  2  0
 15 16  1  0
 16 17  1  0
 17 18  1  0
 18 19  2  0
 19 20  1  0
 20 21  2  0
 21 22  1  0
 22 23  1  0
 22 24  2  0
 22 25  2  0
 21 26  1  0
 26 27  2  0
 16 28  2  0
 28  2  1  0
 28  6  1  0
 13  8  1  0
 27 18  1  0
  1 29  1  0
  4 30  1  0
  5 31  1  0
  9 32  1  0
 10 33  1  0
 11 34  1  0
 17 35  1  0
 17 36  1  0
 19 37  1  0
 20 38  1  0
 23 39  1  0
 26 40  1  0
 27 41  1  0
M  CHG  3   3  -1  12  -1  23  -1
M  END
>  <UniqueID>  (74) 
73

>  <SMILES>  (74) 
N=c1[n-]ccn2c(-c3ccc[n-]c3=O)nc(Cc3ccc(S([NH-])(=O)=O)cc3)c12

>  <Energy>  (74) 
95.69102377743191

>  <Genealogy>  (74) 
N=c1[n-]ccn2c(-c3ccc[n-]c3=O)nc(Cc3ccc(S([NH-])(=O)=O)cc3)c12 (protonated)
N=c1[n-]ccn2c(-c3ccc[n-]c3=O)nc(Cc3ccc(S([NH-])(=O)=O)cc3)c12 (3D coordinates assigned)
N=c1[n-]ccn2c(-c3ccc[n-]c3=O)nc(Cc3ccc(S([NH-])(=O)=O)cc3)c12 (optimized conformer: 95.69102377743191 kcal/mol)

>  <smiles>  (74) 
N=c1[nH]ccn2c(-c3ccc[nH]c3=O)nc(Cc3ccc(S(N)(=O)=O)cc3)c12

>  <score_type>  (74) 
oracle

>  <origin>  (74) 
adg

>  <m_score__min__energy>  (74) 
-13.08

>  <m_primary>  (74) 
energy

$$$$
74:0
     RDKit          3D

 52 54  0  0  0  0  0  0  0  0999 V2000
   55.4820   30.0370   44.5310 O   0  0  0  0  0  0  0  0  0  0  0  0
   56.7210   29.8600   44.6760 C   0  0  0  0  0  0  0  0  0  0  0  0
   57.2090   28.6580   45.4420 C   0  0  0  0  0  0  0  0  0  0  0  0
   56.1370   27.6790   45.6190 N   0  0  0  0  0  0  0  0  0  0  0  0
   56.3910   26.3310   46.0320 C   0  0  0  0  0  0  0  0  0  0  0  0
   57.5740   25.9370   46.2230 O   0  0  0  0  0  0  0  0  0  0  0  0
   55.2920   25.4360   46.2280 N   0  0  0  0  0  0  0  0  0  0  0  0
   55.4520   24.0230   46.5520 C   0  0  0  0  0  0  0  0  0  0  0  0
   55.9960   23.2750   45.3640 C   0  0  0  0  0  0  0  0  0  0  0  0
   55.5390   23.5680   44.0680 C   0  0  0  0  0  0  0  0  0  0  0  0
   56.0270   22.8540   42.9690 C   0  0  0  0  0  0  0  0  0  0  0  0
   56.9720   21.8410   43.1530 C   0  0  0  0  0  0  0  0  0  0  0  0
   57.4290   21.5410   44.4390 C   0  0  0  0  0  0  0  0  0  0  0  0
   56.9440   22.2510   45.5440 C   0  0  0  0  0  0  0  0  0  0  0  0
   57.3950   21.9390   46.7840 F   0  0  0  0  0  0  0  0  0  0  0  0
   57.6220   30.8460   44.1540 N   0  0  0  0  0  0  0  0  0  0  0  0
   57.3930   32.2890   44.1310 C   0  0  0  0  0  0  0  0  0  0  0  0
   58.1800   32.9600   45.2120 C   0  0  0  0  0  0  0  0  0  0  0  0
   58.5230   34.3080   45.2590 C   0  0  0  0  0  0  0  0  0  0  0  0
   59.2830   34.6440   46.3840 C   0  0  0  0  0  0  0  0  0  0  0  0
   59.5320   33.5600   47.2150 C   0  0  0  0  0  0  0  0  0  0  0  0
   60.4230   33.6060   48.7250 S   0  0  0  0  0  0  0  0  0  0  0  0
   59.7020   34.5280   49.6680 O   0  0  0  0  0  0  0  0  0  0  0  0
   60.4410   32.2290   49.3260 O   0  0  0  0  0  0  0  0  0  0  0  0
   62.0460   34.2010   48.4400 N   0  0  0  0  0  0  0  0  0  0  0  0
   62.6440   33.6520   47.2070 C   0  0  0  0  0  0  0  0  0  0  0  0
   63.2490   32.2550   47.4210 C   0  0  0  0  0  0  0  0  0  0  0  0
   64.1670   32.2590   48.4930 O   0  0  0  0  0  0  0  0  0  0  0  0
   63.4940   32.5950   49.6880 C   0  0  0  0  0  0  0  0  0  0  0  0
   62.9240   34.0190   49.6100 C   0  0  0  0  0  0  0  0  0  0  0  0
   58.8200   32.1860   46.5630 S   0  0  0  0  0  0  0  0  0  0  0  0
   58.0360   28.1898   44.8880 H   0  0  0  0  0  0  0  0  0  0  0  0
   57.5488   28.9890   46.4344 H   0  0  0  0  0  0  0  0  0  0  0  0
   55.1490   27.9820   45.4700 H   0  0  0  0  0  0  0  0  0  0  0  0
   56.1497   23.9206   47.3963 H   0  0  0  0  0  0  0  0  0  0  0  0
   54.4715   23.6036   46.8217 H   0  0  0  0  0  0  0  0  0  0  0  0
   54.7937   24.3629   43.9171 H   0  0  0  0  0  0  0  0  0  0  0  0
   55.6661   23.0903   41.9571 H   0  0  0  0  0  0  0  0  0  0  0  0
   57.3553   21.2810   42.2873 H   0  0  0  0  0  0  0  0  0  0  0  0
   58.1729   20.7437   44.5838 H   0  0  0  0  0  0  0  0  0  0  0  0
   57.7036   32.6896   43.1548 H   0  0  0  0  0  0  0  0  0  0  0  0
   56.3229   32.4828   44.2964 H   0  0  0  0  0  0  0  0  0  0  0  0
   58.2264   35.0356   44.4892 H   0  0  0  0  0  0  0  0  0  0  0  0
   59.6460   35.6619   46.5892 H   0  0  0  0  0  0  0  0  0  0  0  0
   61.8630   33.5843   46.4354 H   0  0  0  0  0  0  0  0  0  0  0  0
   63.4570   34.3261   46.8995 H   0  0  0  0  0  0  0  0  0  0  0  0
   62.4403   31.5431   47.6429 H   0  0  0  0  0  0  0  0  0  0  0  0
   63.7820   31.9604   46.5050 H   0  0  0  0  0  0  0  0  0  0  0  0
   62.6697   31.8848   49.8498 H   0  0  0  0  0  0  0  0  0  0  0  0
   64.2098   32.5465   50.5218 H   0  0  0  0  0  0  0  0  0  0  0  0
   62.3444   34.2197   50.5231 H   0  0  0  0  0  0  0  0  0  0  0  0
   63.7684   34.7172   49.5120 H   0  0  0  0  0  0  0  0  0  0  0  0
  1  2  2  0
  2  3  1  0
  3  4  1  0
  4  5  1  0
  5  6  2  0
  5  7  1  0
  7  8  1  0
  8  9  1  0
  9 10  2  0
 10 11  1  0
 11 12  2  0
 12 13  1  0
 13 14  2  0
 14 15  1  0
  2 16  1  0
 16 17  1  0
 17 18  1  0
 18 19  2  0
 19 20  1  0
 20 21  2  0
 21 22  1  0
 22 23  2  0
 22 24  2  0
 22 25  1  0
 25 26  1  0
 26 27  1  0
 27 28  1  0
 28 29  1  0
 29 30  1  0
 21 31  1  0
 14  9  1  0
 31 18  1  0
 30 25  1  0
  3 32  1  0
  3 33  1  0
  4 34  1  0
  8 35  1  0
  8 36  1  0
 10 37  1  0
 11 38  1  0
 12 39  1  0
 13 40  1  0
 17 41  1  0
 17 42  1  0
 19 43  1  0
 20 44  1  0
 26 45  1  0
 26 46  1  0
 27 47  1  0
 27 48  1  0
 29 49  1  0
 29 50  1  0
 30 51  1  0
 30 52  1  0
M  CHG  2   7  -1  16  -1
M  END
>  <UniqueID>  (75) 
74

>  <SMILES>  (75) 
O=C(CNC(=O)[N-]Cc1ccccc1F)[N-]Cc1ccc(S(=O)(=O)N2CCOCC2)s1

>  <Energy>  (75) 
76.37076271434962

>  <Genealogy>  (75) 
O=C(CNC(=O)[N-]Cc1ccccc1F)[N-]Cc1ccc(S(=O)(=O)N2CCOCC2)s1 (protonated)
O=C(CNC(=O)[N-]Cc1ccccc1F)[N-]Cc1ccc(S(=O)(=O)N2CCOCC2)s1 (3D coordinates assigned)
O=C(CNC(=O)[N-]Cc1ccccc1F)[N-]Cc1ccc(S(=O)(=O)N2CCOCC2)s1 (nonaromatic ring conformer: 76.37076271434962 kcal/mol)

>  <smiles>  (75) 
O=C(CNC(=O)NCc1ccccc1F)NCc1ccc(S(=O)(=O)N2CCOCC2)s1

>  <score_type>  (75) 
oracle

>  <origin>  (75) 
adg

>  <m_score__min__energy>  (75) 
-12.869999999999999

>  <m_primary>  (75) 
energy

$$$$
75:0
     RDKit          3D

 43 45  0  0  0  0  0  0  0  0999 V2000
   67.0470   34.0700   51.2940 C   0  0  0  0  0  0  0  0  0  0  0  0
   66.5690   33.0920   50.3230 N   0  0  0  0  0  0  0  0  0  0  0  0
   65.3210   32.9450   49.9920 C   0  0  0  0  0  0  0  0  0  0  0  0
   64.9190   33.0830   48.6990 N   0  0  0  0  0  0  0  0  0  0  0  0
   63.6170   32.9330   48.3360 C   0  0  0  0  0  0  0  0  0  0  0  0
   63.2590   33.1230   46.8900 C   0  0  0  0  0  0  0  0  0  0  0  0
   62.6530   32.6150   49.3190 C   0  0  0  0  0  0  0  0  0  0  0  0
   61.2200   32.4030   48.9970 C   0  0  0  0  0  0  0  0  0  0  0  0
   60.4730   33.3940   48.3450 C   0  0  0  0  0  0  0  0  0  0  0  0
   59.1260   33.1470   48.0750 C   0  0  0  0  0  0  0  0  0  0  0  0
   58.4280   34.0150   47.4870 O   0  0  0  0  0  0  0  0  0  0  0  0
   58.5660   31.9690   48.4470 N   0  0  0  0  0  0  0  0  0  0  0  0
   59.2970   31.0140   49.0870 C   0  0  0  0  0  0  0  0  0  0  0  0
   58.7570   29.8890   49.4490 N   0  0  0  0  0  0  0  0  0  0  0  0
   58.9440   28.6100   48.7620 C   0  0  0  0  0  0  0  0  0  0  0  0
   59.0120   28.8160   47.2720 C   0  0  0  0  0  0  0  0  0  0  0  0
   60.1590   28.4330   46.5610 C   0  0  0  0  0  0  0  0  0  0  0  0
   60.2110   28.5830   45.1740 C   0  0  0  0  0  0  0  0  0  0  0  0
   59.1170   29.1110   44.4830 C   0  0  0  0  0  0  0  0  0  0  0  0
   57.9640   29.4970   45.1820 C   0  0  0  0  0  0  0  0  0  0  0  0
   56.5660   30.1350   44.3240 S   0  0  0  0  0  0  0  0  0  0  0  0
   55.1410   29.3210   44.8630 N   0  0  0  0  0  0  0  0  0  0  0  0
   56.7260   29.9310   42.8430 O   0  0  0  0  0  0  0  0  0  0  0  0
   56.4390   31.6070   44.5980 O   0  0  0  0  0  0  0  0  0  0  0  0
   57.9140   29.3470   46.5740 C   0  0  0  0  0  0  0  0  0  0  0  0
   60.6100   31.2400   49.3530 N   0  0  0  0  0  0  0  0  0  0  0  0
   63.0970   32.4860   50.6450 C   0  0  0  0  0  0  0  0  0  0  0  0
   64.4080   32.6510   50.9500 N   0  0  0  0  0  0  0  0  0  0  0  0
   66.8640   33.6956   52.3120 H   0  0  0  0  0  0  0  0  0  0  0  0
   68.1256   34.2316   51.1511 H   0  0  0  0  0  0  0  0  0  0  0  0
   66.5118   35.0203   51.1511 H   0  0  0  0  0  0  0  0  0  0  0  0
   62.2895   33.6375   46.8168 H   0  0  0  0  0  0  0  0  0  0  0  0
   64.0337   33.7287   46.3970 H   0  0  0  0  0  0  0  0  0  0  0  0
   63.1916   32.1420   46.3970 H   0  0  0  0  0  0  0  0  0  0  0  0
   60.9387   34.3466   48.0522 H   0  0  0  0  0  0  0  0  0  0  0  0
   59.8808   28.1477   49.1065 H   0  0  0  0  0  0  0  0  0  0  0  0
   58.0907   27.9550   48.9917 H   0  0  0  0  0  0  0  0  0  0  0  0
   61.0215   28.0125   47.0989 H   0  0  0  0  0  0  0  0  0  0  0  0
   61.1155   28.2848   44.6235 H   0  0  0  0  0  0  0  0  0  0  0  0
   59.1603   29.2240   43.3897 H   0  0  0  0  0  0  0  0  0  0  0  0
   55.4220   28.7170   45.6680 H   0  0  0  0  0  0  0  0  0  0  0  0
   57.0097   29.6467   47.1240 H   0  0  0  0  0  0  0  0  0  0  0  0
   62.3764   32.2495   51.4417 H   0  0  0  0  0  0  0  0  0  0  0  0
  1  2  1  0
  2  3  2  3
  3  4  1  0
  4  5  2  0
  5  6  1  0
  5  7  1  0
  7  8  1  0
  8  9  2  0
  9 10  1  0
 10 11  2  0
 10 12  1  0
 12 13  1  0
 13 14  2  3
 14 15  1  0
 15 16  1  0
 16 17  2  0
 17 18  1  0
 18 19  2  0
 19 20  1  0
 20 21  1  0
 21 22  1  0
 21 23  2  0
 21 24  2  0
 20 25  2  0
 13 26  1  0
  7 27  2  0
 27 28  1  0
 28  3  1  0
 26  8  1  0
 25 16  1  0
  1 29  1  0
  1 30  1  0
  1 31  1  0
  6 32  1  0
  6 33  1  0
  6 34  1  0
  9 35  1  0
 15 36  1  0
 15 37  1  0
 17 38  1  0
 18 39  1  0
 19 40  1  0
 22 41  1  0
 25 42  1  0
 27 43  1  0
M  CHG  4  12  -1  22  -1  26  -1  28  -1
M  END
>  <UniqueID>  (76) 
75

>  <SMILES>  (76) 
CN=c1nc(C)c(-c2cc(=O)[n-]c(=NCc3cccc(S([NH-])(=O)=O)c3)[n-]2)c[n-]1

>  <Energy>  (76) 
49.885179784612674

>  <Genealogy>  (76) 
CN=c1nc(C)c(-c2cc(=O)[n-]c(=NCc3cccc(S([NH-])(=O)=O)c3)[n-]2)c[n-]1 (protonated)
CN=c1nc(C)c(-c2cc(=O)[n-]c(=NCc3cccc(S([NH-])(=O)=O)c3)[n-]2)c[n-]1 (3D coordinates assigned)
CN=c1nc(C)c(-c2cc(=O)[n-]c(=NCc3cccc(S([NH-])(=O)=O)c3)[n-]2)c[n-]1 (optimized conformer: 49.885179784612674 kcal/mol)

>  <smiles>  (76) 
CN=c1nc(C)c(-c2cc(=O)[nH]c(=NCc3cccc(S(N)(=O)=O)c3)[nH]2)c[nH]1

>  <score_type>  (76) 
oracle

>  <origin>  (76) 
adg

>  <m_score__min__energy>  (76) 
-13.91

>  <m_primary>  (76) 
energy

$$$$
76:0
     RDKit          3D

 64 68  0  0  0  0  0  0  0  0999 V2000
   56.2340   19.7600   43.5950 N   0  0  0  0  0  0  0  0  0  0  0  0
   56.7200   21.3900   43.2920 S   0  0  0  0  0  0  0  0  0  0  0  0
   58.2160   21.4480   43.1470 O   0  0  0  0  0  0  0  0  0  0  0  0
   56.0950   21.8710   42.0140 O   0  0  0  0  0  0  0  0  0  0  0  0
   56.2100   22.4170   44.6290 C   0  0  0  0  0  0  0  0  0  0  0  0
   55.0750   22.0850   45.3770 C   0  0  0  0  0  0  0  0  0  0  0  0
   54.6590   22.9110   46.4230 C   0  0  0  0  0  0  0  0  0  0  0  0
   55.3710   24.0740   46.7250 C   0  0  0  0  0  0  0  0  0  0  0  0
   56.5100   24.4270   45.9790 C   0  0  0  0  0  0  0  0  0  0  0  0
   57.2640   25.6680   46.2930 C   0  0  0  0  0  0  0  0  0  0  0  0
   58.4330   25.6180   47.0640 C   0  0  0  0  0  0  0  0  0  0  0  0
   59.1240   26.7950   47.3560 C   0  0  0  0  0  0  0  0  0  0  0  0
   58.6760   28.0030   46.8990 N   0  0  0  0  0  0  0  0  0  0  0  0
   59.4160   29.1920   47.2360 C   0  0  0  0  0  0  0  0  0  0  0  0
   60.6360   29.4720   46.6000 C   0  0  0  0  0  0  0  0  0  0  0  0
   61.3630   30.6170   46.9370 C   0  0  0  0  0  0  0  0  0  0  0  0
   60.8840   31.5020   47.9160 C   0  0  0  0  0  0  0  0  0  0  0  0
   61.6460   32.6700   48.2780 N   0  0  0  0  0  0  0  0  0  0  0  0
   62.8920   33.0060   47.5750 C   0  0  0  0  0  0  0  0  0  0  0  0
   64.0260   33.3090   48.5760 C   0  0  0  0  0  0  0  0  0  0  0  0
   63.5150   33.6460   49.9240 N   0  0  0  0  0  0  0  0  0  0  0  0
   64.5510   34.2020   50.8220 C   0  0  0  0  0  0  0  0  0  0  0  0
   65.7040   33.2550   51.0930 C   0  0  0  0  0  0  0  0  0  0  0  0
   65.4740   31.8740   51.2180 C   0  0  0  0  0  0  0  0  0  0  0  0
   66.5370   31.0020   51.4740 C   0  0  0  0  0  0  0  0  0  0  0  0
   67.8340   31.5000   51.6150 C   0  0  0  0  0  0  0  0  0  0  0  0
   68.0710   32.8720   51.5080 C   0  0  0  0  0  0  0  0  0  0  0  0
   67.0110   33.7480   51.2530 C   0  0  0  0  0  0  0  0  0  0  0  0
   62.2820   34.4490   49.8730 C   0  0  0  0  0  0  0  0  0  0  0  0
   61.1470   33.5820   49.3170 C   0  0  0  0  0  0  0  0  0  0  0  0
   59.6680   31.2150   48.5600 C   0  0  0  0  0  0  0  0  0  0  0  0
   58.9390   30.0720   48.2210 C   0  0  0  0  0  0  0  0  0  0  0  0
   57.5390   28.0730   46.1330 C   0  0  0  0  0  0  0  0  0  0  0  0
   57.1350   29.1800   45.6820 O   0  0  0  0  0  0  0  0  0  0  0  0
   56.8200   26.9140   45.8270 C   0  0  0  0  0  0  0  0  0  0  0  0
   56.9210   23.5880   44.9260 C   0  0  0  0  0  0  0  0  0  0  0  0
   56.8270   19.4050   44.3780 H   0  0  0  0  0  0  0  0  0  0  0  0
   56.4870   19.2030   42.7490 H   0  0  0  0  0  0  0  0  0  0  0  0
   54.5095   21.1716   45.1405 H   0  0  0  0  0  0  0  0  0  0  0  0
   53.7681   22.6451   47.0108 H   0  0  0  0  0  0  0  0  0  0  0  0
   55.0386   24.7185   47.5521 H   0  0  0  0  0  0  0  0  0  0  0  0
   58.8054   24.6530   47.4384 H   0  0  0  0  0  0  0  0  0  0  0  0
   60.0411   26.7500   47.9618 H   0  0  0  0  0  0  0  0  0  0  0  0
   61.0220   28.7859   45.8317 H   0  0  0  0  0  0  0  0  0  0  0  0
   62.3173   30.8263   46.4316 H   0  0  0  0  0  0  0  0  0  0  0  0
   63.1883   32.1567   46.9418 H   0  0  0  0  0  0  0  0  0  0  0  0
   62.7177   33.9017   46.9607 H   0  0  0  0  0  0  0  0  0  0  0  0
   64.6733   32.4231   48.6551 H   0  0  0  0  0  0  0  0  0  0  0  0
   64.5804   34.1816   48.2001 H   0  0  0  0  0  0  0  0  0  0  0  0
   64.9546   35.1155   50.3609 H   0  0  0  0  0  0  0  0  0  0  0  0
   64.0638   34.3958   51.7890 H   0  0  0  0  0  0  0  0  0  0  0  0
   64.4533   31.4773   51.1140 H   0  0  0  0  0  0  0  0  0  0  0  0
   66.3511   29.9216   51.5645 H   0  0  0  0  0  0  0  0  0  0  0  0
   68.6692   30.8113   51.8104 H   0  0  0  0  0  0  0  0  0  0  0  0
   69.0922   33.2641   51.6244 H   0  0  0  0  0  0  0  0  0  0  0  0
   67.2009   34.8288   51.1772 H   0  0  0  0  0  0  0  0  0  0  0  0
   62.0226   34.7919   50.8855 H   0  0  0  0  0  0  0  0  0  0  0  0
   62.4341   35.3243   49.2244 H   0  0  0  0  0  0  0  0  0  0  0  0
   60.7106   32.9912   50.1358 H   0  0  0  0  0  0  0  0  0  0  0  0
   60.3868   34.2406   48.8717 H   0  0  0  0  0  0  0  0  0  0  0  0
   59.2875   31.8950   49.3364 H   0  0  0  0  0  0  0  0  0  0  0  0
   57.9863   29.8604   48.7285 H   0  0  0  0  0  0  0  0  0  0  0  0
   55.9049   26.9793   45.2200 H   0  0  0  0  0  0  0  0  0  0  0  0
   57.8075   23.8535   44.3313 H   0  0  0  0  0  0  0  0  0  0  0  0
  1  2  1  0
  2  3  2  0
  2  4  2  0
  2  5  1  0
  5  6  2  0
  6  7  1  0
  7  8  2  0
  8  9  1  0
  9 10  1  0
 10 11  1  0
 11 12  2  0
 12 13  1  0
 13 14  1  0
 14 15  2  0
 15 16  1  0
 16 17  2  0
 17 18  1  0
 18 19  1  0
 19 20  1  0
 20 21  1  0
 21 22  1  0
 22 23  1  0
 23 24  2  0
 24 25  1  0
 25 26  2  0
 26 27  1  0
 27 28  2  0
 21 29  1  0
 29 30  1  0
 17 31  1  0
 31 32  2  0
 13 33  1  0
 33 34  2  0
 33 35  1  0
  9 36  2  0
 36  5  1  0
 35 10  2  0
 32 14  1  0
 30 18  1  0
 28 23  1  0
  1 37  1  0
  1 38  1  0
  6 39  1  0
  7 40  1  0
  8 41  1  0
 11 42  1  0
 12 43  1  0
 15 44  1  0
 16 45  1  0
 19 46  1  0
 19 47  1  0
 20 48  1  0
 20 49  1  0
 22 50  1  0
 22 51  1  0
 24 52  1  0
 25 53  1  0
 26 54  1  0
 27 55  1  0
 28 56  1  0
 29 57  1  0
 29 58  1  0
 30 59  1  0
 30 60  1  0
 31 61  1  0
 32 62  1  0
 35 63  1  0
 36 64  1  0
M  END
>  <UniqueID>  (77) 
76

>  <SMILES>  (77) 
NS(=O)(=O)c1cccc(-c2ccn(-c3ccc(N4CCN(Cc5ccccc5)CC4)cc3)c(=O)c2)c1

>  <Energy>  (77) 
94.83959325520772

>  <Genealogy>  (77) 
NS(=O)(=O)c1cccc(-c2ccn(-c3ccc(N4CCN(Cc5ccccc5)CC4)cc3)c(=O)c2)c1 (3D coordinates assigned)
NS(=O)(=O)c1cccc(-c2ccn(-c3ccc(N4CCN(Cc5ccccc5)CC4)cc3)c(=O)c2)c1 (nonaromatic ring conformer: 94.83959325520772 kcal/mol)

>  <smiles>  (77) 
NS(=O)(=O)c1cccc(-c2ccn(-c3ccc(N4CCN(Cc5ccccc5)CC4)cc3)c(=O)c2)c1

>  <score_type>  (77) 
oracle

>  <origin>  (77) 
adg

>  <m_score__min__energy>  (77) 
-9.2200000000000006

>  <m_primary>  (77) 
energy

$$$$
77:0
     RDKit          3D

 46 48  0  0  0  0  0  0  0  0999 V2000
   55.6670   29.1690   45.1530 O   0  0  0  0  0  0  0  0  0  0  0  0
   56.7650   29.6940   44.8310 C   0  0  0  0  0  0  0  0  0  0  0  0
   57.3520   29.3440   43.4890 C   0  0  0  0  0  0  0  0  0  0  0  0
   57.8180   27.5810   43.3370 S   0  0  0  0  0  0  0  0  0  0  0  0
   58.3630   27.3830   45.0430 C   0  0  0  0  0  0  0  0  0  0  0  0
   59.5190   28.0030   45.4080 N   0  0  0  0  0  0  0  0  0  0  0  0
   60.0480   27.8870   46.6520 C   0  0  0  0  0  0  0  0  0  0  0  0
   59.4020   27.1160   47.6130 C   0  0  0  0  0  0  0  0  0  0  0  0
   58.1980   26.4930   47.2890 C   0  0  0  0  0  0  0  0  0  0  0  0
   57.6430   26.6220   46.0020 C   0  0  0  0  0  0  0  0  0  0  0  0
   56.3090   26.0160   45.7370 C   0  0  0  0  0  0  0  0  0  0  0  0
   56.2260   24.8450   45.2810 O   0  0  0  0  0  0  0  0  0  0  0  0
   55.1310   26.6960   46.0240 O   0  0  0  0  0  0  0  0  0  0  0  0
   57.4010   30.5640   45.7800 N   0  0  0  0  0  0  0  0  0  0  0  0
   57.8390   31.9250   45.6400 C   0  0  0  0  0  0  0  0  0  0  0  0
   57.0590   32.8620   44.9400 C   0  0  0  0  0  0  0  0  0  0  0  0
   57.4700   34.1900   44.8310 C   0  0  0  0  0  0  0  0  0  0  0  0
   58.6440   34.6110   45.4490 C   0  0  0  0  0  0  0  0  0  0  0  0
   59.4000   33.7120   46.2000 C   0  0  0  0  0  0  0  0  0  0  0  0
   59.0070   32.3650   46.3210 C   0  0  0  0  0  0  0  0  0  0  0  0
   59.8210   31.4530   47.1730 C   0  0  0  0  0  0  0  0  0  0  0  0
   60.6590   30.6770   46.6390 O   0  0  0  0  0  0  0  0  0  0  0  0
   59.6540   31.4380   48.5930 N   0  0  0  0  0  0  0  0  0  0  0  0
   59.2920   30.2510   49.3550 C   0  0  0  0  0  0  0  0  0  0  0  0
   58.5330   30.6610   50.5870 C   0  0  0  0  0  0  0  0  0  0  0  0
   58.1530   29.7050   51.5450 C   0  0  0  0  0  0  0  0  0  0  0  0
   57.4340   30.0940   52.6800 C   0  0  0  0  0  0  0  0  0  0  0  0
   57.0880   31.4360   52.8650 C   0  0  0  0  0  0  0  0  0  0  0  0
   57.4690   32.3930   51.9210 C   0  0  0  0  0  0  0  0  0  0  0  0
   58.1970   32.0100   50.7910 C   0  0  0  0  0  0  0  0  0  0  0  0
   56.6088   29.5764   42.7120 H   0  0  0  0  0  0  0  0  0  0  0  0
   58.2729   29.9344   43.3735 H   0  0  0  0  0  0  0  0  0  0  0  0
   60.9874   28.4024   46.9006 H   0  0  0  0  0  0  0  0  0  0  0  0
   59.8363   26.9994   48.6169 H   0  0  0  0  0  0  0  0  0  0  0  0
   57.6751   25.8931   48.0485 H   0  0  0  0  0  0  0  0  0  0  0  0
   56.1148   32.5443   44.4735 H   0  0  0  0  0  0  0  0  0  0  0  0
   56.8653   34.9063   44.2555 H   0  0  0  0  0  0  0  0  0  0  0  0
   58.9758   35.6546   45.3447 H   0  0  0  0  0  0  0  0  0  0  0  0
   60.3142   34.0588   46.7040 H   0  0  0  0  0  0  0  0  0  0  0  0
   58.6612   29.5959   48.7363 H   0  0  0  0  0  0  0  0  0  0  0  0
   60.2039   29.7100   49.6480 H   0  0  0  0  0  0  0  0  0  0  0  0
   58.4218   28.6480   51.4017 H   0  0  0  0  0  0  0  0  0  0  0  0
   57.1403   29.3430   53.4282 H   0  0  0  0  0  0  0  0  0  0  0  0
   56.5155   31.7385   53.7542 H   0  0  0  0  0  0  0  0  0  0  0  0
   57.1959   33.4485   52.0672 H   0  0  0  0  0  0  0  0  0  0  0  0
   58.5085   32.7685   50.0577 H   0  0  0  0  0  0  0  0  0  0  0  0
  1  2  2  0
  2  3  1  0
  3  4  1  0
  4  5  1  0
  5  6  2  0
  6  7  1  0
  7  8  2  0
  8  9  1  0
  9 10  2  0
 10 11  1  0
 11 12  2  0
 11 13  1  0
  2 14  1  0
 14 15  1  0
 15 16  2  0
 16 17  1  0
 17 18  2  0
 18 19  1  0
 19 20  2  0
 20 21  1  0
 21 22  2  0
 21 23  1  0
 23 24  1  0
 24 25  1  0
 25 26  2  0
 26 27  1  0
 27 28  2  0
 28 29  1  0
 29 30  2  0
 10  5  1  0
 20 15  1  0
 30 25  1  0
  3 31  1  0
  3 32  1  0
  7 33  1  0
  8 34  1  0
  9 35  1  0
 16 36  1  0
 17 37  1  0
 18 38  1  0
 19 39  1  0
 24 40  1  0
 24 41  1  0
 26 42  1  0
 27 43  1  0
 28 44  1  0
 29 45  1  0
 30 46  1  0
M  CHG  3  13  -1  14  -1  23  -1
M  END
>  <UniqueID>  (78) 
77

>  <SMILES>  (78) 
O=C(CSc1ncccc1C(=O)[O-])[N-]c1ccccc1C(=O)[N-]Cc1ccccc1

>  <Energy>  (78) 
53.29621032506528

>  <Genealogy>  (78) 
O=C(CSc1ncccc1C(=O)[O-])[N-]c1ccccc1C(=O)[N-]Cc1ccccc1 (protonated)
O=C(CSc1ncccc1C(=O)[O-])[N-]c1ccccc1C(=O)[N-]Cc1ccccc1 (3D coordinates assigned)
O=C(CSc1ncccc1C(=O)[O-])[N-]c1ccccc1C(=O)[N-]Cc1ccccc1 (optimized conformer: 53.29621032506528 kcal/mol)

>  <smiles>  (78) 
O=C(CSc1ncccc1C(=O)O)Nc1ccccc1C(=O)NCc1ccccc1

>  <score_type>  (78) 
oracle

>  <origin>  (78) 
adg

>  <m_score__min__energy>  (78) 
-14.5

>  <m_primary>  (78) 
energy

$$$$
78:0
     RDKit          3D

 48 50  0  0  0  0  0  0  0  0999 V2000
   53.5220   30.8090   51.2470 C   0  0  0  0  0  0  0  0  0  0  0  0
   54.7400   30.5580   52.1310 C   0  0  0  0  0  0  0  0  0  0  0  0
   55.8740   31.2670   51.6380 O   0  0  0  0  0  0  0  0  0  0  0  0
   57.1210   30.6670   51.4190 C   0  0  0  0  0  0  0  0  0  0  0  0
   57.3810   29.5440   51.9260 O   0  0  0  0  0  0  0  0  0  0  0  0
   58.1160   31.3670   50.5820 C   0  0  0  0  0  0  0  0  0  0  0  0
   57.7700   32.3460   49.7120 N   0  0  0  0  0  0  0  0  0  0  0  0
   58.9040   32.7220   49.0980 C   0  0  0  0  0  0  0  0  0  0  0  0
   59.0410   33.6870   48.1020 C   0  0  0  0  0  0  0  0  0  0  0  0
   60.3250   33.9080   47.5710 C   0  0  0  0  0  0  0  0  0  0  0  0
   61.4310   33.1630   48.0420 C   0  0  0  0  0  0  0  0  0  0  0  0
   63.0240   33.4460   47.3650 Cl  0  0  0  0  0  0  0  0  0  0  0  0
   61.2600   32.1940   49.0480 C   0  0  0  0  0  0  0  0  0  0  0  0
   59.9750   32.0030   49.5610 C   0  0  0  0  0  0  0  0  0  0  0  0
   59.5000   31.1350   50.5280 C   0  0  0  0  0  0  0  0  0  0  0  0
   60.3040   30.0870   51.2470 C   0  0  0  0  0  0  0  0  0  0  0  0
   61.0240   29.2290   50.2590 C   0  0  0  0  0  0  0  0  0  0  0  0
   62.2740   29.3420   50.1340 O   0  0  0  0  0  0  0  0  0  0  0  0
   60.2850   28.3940   49.4130 O   0  0  0  0  0  0  0  0  0  0  0  0
   59.8420   28.7220   48.1230 C   0  0  0  0  0  0  0  0  0  0  0  0
   60.5440   29.6060   47.2840 C   0  0  0  0  0  0  0  0  0  0  0  0
   60.0620   29.8980   46.0040 C   0  0  0  0  0  0  0  0  0  0  0  0
   58.8700   29.3120   45.5430 C   0  0  0  0  0  0  0  0  0  0  0  0
   58.3630   29.5820   44.2250 N   0  0  0  0  0  0  0  0  0  0  0  0
   57.0220   30.0200   43.9540 C   0  0  0  0  0  0  0  0  0  0  0  0
   56.6430   30.4570   42.5760 C   0  0  0  0  0  0  0  0  0  0  0  0
   56.1550   30.0400   44.8680 O   0  0  0  0  0  0  0  0  0  0  0  0
   58.1970   28.3960   46.3640 C   0  0  0  0  0  0  0  0  0  0  0  0
   58.6790   28.1070   47.6440 C   0  0  0  0  0  0  0  0  0  0  0  0
   52.6408   30.9906   51.8799 H   0  0  0  0  0  0  0  0  0  0  0  0
   53.7048   31.6883   50.6119 H   0  0  0  0  0  0  0  0  0  0  0  0
   53.3423   29.9290   50.6119 H   0  0  0  0  0  0  0  0  0  0  0  0
   54.5195   30.8960   53.1543 H   0  0  0  0  0  0  0  0  0  0  0  0
   54.9657   29.4814   52.1254 H   0  0  0  0  0  0  0  0  0  0  0  0
   56.8120   32.7230   49.5350 H   0  0  0  0  0  0  0  0  0  0  0  0
   58.1724   34.2581   47.7422 H   0  0  0  0  0  0  0  0  0  0  0  0
   60.4694   34.6642   46.7853 H   0  0  0  0  0  0  0  0  0  0  0  0
   62.1119   31.6052   49.4189 H   0  0  0  0  0  0  0  0  0  0  0  0
   61.0361   30.5775   51.9053 H   0  0  0  0  0  0  0  0  0  0  0  0
   59.6268   29.4592   51.8448 H   0  0  0  0  0  0  0  0  0  0  0  0
   61.4770   30.0701   47.6364 H   0  0  0  0  0  0  0  0  0  0  0  0
   60.6184   30.5898   45.3545 H   0  0  0  0  0  0  0  0  0  0  0  0
   58.9730   29.3510   43.4090 H   0  0  0  0  0  0  0  0  0  0  0  0
   55.9235   31.2866   42.6393 H   0  0  0  0  0  0  0  0  0  0  0  0
   57.5418   30.7915   42.0372 H   0  0  0  0  0  0  0  0  0  0  0  0
   56.1848   29.6146   42.0372 H   0  0  0  0  0  0  0  0  0  0  0  0
   57.2845   27.9020   45.9988 H   0  0  0  0  0  0  0  0  0  0  0  0
   58.1397   27.3900   48.2805 H   0  0  0  0  0  0  0  0  0  0  0  0
  1  2  1  0
  2  3  1  0
  3  4  1  0
  4  5  2  0
  4  6  1  0
  6  7  1  0
  7  8  1  0
  8  9  2  0
  9 10  1  0
 10 11  2  0
 11 12  1  0
 11 13  1  0
 13 14  2  0
 14 15  1  0
 15 16  1  0
 16 17  1  0
 17 18  2  0
 17 19  1  0
 19 20  1  0
 20 21  2  0
 21 22  1  0
 22 23  2  0
 23 24  1  0
 24 25  1  0
 25 26  1  0
 25 27  2  0
 23 28  1  0
 28 29  2  0
 15  6  2  0
 29 20  1  0
 14  8  1  0
  1 30  1  0
  1 31  1  0
  1 32  1  0
  2 33  1  0
  2 34  1  0
  7 35  1  0
  9 36  1  0
 10 37  1  0
 13 38  1  0
 16 39  1  0
 16 40  1  0
 21 41  1  0
 22 42  1  0
 24 43  1  0
 26 44  1  0
 26 45  1  0
 26 46  1  0
 28 47  1  0
 29 48  1  0
M  END
>  <UniqueID>  (79) 
78

>  <SMILES>  (79) 
CCOC(=O)c1[nH]c2ccc(Cl)cc2c1CC(=O)Oc1ccc(NC(C)=O)cc1

>  <Energy>  (79) 
82.95463098523733

>  <Genealogy>  (79) 
CCOC(=O)c1[nH]c2ccc(Cl)cc2c1CC(=O)Oc1ccc(NC(C)=O)cc1 (3D coordinates assigned)
CCOC(=O)c1[nH]c2ccc(Cl)cc2c1CC(=O)Oc1ccc(NC(C)=O)cc1 (optimized conformer: 82.95463098523733 kcal/mol)

>  <smiles>  (79) 
CCOC(=O)c1[nH]c2ccc(Cl)cc2c1CC(=O)Oc1ccc(NC(C)=O)cc1

>  <score_type>  (79) 
oracle

>  <origin>  (79) 
adg

>  <m_score__min__energy>  (79) 
-8.6099999999999994

>  <m_primary>  (79) 
energy

$$$$
79:0
     RDKit          3D

 59 63  0  0  0  0  0  0  0  0999 V2000
   57.7860   33.0250   43.1740 O   0  0  0  0  0  0  0  0  0  0  0  0
   57.9530   32.3450   44.2220 C   0  0  0  0  0  0  0  0  0  0  0  0
   57.5950   30.9120   44.2130 C   0  0  0  0  0  0  0  0  0  0  0  0
   56.7520   30.3070   43.3020 C   0  0  0  0  0  0  0  0  0  0  0  0
   56.6460   28.9830   43.6830 C   0  0  0  0  0  0  0  0  0  0  0  0
   57.4070   28.7470   44.7710 N   0  0  0  0  0  0  0  0  0  0  0  0
   57.5780   27.4620   45.3980 C   0  0  0  0  0  0  0  0  0  0  0  0
   58.8390   26.8390   45.4330 C   0  0  0  0  0  0  0  0  0  0  0  0
   58.9990   25.6110   46.0790 C   0  0  0  0  0  0  0  0  0  0  0  0
   57.9030   24.9800   46.6730 C   0  0  0  0  0  0  0  0  0  0  0  0
   56.6430   25.5760   46.6190 C   0  0  0  0  0  0  0  0  0  0  0  0
   56.4780   26.8080   45.9800 C   0  0  0  0  0  0  0  0  0  0  0  0
   57.9940   29.9220   45.1050 C   0  0  0  0  0  0  0  0  0  0  0  0
   58.9540   30.0920   46.2170 C   0  0  0  0  0  0  0  0  0  0  0  0
   60.2970   30.4010   45.9480 C   0  0  0  0  0  0  0  0  0  0  0  0
   61.2230   30.4900   46.9910 C   0  0  0  0  0  0  0  0  0  0  0  0
   60.8130   30.2700   48.3100 C   0  0  0  0  0  0  0  0  0  0  0  0
   59.4750   29.9790   48.5880 C   0  0  0  0  0  0  0  0  0  0  0  0
   58.5490   29.8780   47.5430 C   0  0  0  0  0  0  0  0  0  0  0  0
   58.4730   32.9760   45.4040 N   0  0  0  0  0  0  0  0  0  0  0  0
   57.7750   32.7410   46.6810 C   0  0  0  0  0  0  0  0  0  0  0  0
   58.4150   33.4650   47.8660 C   0  0  0  0  0  0  0  0  0  0  0  0
   59.8730   33.5390   47.7010 N   0  0  0  0  0  0  0  0  0  0  0  0
   60.4780   34.0280   48.9180 C   0  0  0  0  0  0  0  0  0  0  0  0
   59.7720   34.5990   49.7970 O   0  0  0  0  0  0  0  0  0  0  0  0
   61.8990   33.7700   49.2080 C   0  0  0  0  0  0  0  0  0  0  0  0
   62.7470   33.3280   48.1790 C   0  0  0  0  0  0  0  0  0  0  0  0
   64.1050   33.1180   48.4310 C   0  0  0  0  0  0  0  0  0  0  0  0
   64.6180   33.3220   49.7180 C   0  0  0  0  0  0  0  0  0  0  0  0
   63.7740   33.7420   50.7550 C   0  0  0  0  0  0  0  0  0  0  0  0
   62.4170   33.9750   50.5010 C   0  0  0  0  0  0  0  0  0  0  0  0
   60.1810   34.4310   46.5710 C   0  0  0  0  0  0  0  0  0  0  0  0
   59.6460   33.8590   45.2480 C   0  0  0  0  0  0  0  0  0  0  0  0
   56.2611   30.7853   42.4416 H   0  0  0  0  0  0  0  0  0  0  0  0
   56.0291   28.2293   43.1719 H   0  0  0  0  0  0  0  0  0  0  0  0
   59.7019   27.3207   44.9499 H   0  0  0  0  0  0  0  0  0  0  0  0
   59.9917   25.1389   46.1203 H   0  0  0  0  0  0  0  0  0  0  0  0
   58.0337   24.0141   47.1828 H   0  0  0  0  0  0  0  0  0  0  0  0
   55.7784   25.0759   47.0798 H   0  0  0  0  0  0  0  0  0  0  0  0
   55.4805   27.2692   45.9321 H   0  0  0  0  0  0  0  0  0  0  0  0
   60.6219   30.5739   44.9114 H   0  0  0  0  0  0  0  0  0  0  0  0
   62.2738   30.7330   46.7747 H   0  0  0  0  0  0  0  0  0  0  0  0
   61.5447   30.3261   49.1294 H   0  0  0  0  0  0  0  0  0  0  0  0
   59.1493   29.8293   49.6279 H   0  0  0  0  0  0  0  0  0  0  0  0
   57.5000   29.6299   47.7624 H   0  0  0  0  0  0  0  0  0  0  0  0
   56.7364   33.0889   46.5797 H   0  0  0  0  0  0  0  0  0  0  0  0
   57.8342   31.6625   46.8894 H   0  0  0  0  0  0  0  0  0  0  0  0
   58.0063   34.4842   47.9304 H   0  0  0  0  0  0  0  0  0  0  0  0
   58.1903   32.9059   48.7863 H   0  0  0  0  0  0  0  0  0  0  0  0
   60.2400   32.5760   47.4970 H   0  0  0  0  0  0  0  0  0  0  0  0
   62.3410   33.1469   47.1728 H   0  0  0  0  0  0  0  0  0  0  0  0
   64.7713   32.7924   47.6185 H   0  0  0  0  0  0  0  0  0  0  0  0
   65.6867   33.1521   49.9156 H   0  0  0  0  0  0  0  0  0  0  0  0
   64.1774   33.8885   51.7678 H   0  0  0  0  0  0  0  0  0  0  0  0
   61.7562   34.3179   51.3108 H   0  0  0  0  0  0  0  0  0  0  0  0
   59.7168   35.4118   46.7514 H   0  0  0  0  0  0  0  0  0  0  0  0
   61.2739   34.5273   46.4917 H   0  0  0  0  0  0  0  0  0  0  0  0
   59.3617   34.6996   44.5980 H   0  0  0  0  0  0  0  0  0  0  0  0
   60.4512   33.2443   44.8194 H   0  0  0  0  0  0  0  0  0  0  0  0
  1  2  2  0
  2  3  1  0
  3  4  1  0
  4  5  2  0
  5  6  1  0
  6  7  1  0
  7  8  2  0
  8  9  1  0
  9 10  2  0
 10 11  1  0
 11 12  2  0
  6 13  1  0
 13 14  1  0
 14 15  2  0
 15 16  1  0
 16 17  2  0
 17 18  1  0
 18 19  2  0
  2 20  1  0
 20 21  1  0
 21 22  1  0
 22 23  1  0
 23 24  1  0
 24 25  2  0
 24 26  1  0
 26 27  2  0
 27 28  1  0
 28 29  2  0
 29 30  1  0
 30 31  2  0
 23 32  1  0
 32 33  1  0
 13  3  2  0
 19 14  1  0
 33 20  1  0
 12  7  1  0
 31 26  1  0
  4 34  1  0
  5 35  1  0
  8 36  1  0
  9 37  1  0
 10 38  1  0
 11 39  1  0
 12 40  1  0
 15 41  1  0
 16 42  1  0
 17 43  1  0
 18 44  1  0
 19 45  1  0
 21 46  1  0
 21 47  1  0
 22 48  1  0
 22 49  1  0
 23 50  1  0
 27 51  1  0
 28 52  1  0
 29 53  1  0
 30 54  1  0
 31 55  1  0
 32 56  1  0
 32 57  1  0
 33 58  1  0
 33 59  1  0
M  CHG  1  23   1
M  END
>  <UniqueID>  (80) 
79

>  <SMILES>  (80) 
O=C(c1ccn(-c2ccccc2)c1-c1ccccc1)N1CC[NH+](C(=O)c2ccccc2)CC1

>  <Energy>  (80) 
112.20236640829096

>  <Genealogy>  (80) 
O=C(c1ccn(-c2ccccc2)c1-c1ccccc1)N1CC[NH+](C(=O)c2ccccc2)CC1 (protonated)
O=C(c1ccn(-c2ccccc2)c1-c1ccccc1)N1CC[NH+](C(=O)c2ccccc2)CC1 (3D coordinates assigned)
O=C(c1ccn(-c2ccccc2)c1-c1ccccc1)N1CC[NH+](C(=O)c2ccccc2)CC1 (nonaromatic ring conformer: 112.20236640829096 kcal/mol)

>  <smiles>  (80) 
O=C(c1ccccc1)N1CCN(C(=O)c2ccn(-c3ccccc3)c2-c2ccccc2)CC1

>  <score_type>  (80) 
oracle

>  <origin>  (80) 
adg

>  <m_score__min__energy>  (80) 
-7.75

>  <m_primary>  (80) 
energy

$$$$
80:0
     RDKit          3D

 50 54  0  0  0  0  0  0  0  0999 V2000
   59.3050   30.3740   50.2360 O   0  0  0  0  0  0  0  0  0  0  0  0
   59.6180   30.3940   49.0160 C   0  0  0  0  0  0  0  0  0  0  0  0
   59.8740   29.1200   48.3020 C   0  0  0  0  0  0  0  0  0  0  0  0
   60.4600   28.0280   48.9670 C   0  0  0  0  0  0  0  0  0  0  0  0
   60.6890   26.8280   48.2900 C   0  0  0  0  0  0  0  0  0  0  0  0
   60.3240   26.6960   46.9490 C   0  0  0  0  0  0  0  0  0  0  0  0
   59.7090   27.7620   46.2790 C   0  0  0  0  0  0  0  0  0  0  0  0
   59.3330   27.6060   44.8600 C   0  0  0  0  0  0  0  0  0  0  0  0
   58.1520   27.1430   44.4250 C   0  0  0  0  0  0  0  0  0  0  0  0
   57.0920   26.5740   45.2840 C   0  0  0  0  0  0  0  0  0  0  0  0
   57.0870   25.3280   45.7950 N   0  0  0  0  0  0  0  0  0  0  0  0
   55.9030   25.2580   46.4420 C   0  0  0  0  0  0  0  0  0  0  0  0
   55.5310   24.2300   47.0650 O   0  0  0  0  0  0  0  0  0  0  0  0
   55.1490   26.3750   46.3630 N   0  0  0  0  0  0  0  0  0  0  0  0
   55.9110   27.1930   45.6200 C   0  0  0  0  0  0  0  0  0  0  0  0
   55.5370   28.4800   45.2550 O   0  0  0  0  0  0  0  0  0  0  0  0
   59.5220   28.9840   46.9480 C   0  0  0  0  0  0  0  0  0  0  0  0
   59.7040   31.6600   48.3380 N   0  0  0  0  0  0  0  0  0  0  0  0
   58.4500   32.3660   48.0730 C   0  0  0  0  0  0  0  0  0  0  0  0
   58.6900   33.8690   47.8780 C   0  0  0  0  0  0  0  0  0  0  0  0
   59.7660   34.1780   46.9030 N   0  0  2  0  0  0  0  0  0  0  0  0
   59.4050   34.2770   45.4580 C   0  0  0  0  0  0  0  0  0  0  0  0
   57.9380   34.2880   45.0250 C   0  0  0  0  0  0  0  0  0  0  0  0
   58.7760   33.0310   44.8430 C   0  0  0  0  0  0  0  0  0  0  0  0
   60.9730   33.3950   47.1040 C   0  0  0  0  0  0  0  0  0  0  0  0
   62.1980   33.8750   46.5980 C   0  0  0  0  0  0  0  0  0  0  0  0
   63.3820   33.1670   46.7980 C   0  0  0  0  0  0  0  0  0  0  0  0
   63.3680   31.9760   47.5180 C   0  0  0  0  0  0  0  0  0  0  0  0
   62.1680   31.4810   48.0290 C   0  0  0  0  0  0  0  0  0  0  0  0
   60.9520   32.1650   47.8110 C   0  0  0  0  0  0  0  0  0  0  0  0
   60.7397   28.1196   50.0269 H   0  0  0  0  0  0  0  0  0  0  0  0
   61.1588   25.9836   48.8155 H   0  0  0  0  0  0  0  0  0  0  0  0
   60.5196   25.7532   46.4172 H   0  0  0  0  0  0  0  0  0  0  0  0
   60.0777   27.8910   44.1023 H   0  0  0  0  0  0  0  0  0  0  0  0
   57.9566   27.1904   43.3435 H   0  0  0  0  0  0  0  0  0  0  0  0
   59.0962   29.8418   46.4069 H   0  0  0  0  0  0  0  0  0  0  0  0
   57.9923   31.9545   47.1613 H   0  0  0  0  0  0  0  0  0  0  0  0
   57.7836   32.2289   48.9374 H   0  0  0  0  0  0  0  0  0  0  0  0
   57.7556   34.3268   47.5212 H   0  0  0  0  0  0  0  0  0  0  0  0
   59.0098   34.2731   48.8498 H   0  0  0  0  0  0  0  0  0  0  0  0
   60.0360   35.1600   47.1500 H   0  0  0  0  0  0  0  0  0  0  0  0
   60.2578   34.9384   45.2453 H   0  0  0  0  0  0  0  0  0  0  0  0
   57.1410   34.3128   45.7828 H   0  0  0  0  0  0  0  0  0  0  0  0
   57.3273   34.9185   44.3621 H   0  0  0  0  0  0  0  0  0  0  0  0
   58.5833   32.1471   45.4687 H   0  0  0  0  0  0  0  0  0  0  0  0
   59.0202   32.3772   43.9927 H   0  0  0  0  0  0  0  0  0  0  0  0
   62.2199   34.8213   46.0376 H   0  0  0  0  0  0  0  0  0  0  0  0
   64.3277   33.5497   46.3866 H   0  0  0  0  0  0  0  0  0  0  0  0
   64.3048   31.4240   47.6844 H   0  0  0  0  0  0  0  0  0  0  0  0
   62.1690   30.5463   48.6089 H   0  0  0  0  0  0  0  0  0  0  0  0
  1  2  2  0
  2  3  1  0
  3  4  2  0
  4  5  1  0
  5  6  2  0
  6  7  1  0
  7  8  1  0
  8  9  2  3
  9 10  1  0
 10 11  1  0
 11 12  1  0
 12 13  2  0
 12 14  1  0
 14 15  1  0
 15 16  1  0
  7 17  2  0
  2 18  1  0
 18 19  1  0
 19 20  1  0
 20 21  1  0
 21 22  1  0
 22 23  1  0
 23 24  1  0
 21 25  1  0
 25 26  2  0
 26 27  1  0
 27 28  2  0
 28 29  1  0
 29 30  2  0
 17  3  1  0
 30 18  1  0
 15 10  2  0
 24 22  1  0
 30 25  1  0
  4 31  1  0
  5 32  1  0
  6 33  1  0
  8 34  1  0
  9 35  1  0
 17 36  1  0
 19 37  1  0
 19 38  1  0
 20 39  1  0
 20 40  1  0
 21 41  1  1
 22 42  1  0
 23 43  1  0
 23 44  1  0
 24 45  1  0
 24 46  1  0
 26 47  1  0
 27 48  1  0
 28 49  1  0
 29 50  1  0
M  CHG  4  11  -1  14  -1  16  -1  21   1
M  END
>  <UniqueID>  (81) 
80

>  <SMILES>  (81) 
O=C(c1cccc(C=Cc2[n-]c(=O)[n-]c2[O-])c1)N1CC[N@H+](C2CC2)c2ccccc21

>  <Energy>  (81) 
382.01297308954327

>  <Genealogy>  (81) 
O=C(c1cccc(C=Cc2[n-]c(=O)[n-]c2[O-])c1)N1CC[NH+](C2CC2)c2ccccc21 (protonated)
O=C(c1cccc(C=Cc2[n-]c(=O)[n-]c2[O-])c1)N1CC[N@H+](C2CC2)c2ccccc21 (chirality)
O=C(c1cccc(C=Cc2[n-]c(=O)[n-]c2[O-])c1)N1CC[N@H+](C2CC2)c2ccccc21 (3D coordinates assigned)
O=C(c1cccc(C=Cc2[n-]c(=O)[n-]c2[O-])c1)N1CC[N@H+](C2CC2)c2ccccc21 (nonaromatic ring conformer: 382.01297308954327 kcal/mol)

>  <smiles>  (81) 
O=C(c1cccc(C=Cc2[nH]c(=O)[nH]c2O)c1)N1CCN(C2CC2)c2ccccc21

>  <score_type>  (81) 
oracle

>  <origin>  (81) 
adg

>  <m_score__min__energy>  (81) 
-16.149999999999999

>  <m_primary>  (81) 
energy

$$$$
81:0
     RDKit          3D

 41 44  0  0  1  0  0  0  0  0999 V2000
   64.7030   33.0690   48.9900 C   0  0  0  0  0  0  0  0  0  0  0  0
   63.5390   33.3410   48.1060 C   0  0  0  0  0  0  0  0  0  0  0  0
   63.6690   33.5520   46.8640 O   0  0  0  0  0  0  0  0  0  0  0  0
   62.1940   33.3770   48.6400 C   0  0  0  0  0  0  0  0  0  0  0  0
   61.9850   33.0380   49.9600 C   0  0  0  0  0  0  0  0  0  0  0  0
   60.7060   33.0640   50.4960 C   0  0  0  0  0  0  0  0  0  0  0  0
   59.6170   33.4330   49.7040 C   0  0  0  0  0  0  0  0  0  0  0  0
   59.8640   33.7640   48.3860 C   0  0  0  0  0  0  0  0  0  0  0  0
   58.7370   34.1380   47.5920 N   0  0  0  0  0  0  0  0  0  0  0  0
   58.5590   33.6450   46.4140 C   0  0  0  0  0  0  0  0  0  0  0  0
   58.8580   34.4340   45.3490 N   0  0  0  0  0  0  0  0  0  0  0  0
   58.6710   33.9180   44.1180 C   0  0  0  0  0  0  0  0  0  0  0  0
   58.1860   32.6190   43.9810 C   0  0  0  0  0  0  0  0  0  0  0  0
   57.9110   32.1970   42.6470 C   0  0  0  0  0  0  0  0  0  0  0  0
   57.6890   31.8770   41.5640 N   0  0  0  0  0  0  0  0  0  0  0  0
   57.8870   31.8180   45.0460 C   0  0  0  0  0  0  0  0  0  0  0  0
   57.3150   30.5070   45.0510 C   0  0  0  0  0  0  0  0  0  0  0  0
   56.0020   30.2760   44.5780 C   0  0  0  0  0  0  0  0  0  0  0  0
   55.6780   28.9890   44.7510 N   0  0  0  0  0  0  0  0  0  0  0  0
   56.7000   28.3350   45.3200 C   0  0  0  0  0  0  0  0  0  0  0  0
   56.8270   27.0570   45.7050 N   0  0  0  0  0  0  0  0  0  0  0  0
   57.9410   26.6020   46.3030 C   0  0  0  0  0  0  0  0  0  0  0  0
   58.9550   27.5160   46.5050 C   0  0  0  0  0  0  0  0  0  0  0  0
   58.8470   28.8290   46.1180 C   0  0  0  0  0  0  0  0  0  0  0  0
   57.7110   29.2830   45.5050 C   0  0  0  0  0  0  0  0  0  0  0  0
   58.0940   32.3960   46.2770 N   0  0  0  0  0  0  0  0  0  0  0  0
   61.1270   33.7480   47.8270 C   0  0  0  0  0  0  0  0  0  0  0  0
   64.3896   33.1422   50.0419 H   0  0  0  0  0  0  0  0  0  0  0  0
   65.0859   32.0572   48.7911 H   0  0  0  0  0  0  0  0  0  0  0  0
   65.4947   33.8063   48.7911 H   0  0  0  0  0  0  0  0  0  0  0  0
   62.8370   32.7454   50.5913 H   0  0  0  0  0  0  0  0  0  0  0  0
   60.5489   32.7925   51.5503 H   0  0  0  0  0  0  0  0  0  0  0  0
   58.5972   33.4592   50.1156 H   0  0  0  0  0  0  0  0  0  0  0  0
   58.9001   34.5194   43.2259 H   0  0  0  0  0  0  0  0  0  0  0  0
   55.3458   31.0395   44.1346 H   0  0  0  0  0  0  0  0  0  0  0  0
   54.7690   28.5380   44.4900 H   0  0  0  0  0  0  0  0  0  0  0  0
   58.0399   25.5522   46.6162 H   0  0  0  0  0  0  0  0  0  0  0  0
   59.8821   27.1810   46.9931 H   0  0  0  0  0  0  0  0  0  0  0  0
   59.6811   29.5220   46.3024 H   0  0  0  0  0  0  0  0  0  0  0  0
   57.8890   31.8580   47.1550 H   0  0  0  0  0  0  0  0  0  0  0  0
   61.2845   34.0198   46.7728 H   0  0  0  0  0  0  0  0  0  0  0  0
  1  2  1  0
  2  3  2  0
  2  4  1  0
  4  5  2  0
  5  6  1  0
  6  7  2  0
  7  8  1  0
  8  9  1  0
  9 10  2  0
 10 11  1  0
 11 12  2  0
 12 13  1  0
 13 14  1  0
 14 15  3  0
 13 16  2  0
 16 17  1  0
 17 18  2  0
 18 19  1  0
 19 20  1  0
 20 21  2  0
 21 22  1  0
 22 23  2  0
 23 24  1  0
 24 25  2  0
 16 26  1  0
  8 27  2  0
 27  4  1  0
 26 10  1  0
 25 17  1  0
 25 20  1  0
  1 28  1  0
  1 29  1  0
  1 30  1  0
  5 31  1  0
  6 32  1  0
  7 33  1  0
 12 34  1  0
 18 35  1  0
 19 36  1  0
 22 37  1  0
 23 38  1  0
 24 39  1  0
 26 40  1  0
 27 41  1  0
M  END
>  <smiles>  (82) 
CC(=O)c1cccc(N=c2ncc(C#N)c(-c3c[nH]c4ncccc34)[nH]2)c1

>  <score_type>  (82) 
oracle

>  <origin>  (82) 
adg

>  <m_score__min__energy>  (82) 
-8.8699999999999992

>  <m_primary>  (82) 
energy

$$$$
82:0
     RDKit          3D

 39 41  0  0  0  0  0  0  0  0999 V2000
   56.9424   29.5580   42.1598 H   0  0  0  0  0  0  0  0  0  0  0  0
   57.1110   29.6000   43.2460 C   0  0  0  0  0  0  0  0  0  0  0  0
   57.1640   30.8020   43.8780 N   0  0  0  0  0  0  0  0  0  0  0  0
   57.3830   30.9110   45.2150 C   0  0  0  0  0  0  0  0  0  0  0  0
   57.4140   32.1040   45.7450 N   0  0  0  0  0  0  0  0  0  0  0  0
   58.4510   33.0970   45.6430 C   0  0  0  0  0  0  0  0  0  0  0  0
   58.1940   34.1750   45.0440 O   0  0  0  0  0  0  0  0  0  0  0  0
   59.7860   32.9210   46.2650 C   0  0  0  0  0  0  0  0  0  0  0  0
   60.6790   34.0030   46.3710 C   0  0  0  0  0  0  0  0  0  0  0  0
   60.4152   34.9756   45.9301 H   0  0  0  0  0  0  0  0  0  0  0  0
   61.9000   33.8480   47.0340 C   0  0  0  0  0  0  0  0  0  0  0  0
   62.5893   34.7008   47.1205 H   0  0  0  0  0  0  0  0  0  0  0  0
   62.2470   32.6130   47.5870 C   0  0  0  0  0  0  0  0  0  0  0  0
   63.7730   32.4240   48.4300 Cl  0  0  0  0  0  0  0  0  0  0  0  0
   61.3760   31.5260   47.4680 C   0  0  0  0  0  0  0  0  0  0  0  0
   61.6529   30.5511   47.8957 H   0  0  0  0  0  0  0  0  0  0  0  0
   60.1530   31.6760   46.8060 C   0  0  0  0  0  0  0  0  0  0  0  0
   59.4747   30.8156   46.7081 H   0  0  0  0  0  0  0  0  0  0  0  0
   57.5950   29.7380   45.9670 C   0  0  0  0  0  0  0  0  0  0  0  0
   57.8305   29.8104   47.0390 H   0  0  0  0  0  0  0  0  0  0  0  0
   57.5070   28.4760   45.3540 C   0  0  0  0  0  0  0  0  0  0  0  0
   57.5990   27.2220   46.1540 C   0  0  0  0  0  0  0  0  0  0  0  0
   58.2140   27.2250   47.2550 O   0  0  0  0  0  0  0  0  0  0  0  0
   57.0580   25.9380   45.6610 C   0  0  0  0  0  0  0  0  0  0  0  0
   55.6750   25.7160   45.6280 C   0  0  0  0  0  0  0  0  0  0  0  0
   54.7860   26.7100   46.0280 O   0  0  0  0  0  0  0  0  0  0  0  0
   55.1820   24.4820   45.2100 C   0  0  0  0  0  0  0  0  0  0  0  0
   54.0972   24.3033   45.1760 H   0  0  0  0  0  0  0  0  0  0  0  0
   56.0720   23.4720   44.8340 C   0  0  0  0  0  0  0  0  0  0  0  0
   55.6130   22.3500   44.4830 O   0  0  0  0  0  0  0  0  0  0  0  0
   57.4250   23.6990   44.8500 N   0  0  0  0  0  0  0  0  0  0  0  0
   58.3540   22.6220   44.4850 C   0  0  0  0  0  0  0  0  0  0  0  0
   58.7544   22.1579   45.3984 H   0  0  0  0  0  0  0  0  0  0  0  0
   57.8217   21.8640   43.8916 H   0  0  0  0  0  0  0  0  0  0  0  0
   59.1819   23.0373   43.8916 H   0  0  0  0  0  0  0  0  0  0  0  0
   57.9190   24.9120   45.2460 C   0  0  0  0  0  0  0  0  0  0  0  0
   59.0054   25.0845   45.2387 H   0  0  0  0  0  0  0  0  0  0  0  0
   57.2700   28.4190   43.9720 C   0  0  0  0  0  0  0  0  0  0  0  0
   57.2097   27.4460   43.4624 H   0  0  0  0  0  0  0  0  0  0  0  0
  1  2  1  0
  2  3  1  0
  3  4  1  0
  4  5  2  0
  5  6  1  0
  6  7  2  0
  6  8  1  0
  8  9  2  0
  9 10  1  0
  9 11  1  0
 11 12  1  0
 11 13  2  0
 13 14  1  0
 13 15  1  0
 15 16  1  0
 15 17  2  0
 17 18  1  0
  4 19  1  0
 19 20  1  0
 19 21  2  0
 21 22  1  0
 22 23  2  0
 22 24  1  0
 24 25  1  0
 25 26  1  0
 25 27  2  0
 27 28  1  0
 27 29  1  0
 29 30  2  0
 29 31  1  0
 31 32  1  0
 32 33  1  0
 32 34  1  0
 32 35  1  0
 31 36  1  0
 36 37  1  0
 21 38  1  0
 38 39  1  0
 38  2  2  0
 17  8  1  0
 36 24  2  0
M  CHG  2   3  -1  26  -1
M  END
>  <UniqueID>  (83) 
81

>  <SMILES>  (83) 
Cn1cc(C(=O)c2cc[n-]/c(=N/C(=O)c3ccc(Cl)cc3)c2)c([O-])cc1=O

>  <Energy>  (83) 
60.72003610347336

>  <Genealogy>  (83) 
Cn1cc(C(=O)c2cc[n-]c(=NC(=O)c3ccc(Cl)cc3)c2)c([O-])cc1=O (protonated)
Cn1cc(C(=O)c2cc[n-]/c(=N/C(=O)c3ccc(Cl)cc3)c2)c([O-])cc1=O (cis-trans isomerization)
Cn1cc(C(=O)c2cc[n-]/c(=N/C(=O)c3ccc(Cl)cc3)c2)c([O-])cc1=O (3D coordinates assigned)
Cn1cc(C(=O)c2cc[n-]/c(=N/C(=O)c3ccc(Cl)cc3)c2)c([O-])cc1=O (optimized conformer: 60.72003610347336 kcal/mol)

>  <smiles>  (83) 
Cn1cc(C(=O)c2cc[nH]c(=NC(=O)c3ccc(Cl)cc3)c2)c(O)cc1=O

>  <score_type>  (83) 
oracle

>  <origin>  (83) 
adg

>  <m_score__min__energy>  (83) 
-14.1

>  <m_primary>  (83) 
energy

$$$$
83:0
     RDKit          3D

 56 59  0  0  0  0  0  0  0  0999 V2000
   55.6540   24.1070   48.0030 N   0  0  0  0  0  0  0  0  0  0  0  0
   55.9880   22.5390   47.3470 S   0  0  0  0  0  0  0  0  0  0  0  0
   54.8960   21.5810   47.7390 O   0  0  0  0  0  0  0  0  0  0  0  0
   57.2890   22.0350   47.9100 O   0  0  0  0  0  0  0  0  0  0  0  0
   56.0940   22.6420   45.5840 C   0  0  0  0  0  0  0  0  0  0  0  0
   56.7820   21.6280   44.8960 C   0  0  0  0  0  0  0  0  0  0  0  0
   56.8650   21.6420   43.5030 C   0  0  0  0  0  0  0  0  0  0  0  0
   56.2610   22.6670   42.7780 C   0  0  0  0  0  0  0  0  0  0  0  0
   55.5790   23.6870   43.4430 C   0  0  0  0  0  0  0  0  0  0  0  0
   55.4920   23.6940   44.8450 C   0  0  0  0  0  0  0  0  0  0  0  0
   54.8010   24.8310   45.4980 C   0  0  0  0  0  0  0  0  0  0  0  0
   53.5500   24.8100   45.6210 O   0  0  0  0  0  0  0  0  0  0  0  0
   55.5350   25.9120   46.0880 N   0  0  0  0  0  0  0  0  0  0  0  0
   56.5780   26.6560   45.4410 C   0  0  0  0  0  0  0  0  0  0  0  0
   57.4990   26.0340   44.5780 C   0  0  0  0  0  0  0  0  0  0  0  0
   58.4860   26.7870   43.9350 C   0  0  0  0  0  0  0  0  0  0  0  0
   58.5570   28.1680   44.1400 C   0  0  0  0  0  0  0  0  0  0  0  0
   57.6420   28.7980   44.9950 C   0  0  0  0  0  0  0  0  0  0  0  0
   57.7300   30.2480   45.2170 C   0  0  0  0  0  0  0  0  0  0  0  0
   57.3480   31.0160   44.2880 O   0  0  0  0  0  0  0  0  0  0  0  0
   58.2610   30.7910   46.4510 N   0  0  0  0  0  0  0  0  0  0  0  0
   58.3830   32.2420   46.6290 C   0  0  0  0  0  0  0  0  0  0  0  0
   59.8350   32.6570   46.3700 C   0  0  0  0  0  0  0  0  0  0  0  0
   60.7480   31.8070   47.1540 N   0  0  0  0  0  0  0  0  0  0  0  0
   61.9720   32.3570   47.6770 C   0  0  0  0  0  0  0  0  0  0  0  0
   62.5820   31.8020   48.8160 C   0  0  0  0  0  0  0  0  0  0  0  0
   63.7700   32.3470   49.3200 C   0  0  0  0  0  0  0  0  0  0  0  0
   64.3620   33.4400   48.6860 C   0  0  0  0  0  0  0  0  0  0  0  0
   63.7670   33.9930   47.5470 C   0  0  0  0  0  0  0  0  0  0  0  0
   62.5750   33.4580   47.0470 C   0  0  0  0  0  0  0  0  0  0  0  0
   60.5730   30.3450   47.1000 C   0  0  0  0  0  0  0  0  0  0  0  0
   59.1060   29.9820   47.3430 C   0  0  0  0  0  0  0  0  0  0  0  0
   56.6470   28.0420   45.6350 C   0  0  0  0  0  0  0  0  0  0  0  0
   56.4270   24.7460   47.6930 H   0  0  0  0  0  0  0  0  0  0  0  0
   54.7720   24.4450   47.5380 H   0  0  0  0  0  0  0  0  0  0  0  0
   57.2602   20.8146   45.4615 H   0  0  0  0  0  0  0  0  0  0  0  0
   57.4079   20.8429   42.9769 H   0  0  0  0  0  0  0  0  0  0  0  0
   56.3218   22.6723   41.6797 H   0  0  0  0  0  0  0  0  0  0  0  0
   55.1051   24.4931   42.8638 H   0  0  0  0  0  0  0  0  0  0  0  0
   57.4421   24.9487   44.4082 H   0  0  0  0  0  0  0  0  0  0  0  0
   59.2070   26.2925   43.2675 H   0  0  0  0  0  0  0  0  0  0  0  0
   59.3311   28.7605   43.6303 H   0  0  0  0  0  0  0  0  0  0  0  0
   57.7200   32.7576   45.9187 H   0  0  0  0  0  0  0  0  0  0  0  0
   58.0961   32.5156   47.6551 H   0  0  0  0  0  0  0  0  0  0  0  0
   60.0610   32.5441   45.2994 H   0  0  0  0  0  0  0  0  0  0  0  0
   59.9703   33.7065   46.6705 H   0  0  0  0  0  0  0  0  0  0  0  0
   62.1237   30.9349   49.3141 H   0  0  0  0  0  0  0  0  0  0  0  0
   64.2367   31.9129   50.2165 H   0  0  0  0  0  0  0  0  0  0  0  0
   65.2957   33.8664   49.0814 H   0  0  0  0  0  0  0  0  0  0  0  0
   64.2375   34.8504   47.0435 H   0  0  0  0  0  0  0  0  0  0  0  0
   62.1075   33.9020   46.1557 H   0  0  0  0  0  0  0  0  0  0  0  0
   60.8794   29.9782   46.1093 H   0  0  0  0  0  0  0  0  0  0  0  0
   61.1933   29.8789   47.8797 H   0  0  0  0  0  0  0  0  0  0  0  0
   58.9499   28.9139   47.1312 H   0  0  0  0  0  0  0  0  0  0  0  0
   58.8409   30.1833   48.3914 H   0  0  0  0  0  0  0  0  0  0  0  0
   55.9184   28.5399   46.2916 H   0  0  0  0  0  0  0  0  0  0  0  0
  1  2  1  0
  2  3  2  0
  2  4  2  0
  2  5  1  0
  5  6  2  0
  6  7  1  0
  7  8  2  0
  8  9  1  0
  9 10  2  0
 10 11  1  0
 11 12  2  0
 11 13  1  0
 13 14  1  0
 14 15  2  0
 15 16  1  0
 16 17  2  0
 17 18  1  0
 18 19  1  0
 19 20  2  0
 19 21  1  0
 21 22  1  0
 22 23  1  0
 23 24  1  0
 24 25  1  0
 25 26  2  0
 26 27  1  0
 27 28  2  0
 28 29  1  0
 29 30  2  0
 24 31  1  0
 31 32  1  0
 18 33  2  0
 10  5  1  0
 33 14  1  0
 32 21  1  0
 30 25  1  0
  1 34  1  0
  1 35  1  0
  6 36  1  0
  7 37  1  0
  8 38  1  0
  9 39  1  0
 15 40  1  0
 16 41  1  0
 17 42  1  0
 22 43  1  0
 22 44  1  0
 23 45  1  0
 23 46  1  0
 26 47  1  0
 27 48  1  0
 28 49  1  0
 29 50  1  0
 30 51  1  0
 31 52  1  0
 31 53  1  0
 32 54  1  0
 32 55  1  0
 33 56  1  0
M  CHG  1  13  -1
M  END
>  <UniqueID>  (84) 
82

>  <SMILES>  (84) 
NS(=O)(=O)c1ccccc1C(=O)[N-]c1cccc(C(=O)N2CCN(c3ccccc3)CC2)c1

>  <Energy>  (84) 
80.13406737097418

>  <Genealogy>  (84) 
NS(=O)(=O)c1ccccc1C(=O)[N-]c1cccc(C(=O)N2CCN(c3ccccc3)CC2)c1 (protonated)
NS(=O)(=O)c1ccccc1C(=O)[N-]c1cccc(C(=O)N2CCN(c3ccccc3)CC2)c1 (3D coordinates assigned)
NS(=O)(=O)c1ccccc1C(=O)[N-]c1cccc(C(=O)N2CCN(c3ccccc3)CC2)c1 (nonaromatic ring conformer: 80.13406737097418 kcal/mol)

>  <smiles>  (84) 
NS(=O)(=O)c1ccccc1C(=O)Nc1cccc(C(=O)N2CCN(c3ccccc3)CC2)c1

>  <score_type>  (84) 
oracle

>  <origin>  (84) 
adg

>  <m_score__min__energy>  (84) 
-12.27

>  <m_primary>  (84) 
energy

$$$$
84:0
     RDKit          3D

 60 63  0  0  0  0  0  0  0  0999 V2000
   55.1270   29.3570   44.4960 N   0  0  0  0  0  0  0  0  0  0  0  0
   56.1230   30.1030   43.8030 C   0  0  0  0  0  0  0  0  0  0  0  0
   56.1590   30.0530   42.5440 O   0  0  0  0  0  0  0  0  0  0  0  0
   57.0660   30.9790   44.5420 C   0  0  0  0  0  0  0  0  0  0  0  0
   56.6730   32.2820   44.8850 C   0  0  0  0  0  0  0  0  0  0  0  0
   57.5160   33.1070   45.6270 C   0  0  0  0  0  0  0  0  0  0  0  0
   58.7680   32.6350   46.0230 C   0  0  0  0  0  0  0  0  0  0  0  0
   59.7080   33.4980   46.7640 C   0  0  0  0  0  0  0  0  0  0  0  0
   59.2790   34.5610   47.2930 O   0  0  0  0  0  0  0  0  0  0  0  0
   61.0880   33.1180   46.9460 N   0  0  0  0  0  0  0  0  0  0  0  0
   61.4520   31.7130   47.1550 C   0  0  0  0  0  0  0  0  0  0  0  0
   62.7150   31.6550   48.0200 C   0  0  0  0  0  0  0  0  0  0  0  0
   63.7520   32.4100   47.4210 O   0  0  0  0  0  0  0  0  0  0  0  0
   63.4090   33.7850   47.4270 C   0  0  0  0  0  0  0  0  0  0  0  0
   62.1510   34.0630   46.5850 C   0  0  0  0  0  0  0  0  0  0  0  0
   59.1380   31.3720   45.6900 N   0  0  0  0  0  0  0  0  0  0  0  0
   58.3410   30.5390   44.9600 C   0  0  0  0  0  0  0  0  0  0  0  0
   58.8880   29.2870   44.5190 N   0  0  0  0  0  0  0  0  0  0  0  0
   58.0360   28.0930   44.5490 C   0  0  0  0  0  0  0  0  0  0  0  0
   58.2530   27.3400   45.8730 C   0  0  0  0  0  0  0  0  0  0  0  0
   59.6320   27.5110   46.3500 N   0  0  0  0  0  0  0  0  0  0  0  0
   59.8800   27.6280   47.7640 C   0  0  0  0  0  0  0  0  0  0  0  0
   59.1960   26.9360   48.5720 O   0  0  0  0  0  0  0  0  0  0  0  0
   60.8560   28.5570   48.2690 N   0  0  0  0  0  0  0  0  0  0  0  0
   61.0530   28.7500   49.7100 C   0  0  0  0  0  0  0  0  0  0  0  0
   60.5690   30.1170   50.1250 C   0  0  0  0  0  0  0  0  0  0  0  0
   61.3370   30.9020   51.0090 C   0  0  0  0  0  0  0  0  0  0  0  0
   60.8570   32.1430   51.4360 C   0  0  0  0  0  0  0  0  0  0  0  0
   59.6140   32.6130   50.9880 C   0  0  0  0  0  0  0  0  0  0  0  0
   59.1540   33.8170   51.4240 F   0  0  0  0  0  0  0  0  0  0  0  0
   58.8440   31.8360   50.1150 C   0  0  0  0  0  0  0  0  0  0  0  0
   59.3160   30.5910   49.6880 C   0  0  0  0  0  0  0  0  0  0  0  0
   60.6820   27.7950   45.3610 C   0  0  0  0  0  0  0  0  0  0  0  0
   60.3480   29.0980   44.6210 C   0  0  0  0  0  0  0  0  0  0  0  0
   55.1570   28.3110   44.5190 H   0  0  0  0  0  0  0  0  0  0  0  0
   55.6893   32.6559   44.5648 H   0  0  0  0  0  0  0  0  0  0  0  0
   57.1965   34.1239   45.8988 H   0  0  0  0  0  0  0  0  0  0  0  0
   60.6298   31.1898   47.6652 H   0  0  0  0  0  0  0  0  0  0  0  0
   61.6392   31.2268   46.1862 H   0  0  0  0  0  0  0  0  0  0  0  0
   62.4932   32.0676   49.0153 H   0  0  0  0  0  0  0  0  0  0  0  0
   63.0398   30.6081   48.1118 H   0  0  0  0  0  0  0  0  0  0  0  0
   63.2206   34.1006   48.4638 H   0  0  0  0  0  0  0  0  0  0  0  0
   64.2458   34.3485   46.9885 H   0  0  0  0  0  0  0  0  0  0  0  0
   61.8054   35.0900   46.7742 H   0  0  0  0  0  0  0  0  0  0  0  0
   62.3953   33.9426   45.5193 H   0  0  0  0  0  0  0  0  0  0  0  0
   56.9810   28.3934   44.4669 H   0  0  0  0  0  0  0  0  0  0  0  0
   58.2971   27.4355   43.7067 H   0  0  0  0  0  0  0  0  0  0  0  0
   57.5582   27.7333   46.6297 H   0  0  0  0  0  0  0  0  0  0  0  0
   58.0685   26.2688   45.7040 H   0  0  0  0  0  0  0  0  0  0  0  0
   61.3100   29.2280   47.6080 H   0  0  0  0  0  0  0  0  0  0  0  0
   60.4883   27.9826   50.2596 H   0  0  0  0  0  0  0  0  0  0  0  0
   62.1254   28.6647   49.9396 H   0  0  0  0  0  0  0  0  0  0  0  0
   62.3131   30.5380   51.3623 H   0  0  0  0  0  0  0  0  0  0  0  0
   61.4568   32.7539   52.1266 H   0  0  0  0  0  0  0  0  0  0  0  0
   57.8684   32.2044   49.7651 H   0  0  0  0  0  0  0  0  0  0  0  0
   58.7062   29.9785   49.0076 H   0  0  0  0  0  0  0  0  0  0  0  0
   61.6494   27.9019   45.8735 H   0  0  0  0  0  0  0  0  0  0  0  0
   60.7395   26.9672   44.6389 H   0  0  0  0  0  0  0  0  0  0  0  0
   60.7833   29.9458   45.1704 H   0  0  0  0  0  0  0  0  0  0  0  0
   60.7667   29.0423   43.6053 H   0  0  0  0  0  0  0  0  0  0  0  0
  1  2  1  0
  2  3  2  0
  2  4  1  0
  4  5  2  0
  5  6  1  0
  6  7  2  0
  7  8  1  0
  8  9  2  0
  8 10  1  0
 10 11  1  0
 11 12  1  0
 12 13  1  0
 13 14  1  0
 14 15  1  0
  7 16  1  0
 16 17  2  0
 17 18  1  0
 18 19  1  0
 19 20  1  0
 20 21  1  0
 21 22  1  0
 22 23  2  0
 22 24  1  0
 24 25  1  0
 25 26  1  0
 26 27  2  0
 27 28  1  0
 28 29  2  0
 29 30  1  0
 29 31  1  0
 31 32  2  0
 21 33  1  0
 33 34  1  0
 17  4  1  0
 34 18  1  0
 15 10  1  0
 32 26  1  0
  1 35  1  0
  5 36  1  0
  6 37  1  0
 11 38  1  0
 11 39  1  0
 12 40  1  0
 12 41  1  0
 14 42  1  0
 14 43  1  0
 15 44  1  0
 15 45  1  0
 19 46  1  0
 19 47  1  0
 20 48  1  0
 20 49  1  0
 24 50  1  0
 25 51  1  0
 25 52  1  0
 27 53  1  0
 28 54  1  0
 31 55  1  0
 32 56  1  0
 33 57  1  0
 33 58  1  0
 34 59  1  0
 34 60  1  0
M  CHG  1   1  -1
M  END
>  <UniqueID>  (85) 
83

>  <SMILES>  (85) 
[NH-]C(=O)c1ccc(C(=O)N2CCOCC2)nc1N1CCN(C(=O)NCc2ccc(F)cc2)CC1

>  <Energy>  (85) 
80.68056337447982

>  <Genealogy>  (85) 
[NH-]C(=O)c1ccc(C(=O)N2CCOCC2)nc1N1CCN(C(=O)NCc2ccc(F)cc2)CC1 (protonated)
[NH-]C(=O)c1ccc(C(=O)N2CCOCC2)nc1N1CCN(C(=O)NCc2ccc(F)cc2)CC1 (3D coordinates assigned)
[NH-]C(=O)c1ccc(C(=O)N2CCOCC2)nc1N1CCN(C(=O)NCc2ccc(F)cc2)CC1 (nonaromatic ring conformer: 80.68056337447982 kcal/mol)

>  <smiles>  (85) 
NC(=O)c1ccc(C(=O)N2CCOCC2)nc1N1CCN(C(=O)NCc2ccc(F)cc2)CC1

>  <score_type>  (85) 
oracle

>  <origin>  (85) 
adg

>  <m_score__min__energy>  (85) 
-11.1

>  <m_primary>  (85) 
energy

$$$$
85:0
     RDKit          3D

 60 63  0  0  0  0  0  0  0  0999 V2000
   58.7939   25.9103   47.4279 H   0  0  0  0  0  0  0  0  0  0  0  0
   57.7740   25.5790   47.1830 C   0  0  0  0  0  0  0  0  0  0  0  0
   56.8210   26.2780   46.4630 C   0  0  0  0  0  0  0  0  0  0  0  0
   56.9360   27.6280   45.8700 C   0  0  0  0  0  0  0  0  0  0  0  0
   55.8930   28.2140   45.2460 N   0  0  0  0  0  0  0  0  0  0  0  0
   56.2640   29.4300   44.8810 N   0  0  0  0  0  0  0  0  0  0  0  0
   55.3960   30.3440   44.1430 C   0  0  0  0  0  0  0  0  0  0  0  0
   54.8173   30.9534   44.8527 H   0  0  0  0  0  0  0  0  0  0  0  0
   56.0098   31.0019   43.5103 H   0  0  0  0  0  0  0  0  0  0  0  0
   54.7073   29.7650   43.5103 H   0  0  0  0  0  0  0  0  0  0  0  0
   57.5470   29.6380   45.2270 C   0  0  0  0  0  0  0  0  0  0  0  0
   58.1640   30.7630   44.9850 N   0  0  0  0  0  0  0  0  0  0  0  0
   58.1730   31.9470   45.7890 C   0  0  0  0  0  0  0  0  0  0  0  0
   58.4090   31.8760   47.0240 O   0  0  0  0  0  0  0  0  0  0  0  0
   58.0750   33.2810   45.1320 C   0  0  0  0  0  0  0  0  0  0  0  0
   58.0174   34.0652   45.9012 H   0  0  0  0  0  0  0  0  0  0  0  0
   58.9634   33.4470   44.5049 H   0  0  0  0  0  0  0  0  0  0  0  0
   57.1719   33.3154   44.5049 H   0  0  0  0  0  0  0  0  0  0  0  0
   58.0240   28.5070   45.8900 C   0  0  0  0  0  0  0  0  0  0  0  0
   59.2820   28.3410   46.6500 C   0  0  0  0  0  0  0  0  0  0  0  0
   59.7560   27.1740   46.7360 O   0  0  0  0  0  0  0  0  0  0  0  0
   59.8850   29.4210   47.4210 N   0  0  0  0  0  0  0  0  0  0  0  0
   59.1360   30.1380   47.5750 H   0  0  0  0  0  0  0  0  0  0  0  0
   60.3410   28.9190   48.7390 C   0  0  0  0  0  0  0  0  0  0  0  0
   59.4943   28.4390   49.2516 H   0  0  0  0  0  0  0  0  0  0  0  0
   61.1555   28.1987   48.5722 H   0  0  0  0  0  0  0  0  0  0  0  0
   60.8750   30.0560   49.6160 C   0  0  0  0  0  0  0  0  0  0  0  0
   60.0452   30.7247   49.8887 H   0  0  0  0  0  0  0  0  0  0  0  0
   61.3263   29.6275   50.5230 H   0  0  0  0  0  0  0  0  0  0  0  0
   61.8950   30.8210   48.8900 N   0  0  0  0  0  0  0  0  0  0  0  0
   62.9850   31.4270   49.6300 C   0  0  0  0  0  0  0  0  0  0  0  0
   63.3580   30.9130   50.7180 O   0  0  0  0  0  0  0  0  0  0  0  0
   63.7240   32.6340   49.0990 C   0  0  0  0  0  0  0  0  0  0  0  0
   64.1676   32.3778   48.1256 H   0  0  0  0  0  0  0  0  0  0  0  0
   63.0015   33.4581   49.0051 H   0  0  0  0  0  0  0  0  0  0  0  0
   64.8210   33.0840   50.0290 C   0  0  0  0  0  0  0  0  0  0  0  0
   66.1480   32.6810   49.8100 C   0  0  0  0  0  0  0  0  0  0  0  0
   66.3930   32.0466   48.9455 H   0  0  0  0  0  0  0  0  0  0  0  0
   67.1590   33.0840   50.6880 C   0  0  0  0  0  0  0  0  0  0  0  0
   68.1978   32.7688   50.5107 H   0  0  0  0  0  0  0  0  0  0  0  0
   66.8520   33.8870   51.7910 C   0  0  0  0  0  0  0  0  0  0  0  0
   67.6498   34.2073   52.4773 H   0  0  0  0  0  0  0  0  0  0  0  0
   65.5330   34.2820   52.0210 C   0  0  0  0  0  0  0  0  0  0  0  0
   65.2913   34.9128   52.8892 H   0  0  0  0  0  0  0  0  0  0  0  0
   64.5190   33.8760   51.1480 C   0  0  0  0  0  0  0  0  0  0  0  0
   63.4789   34.1789   51.3391 H   0  0  0  0  0  0  0  0  0  0  0  0
   61.5760   31.2480   47.5240 C   0  0  0  0  0  0  0  0  0  0  0  0
   60.8306   32.0560   47.5620 H   0  0  0  0  0  0  0  0  0  0  0  0
   62.4965   31.6040   47.0383 H   0  0  0  0  0  0  0  0  0  0  0  0
   61.0090   30.0760   46.7140 C   0  0  0  0  0  0  0  0  0  0  0  0
   60.6508   30.4519   45.7443 H   0  0  0  0  0  0  0  0  0  0  0  0
   61.8088   29.3336   46.5751 H   0  0  0  0  0  0  0  0  0  0  0  0
   55.7210   25.5570   46.3680 O   0  0  0  0  0  0  0  0  0  0  0  0
   55.9100   24.4200   46.9960 C   0  0  0  0  0  0  0  0  0  0  0  0
   54.8960   23.3330   47.0960 C   0  0  0  0  0  0  0  0  0  0  0  0
   54.6939   23.1164   48.1554 H   0  0  0  0  0  0  0  0  0  0  0  0
   53.9660   23.6527   46.6032 H   0  0  0  0  0  0  0  0  0  0  0  0
   55.2795   22.4274   46.6032 H   0  0  0  0  0  0  0  0  0  0  0  0
   57.1830   24.3810   47.5310 C   0  0  0  0  0  0  0  0  0  0  0  0
   57.6329   23.5639   48.1140 H   0  0  0  0  0  0  0  0  0  0  0  0
  1  2  1  0
  2  3  2  0
  3  4  1  0
  4  5  1  0
  5  6  1  0
  6  7  1  0
  7  8  1  0
  7  9  1  0
  7 10  1  0
  6 11  1  0
 11 12  2  0
 12 13  1  0
 13 14  2  0
 13 15  1  0
 15 16  1  0
 15 17  1  0
 15 18  1  0
 11 19  1  0
 19 20  1  0
 20 21  2  0
 20 22  1  0
 22 23  1  0
 22 24  1  0
 24 25  1  0
 24 26  1  0
 24 27  1  0
 27 28  1  0
 27 29  1  0
 27 30  1  0
 30 31  1  0
 31 32  2  0
 31 33  1  0
 33 34  1  0
 33 35  1  0
 33 36  1  0
 36 37  2  0
 37 38  1  0
 37 39  1  0
 39 40  1  0
 39 41  2  0
 41 42  1  0
 41 43  1  0
 43 44  1  0
 43 45  2  0
 45 46  1  0
 30 47  1  0
 47 48  1  0
 47 49  1  0
 47 50  1  0
 50 51  1  0
 50 52  1  0
  3 53  1  0
 53 54  1  0
 54 55  1  0
 55 56  1  0
 55 57  1  0
 55 58  1  0
 54 59  2  0
 59 60  1  0
 59  2  1  0
 19  4  2  0
 50 22  1  0
 45 36  1  0
M  CHG  2   5  -1  22   1
M  END
>  <UniqueID>  (86) 
84

>  <SMILES>  (86) 
CC(=O)/N=c1\c(C(=O)[NH+]2CCN(C(=O)Cc3ccccc3)CC2)c(-c2ccc(C)o2)[n-]n1C

>  <Energy>  (86) 
139.24026383060578

>  <Genealogy>  (86) 
CC(=O)N=c1c(C(=O)[NH+]2CCN(C(=O)Cc3ccccc3)CC2)c(-c2ccc(C)o2)[n-]n1C (protonated)
CC(=O)/N=c1\c(C(=O)[NH+]2CCN(C(=O)Cc3ccccc3)CC2)c(-c2ccc(C)o2)[n-]n1C (cis-trans isomerization)
CC(=O)/N=c1\c(C(=O)[NH+]2CCN(C(=O)Cc3ccccc3)CC2)c(-c2ccc(C)o2)[n-]n1C (3D coordinates assigned)
CC(=O)/N=c1\c(C(=O)[NH+]2CCN(C(=O)Cc3ccccc3)CC2)c(-c2ccc(C)o2)[n-]n1C (nonaromatic ring conformer: 139.24026383060578 kcal/mol)

>  <smiles>  (86) 
CC(=O)N=c1c(C(=O)N2CCN(C(=O)Cc3ccccc3)CC2)c(-c2ccc(C)o2)[nH]n1C

>  <score_type>  (86) 
oracle

>  <origin>  (86) 
adg

>  <m_score__min__energy>  (86) 
-9.1199999999999992

>  <m_primary>  (86) 
energy

$$$$
86:0
     RDKit          3D

 57 59  0  0  0  0  0  0  0  0999 V2000
   59.7360   35.3660   46.6970 C   0  0  0  0  0  0  0  0  0  0  0  0
   59.3410   33.9320   46.5050 C   0  0  0  0  0  0  0  0  0  0  0  0
   58.0550   33.6090   46.0470 C   0  0  0  0  0  0  0  0  0  0  0  0
   57.6980   32.2740   45.8310 C   0  0  0  0  0  0  0  0  0  0  0  0
   58.6290   31.2490   46.0590 C   0  0  0  0  0  0  0  0  0  0  0  0
   58.1880   29.5710   45.7570 S   0  0  0  0  0  0  0  0  0  0  0  0
   56.7130   29.4730   45.4890 O   0  0  0  0  0  0  0  0  0  0  0  0
   58.9240   29.0890   44.5390 O   0  0  0  0  0  0  0  0  0  0  0  0
   58.5940   28.5500   47.0970 N   0  0  0  0  0  0  0  0  0  0  0  0
   59.1910   29.0400   48.3000 C   0  0  0  0  0  0  0  0  0  0  0  0
   60.3660   28.4690   48.8090 C   0  0  0  0  0  0  0  0  0  0  0  0
   60.9250   28.9550   49.9920 C   0  0  0  0  0  0  0  0  0  0  0  0
   60.3090   30.0010   50.6830 C   0  0  0  0  0  0  0  0  0  0  0  0
   59.1140   30.5640   50.2030 C   0  0  0  0  0  0  0  0  0  0  0  0
   58.4490   31.7010   50.9580 C   0  0  1  0  0  0  0  0  0  0  0  0
   57.5550   32.3800   50.1100 O   0  0  0  0  0  0  0  0  0  0  0  0
   57.7450   31.1940   52.2470 C   0  0  0  0  0  0  0  0  0  0  0  0
   56.3080   30.9190   52.0620 N   0  0  0  0  0  0  0  0  0  0  0  0
   55.8020   29.7170   52.7580 C   0  0  1  0  0  0  0  0  0  0  0  0
   55.5600   29.9870   54.2550 C   0  0  0  0  0  0  0  0  0  0  0  0
   54.5060   29.2160   52.0770 C   0  0  0  0  0  0  0  0  0  0  0  0
   53.4050   30.2500   52.0610 C   0  0  0  0  0  0  0  0  0  0  0  0
   52.5750   30.4230   53.1830 C   0  0  0  0  0  0  0  0  0  0  0  0
   51.5440   31.3670   53.1590 C   0  0  0  0  0  0  0  0  0  0  0  0
   51.3340   32.1470   52.0180 C   0  0  0  0  0  0  0  0  0  0  0  0
   50.3100   33.0850   51.9960 O   0  0  0  0  0  0  0  0  0  0  0  0
   52.1550   31.9820   50.8990 C   0  0  0  0  0  0  0  0  0  0  0  0
   53.1860   31.0370   50.9180 C   0  0  0  0  0  0  0  0  0  0  0  0
   58.5580   30.0690   49.0080 C   0  0  0  0  0  0  0  0  0  0  0  0
   59.9210   31.5720   46.4950 C   0  0  0  0  0  0  0  0  0  0  0  0
   60.2770   32.9060   46.7110 C   0  0  0  0  0  0  0  0  0  0  0  0
   59.7973   35.5886   47.7725 H   0  0  0  0  0  0  0  0  0  0  0  0
   60.7161   35.5421   46.2297 H   0  0  0  0  0  0  0  0  0  0  0  0
   58.9843   36.0191   46.2297 H   0  0  0  0  0  0  0  0  0  0  0  0
   57.3243   34.4090   45.8569 H   0  0  0  0  0  0  0  0  0  0  0  0
   56.6847   32.0269   45.4815 H   0  0  0  0  0  0  0  0  0  0  0  0
   60.8481   27.6367   48.2752 H   0  0  0  0  0  0  0  0  0  0  0  0
   61.8538   28.5128   50.3815 H   0  0  0  0  0  0  0  0  0  0  0  0
   60.7619   30.3864   51.6084 H   0  0  0  0  0  0  0  0  0  0  0  0
   59.2263   32.4091   51.2811 H   0  0  0  0  0  0  0  0  0  0  0  0
   56.6410   32.0350   50.2850 H   0  0  0  0  0  0  0  0  0  0  0  0
   58.2384   30.2659   52.5713 H   0  0  0  0  0  0  0  0  0  0  0  0
   57.8278   31.9940   52.9974 H   0  0  0  0  0  0  0  0  0  0  0  0
   56.1270   30.8230   51.0350 H   0  0  0  0  0  0  0  0  0  0  0  0
   56.5709   28.9336   52.6861 H   0  0  0  0  0  0  0  0  0  0  0  0
   56.1751   29.3007   54.8555 H   0  0  0  0  0  0  0  0  0  0  0  0
   55.8348   31.0260   54.4893 H   0  0  0  0  0  0  0  0  0  0  0  0
   54.4972   29.8271   54.4893 H   0  0  0  0  0  0  0  0  0  0  0  0
   54.7410   28.9393   51.0386 H   0  0  0  0  0  0  0  0  0  0  0  0
   54.1406   28.3580   52.6603 H   0  0  0  0  0  0  0  0  0  0  0  0
   52.7377   29.8128   54.0836 H   0  0  0  0  0  0  0  0  0  0  0  0
   50.8971   31.4962   54.0392 H   0  0  0  0  0  0  0  0  0  0  0  0
   51.9900   32.5965   50.0017 H   0  0  0  0  0  0  0  0  0  0  0  0
   53.8282   30.9094   50.0341 H   0  0  0  0  0  0  0  0  0  0  0  0
   57.6178   30.4944   48.6271 H   0  0  0  0  0  0  0  0  0  0  0  0
   60.6572   30.7731   46.6677 H   0  0  0  0  0  0  0  0  0  0  0  0
   61.2957   33.1534   47.0441 H   0  0  0  0  0  0  0  0  0  0  0  0
  1  2  1  0
  2  3  2  0
  3  4  1  0
  4  5  2  0
  5  6  1  0
  6  7  2  0
  6  8  2  0
  6  9  1  0
  9 10  1  0
 10 11  2  0
 11 12  1  0
 12 13  2  0
 13 14  1  0
 14 15  1  0
 15 16  1  0
 15 17  1  0
 17 18  1  0
 18 19  1  0
 19 20  1  0
 19 21  1  0
 21 22  1  0
 22 23  2  0
 23 24  1  0
 24 25  2  0
 25 26  1  0
 25 27  1  0
 27 28  2  0
 14 29  2  0
  5 30  1  0
 30 31  2  0
 31  2  1  0
 29 10  1  0
 28 22  1  0
  1 32  1  0
  1 33  1  0
  1 34  1  0
  3 35  1  0
  4 36  1  0
 11 37  1  0
 12 38  1  0
 13 39  1  0
 15 40  1  1
 16 41  1  0
 17 42  1  0
 17 43  1  0
 18 44  1  0
 19 45  1  1
 20 46  1  0
 20 47  1  0
 20 48  1  0
 21 49  1  0
 21 50  1  0
 23 51  1  0
 24 52  1  0
 27 53  1  0
 28 54  1  0
 29 55  1  0
 30 56  1  0
 31 57  1  0
M  CHG  2   9  -1  26  -1
M  END
>  <UniqueID>  (87) 
85

>  <SMILES>  (87) 
Cc1ccc(S(=O)(=O)[N-]c2cccc([C@@H](O)CN[C@@H](C)Cc3ccc([O-])cc3)c2)cc1

>  <Energy>  (87) 
68.61577058549382

>  <Genealogy>  (87) 
Cc1ccc(S(=O)(=O)[N-]c2cccc(C(O)CNC(C)Cc3ccc([O-])cc3)c2)cc1 (protonated)
Cc1ccc(S(=O)(=O)[N-]c2cccc([C@@H](O)CN[C@@H](C)Cc3ccc([O-])cc3)c2)cc1 (chirality)
Cc1ccc(S(=O)(=O)[N-]c2cccc([C@@H](O)CN[C@@H](C)Cc3ccc([O-])cc3)c2)cc1 (3D coordinates assigned)
Cc1ccc(S(=O)(=O)[N-]c2cccc([C@@H](O)CN[C@@H](C)Cc3ccc([O-])cc3)c2)cc1 (optimized conformer: 68.61577058549382 kcal/mol)

>  <smiles>  (87) 
Cc1ccc(S(=O)(=O)Nc2cccc(C(O)CNC(C)Cc3ccc(O)cc3)c2)cc1

>  <score_type>  (87) 
oracle

>  <origin>  (87) 
adg

>  <m_score__min__energy>  (87) 
-14.119999999999999

>  <m_primary>  (87) 
energy

$$$$
87:0
     RDKit          3D

 37 39  0  0  0  0  0  0  0  0999 V2000
   55.1430   28.1550   45.4760 H   0  0  0  0  0  0  0  0  0  0  0  0
   55.1680   28.9740   44.8800 O   0  0  0  0  0  0  0  0  0  0  0  0
   56.3010   29.7810   44.8190 C   0  0  0  0  0  0  0  0  0  0  0  0
   56.1660   31.1320   44.7600 N   0  0  0  0  0  0  0  0  0  0  0  0
   57.2530   31.9430   44.6910 C   0  0  0  0  0  0  0  0  0  0  0  0
   57.1020   33.1920   44.6410 O   0  0  0  0  0  0  0  0  0  0  0  0
   58.5010   31.4090   44.6700 N   0  0  0  0  0  0  0  0  0  0  0  0
   58.6900   30.0660   44.7270 C   0  0  0  0  0  0  0  0  0  0  0  0
   59.8610   29.6020   44.6850 O   0  0  0  0  0  0  0  0  0  0  0  0
   57.5800   29.2070   44.8280 C   0  0  0  0  0  0  0  0  0  0  0  0
   57.7390   27.7420   44.8410 C   0  0  0  0  0  0  0  0  0  0  0  0
   57.6134   27.2124   43.8851 H   0  0  0  0  0  0  0  0  0  0  0  0
   58.0260   26.9960   45.9290 C   0  0  0  0  0  0  0  0  0  0  0  0
   57.5260   25.7140   46.1820 C   0  0  0  0  0  0  0  0  0  0  0  0
   56.5520   24.8780   45.3760 C   0  0  2  0  0  0  0  0  0  0  0  0
   56.6519   25.1890   44.3256 H   0  0  0  0  0  0  0  0  0  0  0  0
   55.1160   25.1290   45.7730 C   0  0  0  0  0  0  0  0  0  0  0  0
   54.7150   26.2690   45.9600 O   0  0  0  0  0  0  0  0  0  0  0  0
   54.1670   23.9700   45.9030 C   0  0  0  0  0  0  0  0  0  0  0  0
   53.1319   24.3350   45.8299 H   0  0  0  0  0  0  0  0  0  0  0  0
   54.3187   23.4824   46.8773 H   0  0  0  0  0  0  0  0  0  0  0  0
   54.4310   22.9580   44.7820 C   0  0  0  0  0  0  0  0  0  0  0  0
   54.1553   23.4216   43.8233 H   0  0  0  0  0  0  0  0  0  0  0  0
   53.8275   22.0658   45.0050 H   0  0  0  0  0  0  0  0  0  0  0  0
   55.9070   22.4970   44.6960 C   0  0  0  0  0  0  0  0  0  0  0  0
   56.2054   22.4959   43.6372 H   0  0  0  0  0  0  0  0  0  0  0  0
   55.9501   21.4989   45.1563 H   0  0  0  0  0  0  0  0  0  0  0  0
   56.9000   23.3820   45.4750 C   0  0  0  0  0  0  0  0  0  0  0  0
   57.9091   23.2258   45.0659 H   0  0  0  0  0  0  0  0  0  0  0  0
   56.8470   23.0939   46.5353 H   0  0  0  0  0  0  0  0  0  0  0  0
   58.0960   25.3010   47.3700 C   0  0  0  0  0  0  0  0  0  0  0  0
   57.9214   24.3266   47.8496 H   0  0  0  0  0  0  0  0  0  0  0  0
   58.8760   26.2430   47.8410 O   0  0  0  0  0  0  0  0  0  0  0  0
   58.8540   27.2760   47.0300 C   0  0  0  0  0  0  0  0  0  0  0  0
   59.5120   28.4000   47.3240 C   0  0  0  0  0  0  0  0  0  0  0  0
   59.4802   29.2533   46.6306 H   0  0  0  0  0  0  0  0  0  0  0  0
   60.0859   28.4727   48.2596 H   0  0  0  0  0  0  0  0  0  0  0  0
  1  2  1  0
  2  3  1  0
  3  4  1  0
  4  5  1  0
  5  6  2  0
  5  7  1  0
  7  8  1  0
  8  9  2  0
  8 10  1  0
 10 11  1  0
 11 12  1  0
 11 13  2  0
 13 14  1  0
 14 15  1  0
 15 16  1  6
 15 17  1  0
 17 18  2  0
 17 19  1  0
 19 20  1  0
 19 21  1  0
 19 22  1  0
 22 23  1  0
 22 24  1  0
 22 25  1  0
 25 26  1  0
 25 27  1  0
 25 28  1  0
 28 29  1  0
 28 30  1  0
 14 31  2  0
 31 32  1  0
 31 33  1  0
 33 34  1  0
 34 35  2  0
 35 36  1  0
 35 37  1  0
 10  3  2  0
 34 13  1  0
 28 15  1  0
M  CHG  2   4  -1   7  -1
M  END
>  <UniqueID>  (88) 
86

>  <SMILES>  (88) 
C=c1occ([C@H]2CCCCC2=O)/c1=C/c1c(O)[n-]c(=O)[n-]c1=O

>  <Energy>  (88) 
81.88112954990451

>  <Genealogy>  (88) 
C=c1occ(C2CCCCC2=O)c1=Cc1c(O)[n-]c(=O)[n-]c1=O (protonated)
C=c1occ([C@H]2CCCCC2=O)c1=Cc1c(O)[n-]c(=O)[n-]c1=O (chirality)
C=c1occ([C@H]2CCCCC2=O)/c1=C/c1c(O)[n-]c(=O)[n-]c1=O (cis-trans isomerization)
C=c1occ([C@H]2CCCCC2=O)/c1=C/c1c(O)[n-]c(=O)[n-]c1=O (3D coordinates assigned)
C=c1occ([C@H]2CCCCC2=O)/c1=C/c1c(O)[n-]c(=O)[n-]c1=O (nonaromatic ring conformer: 81.88112954990451 kcal/mol)

>  <smiles>  (88) 
C=c1occ(C2CCCCC2=O)c1=Cc1c(O)[nH]c(=O)[nH]c1=O

>  <score_type>  (88) 
oracle

>  <origin>  (88) 
adg

>  <m_score__min__energy>  (88) 
-12.76

>  <m_primary>  (88) 
energy

$$$$
88:0
     RDKit          3D

 46 47  0  0  0  0  0  0  0  0999 V2000
   58.7690   29.0410   48.0380 C   0  0  0  0  0  0  0  0  0  0  0  0
   60.2640   28.7550   47.9020 C   0  0  0  0  0  0  0  0  0  0  0  0
   61.1070   30.0350   47.7410 C   0  0  0  0  0  0  0  0  0  0  0  0
   61.0830   30.9550   48.9770 C   0  0  0  0  0  0  0  0  0  0  0  0
   60.6030   32.3070   48.6570 N   0  0  0  0  0  0  0  0  0  0  0  0
   61.5500   33.4360   48.7170 C   0  0  0  0  0  0  0  0  0  0  0  0
   62.5750   33.3680   47.5880 C   0  0  0  0  0  0  0  0  0  0  0  0
   59.2330   32.4960   48.2340 C   0  0  0  0  0  0  0  0  0  0  0  0
   58.2950   32.3360   49.0620 O   0  0  0  0  0  0  0  0  0  0  0  0
   58.8900   32.8850   46.8530 C   0  0  0  0  0  0  0  0  0  0  0  0
   58.7500   34.2360   46.5050 C   0  0  0  0  0  0  0  0  0  0  0  0
   58.4210   34.5940   45.1960 C   0  0  0  0  0  0  0  0  0  0  0  0
   58.2360   33.6080   44.2240 C   0  0  0  0  0  0  0  0  0  0  0  0
   58.4010   32.2530   44.5510 C   0  0  0  0  0  0  0  0  0  0  0  0
   58.1530   31.1840   43.5210 C   0  0  0  0  0  0  0  0  0  0  0  0
   57.6330   29.9340   44.1840 C   0  0  0  0  0  0  0  0  0  0  0  0
   58.4980   28.8610   44.4470 C   0  0  0  0  0  0  0  0  0  0  0  0
   58.0390   27.7510   45.0820 N   0  0  0  0  0  0  0  0  0  0  0  0
   56.7420   27.6620   45.4800 C   0  0  0  0  0  0  0  0  0  0  0  0
   56.3290   26.6280   46.0680 O   0  0  0  0  0  0  0  0  0  0  0  0
   55.8870   28.6920   45.2480 N   0  0  0  0  0  0  0  0  0  0  0  0
   56.3000   29.8210   44.6160 C   0  0  0  0  0  0  0  0  0  0  0  0
   55.4790   30.7580   44.4260 O   0  0  0  0  0  0  0  0  0  0  0  0
   58.7330   31.8980   45.8690 C   0  0  0  0  0  0  0  0  0  0  0  0
   58.5009   29.0923   49.1036 H   0  0  0  0  0  0  0  0  0  0  0  0
   58.5337   30.0004   47.5541 H   0  0  0  0  0  0  0  0  0  0  0  0
   58.1962   28.2361   47.5541 H   0  0  0  0  0  0  0  0  0  0  0  0
   60.6029   28.2225   48.8029 H   0  0  0  0  0  0  0  0  0  0  0  0
   60.4034   28.1513   46.9931 H   0  0  0  0  0  0  0  0  0  0  0  0
   62.1493   29.7417   47.5471 H   0  0  0  0  0  0  0  0  0  0  0  0
   60.6683   30.6050   46.9088 H   0  0  0  0  0  0  0  0  0  0  0  0
   60.4179   30.5134   49.7338 H   0  0  0  0  0  0  0  0  0  0  0  0
   62.1138   31.0436   49.3506 H   0  0  0  0  0  0  0  0  0  0  0  0
   60.9885   34.3782   48.6335 H   0  0  0  0  0  0  0  0  0  0  0  0
   62.0882   33.3840   49.6749 H   0  0  0  0  0  0  0  0  0  0  0  0
   63.5866   33.3009   48.0148 H   0  0  0  0  0  0  0  0  0  0  0  0
   62.3791   32.4809   46.9678 H   0  0  0  0  0  0  0  0  0  0  0  0
   62.4980   34.2732   46.9678 H   0  0  0  0  0  0  0  0  0  0  0  0
   58.8998   35.0164   47.2656 H   0  0  0  0  0  0  0  0  0  0  0  0
   58.3072   35.6552   44.9296 H   0  0  0  0  0  0  0  0  0  0  0  0
   57.9600   33.8945   43.1985 H   0  0  0  0  0  0  0  0  0  0  0  0
   57.4111   31.5452   42.7936 H   0  0  0  0  0  0  0  0  0  0  0  0
   59.0985   30.9523   43.0089 H   0  0  0  0  0  0  0  0  0  0  0  0
   59.5521   28.9187   44.1378 H   0  0  0  0  0  0  0  0  0  0  0  0
   58.6970   26.9600   45.2670 H   0  0  0  0  0  0  0  0  0  0  0  0
   58.8708   30.8386   46.1311 H   0  0  0  0  0  0  0  0  0  0  0  0
  1  2  1  0
  2  3  1  0
  3  4  1  0
  4  5  1  0
  5  6  1  0
  6  7  1  0
  5  8  1  0
  8  9  2  0
  8 10  1  0
 10 11  2  0
 11 12  1  0
 12 13  2  0
 13 14  1  0
 14 15  1  0
 15 16  1  0
 16 17  2  0
 17 18  1  0
 18 19  1  0
 19 20  2  0
 19 21  1  0
 21 22  1  0
 22 23  2  0
 14 24  2  0
 24 10  1  0
 22 16  1  0
  1 25  1  0
  1 26  1  0
  1 27  1  0
  2 28  1  0
  2 29  1  0
  3 30  1  0
  3 31  1  0
  4 32  1  0
  4 33  1  0
  6 34  1  0
  6 35  1  0
  7 36  1  0
  7 37  1  0
  7 38  1  0
 11 39  1  0
 12 40  1  0
 13 41  1  0
 15 42  1  0
 15 43  1  0
 17 44  1  0
 18 45  1  0
 24 46  1  0
M  CHG  1  21  -1
M  END
>  <UniqueID>  (89) 
87

>  <SMILES>  (89) 
CCCCN(CC)C(=O)c1cccc(Cc2c[nH]c(=O)[n-]c2=O)c1

>  <Energy>  (89) 
43.2036957663152

>  <Genealogy>  (89) 
CCCCN(CC)C(=O)c1cccc(Cc2c[nH]c(=O)[n-]c2=O)c1 (protonated)
CCCCN(CC)C(=O)c1cccc(Cc2c[nH]c(=O)[n-]c2=O)c1 (3D coordinates assigned)
CCCCN(CC)C(=O)c1cccc(Cc2c[nH]c(=O)[n-]c2=O)c1 (optimized conformer: 43.2036957663152 kcal/mol)

>  <smiles>  (89) 
CCCCN(CC)C(=O)c1cccc(Cc2c[nH]c(=O)[nH]c2=O)c1

>  <score_type>  (89) 
oracle

>  <origin>  (89) 
adg

>  <m_score__min__energy>  (89) 
-10.17

>  <m_primary>  (89) 
energy

$$$$
89:0
     RDKit          3D

 51 53  0  0  0  0  0  0  0  0999 V2000
   61.0207   28.1211   46.5306 H   0  0  0  0  0  0  0  0  0  0  0  0
   60.2550   27.5370   45.9990 C   0  0  0  0  0  0  0  0  0  0  0  0
   60.3699   26.4483   45.8917 H   0  0  0  0  0  0  0  0  0  0  0  0
   59.1800   28.1530   45.4810 C   0  0  0  0  0  0  0  0  0  0  0  0
   58.1210   27.5540   44.7790 C   0  0  0  0  0  0  0  0  0  0  0  0
   57.7850   26.2600   44.6120 C   0  0  0  0  0  0  0  0  0  0  0  0
   58.0029   25.8084   43.6330 H   0  0  0  0  0  0  0  0  0  0  0  0
   57.1520   25.3960   45.6230 C   0  0  0  0  0  0  0  0  0  0  0  0
   57.7360   24.3260   46.1950 N   0  0  0  0  0  0  0  0  0  0  0  0
   56.8470   23.9590   47.1450 C   0  0  0  0  0  0  0  0  0  0  0  0
   57.0330   22.9690   47.8990 O   0  0  0  0  0  0  0  0  0  0  0  0
   55.7510   24.7440   47.2320 N   0  0  0  0  0  0  0  0  0  0  0  0
   55.9700   25.6570   46.2710 C   0  0  0  0  0  0  0  0  0  0  0  0
   55.1090   26.7130   45.9970 O   0  0  0  0  0  0  0  0  0  0  0  0
   57.3720   28.5910   44.2500 C   0  0  0  0  0  0  0  0  0  0  0  0
   56.4878   28.4972   43.6023 H   0  0  0  0  0  0  0  0  0  0  0  0
   57.9460   29.7620   44.6900 C   0  0  0  0  0  0  0  0  0  0  0  0
   57.3920   31.1010   44.4340 C   0  0  0  0  0  0  0  0  0  0  0  0
   56.2130   31.3620   44.7890 O   0  0  0  0  0  0  0  0  0  0  0  0
   58.1720   32.1200   43.7920 N   0  0  0  0  0  0  0  0  0  0  0  0
   58.1100   33.5410   44.1320 C   0  0  0  0  0  0  0  0  0  0  0  0
   58.7061   34.1140   43.4065 H   0  0  0  0  0  0  0  0  0  0  0  0
   57.0610   33.8706   44.1019 H   0  0  0  0  0  0  0  0  0  0  0  0
   58.6570   33.7720   45.5180 C   0  0  0  0  0  0  0  0  0  0  0  0
   59.8800   34.4460   45.6810 C   0  0  0  0  0  0  0  0  0  0  0  0
   60.4059   34.8497   44.8032 H   0  0  0  0  0  0  0  0  0  0  0  0
   60.4290   34.6040   46.9580 C   0  0  0  0  0  0  0  0  0  0  0  0
   61.3900   35.1250   47.0811 H   0  0  0  0  0  0  0  0  0  0  0  0
   59.7590   34.1010   48.0800 C   0  0  0  0  0  0  0  0  0  0  0  0
   60.2980   34.2540   49.3170 F   0  0  0  0  0  0  0  0  0  0  0  0
   58.5400   33.4330   47.9250 C   0  0  0  0  0  0  0  0  0  0  0  0
   58.0186   33.0292   48.8054 H   0  0  0  0  0  0  0  0  0  0  0  0
   57.9830   33.2780   46.6500 C   0  0  0  0  0  0  0  0  0  0  0  0
   57.0153   32.7683   46.5328 H   0  0  0  0  0  0  0  0  0  0  0  0
   59.0340   29.5040   45.4530 N   0  0  0  0  0  0  0  0  0  0  0  0
   59.8880   30.5130   46.0950 C   0  0  0  0  0  0  0  0  0  0  0  0
   60.9180   30.4052   45.7243 H   0  0  0  0  0  0  0  0  0  0  0  0
   59.5023   31.5142   45.8523 H   0  0  0  0  0  0  0  0  0  0  0  0
   59.8770   30.3310   47.6150 C   0  0  0  0  0  0  0  0  0  0  0  0
   59.0001   30.8477   48.0323 H   0  0  0  0  0  0  0  0  0  0  0  0
   59.8339   29.2546   47.8375 H   0  0  0  0  0  0  0  0  0  0  0  0
   61.1480   30.9090   48.2500 C   0  0  0  0  0  0  0  0  0  0  0  0
   60.8769   31.7685   48.8808 H   0  0  0  0  0  0  0  0  0  0  0  0
   61.6270   30.1251   48.8550 H   0  0  0  0  0  0  0  0  0  0  0  0
   62.1360   31.3690   47.1720 C   0  0  0  0  0  0  0  0  0  0  0  0
   62.7455   30.5100   46.8546 H   0  0  0  0  0  0  0  0  0  0  0  0
   61.5622   31.7734   46.3251 H   0  0  0  0  0  0  0  0  0  0  0  0
   63.0590   32.4670   47.6970 C   0  0  0  0  0  0  0  0  0  0  0  0
   63.0512   32.4577   48.7969 H   0  0  0  0  0  0  0  0  0  0  0  0
   64.0828   32.2891   47.3361 H   0  0  0  0  0  0  0  0  0  0  0  0
   62.7077   33.4449   47.3361 H   0  0  0  0  0  0  0  0  0  0  0  0
  1  2  1  0
  2  3  1  0
  2  4  2  0
  4  5  1  0
  5  6  2  0
  6  7  1  0
  6  8  1  0
  8  9  1  0
  9 10  1  0
 10 11  2  0
 10 12  1  0
 12 13  1  0
 13 14  1  0
  5 15  1  0
 15 16  1  0
 15 17  2  0
 17 18  1  0
 18 19  2  0
 18 20  1  0
 20 21  1  0
 21 22  1  0
 21 23  1  0
 21 24  1  0
 24 25  2  0
 25 26  1  0
 25 27  1  0
 27 28  1  0
 27 29  2  0
 29 30  1  0
 29 31  1  0
 31 32  1  0
 31 33  2  0
 33 34  1  0
 17 35  1  0
 35 36  1  0
 36 37  1  0
 36 38  1  0
 36 39  1  0
 39 40  1  0
 39 41  1  0
 39 42  1  0
 42 43  1  0
 42 44  1  0
 42 45  1  0
 45 46  1  0
 45 47  1  0
 45 48  1  0
 48 49  1  0
 48 50  1  0
 48 51  1  0
 35  4  1  0
 13  8  2  0
 33 24  1  0
M  CHG  4   9  -1  12  -1  14  -1  20  -1
M  END
>  <UniqueID>  (90) 
88

>  <SMILES>  (90) 
C=c1/c(=C\c2[n-]c(=O)[n-]c2[O-])cc(C(=O)[N-]Cc2ccc(F)cc2)n1CCCCC

>  <Energy>  (90) 
113.32309228668785

>  <Genealogy>  (90) 
C=c1c(=Cc2[n-]c(=O)[n-]c2[O-])cc(C(=O)[N-]Cc2ccc(F)cc2)n1CCCCC (protonated)
C=c1/c(=C\c2[n-]c(=O)[n-]c2[O-])cc(C(=O)[N-]Cc2ccc(F)cc2)n1CCCCC (cis-trans isomerization)
C=c1/c(=C\c2[n-]c(=O)[n-]c2[O-])cc(C(=O)[N-]Cc2ccc(F)cc2)n1CCCCC (3D coordinates assigned)
C=c1/c(=C\c2[n-]c(=O)[n-]c2[O-])cc(C(=O)[N-]Cc2ccc(F)cc2)n1CCCCC (optimized conformer: 113.32309228668785 kcal/mol)

>  <smiles>  (90) 
C=c1c(=Cc2[nH]c(=O)[nH]c2O)cc(C(=O)NCc2ccc(F)cc2)n1CCCCC

>  <score_type>  (90) 
oracle

>  <origin>  (90) 
adg

>  <m_score__min__energy>  (90) 
-17.52

>  <m_primary>  (90) 
energy

$$$$
