0:0
     RDKit          3D

 47 50  0  0  0  0  0  0  0  0999 V2000
   55.5100   28.9670   44.7040 N   0  0  0  0  0  0  0  0  0  0  0  0
   56.8430   29.4480   44.5540 C   0  0  0  0  0  0  0  0  0  0  0  0
   57.6580   28.8000   43.8460 O   0  0  0  0  0  0  0  0  0  0  0  0
   57.2920   30.6710   45.2430 C   0  0  0  0  0  0  0  0  0  0  0  0
   56.9650   31.9070   44.8170 N   0  0  0  0  0  0  0  0  0  0  0  0
   57.5850   32.7610   45.5800 O   0  0  0  0  0  0  0  0  0  0  0  0
   58.3020   32.1510   46.4940 C   0  0  0  0  0  0  0  0  0  0  0  0
   59.1110   32.8630   47.4980 C   0  0  0  0  0  0  0  0  0  0  0  0
   58.5250   33.4620   48.4390 O   0  0  0  0  0  0  0  0  0  0  0  0
   60.5470   32.8590   47.4450 N   0  0  0  0  0  0  0  0  0  0  0  0
   61.2630   31.5780   47.3360 C   0  0  0  0  0  0  0  0  0  0  0  0
   62.7770   31.7900   47.3480 C   0  0  0  0  0  0  0  0  0  0  0  0
   63.1380   32.6740   48.4640 N   0  0  0  0  0  0  0  0  0  0  0  0
   64.1460   32.2800   49.4140 C   0  0  0  0  0  0  0  0  0  0  0  0
   63.9150   31.2070   50.2920 C   0  0  0  0  0  0  0  0  0  0  0  0
   64.8900   30.8330   51.2210 C   0  0  0  0  0  0  0  0  0  0  0  0
   66.1010   31.5260   51.2840 C   0  0  0  0  0  0  0  0  0  0  0  0
   66.3400   32.5970   50.4180 C   0  0  0  0  0  0  0  0  0  0  0  0
   67.8620   33.4660   50.4960 Cl  0  0  0  0  0  0  0  0  0  0  0  0
   65.3650   32.9750   49.4870 C   0  0  0  0  0  0  0  0  0  0  0  0
   62.4020   33.9330   48.6700 C   0  0  0  0  0  0  0  0  0  0  0  0
   61.2900   34.1140   47.6280 C   0  0  0  0  0  0  0  0  0  0  0  0
   58.1550   30.7820   46.3260 C   0  0  0  0  0  0  0  0  0  0  0  0
   58.8330   29.7050   47.0750 C   0  0  0  0  0  0  0  0  0  0  0  0
   58.8870   29.7450   48.4770 C   0  0  0  0  0  0  0  0  0  0  0  0
   59.4940   28.7060   49.1880 C   0  0  0  0  0  0  0  0  0  0  0  0
   60.0490   27.6210   48.5050 C   0  0  0  0  0  0  0  0  0  0  0  0
   59.9990   27.5740   47.1100 C   0  0  0  0  0  0  0  0  0  0  0  0
   59.3930   28.6110   46.3950 C   0  0  0  0  0  0  0  0  0  0  0  0
   55.1560   28.6450   45.6320 H   0  0  0  0  0  0  0  0  0  0  0  0
   60.9834   30.9370   48.1851 H   0  0  0  0  0  0  0  0  0  0  0  0
   60.9847   31.1025   46.3839 H   0  0  0  0  0  0  0  0  0  0  0  0
   63.2822   30.8205   47.4698 H   0  0  0  0  0  0  0  0  0  0  0  0
   63.0907   32.2499   46.3993 H   0  0  0  0  0  0  0  0  0  0  0  0
   62.9623   30.6590   50.2478 H   0  0  0  0  0  0  0  0  0  0  0  0
   64.7032   29.9911   51.9039 H   0  0  0  0  0  0  0  0  0  0  0  0
   66.8670   31.2289   52.0154 H   0  0  0  0  0  0  0  0  0  0  0  0
   65.5543   33.8204   48.8092 H   0  0  0  0  0  0  0  0  0  0  0  0
   61.9525   33.9236   49.6739 H   0  0  0  0  0  0  0  0  0  0  0  0
   63.1111   34.7673   48.5650 H   0  0  0  0  0  0  0  0  0  0  0  0
   60.5980   34.8979   47.9695 H   0  0  0  0  0  0  0  0  0  0  0  0
   61.7448   34.4014   46.6685 H   0  0  0  0  0  0  0  0  0  0  0  0
   58.4500   30.5972   49.0181 H   0  0  0  0  0  0  0  0  0  0  0  0
   59.5348   28.7426   50.2866 H   0  0  0  0  0  0  0  0  0  0  0  0
   60.5255   26.8035   49.0660 H   0  0  0  0  0  0  0  0  0  0  0  0
   60.4372   26.7197   46.5732 H   0  0  0  0  0  0  0  0  0  0  0  0
   59.3546   28.5702   45.2964 H   0  0  0  0  0  0  0  0  0  0  0  0
  1  2  1  0
  2  3  2  0
  2  4  1  0
  4  5  2  0
  5  6  1  0
  6  7  1  0
  7  8  1  0
  8  9  2  0
  8 10  1  0
 10 11  1  0
 11 12  1  0
 12 13  1  0
 13 14  1  0
 14 15  2  0
 15 16  1  0
 16 17  2  0
 17 18  1  0
 18 19  1  0
 18 20  2  0
 13 21  1  0
 21 22  1  0
  7 23  2  0
 23 24  1  0
 24 25  2  0
 25 26  1  0
 26 27  2  0
 27 28  1  0
 28 29  2  0
 23  4  1  0
 29 24  1  0
 22 10  1  0
 20 14  1  0
  1 30  1  0
 11 31  1  0
 11 32  1  0
 12 33  1  0
 12 34  1  0
 15 35  1  0
 16 36  1  0
 17 37  1  0
 20 38  1  0
 21 39  1  0
 21 40  1  0
 22 41  1  0
 22 42  1  0
 25 43  1  0
 26 44  1  0
 27 45  1  0
 28 46  1  0
 29 47  1  0
M  CHG  1   1  -1
M  END
>  <UniqueID>  (1) 
1

>  <SMILES>  (1) 
[NH-]C(=O)c1noc(C(=O)N2CCN(c3cccc(Cl)c3)CC2)c1-c1ccccc1

>  <Energy>  (1) 
94.99292156843845

>  <Genealogy>  (1) 
[NH-]C(=O)c1noc(C(=O)N2CCN(c3cccc(Cl)c3)CC2)c1-c1ccccc1 (protonated)
[NH-]C(=O)c1noc(C(=O)N2CCN(c3cccc(Cl)c3)CC2)c1-c1ccccc1 (3D coordinates assigned)
[NH-]C(=O)c1noc(C(=O)N2CCN(c3cccc(Cl)c3)CC2)c1-c1ccccc1 (nonaromatic ring conformer: 94.99292156843845 kcal/mol)

>  <smiles>  (1) 
NC(=O)c1noc(C(=O)N2CCN(c3cccc(Cl)c3)CC2)c1-c1ccccc1

>  <score_type>  (1) 
oracle

>  <origin>  (1) 
adg

>  <m_score__min__energy>  (1) 
-11.19

>  <m_primary>  (1) 
energy

$$$$
1:0
     RDKit          3D

 39 41  0  0  0  0  0  0  0  0999 V2000
   55.8860   29.8180   43.3120 C   0  0  0  0  0  0  0  0  0  0  0  0
   56.7840   29.4920   44.2430 C   0  0  0  0  0  0  0  0  0  0  0  0
   56.8250   28.2840   44.8390 N   0  0  0  0  0  0  0  0  0  0  0  0
   57.7960   28.3480   45.7770 C   0  0  0  0  0  0  0  0  0  0  0  0
   58.1640   27.3400   46.5810 C   0  0  0  0  0  0  0  0  0  0  0  0
   57.3900   26.0980   46.7380 C   0  0  0  0  0  0  0  0  0  0  0  0
   57.8780   24.9970   47.3350 N   0  0  0  0  0  0  0  0  0  0  0  0
   56.8390   24.1360   47.3040 C   0  0  0  0  0  0  0  0  0  0  0  0
   56.9130   22.9680   47.7670 O   0  0  0  0  0  0  0  0  0  0  0  0
   55.7130   24.6260   46.7450 N   0  0  0  0  0  0  0  0  0  0  0  0
   56.0690   25.8760   46.4030 C   0  0  0  0  0  0  0  0  0  0  0  0
   55.1850   26.7930   45.8410 O   0  0  0  0  0  0  0  0  0  0  0  0
   58.3920   29.5990   45.7710 C   0  0  0  0  0  0  0  0  0  0  0  0
   57.7540   30.3260   44.7830 C   0  0  0  0  0  0  0  0  0  0  0  0
   58.0820   31.7160   44.4100 C   0  0  0  0  0  0  0  0  0  0  0  0
   57.8060   32.1040   43.2430 O   0  0  0  0  0  0  0  0  0  0  0  0
   58.6740   32.6370   45.3500 N   0  0  0  0  0  0  0  0  0  0  0  0
   59.3150   33.8530   44.8090 C   0  0  0  0  0  0  0  0  0  0  0  0
   59.0600   35.1170   45.6490 C   0  0  0  0  0  0  0  0  0  0  0  0
   59.4630   34.9430   47.1240 C   0  0  0  0  0  0  0  0  0  0  0  0
   60.3670   33.8750   47.3310 O   0  0  0  0  0  0  0  0  0  0  0  0
   59.6830   32.6790   47.6530 C   0  0  0  0  0  0  0  0  0  0  0  0
   58.4160   32.4780   46.7960 C   0  0  0  0  0  0  0  0  0  0  0  0
   55.9014   30.8208   42.8602 H   0  0  0  0  0  0  0  0  0  0  0  0
   55.1301   29.0840   42.9961 H   0  0  0  0  0  0  0  0  0  0  0  0
   56.2210   27.4630   44.6050 H   0  0  0  0  0  0  0  0  0  0  0  0
   59.0961   27.4473   47.1551 H   0  0  0  0  0  0  0  0  0  0  0  0
   54.3730   27.1260   46.3450 H   0  0  0  0  0  0  0  0  0  0  0  0
   59.2088   29.9444   46.4217 H   0  0  0  0  0  0  0  0  0  0  0  0
   60.4005   33.6811   44.7622 H   0  0  0  0  0  0  0  0  0  0  0  0
   58.8736   34.0333   43.8177 H   0  0  0  0  0  0  0  0  0  0  0  0
   59.6416   35.9468   45.2211 H   0  0  0  0  0  0  0  0  0  0  0  0
   57.9793   35.3204   45.6223 H   0  0  0  0  0  0  0  0  0  0  0  0
   59.9363   35.8739   47.4696 H   0  0  0  0  0  0  0  0  0  0  0  0
   58.5477   34.7114   47.6885 H   0  0  0  0  0  0  0  0  0  0  0  0
   60.3607   31.8286   47.4868 H   0  0  0  0  0  0  0  0  0  0  0  0
   59.3696   32.7444   48.7054 H   0  0  0  0  0  0  0  0  0  0  0  0
   58.0275   31.4645   46.9747 H   0  0  0  0  0  0  0  0  0  0  0  0
   57.6900   33.2501   47.0906 H   0  0  0  0  0  0  0  0  0  0  0  0
  1  2  2  0
  2  3  1  0
  3  4  1  0
  4  5  2  3
  5  6  1  0
  6  7  1  0
  7  8  1  0
  8  9  2  0
  8 10  1  0
 10 11  1  0
 11 12  1  0
  4 13  1  0
 13 14  2  0
 14 15  1  0
 15 16  2  0
 15 17  1  0
 17 18  1  0
 18 19  1  0
 19 20  1  0
 20 21  1  0
 21 22  1  0
 22 23  1  0
 14  2  1  0
 23 17  1  0
 11  6  2  0
  1 24  1  0
  1 25  1  0
  3 26  1  0
  5 27  1  0
 12 28  1  0
 13 29  1  0
 18 30  1  0
 18 31  1  0
 19 32  1  0
 19 33  1  0
 20 34  1  0
 20 35  1  0
 22 36  1  0
 22 37  1  0
 23 38  1  0
 23 39  1  0
M  CHG  2   7  -1  10  -1
M  END
>  <UniqueID>  (2) 
2

>  <SMILES>  (2) 
C=c1[nH]c(=Cc2[n-]c(=O)[n-]c2O)cc1C(=O)N1CCCOCC1

>  <Energy>  (2) 
115.82669370413386

>  <Genealogy>  (2) 
C=c1[nH]c(=Cc2[n-]c(=O)[n-]c2O)cc1C(=O)N1CCCOCC1 (protonated)
C=c1[nH]c(=Cc2[n-]c(=O)[n-]c2O)cc1C(=O)N1CCCOCC1 (3D coordinates assigned)
C=c1[nH]c(=Cc2[n-]c(=O)[n-]c2O)cc1C(=O)N1CCCOCC1 (nonaromatic ring conformer: 115.82669370413386 kcal/mol)

>  <smiles>  (2) 
C=c1[nH]c(=Cc2[nH]c(=O)[nH]c2O)cc1C(=O)N1CCCOCC1

>  <score_type>  (2) 
oracle

>  <origin>  (2) 
adg

>  <m_score__min__energy>  (2) 
-10.869999999999999

>  <m_primary>  (2) 
energy

$$$$
2:0
     RDKit          3D

 28 29  0  0  0  0  0  0  0  0999 V2000
   58.0560   31.6600   44.4570 C   0  0  0  0  0  0  0  0  0  0  0  0
   57.9480   30.3570   44.7010 C   0  0  0  0  0  0  0  0  0  0  0  0
   57.9680   29.4040   43.7420 N   0  0  0  0  0  0  0  0  0  0  0  0
   57.8410   28.1520   44.2590 C   0  0  0  0  0  0  0  0  0  0  0  0
   57.8440   27.1280   43.5230 O   0  0  0  0  0  0  0  0  0  0  0  0
   57.7110   28.0950   45.6480 C   0  0  0  0  0  0  0  0  0  0  0  0
   57.6020   26.9760   46.3820 C   0  0  0  0  0  0  0  0  0  0  0  0
   56.9830   25.7320   45.8740 C   0  0  0  0  0  0  0  0  0  0  0  0
   55.5930   25.6200   45.6990 C   0  0  0  0  0  0  0  0  0  0  0  0
   54.7750   26.7080   46.0000 O   0  0  0  0  0  0  0  0  0  0  0  0
   55.0450   24.4580   45.2170 N   0  0  0  0  0  0  0  0  0  0  0  0
   53.5810   24.3350   45.0840 C   0  0  0  0  0  0  0  0  0  0  0  0
   53.0450   23.2830   46.0470 C   0  0  0  0  0  0  0  0  0  0  0  0
   55.8620   23.3990   44.9090 C   0  0  0  0  0  0  0  0  0  0  0  0
   55.3800   22.3100   44.4960 O   0  0  0  0  0  0  0  0  0  0  0  0
   57.2070   23.5100   45.0430 N   0  0  0  0  0  0  0  0  0  0  0  0
   57.7830   24.6460   45.5050 C   0  0  0  0  0  0  0  0  0  0  0  0
   59.0380   24.7050   45.6100 O   0  0  0  0  0  0  0  0  0  0  0  0
   57.7730   29.6810   46.2330 S   0  0  0  0  0  0  0  0  0  0  0  0
   58.0315   32.3792   45.2889 H   0  0  0  0  0  0  0  0  0  0  0  0
   58.1698   32.0184   43.4233 H   0  0  0  0  0  0  0  0  0  0  0  0
   58.0710   29.5980   42.7200 H   0  0  0  0  0  0  0  0  0  0  0  0
   57.9917   26.9846   47.4106 H   0  0  0  0  0  0  0  0  0  0  0  0
   53.1140   25.3048   45.3106 H   0  0  0  0  0  0  0  0  0  0  0  0
   53.3413   24.0305   44.0545 H   0  0  0  0  0  0  0  0  0  0  0  0
   53.2136   23.6139   47.0824 H   0  0  0  0  0  0  0  0  0  0  0  0
   51.9670   23.1455   45.8769 H   0  0  0  0  0  0  0  0  0  0  0  0
   53.5675   22.3301   45.8769 H   0  0  0  0  0  0  0  0  0  0  0  0
  1  2  2  0
  2  3  1  0
  3  4  1  0
  4  5  2  0
  4  6  1  0
  6  7  2  3
  7  8  1  0
  8  9  2  0
  9 10  1  0
  9 11  1  0
 11 12  1  0
 12 13  1  0
 11 14  1  0
 14 15  2  0
 14 16  1  0
 16 17  1  0
 17 18  2  0
  6 19  1  0
 19  2  1  0
 17  8  1  0
  1 20  1  0
  1 21  1  0
  3 22  1  0
  7 23  1  0
 12 24  1  0
 12 25  1  0
 13 26  1  0
 13 27  1  0
 13 28  1  0
M  CHG  2  10  -1  16  -1
M  END
>  <UniqueID>  (3) 
3

>  <SMILES>  (3) 
C=c1[nH]c(=O)c(=Cc2c([O-])n(CC)c(=O)[n-]c2=O)s1

>  <Energy>  (3) 
67.732568942365

>  <Genealogy>  (3) 
C=c1[nH]c(=O)c(=Cc2c([O-])n(CC)c(=O)[n-]c2=O)s1 (protonated)
C=c1[nH]c(=O)c(=Cc2c([O-])n(CC)c(=O)[n-]c2=O)s1 (3D coordinates assigned)
C=c1[nH]c(=O)c(=Cc2c([O-])n(CC)c(=O)[n-]c2=O)s1 (optimized conformer: 67.732568942365 kcal/mol)

>  <smiles>  (3) 
C=c1[nH]c(=O)c(=Cc2c(O)n(CC)c(=O)[nH]c2=O)s1

>  <score_type>  (3) 
oracle

>  <origin>  (3) 
adg

>  <m_score__min__energy>  (3) 
-11.31

>  <m_primary>  (3) 
energy

$$$$
3:0
     RDKit          3D

 57 60  0  0  0  0  0  0  0  0999 V2000
   63.9930   32.8530   48.0710 O   0  0  0  0  0  0  0  0  0  0  0  0
   63.4650   32.1510   48.9770 C   0  0  0  0  0  0  0  0  0  0  0  0
   62.0540   31.8780   48.9310 N   0  0  0  0  0  0  0  0  0  0  0  0
   61.2130   32.2870   47.8030 C   0  0  0  0  0  0  0  0  0  0  0  0
   59.7510   31.8530   48.0360 C   0  0  0  0  0  0  0  0  0  0  0  0
   58.7560   32.6670   47.1860 C   0  0  0  0  0  0  0  0  0  0  0  0
   59.4310   33.2510   46.0100 N   0  0  0  0  0  0  0  0  0  0  0  0
   58.4550   33.8320   45.0670 C   0  0  0  0  0  0  0  0  0  0  0  0
   57.8100   32.7470   44.2440 C   0  0  0  0  0  0  0  0  0  0  0  0
   58.0150   32.7050   42.8560 C   0  0  0  0  0  0  0  0  0  0  0  0
   57.4310   31.6920   42.0890 C   0  0  0  0  0  0  0  0  0  0  0  0
   56.6420   30.7150   42.7020 C   0  0  0  0  0  0  0  0  0  0  0  0
   56.4360   30.7490   44.0840 C   0  0  0  0  0  0  0  0  0  0  0  0
   55.6730   29.7990   44.6780 F   0  0  0  0  0  0  0  0  0  0  0  0
   57.0170   31.7610   44.8550 C   0  0  0  0  0  0  0  0  0  0  0  0
   60.4110   34.2780   46.4330 C   0  0  0  0  0  0  0  0  0  0  0  0
   61.2960   33.8070   47.6090 C   0  0  0  0  0  0  0  0  0  0  0  0
   64.3090   31.6360   50.0820 C   0  0  0  0  0  0  0  0  0  0  0  0
   65.6900   31.8760   50.1310 C   0  0  0  0  0  0  0  0  0  0  0  0
   66.4300   31.3940   51.1630 N   0  0  0  0  0  0  0  0  0  0  0  0
   65.8630   30.6710   52.1620 C   0  0  0  0  0  0  0  0  0  0  0  0
   66.6100   30.2470   53.1390 N   0  0  0  0  0  0  0  0  0  0  0  0
   67.2800   28.9780   53.2270 C   0  0  0  0  0  0  0  0  0  0  0  0
   66.6810   27.8570   53.8310 C   0  0  0  0  0  0  0  0  0  0  0  0
   67.3510   26.6310   53.8670 C   0  0  0  0  0  0  0  0  0  0  0  0
   68.6240   26.5000   53.2800 C   0  0  0  0  0  0  0  0  0  0  0  0
   69.3410   25.2930   53.2930 O   0  0  0  0  0  0  0  0  0  0  0  0
   69.3190   24.3460   54.3570 C   0  0  0  0  0  0  0  0  0  0  0  0
   68.1560   23.6060   54.2790 F   0  0  0  0  0  0  0  0  0  0  0  0
   69.3540   25.0020   55.5740 F   0  0  0  0  0  0  0  0  0  0  0  0
   69.2020   27.6090   52.6550 C   0  0  0  0  0  0  0  0  0  0  0  0
   68.5310   28.8350   52.6190 C   0  0  0  0  0  0  0  0  0  0  0  0
   64.5210   30.4460   52.1460 N   0  0  0  0  0  0  0  0  0  0  0  0
   63.7400   30.9090   51.1370 C   0  0  0  0  0  0  0  0  0  0  0  0
   61.5770   31.5620   49.8060 H   0  0  0  0  0  0  0  0  0  0  0  0
   61.5799   31.7933   46.8910 H   0  0  0  0  0  0  0  0  0  0  0  0
   59.6519   30.7892   47.7743 H   0  0  0  0  0  0  0  0  0  0  0  0
   59.5123   32.0305   49.0950 H   0  0  0  0  0  0  0  0  0  0  0  0
   57.9458   32.0053   46.8458 H   0  0  0  0  0  0  0  0  0  0  0  0
   58.3491   33.4826   47.8018 H   0  0  0  0  0  0  0  0  0  0  0  0
   57.6786   34.3676   45.6331 H   0  0  0  0  0  0  0  0  0  0  0  0
   58.9790   34.5267   44.3940 H   0  0  0  0  0  0  0  0  0  0  0  0
   58.6369   33.4713   42.3701 H   0  0  0  0  0  0  0  0  0  0  0  0
   57.5930   31.6642   41.0013 H   0  0  0  0  0  0  0  0  0  0  0  0
   56.1831   29.9192   42.0969 H   0  0  0  0  0  0  0  0  0  0  0  0
   56.8527   31.7851   45.9424 H   0  0  0  0  0  0  0  0  0  0  0  0
   61.0601   34.5187   45.5781 H   0  0  0  0  0  0  0  0  0  0  0  0
   59.8453   35.1577   46.7736 H   0  0  0  0  0  0  0  0  0  0  0  0
   62.3404   34.0844   47.4036 H   0  0  0  0  0  0  0  0  0  0  0  0
   60.9350   34.2920   48.5279 H   0  0  0  0  0  0  0  0  0  0  0  0
   66.1749   32.4559   49.3319 H   0  0  0  0  0  0  0  0  0  0  0  0
   65.6796   27.9462   54.2774 H   0  0  0  0  0  0  0  0  0  0  0  0
   66.8817   25.7646   54.3561 H   0  0  0  0  0  0  0  0  0  0  0  0
   70.1954   23.6866   54.2733 H   0  0  0  0  0  0  0  0  0  0  0  0
   70.1934   27.5161   52.1875 H   0  0  0  0  0  0  0  0  0  0  0  0
   68.9909   29.6939   52.1083 H   0  0  0  0  0  0  0  0  0  0  0  0
   62.6576   30.7132   51.1471 H   0  0  0  0  0  0  0  0  0  0  0  0
  1  2  2  0
  2  3  1  0
  3  4  1  0
  4  5  1  0
  5  6  1  0
  6  7  1  0
  7  8  1  0
  8  9  1  0
  9 10  2  0
 10 11  1  0
 11 12  2  0
 12 13  1  0
 13 14  1  0
 13 15  2  0
  7 16  1  0
 16 17  1  0
  2 18  1  0
 18 19  1  0
 19 20  2  0
 20 21  1  0
 21 22  2  3
 22 23  1  0
 23 24  2  0
 24 25  1  0
 25 26  2  0
 26 27  1  0
 27 28  1  0
 28 29  1  0
 28 30  1  0
 26 31  1  0
 31 32  2  0
 21 33  1  0
 33 34  1  0
 17  4  1  0
 34 18  2  0
 15  9  1  0
 32 23  1  0
  3 35  1  0
  4 36  1  0
  5 37  1  0
  5 38  1  0
  6 39  1  0
  6 40  1  0
  8 41  1  0
  8 42  1  0
 10 43  1  0
 11 44  1  0
 12 45  1  0
 15 46  1  0
 16 47  1  0
 16 48  1  0
 17 49  1  0
 17 50  1  0
 19 51  1  0
 24 52  1  0
 25 53  1  0
 28 54  1  0
 31 55  1  0
 32 56  1  0
 34 57  1  0
M  CHG  1  33  -1
M  END
>  <UniqueID>  (4) 
4

>  <SMILES>  (4) 
O=C(NC1CCN(Cc2cccc(F)c2)CC1)c1cnc(=Nc2ccc(OC(F)F)cc2)[n-]c1

>  <Energy>  (4) 
74.061729057662

>  <Genealogy>  (4) 
O=C(NC1CCN(Cc2cccc(F)c2)CC1)c1cnc(=Nc2ccc(OC(F)F)cc2)[n-]c1 (protonated)
O=C(NC1CCN(Cc2cccc(F)c2)CC1)c1cnc(=Nc2ccc(OC(F)F)cc2)[n-]c1 (3D coordinates assigned)
O=C(NC1CCN(Cc2cccc(F)c2)CC1)c1cnc(=Nc2ccc(OC(F)F)cc2)[n-]c1 (nonaromatic ring conformer: 74.061729057662 kcal/mol)

>  <smiles>  (4) 
O=C(NC1CCN(Cc2cccc(F)c2)CC1)c1cnc(=Nc2ccc(OC(F)F)cc2)[nH]c1

>  <score_type>  (4) 
oracle

>  <origin>  (4) 
adg

>  <m_score__min__energy>  (4) 
-8.3399999999999999

>  <m_primary>  (4) 
energy

$$$$
4:0
     RDKit          3D

 37 39  0  0  0  0  0  0  0  0999 V2000
   56.4130   33.8620   46.7760 H   0  0  0  0  0  0  0  0  0  0  0  0
   57.0050   33.4970   45.9970 N   0  0  0  0  0  0  0  0  0  0  0  0
   57.9910   32.6770   46.2010 C   0  0  0  0  0  0  0  0  0  0  0  0
   59.2730   33.1750   46.5110 C   0  0  0  0  0  0  0  0  0  0  0  0
   59.4710   34.6060   46.6260 C   0  0  0  0  0  0  0  0  0  0  0  0
   59.6280   35.7490   46.7190 N   0  0  0  0  0  0  0  0  0  0  0  0
   60.3330   32.2660   46.7390 C   0  0  0  0  0  0  0  0  0  0  0  0
   61.7120   32.7240   47.0610 C   0  0  0  0  0  0  0  0  0  0  0  0
   62.3380   33.6920   46.4290 O   0  0  0  0  0  0  0  0  0  0  0  0
   63.5320   33.8450   46.9530 C   0  0  0  0  0  0  0  0  0  0  0  0
   64.2779   34.5839   46.6248 H   0  0  0  0  0  0  0  0  0  0  0  0
   63.7090   32.9400   47.9760 C   0  0  0  0  0  0  0  0  0  0  0  0
   64.6029   32.8200   48.6057 H   0  0  0  0  0  0  0  0  0  0  0  0
   62.5390   32.2150   48.0510 C   0  0  0  0  0  0  0  0  0  0  0  0
   62.3085   31.3997   48.7525 H   0  0  0  0  0  0  0  0  0  0  0  0
   60.0710   30.8890   46.6420 C   0  0  0  0  0  0  0  0  0  0  0  0
   60.8795   30.1646   46.8193 H   0  0  0  0  0  0  0  0  0  0  0  0
   58.7870   30.4340   46.3210 C   0  0  0  0  0  0  0  0  0  0  0  0
   58.5200   28.9800   46.2240 C   0  0  0  0  0  0  0  0  0  0  0  0
   59.3140   28.1050   46.9860 C   0  0  0  0  0  0  0  0  0  0  0  0
   60.1511   28.5047   47.5772 H   0  0  0  0  0  0  0  0  0  0  0  0
   59.0510   26.7350   47.0000 C   0  0  0  0  0  0  0  0  0  0  0  0
   59.6824   26.0606   47.5971 H   0  0  0  0  0  0  0  0  0  0  0  0
   57.9900   26.2200   46.2590 C   0  0  0  0  0  0  0  0  0  0  0  0
   57.7765   25.1412   46.2829 H   0  0  0  0  0  0  0  0  0  0  0  0
   57.1970   27.0700   45.4860 C   0  0  0  0  0  0  0  0  0  0  0  0
   56.3613   26.6538   44.9043 H   0  0  0  0  0  0  0  0  0  0  0  0
   57.4540   28.4540   45.4420 C   0  0  0  0  0  0  0  0  0  0  0  0
   56.6260   29.2940   44.5430 C   0  0  0  0  0  0  0  0  0  0  0  0
   55.4570   29.6310   44.8760 O   0  0  0  0  0  0  0  0  0  0  0  0
   57.1650   29.7470   43.3330 O   0  0  0  0  0  0  0  0  0  0  0  0
   57.3020   31.1290   43.0250 C   0  0  0  0  0  0  0  0  0  0  0  0
   57.3595   31.7087   43.9581 H   0  0  0  0  0  0  0  0  0  0  0  0
   58.2200   31.2849   42.4394 H   0  0  0  0  0  0  0  0  0  0  0  0
   56.4325   31.4621   42.4394 H   0  0  0  0  0  0  0  0  0  0  0  0
   57.7830   31.3310   46.1190 N   0  0  0  0  0  0  0  0  0  0  0  0
   56.8230   30.9730   45.9030 H   0  0  0  0  0  0  0  0  0  0  0  0
  1  2  1  0
  2  3  2  0
  3  4  1  0
  4  5  1  0
  5  6  3  0
  4  7  2  0
  7  8  1  0
  8  9  1  0
  9 10  1  0
 10 11  1  0
 10 12  2  0
 12 13  1  0
 12 14  1  0
 14 15  1  0
  7 16  1  0
 16 17  1  0
 16 18  2  0
 18 19  1  0
 19 20  2  0
 20 21  1  0
 20 22  1  0
 22 23  1  0
 22 24  2  0
 24 25  1  0
 24 26  1  0
 26 27  1  0
 26 28  2  0
 28 29  1  0
 29 30  2  0
 29 31  1  0
 31 32  1  0
 32 33  1  0
 32 34  1  0
 32 35  1  0
 18 36  1  0
 36 37  1  0
 36  3  1  0
 14  8  2  0
 28 19  1  0
M  END
>  <UniqueID>  (5) 
5

>  <SMILES>  (5) 
[H]/N=c1\[nH]c(-c2ccccc2C(=O)OC)cc(-c2ccco2)c1C#N

>  <Energy>  (5) 
78.84164500691962

>  <Genealogy>  (5) 
[H]/N=c1\[nH]c(-c2ccccc2C(=O)OC)cc(-c2ccco2)c1C#N (cis-trans isomerization)
[H]/N=c1\[nH]c(-c2ccccc2C(=O)OC)cc(-c2ccco2)c1C#N (3D coordinates assigned)
[H]/N=c1\[nH]c(-c2ccccc2C(=O)OC)cc(-c2ccco2)c1C#N (optimized conformer: 78.84164500691962 kcal/mol)

>  <smiles>  (5) 
COC(=O)c1ccccc1-c1cc(-c2ccco2)c(C#N)c(=N)[nH]1

>  <score_type>  (5) 
oracle

>  <origin>  (5) 
adg

>  <m_score__min__energy>  (5) 
-7.1100000000000003

>  <m_primary>  (5) 
energy

$$$$
5:0
     RDKit          3D

 34 35  0  0  0  0  0  0  0  0999 V2000
   58.5700   24.3840   45.9330 N   0  0  0  0  0  0  0  0  0  0  0  0
   58.7890   25.4370   46.3590 C   0  0  0  0  0  0  0  0  0  0  0  0
   59.0640   26.7510   46.8900 C   0  0  0  0  0  0  0  0  0  0  0  0
   60.1380   26.8990   47.7800 C   0  0  0  0  0  0  0  0  0  0  0  0
   60.3990   28.1350   48.3740 C   0  0  0  0  0  0  0  0  0  0  0  0
   59.5840   29.2310   48.0930 C   0  0  0  0  0  0  0  0  0  0  0  0
   58.5110   29.0980   47.2080 C   0  0  0  0  0  0  0  0  0  0  0  0
   58.2470   27.8670   46.5850 C   0  0  0  0  0  0  0  0  0  0  0  0
   57.1040   27.7830   45.6450 C   0  0  0  0  0  0  0  0  0  0  0  0
   56.1330   27.0290   45.9260 O   0  0  0  0  0  0  0  0  0  0  0  0
   57.0610   28.5980   44.3820 C   0  0  0  0  0  0  0  0  0  0  0  0
   55.9900   29.6380   44.4690 C   0  0  0  0  0  0  0  0  0  0  0  0
   54.8000   29.3390   44.1780 O   0  0  0  0  0  0  0  0  0  0  0  0
   56.3330   30.9790   44.8360 N   0  0  0  0  0  0  0  0  0  0  0  0
   57.3850   31.7500   44.1830 C   0  0  0  0  0  0  0  0  0  0  0  0
   57.9860   32.7340   45.1490 C   0  0  0  0  0  0  0  0  0  0  0  0
   58.6910   33.8500   44.6670 C   0  0  0  0  0  0  0  0  0  0  0  0
   59.2690   34.7570   45.5610 C   0  0  0  0  0  0  0  0  0  0  0  0
   59.1510   34.5550   46.9380 C   0  0  0  0  0  0  0  0  0  0  0  0
   58.4570   33.4450   47.4250 C   0  0  0  0  0  0  0  0  0  0  0  0
   57.8770   32.5350   46.5360 C   0  0  0  0  0  0  0  0  0  0  0  0
   60.7788   26.0354   48.0114 H   0  0  0  0  0  0  0  0  0  0  0  0
   61.2484   28.2445   49.0644 H   0  0  0  0  0  0  0  0  0  0  0  0
   59.7862   30.2019   48.5689 H   0  0  0  0  0  0  0  0  0  0  0  0
   57.8674   29.9648   46.9973 H   0  0  0  0  0  0  0  0  0  0  0  0
   58.0335   29.0906   44.2352 H   0  0  0  0  0  0  0  0  0  0  0  0
   56.8432   27.9315   43.5345 H   0  0  0  0  0  0  0  0  0  0  0  0
   58.1691   31.0655   43.8271 H   0  0  0  0  0  0  0  0  0  0  0  0
   56.9519   32.2999   43.3345 H   0  0  0  0  0  0  0  0  0  0  0  0
   58.7885   34.0107   43.5832 H   0  0  0  0  0  0  0  0  0  0  0  0
   59.8174   35.6308   45.1791 H   0  0  0  0  0  0  0  0  0  0  0  0
   59.6049   35.2706   47.6394 H   0  0  0  0  0  0  0  0  0  0  0  0
   58.3666   33.2865   48.5098 H   0  0  0  0  0  0  0  0  0  0  0  0
   57.3336   31.6605   46.9234 H   0  0  0  0  0  0  0  0  0  0  0  0
  1  2  3  0
  2  3  1  0
  3  4  2  0
  4  5  1  0
  5  6  2  0
  6  7  1  0
  7  8  2  0
  8  9  1  0
  9 10  2  0
  9 11  1  0
 11 12  1  0
 12 13  2  0
 12 14  1  0
 14 15  1  0
 15 16  1  0
 16 17  2  0
 17 18  1  0
 18 19  2  0
 19 20  1  0
 20 21  2  0
  8  3  1  0
 21 16  1  0
  4 22  1  0
  5 23  1  0
  6 24  1  0
  7 25  1  0
 11 26  1  0
 11 27  1  0
 15 28  1  0
 15 29  1  0
 17 30  1  0
 18 31  1  0
 19 32  1  0
 20 33  1  0
 21 34  1  0
M  CHG  1  14  -1
M  END
>  <UniqueID>  (6) 
6

>  <SMILES>  (6) 
N#Cc1ccccc1C(=O)CC(=O)[N-]Cc1ccccc1

>  <Energy>  (6) 
36.24941403013879

>  <Genealogy>  (6) 
N#Cc1ccccc1C(=O)CC(=O)[N-]Cc1ccccc1 (protonated)
N#Cc1ccccc1C(=O)CC(=O)[N-]Cc1ccccc1 (3D coordinates assigned)
N#Cc1ccccc1C(=O)CC(=O)[N-]Cc1ccccc1 (optimized conformer: 36.24941403013879 kcal/mol)

>  <smiles>  (6) 
N#Cc1ccccc1C(=O)CC(=O)NCc1ccccc1

>  <score_type>  (6) 
oracle

>  <origin>  (6) 
adg

>  <m_score__min__energy>  (6) 
-10.08

>  <m_primary>  (6) 
energy

$$$$
6:0
     RDKit          3D

 48 50  0  0  0  0  0  0  0  0999 V2000
   54.5950   26.3360   45.7190 O   0  0  0  0  0  0  0  0  0  0  0  0
   55.6340   25.7320   46.0960 C   0  0  0  0  0  0  0  0  0  0  0  0
   55.4940   24.4870   46.7030 O   0  0  0  0  0  0  0  0  0  0  0  0
   56.9640   26.3700   45.9320 C   0  0  0  0  0  0  0  0  0  0  0  0
   57.0540   27.7750   45.9450 C   0  0  0  0  0  0  0  0  0  0  0  0
   58.2830   28.4250   45.8160 C   0  0  0  0  0  0  0  0  0  0  0  0
   58.3290   30.1810   45.8130 S   0  0  0  0  0  0  0  0  0  0  0  0
   59.5050   30.6700   45.0100 O   0  0  0  0  0  0  0  0  0  0  0  0
   58.4790   30.6550   47.2230 O   0  0  0  0  0  0  0  0  0  0  0  0
   56.8470   30.8140   45.1560 N   0  0  0  0  0  0  0  0  0  0  0  0
   57.0930   32.0190   44.3610 C   0  0  0  0  0  0  0  0  0  0  0  0
   57.4140   33.2110   45.2410 C   0  0  0  0  0  0  0  0  0  0  0  0
   56.6370   34.1570   45.2310 O   0  0  0  0  0  0  0  0  0  0  0  0
   58.6100   33.2890   46.0700 N   0  0  0  0  0  0  0  0  0  0  0  0
   59.5670   34.3000   45.5920 C   0  0  0  0  0  0  0  0  0  0  0  0
   60.8920   34.2180   46.3660 C   0  0  0  0  0  0  0  0  0  0  0  0
   60.7350   33.8400   47.7830 N   0  0  0  0  0  0  0  0  0  0  0  0
   61.9340   33.6210   48.5300 C   0  0  0  0  0  0  0  0  0  0  0  0
   63.1040   33.2440   47.8600 C   0  0  0  0  0  0  0  0  0  0  0  0
   64.3010   33.0940   48.5590 C   0  0  0  0  0  0  0  0  0  0  0  0
   64.3410   33.3220   49.9330 C   0  0  0  0  0  0  0  0  0  0  0  0
   63.1740   33.7100   50.6110 C   0  0  0  0  0  0  0  0  0  0  0  0
   61.9700   33.8640   49.9140 C   0  0  0  0  0  0  0  0  0  0  0  0
   60.8520   34.2260   50.5870 F   0  0  0  0  0  0  0  0  0  0  0  0
   59.4640   33.4040   48.3890 C   0  0  0  0  0  0  0  0  0  0  0  0
   58.2510   33.5820   47.4650 C   0  0  0  0  0  0  0  0  0  0  0  0
   59.4530   27.6720   45.6850 C   0  0  0  0  0  0  0  0  0  0  0  0
   59.3840   26.2790   45.6620 C   0  0  0  0  0  0  0  0  0  0  0  0
   58.1530   25.6190   45.7740 C   0  0  0  0  0  0  0  0  0  0  0  0
   58.1820   23.7080   45.6210 Br  0  0  0  0  0  0  0  0  0  0  0  0
   56.1376   28.3727   46.0591 H   0  0  0  0  0  0  0  0  0  0  0  0
   57.9417   31.8345   43.6860 H   0  0  0  0  0  0  0  0  0  0  0  0
   56.1806   32.2476   43.7906 H   0  0  0  0  0  0  0  0  0  0  0  0
   59.0830   32.3500   46.0300 H   0  0  0  0  0  0  0  0  0  0  0  0
   59.7644   34.1307   44.5232 H   0  0  0  0  0  0  0  0  0  0  0  0
   59.1305   35.2970   45.7517 H   0  0  0  0  0  0  0  0  0  0  0  0
   61.5328   33.4695   45.8770 H   0  0  0  0  0  0  0  0  0  0  0  0
   61.3325   35.2258   46.3517 H   0  0  0  0  0  0  0  0  0  0  0  0
   63.0788   33.0649   46.7750 H   0  0  0  0  0  0  0  0  0  0  0  0
   65.2151   32.7952   48.0250 H   0  0  0  0  0  0  0  0  0  0  0  0
   65.2843   33.1984   50.4852 H   0  0  0  0  0  0  0  0  0  0  0  0
   63.2063   33.8938   51.6951 H   0  0  0  0  0  0  0  0  0  0  0  0
   59.5499   32.3387   48.6491 H   0  0  0  0  0  0  0  0  0  0  0  0
   59.2931   34.0372   49.2721 H   0  0  0  0  0  0  0  0  0  0  0  0
   57.4516   32.8967   47.7832 H   0  0  0  0  0  0  0  0  0  0  0  0
   57.9089   34.6255   47.5293 H   0  0  0  0  0  0  0  0  0  0  0  0
   60.4266   28.1769   45.6002 H   0  0  0  0  0  0  0  0  0  0  0  0
   60.3076   25.6912   45.5546 H   0  0  0  0  0  0  0  0  0  0  0  0
  1  2  2  0
  2  3  1  0
  2  4  1  0
  4  5  2  0
  5  6  1  0
  6  7  1  0
  7  8  2  0
  7  9  2  0
  7 10  1  0
 10 11  1  0
 11 12  1  0
 12 13  2  0
 12 14  1  0
 14 15  1  0
 15 16  1  0
 16 17  1  0
 17 18  1  0
 18 19  2  0
 19 20  1  0
 20 21  2  0
 21 22  1  0
 22 23  2  0
 23 24  1  0
 17 25  1  0
 25 26  1  0
  6 27  2  0
 27 28  1  0
 28 29  2  0
 29 30  1  0
 29  4  1  0
 26 14  1  0
 23 18  1  0
  5 31  1  0
 11 32  1  0
 11 33  1  0
 14 34  1  0
 15 35  1  0
 15 36  1  0
 16 37  1  0
 16 38  1  0
 19 39  1  0
 20 40  1  0
 21 41  1  0
 22 42  1  0
 25 43  1  0
 25 44  1  0
 26 45  1  0
 26 46  1  0
 27 47  1  0
 28 48  1  0
M  CHG  3   3  -1  10  -1  14   1
M  END
>  <UniqueID>  (7) 
7

>  <SMILES>  (7) 
O=C([O-])c1cc(S(=O)(=O)[N-]CC(=O)[NH+]2CCN(c3ccccc3F)CC2)ccc1Br

>  <Energy>  (7) 
66.06650010239265

>  <Genealogy>  (7) 
O=C([O-])c1cc(S(=O)(=O)[N-]CC(=O)[NH+]2CCN(c3ccccc3F)CC2)ccc1Br (protonated)
O=C([O-])c1cc(S(=O)(=O)[N-]CC(=O)[NH+]2CCN(c3ccccc3F)CC2)ccc1Br (3D coordinates assigned)
O=C([O-])c1cc(S(=O)(=O)[N-]CC(=O)[NH+]2CCN(c3ccccc3F)CC2)ccc1Br (nonaromatic ring conformer: 66.06650010239265 kcal/mol)

>  <smiles>  (7) 
O=C(O)c1cc(S(=O)(=O)NCC(=O)N2CCN(c3ccccc3F)CC2)ccc1Br

>  <score_type>  (7) 
oracle

>  <origin>  (7) 
adg

>  <m_score__min__energy>  (7) 
-12.01

>  <m_primary>  (7) 
energy

$$$$
7:0
     RDKit          3D

 61 64  0  0  0  0  0  0  0  0999 V2000
   58.2510   31.8830   50.4690 C   0  0  0  0  0  0  0  0  0  0  0  0
   59.6700   31.4950   50.5770 N   0  0  0  0  0  0  0  0  0  0  0  0
   60.0510   30.2260   50.2200 C   0  0  0  0  0  0  0  0  0  0  0  0
   59.0990   29.2970   49.6650 N   0  0  0  0  0  0  0  0  0  0  0  0
   59.2930   28.5910   48.4260 C   0  0  0  0  0  0  0  0  0  0  0  0
   60.4310   27.7950   48.2090 C   0  0  0  0  0  0  0  0  0  0  0  0
   60.5850   27.1010   47.0070 C   0  0  0  0  0  0  0  0  0  0  0  0
   59.6080   27.1890   46.0130 C   0  0  0  0  0  0  0  0  0  0  0  0
   58.4610   27.9730   46.2150 C   0  0  0  0  0  0  0  0  0  0  0  0
   57.4030   28.0810   45.1450 C   0  0  0  0  0  0  0  0  0  0  0  0
   57.0200   29.5170   44.8810 C   0  0  0  0  0  0  0  0  0  0  0  0
   55.8020   29.8380   44.8680 O   0  0  0  0  0  0  0  0  0  0  0  0
   57.9910   30.4940   44.4810 N   0  0  0  0  0  0  0  0  0  0  0  0
   58.0930   31.8300   44.9840 C   0  0  0  0  0  0  0  0  0  0  0  0
   57.4210   32.8950   44.3650 C   0  0  0  0  0  0  0  0  0  0  0  0
   57.5450   34.1900   44.8690 C   0  0  0  0  0  0  0  0  0  0  0  0
   58.3590   34.4380   45.9780 C   0  0  0  0  0  0  0  0  0  0  0  0
   59.0720   33.3890   46.5830 C   0  0  0  0  0  0  0  0  0  0  0  0
   59.9310   33.6430   47.7650 C   0  0  0  0  0  0  0  0  0  0  0  0
   59.4610   34.2830   48.7450 O   0  0  0  0  0  0  0  0  0  0  0  0
   61.2960   33.1920   47.8060 N   0  0  0  0  0  0  0  0  0  0  0  0
   61.5990   31.7730   47.6010 C   0  0  0  0  0  0  0  0  0  0  0  0
   63.0470   31.6200   47.1240 C   0  0  0  0  0  0  0  0  0  0  0  0
   63.9370   32.2870   48.0010 O   0  0  0  0  0  0  0  0  0  0  0  0
   63.6910   33.6800   47.9640 C   0  0  0  0  0  0  0  0  0  0  0  0
   62.2950   34.0030   48.5060 C   0  0  0  0  0  0  0  0  0  0  0  0
   58.9320   32.0850   46.0750 C   0  0  0  0  0  0  0  0  0  0  0  0
   58.3050   28.6590   47.4320 C   0  0  0  0  0  0  0  0  0  0  0  0
   61.3900   29.8500   50.3320 C   0  0  0  0  0  0  0  0  0  0  0  0
   62.3210   30.7720   50.7920 C   0  0  0  0  0  0  0  0  0  0  0  0
   63.5270   30.4150   50.9060 O   0  0  0  0  0  0  0  0  0  0  0  0
   61.9330   32.0470   51.1020 N   0  0  0  0  0  0  0  0  0  0  0  0
   62.9260   33.0160   51.5980 C   0  0  0  0  0  0  0  0  0  0  0  0
   60.6090   32.4010   51.0110 C   0  0  0  0  0  0  0  0  0  0  0  0
   60.2530   33.5710   51.3330 O   0  0  0  0  0  0  0  0  0  0  0  0
   57.8250   31.9995   51.4765 H   0  0  0  0  0  0  0  0  0  0  0  0
   58.1718   32.8358   49.9250 H   0  0  0  0  0  0  0  0  0  0  0  0
   57.6980   31.1031   49.9250 H   0  0  0  0  0  0  0  0  0  0  0  0
   58.1880   29.1730   50.1620 H   0  0  0  0  0  0  0  0  0  0  0  0
   61.2030   27.7185   48.9888 H   0  0  0  0  0  0  0  0  0  0  0  0
   61.4796   26.4824   46.8424 H   0  0  0  0  0  0  0  0  0  0  0  0
   59.7377   26.6417   45.0677 H   0  0  0  0  0  0  0  0  0  0  0  0
   57.7900   27.6386   44.2152 H   0  0  0  0  0  0  0  0  0  0  0  0
   56.5073   27.5459   45.4934 H   0  0  0  0  0  0  0  0  0  0  0  0
   56.7948   32.7084   43.4801 H   0  0  0  0  0  0  0  0  0  0  0  0
   57.0005   35.0184   44.3922 H   0  0  0  0  0  0  0  0  0  0  0  0
   58.4418   35.4590   46.3790 H   0  0  0  0  0  0  0  0  0  0  0  0
   61.4663   31.2298   48.5483 H   0  0  0  0  0  0  0  0  0  0  0  0
   60.9188   31.3604   46.8414 H   0  0  0  0  0  0  0  0  0  0  0  0
   63.3054   30.5513   47.0917 H   0  0  0  0  0  0  0  0  0  0  0  0
   63.1379   32.0655   46.1224 H   0  0  0  0  0  0  0  0  0  0  0  0
   64.4440   34.1952   48.5785 H   0  0  0  0  0  0  0  0  0  0  0  0
   63.7498   34.0197   46.9194 H   0  0  0  0  0  0  0  0  0  0  0  0
   62.2594   33.7790   49.5824 H   0  0  0  0  0  0  0  0  0  0  0  0
   62.0782   35.0692   48.3443 H   0  0  0  0  0  0  0  0  0  0  0  0
   59.4875   31.2571   46.5398 H   0  0  0  0  0  0  0  0  0  0  0  0
   57.3979   29.2560   47.6071 H   0  0  0  0  0  0  0  0  0  0  0  0
   61.7053   28.8323   50.0584 H   0  0  0  0  0  0  0  0  0  0  0  0
   62.9232   33.0133   52.6980 H   0  0  0  0  0  0  0  0  0  0  0  0
   63.9253   32.7362   51.2331 H   0  0  0  0  0  0  0  0  0  0  0  0
   62.6708   34.0219   51.2331 H   0  0  0  0  0  0  0  0  0  0  0  0
  1  2  1  0
  2  3  1  0
  3  4  1  0
  4  5  1  0
  5  6  2  0
  6  7  1  0
  7  8  2  0
  8  9  1  0
  9 10  1  0
 10 11  1  0
 11 12  2  0
 11 13  1  0
 13 14  1  0
 14 15  2  0
 15 16  1  0
 16 17  2  0
 17 18  1  0
 18 19  1  0
 19 20  2  0
 19 21  1  0
 21 22  1  0
 22 23  1  0
 23 24  1  0
 24 25  1  0
 25 26  1  0
 18 27  2  0
  9 28  2  0
  3 29  2  0
 29 30  1  0
 30 31  2  0
 30 32  1  0
 32 33  1  0
 32 34  1  0
 34 35  2  0
 34  2  1  0
 28  5  1  0
 27 14  1  0
 26 21  1  0
  1 36  1  0
  1 37  1  0
  1 38  1  0
  4 39  1  0
  6 40  1  0
  7 41  1  0
  8 42  1  0
 10 43  1  0
 10 44  1  0
 15 45  1  0
 16 46  1  0
 17 47  1  0
 22 48  1  0
 22 49  1  0
 23 50  1  0
 23 51  1  0
 25 52  1  0
 25 53  1  0
 26 54  1  0
 26 55  1  0
 27 56  1  0
 28 57  1  0
 29 58  1  0
 33 59  1  0
 33 60  1  0
 33 61  1  0
M  CHG  1  13  -1
M  END
>  <UniqueID>  (8) 
8

>  <SMILES>  (8) 
Cn1c(Nc2cccc(CC(=O)[N-]c3cccc(C(=O)N4CCOCC4)c3)c2)cc(=O)n(C)c1=O

>  <Energy>  (8) 
88.07908895741312

>  <Genealogy>  (8) 
Cn1c(Nc2cccc(CC(=O)[N-]c3cccc(C(=O)N4CCOCC4)c3)c2)cc(=O)n(C)c1=O (protonated)
Cn1c(Nc2cccc(CC(=O)[N-]c3cccc(C(=O)N4CCOCC4)c3)c2)cc(=O)n(C)c1=O (3D coordinates assigned)
Cn1c(Nc2cccc(CC(=O)[N-]c3cccc(C(=O)N4CCOCC4)c3)c2)cc(=O)n(C)c1=O (nonaromatic ring conformer: 88.07908895741312 kcal/mol)

>  <smiles>  (8) 
Cn1c(Nc2cccc(CC(=O)Nc3cccc(C(=O)N4CCOCC4)c3)c2)cc(=O)n(C)c1=O

>  <score_type>  (8) 
oracle

>  <origin>  (8) 
adg

>  <m_score__min__energy>  (8) 
-12.08

>  <m_primary>  (8) 
energy

$$$$
8:0
     RDKit          3D

 59 62  0  0  0  0  0  0  0  0999 V2000
   59.7204   23.7140   46.7475 H   0  0  0  0  0  0  0  0  0  0  0  0
   58.7960   23.8270   46.1620 C   0  0  0  0  0  0  0  0  0  0  0  0
   58.0790   22.9951   46.1002 H   0  0  0  0  0  0  0  0  0  0  0  0
   58.5430   24.9800   45.5230 C   0  0  0  0  0  0  0  0  0  0  0  0
   57.4170   25.2790   44.7410 C   0  0  0  0  0  0  0  0  0  0  0  0
   56.4520   24.4830   44.2410 C   0  0  0  0  0  0  0  0  0  0  0  0
   56.6504   23.9964   43.2746 H   0  0  0  0  0  0  0  0  0  0  0  0
   55.1540   24.2100   44.8800 C   0  0  0  0  0  0  0  0  0  0  0  0
   54.4180   23.1010   44.6780 N   0  0  0  0  0  0  0  0  0  0  0  0
   53.2720   23.3610   45.3410 C   0  0  0  0  0  0  0  0  0  0  0  0
   52.3180   22.5410   45.3970 O   0  0  0  0  0  0  0  0  0  0  0  0
   53.2210   24.5770   45.9290 N   0  0  0  0  0  0  0  0  0  0  0  0
   54.4150   25.1050   45.6140 C   0  0  0  0  0  0  0  0  0  0  0  0
   54.8180   26.3810   45.9850 O   0  0  0  0  0  0  0  0  0  0  0  0
   57.4490   26.6450   44.5220 C   0  0  0  0  0  0  0  0  0  0  0  0
   56.6913   27.2407   43.9918 H   0  0  0  0  0  0  0  0  0  0  0  0
   58.6140   27.1190   45.0960 C   0  0  0  0  0  0  0  0  0  0  0  0
   59.0520   28.5350   45.1070 C   0  0  0  0  0  0  0  0  0  0  0  0
   59.8810   28.9040   44.2290 O   0  0  0  0  0  0  0  0  0  0  0  0
   58.5720   29.5080   46.0730 N   0  0  0  0  0  0  0  0  0  0  0  0
   57.5250   29.4970   45.9990 H   0  0  0  0  0  0  0  0  0  0  0  0
   58.8850   29.1490   47.4860 C   0  0  0  0  0  0  0  0  0  0  0  0
   57.9605   29.2164   48.0782 H   0  0  0  0  0  0  0  0  0  0  0  0
   59.2966   28.1289   47.4838 H   0  0  0  0  0  0  0  0  0  0  0  0
   59.9420   30.0720   48.1190 C   0  0  0  0  0  0  0  0  0  0  0  0
   60.0708   29.7899   49.1744 H   0  0  0  0  0  0  0  0  0  0  0  0
   60.8766   29.9497   47.5520 H   0  0  0  0  0  0  0  0  0  0  0  0
   59.5560   31.5050   48.0520 N   0  0  0  0  0  0  0  0  0  0  0  0
   58.8930   31.9500   49.2990 C   0  0  0  0  0  0  0  0  0  0  0  0
   57.8034   31.9253   49.1500 H   0  0  0  0  0  0  0  0  0  0  0  0
   59.2001   31.2705   50.1077 H   0  0  0  0  0  0  0  0  0  0  0  0
   59.3080   33.3790   49.6960 C   0  0  0  0  0  0  0  0  0  0  0  0
   59.1902   34.0319   48.8186 H   0  0  0  0  0  0  0  0  0  0  0  0
   58.6614   33.6824   50.5326 H   0  0  0  0  0  0  0  0  0  0  0  0
   60.7610   33.4830   50.1880 C   0  0  0  0  0  0  0  0  0  0  0  0
   60.9025   34.4613   50.6706 H   0  0  0  0  0  0  0  0  0  0  0  0
   60.9382   32.6588   50.8946 H   0  0  0  0  0  0  0  0  0  0  0  0
   61.7540   33.3490   49.0620 C   0  0  0  0  0  0  0  0  0  0  0  0
   61.4490   33.8500   47.7850 C   0  0  0  0  0  0  0  0  0  0  0  0
   60.4716   34.3193   47.5994 H   0  0  0  0  0  0  0  0  0  0  0  0
   62.3840   33.7540   46.7490 C   0  0  0  0  0  0  0  0  0  0  0  0
   62.1381   34.1428   45.7498 H   0  0  0  0  0  0  0  0  0  0  0  0
   63.6300   33.1650   46.9810 C   0  0  0  0  0  0  0  0  0  0  0  0
   64.3637   33.0909   46.1648 H   0  0  0  0  0  0  0  0  0  0  0  0
   63.9440   32.6700   48.2500 C   0  0  0  0  0  0  0  0  0  0  0  0
   64.9253   32.2075   48.4318 H   0  0  0  0  0  0  0  0  0  0  0  0
   63.0120   32.7620   49.2890 C   0  0  0  0  0  0  0  0  0  0  0  0
   63.2637   32.3740   50.2870 H   0  0  0  0  0  0  0  0  0  0  0  0
   58.7570   31.8520   46.8490 C   0  0  0  0  0  0  0  0  0  0  0  0
   57.6897   31.8326   47.1145 H   0  0  0  0  0  0  0  0  0  0  0  0
   59.0671   32.8527   46.5138 H   0  0  0  0  0  0  0  0  0  0  0  0
   58.9970   30.8720   45.6940 C   0  0  0  0  0  0  0  0  0  0  0  0
   58.4207   31.1995   44.8162 H   0  0  0  0  0  0  0  0  0  0  0  0
   60.0715   30.8565   45.4592 H   0  0  0  0  0  0  0  0  0  0  0  0
   59.2870   26.1040   45.6890 N   0  0  0  0  0  0  0  0  0  0  0  0
   60.5380   26.2260   46.4470 C   0  0  0  0  0  0  0  0  0  0  0  0
   60.3175   26.2045   47.5244 H   0  0  0  0  0  0  0  0  0  0  0  0
   61.2042   25.3886   46.1923 H   0  0  0  0  0  0  0  0  0  0  0  0
   61.0299   27.1764   46.1923 H   0  0  0  0  0  0  0  0  0  0  0  0
  1  2  1  0
  2  3  1  0
  2  4  2  0
  4  5  1  0
  5  6  2  0
  6  7  1  0
  6  8  1  0
  8  9  1  0
  9 10  1  0
 10 11  2  0
 10 12  1  0
 12 13  1  0
 13 14  1  0
  5 15  1  0
 15 16  1  0
 15 17  2  0
 17 18  1  0
 18 19  2  0
 18 20  1  0
 20 21  1  0
 20 22  1  0
 22 23  1  0
 22 24  1  0
 22 25  1  0
 25 26  1  0
 25 27  1  0
 25 28  1  0
 28 29  1  0
 29 30  1  0
 29 31  1  0
 29 32  1  0
 32 33  1  0
 32 34  1  0
 32 35  1  0
 35 36  1  0
 35 37  1  0
 35 38  1  0
 38 39  2  0
 39 40  1  0
 39 41  1  0
 41 42  1  0
 41 43  2  0
 43 44  1  0
 43 45  1  0
 45 46  1  0
 45 47  2  0
 47 48  1  0
 28 49  1  0
 49 50  1  0
 49 51  1  0
 49 52  1  0
 52 53  1  0
 52 54  1  0
 17 55  1  0
 55 56  1  0
 56 57  1  0
 56 58  1  0
 56 59  1  0
 55  4  1  0
 13  8  2  0
 52 20  1  0
 47 38  1  0
M  CHG  4   9  -1  12  -1  14  -1  20   1
M  END
>  <UniqueID>  (9) 
9

>  <SMILES>  (9) 
C=c1/c(=C\c2[n-]c(=O)[n-]c2[O-])cc(C(=O)[NH+]2CCN(CCCc3ccccc3)CC2)n1C

>  <Energy>  (9) 
149.06235466371785

>  <Genealogy>  (9) 
C=c1c(=Cc2[n-]c(=O)[n-]c2[O-])cc(C(=O)[NH+]2CCN(CCCc3ccccc3)CC2)n1C (protonated)
C=c1/c(=C\c2[n-]c(=O)[n-]c2[O-])cc(C(=O)[NH+]2CCN(CCCc3ccccc3)CC2)n1C (cis-trans isomerization)
C=c1/c(=C\c2[n-]c(=O)[n-]c2[O-])cc(C(=O)[NH+]2CCN(CCCc3ccccc3)CC2)n1C (3D coordinates assigned)
C=c1/c(=C\c2[n-]c(=O)[n-]c2[O-])cc(C(=O)[NH+]2CCN(CCCc3ccccc3)CC2)n1C (nonaromatic ring conformer: 149.06235466371785 kcal/mol)

>  <smiles>  (9) 
C=c1c(=Cc2[nH]c(=O)[nH]c2O)cc(C(=O)N2CCN(CCCc3ccccc3)CC2)n1C

>  <score_type>  (9) 
oracle

>  <origin>  (9) 
adg

>  <m_score__min__energy>  (9) 
-16.989999999999998

>  <m_primary>  (9) 
energy

$$$$
9:0
     RDKit          3D

 45 47  0  0  1  0  0  0  0  0999 V2000
   55.5160   29.0130   44.8840 O   0  0  0  0  0  0  0  0  0  0  0  0
   56.3900   28.3140   45.5310 N   0  0  0  0  0  0  0  0  0  0  0  0
   55.9380   27.0950   45.8800 O   0  0  0  0  0  0  0  0  0  0  0  0
   57.5950   28.9770   45.7670 C   0  0  0  0  0  0  0  0  0  0  0  0
   58.6110   28.2300   46.3730 C   0  0  0  0  0  0  0  0  0  0  0  0
   59.7980   28.7600   46.6780 N   0  0  0  0  0  0  0  0  0  0  0  0
   57.9070   30.2770   45.5050 C   0  0  0  0  0  0  0  0  0  0  0  0
   57.1460   30.9430   44.7520 N   0  0  0  0  0  0  0  0  0  0  0  0
   61.3440   31.6770   47.4870 C   0  0  0  0  0  0  0  0  0  0  0  0
   60.5210   31.8190   48.5960 C   0  0  0  0  0  0  0  0  0  0  0  0
   60.5460   32.9180   49.4150 C   0  0  0  0  0  0  0  0  0  0  0  0
   61.4250   33.9550   49.1520 C   0  0  0  0  0  0  0  0  0  0  0  0
   62.2380   33.8220   48.0610 C   0  0  0  0  0  0  0  0  0  0  0  0
   62.2150   32.7030   47.2250 C   0  0  0  0  0  0  0  0  0  0  0  0
   59.1130   30.8390   45.8140 N   0  0  0  0  0  0  0  0  0  0  0  0
   60.0460   30.0680   46.4010 C   0  0  0  0  0  0  0  0  0  0  0  0
   61.2180   30.4920   46.7290 N   0  0  0  0  0  0  0  0  0  0  0  0
   57.3540   31.5630   43.4990 C   0  0  0  0  0  0  0  0  0  0  0  0
   58.0700   32.8900   43.5410 C   0  0  0  0  0  0  0  0  0  0  0  0
   58.2570   33.5400   44.7380 N   0  0  0  0  0  0  0  0  0  0  0  0
   57.3210   33.8130   45.7080 C   0  0  0  0  0  0  0  0  0  0  0  0
   57.8740   33.5680   47.1250 C   0  0  0  0  0  0  0  0  0  0  0  0
   58.9880   34.3440   47.3210 O   0  0  0  0  0  0  0  0  0  0  0  0
   59.4640   34.9990   46.2120 C   0  0  0  0  0  0  0  0  0  0  0  0
   59.5320   34.1490   44.9660 C   0  0  0  0  0  0  0  0  0  0  0  0
   58.4258   27.1710   46.6059 H   0  0  0  0  0  0  0  0  0  0  0  0
   60.5110   28.1590   47.1250 H   0  0  0  0  0  0  0  0  0  0  0  0
   59.8137   31.0094   48.8291 H   0  0  0  0  0  0  0  0  0  0  0  0
   59.8688   32.9759   50.2799 H   0  0  0  0  0  0  0  0  0  0  0  0
   61.4673   34.8476   49.7934 H   0  0  0  0  0  0  0  0  0  0  0  0
   62.9433   34.6341   47.8306 H   0  0  0  0  0  0  0  0  0  0  0  0
   62.8926   32.6453   46.3604 H   0  0  0  0  0  0  0  0  0  0  0  0
   59.3320   31.8380   45.6110 H   0  0  0  0  0  0  0  0  0  0  0  0
   57.9475   30.8775   42.8762 H   0  0  0  0  0  0  0  0  0  0  0  0
   56.3521   31.7735   43.0966 H   0  0  0  0  0  0  0  0  0  0  0  0
   59.0692   32.7237   43.1122 H   0  0  0  0  0  0  0  0  0  0  0  0
   57.3867   33.5594   42.9978 H   0  0  0  0  0  0  0  0  0  0  0  0
   57.0168   34.8666   45.6222 H   0  0  0  0  0  0  0  0  0  0  0  0
   56.4649   33.1394   45.5549 H   0  0  0  0  0  0  0  0  0  0  0  0
   57.1076   33.8321   47.8686 H   0  0  0  0  0  0  0  0  0  0  0  0
   58.1418   32.5069   47.2359 H   0  0  0  0  0  0  0  0  0  0  0  0
   58.8040   35.8552   46.0086 H   0  0  0  0  0  0  0  0  0  0  0  0
   60.4967   35.2987   46.4439 H   0  0  0  0  0  0  0  0  0  0  0  0
   59.7969   34.7800   44.1048 H   0  0  0  0  0  0  0  0  0  0  0  0
   60.2956   33.3677   45.0945 H   0  0  0  0  0  0  0  0  0  0  0  0
  1  2  2  0
  2  3  1  0
  2  4  1  0
  4  5  2  0
  5  6  1  0
  6  7  1  0
  7  8  2  0
  8  9  1  0
  9 10  2  0
 10 11  1  0
 11 12  2  0
 12 13  1  0
 13 14  2  0
  7 15  1  0
 15 16  1  0
 16 17  2  0
 17 18  1  0
 18 19  1  0
 19 20  1  0
 20 21  1  0
 21 22  1  0
 22 23  1  0
 23 24  1  0
 24 25  1  0
 16  4  1  0
 25 20  1  0
 14  9  1  0
  5 26  1  0
  6 27  1  0
 10 28  1  0
 11 29  1  0
 12 30  1  0
 13 31  1  0
 14 32  1  0
 15 33  1  0
 18 34  1  0
 18 35  1  0
 19 36  1  0
 19 37  1  0
 21 38  1  0
 21 39  1  0
 22 40  1  0
 22 41  1  0
 24 42  1  0
 24 43  1  0
 25 44  1  0
 25 45  1  0
M  CHG  2   2   1   3  -1
M  END
>  <smiles>  (10) 
O=[N+]([O-])c1c[nH]c(=Nc2ccccc2)[nH]c1=NCCN1CCOCC1

>  <score_type>  (10) 
oracle

>  <origin>  (10) 
adg

>  <m_score__min__energy>  (10) 
-7.4100000000000001

>  <m_primary>  (10) 
energy

$$$$
10:0
     RDKit          3D

 50 52  0  0  0  0  0  0  0  0999 V2000
   54.8524   28.7904   55.2601 H   0  0  0  0  0  0  0  0  0  0  0  0
   54.2590   29.4060   54.5680 C   0  0  0  0  0  0  0  0  0  0  0  0
   53.1919   29.5838   54.7670 H   0  0  0  0  0  0  0  0  0  0  0  0
   54.8380   29.9410   53.4790 C   0  0  0  0  0  0  0  0  0  0  0  0
   54.2020   30.7380   52.5240 C   0  0  0  0  0  0  0  0  0  0  0  0
   52.8920   31.0510   52.4580 C   0  0  0  0  0  0  0  0  0  0  0  0
   52.3427   31.1789   53.4024 H   0  0  0  0  0  0  0  0  0  0  0  0
   52.1520   31.2320   51.1960 C   0  0  0  0  0  0  0  0  0  0  0  0
   52.1100   30.3030   50.2260 N   0  0  0  0  0  0  0  0  0  0  0  0
   51.2700   30.8390   49.3140 C   0  0  0  0  0  0  0  0  0  0  0  0
   50.9830   30.2600   48.2340 O   0  0  0  0  0  0  0  0  0  0  0  0
   50.7560   32.0400   49.6540 N   0  0  0  0  0  0  0  0  0  0  0  0
   51.3120   32.2700   50.8540 C   0  0  0  0  0  0  0  0  0  0  0  0
   51.0210   33.3810   51.6360 O   0  0  0  0  0  0  0  0  0  0  0  0
   55.1800   31.1160   51.6200 C   0  0  0  0  0  0  0  0  0  0  0  0
   55.0365   31.7382   50.7243 H   0  0  0  0  0  0  0  0  0  0  0  0
   56.3720   30.5640   52.0550 C   0  0  0  0  0  0  0  0  0  0  0  0
   57.7000   30.7960   51.4170 C   0  0  0  0  0  0  0  0  0  0  0  0
   58.6090   29.9340   51.5760 O   0  0  0  0  0  0  0  0  0  0  0  0
   57.9580   31.9710   50.6000 N   0  0  2  0  0  0  0  0  0  0  0  0
   57.0390   32.3510   50.2760 H   0  0  0  0  0  0  0  0  0  0  0  0
   58.6720   31.5590   49.3650 C   0  0  0  0  0  0  0  0  0  0  0  0
   59.6913   31.2458   49.6349 H   0  0  0  0  0  0  0  0  0  0  0  0
   58.1027   30.7355   48.9092 H   0  0  0  0  0  0  0  0  0  0  0  0
   58.7610   32.6740   48.3470 C   0  0  0  0  0  0  0  0  0  0  0  0
   57.7870   32.8010   47.3420 C   0  0  0  0  0  0  0  0  0  0  0  0
   56.9444   32.0949   47.3030 H   0  0  0  0  0  0  0  0  0  0  0  0
   57.8850   33.8210   46.3920 C   0  0  0  0  0  0  0  0  0  0  0  0
   57.1189   33.9165   45.6085 H   0  0  0  0  0  0  0  0  0  0  0  0
   58.9540   34.7200   46.4350 C   0  0  0  0  0  0  0  0  0  0  0  0
   59.0292   35.5221   45.6860 H   0  0  0  0  0  0  0  0  0  0  0  0
   59.9280   34.5990   47.4310 C   0  0  0  0  0  0  0  0  0  0  0  0
   60.7699   35.3062   47.4649 H   0  0  0  0  0  0  0  0  0  0  0  0
   59.8330   33.5800   48.3840 C   0  0  0  0  0  0  0  0  0  0  0  0
   60.6013   33.4879   49.1658 H   0  0  0  0  0  0  0  0  0  0  0  0
   58.6450   33.0690   51.3560 C   0  0  0  0  0  0  0  0  0  0  0  0
   58.6788   33.9075   50.6449 H   0  0  0  0  0  0  0  0  0  0  0  0
   57.8500   33.4750   52.6100 C   0  0  0  0  0  0  0  0  0  0  0  0
   58.4131   33.1874   53.5101 H   0  0  0  0  0  0  0  0  0  0  0  0
   57.6929   34.5637   52.6080 H   0  0  0  0  0  0  0  0  0  0  0  0
   56.8759   32.9640   52.6080 H   0  0  0  0  0  0  0  0  0  0  0  0
   60.1080   32.7680   51.7450 C   0  0  0  0  0  0  0  0  0  0  0  0
   60.1995   32.7492   52.8410 H   0  0  0  0  0  0  0  0  0  0  0  0
   60.4026   31.7904   51.3356 H   0  0  0  0  0  0  0  0  0  0  0  0
   60.7646   33.5499   51.3356 H   0  0  0  0  0  0  0  0  0  0  0  0
   56.1570   29.8190   53.1720 N   0  0  0  0  0  0  0  0  0  0  0  0
   57.1630   29.0360   53.9000 C   0  0  0  0  0  0  0  0  0  0  0  0
   57.0084   29.1563   54.9824 H   0  0  0  0  0  0  0  0  0  0  0  0
   57.0655   27.9737   53.6315 H   0  0  0  0  0  0  0  0  0  0  0  0
   58.1688   29.3912   53.6315 H   0  0  0  0  0  0  0  0  0  0  0  0
  1  2  1  0
  2  3  1  0
  2  4  2  0
  4  5  1  0
  5  6  2  0
  6  7  1  0
  6  8  1  0
  8  9  1  0
  9 10  1  0
 10 11  2  0
 10 12  1  0
 12 13  1  0
 13 14  1  0
  5 15  1  0
 15 16  1  0
 15 17  2  0
 17 18  1  0
 18 19  2  0
 18 20  1  0
 20 21  1  6
 20 22  1  0
 22 23  1  0
 22 24  1  0
 22 25  1  0
 25 26  2  0
 26 27  1  0
 26 28  1  0
 28 29  1  0
 28 30  2  0
 30 31  1  0
 30 32  1  0
 32 33  1  0
 32 34  2  0
 34 35  1  0
 20 36  1  0
 36 37  1  0
 36 38  1  0
 38 39  1  0
 38 40  1  0
 38 41  1  0
 36 42  1  0
 42 43  1  0
 42 44  1  0
 42 45  1  0
 17 46  1  0
 46 47  1  0
 47 48  1  0
 47 49  1  0
 47 50  1  0
 46  4  1  0
 13  8  2  0
 34 25  1  0
M  CHG  4   9  -1  12  -1  14  -1  20   1
M  END
>  <UniqueID>  (11) 
10

>  <SMILES>  (11) 
C=c1/c(=C/c2[n-]c(=O)[n-]c2[O-])cc(C(=O)[N@H+](Cc2ccccc2)C(C)C)n1C

>  <Energy>  (11) 
125.65293382534651

>  <Genealogy>  (11) 
C=c1c(=Cc2[n-]c(=O)[n-]c2[O-])cc(C(=O)[NH+](Cc2ccccc2)C(C)C)n1C (protonated)
C=c1c(=Cc2[n-]c(=O)[n-]c2[O-])cc(C(=O)[N@H+](Cc2ccccc2)C(C)C)n1C (chirality)
C=c1/c(=C/c2[n-]c(=O)[n-]c2[O-])cc(C(=O)[N@H+](Cc2ccccc2)C(C)C)n1C (cis-trans isomerization)
C=c1/c(=C/c2[n-]c(=O)[n-]c2[O-])cc(C(=O)[N@H+](Cc2ccccc2)C(C)C)n1C (3D coordinates assigned)
C=c1/c(=C/c2[n-]c(=O)[n-]c2[O-])cc(C(=O)[N@H+](Cc2ccccc2)C(C)C)n1C (optimized conformer: 125.65293382534651 kcal/mol)

>  <smiles>  (11) 
C=c1c(=Cc2[nH]c(=O)[nH]c2O)cc(C(=O)N(Cc2ccccc2)C(C)C)n1C

>  <score_type>  (11) 
oracle

>  <origin>  (11) 
adg

>  <m_score__min__energy>  (11) 
-16.949999999999999

>  <m_primary>  (11) 
energy

$$$$
11:0
     RDKit          3D

 49 52  0  0  0  0  0  0  0  0999 V2000
   55.0130   26.2900   45.9930 N   0  0  0  0  0  0  0  0  0  0  0  0
   56.7230   26.0700   46.1210 S   0  0  0  0  0  0  0  0  0  0  0  0
   57.0610   25.5140   47.4750 O   0  0  0  0  0  0  0  0  0  0  0  0
   57.1730   25.1110   45.0550 O   0  0  0  0  0  0  0  0  0  0  0  0
   57.5310   27.6090   45.9010 C   0  0  0  0  0  0  0  0  0  0  0  0
   57.4500   28.4130   44.7730 C   0  0  0  0  0  0  0  0  0  0  0  0
   58.1880   29.5960   44.8890 C   0  0  0  0  0  0  0  0  0  0  0  0
   58.8430   29.7170   46.1090 C   0  0  0  0  0  0  0  0  0  0  0  0
   59.6860   30.8490   46.5150 C   0  0  0  0  0  0  0  0  0  0  0  0
   60.8340   30.7730   47.2780 C   0  0  0  0  0  0  0  0  0  0  0  0
   61.2760   32.0760   47.4020 C   0  0  0  0  0  0  0  0  0  0  0  0
   62.4750   32.5500   48.1150 C   0  0  0  0  0  0  0  0  0  0  0  0
   63.6020   32.4530   47.5550 O   0  0  0  0  0  0  0  0  0  0  0  0
   62.3640   33.1540   49.4140 N   0  0  0  0  0  0  0  0  0  0  0  0
   63.4810   33.3710   50.2950 C   0  0  0  0  0  0  0  0  0  0  0  0
   63.5730   34.5260   51.0890 C   0  0  0  0  0  0  0  0  0  0  0  0
   64.6840   34.7280   51.9130 C   0  0  0  0  0  0  0  0  0  0  0  0
   65.7140   33.7850   51.9470 C   0  0  0  0  0  0  0  0  0  0  0  0
   65.6440   32.6270   51.1550 C   0  0  0  0  0  0  0  0  0  0  0  0
   66.7480   31.6400   51.1760 C   0  0  0  0  0  0  0  0  0  0  0  0
   67.9020   31.9940   50.8120 O   0  0  0  0  0  0  0  0  0  0  0  0
   66.5220   30.2770   51.5750 N   0  0  0  0  0  0  0  0  0  0  0  0
   65.8810   29.9790   52.8620 C   0  0  0  0  0  0  0  0  0  0  0  0
   65.0940   28.6480   52.8020 C   0  0  0  0  0  0  0  0  0  0  0  0
   65.3210   27.9000   51.6180 O   0  0  0  0  0  0  0  0  0  0  0  0
   66.7030   27.8370   51.3370 C   0  0  0  0  0  0  0  0  0  0  0  0
   67.1790   29.1990   50.8300 C   0  0  0  0  0  0  0  0  0  0  0  0
   64.5300   32.4390   50.3160 C   0  0  0  0  0  0  0  0  0  0  0  0
   60.3750   32.8610   46.7040 C   0  0  0  0  0  0  0  0  0  0  0  0
   59.4390   32.0980   46.1900 O   0  0  0  0  0  0  0  0  0  0  0  0
   58.5070   28.3570   47.0470 S   0  0  0  0  0  0  0  0  0  0  0  0
   54.7580   27.0770   46.6290 H   0  0  0  0  0  0  0  0  0  0  0  0
   56.8657   28.1476   43.8796 H   0  0  0  0  0  0  0  0  0  0  0  0
   58.2442   30.3544   44.0942 H   0  0  0  0  0  0  0  0  0  0  0  0
   61.2978   29.8681   47.6976 H   0  0  0  0  0  0  0  0  0  0  0  0
   61.4410   33.5560   49.6940 H   0  0  0  0  0  0  0  0  0  0  0  0
   62.7675   35.2746   51.0623 H   0  0  0  0  0  0  0  0  0  0  0  0
   64.7473   35.6321   52.5364 H   0  0  0  0  0  0  0  0  0  0  0  0
   66.5852   33.9503   52.5979 H   0  0  0  0  0  0  0  0  0  0  0  0
   66.6557   29.9027   53.6392 H   0  0  0  0  0  0  0  0  0  0  0  0
   65.1753   30.7900   53.0950 H   0  0  0  0  0  0  0  0  0  0  0  0
   65.3898   28.0314   53.6635 H   0  0  0  0  0  0  0  0  0  0  0  0
   64.0252   28.9076   52.8163 H   0  0  0  0  0  0  0  0  0  0  0  0
   67.2524   27.5735   52.2528 H   0  0  0  0  0  0  0  0  0  0  0  0
   66.8879   27.0727   50.5678 H   0  0  0  0  0  0  0  0  0  0  0  0
   68.2680   29.2761   50.9648 H   0  0  0  0  0  0  0  0  0  0  0  0
   66.9237   29.2933   49.7642 H   0  0  0  0  0  0  0  0  0  0  0  0
   64.4808   31.5509   49.6689 H   0  0  0  0  0  0  0  0  0  0  0  0
   60.4341   33.9542   46.5967 H   0  0  0  0  0  0  0  0  0  0  0  0
  1  2  1  0
  2  3  2  0
  2  4  2  0
  2  5  1  0
  5  6  2  0
  6  7  1  0
  7  8  2  0
  8  9  1  0
  9 10  2  0
 10 11  1  0
 11 12  1  0
 12 13  2  0
 12 14  1  0
 14 15  1  0
 15 16  2  0
 16 17  1  0
 17 18  2  0
 18 19  1  0
 19 20  1  0
 20 21  2  0
 20 22  1  0
 22 23  1  0
 23 24  1  0
 24 25  1  0
 25 26  1  0
 26 27  1  0
 19 28  2  0
 11 29  2  0
 29 30  1  0
  8 31  1  0
 31  5  1  0
 30  9  1  0
 28 15  1  0
 27 22  1  0
  1 32  1  0
  6 33  1  0
  7 34  1  0
 10 35  1  0
 14 36  1  0
 16 37  1  0
 17 38  1  0
 18 39  1  0
 23 40  1  0
 23 41  1  0
 24 42  1  0
 24 43  1  0
 26 44  1  0
 26 45  1  0
 27 46  1  0
 27 47  1  0
 28 48  1  0
 29 49  1  0
M  CHG  1   1  -1
M  END
>  <UniqueID>  (12) 
11

>  <SMILES>  (12) 
[NH-]S(=O)(=O)c1ccc(-c2cc(C(=O)Nc3cccc(C(=O)N4CCOCC4)c3)co2)s1

>  <Energy>  (12) 
118.16052384977273

>  <Genealogy>  (12) 
[NH-]S(=O)(=O)c1ccc(-c2cc(C(=O)Nc3cccc(C(=O)N4CCOCC4)c3)co2)s1 (protonated)
[NH-]S(=O)(=O)c1ccc(-c2cc(C(=O)Nc3cccc(C(=O)N4CCOCC4)c3)co2)s1 (3D coordinates assigned)
[NH-]S(=O)(=O)c1ccc(-c2cc(C(=O)Nc3cccc(C(=O)N4CCOCC4)c3)co2)s1 (nonaromatic ring conformer: 118.16052384977273 kcal/mol)

>  <smiles>  (12) 
NS(=O)(=O)c1ccc(-c2cc(C(=O)Nc3cccc(C(=O)N4CCOCC4)c3)co2)s1

>  <score_type>  (12) 
oracle

>  <origin>  (12) 
adg

>  <m_score__min__energy>  (12) 
-10.890000000000001

>  <m_primary>  (12) 
energy

$$$$
12:0
     RDKit          3D

 44 46  0  0  0  0  0  0  0  0999 V2000
   56.8220   30.6780   43.9840 C   0  0  0  0  0  0  0  0  0  0  0  0
   57.1110   31.2130   45.2710 O   0  0  0  0  0  0  0  0  0  0  0  0
   57.8230   32.4010   45.5010 C   0  0  0  0  0  0  0  0  0  0  0  0
   57.6620   33.5300   44.6710 C   0  0  0  0  0  0  0  0  0  0  0  0
   58.3860   34.6990   44.9170 C   0  0  0  0  0  0  0  0  0  0  0  0
   59.2780   34.7580   45.9870 C   0  0  0  0  0  0  0  0  0  0  0  0
   59.4500   33.6480   46.8150 C   0  0  0  0  0  0  0  0  0  0  0  0
   58.7230   32.4680   46.5880 C   0  0  0  0  0  0  0  0  0  0  0  0
   58.9340   31.2920   47.5090 C   0  0  0  0  0  0  0  0  0  0  0  0
   58.6980   31.6810   48.8980 N   0  0  0  0  0  0  0  0  0  0  0  0
   59.7600   32.0680   49.7820 C   0  0  0  0  0  0  0  0  0  0  0  0
   60.9160   32.2890   49.3310 O   0  0  0  0  0  0  0  0  0  0  0  0
   59.5030   32.2140   51.2510 C   0  0  0  0  0  0  0  0  0  0  0  0
   58.4030   31.3000   51.6850 C   0  0  0  0  0  0  0  0  0  0  0  0
   58.3790   29.9330   51.5390 C   0  0  0  0  0  0  0  0  0  0  0  0
   57.2140   29.4650   52.0170 N   0  0  0  0  0  0  0  0  0  0  0  0
   56.5610   30.5750   52.4290 C   0  0  0  0  0  0  0  0  0  0  0  0
   55.1950   30.5380   53.0370 C   0  0  0  0  0  0  0  0  0  0  0  0
   53.9880   29.7940   51.8800 S   0  0  0  0  0  0  0  0  0  0  0  0
   52.6810   31.0610   52.0630 C   0  0  0  0  0  0  0  0  0  0  0  0
   51.8940   31.2110   50.8020 C   0  0  0  0  0  0  0  0  0  0  0  0
   51.7650   30.2340   49.8820 N   0  0  0  0  0  0  0  0  0  0  0  0
   50.9850   30.7160   48.9290 N   0  0  0  0  0  0  0  0  0  0  0  0
   50.6720   31.9680   49.3000 C   0  0  0  0  0  0  0  0  0  0  0  0
   49.9310   32.7240   48.6210 O   0  0  0  0  0  0  0  0  0  0  0  0
   51.2210   32.3310   50.4740 N   0  0  0  0  0  0  0  0  0  0  0  0
   57.2550   31.7170   52.2440 N   0  0  0  0  0  0  0  0  0  0  0  0
   56.3019   29.7152   44.0955 H   0  0  0  0  0  0  0  0  0  0  0  0
   56.1802   31.3796   43.4310 H   0  0  0  0  0  0  0  0  0  0  0  0
   57.7606   30.5258   43.4310 H   0  0  0  0  0  0  0  0  0  0  0  0
   56.9613   33.4896   43.8240 H   0  0  0  0  0  0  0  0  0  0  0  0
   58.2521   35.5749   44.2652 H   0  0  0  0  0  0  0  0  0  0  0  0
   59.8465   35.6800   46.1786 H   0  0  0  0  0  0  0  0  0  0  0  0
   60.1611   33.6976   47.6527 H   0  0  0  0  0  0  0  0  0  0  0  0
   58.2357   30.4875   47.2347 H   0  0  0  0  0  0  0  0  0  0  0  0
   59.9724   30.9433   47.4087 H   0  0  0  0  0  0  0  0  0  0  0  0
   57.7290   31.5910   49.2780 H   0  0  0  0  0  0  0  0  0  0  0  0
   60.4200   31.9649   51.8051 H   0  0  0  0  0  0  0  0  0  0  0  0
   59.2042   33.2523   51.4577 H   0  0  0  0  0  0  0  0  0  0  0  0
   59.1827   29.3222   51.1020 H   0  0  0  0  0  0  0  0  0  0  0  0
   55.2269   29.9391   53.9591 H   0  0  0  0  0  0  0  0  0  0  0  0
   54.8805   31.5682   53.2599 H   0  0  0  0  0  0  0  0  0  0  0  0
   52.0028   30.7622   52.8759 H   0  0  0  0  0  0  0  0  0  0  0  0
   53.1595   32.0247   52.2918 H   0  0  0  0  0  0  0  0  0  0  0  0
  1  2  1  0
  2  3  1  0
  3  4  2  0
  4  5  1  0
  5  6  2  0
  6  7  1  0
  7  8  2  0
  8  9  1  0
  9 10  1  0
 10 11  1  0
 11 12  2  0
 11 13  1  0
 13 14  1  0
 14 15  2  0
 15 16  1  0
 16 17  1  0
 17 18  1  0
 18 19  1  0
 19 20  1  0
 20 21  1  0
 21 22  2  0
 22 23  1  0
 23 24  1  0
 24 25  2  0
 24 26  1  0
 17 27  2  0
  8  3  1  0
 27 14  1  0
 26 21  1  0
  1 28  1  0
  1 29  1  0
  1 30  1  0
  4 31  1  0
  5 32  1  0
  6 33  1  0
  7 34  1  0
  9 35  1  0
  9 36  1  0
 10 37  1  0
 13 38  1  0
 13 39  1  0
 15 40  1  0
 18 41  1  0
 18 42  1  0
 20 43  1  0
 20 44  1  0
M  CHG  3  16  -1  23  -1  26  -1
M  END
>  <UniqueID>  (13) 
12

>  <SMILES>  (13) 
COc1ccccc1CNC(=O)Cc1c[n-]c(CSCc2n[n-]c(=O)[n-]2)n1

>  <Energy>  (13) 
91.76627611483705

>  <Genealogy>  (13) 
COc1ccccc1CNC(=O)Cc1c[n-]c(CSCc2n[n-]c(=O)[n-]2)n1 (protonated)
COc1ccccc1CNC(=O)Cc1c[n-]c(CSCc2n[n-]c(=O)[n-]2)n1 (3D coordinates assigned)
COc1ccccc1CNC(=O)Cc1c[n-]c(CSCc2n[n-]c(=O)[n-]2)n1 (optimized conformer: 91.76627611483705 kcal/mol)

>  <smiles>  (13) 
COc1ccccc1CNC(=O)Cc1c[nH]c(CSCc2n[nH]c(=O)[nH]2)n1

>  <score_type>  (13) 
oracle

>  <origin>  (13) 
adg

>  <m_score__min__energy>  (13) 
-14.81

>  <m_primary>  (13) 
energy

$$$$
13:0
     RDKit          3D

 50 53  0  0  0  0  0  0  0  0999 V2000
   57.3890   32.0050   42.4930 C   0  0  0  0  0  0  0  0  0  0  0  0
   57.9190   31.2330   43.4480 C   0  0  0  0  0  0  0  0  0  0  0  0
   57.8950   29.8850   43.4060 N   0  0  0  0  0  0  0  0  0  0  0  0
   58.4920   29.4410   44.5360 C   0  0  0  0  0  0  0  0  0  0  0  0
   58.6490   28.1430   44.8570 C   0  0  0  0  0  0  0  0  0  0  0  0
   57.5480   27.2790   45.3180 C   0  0  0  0  0  0  0  0  0  0  0  0
   56.2520   27.6850   45.6020 C   0  0  0  0  0  0  0  0  0  0  0  0
   55.8140   29.0030   45.5750 O   0  0  0  0  0  0  0  0  0  0  0  0
   55.4440   26.6460   45.9120 N   0  0  0  0  0  0  0  0  0  0  0  0
   56.2400   25.5620   45.8010 C   0  0  0  0  0  0  0  0  0  0  0  0
   55.8650   24.2260   45.9890 C   0  0  0  0  0  0  0  0  0  0  0  0
   54.4570   23.8570   46.3570 C   0  0  0  0  0  0  0  0  0  0  0  0
   56.8390   23.2310   45.7480 C   0  0  0  0  0  0  0  0  0  0  0  0
   58.1440   23.5860   45.3410 C   0  0  0  0  0  0  0  0  0  0  0  0
   59.4410   22.2200   45.0040 Br  0  0  0  0  0  0  0  0  0  0  0  0
   58.4920   24.9370   45.1650 C   0  0  0  0  0  0  0  0  0  0  0  0
   57.5190   25.9040   45.4270 C   0  0  0  0  0  0  0  0  0  0  0  0
   58.9210   30.5230   45.3030 C   0  0  0  0  0  0  0  0  0  0  0  0
   59.6290   30.4640   46.6010 C   0  0  0  0  0  0  0  0  0  0  0  0
   60.8920   30.4570   46.6070 O   0  0  0  0  0  0  0  0  0  0  0  0
   58.8970   30.3020   47.8420 N   0  0  0  0  0  0  0  0  0  0  0  0
   59.2310   28.9830   48.4610 C   0  0  0  0  0  0  0  0  0  0  0  0
   59.3410   29.0050   50.0050 C   0  0  0  0  0  0  0  0  0  0  0  0
   58.3940   30.0040   50.6060 C   0  0  0  0  0  0  0  0  0  0  0  0
   57.7510   29.7200   51.6040 O   0  0  0  0  0  0  0  0  0  0  0  0
   58.2630   31.3660   49.9890 C   0  0  0  0  0  0  0  0  0  0  0  0
   59.1390   31.4610   48.7320 C   0  0  0  0  0  0  0  0  0  0  0  0
   58.5600   31.6690   44.6030 C   0  0  0  0  0  0  0  0  0  0  0  0
   58.8080   33.0920   45.0140 C   0  0  0  0  0  0  0  0  0  0  0  0
   57.4383   33.1004   42.5808 H   0  0  0  0  0  0  0  0  0  0  0  0
   56.9038   31.5445   41.6198 H   0  0  0  0  0  0  0  0  0  0  0  0
   57.5030   29.3090   42.6270 H   0  0  0  0  0  0  0  0  0  0  0  0
   59.6537   27.7036   44.7704 H   0  0  0  0  0  0  0  0  0  0  0  0
   54.3590   23.8313   47.4523 H   0  0  0  0  0  0  0  0  0  0  0  0
   53.7625   24.6035   45.9441 H   0  0  0  0  0  0  0  0  0  0  0  0
   54.2179   22.8659   45.9441 H   0  0  0  0  0  0  0  0  0  0  0  0
   56.5784   22.1703   45.8786 H   0  0  0  0  0  0  0  0  0  0  0  0
   59.5001   25.2236   44.8311 H   0  0  0  0  0  0  0  0  0  0  0  0
   57.8730   30.2940   47.6230 H   0  0  0  0  0  0  0  0  0  0  0  0
   58.4454   28.2649   48.1832 H   0  0  0  0  0  0  0  0  0  0  0  0
   60.2249   28.7034   48.0816 H   0  0  0  0  0  0  0  0  0  0  0  0
   59.1018   28.0048   50.3954 H   0  0  0  0  0  0  0  0  0  0  0  0
   60.3674   29.2936   50.2756 H   0  0  0  0  0  0  0  0  0  0  0  0
   57.2124   31.5418   49.7146 H   0  0  0  0  0  0  0  0  0  0  0  0
   58.5915   32.1239   50.7154 H   0  0  0  0  0  0  0  0  0  0  0  0
   58.8979   32.3885   48.1921 H   0  0  0  0  0  0  0  0  0  0  0  0
   60.1965   31.4623   49.0347 H   0  0  0  0  0  0  0  0  0  0  0  0
   58.8198   33.1598   46.1118 H   0  0  0  0  0  0  0  0  0  0  0  0
   59.7777   33.4250   44.6156 H   0  0  0  0  0  0  0  0  0  0  0  0
   58.0081   33.7334   44.6156 H   0  0  0  0  0  0  0  0  0  0  0  0
  1  2  2  0
  2  3  1  0
  3  4  1  0
  4  5  2  3
  5  6  1  0
  6  7  2  0
  7  8  1  0
  7  9  1  0
  9 10  1  0
 10 11  2  0
 11 12  1  0
 11 13  1  0
 13 14  2  0
 14 15  1  0
 14 16  1  0
 16 17  2  0
  4 18  1  0
 18 19  1  0
 19 20  2  0
 19 21  1  0
 21 22  1  0
 22 23  1  0
 23 24  1  0
 24 25  2  0
 24 26  1  0
 26 27  1  0
 18 28  2  0
 28 29  1  0
 28  2  1  0
 17  6  1  0
 27 21  1  0
 17 10  1  0
  1 30  1  0
  1 31  1  0
  3 32  1  0
  5 33  1  0
 12 34  1  0
 12 35  1  0
 12 36  1  0
 13 37  1  0
 16 38  1  0
 21 39  1  0
 22 40  1  0
 22 41  1  0
 23 42  1  0
 23 43  1  0
 26 44  1  0
 26 45  1  0
 27 46  1  0
 27 47  1  0
 29 48  1  0
 29 49  1  0
 29 50  1  0
M  CHG  3   8  -1   9  -1  21   1
M  END
>  <UniqueID>  (14) 
13

>  <SMILES>  (14) 
C=c1[nH]c(=Cc2c([O-])[n-]c3c(C)cc(Br)cc23)c(C(=O)[NH+]2CCC(=O)CC2)c1C

>  <Energy>  (14) 
129.51753884594953

>  <Genealogy>  (14) 
C=c1[nH]c(=Cc2c([O-])[n-]c3c(C)cc(Br)cc23)c(C(=O)[NH+]2CCC(=O)CC2)c1C (protonated)
C=c1[nH]c(=Cc2c([O-])[n-]c3c(C)cc(Br)cc23)c(C(=O)[NH+]2CCC(=O)CC2)c1C (3D coordinates assigned)
C=c1[nH]c(=Cc2c([O-])[n-]c3c(C)cc(Br)cc23)c(C(=O)[NH+]2CCC(=O)CC2)c1C (nonaromatic ring conformer: 129.51753884594953 kcal/mol)

>  <smiles>  (14) 
C=c1[nH]c(=Cc2c(O)[nH]c3c(C)cc(Br)cc23)c(C(=O)N2CCC(=O)CC2)c1C

>  <score_type>  (14) 
oracle

>  <origin>  (14) 
adg

>  <m_score__min__energy>  (14) 
-11.789999999999999

>  <m_primary>  (14) 
energy

$$$$
14:0
     RDKit          3D

 54 57  0  0  0  0  0  0  0  0999 V2000
   55.8850   25.6380   45.9950 C   0  0  0  0  0  0  0  0  0  0  0  0
   57.3170   25.5510   45.4750 C   0  0  0  0  0  0  0  0  0  0  0  0
   58.0780   26.7610   45.8450 N   0  0  0  0  0  0  0  0  0  0  0  0
   58.7900   26.7860   47.0170 C   0  0  0  0  0  0  0  0  0  0  0  0
   58.7900   25.7840   47.7850 O   0  0  0  0  0  0  0  0  0  0  0  0
   59.5220   27.9270   47.3660 C   0  0  0  0  0  0  0  0  0  0  0  0
   60.2530   28.0290   48.5610 C   0  0  0  0  0  0  0  0  0  0  0  0
   60.9450   29.1640   48.8380 N   0  0  0  0  0  0  0  0  0  0  0  0
   60.9480   30.2170   47.9740 C   0  0  0  0  0  0  0  0  0  0  0  0
   61.6980   31.4080   48.2760 N   0  0  0  0  0  0  0  0  0  0  0  0
   61.9830   31.7590   49.6730 C   0  0  0  0  0  0  0  0  0  0  0  0
   62.7050   33.1160   49.7680 C   0  0  0  0  0  0  0  0  0  0  0  0
   63.8710   33.2030   48.8590 N   0  0  0  0  0  0  0  0  0  0  0  0
   65.0820   32.6260   49.4730 C   0  0  0  0  0  0  0  0  0  0  0  0
   63.6380   32.6740   47.4870 C   0  0  0  0  0  0  0  0  0  0  0  0
   62.1770   32.2940   47.2110 C   0  0  0  0  0  0  0  0  0  0  0  0
   60.2450   30.1270   46.8160 N   0  0  0  0  0  0  0  0  0  0  0  0
   59.5320   29.0170   46.4860 C   0  0  0  0  0  0  0  0  0  0  0  0
   58.8350   28.9630   45.3090 N   0  0  0  0  0  0  0  0  0  0  0  0
   58.8620   30.1310   44.4020 C   0  0  0  0  0  0  0  0  0  0  0  0
   57.9100   31.1930   44.8860 C   0  0  0  0  0  0  0  0  0  0  0  0
   56.6730   30.9460   44.8660 O   0  0  0  0  0  0  0  0  0  0  0  0
   58.3760   32.5100   45.3900 C   0  0  0  0  0  0  0  0  0  0  0  0
   58.4990   33.5910   44.5000 C   0  0  0  0  0  0  0  0  0  0  0  0
   58.9600   34.8300   44.9500 C   0  0  0  0  0  0  0  0  0  0  0  0
   59.2960   35.0080   46.2930 C   0  0  0  0  0  0  0  0  0  0  0  0
   59.1770   33.9460   47.1890 C   0  0  0  0  0  0  0  0  0  0  0  0
   59.6450   34.1930   49.0260 Br  0  0  0  0  0  0  0  0  0  0  0  0
   58.7280   32.6990   46.7420 C   0  0  0  0  0  0  0  0  0  0  0  0
   58.1100   27.8380   44.9920 C   0  0  0  0  0  0  0  0  0  0  0  0
   57.4690   27.7920   43.9040 O   0  0  0  0  0  0  0  0  0  0  0  0
   55.8937   25.6375   47.0950 H   0  0  0  0  0  0  0  0  0  0  0  0
   55.4190   26.5661   45.6324 H   0  0  0  0  0  0  0  0  0  0  0  0
   55.3101   24.7731   45.6324 H   0  0  0  0  0  0  0  0  0  0  0  0
   57.8071   24.6681   45.9112 H   0  0  0  0  0  0  0  0  0  0  0  0
   57.2920   25.4690   44.3783 H   0  0  0  0  0  0  0  0  0  0  0  0
   60.2649   27.1899   49.2721 H   0  0  0  0  0  0  0  0  0  0  0  0
   61.0358   31.8164   50.2293 H   0  0  0  0  0  0  0  0  0  0  0  0
   62.6368   30.9849   50.1011 H   0  0  0  0  0  0  0  0  0  0  0  0
   61.9936   33.9132   49.5065 H   0  0  0  0  0  0  0  0  0  0  0  0
   63.0752   33.2262   50.7979 H   0  0  0  0  0  0  0  0  0  0  0  0
   64.9933   32.6683   50.5686 H   0  0  0  0  0  0  0  0  0  0  0  0
   65.1915   31.5789   49.1541 H   0  0  0  0  0  0  0  0  0  0  0  0
   65.9641   33.2006   49.1541 H   0  0  0  0  0  0  0  0  0  0  0  0
   63.9390   33.4447   46.7621 H   0  0  0  0  0  0  0  0  0  0  0  0
   64.2324   31.7533   47.3928 H   0  0  0  0  0  0  0  0  0  0  0  0
   61.5593   33.2038   47.1842 H   0  0  0  0  0  0  0  0  0  0  0  0
   62.1070   31.7775   46.2423 H   0  0  0  0  0  0  0  0  0  0  0  0
   59.8812   30.5438   44.3727 H   0  0  0  0  0  0  0  0  0  0  0  0
   58.5559   29.8088   43.3958 H   0  0  0  0  0  0  0  0  0  0  0  0
   58.2302   33.4601   43.4414 H   0  0  0  0  0  0  0  0  0  0  0  0
   59.0586   35.6679   44.2442 H   0  0  0  0  0  0  0  0  0  0  0  0
   59.6549   35.9865   46.6448 H   0  0  0  0  0  0  0  0  0  0  0  0
   58.6491   31.8606   47.4497 H   0  0  0  0  0  0  0  0  0  0  0  0
  1  2  1  0
  2  3  1  0
  3  4  1  0
  4  5  2  0
  4  6  1  0
  6  7  2  0
  7  8  1  0
  8  9  2  0
  9 10  1  0
 10 11  1  0
 11 12  1  0
 12 13  1  0
 13 14  1  0
 13 15  1  0
 15 16  1  0
  9 17  1  0
 17 18  2  0
 18 19  1  0
 19 20  1  0
 20 21  1  0
 21 22  2  0
 21 23  1  0
 23 24  2  0
 24 25  1  0
 25 26  2  0
 26 27  1  0
 27 28  1  0
 27 29  2  0
 19 30  1  0
 30 31  2  0
 30  3  1  0
 18  6  1  0
 29 23  1  0
 16 10  1  0
  1 32  1  0
  1 33  1  0
  1 34  1  0
  2 35  1  0
  2 36  1  0
  7 37  1  0
 11 38  1  0
 11 39  1  0
 12 40  1  0
 12 41  1  0
 14 42  1  0
 14 43  1  0
 14 44  1  0
 15 45  1  0
 15 46  1  0
 16 47  1  0
 16 48  1  0
 20 49  1  0
 20 50  1  0
 24 51  1  0
 25 52  1  0
 26 53  1  0
 29 54  1  0
M  END
>  <UniqueID>  (15) 
14

>  <SMILES>  (15) 
CCn1c(=O)c2cnc(N3CCN(C)CC3)nc2n(CC(=O)c2cccc(Br)c2)c1=O

>  <Energy>  (15) 
74.02433281593493

>  <Genealogy>  (15) 
CCn1c(=O)c2cnc(N3CCN(C)CC3)nc2n(CC(=O)c2cccc(Br)c2)c1=O (3D coordinates assigned)
CCn1c(=O)c2cnc(N3CCN(C)CC3)nc2n(CC(=O)c2cccc(Br)c2)c1=O (nonaromatic ring conformer: 74.02433281593493 kcal/mol)

>  <smiles>  (15) 
CCn1c(=O)c2cnc(N3CCN(C)CC3)nc2n(CC(=O)c2cccc(Br)c2)c1=O

>  <score_type>  (15) 
oracle

>  <origin>  (15) 
adg

>  <m_score__min__energy>  (15) 
-8.9800000000000004

>  <m_primary>  (15) 
energy

$$$$
15:0
     RDKit          3D

 51 54  0  0  0  0  0  0  0  0999 V2000
   55.5110   28.9930   44.9030 O   0  0  0  0  0  0  0  0  0  0  0  0
   56.7460   28.7720   45.0160 C   0  0  0  0  0  0  0  0  0  0  0  0
   57.6890   29.7660   44.5880 N   0  0  0  0  0  0  0  0  0  0  0  0
   57.8390   31.0890   45.1230 C   0  0  0  0  0  0  0  0  0  0  0  0
   57.2420   32.2080   44.5170 C   0  0  0  0  0  0  0  0  0  0  0  0
   57.4390   33.4840   45.0510 C   0  0  0  0  0  0  0  0  0  0  0  0
   58.2340   33.6570   46.1860 C   0  0  0  0  0  0  0  0  0  0  0  0
   58.8430   32.5500   46.8000 C   0  0  0  0  0  0  0  0  0  0  0  0
   59.7140   32.7290   47.9830 C   0  0  0  0  0  0  0  0  0  0  0  0
   59.1850   32.9270   49.1120 O   0  0  0  0  0  0  0  0  0  0  0  0
   61.1500   32.6910   47.8750 N   0  0  0  0  0  0  0  0  0  0  0  0
   61.8390   33.2720   46.7190 C   0  0  0  0  0  0  0  0  0  0  0  0
   63.1770   33.8720   47.1640 C   0  0  0  0  0  0  0  0  0  0  0  0
   63.9330   32.9240   47.8930 O   0  0  0  0  0  0  0  0  0  0  0  0
   63.2700   32.6140   49.1060 C   0  0  0  0  0  0  0  0  0  0  0  0
   61.9370   31.9110   48.8340 C   0  0  0  0  0  0  0  0  0  0  0  0
   58.6570   31.2710   46.2460 C   0  0  0  0  0  0  0  0  0  0  0  0
   57.2310   27.5130   45.6450 C   0  0  0  0  0  0  0  0  0  0  0  0
   58.6140   27.2830   45.7570 C   0  0  0  0  0  0  0  0  0  0  0  0
   59.0950   26.1110   46.3390 C   0  0  0  0  0  0  0  0  0  0  0  0
   58.2090   25.1480   46.8180 C   0  0  0  0  0  0  0  0  0  0  0  0
   56.8240   25.3490   46.7190 C   0  0  0  0  0  0  0  0  0  0  0  0
   55.8830   24.3790   47.2050 N   0  0  0  0  0  0  0  0  0  0  0  0
   54.8750   23.3780   46.2100 S   0  0  0  0  0  0  0  0  0  0  0  0
   54.3820   22.2080   47.0150 O   0  0  0  0  0  0  0  0  0  0  0  0
   53.7150   24.1810   45.6930 O   0  0  0  0  0  0  0  0  0  0  0  0
   55.8100   22.7820   44.8540 C   0  0  0  0  0  0  0  0  0  0  0  0
   55.6950   23.2190   43.5440 C   0  0  0  0  0  0  0  0  0  0  0  0
   56.5690   22.5610   42.6710 C   0  0  0  0  0  0  0  0  0  0  0  0
   57.3700   21.6110   43.2940 C   0  0  0  0  0  0  0  0  0  0  0  0
   56.9890   21.5890   44.9330 S   0  0  0  0  0  0  0  0  0  0  0  0
   56.3370   26.5290   46.1330 C   0  0  0  0  0  0  0  0  0  0  0  0
   54.9600   26.7080   46.0360 O   0  0  0  0  0  0  0  0  0  0  0  0
   56.6182   32.0788   43.6202 H   0  0  0  0  0  0  0  0  0  0  0  0
   56.9660   34.3558   44.5755 H   0  0  0  0  0  0  0  0  0  0  0  0
   58.3840   34.6646   46.6011 H   0  0  0  0  0  0  0  0  0  0  0  0
   62.0211   32.4877   45.9695 H   0  0  0  0  0  0  0  0  0  0  0  0
   61.2125   34.0629   46.2808 H   0  0  0  0  0  0  0  0  0  0  0  0
   63.7468   34.1821   46.2757 H   0  0  0  0  0  0  0  0  0  0  0  0
   62.9778   34.7386   47.8116 H   0  0  0  0  0  0  0  0  0  0  0  0
   63.9103   31.9523   49.7078 H   0  0  0  0  0  0  0  0  0  0  0  0
   63.0702   33.5504   49.6474 H   0  0  0  0  0  0  0  0  0  0  0  0
   62.1299   30.9104   48.4196 H   0  0  0  0  0  0  0  0  0  0  0  0
   61.3756   31.8208   49.7757 H   0  0  0  0  0  0  0  0  0  0  0  0
   59.1593   30.4037   46.6993 H   0  0  0  0  0  0  0  0  0  0  0  0
   59.3232   28.0354   45.3816 H   0  0  0  0  0  0  0  0  0  0  0  0
   60.1794   25.9456   46.4205 H   0  0  0  0  0  0  0  0  0  0  0  0
   58.5972   24.2262   47.2758 H   0  0  0  0  0  0  0  0  0  0  0  0
   54.9907   24.0010   43.2238 H   0  0  0  0  0  0  0  0  0  0  0  0
   56.6175   22.7755   41.5932 H   0  0  0  0  0  0  0  0  0  0  0  0
   58.1243   20.9810   42.7999 H   0  0  0  0  0  0  0  0  0  0  0  0
  1  2  2  0
  2  3  1  0
  3  4  1  0
  4  5  2  0
  5  6  1  0
  6  7  2  0
  7  8  1  0
  8  9  1  0
  9 10  2  0
  9 11  1  0
 11 12  1  0
 12 13  1  0
 13 14  1  0
 14 15  1  0
 15 16  1  0
  8 17  2  0
  2 18  1  0
 18 19  2  0
 19 20  1  0
 20 21  2  0
 21 22  1  0
 22 23  1  0
 23 24  1  0
 24 25  2  0
 24 26  2  0
 24 27  1  0
 27 28  2  0
 28 29  1  0
 29 30  2  0
 30 31  1  0
 22 32  2  0
 32 33  1  0
 17  4  1  0
 32 18  1  0
 16 11  1  0
 31 27  1  0
  5 34  1  0
  6 35  1  0
  7 36  1  0
 12 37  1  0
 12 38  1  0
 13 39  1  0
 13 40  1  0
 15 41  1  0
 15 42  1  0
 16 43  1  0
 16 44  1  0
 17 45  1  0
 19 46  1  0
 20 47  1  0
 21 48  1  0
 28 49  1  0
 29 50  1  0
 30 51  1  0
M  CHG  3   3  -1  23  -1  33  -1
M  END
>  <UniqueID>  (16) 
15

>  <SMILES>  (16) 
O=C([N-]c1cccc(C(=O)N2CCOCC2)c1)c1cccc([N-]S(=O)(=O)c2cccs2)c1[O-]

>  <Energy>  (16) 
98.1920770481057

>  <Genealogy>  (16) 
O=C([N-]c1cccc(C(=O)N2CCOCC2)c1)c1cccc([N-]S(=O)(=O)c2cccs2)c1[O-] (protonated)
O=C([N-]c1cccc(C(=O)N2CCOCC2)c1)c1cccc([N-]S(=O)(=O)c2cccs2)c1[O-] (3D coordinates assigned)
O=C([N-]c1cccc(C(=O)N2CCOCC2)c1)c1cccc([N-]S(=O)(=O)c2cccs2)c1[O-] (nonaromatic ring conformer: 98.1920770481057 kcal/mol)

>  <smiles>  (16) 
O=C(Nc1cccc(C(=O)N2CCOCC2)c1)c1cccc(NS(=O)(=O)c2cccs2)c1O

>  <score_type>  (16) 
oracle

>  <origin>  (16) 
adg

>  <m_score__min__energy>  (16) 
-17.620000000000001

>  <m_primary>  (16) 
energy

$$$$
16:0
     RDKit          3D

 71 73  0  0  0  0  0  0  0  0999 V2000
   60.9350   26.4630   49.4170 H   0  0  0  0  0  0  0  0  0  0  0  0
   60.4060   27.2420   49.7420 O   0  0  0  0  0  0  0  0  0  0  0  0
   59.8330   27.8320   48.6050 C   0  0  2  0  0  0  0  0  0  0  0  0
   58.8095   27.4468   48.4860 H   0  0  0  0  0  0  0  0  0  0  0  0
   60.6570   27.4710   47.3630 C   0  0  1  0  0  0  0  0  0  0  0  0
   61.6787   27.8566   47.4949 H   0  0  0  0  0  0  0  0  0  0  0  0
   60.7480   26.0720   47.2250 O   0  0  0  0  0  0  0  0  0  0  0  0
   60.6750   25.8560   46.2600 H   0  0  0  0  0  0  0  0  0  0  0  0
   60.0870   28.1630   46.0790 C   0  0  1  0  0  0  0  0  0  0  0  0
   60.9499   28.6439   45.5952 H   0  0  0  0  0  0  0  0  0  0  0  0
   59.4730   27.2070   45.2100 O   0  0  0  0  0  0  0  0  0  0  0  0
   58.4180   26.3170   45.5000 C   0  0  0  0  0  0  0  0  0  0  0  0
   57.1450   26.8870   45.6190 C   0  0  0  0  0  0  0  0  0  0  0  0
   57.0275   27.9741   45.4992 H   0  0  0  0  0  0  0  0  0  0  0  0
   56.0210   26.1020   45.8870 C   0  0  0  0  0  0  0  0  0  0  0  0
   54.7780   26.7130   46.0100 O   0  0  0  0  0  0  0  0  0  0  0  0
   56.1490   24.7140   46.0180 C   0  0  0  0  0  0  0  0  0  0  0  0
   54.9640   23.8850   46.3340 C   0  0  0  0  0  0  0  0  0  0  0  0
   54.0420   24.4025   46.6377 H   0  0  0  0  0  0  0  0  0  0  0  0
   54.9390   22.5470   46.2750 C   0  0  0  0  0  0  0  0  0  0  0  0
   54.3914   22.0063   47.0610 H   0  0  0  0  0  0  0  0  0  0  0  0
   55.6030   21.7500   45.2170 C   0  0  0  0  0  0  0  0  0  0  0  0
   55.9160   22.2950   44.0300 C   0  0  0  0  0  0  0  0  0  0  0  0
   55.3297   23.1571   43.6793 H   0  0  0  0  0  0  0  0  0  0  0  0
   57.0250   21.7860   43.1600 C   0  0  0  0  0  0  0  0  0  0  0  0
   57.8435   21.4103   43.7916 H   0  0  0  0  0  0  0  0  0  0  0  0
   56.6481   20.9708   42.5249 H   0  0  0  0  0  0  0  0  0  0  0  0
   57.3974   22.6033   42.5249 H   0  0  0  0  0  0  0  0  0  0  0  0
   56.0140   20.3310   45.5000 C   0  0  0  0  0  0  0  0  0  0  0  0
   56.0599   20.1725   46.5876 H   0  0  0  0  0  0  0  0  0  0  0  0
   55.2786   19.6415   45.0597 H   0  0  0  0  0  0  0  0  0  0  0  0
   57.0040   20.1413   45.0597 H   0  0  0  0  0  0  0  0  0  0  0  0
   57.4250   24.1330   45.9340 C   0  0  0  0  0  0  0  0  0  0  0  0
   57.5330   23.0462   46.0649 H   0  0  0  0  0  0  0  0  0  0  0  0
   58.5700   24.9170   45.6850 C   0  0  0  0  0  0  0  0  0  0  0  0
   59.8440   24.3290   45.6440 O   0  0  0  0  0  0  0  0  0  0  0  0
   60.1090   22.9840   45.2530 C   0  0  0  0  0  0  0  0  0  0  0  0
   60.2322   22.3590   46.1497 H   0  0  0  0  0  0  0  0  0  0  0  0
   59.2685   22.6040   44.6538 H   0  0  0  0  0  0  0  0  0  0  0  0
   61.0309   22.9512   44.6538 H   0  0  0  0  0  0  0  0  0  0  0  0
   59.0990   29.1390   46.3830 O   0  0  0  0  0  0  0  0  0  0  0  0
   59.4890   30.0580   47.3950 C   0  0  2  0  0  0  0  0  0  0  0  0
   58.6270   30.7076   47.6070 H   0  0  0  0  0  0  0  0  0  0  0  0
   60.5700   31.0540   46.9110 C   0  0  0  0  0  0  0  0  0  0  0  0
   61.5628   30.6711   47.1896 H   0  0  0  0  0  0  0  0  0  0  0  0
   60.4895   31.1558   45.8187 H   0  0  0  0  0  0  0  0  0  0  0  0
   60.3830   32.3320   47.5000 O   0  0  0  0  0  0  0  0  0  0  0  0
   59.1260   32.9500   47.2160 C   0  0  0  0  0  0  0  0  0  0  0  0
   58.1300   32.7220   48.3810 C   0  0  0  0  0  0  0  0  0  0  0  0
   58.6544   32.8420   49.3405 H   0  0  0  0  0  0  0  0  0  0  0  0
   57.3139   33.4566   48.3148 H   0  0  0  0  0  0  0  0  0  0  0  0
   57.7147   31.7056   48.3148 H   0  0  0  0  0  0  0  0  0  0  0  0
   58.5130   32.4350   45.8680 C   0  0  0  0  0  0  0  0  0  0  0  0
   59.3333   32.1779   45.1817 H   0  0  0  0  0  0  0  0  0  0  0  0
   57.8896   31.5577   46.0952 H   0  0  0  0  0  0  0  0  0  0  0  0
   57.6180   33.4860   45.1960 C   0  0  0  0  0  0  0  0  0  0  0  0
   57.1892   33.0552   44.2792 H   0  0  0  0  0  0  0  0  0  0  0  0
   56.8273   33.7676   45.9070 H   0  0  0  0  0  0  0  0  0  0  0  0
   58.4080   34.7580   44.8280 C   0  0  0  0  0  0  0  0  0  0  0  0
   58.7254   34.6816   43.7776 H   0  0  0  0  0  0  0  0  0  0  0  0
   57.7426   35.6179   44.9950 H   0  0  0  0  0  0  0  0  0  0  0  0
   59.6560   34.9660   45.7030 C   0  0  0  0  0  0  0  0  0  0  0  0
   60.4948   34.3991   45.2729 H   0  0  0  0  0  0  0  0  0  0  0  0
   59.8887   36.0408   45.7295 H   0  0  0  0  0  0  0  0  0  0  0  0
   59.4110   34.4860   47.1370 C   0  0  0  0  0  0  0  0  0  0  0  0
   60.3025   34.7106   47.7410 H   0  0  0  0  0  0  0  0  0  0  0  0
   58.5216   35.0102   47.5167 H   0  0  0  0  0  0  0  0  0  0  0  0
   59.7580   29.3610   48.7650 C   0  0  2  0  0  0  0  0  0  0  0  0
   58.9096   29.6099   49.4195 H   0  0  0  0  0  0  0  0  0  0  0  0
   60.9340   29.8360   49.3730 O   0  0  0  0  0  0  0  0  0  0  0  0
   61.2750   29.1070   49.9540 H   0  0  0  0  0  0  0  0  0  0  0  0
  1  2  1  0
  2  3  1  0
  3  4  1  6
  3  5  1  0
  5  6  1  1
  5  7  1  0
  7  8  1  0
  5  9  1  0
  9 10  1  6
  9 11  1  0
 11 12  1  0
 12 13  2  0
 13 14  1  0
 13 15  1  0
 15 16  1  0
 15 17  2  0
 17 18  1  0
 18 19  1  0
 18 20  2  0
 20 21  1  0
 20 22  1  0
 22 23  2  0
 23 24  1  0
 23 25  1  0
 25 26  1  0
 25 27  1  0
 25 28  1  0
 22 29  1  0
 29 30  1  0
 29 31  1  0
 29 32  1  0
 17 33  1  0
 33 34  1  0
 33 35  2  0
 35 36  1  0
 36 37  1  0
 37 38  1  0
 37 39  1  0
 37 40  1  0
  9 41  1  0
 41 42  1  0
 42 43  1  1
 42 44  1  0
 44 45  1  0
 44 46  1  0
 44 47  1  0
 47 48  1  0
 48 49  1  0
 49 50  1  0
 49 51  1  0
 49 52  1  0
 48 53  1  0
 53 54  1  0
 53 55  1  0
 53 56  1  0
 56 57  1  0
 56 58  1  0
 56 59  1  0
 59 60  1  0
 59 61  1  0
 59 62  1  0
 62 63  1  0
 62 64  1  0
 62 65  1  0
 65 66  1  0
 65 67  1  0
 42 68  1  0
 68 69  1  1
 68 70  1  0
 70 71  1  0
 68  3  1  0
 35 12  1  0
 65 48  1  0
M  CHG  1  16  -1
M  END
>  <UniqueID>  (17) 
16

>  <SMILES>  (17) 
C/C=C(C)\C=C/c1cc(OC)c(O[C@H]2O[C@H](COC3(C)CCCCC3)C(O)C(O)C2O)cc1[O-]

>  <Energy>  (17) 
105.73525500404982

>  <Genealogy>  (17) 
CC=C(C)C=Cc1cc(OC)c(OC2OC(COC3(C)CCCCC3)C(O)C(O)C2O)cc1[O-] (protonated)
CC=C(C)C=Cc1cc(OC)c(O[C@H]2O[C@H](COC3(C)CCCCC3)C(O)C(O)C2O)cc1[O-] (chirality)
C/C=C(C)\C=C/c1cc(OC)c(O[C@H]2O[C@H](COC3(C)CCCCC3)C(O)C(O)C2O)cc1[O-] (cis-trans isomerization)
C/C=C(C)\C=C/c1cc(OC)c(O[C@H]2O[C@H](COC3(C)CCCCC3)C(O)C(O)C2O)cc1[O-] (3D coordinates assigned)
C/C=C(C)\C=C/c1cc(OC)c(O[C@H]2O[C@H](COC3(C)CCCCC3)C(O)C(O)C2O)cc1[O-] (nonaromatic ring conformer: 105.73525500404982 kcal/mol)

>  <smiles>  (17) 
CC=C(C)C=Cc1cc(OC)c(OC2OC(COC3(C)CCCCC3)C(O)C(O)C2O)cc1O

>  <score_type>  (17) 
oracle

>  <origin>  (17) 
adg

>  <m_score__min__energy>  (17) 
-11.35

>  <m_primary>  (17) 
energy

$$$$
17:0
     RDKit          3D

 56 58  0  0  0  0  0  0  0  0999 V2000
   53.8640   25.2110   45.6110 C   0  0  0  0  0  0  0  0  0  0  0  0
   54.8490   26.2280   45.9480 N   0  0  0  0  0  0  0  0  0  0  0  0
   56.1250   25.9660   46.5440 C   0  0  0  0  0  0  0  0  0  0  0  0
   56.2040   25.0920   47.4460 O   0  0  0  0  0  0  0  0  0  0  0  0
   57.3500   26.6580   46.1090 C   0  0  0  0  0  0  0  0  0  0  0  0
   58.5600   25.9540   46.0310 C   0  0  0  0  0  0  0  0  0  0  0  0
   59.7340   26.6080   45.6430 C   0  0  0  0  0  0  0  0  0  0  0  0
   59.7130   27.9700   45.3330 C   0  0  0  0  0  0  0  0  0  0  0  0
   58.5090   28.6920   45.4080 C   0  0  0  0  0  0  0  0  0  0  0  0
   58.4650   30.1030   45.1460 N   0  0  0  0  0  0  0  0  0  0  0  0
   57.2880   30.7980   44.7060 C   0  0  0  0  0  0  0  0  0  0  0  0
   56.1490   30.2770   44.8480 O   0  0  0  0  0  0  0  0  0  0  0  0
   57.4050   32.1630   44.0900 C   0  0  0  0  0  0  0  0  0  0  0  0
   57.8300   33.2260   45.1280 C   0  0  0  0  0  0  0  0  0  0  0  0
   58.9060   34.1800   44.5580 C   0  0  0  0  0  0  0  0  0  0  0  0
   59.7890   34.7380   45.6780 C   0  0  0  0  0  0  0  0  0  0  0  0
   60.5870   33.6640   46.3280 N   0  0  0  0  0  0  0  0  0  0  0  0
   61.2260   34.0790   47.6140 C   0  0  0  0  0  0  0  0  0  0  0  0
   60.5880   33.3130   48.7990 C   0  0  0  0  0  0  0  0  0  0  0  0
   61.0600   33.8670   50.1590 C   0  0  0  0  0  0  0  0  0  0  0  0
   62.4540   34.5140   50.1040 C   0  0  0  0  0  0  0  0  0  0  0  0
   63.3570   33.8130   49.0860 C   0  0  0  0  0  0  0  0  0  0  0  0
   62.7630   33.8270   47.6590 C   0  0  0  0  0  0  0  0  0  0  0  0
   59.8320   32.3800   46.4700 C   0  0  0  0  0  0  0  0  0  0  0  0
   58.3050   32.5600   46.4410 C   0  0  0  0  0  0  0  0  0  0  0  0
   57.3380   28.0340   45.8190 C   0  0  0  0  0  0  0  0  0  0  0  0
   53.4488   24.7823   46.5350 H   0  0  0  0  0  0  0  0  0  0  0  0
   53.0542   25.6659   45.0216 H   0  0  0  0  0  0  0  0  0  0  0  0
   54.3445   24.4162   45.0216 H   0  0  0  0  0  0  0  0  0  0  0  0
   58.5862   24.8820   46.2762 H   0  0  0  0  0  0  0  0  0  0  0  0
   60.6783   26.0472   45.5817 H   0  0  0  0  0  0  0  0  0  0  0  0
   60.6401   28.4784   45.0297 H   0  0  0  0  0  0  0  0  0  0  0  0
   59.3210   30.6700   45.3400 H   0  0  0  0  0  0  0  0  0  0  0  0
   58.1566   32.1284   43.2875 H   0  0  0  0  0  0  0  0  0  0  0  0
   56.4181   32.4459   43.6951 H   0  0  0  0  0  0  0  0  0  0  0  0
   56.9449   33.8362   45.3609 H   0  0  0  0  0  0  0  0  0  0  0  0
   59.5352   33.6281   43.8442 H   0  0  0  0  0  0  0  0  0  0  0  0
   58.4020   35.0192   44.0562 H   0  0  0  0  0  0  0  0  0  0  0  0
   60.4748   35.4861   45.2536 H   0  0  0  0  0  0  0  0  0  0  0  0
   59.1368   35.1923   46.4384 H   0  0  0  0  0  0  0  0  0  0  0  0
   61.0555   35.1630   47.6909 H   0  0  0  0  0  0  0  0  0  0  0  0
   59.4938   33.4073   48.7363 H   0  0  0  0  0  0  0  0  0  0  0  0
   60.8982   32.2597   48.7323 H   0  0  0  0  0  0  0  0  0  0  0  0
   60.3372   34.6242   50.4969 H   0  0  0  0  0  0  0  0  0  0  0  0
   61.1243   33.0152   50.8521 H   0  0  0  0  0  0  0  0  0  0  0  0
   62.3467   35.5709   49.8187 H   0  0  0  0  0  0  0  0  0  0  0  0
   62.9170   34.4221   51.0976 H   0  0  0  0  0  0  0  0  0  0  0  0
   64.3309   34.3240   49.0677 H   0  0  0  0  0  0  0  0  0  0  0  0
   63.4572   32.7623   49.3959 H   0  0  0  0  0  0  0  0  0  0  0  0
   63.2608   34.6225   47.0851 H   0  0  0  0  0  0  0  0  0  0  0  0
   62.9338   32.8270   47.2337 H   0  0  0  0  0  0  0  0  0  0  0  0
   60.1198   31.7136   45.6435 H   0  0  0  0  0  0  0  0  0  0  0  0
   60.0897   31.9601   47.4535 H   0  0  0  0  0  0  0  0  0  0  0  0
   57.8283   31.5729   46.5323 H   0  0  0  0  0  0  0  0  0  0  0  0
   58.0219   33.2147   47.2784 H   0  0  0  0  0  0  0  0  0  0  0  0
   56.4007   28.6016   45.9151 H   0  0  0  0  0  0  0  0  0  0  0  0
  1  2  1  0
  2  3  1  0
  3  4  2  0
  3  5  1  0
  5  6  2  0
  6  7  1  0
  7  8  2  0
  8  9  1  0
  9 10  1  0
 10 11  1  0
 11 12  2  0
 11 13  1  0
 13 14  1  0
 14 15  1  0
 15 16  1  0
 16 17  1  0
 17 18  1  0
 18 19  1  0
 19 20  1  0
 20 21  1  0
 21 22  1  0
 22 23  1  0
 17 24  1  0
 24 25  1  0
  9 26  2  0
 26  5  1  0
 25 14  1  0
 23 18  1  0
  1 27  1  0
  1 28  1  0
  1 29  1  0
  6 30  1  0
  7 31  1  0
  8 32  1  0
 10 33  1  0
 13 34  1  0
 13 35  1  0
 14 36  1  0
 15 37  1  0
 15 38  1  0
 16 39  1  0
 16 40  1  0
 18 41  1  0
 19 42  1  0
 19 43  1  0
 20 44  1  0
 20 45  1  0
 21 46  1  0
 21 47  1  0
 22 48  1  0
 22 49  1  0
 23 50  1  0
 23 51  1  0
 24 52  1  0
 24 53  1  0
 25 54  1  0
 25 55  1  0
 26 56  1  0
M  CHG  1   2  -1
M  END
>  <UniqueID>  (18) 
17

>  <SMILES>  (18) 
C[N-]C(=O)c1cccc(NC(=O)CC2CCN(C3CCCCC3)CC2)c1

>  <Energy>  (18) 
77.19641392360816

>  <Genealogy>  (18) 
C[N-]C(=O)c1cccc(NC(=O)CC2CCN(C3CCCCC3)CC2)c1 (protonated)
C[N-]C(=O)c1cccc(NC(=O)CC2CCN(C3CCCCC3)CC2)c1 (3D coordinates assigned)
C[N-]C(=O)c1cccc(NC(=O)CC2CCN(C3CCCCC3)CC2)c1 (nonaromatic ring conformer: 77.19641392360816 kcal/mol)

>  <smiles>  (18) 
CNC(=O)c1cccc(NC(=O)CC2CCN(C3CCCCC3)CC2)c1

>  <score_type>  (18) 
oracle

>  <origin>  (18) 
adg

>  <m_score__min__energy>  (18) 
-11.98

>  <m_primary>  (18) 
energy

$$$$
18:0
     RDKit          3D

 23 24  0  0  0  0  0  0  0  0999 V2000
   56.1280   31.3900   52.3460 C   0  0  0  0  0  0  0  0  0  0  0  0
   55.4260   30.3260   52.7760 C   0  0  0  0  0  0  0  0  0  0  0  0
   56.1280   29.2710   53.2970 N   0  0  0  0  0  0  0  0  0  0  0  0
   55.5580   28.0580   53.5310 C   0  0  0  0  0  0  0  0  0  0  0  0
   56.2590   27.1190   53.9960 O   0  0  0  0  0  0  0  0  0  0  0  0
   54.2070   27.8520   53.2360 C   0  0  0  0  0  0  0  0  0  0  0  0
   53.5880   26.5670   53.4430 C   0  0  0  0  0  0  0  0  0  0  0  0
   53.0900   25.5350   53.6080 N   0  0  0  0  0  0  0  0  0  0  0  0
   53.4460   28.9190   52.7610 C   0  0  0  0  0  0  0  0  0  0  0  0
   54.0100   30.1990   52.5970 C   0  0  0  0  0  0  0  0  0  0  0  0
   53.1550   31.2130   52.3030 C   0  0  0  0  0  0  0  0  0  0  0  0
   52.3080   31.3210   51.0990 C   0  0  0  0  0  0  0  0  0  0  0  0
   52.2710   30.3860   50.1340 N   0  0  0  0  0  0  0  0  0  0  0  0
   51.3070   30.8330   49.3020 C   0  0  0  0  0  0  0  0  0  0  0  0
   50.9830   30.2220   48.2500 O   0  0  0  0  0  0  0  0  0  0  0  0
   50.7080   31.9790   49.6890 N   0  0  0  0  0  0  0  0  0  0  0  0
   51.3440   32.2690   50.8360 C   0  0  0  0  0  0  0  0  0  0  0  0
   51.0240   33.3570   51.6390 O   0  0  0  0  0  0  0  0  0  0  0  0
   55.6045   32.2589   51.9206 H   0  0  0  0  0  0  0  0  0  0  0  0
   57.2255   31.3911   52.4198 H   0  0  0  0  0  0  0  0  0  0  0  0
   57.1550   29.3640   53.4780 H   0  0  0  0  0  0  0  0  0  0  0  0
   52.3871   28.7585   52.5100 H   0  0  0  0  0  0  0  0  0  0  0  0
   53.0874   32.0331   53.0330 H   0  0  0  0  0  0  0  0  0  0  0  0
  1  2  2  0
  2  3  1  0
  3  4  1  0
  4  5  2  0
  4  6  1  0
  6  7  1  0
  7  8  3  0
  6  9  2  0
  9 10  1  0
 10 11  2  3
 11 12  1  0
 12 13  1  0
 13 14  1  0
 14 15  2  0
 14 16  1  0
 16 17  1  0
 17 18  1  0
 10  2  1  0
 17 12  2  0
  1 19  1  0
  1 20  1  0
  3 21  1  0
  9 22  1  0
 11 23  1  0
M  CHG  3  13  -1  16  -1  18  -1
M  END
>  <UniqueID>  (19) 
18

>  <SMILES>  (19) 
C=c1[nH]c(=O)c(C#N)cc1=Cc1[n-]c(=O)[n-]c1[O-]

>  <Energy>  (19) 
75.07382309412085

>  <Genealogy>  (19) 
C=c1[nH]c(=O)c(C#N)cc1=Cc1[n-]c(=O)[n-]c1[O-] (protonated)
C=c1[nH]c(=O)c(C#N)cc1=Cc1[n-]c(=O)[n-]c1[O-] (3D coordinates assigned)
C=c1[nH]c(=O)c(C#N)cc1=Cc1[n-]c(=O)[n-]c1[O-] (optimized conformer: 75.07382309412085 kcal/mol)

>  <smiles>  (19) 
C=c1[nH]c(=O)c(C#N)cc1=Cc1[nH]c(=O)[nH]c1O

>  <score_type>  (19) 
oracle

>  <origin>  (19) 
adg

>  <m_score__min__energy>  (19) 
-15.44

>  <m_primary>  (19) 
energy

$$$$
19:0
     RDKit          3D

 56 59  0  0  0  0  0  0  0  0999 V2000
   60.5920   30.5280   48.1190 C   0  0  0  0  0  0  0  0  0  0  0  0
   59.5290   31.2970   47.3790 C   0  0  0  0  0  0  0  0  0  0  0  0
   59.3210   32.6830   47.5170 C   0  0  0  0  0  0  0  0  0  0  0  0
   59.9470   33.5780   48.5040 C   0  0  0  0  0  0  0  0  0  0  0  0
   60.0290   34.8120   48.2570 O   0  0  0  0  0  0  0  0  0  0  0  0
   60.4020   33.0630   49.7620 N   0  0  0  0  0  0  0  0  0  0  0  0
   61.2490   33.8500   50.6570 C   0  0  0  0  0  0  0  0  0  0  0  0
   62.7010   33.5080   50.4330 C   0  0  0  0  0  0  0  0  0  0  0  0
   63.1130   32.9560   49.2090 C   0  0  0  0  0  0  0  0  0  0  0  0
   64.4670   32.7020   48.9700 C   0  0  0  0  0  0  0  0  0  0  0  0
   65.4210   33.0060   49.9460 C   0  0  0  0  0  0  0  0  0  0  0  0
   65.0210   33.5700   51.1620 C   0  0  0  0  0  0  0  0  0  0  0  0
   63.6670   33.8270   51.4060 C   0  0  0  0  0  0  0  0  0  0  0  0
   63.3000   34.3970   52.5820 F   0  0  0  0  0  0  0  0  0  0  0  0
   58.1380   33.1940   46.4210 S   0  0  0  0  0  0  0  0  0  0  0  0
   57.8490   31.6600   45.8150 C   0  0  0  0  0  0  0  0  0  0  0  0
   56.9290   31.3280   44.8860 N   0  0  0  0  0  0  0  0  0  0  0  0
   56.7660   30.0220   44.5340 C   0  0  0  0  0  0  0  0  0  0  0  0
   55.7230   29.7120   43.4950 C   0  0  0  0  0  0  0  0  0  0  0  0
   57.5370   29.0350   45.1330 N   0  0  0  0  0  0  0  0  0  0  0  0
   57.2990   27.6000   44.8600 C   0  0  0  0  0  0  0  0  0  0  0  0
   56.5890   26.9810   46.0250 C   0  0  0  0  0  0  0  0  0  0  0  0
   57.2380   26.6620   47.0560 O   0  0  0  0  0  0  0  0  0  0  0  0
   55.1900   26.6910   45.9290 N   0  0  0  0  0  0  0  0  0  0  0  0
   54.6710   25.3660   45.6220 C   0  0  0  0  0  0  0  0  0  0  0  0
   55.8040   24.4670   45.2080 C   0  0  0  0  0  0  0  0  0  0  0  0
   56.6250   23.8800   46.1840 C   0  0  0  0  0  0  0  0  0  0  0  0
   57.6410   22.9950   45.8090 C   0  0  0  0  0  0  0  0  0  0  0  0
   57.8300   22.6710   44.4630 C   0  0  0  0  0  0  0  0  0  0  0  0
   57.0110   23.2450   43.4870 C   0  0  0  0  0  0  0  0  0  0  0  0
   56.0010   24.1390   43.8550 C   0  0  0  0  0  0  0  0  0  0  0  0
   58.4800   29.3790   46.0810 C   0  0  0  0  0  0  0  0  0  0  0  0
   59.1650   28.4860   46.6560 O   0  0  0  0  0  0  0  0  0  0  0  0
   58.6510   30.7260   46.4290 C   0  0  0  0  0  0  0  0  0  0  0  0
   60.4380   30.6394   49.2024 H   0  0  0  0  0  0  0  0  0  0  0  0
   60.5307   29.4638   47.8475 H   0  0  0  0  0  0  0  0  0  0  0  0
   61.5836   30.9192   47.8475 H   0  0  0  0  0  0  0  0  0  0  0  0
   60.1120   32.0980   50.0430 H   0  0  0  0  0  0  0  0  0  0  0  0
   61.0927   34.9204   50.4576 H   0  0  0  0  0  0  0  0  0  0  0  0
   60.9822   33.6198   51.6990 H   0  0  0  0  0  0  0  0  0  0  0  0
   62.3671   32.7225   48.4350 H   0  0  0  0  0  0  0  0  0  0  0  0
   64.7823   32.2622   48.0123 H   0  0  0  0  0  0  0  0  0  0  0  0
   66.4853   32.8018   49.7577 H   0  0  0  0  0  0  0  0  0  0  0  0
   65.7723   33.8121   51.9282 H   0  0  0  0  0  0  0  0  0  0  0  0
   54.7823   29.4324   43.9918 H   0  0  0  0  0  0  0  0  0  0  0  0
   55.5562   30.5994   42.8667 H   0  0  0  0  0  0  0  0  0  0  0  0
   56.0680   28.8776   42.8667 H   0  0  0  0  0  0  0  0  0  0  0  0
   56.6803   27.4964   43.9564 H   0  0  0  0  0  0  0  0  0  0  0  0
   58.2621   27.0916   44.7053 H   0  0  0  0  0  0  0  0  0  0  0  0
   54.1792   24.9493   46.5133 H   0  0  0  0  0  0  0  0  0  0  0  0
   53.9422   25.4389   44.8013 H   0  0  0  0  0  0  0  0  0  0  0  0
   56.4687   24.1168   47.2468 H   0  0  0  0  0  0  0  0  0  0  0  0
   58.2934   22.5526   46.5762 H   0  0  0  0  0  0  0  0  0  0  0  0
   58.6221   21.9653   44.1721 H   0  0  0  0  0  0  0  0  0  0  0  0
   57.1613   22.9929   42.4269 H   0  0  0  0  0  0  0  0  0  0  0  0
   55.3581   24.5874   43.0832 H   0  0  0  0  0  0  0  0  0  0  0  0
  1  2  1  0
  2  3  2  0
  3  4  1  0
  4  5  2  0
  4  6  1  0
  6  7  1  0
  7  8  1  0
  8  9  2  0
  9 10  1  0
 10 11  2  0
 11 12  1  0
 12 13  2  0
 13 14  1  0
  3 15  1  0
 15 16  1  0
 16 17  1  0
 17 18  2  0
 18 19  1  0
 18 20  1  0
 20 21  1  0
 21 22  1  0
 22 23  2  0
 22 24  1  0
 24 25  1  0
 25 26  1  0
 26 27  2  0
 27 28  1  0
 28 29  2  0
 29 30  1  0
 30 31  2  0
 20 32  1  0
 32 33  2  0
 32 34  1  0
 34  2  1  0
 13  8  1  0
 34 16  2  0
 31 26  1  0
  1 35  1  0
  1 36  1  0
  1 37  1  0
  6 38  1  0
  7 39  1  0
  7 40  1  0
  9 41  1  0
 10 42  1  0
 11 43  1  0
 12 44  1  0
 19 45  1  0
 19 46  1  0
 19 47  1  0
 21 48  1  0
 21 49  1  0
 25 50  1  0
 25 51  1  0
 27 52  1  0
 28 53  1  0
 29 54  1  0
 30 55  1  0
 31 56  1  0
M  CHG  1  24  -1
M  END
>  <UniqueID>  (20) 
19

>  <SMILES>  (20) 
Cc1c(C(=O)NCc2ccccc2F)sc2nc(C)n(CC(=O)[N-]Cc3ccccc3)c(=O)c12

>  <Energy>  (20) 
94.00650140375569

>  <Genealogy>  (20) 
Cc1c(C(=O)NCc2ccccc2F)sc2nc(C)n(CC(=O)[N-]Cc3ccccc3)c(=O)c12 (protonated)
Cc1c(C(=O)NCc2ccccc2F)sc2nc(C)n(CC(=O)[N-]Cc3ccccc3)c(=O)c12 (3D coordinates assigned)
Cc1c(C(=O)NCc2ccccc2F)sc2nc(C)n(CC(=O)[N-]Cc3ccccc3)c(=O)c12 (optimized conformer: 94.00650140375569 kcal/mol)

>  <smiles>  (20) 
Cc1c(C(=O)NCc2ccccc2F)sc2nc(C)n(CC(=O)NCc3ccccc3)c(=O)c12

>  <score_type>  (20) 
oracle

>  <origin>  (20) 
adg

>  <m_score__min__energy>  (20) 
-11.1

>  <m_primary>  (20) 
energy

$$$$
20:0
     RDKit          3D

 47 50  0  0  0  0  0  0  0  0999 V2000
   53.2480   30.4580   49.2890 H   0  0  0  0  0  0  0  0  0  0  0  0
   52.3520   30.3360   49.7490 O   0  0  0  0  0  0  0  0  0  0  0  0
   51.9860   31.1500   50.8160 C   0  0  0  0  0  0  0  0  0  0  0  0
   51.0050   32.0660   50.7530 N   0  0  0  0  0  0  0  0  0  0  0  0
   50.9670   32.5460   52.0150 C   0  0  0  0  0  0  0  0  0  0  0  0
   50.1580   33.4390   52.3760 O   0  0  0  0  0  0  0  0  0  0  0  0
   51.8600   31.9870   52.8610 N   0  0  0  0  0  0  0  0  0  0  0  0
   52.5230   31.1140   52.0840 C   0  0  0  0  0  0  0  0  0  0  0  0
   53.5590   30.2000   52.5980 C   0  0  0  0  0  0  0  0  0  0  0  0
   53.2306   29.2921   53.1251 H   0  0  0  0  0  0  0  0  0  0  0  0
   54.8840   30.4080   52.4620 C   0  0  0  0  0  0  0  0  0  0  0  0
   55.4910   31.5800   52.0370 C   0  0  0  0  0  0  0  0  0  0  0  0
   54.9852   32.5050   51.7232 H   0  0  0  0  0  0  0  0  0  0  0  0
   56.8520   31.3610   52.0840 C   0  0  0  0  0  0  0  0  0  0  0  0
   57.8870   32.3790   51.7090 C   0  0  0  0  0  0  0  0  0  0  0  0
   58.3250   32.8098   52.6214 H   0  0  0  0  0  0  0  0  0  0  0  0
   58.6774   31.8967   51.1152 H   0  0  0  0  0  0  0  0  0  0  0  0
   57.4178   33.1773   51.1152 H   0  0  0  0  0  0  0  0  0  0  0  0
   57.1190   30.1140   52.5400 N   0  0  0  0  0  0  0  0  0  0  0  0
   58.4580   29.5220   52.6730 C   0  0  0  0  0  0  0  0  0  0  0  0
   59.0845   30.1759   53.2974 H   0  0  0  0  0  0  0  0  0  0  0  0
   58.3684   28.5308   53.1414 H   0  0  0  0  0  0  0  0  0  0  0  0
   59.0910   29.3710   51.3230 C   0  0  0  0  0  0  0  0  0  0  0  0
   58.4420   29.7390   50.1850 N   0  0  0  0  0  0  0  0  0  0  0  0
   59.1940   29.5550   49.0780 C   0  0  0  0  0  0  0  0  0  0  0  0
   58.7280   29.8820   47.7120 C   0  0  0  0  0  0  0  0  0  0  0  0
   58.3700   28.8540   46.8230 C   0  0  0  0  0  0  0  0  0  0  0  0
   58.4397   27.8049   47.1463 H   0  0  0  0  0  0  0  0  0  0  0  0
   57.9260   29.1530   45.5310 C   0  0  0  0  0  0  0  0  0  0  0  0
   57.6482   28.3388   44.8455 H   0  0  0  0  0  0  0  0  0  0  0  0
   57.8330   30.4900   45.1040 C   0  0  0  0  0  0  0  0  0  0  0  0
   57.3930   30.8400   43.8190 O   0  0  0  0  0  0  0  0  0  0  0  0
   56.6400   29.9850   42.9660 C   0  0  0  0  0  0  0  0  0  0  0  0
   56.0352   29.2983   43.5764 H   0  0  0  0  0  0  0  0  0  0  0  0
   55.9774   30.5916   42.3311 H   0  0  0  0  0  0  0  0  0  0  0  0
   57.3254   29.4043   42.3311 H   0  0  0  0  0  0  0  0  0  0  0  0
   58.1890   31.5140   45.9880 C   0  0  0  0  0  0  0  0  0  0  0  0
   58.1204   32.5627   45.6631 H   0  0  0  0  0  0  0  0  0  0  0  0
   58.6310   31.2170   47.2800 C   0  0  0  0  0  0  0  0  0  0  0  0
   58.9051   32.0334   47.9643 H   0  0  0  0  0  0  0  0  0  0  0  0
   60.7050   28.9270   49.4860 S   0  0  0  0  0  0  0  0  0  0  0  0
   60.3830   28.8890   51.1340 C   0  0  0  0  0  0  0  0  0  0  0  0
   61.0694   28.5452   51.9218 H   0  0  0  0  0  0  0  0  0  0  0  0
   55.9190   29.5170   52.7650 C   0  0  0  0  0  0  0  0  0  0  0  0
   55.7720   28.2510   53.1920 C   0  0  0  0  0  0  0  0  0  0  0  0
   56.6588   27.6349   53.4019 H   0  0  0  0  0  0  0  0  0  0  0  0
   54.7649   27.8311   53.3316 H   0  0  0  0  0  0  0  0  0  0  0  0
  1  2  1  0
  2  3  1  0
  3  4  1  0
  4  5  1  0
  5  6  2  0
  5  7  1  0
  7  8  1  0
  8  9  1  0
  9 10  1  0
  9 11  2  0
 11 12  1  0
 12 13  1  0
 12 14  2  0
 14 15  1  0
 15 16  1  0
 15 17  1  0
 15 18  1  0
 14 19  1  0
 19 20  1  0
 20 21  1  0
 20 22  1  0
 20 23  1  0
 23 24  1  0
 24 25  2  0
 25 26  1  0
 26 27  2  0
 27 28  1  0
 27 29  1  0
 29 30  1  0
 29 31  2  0
 31 32  1  0
 32 33  1  0
 33 34  1  0
 33 35  1  0
 33 36  1  0
 31 37  1  0
 37 38  1  0
 37 39  2  0
 39 40  1  0
 25 41  1  0
 41 42  1  0
 42 43  1  0
 19 44  1  0
 44 45  2  0
 45 46  1  0
 45 47  1  0
  8  3  2  0
 44 11  1  0
 42 23  2  0
 39 26  1  0
M  CHG  2   4  -1   7  -1
M  END
>  <UniqueID>  (21) 
20

>  <SMILES>  (21) 
C=c1/c(=C/c2[n-]c(=O)[n-]c2O)cc(C)n1Cc1csc(-c2ccc(OC)cc2)n1

>  <Energy>  (21) 
142.65126612230696

>  <Genealogy>  (21) 
C=c1c(=Cc2[n-]c(=O)[n-]c2O)cc(C)n1Cc1csc(-c2ccc(OC)cc2)n1 (protonated)
C=c1/c(=C/c2[n-]c(=O)[n-]c2O)cc(C)n1Cc1csc(-c2ccc(OC)cc2)n1 (cis-trans isomerization)
C=c1/c(=C/c2[n-]c(=O)[n-]c2O)cc(C)n1Cc1csc(-c2ccc(OC)cc2)n1 (3D coordinates assigned)
C=c1/c(=C/c2[n-]c(=O)[n-]c2O)cc(C)n1Cc1csc(-c2ccc(OC)cc2)n1 (optimized conformer: 142.65126612230696 kcal/mol)

>  <smiles>  (21) 
C=c1c(=Cc2[nH]c(=O)[nH]c2O)cc(C)n1Cc1csc(-c2ccc(OC)cc2)n1

>  <score_type>  (21) 
oracle

>  <origin>  (21) 
adg

>  <m_score__min__energy>  (21) 
-13

>  <m_primary>  (21) 
energy

$$$$
21:0
     RDKit          3D

 54 58  0  0  0  0  0  0  0  0999 V2000
   52.8246   32.0031   53.1648 H   0  0  0  0  0  0  0  0  0  0  0  0
   52.9680   31.2000   52.4270 C   0  0  0  0  0  0  0  0  0  0  0  0
   52.1600   31.2620   51.1920 C   0  0  0  0  0  0  0  0  0  0  0  0
   52.1510   30.3440   50.2080 N   0  0  0  0  0  0  0  0  0  0  0  0
   51.2670   30.8430   49.3180 C   0  0  0  0  0  0  0  0  0  0  0  0
   50.9820   30.2550   48.2420 O   0  0  0  0  0  0  0  0  0  0  0  0
   50.7130   32.0220   49.6700 N   0  0  0  0  0  0  0  0  0  0  0  0
   51.2890   32.2710   50.8570 C   0  0  0  0  0  0  0  0  0  0  0  0
   51.0220   33.4010   51.6210 O   0  0  0  0  0  0  0  0  0  0  0  0
   53.8630   30.2440   52.7230 C   0  0  0  0  0  0  0  0  0  0  0  0
   53.6880   28.9950   53.3270 C   0  0  0  0  0  0  0  0  0  0  0  0
   52.7245   28.5843   53.6631 H   0  0  0  0  0  0  0  0  0  0  0  0
   54.8830   28.3670   53.4360 N   0  0  0  0  0  0  0  0  0  0  0  0
   55.8000   29.1750   52.9250 N   0  0  0  0  0  0  0  0  0  0  0  0
   57.1450   28.9870   52.8100 C   0  0  0  0  0  0  0  0  0  0  0  0
   57.7530   27.9050   53.2080 N   0  0  0  0  0  0  0  0  0  0  0  0
   58.2440   27.6300   54.5540 C   0  0  0  0  0  0  0  0  0  0  0  0
   58.8237   26.7247   54.3207 H   0  0  0  0  0  0  0  0  0  0  0  0
   57.2530   28.0420   55.6260 C   0  0  0  0  0  0  0  0  0  0  0  0
   56.2656   28.4342   55.3409 H   0  0  0  0  0  0  0  0  0  0  0  0
   56.8045   27.5496   56.5014 H   0  0  0  0  0  0  0  0  0  0  0  0
   58.5020   28.8760   55.3830 C   0  0  0  0  0  0  0  0  0  0  0  0
   58.4182   29.8711   54.9217 H   0  0  0  0  0  0  0  0  0  0  0  0
   59.3314   29.2367   56.0091 H   0  0  0  0  0  0  0  0  0  0  0  0
   57.8780   29.9860   52.2440 N   0  0  0  0  0  0  0  0  0  0  0  0
   57.2860   31.1400   51.8050 C   0  0  0  0  0  0  0  0  0  0  0  0
   58.1230   32.1880   51.1800 C   0  0  0  0  0  0  0  0  0  0  0  0
   58.3240   33.2530   51.8210 O   0  0  0  0  0  0  0  0  0  0  0  0
   58.7310   32.0580   49.8840 N   0  0  0  0  0  0  0  0  0  0  0  0
   59.7890   31.1380   49.4710 C   0  0  0  0  0  0  0  0  0  0  0  0
   60.7037   31.7139   49.2668 H   0  0  0  0  0  0  0  0  0  0  0  0
   59.9540   30.4153   50.2837 H   0  0  0  0  0  0  0  0  0  0  0  0
   59.3970   30.3590   48.2060 C   0  0  0  0  0  0  0  0  0  0  0  0
   60.3145   30.0664   47.6744 H   0  0  0  0  0  0  0  0  0  0  0  0
   58.8135   29.4821   48.5232 H   0  0  0  0  0  0  0  0  0  0  0  0
   58.5190   31.1800   47.2540 C   0  0  0  0  0  0  0  0  0  0  0  0
   57.5038   30.7568   47.2388 H   0  0  0  0  0  0  0  0  0  0  0  0
   58.4839   32.2222   47.6041 H   0  0  0  0  0  0  0  0  0  0  0  0
   59.0860   31.1460   45.8830 N   0  0  0  0  0  0  0  0  0  0  0  0
   59.0230   29.8040   45.2730 C   0  0  0  0  0  0  0  0  0  0  0  0
   59.7211   29.7670   44.4237 H   0  0  0  0  0  0  0  0  0  0  0  0
   59.2942   29.0676   46.0439 H   0  0  0  0  0  0  0  0  0  0  0  0
   57.6010   29.4630   44.7660 C   0  0  0  0  0  0  0  0  0  0  0  0
   57.6394   29.3089   43.6775 H   0  0  0  0  0  0  0  0  0  0  0  0
   57.2641   28.5534   45.2847 H   0  0  0  0  0  0  0  0  0  0  0  0
   56.6760   30.4960   45.0490 O   0  0  0  0  0  0  0  0  0  0  0  0
   57.1070   31.6990   44.4450 C   0  0  0  0  0  0  0  0  0  0  0  0
   57.1860   31.5437   43.3589 H   0  0  0  0  0  0  0  0  0  0  0  0
   56.3713   32.4823   44.6799 H   0  0  0  0  0  0  0  0  0  0  0  0
   58.4820   32.1530   44.9870 C   0  0  0  0  0  0  0  0  0  0  0  0
   59.1595   32.3236   44.1373 H   0  0  0  0  0  0  0  0  0  0  0  0
   58.3297   33.0750   45.5674 H   0  0  0  0  0  0  0  0  0  0  0  0
   55.9370   31.2930   51.9240 N   0  0  0  0  0  0  0  0  0  0  0  0
   55.2200   30.2970   52.4930 C   0  0  0  0  0  0  0  0  0  0  0  0
  1  2  1  0
  2  3  1  0
  3  4  1  0
  4  5  1  0
  5  6  2  0
  5  7  1  0
  7  8  1  0
  8  9  1  0
  2 10  2  0
 10 11  1  0
 11 12  1  0
 11 13  2  0
 13 14  1  0
 14 15  1  0
 15 16  2  0
 16 17  1  0
 17 18  1  0
 17 19  1  0
 19 20  1  0
 19 21  1  0
 19 22  1  0
 22 23  1  0
 22 24  1  0
 15 25  1  0
 25 26  2  0
 26 27  1  0
 27 28  2  0
 27 29  1  0
 29 30  1  0
 30 31  1  0
 30 32  1  0
 30 33  1  0
 33 34  1  0
 33 35  1  0
 33 36  1  0
 36 37  1  0
 36 38  1  0
 36 39  1  0
 39 40  1  0
 40 41  1  0
 40 42  1  0
 40 43  1  0
 43 44  1  0
 43 45  1  0
 43 46  1  0
 46 47  1  0
 47 48  1  0
 47 49  1  0
 47 50  1  0
 50 51  1  0
 50 52  1  0
 26 53  1  0
 53 54  2  0
  8  3  2  0
 54 10  1  0
 54 14  1  0
 22 17  1  0
 50 39  1  0
M  CHG  4   4  -1   7  -1   9  -1  29  -1
M  END
>  <UniqueID>  (22) 
21

>  <SMILES>  (22) 
O=C([N-]CCCN1CCOCC1)c1n/c(=N/C2CC2)n2nc/c(=C\c3[n-]c(=O)[n-]c3[O-])c2n1

>  <Energy>  (22) 
405.7779520004488

>  <Genealogy>  (22) 
O=C([N-]CCCN1CCOCC1)c1nc(=NC2CC2)n2ncc(=Cc3[n-]c(=O)[n-]c3[O-])c2n1 (protonated)
O=C([N-]CCCN1CCOCC1)c1n/c(=N/C2CC2)n2nc/c(=C\c3[n-]c(=O)[n-]c3[O-])c2n1 (cis-trans isomerization)
O=C([N-]CCCN1CCOCC1)c1n/c(=N/C2CC2)n2nc/c(=C\c3[n-]c(=O)[n-]c3[O-])c2n1 (3D coordinates assigned)
O=C([N-]CCCN1CCOCC1)c1n/c(=N/C2CC2)n2nc/c(=C\c3[n-]c(=O)[n-]c3[O-])c2n1 (nonaromatic ring conformer: 405.7779520004488 kcal/mol)

>  <smiles>  (22) 
O=C(NCCCN1CCOCC1)c1nc(=NC2CC2)n2ncc(=Cc3[nH]c(=O)[nH]c3O)c2n1

>  <score_type>  (22) 
oracle

>  <origin>  (22) 
adg

>  <m_score__min__energy>  (22) 
-18

>  <m_primary>  (22) 
energy

$$$$
22:0
     RDKit          3D

 50 52  0  0  0  0  0  0  0  0999 V2000
   55.8788   25.6289   44.7067 H   0  0  0  0  0  0  0  0  0  0  0  0
   56.2340   25.2440   45.6740 C   0  0  0  0  0  0  0  0  0  0  0  0
   55.7824   24.3382   46.1048 H   0  0  0  0  0  0  0  0  0  0  0  0
   57.2130   25.8760   46.3250 C   0  0  0  0  0  0  0  0  0  0  0  0
   57.6650   25.4500   47.4800 O   0  0  0  0  0  0  0  0  0  0  0  0
   58.6410   26.2310   47.8730 C   0  0  0  0  0  0  0  0  0  0  0  0
   59.2126   26.1045   48.8043 H   0  0  0  0  0  0  0  0  0  0  0  0
   58.8490   27.2400   46.9450 C   0  0  0  0  0  0  0  0  0  0  0  0
   59.9070   28.3020   47.1080 C   0  0  0  0  0  0  0  0  0  0  0  0
   60.6595   27.9329   47.8204 H   0  0  0  0  0  0  0  0  0  0  0  0
   60.3237   28.4896   46.1074 H   0  0  0  0  0  0  0  0  0  0  0  0
   59.3800   29.6320   47.6180 C   0  0  0  0  0  0  0  0  0  0  0  0
   58.5320   29.5800   48.4970 O   0  0  0  0  0  0  0  0  0  0  0  0
   59.7220   30.9470   47.0680 N   0  0  0  0  0  0  0  0  0  0  0  0
   59.3530   30.9240   46.0860 H   0  0  0  0  0  0  0  0  0  0  0  0
   58.9630   32.0160   47.7490 C   0  0  0  0  0  0  0  0  0  0  0  0
   59.0916   32.9567   47.1935 H   0  0  0  0  0  0  0  0  0  0  0  0
   57.9028   31.7245   47.7793 H   0  0  0  0  0  0  0  0  0  0  0  0
   59.4510   32.2140   49.1840 C   0  0  0  0  0  0  0  0  0  0  0  0
   59.0081   33.1356   49.5896 H   0  0  0  0  0  0  0  0  0  0  0  0
   59.1445   31.3415   49.7796 H   0  0  0  0  0  0  0  0  0  0  0  0
   60.9110   32.3220   49.2370 N   0  0  0  0  0  0  0  0  0  0  0  0
   61.5280   32.7660   50.4600 C   0  0  0  0  0  0  0  0  0  0  0  0
   60.8520   32.8140   51.5250 O   0  0  0  0  0  0  0  0  0  0  0  0
   62.8700   33.1690   50.4610 O   0  0  0  0  0  0  0  0  0  0  0  0
   63.9690   32.2650   50.5450 C   0  0  0  0  0  0  0  0  0  0  0  0
   64.2620   32.1520   51.5992 H   0  0  0  0  0  0  0  0  0  0  0  0
   63.6591   31.2967   50.1251 H   0  0  0  0  0  0  0  0  0  0  0  0
   65.1600   32.7790   49.7500 C   0  0  0  0  0  0  0  0  0  0  0  0
   65.9446   33.1176   50.4426 H   0  0  0  0  0  0  0  0  0  0  0  0
   65.5541   31.9709   49.1163 H   0  0  0  0  0  0  0  0  0  0  0  0
   64.8424   33.6201   49.1163 H   0  0  0  0  0  0  0  0  0  0  0  0
   61.7030   32.2940   47.9990 C   0  0  0  0  0  0  0  0  0  0  0  0
   61.6887   33.2991   47.5524 H   0  0  0  0  0  0  0  0  0  0  0  0
   62.7205   31.9757   48.2699 H   0  0  0  0  0  0  0  0  0  0  0  0
   61.1690   31.2840   46.9540 C   0  0  0  0  0  0  0  0  0  0  0  0
   61.3401   31.7089   45.9539 H   0  0  0  0  0  0  0  0  0  0  0  0
   61.7127   30.3453   47.1363 H   0  0  0  0  0  0  0  0  0  0  0  0
   57.9250   27.0090   45.9140 C   0  0  0  0  0  0  0  0  0  0  0  0
   57.7220   27.6830   44.7590 C   0  0  0  0  0  0  0  0  0  0  0  0
   57.6759   27.0880   43.8349 H   0  0  0  0  0  0  0  0  0  0  0  0
   57.5570   29.1410   44.6250 C   0  0  0  0  0  0  0  0  0  0  0  0
   56.2970   29.7410   44.7840 C   0  0  0  0  0  0  0  0  0  0  0  0
   55.1590   28.9640   44.9670 O   0  0  0  0  0  0  0  0  0  0  0  0
   56.1820   31.0930   44.7600 N   0  0  0  0  0  0  0  0  0  0  0  0
   57.2750   31.8860   44.6230 C   0  0  0  0  0  0  0  0  0  0  0  0
   57.1450   33.1380   44.5940 O   0  0  0  0  0  0  0  0  0  0  0  0
   58.5110   31.3310   44.5220 N   0  0  0  0  0  0  0  0  0  0  0  0
   58.6770   29.9830   44.5390 C   0  0  0  0  0  0  0  0  0  0  0  0
   59.8400   29.5020   44.4610 O   0  0  0  0  0  0  0  0  0  0  0  0
  1  2  1  0
  2  3  1  0
  2  4  2  0
  4  5  1  0
  5  6  1  0
  6  7  1  0
  6  8  2  0
  8  9  1  0
  9 10  1  0
  9 11  1  0
  9 12  1  0
 12 13  2  0
 12 14  1  0
 14 15  1  0
 14 16  1  0
 16 17  1  0
 16 18  1  0
 16 19  1  0
 19 20  1  0
 19 21  1  0
 19 22  1  0
 22 23  1  0
 23 24  2  0
 23 25  1  0
 25 26  1  0
 26 27  1  0
 26 28  1  0
 26 29  1  0
 29 30  1  0
 29 31  1  0
 29 32  1  0
 22 33  1  0
 33 34  1  0
 33 35  1  0
 33 36  1  0
 36 37  1  0
 36 38  1  0
  8 39  1  0
 39 40  2  0
 40 41  1  0
 40 42  1  0
 42 43  2  0
 43 44  1  0
 43 45  1  0
 45 46  1  0
 46 47  2  0
 46 48  1  0
 48 49  1  0
 49 50  2  0
 39  4  1  0
 49 42  1  0
 36 14  1  0
M  CHG  4  14   1  44  -1  45  -1  48  -1
M  END
>  <UniqueID>  (23) 
22

>  <SMILES>  (23) 
C=c1occ(CC(=O)[NH+]2CCN(C(=O)OCC)CC2)/c1=C\c1c([O-])[n-]c(=O)[n-]c1=O

>  <Energy>  (23) 
100.43113861974979

>  <Genealogy>  (23) 
C=c1occ(CC(=O)[NH+]2CCN(C(=O)OCC)CC2)c1=Cc1c([O-])[n-]c(=O)[n-]c1=O (protonated)
C=c1occ(CC(=O)[NH+]2CCN(C(=O)OCC)CC2)/c1=C\c1c([O-])[n-]c(=O)[n-]c1=O (cis-trans isomerization)
C=c1occ(CC(=O)[NH+]2CCN(C(=O)OCC)CC2)/c1=C\c1c([O-])[n-]c(=O)[n-]c1=O (3D coordinates assigned)
C=c1occ(CC(=O)[NH+]2CCN(C(=O)OCC)CC2)/c1=C\c1c([O-])[n-]c(=O)[n-]c1=O (nonaromatic ring conformer: 100.43113861974979 kcal/mol)

>  <smiles>  (23) 
C=c1occ(CC(=O)N2CCN(C(=O)OCC)CC2)c1=Cc1c(O)[nH]c(=O)[nH]c1=O

>  <score_type>  (23) 
oracle

>  <origin>  (23) 
adg

>  <m_score__min__energy>  (23) 
-14.390000000000001

>  <m_primary>  (23) 
energy

$$$$
23:0
     RDKit          3D

 32 34  0  0  1  0  0  0  0  0999 V2000
   60.0300   27.6630   47.3990 C   0  0  0  0  0  0  0  0  0  0  0  0
   59.9770   28.9610   47.2040 C   0  0  0  0  0  0  0  0  0  0  0  0
   60.8860   29.8530   47.7000 N   0  0  0  0  0  0  0  0  0  0  0  0
   60.5670   31.0780   47.3380 N   0  0  0  0  0  0  0  0  0  0  0  0
   59.4460   31.0670   46.5940 C   0  0  0  0  0  0  0  0  0  0  0  0
   58.8520   32.2680   46.0440 C   0  0  0  0  0  0  0  0  0  0  0  0
   59.5500   33.2450   45.3690 C   0  0  0  0  0  0  0  0  0  0  0  0
   58.9020   34.3790   44.8780 C   0  0  0  0  0  0  0  0  0  0  0  0
   57.5450   34.5380   45.0630 C   0  0  0  0  0  0  0  0  0  0  0  0
   56.8180   33.5580   45.7450 C   0  0  0  0  0  0  0  0  0  0  0  0
   57.4900   32.4460   46.2190 C   0  0  0  0  0  0  0  0  0  0  0  0
   59.0820   29.7420   46.5120 C   0  0  0  0  0  0  0  0  0  0  0  0
   58.0340   29.3060   45.8590 C   0  0  0  0  0  0  0  0  0  0  0  0
   57.4900   29.8680   44.6390 C   0  0  0  0  0  0  0  0  0  0  0  0
   58.1300   30.6110   43.6850 N   0  0  0  0  0  0  0  0  0  0  0  0
   57.2330   30.8640   42.7320 C   0  0  0  0  0  0  0  0  0  0  0  0
   57.4980   31.5370   41.6920 O   0  0  0  0  0  0  0  0  0  0  0  0
   56.0450   30.2950   43.0720 N   0  0  0  0  0  0  0  0  0  0  0  0
   56.1720   29.6690   44.2510 C   0  0  0  0  0  0  0  0  0  0  0  0
   55.1550   28.9930   44.8770 O   0  0  0  0  0  0  0  0  0  0  0  0
   59.2586   27.0097   46.9653 H   0  0  0  0  0  0  0  0  0  0  0  0
   60.8458   27.2294   47.9960 H   0  0  0  0  0  0  0  0  0  0  0  0
   61.7220   29.6420   48.2830 H   0  0  0  0  0  0  0  0  0  0  0  0
   60.6330   33.1297   45.2149 H   0  0  0  0  0  0  0  0  0  0  0  0
   59.4759   35.1489   44.3414 H   0  0  0  0  0  0  0  0  0  0  0  0
   57.0362   35.4329   44.6753 H   0  0  0  0  0  0  0  0  0  0  0  0
   55.7348   33.6689   45.9013 H   0  0  0  0  0  0  0  0  0  0  0  0
   56.9204   31.6731   46.7558 H   0  0  0  0  0  0  0  0  0  0  0  0
   57.5171   28.4293   46.2764 H   0  0  0  0  0  0  0  0  0  0  0  0
   59.1460   30.8960   43.7520 H   0  0  0  0  0  0  0  0  0  0  0  0
   55.1880   30.3600   42.4750 H   0  0  0  0  0  0  0  0  0  0  0  0
   55.1490   27.9650   44.8890 H   0  0  0  0  0  0  0  0  0  0  0  0
  1  2  2  0
  2  3  1  0
  3  4  1  0
  4  5  2  0
  5  6  1  0
  6  7  2  0
  7  8  1  0
  8  9  2  0
  9 10  1  0
 10 11  2  0
  5 12  1  0
 12 13  2  0
 13 14  1  0
 14 15  1  0
 15 16  1  0
 16 17  2  0
 16 18  1  0
 18 19  1  0
 19 20  1  0
 12  2  1  0
 19 14  2  0
 11  6  1  0
  1 21  1  0
  1 22  1  0
  3 23  1  0
  7 24  1  0
  8 25  1  0
  9 26  1  0
 10 27  1  0
 11 28  1  0
 13 29  1  0
 15 30  1  0
 18 31  1  0
 20 32  1  0
M  END
>  <smiles>  (24) 
C=c1[nH]nc(-c2ccccc2)c1=Cc1[nH]c(=O)[nH]c1O

>  <score_type>  (24) 
oracle

>  <origin>  (24) 
adg

>  <m_score__min__energy>  (24) 
-7.6799999999999997

>  <m_primary>  (24) 
energy

$$$$
24:0
     RDKit          3D

 48 50  0  0  0  0  0  0  0  0999 V2000
   60.3080   23.6150   45.9770 O   0  0  0  0  0  0  0  0  0  0  0  0
   59.3220   24.3380   45.6770 C   0  0  0  0  0  0  0  0  0  0  0  0
   59.2180   25.7210   46.2550 C   0  0  0  0  0  0  0  0  0  0  0  0
   58.0460   26.5030   45.6450 C   0  0  0  0  0  0  0  0  0  0  0  0
   58.2890   27.9930   45.6620 C   0  0  0  0  0  0  0  0  0  0  0  0
   57.5140   28.8460   44.8600 C   0  0  0  0  0  0  0  0  0  0  0  0
   57.7140   30.2300   44.8990 C   0  0  0  0  0  0  0  0  0  0  0  0
   58.6900   30.7870   45.7460 C   0  0  0  0  0  0  0  0  0  0  0  0
   58.9080   32.2560   45.7860 C   0  0  0  0  0  0  0  0  0  0  0  0
   58.2110   33.1070   44.9050 C   0  0  0  0  0  0  0  0  0  0  0  0
   58.4090   34.4910   44.9500 C   0  0  0  0  0  0  0  0  0  0  0  0
   59.2990   35.0400   45.8720 C   0  0  0  0  0  0  0  0  0  0  0  0
   59.9970   34.2090   46.7520 C   0  0  0  0  0  0  0  0  0  0  0  0
   59.8060   32.8230   46.7100 C   0  0  0  0  0  0  0  0  0  0  0  0
   59.4580   29.9290   46.5560 C   0  0  0  0  0  0  0  0  0  0  0  0
   59.2560   28.5450   46.5160 C   0  0  0  0  0  0  0  0  0  0  0  0
   58.3070   23.8530   44.7800 N   0  0  0  0  0  0  0  0  0  0  0  0
   58.3210   22.5360   44.2070 C   0  0  0  0  0  0  0  0  0  0  0  0
   59.3950   21.8750   44.1380 O   0  0  0  0  0  0  0  0  0  0  0  0
   57.0360   21.9090   43.7470 C   0  0  0  0  0  0  0  0  0  0  0  0
   56.0450   21.7380   44.9080 C   0  0  0  0  0  0  0  0  0  0  0  0
   55.7540   23.0460   45.5920 C   0  0  0  0  0  0  0  0  0  0  0  0
   54.9940   24.0730   45.0750 C   0  0  0  0  0  0  0  0  0  0  0  0
   55.0930   25.1000   45.9900 C   0  0  0  0  0  0  0  0  0  0  0  0
   54.4720   26.3350   45.8540 O   0  0  0  0  0  0  0  0  0  0  0  0
   55.8740   24.7780   47.0400 N   0  0  0  0  0  0  0  0  0  0  0  0
   56.2820   23.5200   46.7860 C   0  0  0  0  0  0  0  0  0  0  0  0
   57.1440   22.8260   47.6330 O   0  0  0  0  0  0  0  0  0  0  0  0
   59.0677   25.6431   47.3419 H   0  0  0  0  0  0  0  0  0  0  0  0
   60.1483   26.2607   46.0242 H   0  0  0  0  0  0  0  0  0  0  0  0
   57.9063   26.1780   44.6034 H   0  0  0  0  0  0  0  0  0  0  0  0
   57.1502   26.2984   46.2498 H   0  0  0  0  0  0  0  0  0  0  0  0
   56.7448   28.4234   44.1969 H   0  0  0  0  0  0  0  0  0  0  0  0
   57.1037   30.8878   44.2628 H   0  0  0  0  0  0  0  0  0  0  0  0
   57.5061   32.6797   44.1766 H   0  0  0  0  0  0  0  0  0  0  0  0
   57.8618   35.1470   44.2570 H   0  0  0  0  0  0  0  0  0  0  0  0
   59.4519   36.1288   45.9067 H   0  0  0  0  0  0  0  0  0  0  0  0
   60.6979   34.6448   47.4792 H   0  0  0  0  0  0  0  0  0  0  0  0
   60.3607   32.1732   47.4029 H   0  0  0  0  0  0  0  0  0  0  0  0
   60.2227   30.3499   47.2254 H   0  0  0  0  0  0  0  0  0  0  0  0
   59.8588   27.8857   47.1578 H   0  0  0  0  0  0  0  0  0  0  0  0
   57.4710   24.4550   44.6130 H   0  0  0  0  0  0  0  0  0  0  0  0
   56.5797   22.5514   42.9794 H   0  0  0  0  0  0  0  0  0  0  0  0
   57.2647   20.9132   43.3394 H   0  0  0  0  0  0  0  0  0  0  0  0
   55.1043   21.3247   44.5151 H   0  0  0  0  0  0  0  0  0  0  0  0
   56.4973   21.0595   45.6463 H   0  0  0  0  0  0  0  0  0  0  0  0
   54.4280   24.0734   44.1318 H   0  0  0  0  0  0  0  0  0  0  0  0
   58.1400   22.8000   47.4720 H   0  0  0  0  0  0  0  0  0  0  0  0
  1  2  2  0
  2  3  1  0
  3  4  1  0
  4  5  1  0
  5  6  2  0
  6  7  1  0
  7  8  2  0
  8  9  1  0
  9 10  2  0
 10 11  1  0
 11 12  2  0
 12 13  1  0
 13 14  2  0
  8 15  1  0
 15 16  2  0
  2 17  1  0
 17 18  1  0
 18 19  2  0
 18 20  1  0
 20 21  1  0
 21 22  1  0
 22 23  1  0
 23 24  2  0
 24 25  1  0
 24 26  1  0
 26 27  1  0
 27 28  1  0
 16  5  1  0
 27 22  2  0
 14  9  1  0
  3 29  1  0
  3 30  1  0
  4 31  1  0
  4 32  1  0
  6 33  1  0
  7 34  1  0
 10 35  1  0
 11 36  1  0
 12 37  1  0
 13 38  1  0
 14 39  1  0
 15 40  1  0
 16 41  1  0
 17 42  1  0
 20 43  1  0
 20 44  1  0
 21 45  1  0
 21 46  1  0
 23 47  1  0
 28 48  1  0
M  CHG  2  25  -1  26  -1
M  END
>  <UniqueID>  (25) 
23

>  <SMILES>  (25) 
O=C(CCc1ccc(-c2ccccc2)cc1)NC(=O)CCc1cc([O-])[n-]c1O

>  <Energy>  (25) 
72.26376143019405

>  <Genealogy>  (25) 
O=C(CCc1ccc(-c2ccccc2)cc1)NC(=O)CCc1cc([O-])[n-]c1O (protonated)
O=C(CCc1ccc(-c2ccccc2)cc1)NC(=O)CCc1cc([O-])[n-]c1O (3D coordinates assigned)
O=C(CCc1ccc(-c2ccccc2)cc1)NC(=O)CCc1cc([O-])[n-]c1O (optimized conformer: 72.26376143019405 kcal/mol)

>  <smiles>  (25) 
O=C(CCc1ccc(-c2ccccc2)cc1)NC(=O)CCc1cc(O)[nH]c1O

>  <score_type>  (25) 
oracle

>  <origin>  (25) 
adg

>  <m_score__min__energy>  (25) 
-17.309999999999999

>  <m_primary>  (25) 
energy

$$$$
25:0
     RDKit          3D

 63 66  0  0  0  0  0  0  0  0999 V2000
   53.6700   24.1610   44.7340 O   0  0  0  0  0  0  0  0  0  0  0  0
   54.6050   24.0950   45.9130 S   0  0  0  0  0  0  0  0  0  0  0  0
   53.8530   23.5690   47.1060 O   0  0  0  0  0  0  0  0  0  0  0  0
   55.1810   25.6950   46.2650 N   0  0  0  0  0  0  0  0  0  0  0  0
   56.5500   26.1160   46.2110 C   0  0  0  0  0  0  0  0  0  0  0  0
   57.4140   25.7050   47.2340 C   0  0  0  0  0  0  0  0  0  0  0  0
   58.7260   26.1810   47.2860 C   0  0  0  0  0  0  0  0  0  0  0  0
   59.1810   27.0810   46.3230 C   0  0  0  0  0  0  0  0  0  0  0  0
   58.3400   27.4850   45.2750 C   0  0  0  0  0  0  0  0  0  0  0  0
   58.8180   28.5020   44.2620 C   0  0  0  0  0  0  0  0  0  0  0  0
   57.7360   29.3790   43.7790 N   0  0  0  0  0  0  0  0  0  0  0  0
   57.0260   30.0850   44.8640 C   0  0  2  0  0  0  0  0  0  0  0  0
   55.7330   30.4620   44.4550 O   0  0  0  0  0  0  0  0  0  0  0  0
   57.7840   31.3150   45.3040 C   0  0  0  0  0  0  0  0  0  0  0  0
   58.2320   32.3690   44.5180 C   0  0  0  0  0  0  0  0  0  0  0  0
   58.8480   33.2450   45.3910 C   0  0  0  0  0  0  0  0  0  0  0  0
   59.4230   34.4630   45.0350 O   0  0  0  0  0  0  0  0  0  0  0  0
   58.8150   32.7690   46.6520 N   0  0  0  0  0  0  0  0  0  0  0  0
   59.2520   33.4600   47.8660 C   0  0  0  0  0  0  0  0  0  0  0  0
   60.6180   34.1140   47.6410 C   0  0  0  0  0  0  0  0  0  0  0  0
   61.4250   33.2920   46.7100 N   0  0  0  0  0  0  0  0  0  0  0  0
   61.5740   31.8900   47.1740 C   0  0  0  0  0  0  0  0  0  0  0  0
   62.9230   31.6410   47.8730 C   0  0  0  0  0  0  0  0  0  0  0  0
   63.3310   32.8020   48.5590 O   0  0  0  0  0  0  0  0  0  0  0  0
   63.6950   33.8130   47.6290 C   0  0  0  0  0  0  0  0  0  0  0  0
   62.7370   33.9060   46.4160 C   0  0  0  0  0  0  0  0  0  0  0  0
   58.1670   31.5900   46.6060 C   0  0  0  0  0  0  0  0  0  0  0  0
   57.0330   26.9730   45.2040 C   0  0  0  0  0  0  0  0  0  0  0  0
   55.9620   23.0480   45.4960 C   0  0  0  0  0  0  0  0  0  0  0  0
   56.7920   23.3850   44.4160 C   0  0  0  0  0  0  0  0  0  0  0  0
   57.9230   22.6120   44.1270 C   0  0  0  0  0  0  0  0  0  0  0  0
   58.2310   21.5010   44.9160 C   0  0  0  0  0  0  0  0  0  0  0  0
   57.4080   21.1590   45.9950 C   0  0  0  0  0  0  0  0  0  0  0  0
   57.8420   19.6510   47.0830 Br  0  0  0  0  0  0  0  0  0  0  0  0
   56.2700   21.9250   46.2790 C   0  0  0  0  0  0  0  0  0  0  0  0
   57.0568   25.0027   48.0015 H   0  0  0  0  0  0  0  0  0  0  0  0
   59.4009   25.8457   48.0873 H   0  0  0  0  0  0  0  0  0  0  0  0
   60.2055   27.4767   46.3853 H   0  0  0  0  0  0  0  0  0  0  0  0
   59.5939   29.1260   44.7296 H   0  0  0  0  0  0  0  0  0  0  0  0
   59.2075   27.9482   43.3950 H   0  0  0  0  0  0  0  0  0  0  0  0
   58.1530   30.0860   43.1220 H   0  0  0  0  0  0  0  0  0  0  0  0
   56.9519   29.3877   45.7115 H   0  0  0  0  0  0  0  0  0  0  0  0
   55.1550   30.4550   45.2640 H   0  0  0  0  0  0  0  0  0  0  0  0
   58.1199   32.4824   43.4296 H   0  0  0  0  0  0  0  0  0  0  0  0
   60.3680   34.6980   45.3200 H   0  0  0  0  0  0  0  0  0  0  0  0
   58.5168   34.2354   48.1271 H   0  0  0  0  0  0  0  0  0  0  0  0
   59.3348   32.7294   48.6841 H   0  0  0  0  0  0  0  0  0  0  0  0
   60.4757   35.1168   47.2120 H   0  0  0  0  0  0  0  0  0  0  0  0
   61.1445   34.1918   48.6037 H   0  0  0  0  0  0  0  0  0  0  0  0
   60.7628   31.6645   47.8820 H   0  0  0  0  0  0  0  0  0  0  0  0
   61.5307   31.2384   46.2888 H   0  0  0  0  0  0  0  0  0  0  0  0
   62.8149   30.8134   48.5895 H   0  0  0  0  0  0  0  0  0  0  0  0
   63.6795   31.3832   47.1172 H   0  0  0  0  0  0  0  0  0  0  0  0
   63.6940   34.7822   48.1493 H   0  0  0  0  0  0  0  0  0  0  0  0
   64.6896   33.5521   47.2382 H   0  0  0  0  0  0  0  0  0  0  0  0
   62.5861   34.9653   46.1607 H   0  0  0  0  0  0  0  0  0  0  0  0
   63.1916   33.3602   45.5761 H   0  0  0  0  0  0  0  0  0  0  0  0
   57.9710   30.9420   47.4730 H   0  0  0  0  0  0  0  0  0  0  0  0
   56.3845   27.2432   44.3576 H   0  0  0  0  0  0  0  0  0  0  0  0
   56.5531   24.2601   43.7938 H   0  0  0  0  0  0  0  0  0  0  0  0
   58.5695   22.8796   43.2782 H   0  0  0  0  0  0  0  0  0  0  0  0
   59.1205   20.8950   44.6891 H   0  0  0  0  0  0  0  0  0  0  0  0
   55.6160   21.6454   47.1181 H   0  0  0  0  0  0  0  0  0  0  0  0
  1  2  2  0
  2  3  2  0
  2  4  1  0
  4  5  1  0
  5  6  2  0
  6  7  1  0
  7  8  2  0
  8  9  1  0
  9 10  1  0
 10 11  1  0
 11 12  1  0
 12 13  1  0
 12 14  1  0
 14 15  1  0
 15 16  2  0
 16 17  1  0
 16 18  1  0
 18 19  1  0
 19 20  1  0
 20 21  1  0
 21 22  1  0
 22 23  1  0
 23 24  1  0
 24 25  1  0
 25 26  1  0
 18 27  1  0
  9 28  2  0
  2 29  1  0
 29 30  2  0
 30 31  1  0
 31 32  2  0
 32 33  1  0
 33 34  1  0
 33 35  2  0
 28  5  1  0
 35 29  1  0
 27 14  2  0
 26 21  1  0
  6 36  1  0
  7 37  1  0
  8 38  1  0
 10 39  1  0
 10 40  1  0
 11 41  1  0
 12 42  1  1
 13 43  1  0
 15 44  1  0
 17 45  1  0
 19 46  1  0
 19 47  1  0
 20 48  1  0
 20 49  1  0
 22 50  1  0
 22 51  1  0
 23 52  1  0
 23 53  1  0
 25 54  1  0
 25 55  1  0
 26 56  1  0
 26 57  1  0
 27 58  1  0
 28 59  1  0
 30 60  1  0
 31 61  1  0
 32 62  1  0
 35 63  1  0
M  CHG  1   4  -1
M  END
>  <UniqueID>  (26) 
24

>  <SMILES>  (26) 
O=S(=O)([N-]c1cccc(CN[C@H](O)c2cc(O)n(CCN3CCOCC3)c2)c1)c1cccc(Br)c1

>  <Energy>  (26) 
107.67271580919743

>  <Genealogy>  (26) 
O=S(=O)([N-]c1cccc(CNC(O)c2cc(O)n(CCN3CCOCC3)c2)c1)c1cccc(Br)c1 (protonated)
O=S(=O)([N-]c1cccc(CN[C@H](O)c2cc(O)n(CCN3CCOCC3)c2)c1)c1cccc(Br)c1 (chirality)
O=S(=O)([N-]c1cccc(CN[C@H](O)c2cc(O)n(CCN3CCOCC3)c2)c1)c1cccc(Br)c1 (3D coordinates assigned)
O=S(=O)([N-]c1cccc(CN[C@H](O)c2cc(O)n(CCN3CCOCC3)c2)c1)c1cccc(Br)c1 (nonaromatic ring conformer: 107.67271580919743 kcal/mol)

>  <smiles>  (26) 
O=S(=O)(Nc1cccc(CNC(O)c2cc(O)n(CCN3CCOCC3)c2)c1)c1cccc(Br)c1

>  <score_type>  (26) 
oracle

>  <origin>  (26) 
adg

>  <m_score__min__energy>  (26) 
-11.99

>  <m_primary>  (26) 
energy

$$$$
26:0
     RDKit          3D

 63 67  0  0  0  0  0  0  0  0999 V2000
   56.4450   30.4600   42.5980 C   0  0  0  0  0  0  0  0  0  0  0  0
   57.1020   30.0730   43.6940 C   0  0  0  0  0  0  0  0  0  0  0  0
   57.1540   28.7990   44.0210 O   0  0  0  0  0  0  0  0  0  0  0  0
   57.7450   28.6910   45.1800 C   0  0  0  0  0  0  0  0  0  0  0  0
   57.9630   27.5110   45.8910 C   0  0  0  0  0  0  0  0  0  0  0  0
   57.4940   26.2470   45.3810 C   0  0  0  0  0  0  0  0  0  0  0  0
   57.1000   25.1910   44.9540 C   0  0  0  0  0  0  0  0  0  0  0  0
   56.6230   23.9100   44.4350 C   0  0  0  0  0  0  0  0  0  0  0  0
   58.6460   27.5950   47.1170 C   0  0  0  0  0  0  0  0  0  0  0  0
   58.8670   26.4530   47.8800 O   0  0  0  0  0  0  0  0  0  0  0  0
   59.1420   28.8340   47.5650 C   0  0  0  0  0  0  0  0  0  0  0  0
   58.9520   30.0080   46.8050 C   0  0  0  0  0  0  0  0  0  0  0  0
   59.7610   31.1890   47.1410 C   0  0  0  0  0  0  0  0  0  0  0  0
   60.7650   31.4840   46.4370 O   0  0  0  0  0  0  0  0  0  0  0  0
   59.4380   31.9500   48.2680 O   0  0  0  0  0  0  0  0  0  0  0  0
   59.1800   31.3660   49.5400 C   0  0  0  0  0  0  0  0  0  0  0  0
   58.3780   32.3530   50.3880 C   0  0  0  0  0  0  0  0  0  0  0  0
   59.2060   33.4100   51.1030 C   0  0  0  0  0  0  0  0  0  0  0  0
   58.6000   32.2560   51.8890 C   0  0  0  0  0  0  0  0  0  0  0  0
   58.1480   29.9210   45.6470 C   0  0  0  0  0  0  0  0  0  0  0  0
   57.7130   30.8640   44.7000 C   0  0  0  0  0  0  0  0  0  0  0  0
   57.6950   32.2190   44.8320 C   0  0  0  0  0  0  0  0  0  0  0  0
   58.5230   33.1100   43.9300 C   0  0  0  0  0  0  0  0  0  0  0  0
   59.2660   34.1940   44.7430 C   0  0  0  0  0  0  0  0  0  0  0  0
   59.4130   33.8160   46.1700 N   0  0  0  0  0  0  0  0  0  0  0  0
   60.2590   34.7910   46.9000 C   0  0  0  0  0  0  0  0  0  0  0  0
   61.5240   34.1550   47.4320 C   0  0  0  0  0  0  0  0  0  0  0  0
   61.6520   33.8790   48.8030 C   0  0  0  0  0  0  0  0  0  0  0  0
   62.8150   33.2790   49.2950 C   0  0  0  0  0  0  0  0  0  0  0  0
   63.8550   32.9460   48.4230 C   0  0  0  0  0  0  0  0  0  0  0  0
   63.7350   33.2160   47.0570 C   0  0  0  0  0  0  0  0  0  0  0  0
   62.5750   33.8180   46.5610 C   0  0  0  0  0  0  0  0  0  0  0  0
   58.0800   33.7280   46.8220 C   0  0  0  0  0  0  0  0  0  0  0  0
   57.0430   32.9420   45.9820 C   0  0  0  0  0  0  0  0  0  0  0  0
   56.4043   31.5258   42.3287 H   0  0  0  0  0  0  0  0  0  0  0  0
   55.9445   29.7131   41.9643 H   0  0  0  0  0  0  0  0  0  0  0  0
   56.3749   23.2438   45.2744 H   0  0  0  0  0  0  0  0  0  0  0  0
   55.7259   24.0747   43.8201 H   0  0  0  0  0  0  0  0  0  0  0  0
   57.4093   23.4478   43.8201 H   0  0  0  0  0  0  0  0  0  0  0  0
   59.6849   28.8878   48.5202 H   0  0  0  0  0  0  0  0  0  0  0  0
   58.6033   30.4384   49.4097 H   0  0  0  0  0  0  0  0  0  0  0  0
   60.1309   31.1328   50.0413 H   0  0  0  0  0  0  0  0  0  0  0  0
   57.4950   32.3637   49.7321 H   0  0  0  0  0  0  0  0  0  0  0  0
   60.2936   33.4568   50.9448 H   0  0  0  0  0  0  0  0  0  0  0  0
   59.1700   34.5068   51.1787 H   0  0  0  0  0  0  0  0  0  0  0  0
   59.2496   31.4688   52.2992 H   0  0  0  0  0  0  0  0  0  0  0  0
   57.9445   32.1733   52.7685 H   0  0  0  0  0  0  0  0  0  0  0  0
   59.2610   32.4933   43.3962 H   0  0  0  0  0  0  0  0  0  0  0  0
   57.8478   33.6096   43.2196 H   0  0  0  0  0  0  0  0  0  0  0  0
   60.2664   34.3396   44.3094 H   0  0  0  0  0  0  0  0  0  0  0  0
   58.6732   35.1194   44.6962 H   0  0  0  0  0  0  0  0  0  0  0  0
   59.8680   32.8730   46.2290 H   0  0  0  0  0  0  0  0  0  0  0  0
   60.5325   35.6071   46.2150 H   0  0  0  0  0  0  0  0  0  0  0  0
   59.6814   35.1682   47.7568 H   0  0  0  0  0  0  0  0  0  0  0  0
   60.8342   34.1359   49.4923 H   0  0  0  0  0  0  0  0  0  0  0  0
   62.9116   33.0687   50.3704 H   0  0  0  0  0  0  0  0  0  0  0  0
   64.7680   32.4714   48.8117 H   0  0  0  0  0  0  0  0  0  0  0  0
   64.5544   32.9545   46.3713 H   0  0  0  0  0  0  0  0  0  0  0  0
   62.4841   34.0289   45.4852 H   0  0  0  0  0  0  0  0  0  0  0  0
   58.1978   33.2246   47.7929 H   0  0  0  0  0  0  0  0  0  0  0  0
   57.7012   34.7547   46.9334 H   0  0  0  0  0  0  0  0  0  0  0  0
   56.5432   32.2062   46.6291 H   0  0  0  0  0  0  0  0  0  0  0  0
   56.3179   33.6597   45.5708 H   0  0  0  0  0  0  0  0  0  0  0  0
  1  2  2  0
  2  3  1  0
  3  4  1  0
  4  5  2  0
  5  6  1  0
  6  7  3  0
  7  8  1  0
  5  9  1  0
  9 10  1  0
  9 11  2  0
 11 12  1  0
 12 13  1  0
 13 14  2  0
 13 15  1  0
 15 16  1  0
 16 17  1  0
 17 18  1  0
 18 19  1  0
 12 20  2  0
 20 21  1  0
 21 22  2  3
 22 23  1  0
 23 24  1  0
 24 25  1  0
 25 26  1  0
 26 27  1  0
 27 28  2  0
 28 29  1  0
 29 30  2  0
 30 31  1  0
 31 32  2  0
 25 33  1  0
 33 34  1  0
 21  2  1  0
 34 22  1  0
 20  4  1  0
 32 27  1  0
 19 17  1  0
  1 35  1  0
  1 36  1  0
  8 37  1  0
  8 38  1  0
  8 39  1  0
 11 40  1  0
 16 41  1  0
 16 42  1  0
 17 43  1  0
 18 44  1  0
 18 45  1  0
 19 46  1  0
 19 47  1  0
 23 48  1  0
 23 49  1  0
 24 50  1  0
 24 51  1  0
 25 52  1  0
 26 53  1  0
 26 54  1  0
 28 55  1  0
 29 56  1  0
 30 57  1  0
 31 58  1  0
 32 59  1  0
 33 60  1  0
 33 61  1  0
 34 62  1  0
 34 63  1  0
M  CHG  2  10  -1  25   1
M  END
>  <UniqueID>  (27) 
25

>  <SMILES>  (27) 
C=c1oc2c(C#CC)c([O-])cc(C(=O)OCC3CC3)c2c1=C1CC[NH+](Cc2ccccc2)CC1

>  <Energy>  (27) 
395.65118890056914

>  <Genealogy>  (27) 
C=c1oc2c(C#CC)c([O-])cc(C(=O)OCC3CC3)c2c1=C1CC[NH+](Cc2ccccc2)CC1 (protonated)
C=c1oc2c(C#CC)c([O-])cc(C(=O)OCC3CC3)c2c1=C1CC[NH+](Cc2ccccc2)CC1 (3D coordinates assigned)
C=c1oc2c(C#CC)c([O-])cc(C(=O)OCC3CC3)c2c1=C1CC[NH+](Cc2ccccc2)CC1 (nonaromatic ring conformer: 395.65118890056914 kcal/mol)

>  <smiles>  (27) 
C=c1oc2c(C#CC)c(O)cc(C(=O)OCC3CC3)c2c1=C1CCN(Cc2ccccc2)CC1

>  <score_type>  (27) 
oracle

>  <origin>  (27) 
adg

>  <m_score__min__energy>  (27) 
-8.4199999999999999

>  <m_primary>  (27) 
energy

$$$$
27:0
     RDKit          3D

 60 63  0  0  0  0  0  0  0  0999 V2000
   54.3840   26.7080   45.1340 H   0  0  0  0  0  0  0  0  0  0  0  0
   54.8850   26.6930   46.0100 O   0  0  0  0  0  0  0  0  0  0  0  0
   55.9410   25.8110   46.2030 C   0  0  0  0  0  0  0  0  0  0  0  0
   55.8370   24.6560   46.8800 N   0  0  0  0  0  0  0  0  0  0  0  0
   57.0750   24.1320   46.7610 C   0  0  0  0  0  0  0  0  0  0  0  0
   57.3940   23.0250   47.2690 O   0  0  0  0  0  0  0  0  0  0  0  0
   57.9430   24.8810   46.0500 N   0  0  0  0  0  0  0  0  0  0  0  0
   57.2190   25.9620   45.7160 C   0  0  0  0  0  0  0  0  0  0  0  0
   57.7160   27.0300   44.8300 C   0  0  0  0  0  0  0  0  0  0  0  0
   57.8282   26.7762   43.7656 H   0  0  0  0  0  0  0  0  0  0  0  0
   58.0500   28.2970   45.1940 C   0  0  0  0  0  0  0  0  0  0  0  0
   59.2980   28.4540   45.8380 C   0  0  0  0  0  0  0  0  0  0  0  0
   59.8695   27.5653   46.1438 H   0  0  0  0  0  0  0  0  0  0  0  0
   59.8110   29.7260   46.0890 C   0  0  0  0  0  0  0  0  0  0  0  0
   61.1400   29.9100   46.7690 C   0  0  0  0  0  0  0  0  0  0  0  0
   61.1655   29.3011   47.6847 H   0  0  0  0  0  0  0  0  0  0  0  0
   61.9383   29.5941   46.0813 H   0  0  0  0  0  0  0  0  0  0  0  0
   61.3550   31.3780   47.1350 C   0  0  0  0  0  0  0  0  0  0  0  0
   61.3706   31.4845   48.2297 H   0  0  0  0  0  0  0  0  0  0  0  0
   62.3132   31.7230   46.7194 H   0  0  0  0  0  0  0  0  0  0  0  0
   60.5359   31.9833   46.7194 H   0  0  0  0  0  0  0  0  0  0  0  0
   59.0810   30.8180   45.7660 N   0  0  0  0  0  0  0  0  0  0  0  0
   57.8420   30.7410   45.2210 C   0  0  0  0  0  0  0  0  0  0  0  0
   56.9980   32.3110   44.9470 S   0  0  0  0  0  0  0  0  0  0  0  0
   58.1930   33.2340   45.9200 C   0  0  0  0  0  0  0  0  0  0  0  0
   58.9620   34.2380   45.3180 C   0  0  0  0  0  0  0  0  0  0  0  0
   58.8416   34.4561   44.2466 H   0  0  0  0  0  0  0  0  0  0  0  0
   59.8820   34.9620   46.0800 C   0  0  0  0  0  0  0  0  0  0  0  0
   60.4915   35.7449   45.6050 H   0  0  0  0  0  0  0  0  0  0  0  0
   60.0310   34.6950   47.4450 C   0  0  0  0  0  0  0  0  0  0  0  0
   60.7542   35.2732   48.0389 H   0  0  0  0  0  0  0  0  0  0  0  0
   59.2630   33.6930   48.0630 C   0  0  0  0  0  0  0  0  0  0  0  0
   59.3750   33.4470   49.5230 C   0  0  0  0  0  0  0  0  0  0  0  0
   59.3040   34.4110   50.3320 O   0  0  0  0  0  0  0  0  0  0  0  0
   59.5590   32.1170   50.0330 N   0  0  0  0  0  0  0  0  0  0  0  0
   58.4760   31.1450   49.9180 C   0  0  0  0  0  0  0  0  0  0  0  0
   57.7349   31.5062   49.1898 H   0  0  0  0  0  0  0  0  0  0  0  0
   58.8829   30.1808   49.5793 H   0  0  0  0  0  0  0  0  0  0  0  0
   57.8050   30.9650   51.2830 C   0  0  0  0  0  0  0  0  0  0  0  0
   57.2288   31.8701   51.5255 H   0  0  0  0  0  0  0  0  0  0  0  0
   57.1377   30.0916   51.2396 H   0  0  0  0  0  0  0  0  0  0  0  0
   58.8180   30.7400   52.3290 N   0  0  0  0  0  0  0  0  0  0  0  0
   58.5540   29.8530   53.4370 C   0  0  0  0  0  0  0  0  0  0  0  0
   59.5080   29.4500   54.1560 O   0  0  0  0  0  0  0  0  0  0  0  0
   57.1690   29.3520   53.7360 C   0  0  0  0  0  0  0  0  0  0  0  0
   57.0251   29.3000   54.8253 H   0  0  0  0  0  0  0  0  0  0  0  0
   56.4286   30.0393   53.3008 H   0  0  0  0  0  0  0  0  0  0  0  0
   57.0396   28.3501   53.3008 H   0  0  0  0  0  0  0  0  0  0  0  0
   59.9630   31.6700   52.4020 C   0  0  0  0  0  0  0  0  0  0  0  0
   59.6129   32.6480   52.7639 H   0  0  0  0  0  0  0  0  0  0  0  0
   60.7137   31.2577   53.0923 H   0  0  0  0  0  0  0  0  0  0  0  0
   60.6000   31.8420   51.0220 C   0  0  0  0  0  0  0  0  0  0  0  0
   61.3107   32.6812   51.0487 H   0  0  0  0  0  0  0  0  0  0  0  0
   61.1311   30.9188   50.7468 H   0  0  0  0  0  0  0  0  0  0  0  0
   58.3550   32.9520   47.2840 C   0  0  0  0  0  0  0  0  0  0  0  0
   57.7681   32.1458   47.7484 H   0  0  0  0  0  0  0  0  0  0  0  0
   57.2520   29.4710   44.9640 C   0  0  0  0  0  0  0  0  0  0  0  0
   55.9460   29.4040   44.6280 C   0  0  0  0  0  0  0  0  0  0  0  0
   55.4791   28.4285   44.4271 H   0  0  0  0  0  0  0  0  0  0  0  0
   55.3489   30.3249   44.5551 H   0  0  0  0  0  0  0  0  0  0  0  0
  1  2  1  0
  2  3  1  0
  3  4  1  0
  4  5  1  0
  5  6  2  0
  5  7  1  0
  7  8  1  0
  8  9  1  0
  9 10  1  0
  9 11  2  0
 11 12  1  0
 12 13  1  0
 12 14  2  0
 14 15  1  0
 15 16  1  0
 15 17  1  0
 15 18  1  0
 18 19  1  0
 18 20  1  0
 18 21  1  0
 14 22  1  0
 22 23  2  0
 23 24  1  0
 24 25  1  0
 25 26  2  0
 26 27  1  0
 26 28  1  0
 28 29  1  0
 28 30  2  0
 30 31  1  0
 30 32  1  0
 32 33  1  0
 33 34  2  0
 33 35  1  0
 35 36  1  0
 36 37  1  0
 36 38  1  0
 36 39  1  0
 39 40  1  0
 39 41  1  0
 39 42  1  0
 42 43  1  0
 43 44  2  0
 43 45  1  0
 45 46  1  0
 45 47  1  0
 45 48  1  0
 42 49  1  0
 49 50  1  0
 49 51  1  0
 49 52  1  0
 52 53  1  0
 52 54  1  0
 32 55  2  0
 55 56  1  0
 23 57  1  0
 57 58  2  0
 58 59  1  0
 58 60  1  0
  8  3  2  0
 57 11  1  0
 55 25  1  0
 52 35  1  0
M  CHG  2   4  -1   7  -1
M  END
>  <UniqueID>  (28) 
26

>  <SMILES>  (28) 
C=c1c(Sc2cccc(C(=O)N3CCN(C(C)=O)CC3)c2)nc(CC)c/c1=C/c1[n-]c(=O)[n-]c1O

>  <Energy>  (28) 
112.97603147340551

>  <Genealogy>  (28) 
C=c1c(Sc2cccc(C(=O)N3CCN(C(C)=O)CC3)c2)nc(CC)cc1=Cc1[n-]c(=O)[n-]c1O (protonated)
C=c1c(Sc2cccc(C(=O)N3CCN(C(C)=O)CC3)c2)nc(CC)c/c1=C/c1[n-]c(=O)[n-]c1O (cis-trans isomerization)
C=c1c(Sc2cccc(C(=O)N3CCN(C(C)=O)CC3)c2)nc(CC)c/c1=C/c1[n-]c(=O)[n-]c1O (3D coordinates assigned)
C=c1c(Sc2cccc(C(=O)N3CCN(C(C)=O)CC3)c2)nc(CC)c/c1=C/c1[n-]c(=O)[n-]c1O (nonaromatic ring conformer: 112.97603147340551 kcal/mol)

>  <smiles>  (28) 
C=c1c(Sc2cccc(C(=O)N3CCN(C(C)=O)CC3)c2)nc(CC)cc1=Cc1[nH]c(=O)[nH]c1O

>  <score_type>  (28) 
oracle

>  <origin>  (28) 
adg

>  <m_score__min__energy>  (28) 
-14.699999999999999

>  <m_primary>  (28) 
energy

$$$$
28:0
     RDKit          3D

 67 70  0  0  0  0  0  0  0  0999 V2000
   57.0150   32.0440   41.1200 C   0  0  0  0  0  0  0  0  0  0  0  0
   58.1370   32.3580   42.1060 C   0  0  0  0  0  0  0  0  0  0  0  0
   57.7780   31.9330   43.4700 N   0  0  0  0  0  0  0  0  0  0  0  0
   56.8530   30.8040   43.6620 C   0  0  0  0  0  0  0  0  0  0  0  0
   57.5660   29.5940   44.2080 C   0  0  0  0  0  0  0  0  0  0  0  0
   57.7310   28.4440   43.4160 C   0  0  0  0  0  0  0  0  0  0  0  0
   58.3600   27.3100   43.9370 C   0  0  0  0  0  0  0  0  0  0  0  0
   58.8330   27.3090   45.2570 C   0  0  0  0  0  0  0  0  0  0  0  0
   59.4760   26.1060   45.8120 C   0  0  0  0  0  0  0  0  0  0  0  0
   60.6870   26.1570   46.1460 O   0  0  0  0  0  0  0  0  0  0  0  0
   58.7610   24.8730   45.9780 N   0  0  0  0  0  0  0  0  0  0  0  0
   57.3460   24.6750   45.6730 C   0  0  0  0  0  0  0  0  0  0  0  0
   56.4720   25.4270   46.6840 C   0  0  0  0  0  0  0  0  0  0  0  0
   55.4870   26.3500   46.0260 C   0  0  0  0  0  0  0  0  0  0  0  0
   55.8650   27.4890   45.6430 O   0  0  0  0  0  0  0  0  0  0  0  0
   54.1690   25.9620   45.8070 O   0  0  0  0  0  0  0  0  0  0  0  0
   58.7150   28.4720   46.0320 C   0  0  0  0  0  0  0  0  0  0  0  0
   58.0920   29.6070   45.5090 C   0  0  0  0  0  0  0  0  0  0  0  0
   58.2120   32.7100   44.6100 C   0  0  0  0  0  0  0  0  0  0  0  0
   59.0980   33.7870   44.4520 C   0  0  0  0  0  0  0  0  0  0  0  0
   59.5190   34.5190   45.5610 C   0  0  0  0  0  0  0  0  0  0  0  0
   59.0330   34.1890   46.8330 C   0  0  0  0  0  0  0  0  0  0  0  0
   59.5000   34.9450   48.0470 C   0  0  0  0  0  0  0  0  0  0  0  0
   60.7740   34.3410   48.5720 C   0  0  0  0  0  0  0  0  0  0  0  0
   60.9550   34.1520   49.9510 C   0  0  0  0  0  0  0  0  0  0  0  0
   62.1160   33.5470   50.4340 C   0  0  0  0  0  0  0  0  0  0  0  0
   63.1130   33.1050   49.5460 C   0  0  0  0  0  0  0  0  0  0  0  0
   64.3410   32.4430   50.0560 C   0  0  0  0  0  0  0  0  0  0  0  0
   65.6020   33.0160   49.8090 C   0  0  0  0  0  0  0  0  0  0  0  0
   66.7650   32.4040   50.2860 C   0  0  0  0  0  0  0  0  0  0  0  0
   66.6840   31.2150   51.0150 C   0  0  0  0  0  0  0  0  0  0  0  0
   67.8140   30.6180   51.4720 F   0  0  0  0  0  0  0  0  0  0  0  0
   65.4400   30.6360   51.2660 C   0  0  0  0  0  0  0  0  0  0  0  0
   64.2710   31.2410   50.7920 C   0  0  0  0  0  0  0  0  0  0  0  0
   63.0800   30.6270   51.0130 F   0  0  0  0  0  0  0  0  0  0  0  0
   62.9270   33.2920   48.1650 C   0  0  0  0  0  0  0  0  0  0  0  0
   61.7660   33.9020   47.6830 C   0  0  0  0  0  0  0  0  0  0  0  0
   58.1690   33.1430   46.9730 N   0  0  0  0  0  0  0  0  0  0  0  0
   57.7610   32.4050   45.9050 C   0  0  0  0  0  0  0  0  0  0  0  0
   56.1003   31.7880   41.6748 H   0  0  0  0  0  0  0  0  0  0  0  0
   56.8260   32.9238   40.4873 H   0  0  0  0  0  0  0  0  0  0  0  0
   57.3101   31.1939   40.4873 H   0  0  0  0  0  0  0  0  0  0  0  0
   59.0490   31.8287   41.7930 H   0  0  0  0  0  0  0  0  0  0  0  0
   58.3038   33.4453   42.1111 H   0  0  0  0  0  0  0  0  0  0  0  0
   56.0648   31.1036   44.3683 H   0  0  0  0  0  0  0  0  0  0  0  0
   56.4226   30.5398   42.6848 H   0  0  0  0  0  0  0  0  0  0  0  0
   57.3626   28.4369   42.3796 H   0  0  0  0  0  0  0  0  0  0  0  0
   58.4845   26.4152   43.3094 H   0  0  0  0  0  0  0  0  0  0  0  0
   57.1368   25.0526   44.6612 H   0  0  0  0  0  0  0  0  0  0  0  0
   57.1151   23.6010   45.7303 H   0  0  0  0  0  0  0  0  0  0  0  0
   55.9175   24.6915   47.2853 H   0  0  0  0  0  0  0  0  0  0  0  0
   57.1387   26.0420   47.3063 H   0  0  0  0  0  0  0  0  0  0  0  0
   59.1151   28.4901   47.0565 H   0  0  0  0  0  0  0  0  0  0  0  0
   58.0130   30.5176   46.1210 H   0  0  0  0  0  0  0  0  0  0  0  0
   59.4616   34.0545   43.4489 H   0  0  0  0  0  0  0  0  0  0  0  0
   60.2284   35.3506   45.4383 H   0  0  0  0  0  0  0  0  0  0  0  0
   59.6802   35.9954   47.7747 H   0  0  0  0  0  0  0  0  0  0  0  0
   58.7261   34.8887   48.8267 H   0  0  0  0  0  0  0  0  0  0  0  0
   60.1772   34.4827   50.6550 H   0  0  0  0  0  0  0  0  0  0  0  0
   62.2524   33.4148   51.5175 H   0  0  0  0  0  0  0  0  0  0  0  0
   65.6734   33.9525   49.2363 H   0  0  0  0  0  0  0  0  0  0  0  0
   67.7461   32.8598   50.0868 H   0  0  0  0  0  0  0  0  0  0  0  0
   65.3779   29.6993   51.8393 H   0  0  0  0  0  0  0  0  0  0  0  0
   63.7008   32.9558   47.4592 H   0  0  0  0  0  0  0  0  0  0  0  0
   61.6292   34.0387   46.6001 H   0  0  0  0  0  0  0  0  0  0  0  0
   57.8130   32.8860   47.9220 H   0  0  0  0  0  0  0  0  0  0  0  0
   57.0715   31.5616   46.0572 H   0  0  0  0  0  0  0  0  0  0  0  0
  1  2  1  0
  2  3  1  0
  3  4  1  0
  4  5  1  0
  5  6  2  0
  6  7  1  0
  7  8  2  0
  8  9  1  0
  9 10  2  0
  9 11  1  0
 11 12  1  0
 12 13  1  0
 13 14  1  0
 14 15  2  0
 14 16  1  0
  8 17  1  0
 17 18  2  0
  3 19  1  0
 19 20  2  0
 20 21  1  0
 21 22  2  0
 22 23  1  0
 23 24  1  0
 24 25  2  0
 25 26  1  0
 26 27  2  0
 27 28  1  0
 28 29  2  0
 29 30  1  0
 30 31  2  0
 31 32  1  0
 31 33  1  0
 33 34  2  0
 34 35  1  0
 27 36  1  0
 36 37  2  0
 22 38  1  0
 38 39  2  0
 18  5  1  0
 39 19  1  0
 37 24  1  0
 34 28  1  0
  1 40  1  0
  1 41  1  0
  1 42  1  0
  2 43  1  0
  2 44  1  0
  4 45  1  0
  4 46  1  0
  6 47  1  0
  7 48  1  0
 12 49  1  0
 12 50  1  0
 13 51  1  0
 13 52  1  0
 17 53  1  0
 18 54  1  0
 20 55  1  0
 21 56  1  0
 23 57  1  0
 23 58  1  0
 25 59  1  0
 26 60  1  0
 29 61  1  0
 30 62  1  0
 33 63  1  0
 36 64  1  0
 37 65  1  0
 38 66  1  0
 39 67  1  0
M  CHG  3  11  -1  16  -1  38   1
M  END
>  <UniqueID>  (29) 
27

>  <SMILES>  (29) 
CCN(Cc1ccc(C(=O)[N-]CCC(=O)[O-])cc1)c1ccc(Cc2ccc(-c3ccc(F)cc3F)cc2)[nH+]c1

>  <Energy>  (29) 
77.58243049637989

>  <Genealogy>  (29) 
CCN(Cc1ccc(C(=O)[N-]CCC(=O)[O-])cc1)c1ccc(Cc2ccc(-c3ccc(F)cc3F)cc2)[nH+]c1 (protonated)
CCN(Cc1ccc(C(=O)[N-]CCC(=O)[O-])cc1)c1ccc(Cc2ccc(-c3ccc(F)cc3F)cc2)[nH+]c1 (3D coordinates assigned)
CCN(Cc1ccc(C(=O)[N-]CCC(=O)[O-])cc1)c1ccc(Cc2ccc(-c3ccc(F)cc3F)cc2)[nH+]c1 (optimized conformer: 77.58243049637989 kcal/mol)

>  <smiles>  (29) 
CCN(Cc1ccc(C(=O)NCCC(=O)O)cc1)c1ccc(Cc2ccc(-c3ccc(F)cc3F)cc2)nc1

>  <score_type>  (29) 
oracle

>  <origin>  (29) 
adg

>  <m_score__min__energy>  (29) 
-13.890000000000001

>  <m_primary>  (29) 
energy

$$$$
29:0
     RDKit          3D

 53 55  0  0  0  0  0  0  0  0999 V2000
   65.2870   32.8060   49.7240 C   0  0  0  0  0  0  0  0  0  0  0  0
   63.9760   32.0700   50.0370 C   0  0  0  0  0  0  0  0  0  0  0  0
   62.9680   32.2410   48.9600 N   0  0  0  0  0  0  0  0  0  0  0  0
   63.5930   32.3260   47.6140 C   0  0  0  0  0  0  0  0  0  0  0  0
   63.4020   33.6760   46.9000 C   0  0  0  0  0  0  0  0  0  0  0  0
   61.8990   31.2000   49.0140 C   0  0  0  0  0  0  0  0  0  0  0  0
   60.5260   31.7640   49.4500 C   0  0  0  0  0  0  0  0  0  0  0  0
   60.0000   32.7380   48.4580 N   0  0  0  0  0  0  0  0  0  0  0  0
   60.4580   34.0390   48.5470 C   0  0  0  0  0  0  0  0  0  0  0  0
   61.2070   34.3990   49.4970 O   0  0  0  0  0  0  0  0  0  0  0  0
   60.1170   34.9880   47.5870 C   0  0  0  0  0  0  0  0  0  0  0  0
   59.3140   34.6330   46.5180 C   0  0  0  0  0  0  0  0  0  0  0  0
   58.8200   33.3340   46.4210 C   0  0  0  0  0  0  0  0  0  0  0  0
   58.0210   32.9800   45.3250 C   0  0  0  0  0  0  0  0  0  0  0  0
   57.5270   31.6780   45.1970 C   0  0  0  0  0  0  0  0  0  0  0  0
   56.8000   31.2650   44.0340 N   0  0  0  0  0  0  0  0  0  0  0  0
   56.3210   29.6190   43.7560 S   0  0  0  0  0  0  0  0  0  0  0  0
   55.0250   29.3520   44.4680 O   0  0  0  0  0  0  0  0  0  0  0  0
   56.1300   29.3850   42.2830 O   0  0  0  0  0  0  0  0  0  0  0  0
   57.5590   28.5500   44.4140 C   0  0  0  0  0  0  0  0  0  0  0  0
   58.9190   28.7740   44.1520 C   0  0  0  0  0  0  0  0  0  0  0  0
   59.8910   27.9800   44.7660 C   0  0  0  0  0  0  0  0  0  0  0  0
   59.5110   26.9530   45.6380 C   0  0  0  0  0  0  0  0  0  0  0  0
   60.7310   25.9700   46.4230 Cl  0  0  0  0  0  0  0  0  0  0  0  0
   58.1550   26.7170   45.8890 C   0  0  0  0  0  0  0  0  0  0  0  0
   57.1820   27.5180   45.2840 C   0  0  0  0  0  0  0  0  0  0  0  0
   57.7740   30.7510   46.2070 C   0  0  0  0  0  0  0  0  0  0  0  0
   58.5710   31.0870   47.3030 C   0  0  0  0  0  0  0  0  0  0  0  0
   59.1450   32.3790   47.4240 C   0  0  0  0  0  0  0  0  0  0  0  0
   65.7843   33.0852   50.6646 H   0  0  0  0  0  0  0  0  0  0  0  0
   65.9475   32.1468   49.1416 H   0  0  0  0  0  0  0  0  0  0  0  0
   65.0682   33.7132   49.1416 H   0  0  0  0  0  0  0  0  0  0  0  0
   64.1908   30.9976   50.1547 H   0  0  0  0  0  0  0  0  0  0  0  0
   63.5599   32.4977   50.9611 H   0  0  0  0  0  0  0  0  0  0  0  0
   62.5400   33.1790   49.1130 H   0  0  0  0  0  0  0  0  0  0  0  0
   64.6726   32.1473   47.7257 H   0  0  0  0  0  0  0  0  0  0  0  0
   63.0914   31.5712   46.9905 H   0  0  0  0  0  0  0  0  0  0  0  0
   63.2891   34.4740   47.6486 H   0  0  0  0  0  0  0  0  0  0  0  0
   64.2795   33.8853   46.2705 H   0  0  0  0  0  0  0  0  0  0  0  0
   62.5009   33.6336   46.2705 H   0  0  0  0  0  0  0  0  0  0  0  0
   61.7931   30.7544   48.0139 H   0  0  0  0  0  0  0  0  0  0  0  0
   62.2023   30.4562   49.7655 H   0  0  0  0  0  0  0  0  0  0  0  0
   59.8125   30.9326   49.5483 H   0  0  0  0  0  0  0  0  0  0  0  0
   60.6546   32.2838   50.4109 H   0  0  0  0  0  0  0  0  0  0  0  0
   60.4862   36.0201   47.6786 H   0  0  0  0  0  0  0  0  0  0  0  0
   59.0658   35.3756   45.7454 H   0  0  0  0  0  0  0  0  0  0  0  0
   57.7806   33.7324   44.5594 H   0  0  0  0  0  0  0  0  0  0  0  0
   59.2205   29.5760   43.4621 H   0  0  0  0  0  0  0  0  0  0  0  0
   60.9568   28.1623   44.5638 H   0  0  0  0  0  0  0  0  0  0  0  0
   57.8544   25.9010   46.5626 H   0  0  0  0  0  0  0  0  0  0  0  0
   56.1169   27.3376   45.4915 H   0  0  0  0  0  0  0  0  0  0  0  0
   57.3366   29.7439   46.1404 H   0  0  0  0  0  0  0  0  0  0  0  0
   58.7571   30.3373   48.0861 H   0  0  0  0  0  0  0  0  0  0  0  0
  1  2  1  0
  2  3  1  0
  3  4  1  0
  4  5  1  0
  3  6  1  0
  6  7  1  0
  7  8  1  0
  8  9  1  0
  9 10  2  0
  9 11  1  0
 11 12  2  0
 12 13  1  0
 13 14  2  0
 14 15  1  0
 15 16  1  0
 16 17  1  0
 17 18  2  0
 17 19  2  0
 17 20  1  0
 20 21  2  0
 21 22  1  0
 22 23  2  0
 23 24  1  0
 23 25  1  0
 25 26  2  0
 15 27  2  0
 27 28  1  0
 28 29  2  0
 29  8  1  0
 29 13  1  0
 26 20  1  0
  1 30  1  0
  1 31  1  0
  1 32  1  0
  2 33  1  0
  2 34  1  0
  3 35  1  0
  4 36  1  0
  4 37  1  0
  5 38  1  0
  5 39  1  0
  5 40  1  0
  6 41  1  0
  6 42  1  0
  7 43  1  0
  7 44  1  0
 11 45  1  0
 12 46  1  0
 14 47  1  0
 21 48  1  0
 22 49  1  0
 25 50  1  0
 26 51  1  0
 27 52  1  0
 28 53  1  0
M  CHG  2   3   1  16  -1
M  END
>  <UniqueID>  (30) 
28

>  <SMILES>  (30) 
CC[NH+](CC)CCn1c(=O)ccc2cc([N-]S(=O)(=O)c3ccc(Cl)cc3)ccc21

>  <Energy>  (30) 
73.00054925538177

>  <Genealogy>  (30) 
CC[NH+](CC)CCn1c(=O)ccc2cc([N-]S(=O)(=O)c3ccc(Cl)cc3)ccc21 (protonated)
CC[NH+](CC)CCn1c(=O)ccc2cc([N-]S(=O)(=O)c3ccc(Cl)cc3)ccc21 (3D coordinates assigned)
CC[NH+](CC)CCn1c(=O)ccc2cc([N-]S(=O)(=O)c3ccc(Cl)cc3)ccc21 (optimized conformer: 73.00054925538177 kcal/mol)

>  <smiles>  (30) 
CCN(CC)CCn1c(=O)ccc2cc(NS(=O)(=O)c3ccc(Cl)cc3)ccc21

>  <score_type>  (30) 
oracle

>  <origin>  (30) 
adg

>  <m_score__min__energy>  (30) 
-8.1999999999999993

>  <m_primary>  (30) 
energy

$$$$
30:0
     RDKit          3D

 66 69  0  0  1  0  0  0  0  0999 V2000
   59.9710   34.0700   49.0760 C   0  0  0  0  0  0  0  0  0  0  0  0
   59.6120   34.5980   47.9140 C   0  0  0  0  0  0  0  0  0  0  0  0
   59.4410   33.7380   46.7410 C   0  0  0  0  0  0  0  0  0  0  0  0
   60.4650   33.1790   46.2620 O   0  0  0  0  0  0  0  0  0  0  0  0
   58.1390   33.5720   46.1960 N   0  0  0  0  0  0  0  0  0  0  0  0
   57.8790   32.7580   45.0600 C   0  0  0  0  0  0  0  0  0  0  0  0
   58.0890   33.1860   43.7620 C   0  0  0  0  0  0  0  0  0  0  0  0
   57.8020   32.3080   42.7270 C   0  0  0  0  0  0  0  0  0  0  0  0
   57.3200   31.0380   42.9560 C   0  0  0  0  0  0  0  0  0  0  0  0
   57.1120   30.6140   44.2720 C   0  0  0  0  0  0  0  0  0  0  0  0
   56.6220   29.3260   44.5850 N   0  0  0  0  0  0  0  0  0  0  0  0
   57.2800   28.4300   45.2170 C   0  0  0  0  0  0  0  0  0  0  0  0
   57.1690   27.1240   44.8320 N   0  0  0  0  0  0  0  0  0  0  0  0
   57.8590   26.1560   45.4910 C   0  0  0  0  0  0  0  0  0  0  0  0
   57.7200   24.8060   45.0650 N   0  0  0  0  0  0  0  0  0  0  0  0
   58.5240   23.7930   45.7210 C   0  0  0  0  0  0  0  0  0  0  0  0
   58.9950   22.7490   44.7360 C   0  0  1  0  0  0  0  0  0  0  0  0
   59.8580   21.8250   45.4270 N   0  0  0  0  0  0  0  0  0  0  0  0
   57.7070   22.0910   44.2340 C   0  0  0  0  0  0  0  0  0  0  0  0
   57.0150   23.1180   43.4060 C   0  0  1  0  0  0  0  0  0  0  0  0
   55.7490   22.5680   42.8950 N   0  0  0  0  0  0  0  0  0  0  0  0
   56.8140   24.4480   44.0180 C   0  0  0  0  0  0  0  0  0  0  0  0
   58.6390   26.5370   46.5160 N   0  0  0  0  0  0  0  0  0  0  0  0
   58.7400   27.8320   46.8870 C   0  0  0  0  0  0  0  0  0  0  0  0
   59.5890   28.2030   47.9940 N   0  0  0  0  0  0  0  0  0  0  0  0
   59.4260   29.5570   48.4840 C   0  0  0  0  0  0  0  0  0  0  0  0
   60.1890   29.7810   49.7720 C   0  0  2  0  0  0  0  0  0  0  0  0
   61.5560   30.1180   49.4970 N   0  0  0  0  0  0  0  0  0  0  0  0
   60.0260   28.5190   50.5940 C   0  0  0  0  0  0  0  0  0  0  0  0
   60.8690   27.4500   49.9730 C   0  0  1  0  0  0  0  0  0  0  0  0
   60.6300   26.2790   50.7280 O   0  0  0  0  0  0  0  0  0  0  0  0
   60.5190   27.2680   48.5380 C   0  0  0  0  0  0  0  0  0  0  0  0
   58.0620   28.8050   46.2440 N   0  0  0  0  0  0  0  0  0  0  0  0
   57.3920   31.4720   45.3170 C   0  0  0  0  0  0  0  0  0  0  0  0
   60.0995   34.7157   49.9572 H   0  0  0  0  0  0  0  0  0  0  0  0
   60.1403   32.9863   49.1588 H   0  0  0  0  0  0  0  0  0  0  0  0
   59.4426   35.6817   47.8310 H   0  0  0  0  0  0  0  0  0  0  0  0
   57.3310   34.0670   46.6450 H   0  0  0  0  0  0  0  0  0  0  0  0
   58.4734   34.1958   43.5556 H   0  0  0  0  0  0  0  0  0  0  0  0
   57.9646   32.6366   41.6899 H   0  0  0  0  0  0  0  0  0  0  0  0
   57.1013   30.3654   42.1135 H   0  0  0  0  0  0  0  0  0  0  0  0
   57.9206   23.3049   46.5005 H   0  0  0  0  0  0  0  0  0  0  0  0
   59.4063   24.2796   46.1624 H   0  0  0  0  0  0  0  0  0  0  0  0
   59.5768   23.1480   43.8920 H   0  0  0  0  0  0  0  0  0  0  0  0
   60.7990   21.9080   44.9760 H   0  0  0  0  0  0  0  0  0  0  0  0
   59.5430   20.8410   45.2530 H   0  0  0  0  0  0  0  0  0  0  0  0
   57.0735   21.7947   45.0830 H   0  0  0  0  0  0  0  0  0  0  0  0
   57.9200   21.1821   43.6522 H   0  0  0  0  0  0  0  0  0  0  0  0
   57.7154   23.3329   42.5855 H   0  0  0  0  0  0  0  0  0  0  0  0
   55.8130   22.5120   41.8460 H   0  0  0  0  0  0  0  0  0  0  0  0
   55.5860   21.6180   43.3340 H   0  0  0  0  0  0  0  0  0  0  0  0
   55.7952   24.4762   44.4319 H   0  0  0  0  0  0  0  0  0  0  0  0
   56.9960   25.1732   43.2112 H   0  0  0  0  0  0  0  0  0  0  0  0
   59.1760   25.8070   47.0320 H   0  0  0  0  0  0  0  0  0  0  0  0
   59.7974   30.2589   47.7228 H   0  0  0  0  0  0  0  0  0  0  0  0
   58.3573   29.7231   48.6848 H   0  0  0  0  0  0  0  0  0  0  0  0
   59.7983   30.6352   50.3444 H   0  0  0  0  0  0  0  0  0  0  0  0
   61.6800   31.1260   49.3490 H   0  0  0  0  0  0  0  0  0  0  0  0
   62.2170   29.6570   50.1350 H   0  0  0  0  0  0  0  0  0  0  0  0
   60.3561   28.7014   51.6273 H   0  0  0  0  0  0  0  0  0  0  0  0
   58.9705   28.2098   50.6138 H   0  0  0  0  0  0  0  0  0  0  0  0
   61.9375   27.7109   49.9897 H   0  0  0  0  0  0  0  0  0  0  0  0
   61.3590   26.0690   51.3450 H   0  0  0  0  0  0  0  0  0  0  0  0
   61.4483   27.3402   47.9539 H   0  0  0  0  0  0  0  0  0  0  0  0
   60.0218   26.2886   48.4777 H   0  0  0  0  0  0  0  0  0  0  0  0
   57.2317   31.1434   46.3545 H   0  0  0  0  0  0  0  0  0  0  0  0
  1  2  2  0
  2  3  1  0
  3  4  2  0
  3  5  1  0
  5  6  1  0
  6  7  2  0
  7  8  1  0
  8  9  2  0
  9 10  1  0
 10 11  1  0
 11 12  2  0
 12 13  1  0
 13 14  2  0
 14 15  1  0
 15 16  1  0
 16 17  1  0
 17 18  1  0
 17 19  1  0
 19 20  1  0
 20 21  1  0
 20 22  1  0
 14 23  1  0
 23 24  1  0
 24 25  1  0
 25 26  1  0
 26 27  1  0
 27 28  1  0
 27 29  1  0
 29 30  1  0
 30 31  1  0
 30 32  1  0
 24 33  2  0
 10 34  2  0
 34  6  1  0
 33 12  1  0
 22 15  1  0
 32 25  1  0
  1 35  1  0
  1 36  1  0
  2 37  1  0
  5 38  1  0
  7 39  1  0
  8 40  1  0
  9 41  1  0
 16 42  1  0
 16 43  1  0
 17 44  1  6
 18 45  1  0
 18 46  1  0
 19 47  1  0
 19 48  1  0
 20 49  1  6
 21 50  1  0
 21 51  1  0
 22 52  1  0
 22 53  1  0
 23 54  1  0
 26 55  1  0
 26 56  1  0
 27 57  1  1
 28 58  1  0
 28 59  1  0
 29 60  1  0
 29 61  1  0
 30 62  1  6
 31 63  1  0
 32 64  1  0
 32 65  1  0
 34 66  1  0
M  END
>  <smiles>  (31) 
C=CC(=O)Nc1cccc(N=c2nc(N3CC(N)CC(N)C3)[nH]c(N3CC(N)CC(O)C3)n2)c1

>  <score_type>  (31) 
oracle

>  <origin>  (31) 
adg

>  <m_score__min__energy>  (31) 
-9.5800000000000001

>  <m_primary>  (31) 
energy

$$$$
31:0
     RDKit          3D

 52 54  0  0  0  0  0  0  0  0999 V2000
   60.2560   29.3480   48.0990 C   0  0  0  0  0  0  0  0  0  0  0  0
   59.9800   30.6100   48.4400 C   0  0  0  0  0  0  0  0  0  0  0  0
   58.9610   30.8760   49.5110 C   0  0  0  0  0  0  0  0  0  0  0  0
   60.6800   31.7350   47.7720 C   0  0  0  0  0  0  0  0  0  0  0  0
   62.0880   31.7800   47.7740 C   0  0  0  0  0  0  0  0  0  0  0  0
   62.7670   32.8280   47.1470 C   0  0  0  0  0  0  0  0  0  0  0  0
   62.0530   33.8400   46.5050 C   0  0  0  0  0  0  0  0  0  0  0  0
   60.6560   33.8100   46.4930 C   0  0  0  0  0  0  0  0  0  0  0  0
   59.9640   32.7750   47.1400 C   0  0  0  0  0  0  0  0  0  0  0  0
   58.5320   32.7880   47.1380 N   0  0  0  0  0  0  0  0  0  0  0  0
   57.7270   32.8650   45.9490 C   0  0  0  0  0  0  0  0  0  0  0  0
   56.6450   33.5100   45.9850 O   0  0  0  0  0  0  0  0  0  0  0  0
   58.1590   32.2190   44.6550 C   0  0  0  0  0  0  0  0  0  0  0  0
   58.1610   30.7460   44.7560 N   0  0  0  0  0  0  0  0  0  0  0  0
   59.3550   30.1040   44.9380 C   0  0  0  0  0  0  0  0  0  0  0  0
   59.4170   28.7120   45.0020 C   0  0  0  0  0  0  0  0  0  0  0  0
   58.2410   27.9530   44.9040 C   0  0  0  0  0  0  0  0  0  0  0  0
   58.2830   26.4700   44.9260 C   0  0  0  0  0  0  0  0  0  0  0  0
   59.1530   25.8840   45.6250 O   0  0  0  0  0  0  0  0  0  0  0  0
   57.3710   25.6950   44.1300 N   0  0  0  0  0  0  0  0  0  0  0  0
   56.9960   24.3380   44.4290 C   0  0  0  0  0  0  0  0  0  0  0  0
   56.8240   23.4240   43.3780 C   0  0  0  0  0  0  0  0  0  0  0  0
   56.4440   22.1070   43.6400 C   0  0  0  0  0  0  0  0  0  0  0  0
   56.2190   21.6880   44.9530 C   0  0  0  0  0  0  0  0  0  0  0  0
   56.3540   22.5950   46.0140 C   0  0  0  0  0  0  0  0  0  0  0  0
   56.1440   22.1330   47.4260 C   0  0  0  0  0  0  0  0  0  0  0  0
   56.7460   23.9180   45.7500 C   0  0  0  0  0  0  0  0  0  0  0  0
   57.0220   28.6260   44.7570 C   0  0  0  0  0  0  0  0  0  0  0  0
   56.9940   30.0230   44.6920 C   0  0  0  0  0  0  0  0  0  0  0  0
   55.8810   30.6000   44.5580 O   0  0  0  0  0  0  0  0  0  0  0  0
   61.0003   29.1400   47.3162 H   0  0  0  0  0  0  0  0  0  0  0  0
   59.7390   28.5170   48.6011 H   0  0  0  0  0  0  0  0  0  0  0  0
   59.4277   30.7542   50.4996 H   0  0  0  0  0  0  0  0  0  0  0  0
   58.5813   31.9033   49.4089 H   0  0  0  0  0  0  0  0  0  0  0  0
   58.1277   30.1653   49.4089 H   0  0  0  0  0  0  0  0  0  0  0  0
   62.6581   30.9829   48.2737 H   0  0  0  0  0  0  0  0  0  0  0  0
   63.8666   32.8551   47.1597 H   0  0  0  0  0  0  0  0  0  0  0  0
   62.5897   34.6616   46.0082 H   0  0  0  0  0  0  0  0  0  0  0  0
   60.0960   34.6017   45.9738 H   0  0  0  0  0  0  0  0  0  0  0  0
   57.4653   32.5209   43.8565 H   0  0  0  0  0  0  0  0  0  0  0  0
   59.1841   32.5495   44.4313 H   0  0  0  0  0  0  0  0  0  0  0  0
   60.2787   30.6934   45.0352 H   0  0  0  0  0  0  0  0  0  0  0  0
   60.3873   28.2096   45.1292 H   0  0  0  0  0  0  0  0  0  0  0  0
   57.0420   26.1040   43.2270 H   0  0  0  0  0  0  0  0  0  0  0  0
   56.9899   23.7481   42.3400 H   0  0  0  0  0  0  0  0  0  0  0  0
   56.3213   21.3964   42.8093 H   0  0  0  0  0  0  0  0  0  0  0  0
   55.9354   20.6446   45.1554 H   0  0  0  0  0  0  0  0  0  0  0  0
   56.4965   22.9086   48.1218 H   0  0  0  0  0  0  0  0  0  0  0  0
   55.0731   21.9475   47.5957 H   0  0  0  0  0  0  0  0  0  0  0  0
   56.7084   21.2042   47.5957 H   0  0  0  0  0  0  0  0  0  0  0  0
   56.8584   24.6306   46.5804 H   0  0  0  0  0  0  0  0  0  0  0  0
   56.0842   28.0548   44.6925 H   0  0  0  0  0  0  0  0  0  0  0  0
  1  2  2  0
  2  3  1  0
  2  4  1  0
  4  5  2  0
  5  6  1  0
  6  7  2  0
  7  8  1  0
  8  9  2  0
  9 10  1  0
 10 11  1  0
 11 12  2  0
 11 13  1  0
 13 14  1  0
 14 15  1  0
 15 16  2  0
 16 17  1  0
 17 18  1  0
 18 19  2  0
 18 20  1  0
 20 21  1  0
 21 22  2  0
 22 23  1  0
 23 24  2  0
 24 25  1  0
 25 26  1  0
 25 27  2  0
 17 28  2  0
 28 29  1  0
 29 30  2  0
  9  4  1  0
 29 14  1  0
 27 21  1  0
  1 31  1  0
  1 32  1  0
  3 33  1  0
  3 34  1  0
  3 35  1  0
  5 36  1  0
  6 37  1  0
  7 38  1  0
  8 39  1  0
 13 40  1  0
 13 41  1  0
 15 42  1  0
 16 43  1  0
 20 44  1  0
 22 45  1  0
 23 46  1  0
 24 47  1  0
 26 48  1  0
 26 49  1  0
 26 50  1  0
 27 51  1  0
 28 52  1  0
M  CHG  1  10  -1
M  END
>  <UniqueID>  (32) 
29

>  <SMILES>  (32) 
C=C(C)c1ccccc1[N-]C(=O)Cn1ccc(C(=O)Nc2cccc(C)c2)cc1=O

>  <Energy>  (32) 
71.01413362214203

>  <Genealogy>  (32) 
C=C(C)c1ccccc1[N-]C(=O)Cn1ccc(C(=O)Nc2cccc(C)c2)cc1=O (protonated)
C=C(C)c1ccccc1[N-]C(=O)Cn1ccc(C(=O)Nc2cccc(C)c2)cc1=O (3D coordinates assigned)
C=C(C)c1ccccc1[N-]C(=O)Cn1ccc(C(=O)Nc2cccc(C)c2)cc1=O (optimized conformer: 71.01413362214203 kcal/mol)

>  <smiles>  (32) 
C=C(C)c1ccccc1NC(=O)Cn1ccc(C(=O)Nc2cccc(C)c2)cc1=O

>  <score_type>  (32) 
oracle

>  <origin>  (32) 
adg

>  <m_score__min__energy>  (32) 
-10.34

>  <m_primary>  (32) 
energy

$$$$
32:0
     RDKit          3D

 52 54  0  0  0  0  0  0  0  0999 V2000
   63.6790   33.3760   50.5090 C   0  0  0  0  0  0  0  0  0  0  0  0
   62.5280   33.5390   49.5510 C   0  0  0  0  0  0  0  0  0  0  0  0
   61.2430   33.7960   50.0540 C   0  0  0  0  0  0  0  0  0  0  0  0
   60.1580   33.9390   49.1910 C   0  0  0  0  0  0  0  0  0  0  0  0
   60.3330   33.8320   47.8050 C   0  0  0  0  0  0  0  0  0  0  0  0
   59.2050   33.9710   46.9160 N   0  0  0  0  0  0  0  0  0  0  0  0
   58.1140   32.9840   46.9670 C   0  0  0  0  0  0  0  0  0  0  0  0
   57.2160   33.0730   45.7250 C   0  0  0  0  0  0  0  0  0  0  0  0
   58.0430   33.2510   44.5160 N   0  0  0  0  0  0  0  0  0  0  0  0
   57.8820   32.4320   43.3340 C   0  0  0  0  0  0  0  0  0  0  0  0
   58.4720   32.7570   42.2670 O   0  0  0  0  0  0  0  0  0  0  0  0
   57.0650   31.1700   43.3360 C   0  0  0  0  0  0  0  0  0  0  0  0
   57.9480   30.0150   43.5170 N   0  0  0  0  0  0  0  0  0  0  0  0
   57.5640   29.2070   45.0060 S   0  0  0  0  0  0  0  0  0  0  0  0
   57.5140   27.7250   44.7710 O   0  0  0  0  0  0  0  0  0  0  0  0
   56.2150   29.6590   45.4890 O   0  0  0  0  0  0  0  0  0  0  0  0
   58.7930   29.5570   46.2170 C   0  0  0  0  0  0  0  0  0  0  0  0
   58.5310   29.3400   47.5770 C   0  0  0  0  0  0  0  0  0  0  0  0
   59.5000   29.6480   48.5380 C   0  0  0  0  0  0  0  0  0  0  0  0
   60.7310   30.1770   48.1440 C   0  0  0  0  0  0  0  0  0  0  0  0
   60.9960   30.4010   46.7900 C   0  0  0  0  0  0  0  0  0  0  0  0
   60.0290   30.0930   45.8260 C   0  0  0  0  0  0  0  0  0  0  0  0
   59.0610   34.3170   44.4970 C   0  0  0  0  0  0  0  0  0  0  0  0
   59.1910   34.9960   45.8650 C   0  0  0  0  0  0  0  0  0  0  0  0
   61.6140   33.5690   47.2960 C   0  0  0  0  0  0  0  0  0  0  0  0
   62.7170   33.4350   48.1540 C   0  0  0  0  0  0  0  0  0  0  0  0
   64.0800   33.1790   47.5650 C   0  0  0  0  0  0  0  0  0  0  0  0
   63.3061   33.4288   51.5425 H   0  0  0  0  0  0  0  0  0  0  0  0
   64.1598   32.4008   50.3420 H   0  0  0  0  0  0  0  0  0  0  0  0
   64.4116   34.1794   50.3420 H   0  0  0  0  0  0  0  0  0  0  0  0
   61.0909   33.8854   51.1398 H   0  0  0  0  0  0  0  0  0  0  0  0
   59.1568   34.1374   49.6011 H   0  0  0  0  0  0  0  0  0  0  0  0
   58.5476   31.9746   47.0230 H   0  0  0  0  0  0  0  0  0  0  0  0
   57.4984   33.1956   47.8537 H   0  0  0  0  0  0  0  0  0  0  0  0
   56.6298   32.1469   45.6322 H   0  0  0  0  0  0  0  0  0  0  0  0
   56.5394   33.9339   45.8296 H   0  0  0  0  0  0  0  0  0  0  0  0
   56.3363   31.2066   44.1592 H   0  0  0  0  0  0  0  0  0  0  0  0
   56.5327   31.0771   42.3779 H   0  0  0  0  0  0  0  0  0  0  0  0
   57.7560   29.3360   42.7430 H   0  0  0  0  0  0  0  0  0  0  0  0
   57.5608   28.9264   47.8894 H   0  0  0  0  0  0  0  0  0  0  0  0
   59.2923   29.4735   49.6040 H   0  0  0  0  0  0  0  0  0  0  0  0
   61.4929   30.4176   48.9001 H   0  0  0  0  0  0  0  0  0  0  0  0
   61.9654   30.8197   46.4817 H   0  0  0  0  0  0  0  0  0  0  0  0
   60.2384   30.2714   44.7610 H   0  0  0  0  0  0  0  0  0  0  0  0
   60.0318   33.8789   44.2220 H   0  0  0  0  0  0  0  0  0  0  0  0
   58.7513   35.0761   43.7636 H   0  0  0  0  0  0  0  0  0  0  0  0
   60.1271   35.5726   45.9016 H   0  0  0  0  0  0  0  0  0  0  0  0
   58.3390   35.6737   46.0225 H   0  0  0  0  0  0  0  0  0  0  0  0
   61.7558   33.4665   46.2100 H   0  0  0  0  0  0  0  0  0  0  0  0
   64.8101   33.0419   48.3762 H   0  0  0  0  0  0  0  0  0  0  0  0
   64.0467   32.2714   46.9444 H   0  0  0  0  0  0  0  0  0  0  0  0
   64.3783   34.0368   46.9444 H   0  0  0  0  0  0  0  0  0  0  0  0
  1  2  1  0
  2  3  2  0
  3  4  1  0
  4  5  2  0
  5  6  1  0
  6  7  1  0
  7  8  1  0
  8  9  1  0
  9 10  1  0
 10 11  2  0
 10 12  1  0
 12 13  1  0
 13 14  1  0
 14 15  2  0
 14 16  2  0
 14 17  1  0
 17 18  2  0
 18 19  1  0
 19 20  2  0
 20 21  1  0
 21 22  2  0
  9 23  1  0
 23 24  1  0
  5 25  1  0
 25 26  2  0
 26 27  1  0
 26  2  1  0
 24  6  1  0
 22 17  1  0
  1 28  1  0
  1 29  1  0
  1 30  1  0
  3 31  1  0
  4 32  1  0
  7 33  1  0
  7 34  1  0
  8 35  1  0
  8 36  1  0
 12 37  1  0
 12 38  1  0
 13 39  1  0
 18 40  1  0
 19 41  1  0
 20 42  1  0
 21 43  1  0
 22 44  1  0
 23 45  1  0
 23 46  1  0
 24 47  1  0
 24 48  1  0
 25 49  1  0
 27 50  1  0
 27 51  1  0
 27 52  1  0
M  END
>  <UniqueID>  (33) 
30

>  <SMILES>  (33) 
Cc1ccc(N2CCN(C(=O)CNS(=O)(=O)c3ccccc3)CC2)cc1C

>  <Energy>  (33) 
54.806515493423234

>  <Genealogy>  (33) 
Cc1ccc(N2CCN(C(=O)CNS(=O)(=O)c3ccccc3)CC2)cc1C (3D coordinates assigned)
Cc1ccc(N2CCN(C(=O)CNS(=O)(=O)c3ccccc3)CC2)cc1C (nonaromatic ring conformer: 54.806515493423234 kcal/mol)

>  <smiles>  (33) 
Cc1ccc(N2CCN(C(=O)CNS(=O)(=O)c3ccccc3)CC2)cc1C

>  <score_type>  (33) 
oracle

>  <origin>  (33) 
adg

>  <m_score__min__energy>  (33) 
-9.3000000000000007

>  <m_primary>  (33) 
energy

$$$$
33:0
     RDKit          3D

 38 40  0  0  0  0  0  0  0  0999 V2000
   57.7320   30.7240   53.7760 C   0  0  0  0  0  0  0  0  0  0  0  0
   56.5480   30.5230   53.1930 C   0  0  0  0  0  0  0  0  0  0  0  0
   55.6840   31.7410   52.4200 S   0  0  0  0  0  0  0  0  0  0  0  0
   54.3820   30.7470   52.0210 C   0  0  0  0  0  0  0  0  0  0  0  0
   53.2640   31.0940   51.3590 C   0  0  0  0  0  0  0  0  0  0  0  0
   52.0500   31.6560   51.9870 C   0  0  0  0  0  0  0  0  0  0  0  0
   51.7330   31.5850   53.2940 N   0  0  0  0  0  0  0  0  0  0  0  0
   50.5520   32.2350   53.3670 C   0  0  0  0  0  0  0  0  0  0  0  0
   49.9250   32.3800   54.4480 O   0  0  0  0  0  0  0  0  0  0  0  0
   50.0950   32.7160   52.1920 N   0  0  0  0  0  0  0  0  0  0  0  0
   51.0540   32.3420   51.3310 C   0  0  0  0  0  0  0  0  0  0  0  0
   51.0210   32.6210   49.9690 O   0  0  0  0  0  0  0  0  0  0  0  0
   54.6670   29.4690   52.5140 C   0  0  0  0  0  0  0  0  0  0  0  0
   53.8690   28.4990   52.3850 O   0  0  0  0  0  0  0  0  0  0  0  0
   55.8710   29.3410   53.1530 N   0  0  0  0  0  0  0  0  0  0  0  0
   56.3290   28.0780   53.7600 C   0  0  0  0  0  0  0  0  0  0  0  0
   55.4710   27.6960   54.9510 C   0  0  0  0  0  0  0  0  0  0  0  0
   56.0080   27.2000   55.9330 O   0  0  0  0  0  0  0  0  0  0  0  0
   54.0370   27.9340   54.9750 N   0  0  0  0  0  0  0  0  0  0  0  0
   53.7220   29.2310   55.6080 C   0  0  0  0  0  0  0  0  0  0  0  0
   52.2070   29.3710   55.8730 C   0  0  0  0  0  0  0  0  0  0  0  0
   51.4700   28.4080   55.1450 O   0  0  0  0  0  0  0  0  0  0  0  0
   51.7830   27.1070   55.6130 C   0  0  0  0  0  0  0  0  0  0  0  0
   53.3070   26.8360   55.6360 C   0  0  0  0  0  0  0  0  0  0  0  0
   58.2520   29.8885   54.2674 H   0  0  0  0  0  0  0  0  0  0  0  0
   58.1876   31.7252   53.7650 H   0  0  0  0  0  0  0  0  0  0  0  0
   53.2523   30.9487   50.2687 H   0  0  0  0  0  0  0  0  0  0  0  0
   56.2737   27.2779   53.0072 H   0  0  0  0  0  0  0  0  0  0  0  0
   57.3638   28.2148   54.1072 H   0  0  0  0  0  0  0  0  0  0  0  0
   53.7060   27.9760   53.9790 H   0  0  0  0  0  0  0  0  0  0  0  0
   54.2615   29.3040   56.5638 H   0  0  0  0  0  0  0  0  0  0  0  0
   54.0315   30.0357   54.9249 H   0  0  0  0  0  0  0  0  0  0  0  0
   52.0162   29.2320   56.9474 H   0  0  0  0  0  0  0  0  0  0  0  0
   51.8875   30.3725   55.5491 H   0  0  0  0  0  0  0  0  0  0  0  0
   51.3894   26.9952   56.6341 H   0  0  0  0  0  0  0  0  0  0  0  0
   51.3253   26.3840   54.9217 H   0  0  0  0  0  0  0  0  0  0  0  0
   53.6443   26.7538   56.6798 H   0  0  0  0  0  0  0  0  0  0  0  0
   53.5098   25.8988   55.0970 H   0  0  0  0  0  0  0  0  0  0  0  0
  1  2  2  0
  2  3  1  0
  3  4  1  0
  4  5  2  3
  5  6  1  0
  6  7  1  0
  7  8  1  0
  8  9  2  0
  8 10  1  0
 10 11  1  0
 11 12  1  0
  4 13  1  0
 13 14  2  0
 13 15  1  0
 15 16  1  0
 16 17  1  0
 17 18  2  0
 17 19  1  0
 19 20  1  0
 20 21  1  0
 21 22  1  0
 22 23  1  0
 23 24  1  0
 15  2  1  0
 24 19  1  0
 11  6  2  0
  1 25  1  0
  1 26  1  0
  5 27  1  0
 16 28  1  0
 16 29  1  0
 19 30  1  0
 20 31  1  0
 20 32  1  0
 21 33  1  0
 21 34  1  0
 23 35  1  0
 23 36  1  0
 24 37  1  0
 24 38  1  0
M  CHG  4   7  -1  10  -1  12  -1  19   1
M  END
>  <UniqueID>  (34) 
31

>  <SMILES>  (34) 
C=c1sc(=Cc2[n-]c(=O)[n-]c2[O-])c(=O)n1CC(=O)[NH+]1CCOCC1

>  <Energy>  (34) 
115.07687345162704

>  <Genealogy>  (34) 
C=c1sc(=Cc2[n-]c(=O)[n-]c2[O-])c(=O)n1CC(=O)[NH+]1CCOCC1 (protonated)
C=c1sc(=Cc2[n-]c(=O)[n-]c2[O-])c(=O)n1CC(=O)[NH+]1CCOCC1 (3D coordinates assigned)
C=c1sc(=Cc2[n-]c(=O)[n-]c2[O-])c(=O)n1CC(=O)[NH+]1CCOCC1 (nonaromatic ring conformer: 115.07687345162704 kcal/mol)

>  <smiles>  (34) 
C=c1sc(=Cc2[nH]c(=O)[nH]c2O)c(=O)n1CC(=O)N1CCOCC1

>  <score_type>  (34) 
oracle

>  <origin>  (34) 
adg

>  <m_score__min__energy>  (34) 
-14.09

>  <m_primary>  (34) 
energy

$$$$
34:0
     RDKit          3D

 48 50  0  0  0  0  0  0  0  0999 V2000
   55.7130   26.1600   46.4380 O   0  0  0  0  0  0  0  0  0  0  0  0
   56.3950   26.8820   45.6630 C   0  0  0  0  0  0  0  0  0  0  0  0
   57.7340   26.4100   45.1980 C   0  0  0  0  0  0  0  0  0  0  0  0
   57.6670   24.9550   44.8220 C   0  0  0  0  0  0  0  0  0  0  0  0
   56.7900   24.5260   43.8110 C   0  0  0  0  0  0  0  0  0  0  0  0
   56.7460   23.1790   43.4400 C   0  0  0  0  0  0  0  0  0  0  0  0
   57.5810   22.2530   44.0720 C   0  0  0  0  0  0  0  0  0  0  0  0
   58.4630   22.6740   45.0730 C   0  0  0  0  0  0  0  0  0  0  0  0
   58.5120   24.0210   45.4440 C   0  0  0  0  0  0  0  0  0  0  0  0
   55.9170   28.1680   45.2460 N   0  0  0  0  0  0  0  0  0  0  0  0
   56.6980   29.3620   45.0910 C   0  0  0  0  0  0  0  0  0  0  0  0
   56.3680   30.2510   44.0620 C   0  0  0  0  0  0  0  0  0  0  0  0
   57.0910   31.4340   43.8890 C   0  0  0  0  0  0  0  0  0  0  0  0
   58.1520   31.7520   44.7440 C   0  0  0  0  0  0  0  0  0  0  0  0
   58.8550   32.9460   44.5130 O   0  0  0  0  0  0  0  0  0  0  0  0
   58.6090   34.1890   45.1710 C   0  0  0  0  0  0  0  0  0  0  0  0
   59.5020   34.3210   46.3790 C   0  0  0  0  0  0  0  0  0  0  0  0
   59.3740   35.3090   47.0940 O   0  0  0  0  0  0  0  0  0  0  0  0
   60.4900   33.3080   46.7020 N   0  0  0  0  0  0  0  0  0  0  0  0
   60.1630   32.6690   47.9940 C   0  0  0  0  0  0  0  0  0  0  0  0
   61.3340   31.7980   48.5020 C   0  0  0  0  0  0  0  0  0  0  0  0
   62.3070   31.5980   47.4920 O   0  0  0  0  0  0  0  0  0  0  0  0
   62.8970   32.8400   47.1430 C   0  0  0  0  0  0  0  0  0  0  0  0
   61.8450   33.8980   46.7370 C   0  0  0  0  0  0  0  0  0  0  0  0
   58.4640   30.8780   45.8030 C   0  0  0  0  0  0  0  0  0  0  0  0
   57.7410   29.6940   45.9760 C   0  0  0  0  0  0  0  0  0  0  0  0
   58.0430   26.9985   44.3215 H   0  0  0  0  0  0  0  0  0  0  0  0
   58.4635   26.5386   46.0112 H   0  0  0  0  0  0  0  0  0  0  0  0
   56.1351   25.2536   43.3093 H   0  0  0  0  0  0  0  0  0  0  0  0
   56.0546   22.8478   42.6511 H   0  0  0  0  0  0  0  0  0  0  0  0
   57.5445   21.1925   43.7820 H   0  0  0  0  0  0  0  0  0  0  0  0
   59.1192   21.9438   45.5691 H   0  0  0  0  0  0  0  0  0  0  0  0
   59.2137   24.3501   46.2246 H   0  0  0  0  0  0  0  0  0  0  0  0
   55.5336   30.0168   43.3846 H   0  0  0  0  0  0  0  0  0  0  0  0
   56.8237   32.1217   43.0732 H   0  0  0  0  0  0  0  0  0  0  0  0
   58.8137   35.0159   44.4751 H   0  0  0  0  0  0  0  0  0  0  0  0
   57.5582   34.2236   45.4943 H   0  0  0  0  0  0  0  0  0  0  0  0
   60.4800   32.5670   45.9600 H   0  0  0  0  0  0  0  0  0  0  0  0
   59.9499   33.4516   48.7370 H   0  0  0  0  0  0  0  0  0  0  0  0
   59.2860   32.0211   47.8487 H   0  0  0  0  0  0  0  0  0  0  0  0
   61.8066   32.2990   49.3597 H   0  0  0  0  0  0  0  0  0  0  0  0
   60.9330   30.8165   48.7949 H   0  0  0  0  0  0  0  0  0  0  0  0
   63.4628   33.2178   48.0074 H   0  0  0  0  0  0  0  0  0  0  0  0
   63.5525   32.6686   46.2764 H   0  0  0  0  0  0  0  0  0  0  0  0
   61.8610   34.7205   47.4673 H   0  0  0  0  0  0  0  0  0  0  0  0
   62.0918   34.2716   45.7322 H   0  0  0  0  0  0  0  0  0  0  0  0
   59.2800   31.1279   46.4971 H   0  0  0  0  0  0  0  0  0  0  0  0
   57.9885   29.0184   46.8080 H   0  0  0  0  0  0  0  0  0  0  0  0
  1  2  2  0
  2  3  1  0
  3  4  1  0
  4  5  2  0
  5  6  1  0
  6  7  2  0
  7  8  1  0
  8  9  2  0
  2 10  1  0
 10 11  1  0
 11 12  2  0
 12 13  1  0
 13 14  2  0
 14 15  1  0
 15 16  1  0
 16 17  1  0
 17 18  2  0
 17 19  1  0
 19 20  1  0
 20 21  1  0
 21 22  1  0
 22 23  1  0
 23 24  1  0
 14 25  1  0
 25 26  2  0
  9  4  1  0
 26 11  1  0
 24 19  1  0
  3 27  1  0
  3 28  1  0
  5 29  1  0
  6 30  1  0
  7 31  1  0
  8 32  1  0
  9 33  1  0
 12 34  1  0
 13 35  1  0
 16 36  1  0
 16 37  1  0
 19 38  1  0
 20 39  1  0
 20 40  1  0
 21 41  1  0
 21 42  1  0
 23 43  1  0
 23 44  1  0
 24 45  1  0
 24 46  1  0
 25 47  1  0
 26 48  1  0
M  CHG  2  10  -1  19   1
M  END
>  <UniqueID>  (35) 
32

>  <SMILES>  (35) 
O=C(Cc1ccccc1)[N-]c1ccc(OCC(=O)[NH+]2CCOCC2)cc1

>  <Energy>  (35) 
59.33644656233714

>  <Genealogy>  (35) 
O=C(Cc1ccccc1)[N-]c1ccc(OCC(=O)[NH+]2CCOCC2)cc1 (protonated)
O=C(Cc1ccccc1)[N-]c1ccc(OCC(=O)[NH+]2CCOCC2)cc1 (3D coordinates assigned)
O=C(Cc1ccccc1)[N-]c1ccc(OCC(=O)[NH+]2CCOCC2)cc1 (nonaromatic ring conformer: 59.33644656233714 kcal/mol)

>  <smiles>  (35) 
O=C(Cc1ccccc1)Nc1ccc(OCC(=O)N2CCOCC2)cc1

>  <score_type>  (35) 
oracle

>  <origin>  (35) 
adg

>  <m_score__min__energy>  (35) 
-8.1999999999999993

>  <m_primary>  (35) 
energy

$$$$
35:0
     RDKit          3D

 62 65  0  0  0  0  0  0  0  0999 V2000
   66.4320   32.7080   50.1370 C   0  0  0  0  0  0  0  0  0  0  0  0
   65.1850   33.4660   50.4850 C   0  0  0  0  0  0  0  0  0  0  0  0
   65.1880   34.1860   51.5200 O   0  0  0  0  0  0  0  0  0  0  0  0
   64.0080   33.3990   49.6510 N   0  0  0  0  0  0  0  0  0  0  0  0
   62.7400   33.9860   50.1150 C   0  0  0  0  0  0  0  0  0  0  0  0
   61.5570   33.0830   49.7350 C   0  0  0  0  0  0  0  0  0  0  0  0
   61.6770   32.5740   48.3620 N   0  0  0  0  0  0  0  0  0  0  0  0
   60.7650   31.5630   47.8960 C   0  0  0  0  0  0  0  0  0  0  0  0
   61.0300   30.8550   46.7130 C   0  0  0  0  0  0  0  0  0  0  0  0
   60.1380   29.8810   46.2580 C   0  0  0  0  0  0  0  0  0  0  0  0
   58.9610   29.6090   46.9700 C   0  0  0  0  0  0  0  0  0  0  0  0
   58.0180   28.5390   46.4910 C   0  0  0  0  0  0  0  0  0  0  0  0
   57.8530   28.6220   45.0330 N   0  0  0  0  0  0  0  0  0  0  0  0
   58.5880   27.6820   44.1740 C   0  0  0  0  0  0  0  0  0  0  0  0
   58.1390   26.2740   44.4470 C   0  0  0  0  0  0  0  0  0  0  0  0
   57.4410   25.5540   43.4620 C   0  0  0  0  0  0  0  0  0  0  0  0
   57.0740   24.2240   43.6890 C   0  0  0  0  0  0  0  0  0  0  0  0
   57.4110   23.6020   44.8930 C   0  0  0  0  0  0  0  0  0  0  0  0
   58.1150   24.3080   45.8740 C   0  0  0  0  0  0  0  0  0  0  0  0
   58.4800   25.6390   45.6520 C   0  0  0  0  0  0  0  0  0  0  0  0
   57.1580   29.7380   44.4360 C   0  0  0  0  0  0  0  0  0  0  0  0
   56.8720   29.7110   43.2090 O   0  0  0  0  0  0  0  0  0  0  0  0
   56.8160   30.9060   45.1950 N   0  0  0  0  0  0  0  0  0  0  0  0
   57.5730   32.1200   45.2750 C   0  0  0  0  0  0  0  0  0  0  0  0
   58.1320   32.6510   44.1050 C   0  0  0  0  0  0  0  0  0  0  0  0
   58.8640   33.8420   44.1490 C   0  0  0  0  0  0  0  0  0  0  0  0
   59.0260   34.5210   45.3610 C   0  0  0  0  0  0  0  0  0  0  0  0
   58.4520   34.0110   46.5280 C   0  0  0  0  0  0  0  0  0  0  0  0
   58.5910   34.6790   47.7000 F   0  0  0  0  0  0  0  0  0  0  0  0
   57.7200   32.8200   46.4860 C   0  0  0  0  0  0  0  0  0  0  0  0
   58.6930   30.3180   48.1510 C   0  0  0  0  0  0  0  0  0  0  0  0
   59.5870   31.2890   48.6090 C   0  0  0  0  0  0  0  0  0  0  0  0
   62.7920   33.0190   47.5180 C   0  0  0  0  0  0  0  0  0  0  0  0
   64.1060   32.8580   48.2830 C   0  0  0  0  0  0  0  0  0  0  0  0
   66.9423   32.3978   51.0608 H   0  0  0  0  0  0  0  0  0  0  0  0
   66.1675   31.8177   49.5475 H   0  0  0  0  0  0  0  0  0  0  0  0
   67.1005   33.3527   49.5475 H   0  0  0  0  0  0  0  0  0  0  0  0
   62.7723   34.0988   51.2087 H   0  0  0  0  0  0  0  0  0  0  0  0
   62.6063   34.9671   49.6359 H   0  0  0  0  0  0  0  0  0  0  0  0
   61.5229   32.2302   50.4290 H   0  0  0  0  0  0  0  0  0  0  0  0
   60.6363   33.6817   49.7980 H   0  0  0  0  0  0  0  0  0  0  0  0
   61.9451   31.0684   46.1412 H   0  0  0  0  0  0  0  0  0  0  0  0
   60.3602   29.3241   45.3358 H   0  0  0  0  0  0  0  0  0  0  0  0
   58.4249   27.5517   46.7548 H   0  0  0  0  0  0  0  0  0  0  0  0
   57.0389   28.6828   46.9713 H   0  0  0  0  0  0  0  0  0  0  0  0
   58.3961   27.9270   43.1189 H   0  0  0  0  0  0  0  0  0  0  0  0
   59.6639   27.7647   44.3877 H   0  0  0  0  0  0  0  0  0  0  0  0
   57.1825   26.0387   42.5090 H   0  0  0  0  0  0  0  0  0  0  0  0
   56.5197   23.6675   42.9189 H   0  0  0  0  0  0  0  0  0  0  0  0
   57.1224   22.5554   45.0702 H   0  0  0  0  0  0  0  0  0  0  0  0
   58.3816   23.8155   46.8208 H   0  0  0  0  0  0  0  0  0  0  0  0
   59.0363   26.1908   46.4240 H   0  0  0  0  0  0  0  0  0  0  0  0
   57.9944   32.1284   43.1469 H   0  0  0  0  0  0  0  0  0  0  0  0
   59.3129   34.2452   43.2292 H   0  0  0  0  0  0  0  0  0  0  0  0
   59.6049   35.4557   45.3952 H   0  0  0  0  0  0  0  0  0  0  0  0
   57.2572   32.4290   47.4041 H   0  0  0  0  0  0  0  0  0  0  0  0
   57.7746   30.1082   48.7189 H   0  0  0  0  0  0  0  0  0  0  0  0
   59.3666   31.8422   49.5339 H   0  0  0  0  0  0  0  0  0  0  0  0
   62.8241   32.4107   46.6021 H   0  0  0  0  0  0  0  0  0  0  0  0
   62.6504   34.0767   47.2509 H   0  0  0  0  0  0  0  0  0  0  0  0
   64.3574   31.7886   48.3393 H   0  0  0  0  0  0  0  0  0  0  0  0
   64.8867   33.4177   47.7470 H   0  0  0  0  0  0  0  0  0  0  0  0
  1  2  1  0
  2  3  2  0
  2  4  1  0
  4  5  1  0
  5  6  1  0
  6  7  1  0
  7  8  1  0
  8  9  2  0
  9 10  1  0
 10 11  2  0
 11 12  1  0
 12 13  1  0
 13 14  1  0
 14 15  1  0
 15 16  2  0
 16 17  1  0
 17 18  2  0
 18 19  1  0
 19 20  2  0
 13 21  1  0
 21 22  2  0
 21 23  1  0
 23 24  1  0
 24 25  2  0
 25 26  1  0
 26 27  2  0
 27 28  1  0
 28 29  1  0
 28 30  2  0
 11 31  1  0
 31 32  2  0
  7 33  1  0
 33 34  1  0
 34  4  1  0
 32  8  1  0
 20 15  1  0
 30 24  1  0
  1 35  1  0
  1 36  1  0
  1 37  1  0
  5 38  1  0
  5 39  1  0
  6 40  1  0
  6 41  1  0
  9 42  1  0
 10 43  1  0
 12 44  1  0
 12 45  1  0
 14 46  1  0
 14 47  1  0
 16 48  1  0
 17 49  1  0
 18 50  1  0
 19 51  1  0
 20 52  1  0
 25 53  1  0
 26 54  1  0
 27 55  1  0
 30 56  1  0
 31 57  1  0
 32 58  1  0
 33 59  1  0
 33 60  1  0
 34 61  1  0
 34 62  1  0
M  CHG  1  23  -1
M  END
>  <UniqueID>  (36) 
33

>  <SMILES>  (36) 
CC(=O)N1CCN(c2ccc(CN(Cc3ccccc3)C(=O)[N-]c3cccc(F)c3)cc2)CC1

>  <Energy>  (36) 
70.68068985733626

>  <Genealogy>  (36) 
CC(=O)N1CCN(c2ccc(CN(Cc3ccccc3)C(=O)[N-]c3cccc(F)c3)cc2)CC1 (protonated)
CC(=O)N1CCN(c2ccc(CN(Cc3ccccc3)C(=O)[N-]c3cccc(F)c3)cc2)CC1 (3D coordinates assigned)
CC(=O)N1CCN(c2ccc(CN(Cc3ccccc3)C(=O)[N-]c3cccc(F)c3)cc2)CC1 (nonaromatic ring conformer: 70.68068985733626 kcal/mol)

>  <smiles>  (36) 
CC(=O)N1CCN(c2ccc(CN(Cc3ccccc3)C(=O)Nc3cccc(F)c3)cc2)CC1

>  <score_type>  (36) 
oracle

>  <origin>  (36) 
adg

>  <m_score__min__energy>  (36) 
-10.34

>  <m_primary>  (36) 
energy

$$$$
36:0
     RDKit          3D

 44 47  0  0  0  0  0  0  0  0999 V2000
   55.9120   28.6390   43.9080 H   0  0  0  0  0  0  0  0  0  0  0  0
   55.8020   28.5900   44.9120 O   0  0  0  0  0  0  0  0  0  0  0  0
   56.2410   27.4910   45.6490 C   0  0  0  0  0  0  0  0  0  0  0  0
   55.4550   26.4390   45.9320 N   0  0  0  0  0  0  0  0  0  0  0  0
   56.2720   25.6360   46.6420 C   0  0  0  0  0  0  0  0  0  0  0  0
   55.9020   24.5240   47.1000 O   0  0  0  0  0  0  0  0  0  0  0  0
   57.5200   26.1170   46.8210 N   0  0  0  0  0  0  0  0  0  0  0  0
   57.4970   27.3070   46.1930 C   0  0  0  0  0  0  0  0  0  0  0  0
   58.6550   28.2180   46.0470 C   0  0  0  0  0  0  0  0  0  0  0  0
   59.6580   27.7674   46.0786 H   0  0  0  0  0  0  0  0  0  0  0  0
   58.5830   29.5500   45.8790 C   0  0  0  0  0  0  0  0  0  0  0  0
   59.0560   30.5410   46.7330 C   0  0  0  0  0  0  0  0  0  0  0  0
   59.5741   30.3932   47.6920 H   0  0  0  0  0  0  0  0  0  0  0  0
   58.7450   31.7490   46.1360 C   0  0  0  0  0  0  0  0  0  0  0  0
   59.0600   33.0770   46.7000 C   0  0  0  0  0  0  0  0  0  0  0  0
   58.1420   33.9390   46.7640 O   0  0  0  0  0  0  0  0  0  0  0  0
   60.3710   33.3920   47.2070 N   0  0  0  0  0  0  0  0  0  0  0  0
   60.7150   32.9910   48.5850 C   0  0  0  0  0  0  0  0  0  0  0  0
   60.3042   31.9896   48.7810 H   0  0  0  0  0  0  0  0  0  0  0  0
   60.2864   33.7275   49.2806 H   0  0  0  0  0  0  0  0  0  0  0  0
   62.1990   32.9580   48.7820 C   0  0  0  0  0  0  0  0  0  0  0  0
   63.0230   32.5550   50.1850 S   0  0  0  0  0  0  0  0  0  0  0  0
   64.5460   32.7740   49.4810 C   0  0  0  0  0  0  0  0  0  0  0  0
   65.8690   32.5630   50.1150 C   0  0  0  0  0  0  0  0  0  0  0  0
   66.6430   33.5530   50.2050 O   0  0  0  0  0  0  0  0  0  0  0  0
   66.3210   31.3080   50.6430 N   0  0  0  0  0  0  0  0  0  0  0  0
   65.6370   30.4550   51.6030 C   0  0  0  0  0  0  0  0  0  0  0  0
   65.8927   30.7739   52.6242 H   0  0  0  0  0  0  0  0  0  0  0  0
   64.5499   30.5350   51.4553 H   0  0  0  0  0  0  0  0  0  0  0  0
   65.9513   29.4113   51.4553 H   0  0  0  0  0  0  0  0  0  0  0  0
   64.4260   33.1410   48.1820 N   0  0  0  0  0  0  0  0  0  0  0  0
   63.1270   33.2580   47.8020 C   0  0  0  0  0  0  0  0  0  0  0  0
   62.7070   33.5980   46.4070 C   0  0  0  0  0  0  0  0  0  0  0  0
   62.6968   32.6828   45.7969 H   0  0  0  0  0  0  0  0  0  0  0  0
   63.4182   34.3224   45.9834 H   0  0  0  0  0  0  0  0  0  0  0  0
   61.3040   34.2180   46.4150 C   0  0  0  0  0  0  0  0  0  0  0  0
   60.9349   34.2886   45.3812 H   0  0  0  0  0  0  0  0  0  0  0  0
   61.3627   35.2181   46.8693 H   0  0  0  0  0  0  0  0  0  0  0  0
   58.0680   31.4480   44.9620 C   0  0  0  0  0  0  0  0  0  0  0  0
   57.5060   32.3170   44.1180 C   0  0  0  0  0  0  0  0  0  0  0  0
   57.6078   33.3982   44.2932 H   0  0  0  0  0  0  0  0  0  0  0  0
   56.9412   31.9516   43.2476 H   0  0  0  0  0  0  0  0  0  0  0  0
   57.9830   30.1120   44.8080 N   0  0  0  0  0  0  0  0  0  0  0  0
   57.5190   29.6070   44.0190 H   0  0  0  0  0  0  0  0  0  0  0  0
  1  2  1  0
  2  3  1  0
  3  4  1  0
  4  5  1  0
  5  6  2  0
  5  7  1  0
  7  8  1  0
  8  9  1  0
  9 10  1  0
  9 11  2  0
 11 12  1  0
 12 13  1  0
 12 14  2  0
 14 15  1  0
 15 16  2  0
 15 17  1  0
 17 18  1  0
 18 19  1  0
 18 20  1  0
 18 21  1  0
 21 22  1  0
 22 23  1  0
 23 24  1  0
 24 25  2  0
 24 26  1  0
 26 27  1  0
 27 28  1  0
 27 29  1  0
 27 30  1  0
 23 31  2  0
 31 32  1  0
 32 33  1  0
 33 34  1  0
 33 35  1  0
 33 36  1  0
 36 37  1  0
 36 38  1  0
 14 39  1  0
 39 40  2  0
 40 41  1  0
 40 42  1  0
 39 43  1  0
 43 44  1  0
  8  3  2  0
 43 11  1  0
 36 17  1  0
 32 21  2  0
M  CHG  3   4  -1   7  -1  26  -1
M  END
>  <UniqueID>  (37) 
34

>  <SMILES>  (37) 
C=c1[nH]/c(=C/c2[n-]c(=O)[n-]c2O)cc1C(=O)N1CCc2nc(C(=O)[N-]C)sc2C1

>  <Energy>  (37) 
143.65133776525218

>  <Genealogy>  (37) 
C=c1[nH]c(=Cc2[n-]c(=O)[n-]c2O)cc1C(=O)N1CCc2nc(C(=O)[N-]C)sc2C1 (protonated)
C=c1[nH]/c(=C/c2[n-]c(=O)[n-]c2O)cc1C(=O)N1CCc2nc(C(=O)[N-]C)sc2C1 (cis-trans isomerization)
C=c1[nH]/c(=C/c2[n-]c(=O)[n-]c2O)cc1C(=O)N1CCc2nc(C(=O)[N-]C)sc2C1 (3D coordinates assigned)
C=c1[nH]/c(=C/c2[n-]c(=O)[n-]c2O)cc1C(=O)N1CCc2nc(C(=O)[N-]C)sc2C1 (nonaromatic ring conformer: 143.65133776525218 kcal/mol)

>  <smiles>  (37) 
C=c1[nH]c(=Cc2[nH]c(=O)[nH]c2O)cc1C(=O)N1CCc2nc(C(=O)NC)sc2C1

>  <score_type>  (37) 
oracle

>  <origin>  (37) 
adg

>  <m_score__min__energy>  (37) 
-13.65

>  <m_primary>  (37) 
energy

$$$$
37:0
     RDKit          3D

 52 54  0  0  0  0  0  0  0  0999 V2000
   57.0180   31.2900   42.2140 C   0  0  0  0  0  0  0  0  0  0  0  0
   56.8170   30.5510   43.8200 S   0  0  0  0  0  0  0  0  0  0  0  0
   57.9830   29.6590   44.1330 O   0  0  0  0  0  0  0  0  0  0  0  0
   55.5560   29.7350   43.8120 O   0  0  0  0  0  0  0  0  0  0  0  0
   56.6740   31.7910   45.0210 N   0  0  0  0  0  0  0  0  0  0  0  0
   57.7910   32.3710   45.7020 C   0  0  0  0  0  0  0  0  0  0  0  0
   58.6260   31.5340   46.4510 C   0  0  0  0  0  0  0  0  0  0  0  0
   59.7030   32.0630   47.1810 C   0  0  0  0  0  0  0  0  0  0  0  0
   60.4650   31.1760   48.1240 C   0  0  0  0  0  0  0  0  0  0  0  0
   60.6510   29.8700   47.5040 N   0  0  0  0  0  0  0  0  0  0  0  0
   60.3260   28.6410   48.1610 C   0  0  0  0  0  0  0  0  0  0  0  0
   60.0260   28.6350   49.3860 O   0  0  0  0  0  0  0  0  0  0  0  0
   60.2890   27.3640   47.3730 C   0  0  0  0  0  0  0  0  0  0  0  0
   58.8770   26.9760   46.9900 C   0  0  0  0  0  0  0  0  0  0  0  0
   58.3180   25.7510   47.3960 C   0  0  0  0  0  0  0  0  0  0  0  0
   57.0330   25.3840   46.9910 C   0  0  0  0  0  0  0  0  0  0  0  0
   56.2550   26.2670   46.2240 C   0  0  0  0  0  0  0  0  0  0  0  0
   54.9350   25.9260   45.7820 N   0  0  0  0  0  0  0  0  0  0  0  0
   54.3340   24.3090   45.6190 S   0  0  0  0  0  0  0  0  0  0  0  0
   54.1260   23.7200   46.9840 O   0  0  0  0  0  0  0  0  0  0  0  0
   53.0080   24.3500   44.9090 O   0  0  0  0  0  0  0  0  0  0  0  0
   55.4790   23.3040   44.7340 C   0  0  0  0  0  0  0  0  0  0  0  0
   56.3240   22.4140   45.4130 C   0  0  0  0  0  0  0  0  0  0  0  0
   57.2520   21.6460   44.7030 C   0  0  0  0  0  0  0  0  0  0  0  0
   57.3440   21.7660   43.3120 C   0  0  0  0  0  0  0  0  0  0  0  0
   56.5000   22.6460   42.6310 C   0  0  0  0  0  0  0  0  0  0  0  0
   55.5700   23.4160   43.3390 C   0  0  0  0  0  0  0  0  0  0  0  0
   56.7800   27.5190   45.8830 C   0  0  0  0  0  0  0  0  0  0  0  0
   58.0810   27.8690   46.2570 C   0  0  0  0  0  0  0  0  0  0  0  0
   59.9610   33.4410   47.1240 C   0  0  0  0  0  0  0  0  0  0  0  0
   59.1510   34.2770   46.3470 C   0  0  0  0  0  0  0  0  0  0  0  0
   58.0640   33.7500   45.6420 C   0  0  0  0  0  0  0  0  0  0  0  0
   57.3050   34.5800   44.8880 F   0  0  0  0  0  0  0  0  0  0  0  0
   57.3051   32.3456   42.3294 H   0  0  0  0  0  0  0  0  0  0  0  0
   57.8032   30.7549   41.6598 H   0  0  0  0  0  0  0  0  0  0  0  0
   56.0699   31.2264   41.6598 H   0  0  0  0  0  0  0  0  0  0  0  0
   58.4368   30.4505   46.4681 H   0  0  0  0  0  0  0  0  0  0  0  0
   61.4460   31.6244   48.3401 H   0  0  0  0  0  0  0  0  0  0  0  0
   59.9035   31.0641   49.0632 H   0  0  0  0  0  0  0  0  0  0  0  0
   60.8826   27.4949   46.4562 H   0  0  0  0  0  0  0  0  0  0  0  0
   60.7028   26.5631   48.0034 H   0  0  0  0  0  0  0  0  0  0  0  0
   58.8994   25.0745   48.0397 H   0  0  0  0  0  0  0  0  0  0  0  0
   56.6288   24.4007   47.2734 H   0  0  0  0  0  0  0  0  0  0  0  0
   56.2565   22.3199   46.5069 H   0  0  0  0  0  0  0  0  0  0  0  0
   57.9106   20.9465   45.2387 H   0  0  0  0  0  0  0  0  0  0  0  0
   58.0804   21.1678   42.7553 H   0  0  0  0  0  0  0  0  0  0  0  0
   56.5662   22.7341   41.5365 H   0  0  0  0  0  0  0  0  0  0  0  0
   54.9089   24.1106   42.8000 H   0  0  0  0  0  0  0  0  0  0  0  0
   56.1643   28.2330   45.3164 H   0  0  0  0  0  0  0  0  0  0  0  0
   58.4838   28.8527   45.9742 H   0  0  0  0  0  0  0  0  0  0  0  0
   60.8022   33.8654   47.6916 H   0  0  0  0  0  0  0  0  0  0  0  0
   59.3702   35.3534   46.2905 H   0  0  0  0  0  0  0  0  0  0  0  0
  1  2  1  0
  2  3  2  0
  2  4  2  0
  2  5  1  0
  5  6  1  0
  6  7  2  0
  7  8  1  0
  8  9  1  0
  9 10  1  0
 10 11  1  0
 11 12  2  0
 11 13  1  0
 13 14  1  0
 14 15  2  0
 15 16  1  0
 16 17  2  0
 17 18  1  0
 18 19  1  0
 19 20  2  0
 19 21  2  0
 19 22  1  0
 22 23  2  0
 23 24  1  0
 24 25  2  0
 25 26  1  0
 26 27  2  0
 17 28  1  0
 28 29  2  0
  8 30  2  0
 30 31  1  0
 31 32  2  0
 32 33  1  0
 32  6  1  0
 29 14  1  0
 27 22  1  0
  1 34  1  0
  1 35  1  0
  1 36  1  0
  7 37  1  0
  9 38  1  0
  9 39  1  0
 13 40  1  0
 13 41  1  0
 15 42  1  0
 16 43  1  0
 23 44  1  0
 24 45  1  0
 25 46  1  0
 26 47  1  0
 27 48  1  0
 28 49  1  0
 29 50  1  0
 30 51  1  0
 31 52  1  0
M  CHG  3   5  -1  10  -1  18  -1
M  END
>  <UniqueID>  (38) 
35

>  <SMILES>  (38) 
CS(=O)(=O)[N-]c1cc(C[N-]C(=O)Cc2ccc([N-]S(=O)(=O)c3ccccc3)cc2)ccc1F

>  <Energy>  (38) 
53.552035551457365

>  <Genealogy>  (38) 
CS(=O)(=O)[N-]c1cc(C[N-]C(=O)Cc2ccc([N-]S(=O)(=O)c3ccccc3)cc2)ccc1F (protonated)
CS(=O)(=O)[N-]c1cc(C[N-]C(=O)Cc2ccc([N-]S(=O)(=O)c3ccccc3)cc2)ccc1F (3D coordinates assigned)
CS(=O)(=O)[N-]c1cc(C[N-]C(=O)Cc2ccc([N-]S(=O)(=O)c3ccccc3)cc2)ccc1F (optimized conformer: 53.552035551457365 kcal/mol)

>  <smiles>  (38) 
CS(=O)(=O)Nc1cc(CNC(=O)Cc2ccc(NS(=O)(=O)c3ccccc3)cc2)ccc1F

>  <score_type>  (38) 
oracle

>  <origin>  (38) 
adg

>  <m_score__min__energy>  (38) 
-13.42

>  <m_primary>  (38) 
energy

$$$$
38:0
     RDKit          3D

 57 60  0  0  0  0  0  0  0  0999 V2000
   59.9960   35.0680   46.1870 O   0  0  0  0  0  0  0  0  0  0  0  0
   60.1910   33.8640   46.5150 C   0  0  0  0  0  0  0  0  0  0  0  0
   59.3150   32.8180   45.9320 C   0  0  0  0  0  0  0  0  0  0  0  0
   58.5500   33.0640   44.7770 C   0  0  0  0  0  0  0  0  0  0  0  0
   57.7290   32.0660   44.2460 C   0  0  0  0  0  0  0  0  0  0  0  0
   57.6670   30.8040   44.8520 C   0  0  0  0  0  0  0  0  0  0  0  0
   56.6210   29.5520   44.1820 S   0  0  0  0  0  0  0  0  0  0  0  0
   56.3830   29.8560   42.7280 O   0  0  0  0  0  0  0  0  0  0  0  0
   55.2900   29.6090   44.8800 O   0  0  0  0  0  0  0  0  0  0  0  0
   57.2810   27.9340   44.3180 N   0  0  0  0  0  0  0  0  0  0  0  0
   58.6590   27.7960   43.8000 C   0  0  0  0  0  0  0  0  0  0  0  0
   59.7400   28.0840   44.8520 C   0  0  0  0  0  0  0  0  0  0  0  0
   59.4930   27.2850   46.1270 C   0  0  0  0  0  0  0  0  0  0  0  0
   58.1010   27.5860   46.6680 C   0  0  0  0  0  0  0  0  0  0  0  0
   57.0310   27.2760   45.6160 C   0  0  0  0  0  0  0  0  0  0  0  0
   58.3990   30.5650   46.0200 C   0  0  0  0  0  0  0  0  0  0  0  0
   59.2170   31.5620   46.5570 C   0  0  0  0  0  0  0  0  0  0  0  0
   61.2720   33.5310   47.4240 N   0  0  0  0  0  0  0  0  0  0  0  0
   61.1030   34.2150   48.7350 C   0  0  0  0  0  0  0  0  0  0  0  0
   62.4400   34.6130   49.3980 C   0  0  0  0  0  0  0  0  0  0  0  0
   63.5320   33.6610   49.1200 N   0  0  0  0  0  0  0  0  0  0  0  0
   63.4080   32.2100   50.0920 S   0  0  0  0  0  0  0  0  0  0  0  0
   62.8050   31.1030   49.2740 O   0  0  0  0  0  0  0  0  0  0  0  0
   62.5380   32.4550   51.2940 O   0  0  0  0  0  0  0  0  0  0  0  0
   65.0010   31.7000   50.6210 C   0  0  0  0  0  0  0  0  0  0  0  0
   66.1850   32.3720   50.3660 C   0  0  0  0  0  0  0  0  0  0  0  0
   67.3020   31.7370   50.9220 C   0  0  0  0  0  0  0  0  0  0  0  0
   66.9940   30.5700   51.6120 C   0  0  0  0  0  0  0  0  0  0  0  0
   65.3310   30.3270   51.5320 S   0  0  0  0  0  0  0  0  0  0  0  0
   63.7240   33.3610   47.6810 C   0  0  0  0  0  0  0  0  0  0  0  0
   62.5650   33.8480   46.7930 C   0  0  0  0  0  0  0  0  0  0  0  0
   58.5986   34.0486   44.2889 H   0  0  0  0  0  0  0  0  0  0  0  0
   57.1283   32.2719   43.3478 H   0  0  0  0  0  0  0  0  0  0  0  0
   58.7928   26.7666   43.4360 H   0  0  0  0  0  0  0  0  0  0  0  0
   58.7800   28.5404   42.9993 H   0  0  0  0  0  0  0  0  0  0  0  0
   60.7229   27.8100   44.4412 H   0  0  0  0  0  0  0  0  0  0  0  0
   59.7092   29.1553   45.0999 H   0  0  0  0  0  0  0  0  0  0  0  0
   59.5733   26.2106   45.9051 H   0  0  0  0  0  0  0  0  0  0  0  0
   60.2426   27.5668   46.8811 H   0  0  0  0  0  0  0  0  0  0  0  0
   57.9194   26.9688   47.5602 H   0  0  0  0  0  0  0  0  0  0  0  0
   58.0452   28.6543   46.9243 H   0  0  0  0  0  0  0  0  0  0  0  0
   57.0030   26.1880   45.4564 H   0  0  0  0  0  0  0  0  0  0  0  0
   56.0753   27.6631   45.9991 H   0  0  0  0  0  0  0  0  0  0  0  0
   58.3301   29.5867   46.5182 H   0  0  0  0  0  0  0  0  0  0  0  0
   59.7887   31.3632   47.4755 H   0  0  0  0  0  0  0  0  0  0  0  0
   61.2480   32.5010   47.6110 H   0  0  0  0  0  0  0  0  0  0  0  0
   60.5071   35.1262   48.5783 H   0  0  0  0  0  0  0  0  0  0  0  0
   60.6059   33.5030   49.4102 H   0  0  0  0  0  0  0  0  0  0  0  0
   62.7355   35.6036   49.0221 H   0  0  0  0  0  0  0  0  0  0  0  0
   62.2775   34.6158   50.4859 H   0  0  0  0  0  0  0  0  0  0  0  0
   66.2417   33.3060   49.7877 H   0  0  0  0  0  0  0  0  0  0  0  0
   68.3265   32.1248   50.8223 H   0  0  0  0  0  0  0  0  0  0  0  0
   67.7155   29.9161   52.1237 H   0  0  0  0  0  0  0  0  0  0  0  0
   64.6501   33.8496   47.3439 H   0  0  0  0  0  0  0  0  0  0  0  0
   63.7702   32.2665   47.5817 H   0  0  0  0  0  0  0  0  0  0  0  0
   62.6451   34.9365   46.6558 H   0  0  0  0  0  0  0  0  0  0  0  0
   62.6224   33.3411   45.8184 H   0  0  0  0  0  0  0  0  0  0  0  0
  1  2  2  0
  2  3  1  0
  3  4  2  0
  4  5  1  0
  5  6  2  0
  6  7  1  0
  7  8  2  0
  7  9  2  0
  7 10  1  0
 10 11  1  0
 11 12  1  0
 12 13  1  0
 13 14  1  0
 14 15  1  0
  6 16  1  0
 16 17  2  0
  2 18  1  0
 18 19  1  0
 19 20  1  0
 20 21  1  0
 21 22  1  0
 22 23  2  0
 22 24  2  0
 22 25  1  0
 25 26  2  0
 26 27  1  0
 27 28  2  0
 28 29  1  0
 21 30  1  0
 30 31  1  0
 17  3  1  0
 31 18  1  0
 15 10  1  0
 29 25  1  0
  4 32  1  0
  5 33  1  0
 11 34  1  0
 11 35  1  0
 12 36  1  0
 12 37  1  0
 13 38  1  0
 13 39  1  0
 14 40  1  0
 14 41  1  0
 15 42  1  0
 15 43  1  0
 16 44  1  0
 17 45  1  0
 18 46  1  0
 19 47  1  0
 19 48  1  0
 20 49  1  0
 20 50  1  0
 26 51  1  0
 27 52  1  0
 28 53  1  0
 30 54  1  0
 30 55  1  0
 31 56  1  0
 31 57  1  0
M  CHG  1  18   1
M  END
>  <UniqueID>  (39) 
36

>  <SMILES>  (39) 
O=C(c1ccc(S(=O)(=O)N2CCCCC2)cc1)[NH+]1CCN(S(=O)(=O)c2cccs2)CC1

>  <Energy>  (39) 
102.91578868529636

>  <Genealogy>  (39) 
O=C(c1ccc(S(=O)(=O)N2CCCCC2)cc1)[NH+]1CCN(S(=O)(=O)c2cccs2)CC1 (protonated)
O=C(c1ccc(S(=O)(=O)N2CCCCC2)cc1)[NH+]1CCN(S(=O)(=O)c2cccs2)CC1 (3D coordinates assigned)
O=C(c1ccc(S(=O)(=O)N2CCCCC2)cc1)[NH+]1CCN(S(=O)(=O)c2cccs2)CC1 (nonaromatic ring conformer: 102.91578868529636 kcal/mol)

>  <smiles>  (39) 
O=C(c1ccc(S(=O)(=O)N2CCCCC2)cc1)N1CCN(S(=O)(=O)c2cccs2)CC1

>  <score_type>  (39) 
oracle

>  <origin>  (39) 
adg

>  <m_score__min__energy>  (39) 
-8.7100000000000009

>  <m_primary>  (39) 
energy

$$$$
39:0
     RDKit          3D

 50 52  0  0  0  0  0  0  0  0999 V2000
   55.1390   29.3550   44.9180 N   0  0  0  0  0  0  0  0  0  0  0  0
   56.6140   29.7140   44.0890 S   0  0  0  0  0  0  0  0  0  0  0  0
   56.3000   30.1180   42.6770 O   0  0  0  0  0  0  0  0  0  0  0  0
   57.4850   28.4920   44.0560 O   0  0  0  0  0  0  0  0  0  0  0  0
   57.4490   31.0270   44.9110 C   0  0  0  0  0  0  0  0  0  0  0  0
   56.9250   32.3270   44.8730 C   0  0  0  0  0  0  0  0  0  0  0  0
   57.5780   33.3650   45.5400 C   0  0  0  0  0  0  0  0  0  0  0  0
   58.7580   33.1140   46.2450 C   0  0  0  0  0  0  0  0  0  0  0  0
   59.3010   31.8200   46.2750 C   0  0  0  0  0  0  0  0  0  0  0  0
   60.4820   31.5280   47.0330 N   0  0  0  0  0  0  0  0  0  0  0  0
   60.5650   31.5060   48.4640 C   0  0  0  0  0  0  0  0  0  0  0  0
   59.9510   32.3860   49.1230 O   0  0  0  0  0  0  0  0  0  0  0  0
   61.3440   30.4390   49.1860 C   0  0  0  0  0  0  0  0  0  0  0  0
   60.4820   29.4340   49.7180 O   0  0  0  0  0  0  0  0  0  0  0  0
   59.2600   29.0660   49.1410 C   0  0  0  0  0  0  0  0  0  0  0  0
   58.1720   29.4200   49.6760 O   0  0  0  0  0  0  0  0  0  0  0  0
   59.2520   28.2570   47.9020 C   0  0  0  0  0  0  0  0  0  0  0  0
   60.3690   28.2650   47.0490 C   0  0  0  0  0  0  0  0  0  0  0  0
   60.3720   27.5040   45.8780 C   0  0  0  0  0  0  0  0  0  0  0  0
   59.2620   26.7270   45.5440 C   0  0  0  0  0  0  0  0  0  0  0  0
   58.1360   26.7100   46.3780 C   0  0  0  0  0  0  0  0  0  0  0  0
   56.7290   25.7340   45.9470 S   0  0  0  0  0  0  0  0  0  0  0  0
   56.8040   25.3750   44.4880 O   0  0  0  0  0  0  0  0  0  0  0  0
   55.4830   26.5510   46.1560 O   0  0  0  0  0  0  0  0  0  0  0  0
   56.6250   24.2690   46.9000 N   0  0  0  0  0  0  0  0  0  0  0  0
   57.6080   23.2750   46.4530 C   0  0  0  0  0  0  0  0  0  0  0  0
   56.8910   22.2270   45.6100 C   0  0  0  0  0  0  0  0  0  0  0  0
   55.4130   22.5450   45.7160 C   0  0  0  0  0  0  0  0  0  0  0  0
   55.3080   23.6390   46.7630 C   0  0  0  0  0  0  0  0  0  0  0  0
   58.1360   27.4700   47.5590 C   0  0  0  0  0  0  0  0  0  0  0  0
   58.6280   30.7750   45.6280 C   0  0  0  0  0  0  0  0  0  0  0  0
   55.3580   28.6080   45.6240 H   0  0  0  0  0  0  0  0  0  0  0  0
   55.9978   32.5293   44.3167 H   0  0  0  0  0  0  0  0  0  0  0  0
   57.1626   34.3831   45.5105 H   0  0  0  0  0  0  0  0  0  0  0  0
   59.2630   33.9330   46.7781 H   0  0  0  0  0  0  0  0  0  0  0  0
   62.0472   29.9709   48.4815 H   0  0  0  0  0  0  0  0  0  0  0  0
   61.8831   30.9098   50.0213 H   0  0  0  0  0  0  0  0  0  0  0  0
   61.2475   28.8753   47.3057 H   0  0  0  0  0  0  0  0  0  0  0  0
   61.2514   27.5171   45.2174 H   0  0  0  0  0  0  0  0  0  0  0  0
   59.2709   26.1258   44.6229 H   0  0  0  0  0  0  0  0  0  0  0  0
   58.3850   23.7675   45.8499 H   0  0  0  0  0  0  0  0  0  0  0  0
   58.0818   22.7973   47.3233 H   0  0  0  0  0  0  0  0  0  0  0  0
   57.2209   22.2882   44.5624 H   0  0  0  0  0  0  0  0  0  0  0  0
   57.1101   21.2081   45.9621 H   0  0  0  0  0  0  0  0  0  0  0  0
   55.0257   22.8994   44.7494 H   0  0  0  0  0  0  0  0  0  0  0  0
   54.8234   21.6582   45.9916 H   0  0  0  0  0  0  0  0  0  0  0  0
   54.5678   24.3883   46.4458 H   0  0  0  0  0  0  0  0  0  0  0  0
   54.9876   23.2144   47.7258 H   0  0  0  0  0  0  0  0  0  0  0  0
   57.2577   27.4503   48.2209 H   0  0  0  0  0  0  0  0  0  0  0  0
   59.0265   29.7512   45.6827 H   0  0  0  0  0  0  0  0  0  0  0  0
  1  2  1  0
  2  3  2  0
  2  4  2  0
  2  5  1  0
  5  6  2  0
  6  7  1  0
  7  8  2  0
  8  9  1  0
  9 10  1  0
 10 11  1  0
 11 12  2  0
 11 13  1  0
 13 14  1  0
 14 15  1  0
 15 16  2  0
 15 17  1  0
 17 18  2  0
 18 19  1  0
 19 20  2  0
 20 21  1  0
 21 22  1  0
 22 23  2  0
 22 24  2  0
 22 25  1  0
 25 26  1  0
 26 27  1  0
 27 28  1  0
 28 29  1  0
 21 30  2  0
  9 31  2  0
 31  5  1  0
 30 17  1  0
 29 25  1  0
  1 32  1  0
  6 33  1  0
  7 34  1  0
  8 35  1  0
 13 36  1  0
 13 37  1  0
 18 38  1  0
 19 39  1  0
 20 40  1  0
 26 41  1  0
 26 42  1  0
 27 43  1  0
 27 44  1  0
 28 45  1  0
 28 46  1  0
 29 47  1  0
 29 48  1  0
 30 49  1  0
 31 50  1  0
M  CHG  2   1  -1  10  -1
M  END
>  <UniqueID>  (40) 
37

>  <SMILES>  (40) 
[NH-]S(=O)(=O)c1cccc([N-]C(=O)COC(=O)c2cccc(S(=O)(=O)N3CCCC3)c2)c1

>  <Energy>  (40) 
55.29246867754547

>  <Genealogy>  (40) 
[NH-]S(=O)(=O)c1cccc([N-]C(=O)COC(=O)c2cccc(S(=O)(=O)N3CCCC3)c2)c1 (protonated)
[NH-]S(=O)(=O)c1cccc([N-]C(=O)COC(=O)c2cccc(S(=O)(=O)N3CCCC3)c2)c1 (3D coordinates assigned)
[NH-]S(=O)(=O)c1cccc([N-]C(=O)COC(=O)c2cccc(S(=O)(=O)N3CCCC3)c2)c1 (nonaromatic ring conformer: 55.29246867754547 kcal/mol)

>  <smiles>  (40) 
NS(=O)(=O)c1cccc(NC(=O)COC(=O)c2cccc(S(=O)(=O)N3CCCC3)c2)c1

>  <score_type>  (40) 
oracle

>  <origin>  (40) 
adg

>  <m_score__min__energy>  (40) 
-12.550000000000001

>  <m_primary>  (40) 
energy

$$$$
40:0
     RDKit          3D

 53 56  0  0  0  0  0  0  0  0999 V2000
   61.0150   30.4810   52.1060 O   0  0  0  0  0  0  0  0  0  0  0  0
   60.3220   30.8890   51.1360 C   0  0  0  0  0  0  0  0  0  0  0  0
   61.0020   31.2940   49.8660 C   0  0  0  0  0  0  0  0  0  0  0  0
   60.3160   32.4930   49.2890 C   0  0  0  0  0  0  0  0  0  0  0  0
   60.2790   33.7710   49.8400 C   0  0  0  0  0  0  0  0  0  0  0  0
   59.6560   34.6300   49.0020 N   0  0  0  0  0  0  0  0  0  0  0  0
   59.3110   33.9100   47.9200 C   0  0  0  0  0  0  0  0  0  0  0  0
   58.6630   34.3680   46.7740 C   0  0  0  0  0  0  0  0  0  0  0  0
   58.4120   33.4410   45.7460 C   0  0  0  0  0  0  0  0  0  0  0  0
   58.8230   32.0960   45.8800 C   0  0  0  0  0  0  0  0  0  0  0  0
   59.4770   31.6630   47.0470 C   0  0  0  0  0  0  0  0  0  0  0  0
   59.7020   32.6020   48.0530 C   0  0  0  0  0  0  0  0  0  0  0  0
   58.8900   30.9060   51.2190 N   0  0  0  0  0  0  0  0  0  0  0  0
   58.1460   30.2390   52.2930 C   0  0  1  0  0  0  0  0  0  0  0  0
   58.3490   30.9680   53.6320 C   0  0  0  0  0  0  0  0  0  0  0  0
   58.4750   32.4590   53.4790 C   0  0  0  0  0  0  0  0  0  0  0  0
   59.3040   33.2780   54.2200 C   0  0  0  0  0  0  0  0  0  0  0  0
   59.1220   34.5560   53.7290 C   0  0  0  0  0  0  0  0  0  0  0  0
   58.1930   34.4590   52.7110 C   0  0  0  0  0  0  0  0  0  0  0  0
   57.8050   33.1790   52.5600 N   0  0  0  0  0  0  0  0  0  0  0  0
   56.6890   30.1270   51.9290 C   0  0  0  0  0  0  0  0  0  0  0  0
   56.1410   31.0060   51.2090 O   0  0  0  0  0  0  0  0  0  0  0  0
   55.9180   29.0380   52.4470 N   0  0  0  0  0  0  0  0  0  0  0  0
   54.8480   29.2050   53.4240 C   0  0  0  0  0  0  0  0  0  0  0  0
   53.7390   30.0400   52.8390 C   0  0  0  0  0  0  0  0  0  0  0  0
   53.5860   30.1520   51.4470 C   0  0  0  0  0  0  0  0  0  0  0  0
   52.5440   30.9180   50.9130 C   0  0  0  0  0  0  0  0  0  0  0  0
   51.6440   31.5690   51.7640 C   0  0  0  0  0  0  0  0  0  0  0  0
   50.6120   32.3320   51.2320 O   0  0  0  0  0  0  0  0  0  0  0  0
   51.7840   31.4500   53.1510 C   0  0  0  0  0  0  0  0  0  0  0  0
   52.8260   30.6880   53.6880 C   0  0  0  0  0  0  0  0  0  0  0  0
   62.0535   31.5396   50.0760 H   0  0  0  0  0  0  0  0  0  0  0  0
   60.9544   30.4641   49.1456 H   0  0  0  0  0  0  0  0  0  0  0  0
   60.6979   34.0437   50.8199 H   0  0  0  0  0  0  0  0  0  0  0  0
   59.4940   35.6490   49.1590 H   0  0  0  0  0  0  0  0  0  0  0  0
   58.3577   35.4203   46.6766 H   0  0  0  0  0  0  0  0  0  0  0  0
   57.8925   33.7654   44.8323 H   0  0  0  0  0  0  0  0  0  0  0  0
   58.6300   31.3823   45.0655 H   0  0  0  0  0  0  0  0  0  0  0  0
   59.8005   30.6180   47.1625 H   0  0  0  0  0  0  0  0  0  0  0  0
   58.3580   31.4400   50.4930 H   0  0  0  0  0  0  0  0  0  0  0  0
   58.5381   29.2187   52.4163 H   0  0  0  0  0  0  0  0  0  0  0  0
   57.4870   30.7543   54.2811 H   0  0  0  0  0  0  0  0  0  0  0  0
   59.2916   30.6020   54.0651 H   0  0  0  0  0  0  0  0  0  0  0  0
   59.9746   32.9736   55.0371 H   0  0  0  0  0  0  0  0  0  0  0  0
   59.6195   35.4721   54.0799 H   0  0  0  0  0  0  0  0  0  0  0  0
   57.8243   35.3043   52.1115 H   0  0  0  0  0  0  0  0  0  0  0  0
   57.1170   32.8190   51.8620 H   0  0  0  0  0  0  0  0  0  0  0  0
   54.4518   28.2172   53.7022 H   0  0  0  0  0  0  0  0  0  0  0  0
   55.2490   29.7115   54.3143 H   0  0  0  0  0  0  0  0  0  0  0  0
   54.2874   29.6360   50.7749 H   0  0  0  0  0  0  0  0  0  0  0  0
   52.4321   31.0086   49.8225 H   0  0  0  0  0  0  0  0  0  0  0  0
   51.0731   31.9568   53.8201 H   0  0  0  0  0  0  0  0  0  0  0  0
   52.9314   30.5955   54.7790 H   0  0  0  0  0  0  0  0  0  0  0  0
  1  2  2  0
  2  3  1  0
  3  4  1  0
  4  5  2  0
  5  6  1  0
  6  7  1  0
  7  8  2  0
  8  9  1  0
  9 10  2  0
 10 11  1  0
 11 12  2  0
  2 13  1  0
 13 14  1  0
 14 15  1  0
 15 16  1  0
 16 17  2  0
 17 18  1  0
 18 19  2  0
 19 20  1  0
 14 21  1  0
 21 22  2  0
 21 23  1  0
 23 24  1  0
 24 25  1  0
 25 26  2  0
 26 27  1  0
 27 28  2  0
 28 29  1  0
 28 30  1  0
 30 31  2  0
 12  4  1  0
 20 16  1  0
 31 25  1  0
 12  7  1  0
  3 32  1  0
  3 33  1  0
  5 34  1  0
  6 35  1  0
  8 36  1  0
  9 37  1  0
 10 38  1  0
 11 39  1  0
 13 40  1  0
 14 41  1  1
 15 42  1  0
 15 43  1  0
 17 44  1  0
 18 45  1  0
 19 46  1  0
 20 47  1  0
 24 48  1  0
 24 49  1  0
 26 50  1  0
 27 51  1  0
 30 52  1  0
 31 53  1  0
M  CHG  2  23  -1  29  -1
M  END
>  <UniqueID>  (41) 
38

>  <SMILES>  (41) 
O=C(Cc1c[nH]c2ccccc12)N[C@@H](Cc1ccc[nH]1)C(=O)[N-]Cc1ccc([O-])cc1

>  <Energy>  (41) 
102.6060973633737

>  <Genealogy>  (41) 
O=C(Cc1c[nH]c2ccccc12)NC(Cc1ccc[nH]1)C(=O)[N-]Cc1ccc([O-])cc1 (protonated)
O=C(Cc1c[nH]c2ccccc12)N[C@@H](Cc1ccc[nH]1)C(=O)[N-]Cc1ccc([O-])cc1 (chirality)
O=C(Cc1c[nH]c2ccccc12)N[C@@H](Cc1ccc[nH]1)C(=O)[N-]Cc1ccc([O-])cc1 (3D coordinates assigned)
O=C(Cc1c[nH]c2ccccc12)N[C@@H](Cc1ccc[nH]1)C(=O)[N-]Cc1ccc([O-])cc1 (optimized conformer: 102.6060973633737 kcal/mol)

>  <smiles>  (41) 
O=C(Cc1c[nH]c2ccccc12)NC(Cc1ccc[nH]1)C(=O)NCc1ccc(O)cc1

>  <score_type>  (41) 
oracle

>  <origin>  (41) 
adg

>  <m_score__min__energy>  (41) 
-13.1

>  <m_primary>  (41) 
energy

$$$$
41:0
     RDKit          3D

 47 50  0  0  0  0  0  0  0  0999 V2000
   57.7140   31.8490   43.2040 C   0  0  0  0  0  0  0  0  0  0  0  0
   57.3810   30.7470   43.8770 C   0  0  0  0  0  0  0  0  0  0  0  0
   56.1300   30.1390   43.7000 C   0  0  0  0  0  0  0  0  0  0  0  0
   55.8270   29.0170   44.4030 N   0  0  0  0  0  0  0  0  0  0  0  0
   56.7100   28.4660   45.2780 C   0  0  0  0  0  0  0  0  0  0  0  0
   56.3710   27.3110   45.9880 C   0  0  0  0  0  0  0  0  0  0  0  0
   55.1280   26.7130   45.8090 O   0  0  0  0  0  0  0  0  0  0  0  0
   57.2830   26.7530   46.8830 C   0  0  0  0  0  0  0  0  0  0  0  0
   58.5370   27.3380   47.0750 C   0  0  0  0  0  0  0  0  0  0  0  0
   58.9100   28.5090   46.3710 C   0  0  0  0  0  0  0  0  0  0  0  0
   60.1240   29.0860   46.5510 C   0  0  0  0  0  0  0  0  0  0  0  0
   60.8980   29.0800   47.8460 C   0  0  0  0  0  0  0  0  0  0  0  0
   60.3430   30.0830   48.8280 C   0  0  0  0  0  0  0  0  0  0  0  0
   59.5010   29.6860   49.6820 O   0  0  0  0  0  0  0  0  0  0  0  0
   60.6950   31.4850   48.7660 N   0  0  0  0  0  0  0  0  0  0  0  0
   61.3770   32.0370   47.5830 C   0  0  0  0  0  0  0  0  0  0  0  0
   61.4000   33.5730   47.5910 C   0  0  0  0  0  0  0  0  0  0  0  0
   60.0540   34.1820   48.0370 C   0  0  0  0  0  0  0  0  0  0  0  0
   59.0700   34.1380   46.9390 N   0  0  0  0  0  0  0  0  0  0  0  0
   59.0400   34.9490   45.8660 C   0  0  0  0  0  0  0  0  0  0  0  0
   59.9120   36.0100   45.6490 O   0  0  0  0  0  0  0  0  0  0  0  0
   58.0290   34.5620   45.0180 C   0  0  0  0  0  0  0  0  0  0  0  0
   57.4130   33.4820   45.5390 N   0  0  0  0  0  0  0  0  0  0  0  0
   58.0740   33.2530   46.6950 C   0  0  0  0  0  0  0  0  0  0  0  0
   57.7800   32.2970   47.4600 O   0  0  0  0  0  0  0  0  0  0  0  0
   59.4980   33.5600   49.3490 C   0  0  0  0  0  0  0  0  0  0  0  0
   60.3450   32.3920   49.8710 C   0  0  0  0  0  0  0  0  0  0  0  0
   57.9750   29.0700   45.4630 C   0  0  0  0  0  0  0  0  0  0  0  0
   58.2650   30.1960   44.7510 N   0  0  0  0  0  0  0  0  0  0  0  0
   58.7007   32.3102   43.3577 H   0  0  0  0  0  0  0  0  0  0  0  0
   57.0019   32.2968   42.4952 H   0  0  0  0  0  0  0  0  0  0  0  0
   55.3999   30.5672   42.9975 H   0  0  0  0  0  0  0  0  0  0  0  0
   57.0130   25.8451   47.4423 H   0  0  0  0  0  0  0  0  0  0  0  0
   59.2449   26.8826   47.7832 H   0  0  0  0  0  0  0  0  0  0  0  0
   60.5781   29.5963   45.6888 H   0  0  0  0  0  0  0  0  0  0  0  0
   60.8419   28.0756   48.2911 H   0  0  0  0  0  0  0  0  0  0  0  0
   61.9404   29.3537   47.6258 H   0  0  0  0  0  0  0  0  0  0  0  0
   62.4128   31.6672   47.5665 H   0  0  0  0  0  0  0  0  0  0  0  0
   60.8218   31.7121   46.6907 H   0  0  0  0  0  0  0  0  0  0  0  0
   62.1862   33.9104   48.2824 H   0  0  0  0  0  0  0  0  0  0  0  0
   61.5945   33.9097   46.5620 H   0  0  0  0  0  0  0  0  0  0  0  0
   60.2491   35.2370   48.2795 H   0  0  0  0  0  0  0  0  0  0  0  0
   57.7659   35.0533   44.0696 H   0  0  0  0  0  0  0  0  0  0  0  0
   59.4679   34.3426   50.1215 H   0  0  0  0  0  0  0  0  0  0  0  0
   58.4973   33.1628   49.1237 H   0  0  0  0  0  0  0  0  0  0  0  0
   61.2669   32.7856   50.3241 H   0  0  0  0  0  0  0  0  0  0  0  0
   59.7654   31.8357   50.6224 H   0  0  0  0  0  0  0  0  0  0  0  0
  1  2  2  0
  2  3  1  0
  3  4  2  0
  4  5  1  0
  5  6  2  0
  6  7  1  0
  6  8  1  0
  8  9  2  0
  9 10  1  0
 10 11  2  3
 11 12  1  0
 12 13  1  0
 13 14  2  0
 13 15  1  0
 15 16  1  0
 16 17  1  0
 17 18  1  0
 18 19  1  0
 19 20  1  0
 20 21  1  0
 20 22  2  0
 22 23  1  0
 23 24  1  0
 24 25  2  0
 18 26  1  0
 26 27  1  0
 10 28  1  0
 28 29  2  0
 29  2  1  0
 28  5  1  0
 27 15  1  0
 24 19  1  0
  1 30  1  0
  1 31  1  0
  3 32  1  0
  8 33  1  0
  9 34  1  0
 11 35  1  0
 12 36  1  0
 12 37  1  0
 16 38  1  0
 16 39  1  0
 17 40  1  0
 17 41  1  0
 18 42  1  0
 22 43  1  0
 26 44  1  0
 26 45  1  0
 27 46  1  0
 27 47  1  0
M  CHG  3   7  -1  21  -1  23  -1
M  END
>  <UniqueID>  (42) 
39

>  <SMILES>  (42) 
C=c1cnc2c([O-])ccc(=CCC(=O)N3CCC(n4c([O-])c[n-]c4=O)CC3)c2n1

>  <Energy>  (42) 
95.28977759042525

>  <Genealogy>  (42) 
C=c1cnc2c([O-])ccc(=CCC(=O)N3CCC(n4c([O-])c[n-]c4=O)CC3)c2n1 (protonated)
C=c1cnc2c([O-])ccc(=CCC(=O)N3CCC(n4c([O-])c[n-]c4=O)CC3)c2n1 (3D coordinates assigned)
C=c1cnc2c([O-])ccc(=CCC(=O)N3CCC(n4c([O-])c[n-]c4=O)CC3)c2n1 (nonaromatic ring conformer: 95.28977759042525 kcal/mol)

>  <smiles>  (42) 
C=c1cnc2c(O)ccc(=CCC(=O)N3CCC(n4c(O)c[nH]c4=O)CC3)c2n1

>  <score_type>  (42) 
oracle

>  <origin>  (42) 
adg

>  <m_score__min__energy>  (42) 
-14.119999999999999

>  <m_primary>  (42) 
energy

$$$$
42:0
     RDKit          3D

 43 45  0  0  0  0  0  0  0  0999 V2000
   57.5780   31.5000   42.6810 C   0  0  0  0  0  0  0  0  0  0  0  0
   57.0230   32.0170   44.0050 C   0  0  1  0  0  0  0  0  0  0  0  0
   56.9040   30.9030   44.9440 N   0  0  0  0  0  0  0  0  0  0  0  0
   56.3990   29.5970   44.6340 C   0  0  0  0  0  0  0  0  0  0  0  0
   55.1860   29.3500   44.8720 O   0  0  0  0  0  0  0  0  0  0  0  0
   57.2660   28.5510   43.9770 C   0  0  0  0  0  0  0  0  0  0  0  0
   58.3770   28.0850   44.8820 C   0  0  0  0  0  0  0  0  0  0  0  0
   59.6630   28.6410   44.7680 C   0  0  0  0  0  0  0  0  0  0  0  0
   60.6870   28.2270   45.6260 C   0  0  0  0  0  0  0  0  0  0  0  0
   60.4330   27.2650   46.6070 C   0  0  0  0  0  0  0  0  0  0  0  0
   59.1550   26.7160   46.7350 C   0  0  0  0  0  0  0  0  0  0  0  0
   58.1270   27.1260   45.8790 C   0  0  0  0  0  0  0  0  0  0  0  0
   57.9340   33.0830   44.5640 C   0  0  0  0  0  0  0  0  0  0  0  0
   58.8430   33.5230   43.8730 O   0  0  0  0  0  0  0  0  0  0  0  0
   57.6940   33.6240   45.9500 C   0  0  0  0  0  0  0  0  0  0  0  0
   58.8640   33.4400   46.8090 N   0  0  0  0  0  0  0  0  0  0  0  0
   59.6520   34.4790   47.3950 C   0  0  0  0  0  0  0  0  0  0  0  0
   59.5900   35.6930   47.0640 O   0  0  0  0  0  0  0  0  0  0  0  0
   60.5080   33.9290   48.4360 C   0  0  0  0  0  0  0  0  0  0  0  0
   61.3330   34.5540   49.1530 O   0  0  0  0  0  0  0  0  0  0  0  0
   60.1960   32.5100   48.4880 C   0  0  0  0  0  0  0  0  0  0  0  0
   60.6830   31.5080   49.3240 C   0  0  0  0  0  0  0  0  0  0  0  0
   60.1620   30.2110   49.1770 C   0  0  0  0  0  0  0  0  0  0  0  0
   60.7960   28.8010   50.2970 Br  0  0  0  0  0  0  0  0  0  0  0  0
   59.1660   29.9480   48.2110 C   0  0  0  0  0  0  0  0  0  0  0  0
   58.6860   30.9760   47.3820 C   0  0  0  0  0  0  0  0  0  0  0  0
   59.2230   32.2570   47.5350 C   0  0  0  0  0  0  0  0  0  0  0  0
   58.3698   30.7624   42.8784 H   0  0  0  0  0  0  0  0  0  0  0  0
   56.7700   31.0253   42.1051 H   0  0  0  0  0  0  0  0  0  0  0  0
   57.9943   32.3396   42.1051 H   0  0  0  0  0  0  0  0  0  0  0  0
   56.0293   32.4598   43.8424 H   0  0  0  0  0  0  0  0  0  0  0  0
   56.6393   27.6870   43.7110 H   0  0  0  0  0  0  0  0  0  0  0  0
   57.7234   29.0024   43.0843 H   0  0  0  0  0  0  0  0  0  0  0  0
   59.8646   29.4040   44.0017 H   0  0  0  0  0  0  0  0  0  0  0  0
   61.6938   28.6593   45.5284 H   0  0  0  0  0  0  0  0  0  0  0  0
   61.2405   26.9396   47.2793 H   0  0  0  0  0  0  0  0  0  0  0  0
   58.9566   25.9606   47.5096 H   0  0  0  0  0  0  0  0  0  0  0  0
   57.1200   26.6966   45.9865 H   0  0  0  0  0  0  0  0  0  0  0  0
   57.4678   34.6982   45.8799 H   0  0  0  0  0  0  0  0  0  0  0  0
   56.8511   33.0737   46.3934 H   0  0  0  0  0  0  0  0  0  0  0  0
   61.4537   31.7257   50.0781 H   0  0  0  0  0  0  0  0  0  0  0  0
   58.7626   28.9300   48.1067 H   0  0  0  0  0  0  0  0  0  0  0  0
   57.9069   30.7773   46.6313 H   0  0  0  0  0  0  0  0  0  0  0  0
  1  2  1  0
  2  3  1  0
  3  4  1  0
  4  5  2  0
  4  6  1  0
  6  7  1  0
  7  8  2  0
  8  9  1  0
  9 10  2  0
 10 11  1  0
 11 12  2  0
  2 13  1  0
 13 14  2  0
 13 15  1  0
 15 16  1  0
 16 17  1  0
 17 18  2  0
 17 19  1  0
 19 20  2  0
 19 21  1  0
 21 22  2  0
 22 23  1  0
 23 24  1  0
 23 25  2  0
 25 26  1  0
 26 27  2  0
 12  7  1  0
 27 16  1  0
 27 21  1  0
  1 28  1  0
  1 29  1  0
  1 30  1  0
  2 31  1  6
  6 32  1  0
  6 33  1  0
  8 34  1  0
  9 35  1  0
 10 36  1  0
 11 37  1  0
 12 38  1  0
 15 39  1  0
 15 40  1  0
 22 41  1  0
 25 42  1  0
 26 43  1  0
M  CHG  1   3  -1
M  END
>  <UniqueID>  (43) 
40

>  <SMILES>  (43) 
C[C@@H]([N-]C(=O)Cc1ccccc1)C(=O)CN1C(=O)C(=O)c2cc(Br)ccc21

>  <Energy>  (43) 
70.01299714122061

>  <Genealogy>  (43) 
CC([N-]C(=O)Cc1ccccc1)C(=O)CN1C(=O)C(=O)c2cc(Br)ccc21 (protonated)
C[C@@H]([N-]C(=O)Cc1ccccc1)C(=O)CN1C(=O)C(=O)c2cc(Br)ccc21 (chirality)
C[C@@H]([N-]C(=O)Cc1ccccc1)C(=O)CN1C(=O)C(=O)c2cc(Br)ccc21 (3D coordinates assigned)
C[C@@H]([N-]C(=O)Cc1ccccc1)C(=O)CN1C(=O)C(=O)c2cc(Br)ccc21 (nonaromatic ring conformer: 70.01299714122061 kcal/mol)

>  <smiles>  (43) 
CC(NC(=O)Cc1ccccc1)C(=O)CN1C(=O)C(=O)c2cc(Br)ccc21

>  <score_type>  (43) 
oracle

>  <origin>  (43) 
adg

>  <m_score__min__energy>  (43) 
-11.67

>  <m_primary>  (43) 
energy

$$$$
43:0
     RDKit          3D

 40 41  0  0  0  0  0  0  0  0999 V2000
   59.9680   26.4720   46.3620 C   0  0  0  0  0  0  0  0  0  0  0  0
   58.6440   25.7460   46.3100 C   0  0  0  0  0  0  0  0  0  0  0  0
   58.6530   24.3510   46.3270 C   0  0  0  0  0  0  0  0  0  0  0  0
   57.4510   23.6590   46.2910 C   0  0  0  0  0  0  0  0  0  0  0  0
   57.4710   22.3980   46.3290 O   0  0  0  0  0  0  0  0  0  0  0  0
   56.2660   24.3400   46.2250 N   0  0  0  0  0  0  0  0  0  0  0  0
   54.9910   23.6010   46.2290 C   0  0  0  0  0  0  0  0  0  0  0  0
   56.2630   25.7130   46.2340 C   0  0  0  0  0  0  0  0  0  0  0  0
   55.1620   26.3340   46.2430 O   0  0  0  0  0  0  0  0  0  0  0  0
   57.4450   26.4200   46.2400 N   0  0  0  0  0  0  0  0  0  0  0  0
   57.4070   27.9000   46.2280 C   0  0  0  0  0  0  0  0  0  0  0  0
   56.8540   28.4250   44.9250 C   0  0  0  0  0  0  0  0  0  0  0  0
   57.4750   28.2080   43.8510 O   0  0  0  0  0  0  0  0  0  0  0  0
   55.6730   29.2370   44.8840 N   0  0  0  0  0  0  0  0  0  0  0  0
   55.5180   30.4600   44.1040 C   0  0  0  0  0  0  0  0  0  0  0  0
   56.8820   30.9560   43.6180 C   0  0  0  0  0  0  0  0  0  0  0  0
   57.5110   31.8630   44.6410 C   0  0  0  0  0  0  0  0  0  0  0  0
   57.4480   33.2570   44.4880 C   0  0  0  0  0  0  0  0  0  0  0  0
   58.0620   34.0970   45.4240 C   0  0  0  0  0  0  0  0  0  0  0  0
   58.7520   33.5490   46.5110 C   0  0  0  0  0  0  0  0  0  0  0  0
   59.5230   34.6040   47.6820 Cl  0  0  0  0  0  0  0  0  0  0  0  0
   58.8310   32.1610   46.6600 C   0  0  0  0  0  0  0  0  0  0  0  0
   58.2180   31.3190   45.7260 C   0  0  0  0  0  0  0  0  0  0  0  0
   60.2580   26.6310   47.4111 H   0  0  0  0  0  0  0  0  0  0  0  0
   60.7368   25.8693   45.8564 H   0  0  0  0  0  0  0  0  0  0  0  0
   59.8731   27.4443   45.8564 H   0  0  0  0  0  0  0  0  0  0  0  0
   59.6063   23.8037   46.3686 H   0  0  0  0  0  0  0  0  0  0  0  0
   54.6762   23.4185   47.2671 H   0  0  0  0  0  0  0  0  0  0  0  0
   54.2222   24.1935   45.7115 H   0  0  0  0  0  0  0  0  0  0  0  0
   55.1229   22.6394   45.7115 H   0  0  0  0  0  0  0  0  0  0  0  0
   56.7696   28.2486   47.0539 H   0  0  0  0  0  0  0  0  0  0  0  0
   58.4348   28.2742   46.3443 H   0  0  0  0  0  0  0  0  0  0  0  0
   54.8748   30.2572   43.2350 H   0  0  0  0  0  0  0  0  0  0  0  0
   55.0610   31.2337   44.7384 H   0  0  0  0  0  0  0  0  0  0  0  0
   57.5410   30.0920   43.4471 H   0  0  0  0  0  0  0  0  0  0  0  0
   56.7423   31.5188   42.6832 H   0  0  0  0  0  0  0  0  0  0  0  0
   56.9142   33.6906   43.6295 H   0  0  0  0  0  0  0  0  0  0  0  0
   58.0021   35.1889   45.3051 H   0  0  0  0  0  0  0  0  0  0  0  0
   59.3760   31.7304   47.5130 H   0  0  0  0  0  0  0  0  0  0  0  0
   58.2899   30.2275   45.8417 H   0  0  0  0  0  0  0  0  0  0  0  0
  1  2  1  0
  2  3  2  0
  3  4  1  0
  4  5  2  0
  4  6  1  0
  6  7  1  0
  6  8  1  0
  8  9  2  0
  8 10  1  0
 10 11  1  0
 11 12  1  0
 12 13  2  0
 12 14  1  0
 14 15  1  0
 15 16  1  0
 16 17  1  0
 17 18  2  0
 18 19  1  0
 19 20  2  0
 20 21  1  0
 20 22  1  0
 22 23  2  0
 10  2  1  0
 23 17  1  0
  1 24  1  0
  1 25  1  0
  1 26  1  0
  3 27  1  0
  7 28  1  0
  7 29  1  0
  7 30  1  0
 11 31  1  0
 11 32  1  0
 15 33  1  0
 15 34  1  0
 16 35  1  0
 16 36  1  0
 18 37  1  0
 19 38  1  0
 22 39  1  0
 23 40  1  0
M  CHG  1  14  -1
M  END
>  <UniqueID>  (44) 
41

>  <SMILES>  (44) 
Cc1cc(=O)n(C)c(=O)n1CC(=O)[N-]CCc1ccc(Cl)cc1

>  <Energy>  (44) 
43.76758228768908

>  <Genealogy>  (44) 
Cc1cc(=O)n(C)c(=O)n1CC(=O)[N-]CCc1ccc(Cl)cc1 (protonated)
Cc1cc(=O)n(C)c(=O)n1CC(=O)[N-]CCc1ccc(Cl)cc1 (3D coordinates assigned)
Cc1cc(=O)n(C)c(=O)n1CC(=O)[N-]CCc1ccc(Cl)cc1 (optimized conformer: 43.76758228768908 kcal/mol)

>  <smiles>  (44) 
Cc1cc(=O)n(C)c(=O)n1CC(=O)NCCc1ccc(Cl)cc1

>  <score_type>  (44) 
oracle

>  <origin>  (44) 
adg

>  <m_score__min__energy>  (44) 
-9.6699999999999999

>  <m_primary>  (44) 
energy

$$$$
44:0
     RDKit          3D

 57 60  0  0  0  0  0  0  0  0999 V2000
   51.6797   28.9632   52.9533 H   0  0  0  0  0  0  0  0  0  0  0  0
   52.5920   28.3620   53.0810 C   0  0  0  0  0  0  0  0  0  0  0  0
   52.5161   27.2830   53.2812 H   0  0  0  0  0  0  0  0  0  0  0  0
   53.8040   28.9480   52.9920 C   0  0  0  0  0  0  0  0  0  0  0  0
   54.9300   28.1180   53.1660 C   0  0  0  0  0  0  0  0  0  0  0  0
   54.7850   27.0385   53.3199 H   0  0  0  0  0  0  0  0  0  0  0  0
   56.2200   28.6360   53.1470 C   0  0  0  0  0  0  0  0  0  0  0  0
   57.0791   27.9664   53.3011 H   0  0  0  0  0  0  0  0  0  0  0  0
   56.4340   29.9990   52.9340 C   0  0  0  0  0  0  0  0  0  0  0  0
   57.8110   30.5460   52.9220 C   0  0  0  0  0  0  0  0  0  0  0  0
   58.4260   30.7210   54.0090 O   0  0  0  0  0  0  0  0  0  0  0  0
   58.4490   30.9090   51.6890 N   0  0  0  0  0  0  0  0  0  0  0  0
   58.7110   29.8700   50.6820 C   0  0  0  0  0  0  0  0  0  0  0  0
   59.4299   29.1465   51.0939 H   0  0  0  0  0  0  0  0  0  0  0  0
   57.7575   29.3792   50.4370 H   0  0  0  0  0  0  0  0  0  0  0  0
   59.2890   30.4680   49.3930 C   0  0  0  0  0  0  0  0  0  0  0  0
   60.3610   30.6703   49.5337 H   0  0  0  0  0  0  0  0  0  0  0  0
   59.1502   29.7532   48.5685 H   0  0  0  0  0  0  0  0  0  0  0  0
   58.5620   31.7820   49.0520 C   0  0  0  0  0  0  0  0  0  0  0  0
   57.4867   31.5594   48.9877 H   0  0  0  0  0  0  0  0  0  0  0  0
   59.0170   32.3330   47.6850 C   0  0  0  0  0  0  0  0  0  0  0  0
   60.1158   32.3784   47.6614 H   0  0  0  0  0  0  0  0  0  0  0  0
   58.6459   31.6658   46.8931 H   0  0  0  0  0  0  0  0  0  0  0  0
   58.4690   33.6910   47.4600 N   0  0  0  0  0  0  0  0  0  0  0  0
   59.5230   34.7000   47.1660 C   0  0  0  0  0  0  0  0  0  0  0  0
   59.3465   35.5788   47.8036 H   0  0  0  0  0  0  0  0  0  0  0  0
   60.4895   34.2146   47.3665 H   0  0  0  0  0  0  0  0  0  0  0  0
   59.5590   35.1680   45.6970 C   0  0  0  0  0  0  0  0  0  0  0  0
   58.8157   35.9663   45.5553 H   0  0  0  0  0  0  0  0  0  0  0  0
   60.5698   35.5388   45.4715 H   0  0  0  0  0  0  0  0  0  0  0  0
   59.2400   34.0130   44.7470 C   0  0  0  0  0  0  0  0  0  0  0  0
   59.2435   34.3900   43.7136 H   0  0  0  0  0  0  0  0  0  0  0  0
   60.0045   33.2342   44.8850 H   0  0  0  0  0  0  0  0  0  0  0  0
   57.8640   33.3930   45.0470 C   0  0  0  0  0  0  0  0  0  0  0  0
   57.1338   33.7945   44.3290 H   0  0  0  0  0  0  0  0  0  0  0  0
   57.9668   32.3014   44.9582 H   0  0  0  0  0  0  0  0  0  0  0  0
   57.3690   33.6970   46.4740 C   0  0  0  0  0  0  0  0  0  0  0  0
   56.8934   34.6888   46.4801 H   0  0  0  0  0  0  0  0  0  0  0  0
   56.6562   32.9091   46.7589 H   0  0  0  0  0  0  0  0  0  0  0  0
   58.7690   32.8410   50.1670 C   0  0  0  0  0  0  0  0  0  0  0  0
   59.6174   33.4813   49.8838 H   0  0  0  0  0  0  0  0  0  0  0  0
   57.8274   33.4030   50.2535 H   0  0  0  0  0  0  0  0  0  0  0  0
   59.0590   32.2360   51.5540 C   0  0  0  0  0  0  0  0  0  0  0  0
   60.1473   32.1463   51.6865 H   0  0  0  0  0  0  0  0  0  0  0  0
   58.6295   32.8977   52.3206 H   0  0  0  0  0  0  0  0  0  0  0  0
   55.3290   30.8440   52.7530 C   0  0  0  0  0  0  0  0  0  0  0  0
   55.4996   31.9186   52.5915 H   0  0  0  0  0  0  0  0  0  0  0  0
   53.9990   30.3540   52.7720 C   0  0  0  0  0  0  0  0  0  0  0  0
   52.9640   31.2040   52.5310 C   0  0  0  0  0  0  0  0  0  0  0  0
   52.6423   31.8513   53.3601 H   0  0  0  0  0  0  0  0  0  0  0  0
   52.2350   31.3330   51.2530 C   0  0  0  0  0  0  0  0  0  0  0  0
   52.2210   30.3720   50.3130 N   0  0  0  0  0  0  0  0  0  0  0  0
   51.3510   30.8430   49.3930 C   0  0  0  0  0  0  0  0  0  0  0  0
   51.0750   30.2160   48.3370 O   0  0  0  0  0  0  0  0  0  0  0  0
   50.7900   32.0320   49.7000 N   0  0  0  0  0  0  0  0  0  0  0  0
   51.3470   32.3230   50.8870 C   0  0  0  0  0  0  0  0  0  0  0  0
   51.0200   33.4470   51.6350 O   0  0  0  0  0  0  0  0  0  0  0  0
  1  2  1  0
  2  3  1  0
  2  4  2  0
  4  5  1  0
  5  6  1  0
  5  7  2  0
  7  8  1  0
  7  9  1  0
  9 10  1  0
 10 11  2  0
 10 12  1  0
 12 13  1  0
 13 14  1  0
 13 15  1  0
 13 16  1  0
 16 17  1  0
 16 18  1  0
 16 19  1  0
 19 20  1  0
 19 21  1  0
 21 22  1  0
 21 23  1  0
 21 24  1  0
 24 25  1  0
 25 26  1  0
 25 27  1  0
 25 28  1  0
 28 29  1  0
 28 30  1  0
 28 31  1  0
 31 32  1  0
 31 33  1  0
 31 34  1  0
 34 35  1  0
 34 36  1  0
 34 37  1  0
 37 38  1  0
 37 39  1  0
 19 40  1  0
 40 41  1  0
 40 42  1  0
 40 43  1  0
 43 44  1  0
 43 45  1  0
  9 46  2  0
 46 47  1  0
 46 48  1  0
 48 49  2  0
 49 50  1  0
 49 51  1  0
 51 52  1  0
 52 53  1  0
 53 54  2  0
 53 55  1  0
 55 56  1  0
 56 57  1  0
 48  4  1  0
 56 51  2  0
 43 12  1  0
 37 24  1  0
M  CHG  3  52  -1  55  -1  57  -1
M  END
>  <UniqueID>  (45) 
42

>  <SMILES>  (45) 
C=c1ccc(C(=O)N2CCC(CN3CCCCC3)CC2)c/c1=C\c1[n-]c(=O)[n-]c1[O-]

>  <Energy>  (45) 
116.57583805605057

>  <Genealogy>  (45) 
C=c1ccc(C(=O)N2CCC(CN3CCCCC3)CC2)cc1=Cc1[n-]c(=O)[n-]c1[O-] (protonated)
C=c1ccc(C(=O)N2CCC(CN3CCCCC3)CC2)c/c1=C\c1[n-]c(=O)[n-]c1[O-] (cis-trans isomerization)
C=c1ccc(C(=O)N2CCC(CN3CCCCC3)CC2)c/c1=C\c1[n-]c(=O)[n-]c1[O-] (3D coordinates assigned)
C=c1ccc(C(=O)N2CCC(CN3CCCCC3)CC2)c/c1=C\c1[n-]c(=O)[n-]c1[O-] (nonaromatic ring conformer: 116.57583805605057 kcal/mol)

>  <smiles>  (45) 
C=c1ccc(C(=O)N2CCC(CN3CCCCC3)CC2)cc1=Cc1[nH]c(=O)[nH]c1O

>  <score_type>  (45) 
oracle

>  <origin>  (45) 
adg

>  <m_score__min__energy>  (45) 
-18.98

>  <m_primary>  (45) 
energy

$$$$
45:0
     RDKit          3D

 52 54  0  0  0  0  0  0  0  0999 V2000
   55.6960   23.2010   47.8370 C   0  0  0  0  0  0  0  0  0  0  0  0
   56.8880   23.0790   46.8660 C   0  0  1  0  0  0  0  0  0  0  0  0
   56.7120   21.8020   46.0090 C   0  0  0  0  0  0  0  0  0  0  0  0
   57.7900   21.5980   44.8950 C   0  0  1  0  0  0  0  0  0  0  0  0
   57.1210   21.1710   43.6250 N   0  0  0  0  0  0  0  0  0  0  0  0
   56.3210   22.2820   43.0610 C   0  0  0  0  0  0  0  0  0  0  0  0
   56.2320   20.0030   43.7880 C   0  0  0  0  0  0  0  0  0  0  0  0
   58.6700   22.8750   44.7490 C   0  0  0  0  0  0  0  0  0  0  0  0
   57.8220   24.1490   44.7420 C   0  0  0  0  0  0  0  0  0  0  0  0
   57.0250   24.2550   45.9730 N   0  0  0  0  0  0  0  0  0  0  0  0
   56.4800   25.5460   46.2950 C   0  0  0  0  0  0  0  0  0  0  0  0
   55.2280   25.6960   46.3470 O   0  0  0  0  0  0  0  0  0  0  0  0
   57.3530   26.7110   46.5090 C   0  0  0  0  0  0  0  0  0  0  0  0
   58.5000   26.7170   47.2800 C   0  0  0  0  0  0  0  0  0  0  0  0
   59.0170   27.9930   47.1990 C   0  0  0  0  0  0  0  0  0  0  0  0
   58.1470   28.7140   46.4050 C   0  0  0  0  0  0  0  0  0  0  0  0
   58.2880   30.1430   46.0700 C   0  0  0  0  0  0  0  0  0  0  0  0
   59.0550   30.9570   46.9200 C   0  0  0  0  0  0  0  0  0  0  0  0
   59.2270   32.3130   46.6400 C   0  0  0  0  0  0  0  0  0  0  0  0
   58.6210   32.8760   45.5190 C   0  0  0  0  0  0  0  0  0  0  0  0
   57.8430   32.0850   44.6700 C   0  0  0  0  0  0  0  0  0  0  0  0
   57.6580   30.7190   44.9370 C   0  0  0  0  0  0  0  0  0  0  0  0
   56.6140   29.7820   43.8530 S   0  0  0  0  0  0  0  0  0  0  0  0
   55.1470   29.3570   44.6710 N   0  0  0  0  0  0  0  0  0  0  0  0
   57.3000   28.5110   43.4350 O   0  0  0  0  0  0  0  0  0  0  0  0
   56.2840   30.6030   42.6380 O   0  0  0  0  0  0  0  0  0  0  0  0
   57.1430   27.9290   45.9740 N   0  0  0  0  0  0  0  0  0  0  0  0
   56.0622   23.1635   48.8736 H   0  0  0  0  0  0  0  0  0  0  0  0
   55.1793   24.1567   47.6650 H   0  0  0  0  0  0  0  0  0  0  0  0
   54.9964   22.3698   47.6650 H   0  0  0  0  0  0  0  0  0  0  0  0
   57.8039   23.0246   47.4728 H   0  0  0  0  0  0  0  0  0  0  0  0
   56.7481   20.9324   46.6816 H   0  0  0  0  0  0  0  0  0  0  0  0
   55.7496   21.9126   45.4879 H   0  0  0  0  0  0  0  0  0  0  0  0
   58.4834   20.7907   45.1733 H   0  0  0  0  0  0  0  0  0  0  0  0
   55.8921   22.8777   43.8802 H   0  0  0  0  0  0  0  0  0  0  0  0
   56.9672   22.9217   42.4419 H   0  0  0  0  0  0  0  0  0  0  0  0
   55.5095   21.8720   42.4419 H   0  0  0  0  0  0  0  0  0  0  0  0
   56.0806   19.8041   44.8592 H   0  0  0  0  0  0  0  0  0  0  0  0
   55.2619   20.2114   43.3131 H   0  0  0  0  0  0  0  0  0  0  0  0
   56.6913   19.1235   43.3131 H   0  0  0  0  0  0  0  0  0  0  0  0
   59.3748   22.9205   45.5923 H   0  0  0  0  0  0  0  0  0  0  0  0
   59.2058   22.8144   43.7902 H   0  0  0  0  0  0  0  0  0  0  0  0
   58.4856   25.0230   44.6661 H   0  0  0  0  0  0  0  0  0  0  0  0
   57.1373   24.1109   43.8819 H   0  0  0  0  0  0  0  0  0  0  0  0
   58.9178   25.8715   47.8461 H   0  0  0  0  0  0  0  0  0  0  0  0
   59.9385   28.3627   47.6724 H   0  0  0  0  0  0  0  0  0  0  0  0
   59.5243   30.5214   47.8145 H   0  0  0  0  0  0  0  0  0  0  0  0
   59.8415   32.9379   47.3048 H   0  0  0  0  0  0  0  0  0  0  0  0
   58.7554   33.9459   45.3018 H   0  0  0  0  0  0  0  0  0  0  0  0
   57.3713   32.5363   43.7847 H   0  0  0  0  0  0  0  0  0  0  0  0
   55.4010   29.1280   45.6580 H   0  0  0  0  0  0  0  0  0  0  0  0
   56.3420   28.2200   45.3680 H   0  0  0  0  0  0  0  0  0  0  0  0
  1  2  1  0
  2  3  1  0
  3  4  1  0
  4  5  1  0
  5  6  1  0
  5  7  1  0
  4  8  1  0
  8  9  1  0
  9 10  1  0
 10 11  1  0
 11 12  2  0
 11 13  1  0
 13 14  2  0
 14 15  1  0
 15 16  2  0
 16 17  1  0
 17 18  2  0
 18 19  1  0
 19 20  2  0
 20 21  1  0
 21 22  2  0
 22 23  1  0
 23 24  1  0
 23 25  2  0
 23 26  2  0
 16 27  1  0
 10  2  1  0
 27 13  1  0
 22 17  1  0
  1 28  1  0
  1 29  1  0
  1 30  1  0
  2 31  1  1
  3 32  1  0
  3 33  1  0
  4 34  1  1
  6 35  1  0
  6 36  1  0
  6 37  1  0
  7 38  1  0
  7 39  1  0
  7 40  1  0
  8 41  1  0
  8 42  1  0
  9 43  1  0
  9 44  1  0
 14 45  1  0
 15 46  1  0
 18 47  1  0
 19 48  1  0
 20 49  1  0
 21 50  1  0
 24 51  1  0
 27 52  1  0
M  CHG  1  24  -1
M  END
>  <UniqueID>  (46) 
43

>  <SMILES>  (46) 
C[C@H]1C[C@@H](N(C)C)CCN1C(=O)c1ccc(-c2ccccc2S([NH-])(=O)=O)[nH]1

>  <Energy>  (46) 
100.3010273567365

>  <Genealogy>  (46) 
CC1CC(N(C)C)CCN1C(=O)c1ccc(-c2ccccc2S([NH-])(=O)=O)[nH]1 (protonated)
C[C@H]1C[C@@H](N(C)C)CCN1C(=O)c1ccc(-c2ccccc2S([NH-])(=O)=O)[nH]1 (chirality)
C[C@H]1C[C@@H](N(C)C)CCN1C(=O)c1ccc(-c2ccccc2S([NH-])(=O)=O)[nH]1 (3D coordinates assigned)
C[C@H]1C[C@@H](N(C)C)CCN1C(=O)c1ccc(-c2ccccc2S([NH-])(=O)=O)[nH]1 (nonaromatic ring conformer: 100.3010273567365 kcal/mol)

>  <smiles>  (46) 
CC1CC(N(C)C)CCN1C(=O)c1ccc(-c2ccccc2S(N)(=O)=O)[nH]1

>  <score_type>  (46) 
oracle

>  <origin>  (46) 
adg

>  <m_score__min__energy>  (46) 
-10.92

>  <m_primary>  (46) 
energy

$$$$
46:0
     RDKit          3D

 60 63  0  0  0  0  0  0  0  0999 V2000
   60.3790   28.7410   45.8850 C   0  0  0  0  0  0  0  0  0  0  0  0
   58.9650   28.2360   45.8980 C   0  0  0  0  0  0  0  0  0  0  0  0
   58.7440   26.9820   46.2870 O   0  0  0  0  0  0  0  0  0  0  0  0
   57.5310   26.4400   46.3280 C   0  0  0  0  0  0  0  0  0  0  0  0
   56.4110   27.1850   45.9600 C   0  0  0  0  0  0  0  0  0  0  0  0
   55.1430   26.6130   46.0050 O   0  0  0  0  0  0  0  0  0  0  0  0
   56.5860   28.5060   45.5450 C   0  0  0  0  0  0  0  0  0  0  0  0
   55.5850   29.1970   45.2160 O   0  0  0  0  0  0  0  0  0  0  0  0
   57.8800   29.0550   45.5050 C   0  0  0  0  0  0  0  0  0  0  0  0
   58.0850   30.4600   45.0770 C   0  0  0  0  0  0  0  0  0  0  0  0
   57.8200   30.7990   43.7420 C   0  0  0  0  0  0  0  0  0  0  0  0
   58.0880   32.0860   43.2640 C   0  0  0  0  0  0  0  0  0  0  0  0
   57.7710   32.4400   41.8320 C   0  0  0  0  0  0  0  0  0  0  0  0
   58.8770   33.0600   41.2340 O   0  0  0  0  0  0  0  0  0  0  0  0
   58.6150   33.0370   44.1540 C   0  0  0  0  0  0  0  0  0  0  0  0
   58.8600   34.2120   43.7690 O   0  0  0  0  0  0  0  0  0  0  0  0
   58.8660   32.6950   45.4440 N   0  0  0  0  0  0  0  0  0  0  0  0
   58.6140   31.4500   45.9390 C   0  0  0  0  0  0  0  0  0  0  0  0
   58.9200   31.1980   47.3630 C   0  0  0  0  0  0  0  0  0  0  0  0
   59.4910   32.1000   48.0330 O   0  0  0  0  0  0  0  0  0  0  0  0
   58.5300   29.9720   48.0000 N   0  0  0  0  0  0  0  0  0  0  0  0
   59.0160   29.5750   49.3230 C   0  0  2  0  0  0  0  0  0  0  0  0
   58.8620   30.7530   50.3030 C   0  0  0  0  0  0  0  0  0  0  0  0
   57.9130   30.4270   51.4270 C   0  0  0  0  0  0  0  0  0  0  0  0
   58.1740   29.3470   52.2900 C   0  0  0  0  0  0  0  0  0  0  0  0
   57.2740   29.0290   53.3100 C   0  0  0  0  0  0  0  0  0  0  0  0
   56.1080   29.7830   53.4790 C   0  0  0  0  0  0  0  0  0  0  0  0
   55.8390   30.8540   52.6210 C   0  0  0  0  0  0  0  0  0  0  0  0
   56.7340   31.1750   51.5960 C   0  0  0  0  0  0  0  0  0  0  0  0
   60.4510   29.1360   49.2210 C   0  0  0  0  0  0  0  0  0  0  0  0
   60.7170   27.9990   48.7460 O   0  0  0  0  0  0  0  0  0  0  0  0
   61.4880   29.9700   49.7610 N   0  0  0  0  0  0  0  0  0  0  0  0
   62.1090   31.0940   49.1210 C   0  0  0  0  0  0  0  0  0  0  0  0
   62.2540   31.1770   47.7220 C   0  0  0  0  0  0  0  0  0  0  0  0
   62.8510   32.3020   47.1440 C   0  0  0  0  0  0  0  0  0  0  0  0
   63.2970   33.3520   47.9510 C   0  0  0  0  0  0  0  0  0  0  0  0
   63.1280   33.2880   49.3360 C   0  0  0  0  0  0  0  0  0  0  0  0
   62.5320   32.1640   49.9180 C   0  0  0  0  0  0  0  0  0  0  0  0
   60.7327   28.8673   46.9189 H   0  0  0  0  0  0  0  0  0  0  0  0
   61.0221   28.0170   45.3633 H   0  0  0  0  0  0  0  0  0  0  0  0
   60.4180   29.7086   45.3633 H   0  0  0  0  0  0  0  0  0  0  0  0
   57.4098   25.3966   46.6545 H   0  0  0  0  0  0  0  0  0  0  0  0
   57.3966   30.0441   43.0631 H   0  0  0  0  0  0  0  0  0  0  0  0
   57.5232   31.5234   41.2767 H   0  0  0  0  0  0  0  0  0  0  0  0
   56.9158   33.1315   41.8124 H   0  0  0  0  0  0  0  0  0  0  0  0
   59.2880   33.6390   41.9280 H   0  0  0  0  0  0  0  0  0  0  0  0
   57.7890   29.3890   47.5510 H   0  0  0  0  0  0  0  0  0  0  0  0
   58.4232   28.7301   49.7033 H   0  0  0  0  0  0  0  0  0  0  0  0
   59.8477   30.9935   50.7280 H   0  0  0  0  0  0  0  0  0  0  0  0
   58.4512   31.6084   49.7467 H   0  0  0  0  0  0  0  0  0  0  0  0
   59.0896   28.7511   52.1612 H   0  0  0  0  0  0  0  0  0  0  0  0
   57.4828   28.1835   53.9820 H   0  0  0  0  0  0  0  0  0  0  0  0
   55.4033   29.5337   54.2860 H   0  0  0  0  0  0  0  0  0  0  0  0
   54.9209   31.4454   52.7529 H   0  0  0  0  0  0  0  0  0  0  0  0
   56.5155   32.0148   50.9200 H   0  0  0  0  0  0  0  0  0  0  0  0
   61.8971   30.3556   47.0833 H   0  0  0  0  0  0  0  0  0  0  0  0
   62.9697   32.3604   46.0520 H   0  0  0  0  0  0  0  0  0  0  0  0
   63.7810   34.2286   47.4957 H   0  0  0  0  0  0  0  0  0  0  0  0
   63.4638   34.1221   49.9697 H   0  0  0  0  0  0  0  0  0  0  0  0
   62.3950   32.1209   51.0086 H   0  0  0  0  0  0  0  0  0  0  0  0
  1  2  1  0
  2  3  1  0
  3  4  1  0
  4  5  2  0
  5  6  1  0
  5  7  1  0
  7  8  2  0
  7  9  1  0
  9 10  1  0
 10 11  1  0
 11 12  2  0
 12 13  1  0
 13 14  1  0
 12 15  1  0
 15 16  2  0
 15 17  1  0
 17 18  1  0
 18 19  1  0
 19 20  2  0
 19 21  1  0
 21 22  1  0
 22 23  1  0
 23 24  1  0
 24 25  2  0
 25 26  1  0
 26 27  2  0
 27 28  1  0
 28 29  2  0
 22 30  1  0
 30 31  2  0
 30 32  1  0
 32 33  1  0
 33 34  2  0
 34 35  1  0
 35 36  2  0
 36 37  1  0
 37 38  2  0
  9  2  2  0
 18 10  2  0
 29 24  1  0
 38 33  1  0
  1 39  1  0
  1 40  1  0
  1 41  1  0
  4 42  1  0
 11 43  1  0
 13 44  1  0
 13 45  1  0
 14 46  1  0
 21 47  1  0
 22 48  1  1
 23 49  1  0
 23 50  1  0
 25 51  1  0
 26 52  1  0
 27 53  1  0
 28 54  1  0
 29 55  1  0
 34 56  1  0
 35 57  1  0
 36 58  1  0
 37 59  1  0
 38 60  1  0
M  CHG  3   6  -1  17  -1  32  -1
M  END
>  <UniqueID>  (47) 
44

>  <SMILES>  (47) 
Cc1occ([O-])c(=O)c1-c1cc(CO)c(=O)[n-]c1C(=O)N[C@H](Cc1ccccc1)C(=O)[N-]c1ccccc1

>  <Energy>  (47) 
76.32999840573262

>  <Genealogy>  (47) 
Cc1occ([O-])c(=O)c1-c1cc(CO)c(=O)[n-]c1C(=O)NC(Cc1ccccc1)C(=O)[N-]c1ccccc1 (protonated)
Cc1occ([O-])c(=O)c1-c1cc(CO)c(=O)[n-]c1C(=O)N[C@H](Cc1ccccc1)C(=O)[N-]c1ccccc1 (chirality)
Cc1occ([O-])c(=O)c1-c1cc(CO)c(=O)[n-]c1C(=O)N[C@H](Cc1ccccc1)C(=O)[N-]c1ccccc1 (3D coordinates assigned)
Cc1occ([O-])c(=O)c1-c1cc(CO)c(=O)[n-]c1C(=O)N[C@H](Cc1ccccc1)C(=O)[N-]c1ccccc1 (optimized conformer: 76.32999840573262 kcal/mol)

>  <smiles>  (47) 
Cc1occ(O)c(=O)c1-c1cc(CO)c(=O)[nH]c1C(=O)NC(Cc1ccccc1)C(=O)Nc1ccccc1

>  <score_type>  (47) 
oracle

>  <origin>  (47) 
adg

>  <m_score__min__energy>  (47) 
-13.859999999999999

>  <m_primary>  (47) 
energy

$$$$
47:0
     RDKit          3D

 55 59  0  0  0  0  0  0  0  0999 V2000
   54.2170   23.7410   44.1200 C   0  0  0  0  0  0  0  0  0  0  0  0
   55.6250   23.2210   44.1600 C   0  0  0  0  0  0  0  0  0  0  0  0
   55.9100   22.0770   43.4760 N   0  0  0  0  0  0  0  0  0  0  0  0
   57.1570   21.5410   43.4460 C   0  0  0  0  0  0  0  0  0  0  0  0
   58.1990   22.1620   44.1320 C   0  0  0  0  0  0  0  0  0  0  0  0
   57.9440   23.3270   44.8510 C   0  0  0  0  0  0  0  0  0  0  0  0
   56.6520   23.8790   44.8780 C   0  0  0  0  0  0  0  0  0  0  0  0
   56.4070   25.1100   45.6680 C   0  0  0  0  0  0  0  0  0  0  0  0
   55.2360   25.3860   46.0390 O   0  0  0  0  0  0  0  0  0  0  0  0
   57.4880   25.9790   46.0440 N   0  0  0  0  0  0  0  0  0  0  0  0
   58.2120   25.9340   47.3230 C   0  0  0  0  0  0  0  0  0  0  0  0
   59.0480   27.2460   47.3790 C   0  0  0  0  0  0  0  0  0  0  0  0
   58.7640   27.8760   46.1040 N   0  0  0  0  0  0  0  0  0  0  0  0
   57.8670   27.1860   45.4140 C   0  0  0  0  0  0  0  0  0  0  0  0
   57.1030   27.9290   44.5720 N   0  0  0  0  0  0  0  0  0  0  0  0
   57.6220   29.1650   44.7560 C   0  0  0  0  0  0  0  0  0  0  0  0
   57.1780   30.3610   44.2030 C   0  0  0  0  0  0  0  0  0  0  0  0
   57.7590   31.5570   44.6670 C   0  0  0  0  0  0  0  0  0  0  0  0
   58.7350   31.5400   45.7010 C   0  0  0  0  0  0  0  0  0  0  0  0
   59.3250   32.8110   46.1790 C   0  0  0  0  0  0  0  0  0  0  0  0
   58.6160   33.8560   46.1650 O   0  0  0  0  0  0  0  0  0  0  0  0
   60.6860   32.8900   46.6450 N   0  0  0  0  0  0  0  0  0  0  0  0
   61.2910   31.7880   47.4070 C   0  0  0  0  0  0  0  0  0  0  0  0
   62.0150   32.3380   48.6410 C   0  0  0  0  0  0  0  0  0  0  0  0
   63.0070   33.4900   48.3100 C   0  0  0  0  0  0  0  0  0  0  0  0
   64.4520   33.0910   48.6340 C   0  0  0  0  0  0  0  0  0  0  0  0
   62.9080   33.9740   46.8460 C   0  0  0  0  0  0  0  0  0  0  0  0
   61.4460   34.1250   46.4100 C   0  0  0  0  0  0  0  0  0  0  0  0
   59.1570   30.3040   46.2430 C   0  0  0  0  0  0  0  0  0  0  0  0
   58.5920   29.1450   45.7230 C   0  0  0  0  0  0  0  0  0  0  0  0
   53.8472   23.8776   45.1470 H   0  0  0  0  0  0  0  0  0  0  0  0
   54.1973   24.7057   43.5919 H   0  0  0  0  0  0  0  0  0  0  0  0
   53.5750   23.0207   43.5919 H   0  0  0  0  0  0  0  0  0  0  0  0
   57.3448   20.6166   42.8802 H   0  0  0  0  0  0  0  0  0  0  0  0
   59.2129   21.7362   44.1058 H   0  0  0  0  0  0  0  0  0  0  0  0
   58.7596   23.8186   45.4016 H   0  0  0  0  0  0  0  0  0  0  0  0
   57.5037   25.8942   48.1637 H   0  0  0  0  0  0  0  0  0  0  0  0
   58.8508   25.0416   47.3972 H   0  0  0  0  0  0  0  0  0  0  0  0
   58.7248   27.8841   48.2147 H   0  0  0  0  0  0  0  0  0  0  0  0
   60.1210   27.0666   47.5414 H   0  0  0  0  0  0  0  0  0  0  0  0
   56.3977   30.3726   43.4277 H   0  0  0  0  0  0  0  0  0  0  0  0
   57.4539   32.5165   44.2239 H   0  0  0  0  0  0  0  0  0  0  0  0
   60.5025   31.0913   47.7279 H   0  0  0  0  0  0  0  0  0  0  0  0
   62.0160   31.2629   46.7677 H   0  0  0  0  0  0  0  0  0  0  0  0
   61.2620   32.7178   49.3472 H   0  0  0  0  0  0  0  0  0  0  0  0
   62.6044   31.5130   49.0676 H   0  0  0  0  0  0  0  0  0  0  0  0
   62.7120   34.3330   48.9521 H   0  0  0  0  0  0  0  0  0  0  0  0
   64.5863   33.0539   49.7251 H   0  0  0  0  0  0  0  0  0  0  0  0
   64.6640   32.1007   48.2046 H   0  0  0  0  0  0  0  0  0  0  0  0
   65.1421   33.8322   48.2046 H   0  0  0  0  0  0  0  0  0  0  0  0
   63.4120   34.9475   46.7550 H   0  0  0  0  0  0  0  0  0  0  0  0
   63.3893   33.2263   46.1985 H   0  0  0  0  0  0  0  0  0  0  0  0
   60.9847   34.9434   46.9822 H   0  0  0  0  0  0  0  0  0  0  0  0
   61.4271   34.3431   45.3320 H   0  0  0  0  0  0  0  0  0  0  0  0
   59.9058   30.2610   47.0476 H   0  0  0  0  0  0  0  0  0  0  0  0
  1  2  1  0
  2  3  2  0
  3  4  1  0
  4  5  2  0
  5  6  1  0
  6  7  2  0
  7  8  1  0
  8  9  2  0
  8 10  1  0
 10 11  1  0
 11 12  1  0
 12 13  1  0
 13 14  1  0
 14 15  2  0
 15 16  1  0
 16 17  2  0
 17 18  1  0
 18 19  2  0
 19 20  1  0
 20 21  2  0
 20 22  1  0
 22 23  1  0
 23 24  1  0
 24 25  1  0
 25 26  1  0
 25 27  1  0
 27 28  1  0
 19 29  1  0
 29 30  2  0
  7  2  1  0
 14 10  1  0
 30 16  1  0
 30 13  1  0
 28 22  1  0
  1 31  1  0
  1 32  1  0
  1 33  1  0
  4 34  1  0
  5 35  1  0
  6 36  1  0
 11 37  1  0
 11 38  1  0
 12 39  1  0
 12 40  1  0
 17 41  1  0
 18 42  1  0
 23 43  1  0
 23 44  1  0
 24 45  1  0
 24 46  1  0
 25 47  1  0
 26 48  1  0
 26 49  1  0
 26 50  1  0
 27 51  1  0
 27 52  1  0
 28 53  1  0
 28 54  1  0
 29 55  1  0
M  END
>  <UniqueID>  (48) 
45

>  <SMILES>  (48) 
Cc1ncccc1C(=O)N1CCn2c1nc1ccc(C(=O)N3CCC(C)CC3)cc12

>  <Energy>  (48) 
137.19040018574958

>  <Genealogy>  (48) 
Cc1ncccc1C(=O)N1CCn2c1nc1ccc(C(=O)N3CCC(C)CC3)cc12 (3D coordinates assigned)
Cc1ncccc1C(=O)N1CCn2c1nc1ccc(C(=O)N3CCC(C)CC3)cc12 (nonaromatic ring conformer: 137.19040018574958 kcal/mol)

>  <smiles>  (48) 
Cc1ncccc1C(=O)N1CCn2c1nc1ccc(C(=O)N3CCC(C)CC3)cc12

>  <score_type>  (48) 
oracle

>  <origin>  (48) 
adg

>  <m_score__min__energy>  (48) 
-9.9499999999999993

>  <m_primary>  (48) 
energy

$$$$
48:0
     RDKit          3D

 42 45  0  0  0  0  0  0  0  0999 V2000
   55.4480   29.1050   44.6520 N   0  0  0  0  0  0  0  0  0  0  0  0
   56.6210   29.8760   44.8640 C   0  0  0  0  0  0  0  0  0  0  0  0
   56.5630   31.2020   44.6600 N   0  0  0  0  0  0  0  0  0  0  0  0
   57.6960   31.9370   44.8660 C   0  0  0  0  0  0  0  0  0  0  0  0
   57.5340   33.6980   44.5730 S   0  0  0  0  0  0  0  0  0  0  0  0
   58.1190   34.5140   46.0990 C   0  0  0  0  0  0  0  0  0  0  0  0
   59.1980   33.7140   46.7400 C   0  0  0  0  0  0  0  0  0  0  0  0
   58.9550   32.6840   47.5700 N   0  0  0  0  0  0  0  0  0  0  0  0
   59.9820   31.9780   48.1280 C   0  0  0  0  0  0  0  0  0  0  0  0
   59.7990   31.0160   48.9020 O   0  0  0  0  0  0  0  0  0  0  0  0
   61.2810   32.3530   47.8140 C   0  0  0  0  0  0  0  0  0  0  0  0
   62.3690   31.6620   48.3570 C   0  0  0  0  0  0  0  0  0  0  0  0
   63.6610   32.0510   48.0290 C   0  0  0  0  0  0  0  0  0  0  0  0
   63.8880   33.1100   47.1760 C   0  0  0  0  0  0  0  0  0  0  0  0
   62.8160   33.7980   46.6370 C   0  0  0  0  0  0  0  0  0  0  0  0
   61.5140   33.4130   46.9610 C   0  0  0  0  0  0  0  0  0  0  0  0
   60.4680   34.0780   46.4370 N   0  0  0  0  0  0  0  0  0  0  0  0
   58.8500   31.3700   45.2610 N   0  0  0  0  0  0  0  0  0  0  0  0
   58.9340   30.0370   45.4730 C   0  0  0  0  0  0  0  0  0  0  0  0
   59.9760   29.4560   45.8400 O   0  0  0  0  0  0  0  0  0  0  0  0
   57.8040   29.2680   45.2740 C   0  0  0  0  0  0  0  0  0  0  0  0
   57.7770   27.8240   45.4720 C   0  0  0  0  0  0  0  0  0  0  0  0
   57.7920   26.9110   44.4480 C   0  0  0  0  0  0  0  0  0  0  0  0
   57.7640   25.5460   44.7300 C   0  0  0  0  0  0  0  0  0  0  0  0
   57.7210   25.1340   46.0610 C   0  0  0  0  0  0  0  0  0  0  0  0
   57.7060   26.0340   47.0990 C   0  0  0  0  0  0  0  0  0  0  0  0
   57.7350   27.3970   46.8020 C   0  0  0  0  0  0  0  0  0  0  0  0
   54.7660   28.9560   45.4490 H   0  0  0  0  0  0  0  0  0  0  0  0
   55.2520   28.6790   43.7090 H   0  0  0  0  0  0  0  0  0  0  0  0
   58.5087   35.5118   45.8488 H   0  0  0  0  0  0  0  0  0  0  0  0
   57.2763   34.5997   46.8008 H   0  0  0  0  0  0  0  0  0  0  0  0
   62.2023   30.8157   49.0396 H   0  0  0  0  0  0  0  0  0  0  0  0
   64.5159   31.5062   48.4560 H   0  0  0  0  0  0  0  0  0  0  0  0
   64.9172   33.4065   46.9252 H   0  0  0  0  0  0  0  0  0  0  0  0
   62.9887   34.6446   45.9562 H   0  0  0  0  0  0  0  0  0  0  0  0
   60.6820   34.8710   45.7970 H   0  0  0  0  0  0  0  0  0  0  0  0
   59.6980   31.9650   45.4080 H   0  0  0  0  0  0  0  0  0  0  0  0
   57.8261   27.2562   43.4041 H   0  0  0  0  0  0  0  0  0  0  0  0
   57.7756   24.8064   43.9158 H   0  0  0  0  0  0  0  0  0  0  0  0
   57.6984   24.0576   46.2867 H   0  0  0  0  0  0  0  0  0  0  0  0
   57.6718   25.6873   48.1424 H   0  0  0  0  0  0  0  0  0  0  0  0
   57.7248   28.1367   47.6161 H   0  0  0  0  0  0  0  0  0  0  0  0
  1  2  1  0
  2  3  1  0
  3  4  2  0
  4  5  1  0
  5  6  1  0
  6  7  1  0
  7  8  2  0
  8  9  1  0
  9 10  2  0
  9 11  1  0
 11 12  2  0
 12 13  1  0
 13 14  2  0
 14 15  1  0
 15 16  2  0
 16 17  1  0
  4 18  1  0
 18 19  1  0
 19 20  2  0
 19 21  1  0
 21 22  1  0
 22 23  2  0
 23 24  1  0
 24 25  2  0
 25 26  1  0
 26 27  2  0
 21  2  2  0
 27 22  1  0
 17  7  1  0
 16 11  1  0
  1 28  1  0
  1 29  1  0
  6 30  1  0
  6 31  1  0
 12 32  1  0
 13 33  1  0
 14 34  1  0
 15 35  1  0
 17 36  1  0
 18 37  1  0
 23 38  1  0
 24 39  1  0
 25 40  1  0
 26 41  1  0
 27 42  1  0
M  END
>  <smiles>  (49) 
Nc1nc(SCc2nc(=O)c3ccccc3[nH]2)[nH]c(=O)c1-c1ccccc1

>  <score_type>  (49) 
oracle

>  <origin>  (49) 
adg

>  <m_score__min__energy>  (49) 
-9.6899999999999995

>  <m_primary>  (49) 
energy

$$$$
49:0
     RDKit          3D

 67 71  0  0  0  0  0  0  0  0999 V2000
   67.2150   32.9280   50.7770 C   0  0  0  0  0  0  0  0  0  0  0  0
   65.9920   32.3690   50.1180 C   0  0  0  0  0  0  0  0  0  0  0  0
   65.5080   31.2910   50.5480 O   0  0  0  0  0  0  0  0  0  0  0  0
   65.3270   33.0480   49.0430 N   0  0  0  0  0  0  0  0  0  0  0  0
   63.9150   33.0950   48.7900 C   0  0  0  0  0  0  0  0  0  0  0  0
   63.4020   33.1590   47.4870 C   0  0  0  0  0  0  0  0  0  0  0  0
   62.0240   33.1780   47.2720 C   0  0  0  0  0  0  0  0  0  0  0  0
   61.1250   33.1080   48.3570 C   0  0  0  0  0  0  0  0  0  0  0  0
   59.7290   33.1260   48.1660 C   0  0  0  0  0  0  0  0  0  0  0  0
   59.1230   33.2540   46.8250 C   0  0  0  0  0  0  0  0  0  0  0  0
   58.5400   32.1350   46.2140 C   0  0  0  0  0  0  0  0  0  0  0  0
   57.9900   32.2380   44.9280 C   0  0  0  0  0  0  0  0  0  0  0  0
   57.2520   30.8290   44.1690 S   0  0  0  0  0  0  0  0  0  0  0  0
   55.7850   30.7840   44.4950 O   0  0  0  0  0  0  0  0  0  0  0  0
   57.4050   30.9460   42.6760 O   0  0  0  0  0  0  0  0  0  0  0  0
   58.0420   29.3770   44.7290 N   0  0  0  0  0  0  0  0  0  0  0  0
   57.5310   28.2030   43.9920 C   0  0  0  0  0  0  0  0  0  0  0  0
   58.4970   26.9990   44.0630 C   0  0  0  0  0  0  0  0  0  0  0  0
   59.3870   27.0660   45.2390 N   0  0  0  0  0  0  0  0  0  0  0  0
   58.6470   26.8610   46.5030 C   0  0  0  0  0  0  0  0  0  0  0  0
   59.1830   27.7670   47.5810 C   0  0  0  0  0  0  0  0  0  0  0  0
   60.2910   27.3680   48.3480 C   0  0  0  0  0  0  0  0  0  0  0  0
   60.7940   28.2070   49.3480 C   0  0  0  0  0  0  0  0  0  0  0  0
   60.1910   29.4470   49.5920 C   0  0  0  0  0  0  0  0  0  0  0  0
   59.0900   29.8500   48.8320 C   0  0  0  0  0  0  0  0  0  0  0  0
   58.5860   29.0150   47.8300 C   0  0  0  0  0  0  0  0  0  0  0  0
   60.2020   28.3080   45.2410 C   0  0  0  0  0  0  0  0  0  0  0  0
   59.4960   29.5030   44.5710 C   0  0  0  0  0  0  0  0  0  0  0  0
   58.0100   33.4710   44.2620 C   0  0  0  0  0  0  0  0  0  0  0  0
   58.5820   34.5900   44.8710 C   0  0  0  0  0  0  0  0  0  0  0  0
   59.1420   34.4860   46.1490 C   0  0  0  0  0  0  0  0  0  0  0  0
   59.7160   35.6070   46.7390 O   0  0  0  0  0  0  0  0  0  0  0  0
   58.8850   33.0360   49.2770 C   0  0  0  0  0  0  0  0  0  0  0  0
   59.3900   32.9440   50.5430 N   0  0  0  0  0  0  0  0  0  0  0  0
   58.4670   32.8490   51.6820 C   0  0  0  0  0  0  0  0  0  0  0  0
   60.7440   32.9210   50.7570 C   0  0  0  0  0  0  0  0  0  0  0  0
   61.1920   32.8240   51.9340 O   0  0  0  0  0  0  0  0  0  0  0  0
   61.6390   33.0060   49.6710 C   0  0  0  0  0  0  0  0  0  0  0  0
   63.0340   32.9930   49.8710 C   0  0  0  0  0  0  0  0  0  0  0  0
   67.0994   32.8751   51.8696 H   0  0  0  0  0  0  0  0  0  0  0  0
   68.0954   32.3429   50.4727 H   0  0  0  0  0  0  0  0  0  0  0  0
   67.3486   33.9766   50.4727 H   0  0  0  0  0  0  0  0  0  0  0  0
   64.0900   33.1944   46.6294 H   0  0  0  0  0  0  0  0  0  0  0  0
   61.6342   33.2483   46.2458 H   0  0  0  0  0  0  0  0  0  0  0  0
   58.5138   31.1722   46.7454 H   0  0  0  0  0  0  0  0  0  0  0  0
   56.5643   27.9068   44.4253 H   0  0  0  0  0  0  0  0  0  0  0  0
   57.4271   28.4888   42.9349 H   0  0  0  0  0  0  0  0  0  0  0  0
   57.9055   26.0732   44.1188 H   0  0  0  0  0  0  0  0  0  0  0  0
   59.1270   27.0182   43.1615 H   0  0  0  0  0  0  0  0  0  0  0  0
   57.5823   27.0836   46.3393 H   0  0  0  0  0  0  0  0  0  0  0  0
   58.7711   25.8157   46.8224 H   0  0  0  0  0  0  0  0  0  0  0  0
   60.7643   26.3927   48.1614 H   0  0  0  0  0  0  0  0  0  0  0  0
   61.6639   27.8924   49.9431 H   0  0  0  0  0  0  0  0  0  0  0  0
   60.5841   30.1038   50.3820 H   0  0  0  0  0  0  0  0  0  0  0  0
   58.6189   30.8257   49.0222 H   0  0  0  0  0  0  0  0  0  0  0  0
   57.7188   29.3360   47.2342 H   0  0  0  0  0  0  0  0  0  0  0  0
   60.4273   28.5758   46.2838 H   0  0  0  0  0  0  0  0  0  0  0  0
   61.1125   28.1005   44.6597 H   0  0  0  0  0  0  0  0  0  0  0  0
   59.8345   30.4376   45.0422 H   0  0  0  0  0  0  0  0  0  0  0  0
   59.7441   29.5158   43.4994 H   0  0  0  0  0  0  0  0  0  0  0  0
   57.5736   33.5576   43.2560 H   0  0  0  0  0  0  0  0  0  0  0  0
   58.5923   35.5558   44.3445 H   0  0  0  0  0  0  0  0  0  0  0  0
   57.7950   33.0393   49.1291 H   0  0  0  0  0  0  0  0  0  0  0  0
   59.0365   32.9076   52.6213 H   0  0  0  0  0  0  0  0  0  0  0  0
   57.7448   33.6776   51.6388 H   0  0  0  0  0  0  0  0  0  0  0  0
   57.9287   31.8907   51.6388 H   0  0  0  0  0  0  0  0  0  0  0  0
   63.4351   32.9014   50.8912 H   0  0  0  0  0  0  0  0  0  0  0  0
  1  2  1  0
  2  3  2  0
  2  4  1  0
  4  5  1  0
  5  6  2  0
  6  7  1  0
  7  8  2  0
  8  9  1  0
  9 10  1  0
 10 11  2  0
 11 12  1  0
 12 13  1  0
 13 14  2  0
 13 15  2  0
 13 16  1  0
 16 17  1  0
 17 18  1  0
 18 19  1  0
 19 20  1  0
 20 21  1  0
 21 22  2  0
 22 23  1  0
 23 24  2  0
 24 25  1  0
 25 26  2  0
 19 27  1  0
 27 28  1  0
 12 29  2  0
 29 30  1  0
 30 31  2  0
 31 32  1  0
  9 33  2  0
 33 34  1  0
 34 35  1  0
 34 36  1  0
 36 37  2  0
 36 38  1  0
 38 39  2  0
 39  5  1  0
 38  8  1  0
 31 10  1  0
 28 16  1  0
 26 21  1  0
  1 40  1  0
  1 41  1  0
  1 42  1  0
  6 43  1  0
  7 44  1  0
 11 45  1  0
 17 46  1  0
 17 47  1  0
 18 48  1  0
 18 49  1  0
 20 50  1  0
 20 51  1  0
 22 52  1  0
 23 53  1  0
 24 54  1  0
 25 55  1  0
 26 56  1  0
 27 57  1  0
 27 58  1  0
 28 59  1  0
 28 60  1  0
 29 61  1  0
 30 62  1  0
 33 63  1  0
 35 64  1  0
 35 65  1  0
 35 66  1  0
 39 67  1  0
M  CHG  2   4  -1  32  -1
M  END
>  <UniqueID>  (50) 
46

>  <SMILES>  (50) 
CC(=O)[N-]c1ccc2c(-c3cc(S(=O)(=O)N4CCN(Cc5ccccc5)CC4)ccc3[O-])cn(C)c(=O)c2c1

>  <Energy>  (50) 
100.60164172081124

>  <Genealogy>  (50) 
CC(=O)[N-]c1ccc2c(-c3cc(S(=O)(=O)N4CCN(Cc5ccccc5)CC4)ccc3[O-])cn(C)c(=O)c2c1 (protonated)
CC(=O)[N-]c1ccc2c(-c3cc(S(=O)(=O)N4CCN(Cc5ccccc5)CC4)ccc3[O-])cn(C)c(=O)c2c1 (3D coordinates assigned)
CC(=O)[N-]c1ccc2c(-c3cc(S(=O)(=O)N4CCN(Cc5ccccc5)CC4)ccc3[O-])cn(C)c(=O)c2c1 (nonaromatic ring conformer: 100.60164172081124 kcal/mol)

>  <smiles>  (50) 
CC(=O)Nc1ccc2c(-c3cc(S(=O)(=O)N4CCN(Cc5ccccc5)CC4)ccc3O)cn(C)c(=O)c2c1

>  <score_type>  (50) 
oracle

>  <origin>  (50) 
adg

>  <m_score__min__energy>  (50) 
-13.18

>  <m_primary>  (50) 
energy

$$$$
50:0
     RDKit          3D

 55 58  0  0  1  0  0  0  0  0999 V2000
   52.1020   22.1780   45.3110 O   0  0  0  0  0  0  0  0  0  0  0  0
   53.2350   22.9310   45.6520 C   0  0  0  0  0  0  0  0  0  0  0  0
   53.3010   24.2150   45.1810 C   0  0  0  0  0  0  0  0  0  0  0  0
   54.4110   24.9760   45.5060 C   0  0  0  0  0  0  0  0  0  0  0  0
   55.4390   24.4510   46.2920 C   0  0  0  0  0  0  0  0  0  0  0  0
   56.5370   25.3160   46.5650 N   0  0  0  0  0  0  0  0  0  0  0  0
   56.8800   26.1830   45.7050 C   0  0  0  0  0  0  0  0  0  0  0  0
   56.6890   27.4980   45.8870 N   0  0  0  0  0  0  0  0  0  0  0  0
   57.0720   28.3700   44.9530 C   0  0  0  0  0  0  0  0  0  0  0  0
   56.8760   29.6150   45.1740 N   0  0  0  0  0  0  0  0  0  0  0  0
   57.7880   30.6950   45.0640 C   0  0  0  0  0  0  0  0  0  0  0  0
   58.7550   30.7070   46.2400 C   0  0  0  0  0  0  0  0  0  0  0  0
   59.3320   29.4580   46.5200 N   0  0  0  0  0  0  0  0  0  0  0  0
   59.2650   28.9380   47.8320 C   0  0  0  0  0  0  0  0  0  0  0  0
   59.3650   27.4270   47.7700 C   0  0  0  0  0  0  0  0  0  0  0  0
   60.3940   26.9730   46.9770 O   0  0  0  0  0  0  0  0  0  0  0  0
   60.3870   27.5100   45.6940 C   0  0  0  0  0  0  0  0  0  0  0  0
   60.4660   29.0430   45.7780 C   0  0  0  0  0  0  0  0  0  0  0  0
   57.6520   27.9420   43.8220 N   0  0  0  0  0  0  0  0  0  0  0  0
   57.8680   26.6520   43.5810 C   0  0  0  0  0  0  0  0  0  0  0  0
   57.4830   25.7270   44.5290 C   0  0  0  0  0  0  0  0  0  0  0  0
   57.6820   24.2890   44.3440 C   0  0  0  0  0  0  0  0  0  0  0  0
   56.8430   23.6310   43.4680 C   0  0  0  0  0  0  0  0  0  0  0  0
   57.0420   22.2720   43.3010 C   0  0  0  0  0  0  0  0  0  0  0  0
   58.0500   21.6190   43.9950 C   0  0  0  0  0  0  0  0  0  0  0  0
   58.8770   22.3210   44.8720 C   0  0  0  0  0  0  0  0  0  0  0  0
   59.8970   21.6650   45.5750 O   0  0  0  0  0  0  0  0  0  0  0  0
   58.6910   23.6610   45.0450 C   0  0  0  0  0  0  0  0  0  0  0  0
   55.3720   23.1530   46.7680 C   0  0  0  0  0  0  0  0  0  0  0  0
   54.2410   22.4310   46.4160 C   0  0  0  0  0  0  0  0  0  0  0  0
   52.1980   21.2570   44.8680 H   0  0  0  0  0  0  0  0  0  0  0  0
   52.4934   24.6309   44.5607 H   0  0  0  0  0  0  0  0  0  0  0  0
   54.4843   26.0105   45.1393 H   0  0  0  0  0  0  0  0  0  0  0  0
   56.2380   27.8120   46.7670 H   0  0  0  0  0  0  0  0  0  0  0  0
   58.3583   30.5918   44.1290 H   0  0  0  0  0  0  0  0  0  0  0  0
   57.2206   31.6374   45.0640 H   0  0  0  0  0  0  0  0  0  0  0  0
   59.5633   31.4185   46.0154 H   0  0  0  0  0  0  0  0  0  0  0  0
   58.1717   30.9933   47.1276 H   0  0  0  0  0  0  0  0  0  0  0  0
   60.0968   29.3383   48.4302 H   0  0  0  0  0  0  0  0  0  0  0  0
   58.3121   29.2284   48.2985 H   0  0  0  0  0  0  0  0  0  0  0  0
   59.5194   27.0470   48.7907 H   0  0  0  0  0  0  0  0  0  0  0  0
   58.4290   27.0608   47.3231 H   0  0  0  0  0  0  0  0  0  0  0  0
   61.2527   27.1287   45.1325 H   0  0  0  0  0  0  0  0  0  0  0  0
   59.4588   27.2189   45.1804 H   0  0  0  0  0  0  0  0  0  0  0  0
   61.3899   29.3496   46.2903 H   0  0  0  0  0  0  0  0  0  0  0  0
   60.4785   29.4989   44.7770 H   0  0  0  0  0  0  0  0  0  0  0  0
   57.9240   28.6950   43.1330 H   0  0  0  0  0  0  0  0  0  0  0  0
   58.3445   26.3290   42.6437 H   0  0  0  0  0  0  0  0  0  0  0  0
   56.0490   24.1647   42.9251 H   0  0  0  0  0  0  0  0  0  0  0  0
   56.3966   21.7057   42.6134 H   0  0  0  0  0  0  0  0  0  0  0  0
   58.1985   20.5384   43.8526 H   0  0  0  0  0  0  0  0  0  0  0  0
   60.1890   20.7330   45.2790 H   0  0  0  0  0  0  0  0  0  0  0  0
   59.3342   24.2312   45.7314 H   0  0  0  0  0  0  0  0  0  0  0  0
   56.1693   22.7192   47.3893 H   0  0  0  0  0  0  0  0  0  0  0  0
   54.1538   21.3952   46.7758 H   0  0  0  0  0  0  0  0  0  0  0  0
  1  2  1  0
  2  3  2  0
  3  4  1  0
  4  5  2  0
  5  6  1  0
  6  7  2  0
  7  8  1  0
  8  9  1  0
  9 10  2  0
 10 11  1  0
 11 12  1  0
 12 13  1  0
 13 14  1  0
 14 15  1  0
 15 16  1  0
 16 17  1  0
 17 18  1  0
  9 19  1  0
 19 20  1  0
 20 21  2  0
 21 22  1  0
 22 23  2  0
 23 24  1  0
 24 25  2  0
 25 26  1  0
 26 27  1  0
 26 28  2  0
  5 29  1  0
 29 30  2  0
 30  2  1  0
 21  7  1  0
 28 22  1  0
 18 13  1  0
  1 31  1  0
  3 32  1  0
  4 33  1  0
  8 34  1  0
 11 35  1  0
 11 36  1  0
 12 37  1  0
 12 38  1  0
 14 39  1  0
 14 40  1  0
 15 41  1  0
 15 42  1  0
 17 43  1  0
 17 44  1  0
 18 45  1  0
 18 46  1  0
 19 47  1  0
 20 48  1  0
 23 49  1  0
 24 50  1  0
 25 51  1  0
 27 52  1  0
 28 53  1  0
 29 54  1  0
 30 55  1  0
M  END
>  <smiles>  (51) 
Oc1ccc(N=c2[nH]c(=NCCN3CCOCC3)[nH]cc2-c2cccc(O)c2)cc1

>  <score_type>  (51) 
oracle

>  <origin>  (51) 
adg

>  <m_score__min__energy>  (51) 
-9.0700000000000003

>  <m_primary>  (51) 
energy

$$$$
51:0
     RDKit          3D

 48 51  0  0  0  0  0  0  0  0999 V2000
   60.7030   28.1960   50.4290 C   0  0  0  0  0  0  0  0  0  0  0  0
   61.0670   29.1390   49.5480 C   0  0  0  0  0  0  0  0  0  0  0  0
   61.6360   30.2560   50.0620 N   0  0  0  0  0  0  0  0  0  0  0  0
   61.8620   31.3670   49.3250 C   0  0  0  0  0  0  0  0  0  0  0  0
   62.4090   32.3600   49.8780 O   0  0  0  0  0  0  0  0  0  0  0  0
   61.4780   31.4150   48.0130 N   0  0  0  0  0  0  0  0  0  0  0  0
   61.6340   32.6650   47.2380 C   0  0  0  0  0  0  0  0  0  0  0  0
   60.2850   33.2240   46.8650 C   0  0  0  0  0  0  0  0  0  0  0  0
   59.1280   32.7830   47.5280 C   0  0  0  0  0  0  0  0  0  0  0  0
   57.8730   33.2790   47.1610 C   0  0  0  0  0  0  0  0  0  0  0  0
   57.7620   34.2140   46.1290 C   0  0  0  0  0  0  0  0  0  0  0  0
   58.9080   34.6540   45.4600 C   0  0  0  0  0  0  0  0  0  0  0  0
   60.1650   34.1620   45.8240 C   0  0  0  0  0  0  0  0  0  0  0  0
   60.9260   30.3040   47.4250 C   0  0  0  0  0  0  0  0  0  0  0  0
   60.5830   30.3530   46.2090 O   0  0  0  0  0  0  0  0  0  0  0  0
   60.7750   29.0910   48.1510 C   0  0  0  0  0  0  0  0  0  0  0  0
   60.3930   27.9690   47.4770 C   0  0  0  0  0  0  0  0  0  0  0  0
   59.0230   27.6390   47.0290 C   0  0  0  0  0  0  0  0  0  0  0  0
   58.4760   26.3630   47.2470 C   0  0  0  0  0  0  0  0  0  0  0  0
   57.1920   26.0580   46.7870 C   0  0  0  0  0  0  0  0  0  0  0  0
   56.5160   24.4680   47.1090 Cl  0  0  0  0  0  0  0  0  0  0  0  0
   56.4530   27.0140   46.0760 C   0  0  0  0  0  0  0  0  0  0  0  0
   55.1600   26.7180   45.6600 O   0  0  0  0  0  0  0  0  0  0  0  0
   57.0170   28.2750   45.8040 C   0  0  0  0  0  0  0  0  0  0  0  0
   56.2740   29.2870   45.0310 C   0  0  0  0  0  0  0  0  0  0  0  0
   55.1480   28.9910   44.5500 O   0  0  0  0  0  0  0  0  0  0  0  0
   56.7790   30.6150   44.8500 N   0  0  0  0  0  0  0  0  0  0  0  0
   57.8250   30.9600   43.8940 C   0  0  0  0  0  0  0  0  0  0  0  0
   57.7800   32.4070   43.4370 C   0  0  0  0  0  0  0  0  0  0  0  0
   57.2780   31.3010   42.5210 C   0  0  0  0  0  0  0  0  0  0  0  0
   58.2960   28.5820   46.2880 C   0  0  0  0  0  0  0  0  0  0  0  0
   60.2354   27.2649   50.0763 H   0  0  0  0  0  0  0  0  0  0  0  0
   60.8720   28.3535   51.5045 H   0  0  0  0  0  0  0  0  0  0  0  0
   62.1766   33.4034   47.8466 H   0  0  0  0  0  0  0  0  0  0  0  0
   62.1964   32.4466   46.3182 H   0  0  0  0  0  0  0  0  0  0  0  0
   59.2093   32.0445   48.3392 H   0  0  0  0  0  0  0  0  0  0  0  0
   56.9710   32.9320   47.6863 H   0  0  0  0  0  0  0  0  0  0  0  0
   56.7739   34.6036   45.8431 H   0  0  0  0  0  0  0  0  0  0  0  0
   58.8206   35.3885   44.6459 H   0  0  0  0  0  0  0  0  0  0  0  0
   61.0639   34.5100   45.2940 H   0  0  0  0  0  0  0  0  0  0  0  0
   61.1810   27.2378   47.2437 H   0  0  0  0  0  0  0  0  0  0  0  0
   59.0612   25.6007   47.7822 H   0  0  0  0  0  0  0  0  0  0  0  0
   58.6087   30.2938   44.2838 H   0  0  0  0  0  0  0  0  0  0  0  0
   57.0668   33.1073   43.8963 H   0  0  0  0  0  0  0  0  0  0  0  0
   58.5174   33.2182   43.3465 H   0  0  0  0  0  0  0  0  0  0  0  0
   56.2016   31.2015   42.3174 H   0  0  0  0  0  0  0  0  0  0  0  0
   57.5019   30.9808   41.4927 H   0  0  0  0  0  0  0  0  0  0  0  0
   58.7332   29.5708   46.0850 H   0  0  0  0  0  0  0  0  0  0  0  0
  1  2  2  0
  2  3  1  0
  3  4  1  0
  4  5  2  0
  4  6  1  0
  6  7  1  0
  7  8  1  0
  8  9  2  0
  9 10  1  0
 10 11  2  0
 11 12  1  0
 12 13  2  0
  6 14  1  0
 14 15  2  0
 14 16  1  0
 16 17  2  3
 17 18  1  0
 18 19  2  0
 19 20  1  0
 20 21  1  0
 20 22  2  0
 22 23  1  0
 22 24  1  0
 24 25  1  0
 25 26  2  0
 25 27  1  0
 27 28  1  0
 28 29  1  0
 29 30  1  0
 24 31  2  0
 16  2  1  0
 31 18  1  0
 13  8  1  0
 30 28  1  0
  1 32  1  0
  1 33  1  0
  7 34  1  0
  7 35  1  0
  9 36  1  0
 10 37  1  0
 11 38  1  0
 12 39  1  0
 13 40  1  0
 17 41  1  0
 19 42  1  0
 28 43  1  0
 29 44  1  0
 29 45  1  0
 30 46  1  0
 30 47  1  0
 31 48  1  0
M  CHG  3   3  -1  23  -1  27  -1
M  END
>  <UniqueID>  (52) 
47

>  <SMILES>  (52) 
C=c1[n-]c(=O)n(Cc2ccccc2)c(=O)c1=Cc1cc(Cl)c([O-])c(C(=O)[N-]C2CC2)c1

>  <Energy>  (52) 
347.9084217960006

>  <Genealogy>  (52) 
C=c1[n-]c(=O)n(Cc2ccccc2)c(=O)c1=Cc1cc(Cl)c([O-])c(C(=O)[N-]C2CC2)c1 (protonated)
C=c1[n-]c(=O)n(Cc2ccccc2)c(=O)c1=Cc1cc(Cl)c([O-])c(C(=O)[N-]C2CC2)c1 (3D coordinates assigned)
C=c1[n-]c(=O)n(Cc2ccccc2)c(=O)c1=Cc1cc(Cl)c([O-])c(C(=O)[N-]C2CC2)c1 (nonaromatic ring conformer: 347.9084217960006 kcal/mol)

>  <smiles>  (52) 
C=c1[nH]c(=O)n(Cc2ccccc2)c(=O)c1=Cc1cc(Cl)c(O)c(C(=O)NC2CC2)c1

>  <score_type>  (52) 
oracle

>  <origin>  (52) 
adg

>  <m_score__min__energy>  (52) 
-15.51

>  <m_primary>  (52) 
energy

$$$$
52:0
     RDKit          3D

 39 40  0  0  0  0  0  0  0  0999 V2000
   63.4900   31.9430   47.1620 C   0  0  0  0  0  0  0  0  0  0  0  0
   62.6640   31.4690   48.2210 O   0  0  0  0  0  0  0  0  0  0  0  0
   61.5090   30.6940   48.0380 C   0  0  0  0  0  0  0  0  0  0  0  0
   60.8760   30.0190   49.0990 C   0  0  0  0  0  0  0  0  0  0  0  0
   59.7260   29.2600   48.8620 C   0  0  0  0  0  0  0  0  0  0  0  0
   59.2070   29.1550   47.5700 C   0  0  0  0  0  0  0  0  0  0  0  0
   59.8460   29.7990   46.4980 C   0  0  0  0  0  0  0  0  0  0  0  0
   59.3240   29.6970   45.1230 C   0  0  0  0  0  0  0  0  0  0  0  0
   58.1140   29.2230   44.7960 C   0  0  0  0  0  0  0  0  0  0  0  0
   56.7250   30.2100   44.3290 S   0  0  0  0  0  0  0  0  0  0  0  0
   56.8310   30.5410   42.8680 O   0  0  0  0  0  0  0  0  0  0  0  0
   55.4610   29.4310   44.5590 O   0  0  0  0  0  0  0  0  0  0  0  0
   56.6460   31.6850   45.2390 N   0  0  0  0  0  0  0  0  0  0  0  0
   57.7510   32.5610   45.5010 C   0  0  0  0  0  0  0  0  0  0  0  0
   58.3510   33.3300   44.4880 C   0  0  0  0  0  0  0  0  0  0  0  0
   59.3940   34.2050   44.7990 C   0  0  0  0  0  0  0  0  0  0  0  0
   59.8470   34.3190   46.1160 C   0  0  0  0  0  0  0  0  0  0  0  0
   59.2620   33.5520   47.1320 C   0  0  0  0  0  0  0  0  0  0  0  0
   59.8600   33.7130   48.7830 S   0  0  0  0  0  0  0  0  0  0  0  0
   61.5890   33.7670   48.8400 N   0  0  0  0  0  0  0  0  0  0  0  0
   59.3840   32.5410   49.5950 O   0  0  0  0  0  0  0  0  0  0  0  0
   59.3190   34.9830   49.3780 O   0  0  0  0  0  0  0  0  0  0  0  0
   58.2170   32.6700   46.8170 C   0  0  0  0  0  0  0  0  0  0  0  0
   60.9790   30.5890   46.7460 C   0  0  0  0  0  0  0  0  0  0  0  0
   64.3715   32.4488   47.5828 H   0  0  0  0  0  0  0  0  0  0  0  0
   63.8153   31.0941   46.5426 H   0  0  0  0  0  0  0  0  0  0  0  0
   62.9212   32.6521   46.5426 H   0  0  0  0  0  0  0  0  0  0  0  0
   61.2872   30.0889   50.1169 H   0  0  0  0  0  0  0  0  0  0  0  0
   59.2284   28.7438   49.6962 H   0  0  0  0  0  0  0  0  0  0  0  0
   58.2952   28.5663   47.3913 H   0  0  0  0  0  0  0  0  0  0  0  0
   59.9764   30.0352   44.3045 H   0  0  0  0  0  0  0  0  0  0  0  0
   57.9744   28.1322   44.8203 H   0  0  0  0  0  0  0  0  0  0  0  0
   57.9985   33.2422   43.4497 H   0  0  0  0  0  0  0  0  0  0  0  0
   59.8604   34.8064   44.0048 H   0  0  0  0  0  0  0  0  0  0  0  0
   60.6657   35.0134   46.3558 H   0  0  0  0  0  0  0  0  0  0  0  0
   61.9050   33.0410   49.5220 H   0  0  0  0  0  0  0  0  0  0  0  0
   61.9410   33.4880   47.8960 H   0  0  0  0  0  0  0  0  0  0  0  0
   57.7604   32.0595   47.6100 H   0  0  0  0  0  0  0  0  0  0  0  0
   61.4560   31.1317   45.9165 H   0  0  0  0  0  0  0  0  0  0  0  0
  1  2  1  0
  2  3  1  0
  3  4  2  0
  4  5  1  0
  5  6  2  0
  6  7  1  0
  7  8  1  0
  8  9  2  3
  9 10  1  0
 10 11  2  0
 10 12  2  0
 10 13  1  0
 13 14  1  0
 14 15  2  0
 15 16  1  0
 16 17  2  0
 17 18  1  0
 18 19  1  0
 19 20  1  0
 19 21  2  0
 19 22  2  0
 18 23  2  0
  7 24  2  0
 24  3  1  0
 23 14  1  0
  1 25  1  0
  1 26  1  0
  1 27  1  0
  4 28  1  0
  5 29  1  0
  6 30  1  0
  8 31  1  0
  9 32  1  0
 15 33  1  0
 16 34  1  0
 17 35  1  0
 20 36  1  0
 20 37  1  0
 23 38  1  0
 24 39  1  0
M  CHG  1  13  -1
M  END
>  <UniqueID>  (53) 
48

>  <SMILES>  (53) 
COc1cccc(C=CS(=O)(=O)[N-]c2cccc(S(N)(=O)=O)c2)c1

>  <Energy>  (53) 
43.32681115238578

>  <Genealogy>  (53) 
COc1cccc(C=CS(=O)(=O)[N-]c2cccc(S(N)(=O)=O)c2)c1 (protonated)
COc1cccc(C=CS(=O)(=O)[N-]c2cccc(S(N)(=O)=O)c2)c1 (3D coordinates assigned)
COc1cccc(C=CS(=O)(=O)[N-]c2cccc(S(N)(=O)=O)c2)c1 (optimized conformer: 43.32681115238578 kcal/mol)

>  <smiles>  (53) 
COc1cccc(C=CS(=O)(=O)Nc2cccc(S(N)(=O)=O)c2)c1

>  <score_type>  (53) 
oracle

>  <origin>  (53) 
adg

>  <m_score__min__energy>  (53) 
-9.9600000000000009

>  <m_primary>  (53) 
energy

$$$$
53:0
     RDKit          3D

 62 66  0  0  0  0  0  0  0  0999 V2000
   63.5030   33.1540   47.8540 C   0  0  0  0  0  0  0  0  0  0  0  0
   62.2630   33.5460   48.4350 O   0  0  0  0  0  0  0  0  0  0  0  0
   61.0610   33.6580   47.7220 C   0  0  0  0  0  0  0  0  0  0  0  0
   61.1040   34.1500   46.4140 C   0  0  0  0  0  0  0  0  0  0  0  0
   59.9460   34.1960   45.6330 C   0  0  0  0  0  0  0  0  0  0  0  0
   58.7230   33.7430   46.1540 C   0  0  0  0  0  0  0  0  0  0  0  0
   57.5380   33.6100   45.2790 C   0  0  0  0  0  0  0  0  0  0  0  0
   57.2260   34.5580   44.5080 O   0  0  0  0  0  0  0  0  0  0  0  0
   56.7270   32.4250   45.2870 N   0  0  0  0  0  0  0  0  0  0  0  0
   57.1290   31.1480   44.7750 C   0  0  0  0  0  0  0  0  0  0  0  0
   58.2250   30.4520   45.3190 C   0  0  0  0  0  0  0  0  0  0  0  0
   58.5390   29.1710   44.8670 C   0  0  0  0  0  0  0  0  0  0  0  0
   57.8000   28.5870   43.8300 C   0  0  0  0  0  0  0  0  0  0  0  0
   58.1340   27.2320   43.3650 C   0  0  0  0  0  0  0  0  0  0  0  0
   58.6930   27.0850   42.2480 O   0  0  0  0  0  0  0  0  0  0  0  0
   57.8490   26.0820   44.1780 N   0  0  0  0  0  0  0  0  0  0  0  0
   57.4170   24.8100   43.6240 C   0  0  0  0  0  0  0  0  0  0  0  0
   57.0130   23.9430   44.8100 C   0  0  2  0  0  0  0  0  0  0  0  0
   57.2130   24.7850   46.0690 C   0  0  2  0  0  0  0  0  0  0  0  0
   57.7700   26.1320   45.6310 C   0  0  0  0  0  0  0  0  0  0  0  0
   58.1060   23.5820   45.8020 C   0  0  1  0  0  0  0  0  0  0  0  0
   57.7520   22.4530   46.6500 N   0  0  0  0  0  0  0  0  0  0  0  0
   56.7290   22.5400   47.6440 C   0  0  0  0  0  0  0  0  0  0  0  0
   57.0310   22.8700   48.8240 O   0  0  0  0  0  0  0  0  0  0  0  0
   55.3110   22.3170   47.2750 C   0  0  0  0  0  0  0  0  0  0  0  0
   54.6530   21.1340   47.6390 C   0  0  0  0  0  0  0  0  0  0  0  0
   53.3500   20.8850   47.2000 C   0  0  0  0  0  0  0  0  0  0  0  0
   52.6720   21.8040   46.3800 C   0  0  0  0  0  0  0  0  0  0  0  0
   51.3260   21.4470   45.8730 C   0  0  0  0  0  0  0  0  0  0  0  0
   50.4280   21.0600   46.6700 O   0  0  0  0  0  0  0  0  0  0  0  0
   51.0410   21.4980   44.5140 O   0  0  0  0  0  0  0  0  0  0  0  0
   53.3080   23.0270   46.0530 C   0  0  0  0  0  0  0  0  0  0  0  0
   52.6330   24.0850   45.2190 C   0  0  0  0  0  0  0  0  0  0  0  0
   54.6240   23.2620   46.4950 C   0  0  0  0  0  0  0  0  0  0  0  0
   56.7490   29.3060   43.2410 C   0  0  0  0  0  0  0  0  0  0  0  0
   56.4220   30.5820   43.7070 C   0  0  0  0  0  0  0  0  0  0  0  0
   58.6630   33.3290   47.4960 C   0  0  0  0  0  0  0  0  0  0  0  0
   59.8210   33.2770   48.2710 C   0  0  0  0  0  0  0  0  0  0  0  0
   64.2256   32.9256   48.6513 H   0  0  0  0  0  0  0  0  0  0  0  0
   63.3498   32.2605   47.2310 H   0  0  0  0  0  0  0  0  0  0  0  0
   63.8913   33.9732   47.2310 H   0  0  0  0  0  0  0  0  0  0  0  0
   62.0579   34.5041   45.9959 H   0  0  0  0  0  0  0  0  0  0  0  0
   59.9926   34.5884   44.6064 H   0  0  0  0  0  0  0  0  0  0  0  0
   58.8364   30.9208   46.1041 H   0  0  0  0  0  0  0  0  0  0  0  0
   59.3705   28.6166   45.3266 H   0  0  0  0  0  0  0  0  0  0  0  0
   56.5595   24.9589   42.9513 H   0  0  0  0  0  0  0  0  0  0  0  0
   58.2177   24.3367   43.0368 H   0  0  0  0  0  0  0  0  0  0  0  0
   56.2387   23.3303   44.3251 H   0  0  0  0  0  0  0  0  0  0  0  0
   56.6459   25.1001   46.9573 H   0  0  0  0  0  0  0  0  0  0  0  0
   57.0999   26.9442   45.9493 H   0  0  0  0  0  0  0  0  0  0  0  0
   58.7549   26.3256   46.0810 H   0  0  0  0  0  0  0  0  0  0  0  0
   59.1892   23.4055   45.7285 H   0  0  0  0  0  0  0  0  0  0  0  0
   55.1657   20.3969   48.2744 H   0  0  0  0  0  0  0  0  0  0  0  0
   52.8464   19.9545   47.5010 H   0  0  0  0  0  0  0  0  0  0  0  0
   52.1600   24.8264   45.8798 H   0  0  0  0  0  0  0  0  0  0  0  0
   53.3803   24.5836   44.5842 H   0  0  0  0  0  0  0  0  0  0  0  0
   51.8659   23.6174   44.5842 H   0  0  0  0  0  0  0  0  0  0  0  0
   55.1238   24.2038   46.2243 H   0  0  0  0  0  0  0  0  0  0  0  0
   56.1806   28.8637   42.4096 H   0  0  0  0  0  0  0  0  0  0  0  0
   55.6048   31.1450   43.2324 H   0  0  0  0  0  0  0  0  0  0  0  0
   57.6966   33.0443   47.9375 H   0  0  0  0  0  0  0  0  0  0  0  0
   59.7659   32.9370   49.3157 H   0  0  0  0  0  0  0  0  0  0  0  0
  1  2  1  0
  2  3  1  0
  3  4  2  0
  4  5  1  0
  5  6  2  0
  6  7  1  0
  7  8  2  0
  7  9  1  0
  9 10  1  0
 10 11  2  0
 11 12  1  0
 12 13  2  0
 13 14  1  0
 14 15  2  0
 14 16  1  0
 16 17  1  0
 17 18  1  0
 18 19  1  0
 19 20  1  0
 19 21  1  0
 21 22  1  0
 22 23  1  0
 23 24  2  0
 23 25  1  0
 25 26  2  0
 26 27  1  0
 27 28  2  0
 28 29  1  0
 29 30  2  0
 29 31  1  0
 28 32  1  0
 32 33  1  0
 32 34  2  0
 13 35  1  0
 35 36  2  0
  6 37  1  0
 37 38  2  0
 38  3  1  0
 36 10  1  0
 20 16  1  0
 34 25  1  0
 21 18  1  0
  1 39  1  0
  1 40  1  0
  1 41  1  0
  4 42  1  0
  5 43  1  0
 11 44  1  0
 12 45  1  0
 17 46  1  0
 17 47  1  0
 18 48  1  6
 19 49  1  1
 20 50  1  0
 20 51  1  0
 21 52  1  6
 26 53  1  0
 27 54  1  0
 33 55  1  0
 33 56  1  0
 33 57  1  0
 34 58  1  0
 35 59  1  0
 36 60  1  0
 37 61  1  0
 38 62  1  0
M  CHG  3   9  -1  22  -1  31  -1
M  END
>  <UniqueID>  (54) 
49

>  <SMILES>  (54) 
COc1ccc(C(=O)[N-]c2ccc(C(=O)N3C[C@@H]4C([N-]C(=O)c5ccc(C(=O)[O-])c(C)c5)[C@@H]4C3)cc2)cc1

>  <Energy>  (54) 
350.9878458137771

>  <Genealogy>  (54) 
COc1ccc(C(=O)[N-]c2ccc(C(=O)N3CC4C(C3)C4[N-]C(=O)c3ccc(C(=O)[O-])c(C)c3)cc2)cc1 (protonated)
COc1ccc(C(=O)[N-]c2ccc(C(=O)N3C[C@@H]4C([N-]C(=O)c5ccc(C(=O)[O-])c(C)c5)[C@@H]4C3)cc2)cc1 (chirality)
COc1ccc(C(=O)[N-]c2ccc(C(=O)N3C[C@@H]4C([N-]C(=O)c5ccc(C(=O)[O-])c(C)c5)[C@@H]4C3)cc2)cc1 (3D coordinates assigned)
COc1ccc(C(=O)[N-]c2ccc(C(=O)N3C[C@@H]4C([N-]C(=O)c5ccc(C(=O)[O-])c(C)c5)[C@@H]4C3)cc2)cc1 (nonaromatic ring conformer: 350.9878458137771 kcal/mol)

>  <smiles>  (54) 
COc1ccc(C(=O)Nc2ccc(C(=O)N3CC4C(C3)C4NC(=O)c3ccc(C(=O)O)c(C)c3)cc2)cc1

>  <score_type>  (54) 
oracle

>  <origin>  (54) 
adg

>  <m_score__min__energy>  (54) 
-16.850000000000001

>  <m_primary>  (54) 
energy

$$$$
54:0
     RDKit          3D

 51 54  0  0  0  0  0  0  0  0999 V2000
   56.3827   25.3601   43.3364 H   0  0  0  0  0  0  0  0  0  0  0  0
   56.7830   24.7170   44.1340 C   0  0  0  0  0  0  0  0  0  0  0  0
   56.3686   23.7098   44.2883 H   0  0  0  0  0  0  0  0  0  0  0  0
   57.7720   25.1590   44.9150 C   0  0  0  0  0  0  0  0  0  0  0  0
   58.2780   24.4250   45.8770 O   0  0  0  0  0  0  0  0  0  0  0  0
   59.2240   25.1000   46.4810 C   0  0  0  0  0  0  0  0  0  0  0  0
   59.8186   24.7308   47.3296 H   0  0  0  0  0  0  0  0  0  0  0  0
   59.3660   26.3460   45.8950 C   0  0  0  0  0  0  0  0  0  0  0  0
   60.4890   27.2910   46.2470 C   0  0  0  0  0  0  0  0  0  0  0  0
   61.4078   26.7042   46.3935 H   0  0  0  0  0  0  0  0  0  0  0  0
   60.5871   28.0081   45.4187 H   0  0  0  0  0  0  0  0  0  0  0  0
   60.2210   28.0840   47.5000 C   0  0  0  0  0  0  0  0  0  0  0  0
   60.7760   27.7190   48.5710 O   0  0  0  0  0  0  0  0  0  0  0  0
   59.3930   29.2650   47.4970 N   0  0  0  0  0  0  0  0  0  0  0  0
   58.6160   29.6260   48.6880 C   0  0  0  0  0  0  0  0  0  0  0  0
   57.5446   29.5075   48.4687 H   0  0  0  0  0  0  0  0  0  0  0  0
   58.9138   28.9655   49.5157 H   0  0  0  0  0  0  0  0  0  0  0  0
   58.8890   31.0890   49.1010 C   0  0  0  0  0  0  0  0  0  0  0  0
   57.9394   31.5446   49.4182 H   0  0  0  0  0  0  0  0  0  0  0  0
   59.6303   31.0640   49.9133 H   0  0  0  0  0  0  0  0  0  0  0  0
   59.4650   31.9140   48.0070 N   0  0  0  0  0  0  0  0  0  0  0  0
   59.3500   33.3850   48.2350 C   0  0  0  0  0  0  0  0  0  0  0  0
   59.0228   33.4603   49.2825 H   0  0  0  0  0  0  0  0  0  0  0  0
   60.6500   34.1730   47.9970 C   0  0  0  0  0  0  0  0  0  0  0  0
   60.6143   35.1409   48.5184 H   0  0  0  0  0  0  0  0  0  0  0  0
   61.5300   33.6358   48.3806 H   0  0  0  0  0  0  0  0  0  0  0  0
   60.7260   34.3810   46.4970 C   0  0  0  0  0  0  0  0  0  0  0  0
   61.2570   35.3161   46.2653 H   0  0  0  0  0  0  0  0  0  0  0  0
   61.2757   33.5679   46.0003 H   0  0  0  0  0  0  0  0  0  0  0  0
   59.2800   34.4580   46.0210 C   0  0  0  0  0  0  0  0  0  0  0  0
   59.0281   35.4911   45.7395 H   0  0  0  0  0  0  0  0  0  0  0  0
   59.1201   33.8224   45.1376 H   0  0  0  0  0  0  0  0  0  0  0  0
   58.4070   34.0030   47.1910 C   0  0  0  0  0  0  0  0  0  0  0  0
   57.8751   34.8632   47.6234 H   0  0  0  0  0  0  0  0  0  0  0  0
   57.6526   33.2740   46.8602 H   0  0  0  0  0  0  0  0  0  0  0  0
   58.8400   31.5370   46.7180 C   0  0  0  0  0  0  0  0  0  0  0  0
   57.7453   31.5350   46.8262 H   0  0  0  0  0  0  0  0  0  0  0  0
   59.1262   32.2618   45.9416 H   0  0  0  0  0  0  0  0  0  0  0  0
   59.3180   30.1390   46.3190 C   0  0  0  0  0  0  0  0  0  0  0  0
   58.6122   29.7086   45.5933 H   0  0  0  0  0  0  0  0  0  0  0  0
   60.3197   30.2198   45.8718 H   0  0  0  0  0  0  0  0  0  0  0  0
   58.4020   26.4070   44.8780 C   0  0  0  0  0  0  0  0  0  0  0  0
   58.1300   27.3990   44.0030 C   0  0  0  0  0  0  0  0  0  0  0  0
   58.5788   27.3238   43.0016 H   0  0  0  0  0  0  0  0  0  0  0  0
   57.2850   28.5710   44.2750 C   0  0  0  0  0  0  0  0  0  0  0  0
   57.6050   29.8370   43.9530 N   0  0  0  0  0  0  0  0  0  0  0  0
   56.6200   30.5620   44.5270 C   0  0  0  0  0  0  0  0  0  0  0  0
   56.5590   31.8160   44.4370 O   0  0  0  0  0  0  0  0  0  0  0  0
   55.7110   29.8380   45.2150 N   0  0  0  0  0  0  0  0  0  0  0  0
   56.1570   28.5820   45.0570 C   0  0  0  0  0  0  0  0  0  0  0  0
   55.5470   27.4670   45.6200 O   0  0  0  0  0  0  0  0  0  0  0  0
  1  2  1  0
  2  3  1  0
  2  4  2  0
  4  5  1  0
  5  6  1  0
  6  7  1  0
  6  8  2  0
  8  9  1  0
  9 10  1  0
  9 11  1  0
  9 12  1  0
 12 13  2  0
 12 14  1  0
 14 15  1  0
 15 16  1  0
 15 17  1  0
 15 18  1  0
 18 19  1  0
 18 20  1  0
 18 21  1  0
 21 22  1  0
 22 23  1  0
 22 24  1  0
 24 25  1  0
 24 26  1  0
 24 27  1  0
 27 28  1  0
 27 29  1  0
 27 30  1  0
 30 31  1  0
 30 32  1  0
 30 33  1  0
 33 34  1  0
 33 35  1  0
 21 36  1  0
 36 37  1  0
 36 38  1  0
 36 39  1  0
 39 40  1  0
 39 41  1  0
  8 42  1  0
 42 43  2  0
 43 44  1  0
 43 45  1  0
 45 46  1  0
 46 47  1  0
 47 48  2  0
 47 49  1  0
 49 50  1  0
 50 51  1  0
 42  4  1  0
 50 45  2  0
 39 14  1  0
 33 22  1  0
M  CHG  3  46  -1  49  -1  51  -1
M  END
>  <UniqueID>  (55) 
50

>  <SMILES>  (55) 
C=c1occ(CC(=O)N2CCN(C3CCCC3)CC2)/c1=C\c1[n-]c(=O)[n-]c1[O-]

>  <Energy>  (55) 
133.1665148670863

>  <Genealogy>  (55) 
C=c1occ(CC(=O)N2CCN(C3CCCC3)CC2)c1=Cc1[n-]c(=O)[n-]c1[O-] (protonated)
C=c1occ(CC(=O)N2CCN(C3CCCC3)CC2)/c1=C\c1[n-]c(=O)[n-]c1[O-] (cis-trans isomerization)
C=c1occ(CC(=O)N2CCN(C3CCCC3)CC2)/c1=C\c1[n-]c(=O)[n-]c1[O-] (3D coordinates assigned)
C=c1occ(CC(=O)N2CCN(C3CCCC3)CC2)/c1=C\c1[n-]c(=O)[n-]c1[O-] (nonaromatic ring conformer: 133.1665148670863 kcal/mol)

>  <smiles>  (55) 
C=c1occ(CC(=O)N2CCN(C3CCCC3)CC2)c1=Cc1[nH]c(=O)[nH]c1O

>  <score_type>  (55) 
oracle

>  <origin>  (55) 
adg

>  <m_score__min__energy>  (55) 
-18.140000000000001

>  <m_primary>  (55) 
energy

$$$$
55:0
     RDKit          3D

 64 68  0  0  0  0  0  0  0  0999 V2000
   57.3690   31.8980   42.0850 C   0  0  0  0  0  0  0  0  0  0  0  0
   57.8150   31.6730   43.3280 C   0  0  0  0  0  0  0  0  0  0  0  0
   58.2990   30.4400   43.6730 N   0  0  0  0  0  0  0  0  0  0  0  0
   58.7180   30.1570   44.9420 C   0  0  0  0  0  0  0  0  0  0  0  0
   58.7130   31.1490   45.9420 C   0  0  0  0  0  0  0  0  0  0  0  0
   59.0380   30.7880   47.3390 C   0  0  0  0  0  0  0  0  0  0  0  0
   58.6860   31.5630   48.2700 O   0  0  0  0  0  0  0  0  0  0  0  0
   59.6970   29.5470   47.6630 N   0  0  0  0  0  0  0  0  0  0  0  0
   59.4920   28.9500   48.9850 C   0  0  0  0  0  0  0  0  0  0  0  0
   60.0810   27.5310   49.0380 C   0  0  0  0  0  0  0  0  0  0  0  0
   59.8590   26.8010   47.7660 N   0  0  0  0  0  0  0  0  0  0  0  0
   58.4200   26.5480   47.4660 C   0  0  0  0  0  0  0  0  0  0  0  0
   58.1400   25.0930   47.0840 C   0  0  0  0  0  0  0  0  0  0  0  0
   56.8870   25.1320   46.2320 C   0  0  0  0  0  0  0  0  0  0  0  0
   56.9240   26.4680   45.5060 C   0  0  0  0  0  0  0  0  0  0  0  0
   57.9420   27.3400   46.2380 C   0  0  0  0  0  0  0  0  0  0  0  0
   60.5760   27.4640   46.6390 C   0  0  0  0  0  0  0  0  0  0  0  0
   60.7480   28.9890   46.8030 C   0  0  0  0  0  0  0  0  0  0  0  0
   58.2870   32.4380   45.5700 C   0  0  0  0  0  0  0  0  0  0  0  0
   57.7900   32.6740   44.3120 C   0  0  0  0  0  0  0  0  0  0  0  0
   57.2850   33.8510   44.1660 N   0  0  0  0  0  0  0  0  0  0  0  0
   57.3460   34.5800   45.4270 C   0  0  0  0  0  0  0  0  0  0  0  0
   58.2240   33.7120   46.3640 C   0  0  2  0  0  0  0  0  0  0  0  0
   59.6070   34.3830   46.5410 C   0  0  0  0  0  0  0  0  0  0  0  0
   60.1380   34.3380   47.9780 C   0  0  0  0  0  0  0  0  0  0  0  0
   61.4160   33.5460   48.0470 C   0  0  0  0  0  0  0  0  0  0  0  0
   62.4070   33.7110   47.0640 C   0  0  0  0  0  0  0  0  0  0  0  0
   63.5810   32.9540   47.1150 C   0  0  0  0  0  0  0  0  0  0  0  0
   63.7710   32.0230   48.1400 C   0  0  0  0  0  0  0  0  0  0  0  0
   62.7850   31.8430   49.1140 C   0  0  0  0  0  0  0  0  0  0  0  0
   61.6090   32.5980   49.0670 C   0  0  0  0  0  0  0  0  0  0  0  0
   56.9807   32.8901   41.8112 H   0  0  0  0  0  0  0  0  0  0  0  0
   57.3911   31.0907   41.3382 H   0  0  0  0  0  0  0  0  0  0  0  0
   58.3250   29.6670   42.9670 H   0  0  0  0  0  0  0  0  0  0  0  0
   59.0637   29.1416   45.1860 H   0  0  0  0  0  0  0  0  0  0  0  0
   59.9861   29.5746   49.7438 H   0  0  0  0  0  0  0  0  0  0  0  0
   58.4115   28.8919   49.1830 H   0  0  0  0  0  0  0  0  0  0  0  0
   61.1626   27.6000   49.2261 H   0  0  0  0  0  0  0  0  0  0  0  0
   59.5770   26.9786   49.8447 H   0  0  0  0  0  0  0  0  0  0  0  0
   57.9047   26.8392   48.3932 H   0  0  0  0  0  0  0  0  0  0  0  0
   58.9818   24.6772   46.5109 H   0  0  0  0  0  0  0  0  0  0  0  0
   58.0106   24.4558   47.9712 H   0  0  0  0  0  0  0  0  0  0  0  0
   56.8887   24.3027   45.5093 H   0  0  0  0  0  0  0  0  0  0  0  0
   55.9778   25.0267   46.8422 H   0  0  0  0  0  0  0  0  0  0  0  0
   57.2326   26.3223   44.4603 H   0  0  0  0  0  0  0  0  0  0  0  0
   55.9311   26.9413   45.4996 H   0  0  0  0  0  0  0  0  0  0  0  0
   58.7933   27.5608   45.5773 H   0  0  0  0  0  0  0  0  0  0  0  0
   57.4904   28.2960   46.5416 H   0  0  0  0  0  0  0  0  0  0  0  0
   61.5753   27.0122   46.5535 H   0  0  0  0  0  0  0  0  0  0  0  0
   59.9589   27.3121   45.7412 H   0  0  0  0  0  0  0  0  0  0  0  0
   61.7295   29.1938   47.2554 H   0  0  0  0  0  0  0  0  0  0  0  0
   60.6756   29.4588   45.8110 H   0  0  0  0  0  0  0  0  0  0  0  0
   57.8040   35.5689   45.2778 H   0  0  0  0  0  0  0  0  0  0  0  0
   56.3445   34.7514   45.8486 H   0  0  0  0  0  0  0  0  0  0  0  0
   57.8525   33.5654   47.3889 H   0  0  0  0  0  0  0  0  0  0  0  0
   60.3280   33.8684   45.8888 H   0  0  0  0  0  0  0  0  0  0  0  0
   59.4838   35.4441   46.2785 H   0  0  0  0  0  0  0  0  0  0  0  0
   60.3297   35.3642   48.3247 H   0  0  0  0  0  0  0  0  0  0  0  0
   59.3861   33.8537   48.6184 H   0  0  0  0  0  0  0  0  0  0  0  0
   62.2582   34.4381   46.2521 H   0  0  0  0  0  0  0  0  0  0  0  0
   64.3566   33.0912   46.3472 H   0  0  0  0  0  0  0  0  0  0  0  0
   64.6975   31.4314   48.1801 H   0  0  0  0  0  0  0  0  0  0  0  0
   62.9341   31.1071   49.9179 H   0  0  0  0  0  0  0  0  0  0  0  0
   60.8318   32.4496   49.8312 H   0  0  0  0  0  0  0  0  0  0  0  0
  1  2  2  0
  2  3  1  0
  3  4  2  0
  4  5  1  0
  5  6  1  0
  6  7  2  0
  6  8  1  0
  8  9  1  0
  9 10  1  0
 10 11  1  0
 11 12  1  0
 12 13  1  0
 13 14  1  0
 14 15  1  0
 15 16  1  0
 11 17  1  0
 17 18  1  0
  5 19  2  0
 19 20  1  0
 20 21  2  0
 21 22  1  0
 22 23  1  0
 23 24  1  0
 24 25  1  0
 25 26  1  0
 26 27  2  0
 27 28  1  0
 28 29  2  0
 29 30  1  0
 30 31  2  0
 20  2  1  0
 31 26  1  0
 18  8  1  0
 23 19  1  0
 16 12  1  0
  1 32  1  0
  1 33  1  0
  3 34  1  0
  4 35  1  0
  9 36  1  0
  9 37  1  0
 10 38  1  0
 10 39  1  0
 12 40  1  0
 13 41  1  0
 13 42  1  0
 14 43  1  0
 14 44  1  0
 15 45  1  0
 15 46  1  0
 16 47  1  0
 16 48  1  0
 17 49  1  0
 17 50  1  0
 18 51  1  0
 18 52  1  0
 22 53  1  0
 22 54  1  0
 23 55  1  1
 24 56  1  0
 24 57  1  0
 25 58  1  0
 25 59  1  0
 27 60  1  0
 28 61  1  0
 29 62  1  0
 30 63  1  0
 31 64  1  0
M  CHG  1   3   1
M  END
>  <UniqueID>  (56) 
51

>  <SMILES>  (56) 
C=c1[nH+]cc(C(=O)N2CCN(C3CCCC3)CC2)c2c1=NC[C@@H]2CCc1ccccc1

>  <Energy>  (56) 
98.84459645293343

>  <Genealogy>  (56) 
C=c1[nH+]cc(C(=O)N2CCN(C3CCCC3)CC2)c2c1=NCC2CCc1ccccc1 (protonated)
C=c1[nH+]cc(C(=O)N2CCN(C3CCCC3)CC2)c2c1=NC[C@@H]2CCc1ccccc1 (chirality)
C=c1[nH+]cc(C(=O)N2CCN(C3CCCC3)CC2)c2c1=NC[C@@H]2CCc1ccccc1 (3D coordinates assigned)
C=c1[nH+]cc(C(=O)N2CCN(C3CCCC3)CC2)c2c1=NC[C@@H]2CCc1ccccc1 (nonaromatic ring conformer: 98.84459645293343 kcal/mol)

>  <smiles>  (56) 
C=c1ncc(C(=O)N2CCN(C3CCCC3)CC2)c2c1=NCC2CCc1ccccc1

>  <score_type>  (56) 
oracle

>  <origin>  (56) 
adg

>  <m_score__min__energy>  (56) 
-8.2599999999999998

>  <m_primary>  (56) 
energy

$$$$
56:0
     RDKit          3D

 65 68  0  0  0  0  0  0  0  0999 V2000
   55.5300   26.7810   45.9990 O   0  0  0  0  0  0  0  0  0  0  0  0
   56.7670   26.8940   46.2200 C   0  0  0  0  0  0  0  0  0  0  0  0
   57.5920   25.6990   46.6060 C   0  0  0  0  0  0  0  0  0  0  0  0
   58.7630   25.4450   45.6420 C   0  0  0  0  0  0  0  0  0  0  0  0
   58.8990   23.9790   45.2900 C   0  0  0  0  0  0  0  0  0  0  0  0
   59.9450   23.3750   45.6520 O   0  0  0  0  0  0  0  0  0  0  0  0
   57.9120   23.2730   44.4950 N   0  0  0  0  0  0  0  0  0  0  0  0
   56.6750   23.9440   44.0610 C   0  0  0  0  0  0  0  0  0  0  0  0
   55.9730   23.1760   42.9360 C   0  0  0  0  0  0  0  0  0  0  0  0
   55.8970   21.7990   43.2310 O   0  0  0  0  0  0  0  0  0  0  0  0
   57.2000   21.2600   43.2280 C   0  0  0  0  0  0  0  0  0  0  0  0
   58.0110   21.8060   44.4050 C   0  0  0  0  0  0  0  0  0  0  0  0
   57.3890   28.1830   46.2020 N   0  0  0  0  0  0  0  0  0  0  0  0
   57.2630   29.1750   45.1730 C   0  0  0  0  0  0  0  0  0  0  0  0
   56.3550   29.0070   44.1100 C   0  0  0  0  0  0  0  0  0  0  0  0
   56.2370   29.9860   43.1210 C   0  0  0  0  0  0  0  0  0  0  0  0
   57.0300   31.1330   43.1720 C   0  0  0  0  0  0  0  0  0  0  0  0
   57.9530   31.2990   44.2060 C   0  0  0  0  0  0  0  0  0  0  0  0
   58.0810   30.3250   45.2110 C   0  0  0  0  0  0  0  0  0  0  0  0
   59.0340   30.5240   46.2730 N   0  0  0  0  0  0  0  0  0  0  0  0
   58.7650   31.5100   47.3260 C   0  0  0  0  0  0  0  0  0  0  0  0
   59.8570   32.5810   47.3140 C   0  0  0  0  0  0  0  0  0  0  0  0
   61.2020   31.9890   47.2130 N   0  0  0  0  0  0  0  0  0  0  0  0
   62.3480   32.8690   47.2360 C   0  0  0  0  0  0  0  0  0  0  0  0
   62.1910   34.0990   46.9870 O   0  0  0  0  0  0  0  0  0  0  0  0
   63.7370   32.3440   47.5080 C   0  0  0  0  0  0  0  0  0  0  0  0
   64.0530   32.2760   48.9810 C   0  0  0  0  0  0  0  0  0  0  0  0
   63.1680   31.6360   49.8680 C   0  0  0  0  0  0  0  0  0  0  0  0
   63.4650   31.5740   51.2330 C   0  0  0  0  0  0  0  0  0  0  0  0
   64.6400   32.1540   51.7230 C   0  0  0  0  0  0  0  0  0  0  0  0
   65.5150   32.8070   50.8520 C   0  0  0  0  0  0  0  0  0  0  0  0
   65.2220   32.8740   49.4860 C   0  0  0  0  0  0  0  0  0  0  0  0
   61.3500   30.5220   47.1830 C   0  0  0  0  0  0  0  0  0  0  0  0
   60.3650   29.9040   46.1800 C   0  0  0  0  0  0  0  0  0  0  0  0
   57.9973   25.8633   47.6153 H   0  0  0  0  0  0  0  0  0  0  0  0
   56.9351   24.8175   46.5677 H   0  0  0  0  0  0  0  0  0  0  0  0
   58.5935   26.0179   44.7184 H   0  0  0  0  0  0  0  0  0  0  0  0
   59.6901   25.7621   46.1420 H   0  0  0  0  0  0  0  0  0  0  0  0
   55.9917   24.0203   44.9197 H   0  0  0  0  0  0  0  0  0  0  0  0
   56.9435   24.9397   43.6782 H   0  0  0  0  0  0  0  0  0  0  0  0
   54.9549   23.5732   42.8110 H   0  0  0  0  0  0  0  0  0  0  0  0
   56.5543   23.3032   42.0109 H   0  0  0  0  0  0  0  0  0  0  0  0
   57.1384   20.1647   43.3085 H   0  0  0  0  0  0  0  0  0  0  0  0
   57.6996   21.5449   42.2904 H   0  0  0  0  0  0  0  0  0  0  0  0
   57.6295   21.3642   45.3374 H   0  0  0  0  0  0  0  0  0  0  0  0
   59.0670   21.5404   44.2490 H   0  0  0  0  0  0  0  0  0  0  0  0
   55.7352   28.0997   44.0583 H   0  0  0  0  0  0  0  0  0  0  0  0
   55.5173   29.8526   42.2999 H   0  0  0  0  0  0  0  0  0  0  0  0
   56.9278   31.9069   42.3970 H   0  0  0  0  0  0  0  0  0  0  0  0
   58.5849   32.1989   44.2344 H   0  0  0  0  0  0  0  0  0  0  0  0
   57.7875   31.9812   47.1458 H   0  0  0  0  0  0  0  0  0  0  0  0
   58.7555   31.0075   48.3045 H   0  0  0  0  0  0  0  0  0  0  0  0
   59.6947   33.2455   46.4525 H   0  0  0  0  0  0  0  0  0  0  0  0
   59.7991   33.1393   48.2600 H   0  0  0  0  0  0  0  0  0  0  0  0
   63.8211   31.3331   47.0826 H   0  0  0  0  0  0  0  0  0  0  0  0
   64.4526   33.0396   47.0454 H   0  0  0  0  0  0  0  0  0  0  0  0
   62.2406   31.1835   49.4869 H   0  0  0  0  0  0  0  0  0  0  0  0
   62.7734   31.0682   51.9228 H   0  0  0  0  0  0  0  0  0  0  0  0
   64.8751   32.0957   52.7960 H   0  0  0  0  0  0  0  0  0  0  0  0
   66.4348   33.2687   51.2404 H   0  0  0  0  0  0  0  0  0  0  0  0
   65.9086   33.3965   48.8036 H   0  0  0  0  0  0  0  0  0  0  0  0
   62.3778   30.2676   46.8850 H   0  0  0  0  0  0  0  0  0  0  0  0
   61.1364   30.1217   48.1851 H   0  0  0  0  0  0  0  0  0  0  0  0
   60.7553   30.0484   45.1618 H   0  0  0  0  0  0  0  0  0  0  0  0
   60.2624   28.8342   46.4145 H   0  0  0  0  0  0  0  0  0  0  0  0
  1  2  2  0
  2  3  1  0
  3  4  1  0
  4  5  1  0
  5  6  2  0
  5  7  1  0
  7  8  1  0
  8  9  1  0
  9 10  1  0
 10 11  1  0
 11 12  1  0
  2 13  1  0
 13 14  1  0
 14 15  2  0
 15 16  1  0
 16 17  2  0
 17 18  1  0
 18 19  2  0
 19 20  1  0
 20 21  1  0
 21 22  1  0
 22 23  1  0
 23 24  1  0
 24 25  2  0
 24 26  1  0
 26 27  1  0
 27 28  2  0
 28 29  1  0
 29 30  2  0
 30 31  1  0
 31 32  2  0
 23 33  1  0
 33 34  1  0
 12  7  1  0
 19 14  1  0
 34 20  1  0
 32 27  1  0
  3 35  1  0
  3 36  1  0
  4 37  1  0
  4 38  1  0
  8 39  1  0
  8 40  1  0
  9 41  1  0
  9 42  1  0
 11 43  1  0
 11 44  1  0
 12 45  1  0
 12 46  1  0
 15 47  1  0
 16 48  1  0
 17 49  1  0
 18 50  1  0
 21 51  1  0
 21 52  1  0
 22 53  1  0
 22 54  1  0
 26 55  1  0
 26 56  1  0
 28 57  1  0
 29 58  1  0
 30 59  1  0
 31 60  1  0
 32 61  1  0
 33 62  1  0
 33 63  1  0
 34 64  1  0
 34 65  1  0
M  CHG  1  13  -1
M  END
>  <UniqueID>  (57) 
52

>  <SMILES>  (57) 
O=C(CCC(=O)N1CCOCC1)[N-]c1ccccc1N1CCN(C(=O)Cc2ccccc2)CC1

>  <Energy>  (57) 
79.49717484950132

>  <Genealogy>  (57) 
O=C(CCC(=O)N1CCOCC1)[N-]c1ccccc1N1CCN(C(=O)Cc2ccccc2)CC1 (protonated)
O=C(CCC(=O)N1CCOCC1)[N-]c1ccccc1N1CCN(C(=O)Cc2ccccc2)CC1 (3D coordinates assigned)
O=C(CCC(=O)N1CCOCC1)[N-]c1ccccc1N1CCN(C(=O)Cc2ccccc2)CC1 (nonaromatic ring conformer: 79.49717484950132 kcal/mol)

>  <smiles>  (57) 
O=C(CCC(=O)N1CCOCC1)Nc1ccccc1N1CCN(C(=O)Cc2ccccc2)CC1

>  <score_type>  (57) 
oracle

>  <origin>  (57) 
adg

>  <m_score__min__energy>  (57) 
-11.74

>  <m_primary>  (57) 
energy

$$$$
57:0
     RDKit          3D

 46 48  0  0  0  0  0  0  0  0999 V2000
   52.4070   32.4410   49.7920 H   0  0  0  0  0  0  0  0  0  0  0  0
   51.5160   32.6770   50.2100 O   0  0  0  0  0  0  0  0  0  0  0  0
   51.2330   32.3830   51.5410 C   0  0  0  0  0  0  0  0  0  0  0  0
   50.4530   33.1530   52.3170 N   0  0  0  0  0  0  0  0  0  0  0  0
   50.5050   32.5250   53.5110 C   0  0  0  0  0  0  0  0  0  0  0  0
   49.8950   32.9490   54.5280 O   0  0  0  0  0  0  0  0  0  0  0  0
   51.2700   31.4120   53.5340 N   0  0  0  0  0  0  0  0  0  0  0  0
   51.7100   31.3110   52.2680 C   0  0  0  0  0  0  0  0  0  0  0  0
   52.6670   30.2870   51.8240 C   0  0  0  0  0  0  0  0  0  0  0  0
   52.2958   29.5218   51.1264 H   0  0  0  0  0  0  0  0  0  0  0  0
   53.9590   30.2040   52.1970 C   0  0  0  0  0  0  0  0  0  0  0  0
   54.8500   31.2510   52.0410 C   0  0  0  0  0  0  0  0  0  0  0  0
   54.6181   32.2534   51.6519 H   0  0  0  0  0  0  0  0  0  0  0  0
   56.0840   30.8020   52.4650 C   0  0  0  0  0  0  0  0  0  0  0  0
   57.3050   31.6310   52.5340 C   0  0  0  0  0  0  0  0  0  0  0  0
   57.4750   32.3810   53.5320 O   0  0  0  0  0  0  0  0  0  0  0  0
   58.3180   31.6020   51.5190 N   0  0  0  0  0  0  0  0  0  0  0  0
   58.1200   31.2820   50.1070 C   0  0  0  0  0  0  0  0  0  0  0  0
   58.7562   30.4260   49.8377 H   0  0  0  0  0  0  0  0  0  0  0  0
   57.0605   31.0347   49.9447 H   0  0  0  0  0  0  0  0  0  0  0  0
   58.4910   32.4890   49.2190 C   0  0  0  0  0  0  0  0  0  0  0  0
   58.0132   33.3849   49.6423 H   0  0  0  0  0  0  0  0  0  0  0  0
   59.5896   32.5439   49.2146 H   0  0  0  0  0  0  0  0  0  0  0  0
   58.0740   32.3700   47.8030 N   0  0  0  0  0  0  0  0  0  0  0  0
   58.6390   31.1870   47.1220 C   0  0  0  0  0  0  0  0  0  0  0  0
   59.7251   31.1568   47.2937 H   0  0  0  0  0  0  0  0  0  0  0  0
   58.1611   30.2841   47.5300 H   0  0  0  0  0  0  0  0  0  0  0  0
   58.3690   31.2460   45.6070 C   0  0  0  0  0  0  0  0  0  0  0  0
   59.2590   31.6415   45.0957 H   0  0  0  0  0  0  0  0  0  0  0  0
   58.1439   30.2317   45.2456 H   0  0  0  0  0  0  0  0  0  0  0  0
   57.2640   32.0850   45.3340 O   0  0  0  0  0  0  0  0  0  0  0  0
   57.5920   33.4330   45.6300 C   0  0  0  0  0  0  0  0  0  0  0  0
   58.2855   33.8027   44.8603 H   0  0  0  0  0  0  0  0  0  0  0  0
   56.6531   34.0060   45.6440 H   0  0  0  0  0  0  0  0  0  0  0  0
   58.2570   33.5990   47.0130 C   0  0  0  0  0  0  0  0  0  0  0  0
   59.3319   33.7920   46.8810 H   0  0  0  0  0  0  0  0  0  0  0  0
   57.7918   34.4441   47.5415 H   0  0  0  0  0  0  0  0  0  0  0  0
   55.9910   29.5230   52.9000 N   0  0  0  0  0  0  0  0  0  0  0  0
   57.0830   28.7210   53.4640 C   0  0  0  0  0  0  0  0  0  0  0  0
   57.0346   28.7566   54.5624 H   0  0  0  0  0  0  0  0  0  0  0  0
   56.9848   27.6788   53.1262 H   0  0  0  0  0  0  0  0  0  0  0  0
   58.0481   29.1265   53.1262 H   0  0  0  0  0  0  0  0  0  0  0  0
   54.6880   29.1540   52.7800 C   0  0  0  0  0  0  0  0  0  0  0  0
   54.1980   28.0070   53.2770 C   0  0  0  0  0  0  0  0  0  0  0  0
   54.8793   27.2596   53.7096 H   0  0  0  0  0  0  0  0  0  0  0  0
   53.1152   27.8147   53.2515 H   0  0  0  0  0  0  0  0  0  0  0  0
  1  2  1  0
  2  3  1  0
  3  4  1  0
  4  5  1  0
  5  6  2  0
  5  7  1  0
  7  8  1  0
  8  9  1  0
  9 10  1  0
  9 11  2  0
 11 12  1  0
 12 13  1  0
 12 14  2  0
 14 15  1  0
 15 16  2  0
 15 17  1  0
 17 18  1  0
 18 19  1  0
 18 20  1  0
 18 21  1  0
 21 22  1  0
 21 23  1  0
 21 24  1  0
 24 25  1  0
 25 26  1  0
 25 27  1  0
 25 28  1  0
 28 29  1  0
 28 30  1  0
 28 31  1  0
 31 32  1  0
 32 33  1  0
 32 34  1  0
 32 35  1  0
 35 36  1  0
 35 37  1  0
 14 38  1  0
 38 39  1  0
 39 40  1  0
 39 41  1  0
 39 42  1  0
 38 43  1  0
 43 44  2  0
 44 45  1  0
 44 46  1  0
  8  3  2  0
 43 11  1  0
 35 24  1  0
M  CHG  3   4  -1   7  -1  17  -1
M  END
>  <UniqueID>  (58) 
53

>  <SMILES>  (58) 
C=c1/c(=C\c2[n-]c(=O)[n-]c2O)cc(C(=O)[N-]CCN2CCOCC2)n1C

>  <Energy>  (58) 
134.50076318856136

>  <Genealogy>  (58) 
C=c1c(=Cc2[n-]c(=O)[n-]c2O)cc(C(=O)[N-]CCN2CCOCC2)n1C (protonated)
C=c1/c(=C\c2[n-]c(=O)[n-]c2O)cc(C(=O)[N-]CCN2CCOCC2)n1C (cis-trans isomerization)
C=c1/c(=C\c2[n-]c(=O)[n-]c2O)cc(C(=O)[N-]CCN2CCOCC2)n1C (3D coordinates assigned)
C=c1/c(=C\c2[n-]c(=O)[n-]c2O)cc(C(=O)[N-]CCN2CCOCC2)n1C (nonaromatic ring conformer: 134.50076318856136 kcal/mol)

>  <smiles>  (58) 
C=c1c(=Cc2[nH]c(=O)[nH]c2O)cc(C(=O)NCCN2CCOCC2)n1C

>  <score_type>  (58) 
oracle

>  <origin>  (58) 
adg

>  <m_score__min__energy>  (58) 
-14.01

>  <m_primary>  (58) 
energy

$$$$
58:0
     RDKit          3D

 58 60  0  0  0  0  0  0  0  0999 V2000
   60.3121   35.7034   47.1456 H   0  0  0  0  0  0  0  0  0  0  0  0
   59.6540   35.5040   46.2870 C   0  0  0  0  0  0  0  0  0  0  0  0
   59.3796   36.3206   45.6030 H   0  0  0  0  0  0  0  0  0  0  0  0
   59.1880   34.2700   46.0750 C   0  0  0  0  0  0  0  0  0  0  0  0
   58.1780   33.8710   44.7910 S   0  0  0  0  0  0  0  0  0  0  0  0
   58.0890   32.2380   45.1870 C   0  0  0  0  0  0  0  0  0  0  0  0
   57.4140   31.3370   44.4520 C   0  0  0  0  0  0  0  0  0  0  0  0
   56.7007   31.7200   43.7073 H   0  0  0  0  0  0  0  0  0  0  0  0
   57.5580   29.8730   44.5690 C   0  0  0  0  0  0  0  0  0  0  0  0
   58.7150   29.2180   44.1210 C   0  0  0  0  0  0  0  0  0  0  0  0
   59.5213   29.7953   43.6449 H   0  0  0  0  0  0  0  0  0  0  0  0
   58.8480   27.8340   44.2770 C   0  0  0  0  0  0  0  0  0  0  0  0
   59.7551   27.3282   43.9146 H   0  0  0  0  0  0  0  0  0  0  0  0
   57.8300   27.0850   44.8940 C   0  0  0  0  0  0  0  0  0  0  0  0
   57.9970   25.5870   45.0680 C   0  0  0  0  0  0  0  0  0  0  0  0
   59.0733   25.3617   45.0408 H   0  0  0  0  0  0  0  0  0  0  0  0
   57.3420   24.8110   43.9200 C   0  0  0  0  0  0  0  0  0  0  0  0
   56.6843   24.0318   44.3325 H   0  0  0  0  0  0  0  0  0  0  0  0
   56.7495   25.5015   43.3018 H   0  0  0  0  0  0  0  0  0  0  0  0
   58.1222   24.3428   43.3018 H   0  0  0  0  0  0  0  0  0  0  0  0
   57.4490   25.1380   46.4240 C   0  0  0  0  0  0  0  0  0  0  0  0
   58.0287   25.6130   47.2292 H   0  0  0  0  0  0  0  0  0  0  0  0
   56.3929   25.4338   46.5089 H   0  0  0  0  0  0  0  0  0  0  0  0
   57.5314   24.0444   46.5089 H   0  0  0  0  0  0  0  0  0  0  0  0
   56.6920   27.7560   45.3820 C   0  0  0  0  0  0  0  0  0  0  0  0
   55.8982   27.1862   45.8873 H   0  0  0  0  0  0  0  0  0  0  0  0
   56.5620   29.1400   45.2300 C   0  0  0  0  0  0  0  0  0  0  0  0
   55.6761   29.6550   45.6300 H   0  0  0  0  0  0  0  0  0  0  0  0
   58.8810   32.0410   46.3300 C   0  0  0  0  0  0  0  0  0  0  0  0
   59.0780   30.9040   46.8450 O   0  0  0  0  0  0  0  0  0  0  0  0
   59.4720   33.1720   46.8350 N   0  0  0  0  0  0  0  0  0  0  0  0
   60.3820   33.1580   47.9950 C   0  0  0  0  0  0  0  0  0  0  0  0
   60.7045   32.1245   48.1895 H   0  0  0  0  0  0  0  0  0  0  0  0
   61.2530   33.7915   47.7714 H   0  0  0  0  0  0  0  0  0  0  0  0
   59.6860   33.7000   49.2200 C   0  0  0  0  0  0  0  0  0  0  0  0
   59.5930   34.9590   49.3530 O   0  0  0  0  0  0  0  0  0  0  0  0
   59.2080   32.8280   50.2740 N   0  0  0  0  0  0  0  0  0  0  0  0
   59.0880   33.3300   51.6500 C   0  0  0  0  0  0  0  0  0  0  0  0
   59.8773   32.8778   52.2685 H   0  0  0  0  0  0  0  0  0  0  0  0
   59.1917   34.4250   51.6349 H   0  0  0  0  0  0  0  0  0  0  0  0
   57.7020   32.9710   52.2520 C   0  0  0  0  0  0  0  0  0  0  0  0
   57.8421   32.6965   53.3079 H   0  0  0  0  0  0  0  0  0  0  0  0
   57.0591   33.8554   52.1312 H   0  0  0  0  0  0  0  0  0  0  0  0
   57.0260   31.8430   51.5590 N   0  0  0  0  0  0  0  0  0  0  0  0
   56.5620   32.2370   50.7020 H   0  0  0  0  0  0  0  0  0  0  0  0
   55.9740   31.2640   52.4260 C   0  0  0  0  0  0  0  0  0  0  0  0
   56.3839   30.3799   52.9363 H   0  0  0  0  0  0  0  0  0  0  0  0
   55.6680   32.0387   53.1445 H   0  0  0  0  0  0  0  0  0  0  0  0
   54.7270   30.8420   51.6330 C   0  0  0  0  0  0  0  0  0  0  0  0
   53.9226   30.5698   52.3322 H   0  0  0  0  0  0  0  0  0  0  0  0
   54.3950   31.6778   50.9996 H   0  0  0  0  0  0  0  0  0  0  0  0
   54.9708   29.9763   50.9996 H   0  0  0  0  0  0  0  0  0  0  0  0
   58.0170   30.8270   51.1370 C   0  0  0  0  0  0  0  0  0  0  0  0
   58.6513   30.5532   51.9929 H   0  0  0  0  0  0  0  0  0  0  0  0
   57.4959   29.9299   50.7713 H   0  0  0  0  0  0  0  0  0  0  0  0
   58.8920   31.4140   50.0130 C   0  0  0  0  0  0  0  0  0  0  0  0
   59.8292   30.8416   49.9507 H   0  0  0  0  0  0  0  0  0  0  0  0
   58.3364   31.3482   49.0659 H   0  0  0  0  0  0  0  0  0  0  0  0
  1  2  1  0
  2  3  1  0
  2  4  2  0
  4  5  1  0
  5  6  1  0
  6  7  2  0
  7  8  1  0
  7  9  1  0
  9 10  2  0
 10 11  1  0
 10 12  1  0
 12 13  1  0
 12 14  2  0
 14 15  1  0
 15 16  1  0
 15 17  1  0
 17 18  1  0
 17 19  1  0
 17 20  1  0
 15 21  1  0
 21 22  1  0
 21 23  1  0
 21 24  1  0
 14 25  1  0
 25 26  1  0
 25 27  2  0
 27 28  1  0
  6 29  1  0
 29 30  2  0
 29 31  1  0
 31 32  1  0
 32 33  1  0
 32 34  1  0
 32 35  1  0
 35 36  2  0
 35 37  1  0
 37 38  1  0
 38 39  1  0
 38 40  1  0
 38 41  1  0
 41 42  1  0
 41 43  1  0
 41 44  1  0
 44 45  1  0
 44 46  1  0
 46 47  1  0
 46 48  1  0
 46 49  1  0
 49 50  1  0
 49 51  1  0
 49 52  1  0
 44 53  1  0
 53 54  1  0
 53 55  1  0
 53 56  1  0
 56 57  1  0
 56 58  1  0
 31  4  1  0
 56 37  1  0
 27  9  1  0
M  CHG  1  44   1
M  END
>  <UniqueID>  (59) 
54

>  <SMILES>  (59) 
C=c1s/c(=C/c2ccc(C(C)C)cc2)c(=O)n1CC(=O)N1CC[NH+](CC)CC1

>  <Energy>  (59) 
103.58931058457291

>  <Genealogy>  (59) 
C=c1sc(=Cc2ccc(C(C)C)cc2)c(=O)n1CC(=O)N1CC[NH+](CC)CC1 (protonated)
C=c1s/c(=C/c2ccc(C(C)C)cc2)c(=O)n1CC(=O)N1CC[NH+](CC)CC1 (cis-trans isomerization)
C=c1s/c(=C/c2ccc(C(C)C)cc2)c(=O)n1CC(=O)N1CC[NH+](CC)CC1 (3D coordinates assigned)
C=c1s/c(=C/c2ccc(C(C)C)cc2)c(=O)n1CC(=O)N1CC[NH+](CC)CC1 (nonaromatic ring conformer: 103.58931058457291 kcal/mol)

>  <smiles>  (59) 
C=c1sc(=Cc2ccc(C(C)C)cc2)c(=O)n1CC(=O)N1CCN(CC)CC1

>  <score_type>  (59) 
oracle

>  <origin>  (59) 
adg

>  <m_score__min__energy>  (59) 
-7.1600000000000001

>  <m_primary>  (59) 
energy

$$$$
59:0
     RDKit          3D

 43 45  0  0  0  0  0  0  0  0999 V2000
   57.7740   32.7880   43.6160 C   0  0  0  0  0  0  0  0  0  0  0  0
   57.9830   31.6860   44.3400 C   0  0  0  0  0  0  0  0  0  0  0  0
   57.9700   30.4470   43.8150 N   0  0  0  0  0  0  0  0  0  0  0  0
   58.2480   29.5800   44.8130 C   0  0  0  0  0  0  0  0  0  0  0  0
   58.3160   28.2530   44.5970 C   0  0  0  0  0  0  0  0  0  0  0  0
   57.5950   27.2330   45.3810 C   0  0  0  0  0  0  0  0  0  0  0  0
   56.2210   27.3630   45.6240 C   0  0  0  0  0  0  0  0  0  0  0  0
   55.5250   28.4780   45.1710 O   0  0  0  0  0  0  0  0  0  0  0  0
   55.5610   26.3990   46.3180 N   0  0  0  0  0  0  0  0  0  0  0  0
   56.2090   25.2950   46.7700 C   0  0  0  0  0  0  0  0  0  0  0  0
   55.5790   24.4160   47.4130 O   0  0  0  0  0  0  0  0  0  0  0  0
   57.5340   25.1340   46.5230 N   0  0  0  0  0  0  0  0  0  0  0  0
   58.2380   26.0690   45.8340 C   0  0  0  0  0  0  0  0  0  0  0  0
   59.4630   25.8810   45.6080 O   0  0  0  0  0  0  0  0  0  0  0  0
   58.4190   30.2830   46.0130 C   0  0  0  0  0  0  0  0  0  0  0  0
   58.5790   29.7260   47.4020 C   0  0  0  0  0  0  0  0  0  0  0  0
   58.2680   31.6300   45.6960 C   0  0  0  0  0  0  0  0  0  0  0  0
   58.3440   32.7670   46.6360 C   0  0  0  0  0  0  0  0  0  0  0  0
   57.2900   33.3910   46.9320 O   0  0  0  0  0  0  0  0  0  0  0  0
   59.6000   33.1660   47.2150 N   0  0  0  0  0  0  0  0  0  0  0  0
   60.8270   33.0890   46.4040 C   0  0  0  0  0  0  0  0  0  0  0  0
   61.9910   33.8390   47.0600 C   0  0  0  0  0  0  0  0  0  0  0  0
   62.0800   33.4910   48.4840 N   0  0  0  0  0  0  0  0  0  0  0  0
   63.3520   33.3160   49.1290 C   0  0  0  0  0  0  0  0  0  0  0  0
   64.4290   33.4560   48.4910 O   0  0  0  0  0  0  0  0  0  0  0  0
   60.8670   33.4150   49.3090 C   0  0  0  0  0  0  0  0  0  0  0  0
   59.6200   33.8310   48.5220 C   0  0  0  0  0  0  0  0  0  0  0  0
   57.7963   33.7760   44.0992 H   0  0  0  0  0  0  0  0  0  0  0  0
   57.5795   32.7080   42.5363 H   0  0  0  0  0  0  0  0  0  0  0  0
   57.7920   30.2020   42.8130 H   0  0  0  0  0  0  0  0  0  0  0  0
   58.9572   27.9034   43.7744 H   0  0  0  0  0  0  0  0  0  0  0  0
   58.3537   30.5102   48.1397 H   0  0  0  0  0  0  0  0  0  0  0  0
   57.8869   28.8824   47.5407 H   0  0  0  0  0  0  0  0  0  0  0  0
   59.6133   29.3783   47.5407 H   0  0  0  0  0  0  0  0  0  0  0  0
   61.1077   32.0324   46.2825 H   0  0  0  0  0  0  0  0  0  0  0  0
   60.6232   33.5586   45.4304 H   0  0  0  0  0  0  0  0  0  0  0  0
   62.9302   33.5621   46.5588 H   0  0  0  0  0  0  0  0  0  0  0  0
   61.8197   34.9214   46.9650 H   0  0  0  0  0  0  0  0  0  0  0  0
   63.3858   33.0556   50.1972 H   0  0  0  0  0  0  0  0  0  0  0  0
   60.7386   32.3804   49.6597 H   0  0  0  0  0  0  0  0  0  0  0  0
   60.9845   34.1065   50.1563 H   0  0  0  0  0  0  0  0  0  0  0  0
   58.7211   33.5459   49.0884 H   0  0  0  0  0  0  0  0  0  0  0  0
   59.6387   34.9203   48.3699 H   0  0  0  0  0  0  0  0  0  0  0  0
  1  2  2  0
  2  3  1  0
  3  4  1  0
  4  5  2  3
  5  6  1  0
  6  7  2  0
  7  8  1  0
  7  9  1  0
  9 10  1  0
 10 11  2  0
 10 12  1  0
 12 13  1  0
 13 14  2  0
  4 15  1  0
 15 16  1  0
 15 17  2  0
 17 18  1  0
 18 19  2  0
 18 20  1  0
 20 21  1  0
 21 22  1  0
 22 23  1  0
 23 24  1  0
 24 25  2  0
 23 26  1  0
 26 27  1  0
 17  2  1  0
 27 20  1  0
 13  6  1  0
  1 28  1  0
  1 29  1  0
  3 30  1  0
  5 31  1  0
 16 32  1  0
 16 33  1  0
 16 34  1  0
 21 35  1  0
 21 36  1  0
 22 37  1  0
 22 38  1  0
 24 39  1  0
 26 40  1  0
 26 41  1  0
 27 42  1  0
 27 43  1  0
M  CHG  3   8  -1   9  -1  12  -1
M  END
>  <UniqueID>  (60) 
55

>  <SMILES>  (60) 
C=c1[nH]c(=Cc2c([O-])[n-]c(=O)[n-]c2=O)c(C)c1C(=O)N1CCN(C=O)CC1

>  <Energy>  (60) 
87.12420385944377

>  <Genealogy>  (60) 
C=c1[nH]c(=Cc2c([O-])[n-]c(=O)[n-]c2=O)c(C)c1C(=O)N1CCN(C=O)CC1 (protonated)
C=c1[nH]c(=Cc2c([O-])[n-]c(=O)[n-]c2=O)c(C)c1C(=O)N1CCN(C=O)CC1 (3D coordinates assigned)
C=c1[nH]c(=Cc2c([O-])[n-]c(=O)[n-]c2=O)c(C)c1C(=O)N1CCN(C=O)CC1 (nonaromatic ring conformer: 87.12420385944377 kcal/mol)

>  <smiles>  (60) 
C=c1[nH]c(=Cc2c(O)[nH]c(=O)[nH]c2=O)c(C)c1C(=O)N1CCN(C=O)CC1

>  <score_type>  (60) 
oracle

>  <origin>  (60) 
adg

>  <m_score__min__energy>  (60) 
-15.880000000000001

>  <m_primary>  (60) 
energy

$$$$
60:0
     RDKit          3D

 46 49  0  0  0  0  0  0  0  0999 V2000
   52.7750   27.4040   54.1500 N   0  0  0  0  0  0  0  0  0  0  0  0
   53.7270   27.9570   53.7920 C   0  0  0  0  0  0  0  0  0  0  0  0
   54.9170   28.6460   53.3430 C   0  0  0  0  0  0  0  0  0  0  0  0
   54.8400   29.9080   52.7120 C   0  0  0  0  0  0  0  0  0  0  0  0
   53.5520   30.6210   52.5290 C   0  0  0  0  0  0  0  0  0  0  0  0
   53.2050   31.1400   51.2700 C   0  0  0  0  0  0  0  0  0  0  0  0
   51.9990   31.8270   51.0980 C   0  0  0  0  0  0  0  0  0  0  0  0
   51.1350   32.0090   52.1810 C   0  0  0  0  0  0  0  0  0  0  0  0
   49.9380   32.6920   52.0090 O   0  0  0  0  0  0  0  0  0  0  0  0
   51.4780   31.5060   53.4400 C   0  0  0  0  0  0  0  0  0  0  0  0
   52.6820   30.8190   53.6160 C   0  0  0  0  0  0  0  0  0  0  0  0
   56.0170   30.5050   52.2380 C   0  0  0  0  0  0  0  0  0  0  0  0
   57.2510   29.8580   52.4040 C   0  0  0  0  0  0  0  0  0  0  0  0
   58.5410   30.4830   51.9220 C   0  0  2  0  0  0  0  0  0  0  0  0
   58.5490   31.9960   52.2050 C   0  0  0  0  0  0  0  0  0  0  0  0
   59.7240   32.6800   51.4870 C   0  0  0  0  0  0  0  0  0  0  0  0
   59.7570   32.4340   50.0050 N   0  0  2  0  0  0  0  0  0  0  0  0
   59.6320   33.6380   49.1330 C   0  0  0  0  0  0  0  0  0  0  0  0
   58.7550   33.4680   47.9080 C   0  0  0  0  0  0  0  0  0  0  0  0
   59.8420   33.6510   47.0270 O   0  0  0  0  0  0  0  0  0  0  0  0
   60.7290   33.8480   48.1070 C   0  0  0  0  0  0  0  0  0  0  0  0
   58.7850   31.4120   49.5480 C   0  0  0  0  0  0  0  0  0  0  0  0
   58.8260   30.1590   50.4330 C   0  0  0  0  0  0  0  0  0  0  0  0
   57.2920   28.6500   53.0270 N   0  0  0  0  0  0  0  0  0  0  0  0
   56.1740   28.0350   53.4920 C   0  0  0  0  0  0  0  0  0  0  0  0
   56.2790   26.9110   54.0530 O   0  0  0  0  0  0  0  0  0  0  0  0
   53.8850   31.0053   50.4159 H   0  0  0  0  0  0  0  0  0  0  0  0
   51.7301   32.2248   50.1083 H   0  0  0  0  0  0  0  0  0  0  0  0
   50.7989   31.6514   54.2931 H   0  0  0  0  0  0  0  0  0  0  0  0
   52.9506   30.4312   54.6097 H   0  0  0  0  0  0  0  0  0  0  0  0
   55.9728   31.4823   51.7351 H   0  0  0  0  0  0  0  0  0  0  0  0
   59.3677   30.0340   52.4921 H   0  0  0  0  0  0  0  0  0  0  0  0
   57.6048   32.4343   51.8495 H   0  0  0  0  0  0  0  0  0  0  0  0
   58.6595   32.1513   53.2884 H   0  0  0  0  0  0  0  0  0  0  0  0
   59.6500   33.7643   51.6567 H   0  0  0  0  0  0  0  0  0  0  0  0
   60.6470   32.2500   51.9031 H   0  0  0  0  0  0  0  0  0  0  0  0
   60.7050   32.0430   49.7890 H   0  0  0  0  0  0  0  0  0  0  0  0
   59.4247   34.3459   49.9490 H   0  0  0  0  0  0  0  0  0  0  0  0
   58.2926   32.4727   47.8339 H   0  0  0  0  0  0  0  0  0  0  0  0
   57.8645   34.1040   47.7965 H   0  0  0  0  0  0  0  0  0  0  0  0
   61.5299   33.0959   48.1603 H   0  0  0  0  0  0  0  0  0  0  0  0
   61.3271   34.7704   48.1456 H   0  0  0  0  0  0  0  0  0  0  0  0
   57.7727   31.8410   49.5830 H   0  0  0  0  0  0  0  0  0  0  0  0
   59.0513   31.1179   48.5220 H   0  0  0  0  0  0  0  0  0  0  0  0
   58.0680   29.4471   50.0742 H   0  0  0  0  0  0  0  0  0  0  0  0
   59.8382   29.7333   50.3682 H   0  0  0  0  0  0  0  0  0  0  0  0
  1  2  3  0
  2  3  1  0
  3  4  2  0
  4  5  1  0
  5  6  2  0
  6  7  1  0
  7  8  2  0
  8  9  1  0
  8 10  1  0
 10 11  2  0
  4 12  1  0
 12 13  2  0
 13 14  1  0
 14 15  1  0
 15 16  1  0
 16 17  1  0
 17 18  1  0
 18 19  1  0
 19 20  1  0
 20 21  1  0
 17 22  1  0
 22 23  1  0
 13 24  1  0
 24 25  1  0
 25 26  2  0
 25  3  1  0
 11  5  1  0
 23 14  1  0
 21 18  1  0
  6 27  1  0
  7 28  1  0
 10 29  1  0
 11 30  1  0
 12 31  1  0
 14 32  1  1
 15 33  1  0
 15 34  1  0
 16 35  1  0
 16 36  1  0
 17 37  1  1
 18 38  1  0
 19 39  1  0
 19 40  1  0
 21 41  1  0
 21 42  1  0
 22 43  1  0
 22 44  1  0
 23 45  1  0
 23 46  1  0
M  CHG  3   9  -1  17   1  24  -1
M  END
>  <UniqueID>  (61) 
56

>  <SMILES>  (61) 
N#Cc1c(-c2ccc([O-])cc2)cc(C2CC[NH+](C3COC3)CC2)[n-]c1=O

>  <Energy>  (61) 
136.59756979142512

>  <Genealogy>  (61) 
N#Cc1c(-c2ccc([O-])cc2)cc(C2CC[NH+](C3COC3)CC2)[n-]c1=O (protonated)
N#Cc1c(-c2ccc([O-])cc2)cc(C2CC[NH+](C3COC3)CC2)[n-]c1=O (3D coordinates assigned)
N#Cc1c(-c2ccc([O-])cc2)cc(C2CC[NH+](C3COC3)CC2)[n-]c1=O (nonaromatic ring conformer: 136.59756979142512 kcal/mol)

>  <smiles>  (61) 
N#Cc1c(-c2ccc(O)cc2)cc(C2CCN(C3COC3)CC2)[nH]c1=O

>  <score_type>  (61) 
oracle

>  <origin>  (61) 
adg

>  <m_score__min__energy>  (61) 
-10.300000000000001

>  <m_primary>  (61) 
energy

$$$$
61:0
     RDKit          3D

 40 43  0  0  0  0  0  0  0  0999 V2000
   64.4910   32.3190   47.5480 H   0  0  0  0  0  0  0  0  0  0  0  0
   63.5020   32.3960   47.3440 O   0  0  0  0  0  0  0  0  0  0  0  0
   62.5430   32.3540   48.3530 C   0  0  0  0  0  0  0  0  0  0  0  0
   62.2560   33.5130   49.0790 C   0  0  0  0  0  0  0  0  0  0  0  0
   62.7829   34.4500   48.8455 H   0  0  0  0  0  0  0  0  0  0  0  0
   61.3030   33.4870   50.1000 C   0  0  0  0  0  0  0  0  0  0  0  0
   61.0883   34.4018   50.6719 H   0  0  0  0  0  0  0  0  0  0  0  0
   60.6170   32.2970   50.4000 C   0  0  0  0  0  0  0  0  0  0  0  0
   60.8950   31.1290   49.6590 C   0  0  0  0  0  0  0  0  0  0  0  0
   61.8680   31.1620   48.6480 C   0  0  0  0  0  0  0  0  0  0  0  0
   62.1020   30.2470   48.0841 H   0  0  0  0  0  0  0  0  0  0  0  0
   60.2300   29.8230   50.0170 C   0  0  0  0  0  0  0  0  0  0  0  0
   60.8110   29.3330   50.8122 H   0  0  0  0  0  0  0  0  0  0  0  0
   60.1939   29.1969   49.1133 H   0  0  0  0  0  0  0  0  0  0  0  0
   58.7930   30.0360   50.5100 C   0  0  0  0  0  0  0  0  0  0  0  0
   58.3919   29.0781   50.8726 H   0  0  0  0  0  0  0  0  0  0  0  0
   58.1891   30.4159   49.6728 H   0  0  0  0  0  0  0  0  0  0  0  0
   58.7470   31.0500   51.6360 C   0  0  0  0  0  0  0  0  0  0  0  0
   57.8660   30.9770   52.6560 C   0  0  0  0  0  0  0  0  0  0  0  0
   58.2484   31.1700   53.6692 H   0  0  0  0  0  0  0  0  0  0  0  0
   56.4350   30.6600   52.5220 C   0  0  0  0  0  0  0  0  0  0  0  0
   55.8380   29.7200   53.2170 O   0  0  0  0  0  0  0  0  0  0  0  0
   54.5830   29.6370   52.8370 C   0  0  0  0  0  0  0  0  0  0  0  0
   53.7710   28.6910   53.3110 C   0  0  0  0  0  0  0  0  0  0  0  0
   52.7245   28.6455   52.9751 H   0  0  0  0  0  0  0  0  0  0  0  0
   54.1478   27.9563   54.0379 H   0  0  0  0  0  0  0  0  0  0  0  0
   54.3300   30.6000   51.8500 C   0  0  0  0  0  0  0  0  0  0  0  0
   53.1990   30.9370   51.2020 C   0  0  0  0  0  0  0  0  0  0  0  0
   53.1837   30.7991   50.1108 H   0  0  0  0  0  0  0  0  0  0  0  0
   51.9820   31.4740   51.8300 C   0  0  0  0  0  0  0  0  0  0  0  0
   51.6870   31.3760   53.1390 N   0  0  0  0  0  0  0  0  0  0  0  0
   50.5760   32.1330   53.2670 C   0  0  0  0  0  0  0  0  0  0  0  0
   49.9770   32.2790   54.3640 O   0  0  0  0  0  0  0  0  0  0  0  0
   50.1640   32.7300   52.1290 N   0  0  0  0  0  0  0  0  0  0  0  0
   51.0740   32.3140   51.2330 C   0  0  0  0  0  0  0  0  0  0  0  0
   51.0790   32.7010   49.8990 O   0  0  0  0  0  0  0  0  0  0  0  0
   55.5470   31.2170   51.6210 C   0  0  0  0  0  0  0  0  0  0  0  0
   55.7640   31.9938   50.8731 H   0  0  0  0  0  0  0  0  0  0  0  0
   59.6010   32.2570   51.4780 C   0  0  0  0  0  0  0  0  0  0  0  0
   59.4690   33.2420   52.2560 O   0  0  0  0  0  0  0  0  0  0  0  0
  1  2  1  0
  2  3  1  0
  3  4  2  0
  4  5  1  0
  4  6  1  0
  6  7  1  0
  6  8  2  0
  8  9  1  0
  9 10  2  0
 10 11  1  0
  9 12  1  0
 12 13  1  0
 12 14  1  0
 12 15  1  0
 15 16  1  0
 15 17  1  0
 15 18  1  0
 18 19  2  0
 19 20  1  0
 19 21  1  0
 21 22  1  0
 22 23  1  0
 23 24  2  0
 24 25  1  0
 24 26  1  0
 23 27  1  0
 27 28  2  0
 28 29  1  0
 28 30  1  0
 30 31  1  0
 31 32  1  0
 32 33  2  0
 32 34  1  0
 34 35  1  0
 35 36  1  0
 27 37  1  0
 37 38  1  0
 18 39  1  0
 39 40  2  0
 10  3  1  0
 37 21  2  0
 39  8  1  0
 35 30  2  0
M  CHG  3  31  -1  34  -1  36  -1
M  END
>  <UniqueID>  (62) 
57

>  <SMILES>  (62) 
C=c1oc(/C=C2\CCc3cc(O)ccc3C2=O)c/c1=C/c1[n-]c(=O)[n-]c1[O-]

>  <Energy>  (62) 
121.36250430802457

>  <Genealogy>  (62) 
C=c1oc(C=C2CCc3cc(O)ccc3C2=O)cc1=Cc1[n-]c(=O)[n-]c1[O-] (protonated)
C=c1oc(/C=C2\CCc3cc(O)ccc3C2=O)c/c1=C/c1[n-]c(=O)[n-]c1[O-] (cis-trans isomerization)
C=c1oc(/C=C2\CCc3cc(O)ccc3C2=O)c/c1=C/c1[n-]c(=O)[n-]c1[O-] (3D coordinates assigned)
C=c1oc(/C=C2\CCc3cc(O)ccc3C2=O)c/c1=C/c1[n-]c(=O)[n-]c1[O-] (nonaromatic ring conformer: 121.36250430802457 kcal/mol)

>  <smiles>  (62) 
C=c1oc(C=C2CCc3cc(O)ccc3C2=O)cc1=Cc1[nH]c(=O)[nH]c1O

>  <score_type>  (62) 
oracle

>  <origin>  (62) 
adg

>  <m_score__min__energy>  (62) 
-17.390000000000001

>  <m_primary>  (62) 
energy

$$$$
62:0
     RDKit          3D

 68 72  0  0  0  0  0  0  0  0999 V2000
   60.6759   33.8747   48.3663 H   0  0  0  0  0  0  0  0  0  0  0  0
   60.0900   33.1470   48.9470 C   0  0  0  0  0  0  0  0  0  0  0  0
   59.4450   33.5430   50.0710 N   0  0  0  0  0  0  0  0  0  0  0  0
   58.6670   32.6910   50.7890 C   0  0  0  0  0  0  0  0  0  0  0  0
   57.9800   33.1740   51.9050 C   0  0  0  0  0  0  0  0  0  0  0  0
   58.1419   34.2088   52.2411 H   0  0  0  0  0  0  0  0  0  0  0  0
   57.0910   32.3530   52.5950 C   0  0  0  0  0  0  0  0  0  0  0  0
   56.5889   32.7323   53.4972 H   0  0  0  0  0  0  0  0  0  0  0  0
   56.8280   31.0440   52.1510 C   0  0  0  0  0  0  0  0  0  0  0  0
   55.8360   30.2180   52.8190 N   0  0  0  0  0  0  0  0  0  0  0  0
   54.7210   29.6340   52.0430 C   0  0  0  0  0  0  0  0  0  0  0  0
   54.9291   29.7638   50.9707 H   0  0  0  0  0  0  0  0  0  0  0  0
   54.6446   28.5694   52.3091 H   0  0  0  0  0  0  0  0  0  0  0  0
   53.4040   30.2870   52.3640 C   0  0  0  0  0  0  0  0  0  0  0  0
   52.7980   30.0710   53.6150 C   0  0  0  0  0  0  0  0  0  0  0  0
   53.2599   29.3813   54.3368 H   0  0  0  0  0  0  0  0  0  0  0  0
   51.6100   30.7310   53.9430 C   0  0  0  0  0  0  0  0  0  0  0  0
   51.1382   30.5582   54.9215 H   0  0  0  0  0  0  0  0  0  0  0  0
   51.0200   31.6110   53.0290 C   0  0  0  0  0  0  0  0  0  0  0  0
   50.0854   32.1293   53.2897 H   0  0  0  0  0  0  0  0  0  0  0  0
   51.6180   31.8320   51.7840 C   0  0  0  0  0  0  0  0  0  0  0  0
   51.0350   32.7150   50.8810 O   0  0  0  0  0  0  0  0  0  0  0  0
   52.8050   31.1710   51.4500 C   0  0  0  0  0  0  0  0  0  0  0  0
   53.2711   31.3437   50.4687 H   0  0  0  0  0  0  0  0  0  0  0  0
   55.7420   30.2490   54.2930 C   0  0  0  0  0  0  0  0  0  0  0  0
   55.0333   31.0362   54.5896 H   0  0  0  0  0  0  0  0  0  0  0  0
   55.3981   29.2628   54.6381 H   0  0  0  0  0  0  0  0  0  0  0  0
   57.1120   30.5380   54.9400 C   0  0  0  0  0  0  0  0  0  0  0  0
   57.6592   31.2555   54.3110 H   0  0  0  0  0  0  0  0  0  0  0  0
   56.9370   30.9490   55.9452 H   0  0  0  0  0  0  0  0  0  0  0  0
   57.9220   29.3060   55.0790 N   0  0  0  0  0  0  0  0  0  0  0  0
   57.3310   28.1760   54.3120 C   0  0  0  0  0  0  0  0  0  0  0  0
   56.6181   27.6434   54.9587 H   0  0  0  0  0  0  0  0  0  0  0  0
   56.8321   28.5941   53.4253 H   0  0  0  0  0  0  0  0  0  0  0  0
   58.3980   27.1820   53.8280 C   0  0  0  0  0  0  0  0  0  0  0  0
   58.9384   26.7843   54.6996 H   0  0  0  0  0  0  0  0  0  0  0  0
   57.8941   26.3728   53.2790 H   0  0  0  0  0  0  0  0  0  0  0  0
   59.3610   27.8280   52.9210 N   0  0  0  0  0  0  0  0  0  0  0  0
   60.2580   27.2870   52.9670 H   0  0  0  0  0  0  0  0  0  0  0  0
   59.6380   29.2400   53.2540 C   0  0  0  0  0  0  0  0  0  0  0  0
   60.6992   29.4486   53.0534 H   0  0  0  0  0  0  0  0  0  0  0  0
   58.9798   29.8662   52.6338 H   0  0  0  0  0  0  0  0  0  0  0  0
   59.3410   29.5640   54.7280 C   0  0  0  0  0  0  0  0  0  0  0  0
   59.9838   28.9391   55.3655 H   0  0  0  0  0  0  0  0  0  0  0  0
   59.5415   30.6337   54.8878 H   0  0  0  0  0  0  0  0  0  0  0  0
   57.5150   30.5710   51.0140 C   0  0  0  0  0  0  0  0  0  0  0  0
   57.2655   29.5787   50.6103 H   0  0  0  0  0  0  0  0  0  0  0  0
   58.5160   31.3410   50.3810 C   0  0  0  0  0  0  0  0  0  0  0  0
   59.2990   30.8790   49.2770 C   0  0  0  0  0  0  0  0  0  0  0  0
   59.4560   29.6240   48.9390 N   0  0  0  0  0  0  0  0  0  0  0  0
   58.9690   28.9240   47.7840 C   0  0  0  0  0  0  0  0  0  0  0  0
   59.3900   27.6120   47.5080 C   0  0  0  0  0  0  0  0  0  0  0  0
   60.0744   27.0985   48.1994 H   0  0  0  0  0  0  0  0  0  0  0  0
   58.9420   26.9590   46.3590 C   0  0  0  0  0  0  0  0  0  0  0  0
   59.2651   25.9281   46.1521 H   0  0  0  0  0  0  0  0  0  0  0  0
   58.0830   27.6130   45.4700 C   0  0  0  0  0  0  0  0  0  0  0  0
   57.7237   27.0919   44.5704 H   0  0  0  0  0  0  0  0  0  0  0  0
   57.6790   28.9310   45.7230 C   0  0  0  0  0  0  0  0  0  0  0  0
   56.6160   29.7630   44.5920 S   0  0  0  0  0  0  0  0  0  0  0  0
   55.1850   29.4280   44.9030 O   0  0  0  0  0  0  0  0  0  0  0  0
   56.8000   31.2490   44.7180 O   0  0  0  0  0  0  0  0  0  0  0  0
   56.9870   29.2700   42.9770 N   0  0  0  0  0  0  0  0  0  0  0  0
   56.7510   28.2530   42.9080 H   0  0  0  0  0  0  0  0  0  0  0  0
   58.0230   29.3470   42.8640 H   0  0  0  0  0  0  0  0  0  0  0  0
   58.1430   29.5910   46.8710 C   0  0  0  0  0  0  0  0  0  0  0  0
   57.8566   30.6371   47.0546 H   0  0  0  0  0  0  0  0  0  0  0  0
   60.0140   31.8220   48.5240 C   0  0  0  0  0  0  0  0  0  0  0  0
   60.5169   31.5139   47.5955 H   0  0  0  0  0  0  0  0  0  0  0  0
  1  2  1  0
  2  3  1  0
  3  4  1  0
  4  5  2  0
  5  6  1  0
  5  7  1  0
  7  8  1  0
  7  9  2  0
  9 10  1  0
 10 11  1  0
 11 12  1  0
 11 13  1  0
 11 14  1  0
 14 15  2  0
 15 16  1  0
 15 17  1  0
 17 18  1  0
 17 19  2  0
 19 20  1  0
 19 21  1  0
 21 22  1  0
 21 23  2  0
 23 24  1  0
 10 25  1  0
 25 26  1  0
 25 27  1  0
 25 28  1  0
 28 29  1  0
 28 30  1  0
 28 31  1  0
 31 32  1  0
 32 33  1  0
 32 34  1  0
 32 35  1  0
 35 36  1  0
 35 37  1  0
 35 38  1  0
 38 39  1  0
 38 40  1  0
 40 41  1  0
 40 42  1  0
 40 43  1  0
 43 44  1  0
 43 45  1  0
  9 46  1  0
 46 47  1  0
 46 48  2  0
 48 49  1  0
 49 50  2  0
 50 51  1  0
 51 52  2  0
 52 53  1  0
 52 54  1  0
 54 55  1  0
 54 56  2  0
 56 57  1  0
 56 58  1  0
 58 59  1  0
 59 60  2  0
 59 61  2  0
 59 62  1  0
 62 63  1  0
 62 64  1  0
 58 65  2  0
 65 66  1  0
 49 67  1  0
 67 68  1  0
 67  2  2  0
 48  4  1  0
 65 51  1  0
 23 14  1  0
 43 31  1  0
M  CHG  2   3  -1  22  -1
M  END
>  <UniqueID>  (63) 
58

>  <SMILES>  (63) 
NS(=O)(=O)c1cccc(/N=c2/cc[n-]c3ccc(N(CCN4CCNCC4)Cc4cccc([O-])c4)cc23)c1

>  <Energy>  (63) 
106.27449310265605

>  <Genealogy>  (63) 
NS(=O)(=O)c1cccc(N=c2cc[n-]c3ccc(N(CCN4CCNCC4)Cc4cccc([O-])c4)cc23)c1 (protonated)
NS(=O)(=O)c1cccc(/N=c2/cc[n-]c3ccc(N(CCN4CCNCC4)Cc4cccc([O-])c4)cc23)c1 (cis-trans isomerization)
NS(=O)(=O)c1cccc(/N=c2/cc[n-]c3ccc(N(CCN4CCNCC4)Cc4cccc([O-])c4)cc23)c1 (3D coordinates assigned)
NS(=O)(=O)c1cccc(/N=c2/cc[n-]c3ccc(N(CCN4CCNCC4)Cc4cccc([O-])c4)cc23)c1 (nonaromatic ring conformer: 106.27449310265605 kcal/mol)

>  <smiles>  (63) 
NS(=O)(=O)c1cccc(N=c2cc[nH]c3ccc(N(CCN4CCNCC4)Cc4cccc(O)c4)cc23)c1

>  <score_type>  (63) 
oracle

>  <origin>  (63) 
adg

>  <m_score__min__energy>  (63) 
-16.039999999999999

>  <m_primary>  (63) 
energy

$$$$
63:0
     RDKit          3D

 50 52  0  0  0  0  0  0  0  0999 V2000
   58.4610   33.8030   44.5690 C   0  0  0  0  0  0  0  0  0  0  0  0
   58.4520   33.4900   46.0300 C   0  0  0  0  0  0  0  0  0  0  0  0
   57.4010   32.9350   46.6670 N   0  0  0  0  0  0  0  0  0  0  0  0
   57.7090   32.8760   47.9310 O   0  0  0  0  0  0  0  0  0  0  0  0
   58.9020   33.3730   48.1560 C   0  0  0  0  0  0  0  0  0  0  0  0
   59.5330   33.4630   49.5070 C   0  0  0  0  0  0  0  0  0  0  0  0
   59.4370   33.7970   46.9530 C   0  0  0  0  0  0  0  0  0  0  0  0
   60.7480   34.4980   46.7180 C   0  0  0  0  0  0  0  0  0  0  0  0
   61.9250   33.5150   46.7000 C   0  0  0  0  0  0  0  0  0  0  0  0
   62.4430   33.2770   48.0510 N   0  0  0  0  0  0  0  0  0  0  0  0
   63.0070   34.2180   48.8300 C   0  0  0  0  0  0  0  0  0  0  0  0
   63.3320   33.6460   50.0360 C   0  0  0  0  0  0  0  0  0  0  0  0
   62.9720   32.3480   50.0300 N   0  0  0  0  0  0  0  0  0  0  0  0
   62.4280   32.1490   48.8080 C   0  0  0  0  0  0  0  0  0  0  0  0
   61.8850   30.8330   48.4140 C   0  0  0  0  0  0  0  0  0  0  0  0
   61.6450   30.6120   47.1950 O   0  0  0  0  0  0  0  0  0  0  0  0
   61.6370   29.8080   49.3810 N   0  0  0  0  0  0  0  0  0  0  0  0
   60.3200   29.2440   49.6470 C   0  0  0  0  0  0  0  0  0  0  0  0
   59.2440   30.0060   48.8700 C   0  0  0  0  0  0  0  0  0  0  0  0
   59.0230   29.3790   47.5200 C   0  0  0  0  0  0  0  0  0  0  0  0
   59.8500   28.3330   47.0810 C   0  0  0  0  0  0  0  0  0  0  0  0
   59.6610   27.7700   45.8150 C   0  0  0  0  0  0  0  0  0  0  0  0
   58.6560   28.2560   44.9750 C   0  0  0  0  0  0  0  0  0  0  0  0
   57.8390   29.3150   45.3930 C   0  0  0  0  0  0  0  0  0  0  0  0
   56.5710   29.9240   44.3350 S   0  0  0  0  0  0  0  0  0  0  0  0
   55.1430   28.9730   44.5380 N   0  0  0  0  0  0  0  0  0  0  0  0
   56.2690   31.3570   44.6740 O   0  0  0  0  0  0  0  0  0  0  0  0
   57.0230   29.8540   42.9030 O   0  0  0  0  0  0  0  0  0  0  0  0
   58.0240   29.8740   46.6660 C   0  0  0  0  0  0  0  0  0  0  0  0
   58.4923   34.8935   44.4278 H   0  0  0  0  0  0  0  0  0  0  0  0
   59.3464   33.3472   44.1018 H   0  0  0  0  0  0  0  0  0  0  0  0
   57.5509   33.3988   44.1018 H   0  0  0  0  0  0  0  0  0  0  0  0
   58.7593   33.3527   50.2811 H   0  0  0  0  0  0  0  0  0  0  0  0
   60.2790   32.6622   49.6174 H   0  0  0  0  0  0  0  0  0  0  0  0
   60.0253   34.4405   49.6174 H   0  0  0  0  0  0  0  0  0  0  0  0
   60.7046   35.0190   45.7502 H   0  0  0  0  0  0  0  0  0  0  0  0
   60.9084   35.2080   47.5427 H   0  0  0  0  0  0  0  0  0  0  0  0
   61.5869   32.5594   46.2727 H   0  0  0  0  0  0  0  0  0  0  0  0
   62.7312   33.9508   46.0915 H   0  0  0  0  0  0  0  0  0  0  0  0
   63.1788   35.2675   48.5488 H   0  0  0  0  0  0  0  0  0  0  0  0
   63.8122   34.1676   50.8770 H   0  0  0  0  0  0  0  0  0  0  0  0
   60.3095   28.1880   49.3391 H   0  0  0  0  0  0  0  0  0  0  0  0
   60.1080   29.3272   50.7232 H   0  0  0  0  0  0  0  0  0  0  0  0
   58.3025   29.9824   49.4383 H   0  0  0  0  0  0  0  0  0  0  0  0
   59.5767   31.0449   48.7288 H   0  0  0  0  0  0  0  0  0  0  0  0
   60.6495   27.9549   47.7352 H   0  0  0  0  0  0  0  0  0  0  0  0
   60.3046   26.9432   45.4800 H   0  0  0  0  0  0  0  0  0  0  0  0
   58.5056   27.8060   43.9826 H   0  0  0  0  0  0  0  0  0  0  0  0
   54.6420   29.3490   45.3730 H   0  0  0  0  0  0  0  0  0  0  0  0
   57.3832   30.7045   46.9972 H   0  0  0  0  0  0  0  0  0  0  0  0
  1  2  1  0
  2  3  2  0
  3  4  1  0
  4  5  1  0
  5  6  1  0
  5  7  2  0
  7  8  1  0
  8  9  1  0
  9 10  1  0
 10 11  1  0
 11 12  2  0
 12 13  1  0
 13 14  2  0
 14 15  1  0
 15 16  2  0
 15 17  1  0
 17 18  1  0
 18 19  1  0
 19 20  1  0
 20 21  2  0
 21 22  1  0
 22 23  2  0
 23 24  1  0
 24 25  1  0
 25 26  1  0
 25 27  2  0
 25 28  2  0
 24 29  2  0
  7  2  1  0
 14 10  1  0
 29 20  1  0
  1 30  1  0
  1 31  1  0
  1 32  1  0
  6 33  1  0
  6 34  1  0
  6 35  1  0
  8 36  1  0
  8 37  1  0
  9 38  1  0
  9 39  1  0
 11 40  1  0
 12 41  1  0
 18 42  1  0
 18 43  1  0
 19 44  1  0
 19 45  1  0
 21 46  1  0
 22 47  1  0
 23 48  1  0
 26 49  1  0
 29 50  1  0
M  CHG  2  17  -1  26  -1
M  END
>  <UniqueID>  (64) 
59

>  <SMILES>  (64) 
Cc1noc(C)c1CCn1ccnc1C(=O)[N-]CCc1cccc(S([NH-])(=O)=O)c1

>  <Energy>  (64) 
100.50745027531691

>  <Genealogy>  (64) 
Cc1noc(C)c1CCn1ccnc1C(=O)[N-]CCc1cccc(S([NH-])(=O)=O)c1 (protonated)
Cc1noc(C)c1CCn1ccnc1C(=O)[N-]CCc1cccc(S([NH-])(=O)=O)c1 (3D coordinates assigned)
Cc1noc(C)c1CCn1ccnc1C(=O)[N-]CCc1cccc(S([NH-])(=O)=O)c1 (optimized conformer: 100.50745027531691 kcal/mol)

>  <smiles>  (64) 
Cc1noc(C)c1CCn1ccnc1C(=O)NCCc1cccc(S(N)(=O)=O)c1

>  <score_type>  (64) 
oracle

>  <origin>  (64) 
adg

>  <m_score__min__energy>  (64) 
-13.359999999999999

>  <m_primary>  (64) 
energy

$$$$
64:0
     RDKit          3D

 40 43  0  0  1  0  0  0  0  0999 V2000
   66.7080   33.0070   49.7500 N   0  0  0  0  0  0  0  0  0  0  0  0
   65.4750   32.7160   50.3910 C   0  0  0  0  0  0  0  0  0  0  0  0
   65.3830   32.6310   51.6320 O   0  0  0  0  0  0  0  0  0  0  0  0
   64.2250   32.4950   49.6390 C   0  0  0  0  0  0  0  0  0  0  0  0
   63.6680   31.7020   48.9350 N   0  0  0  0  0  0  0  0  0  0  0  0
   62.4910   31.8040   48.3920 C   0  0  0  0  0  0  0  0  0  0  0  0
   61.8280   30.9240   47.5880 N   0  0  0  0  0  0  0  0  0  0  0  0
   60.6220   31.1870   47.1140 C   0  0  0  0  0  0  0  0  0  0  0  0
   60.0130   30.1470   46.2530 C   0  0  0  0  0  0  0  0  0  0  0  0
   60.6630   28.9670   45.9790 C   0  0  0  0  0  0  0  0  0  0  0  0
   60.0450   28.0330   45.1680 C   0  0  0  0  0  0  0  0  0  0  0  0
   58.8020   28.2140   44.6090 C   0  0  0  0  0  0  0  0  0  0  0  0
   58.1510   29.3930   44.8810 C   0  0  0  0  0  0  0  0  0  0  0  0
   56.5710   29.7640   44.2430 S   0  0  0  0  0  0  0  0  0  0  0  0
   56.4180   29.4450   42.5720 N   0  0  0  0  0  0  0  0  0  0  0  0
   56.1810   31.1930   44.5070 O   0  0  0  0  0  0  0  0  0  0  0  0
   55.5200   28.9260   44.9530 O   0  0  0  0  0  0  0  0  0  0  0  0
   58.7690   30.3230   45.6890 C   0  0  0  0  0  0  0  0  0  0  0  0
   59.9230   32.3040   47.3530 N   0  0  0  0  0  0  0  0  0  0  0  0
   60.5340   33.2240   48.1520 C   0  0  0  0  0  0  0  0  0  0  0  0
   60.0020   34.3340   48.4720 N   0  0  0  0  0  0  0  0  0  0  0  0
   59.4870   35.1570   47.3940 C   0  0  0  0  0  0  0  0  0  0  0  0
   58.5740   34.5910   46.3780 C   0  0  0  0  0  0  0  0  0  0  0  0
   60.0330   34.7590   46.0270 C   0  0  0  0  0  0  0  0  0  0  0  0
   61.8130   32.9730   48.6680 C   0  0  0  0  0  0  0  0  0  0  0  0
   62.9030   33.8530   49.6900 S   0  0  0  0  0  0  0  0  0  0  0  0
   67.4290   33.4980   50.3210 H   0  0  0  0  0  0  0  0  0  0  0  0
   66.8470   32.7240   48.7500 H   0  0  0  0  0  0  0  0  0  0  0  0
   61.6602   28.7687   46.3988 H   0  0  0  0  0  0  0  0  0  0  0  0
   60.5772   27.0934   44.9585 H   0  0  0  0  0  0  0  0  0  0  0  0
   58.3462   27.4445   43.9686 H   0  0  0  0  0  0  0  0  0  0  0  0
   55.5090   29.6520   42.1520 H   0  0  0  0  0  0  0  0  0  0  0  0
   57.2490   29.6470   42.0030 H   0  0  0  0  0  0  0  0  0  0  0  0
   58.2362   31.2629   45.8959 H   0  0  0  0  0  0  0  0  0  0  0  0
   58.9970   32.5410   47.0090 H   0  0  0  0  0  0  0  0  0  0  0  0
   59.4158   36.0588   48.0199 H   0  0  0  0  0  0  0  0  0  0  0  0
   58.1586   33.5822   46.5184 H   0  0  0  0  0  0  0  0  0  0  0  0
   57.6294   34.9223   45.9219 H   0  0  0  0  0  0  0  0  0  0  0  0
   60.6838   33.8781   45.9248 H   0  0  0  0  0  0  0  0  0  0  0  0
   60.5981   35.2612   45.2279 H   0  0  0  0  0  0  0  0  0  0  0  0
  1  2  1  0
  2  3  2  0
  2  4  1  0
  4  5  2  0
  5  6  1  0
  6  7  1  0
  7  8  2  0
  8  9  1  0
  9 10  2  0
 10 11  1  0
 11 12  2  0
 12 13  1  0
 13 14  1  0
 14 15  1  0
 14 16  2  0
 14 17  2  0
 13 18  2  0
  8 19  1  0
 19 20  1  0
 20 21  2  0
 21 22  1  0
 22 23  1  0
 23 24  1  0
 20 25  1  0
 25 26  1  0
 26  4  1  0
 25  6  2  0
 18  9  1  0
 24 22  1  0
  1 27  1  0
  1 28  1  0
 10 29  1  0
 11 30  1  0
 12 31  1  0
 15 32  1  0
 15 33  1  0
 18 34  1  0
 19 35  1  0
 22 36  1  0
 23 37  1  0
 23 38  1  0
 24 39  1  0
 24 40  1  0
M  END
>  <smiles>  (65) 
NC(=O)c1nc2nc(-c3cccc(S(N)(=O)=O)c3)[nH]c(=NC3CC3)c2s1

>  <score_type>  (65) 
oracle

>  <origin>  (65) 
adg

>  <m_score__min__energy>  (65) 
-8.9900000000000002

>  <m_primary>  (65) 
energy

$$$$
65:0
     RDKit          3D

 55 57  0  0  0  0  0  0  0  0999 V2000
   58.2620   26.6500   41.8810 N   0  0  0  0  0  0  0  0  0  0  0  0
   58.1700   27.0780   42.9530 C   0  0  0  0  0  0  0  0  0  0  0  0
   58.0480   27.6220   44.3140 C   0  0  2  0  0  0  0  0  0  0  0  0
   57.1490   28.8780   44.3530 C   0  0  0  0  0  0  0  0  0  0  0  0
   57.9290   30.2000   44.2530 C   0  0  0  0  0  0  0  0  0  0  0  0
   57.1650   31.3540   44.8470 C   0  0  0  0  0  0  0  0  0  0  0  0
   55.9060   31.2980   44.8540 O   0  0  0  0  0  0  0  0  0  0  0  0
   57.8280   32.4970   45.4170 N   0  0  0  0  0  0  0  0  0  0  0  0
   57.1200   33.5240   46.1630 C   0  0  0  0  0  0  0  0  0  0  0  0
   58.1940   34.4440   46.7200 C   0  0  0  0  0  0  0  0  0  0  0  0
   59.4540   34.1490   45.9150 C   0  0  0  0  0  0  0  0  0  0  0  0
   59.2480   32.7720   45.2990 C   0  0  0  0  0  0  0  0  0  0  0  0
   59.4220   27.9240   44.8620 C   0  0  0  0  0  0  0  0  0  0  0  0
   60.2530   28.5230   44.1260 O   0  0  0  0  0  0  0  0  0  0  0  0
   59.8160   27.5540   46.2400 C   0  0  0  0  0  0  0  0  0  0  0  0
   60.0590   26.3480   46.5090 O   0  0  0  0  0  0  0  0  0  0  0  0
   59.9000   28.5430   47.2840 N   0  0  0  0  0  0  0  0  0  0  0  0
   60.5500   29.8370   47.0440 C   0  0  0  0  0  0  0  0  0  0  0  0
   59.7890   30.9400   47.7790 C   0  0  0  0  0  0  0  0  0  0  0  0
   59.5680   30.5890   49.1900 N   0  0  0  0  0  0  0  0  0  0  0  0
   59.2130   31.6290   50.1260 C   0  0  0  0  0  0  0  0  0  0  0  0
   59.9500   32.8250   50.1760 C   0  0  0  0  0  0  0  0  0  0  0  0
   59.6100   33.8300   51.0870 C   0  0  0  0  0  0  0  0  0  0  0  0
   58.5360   33.6500   51.9650 C   0  0  0  0  0  0  0  0  0  0  0  0
   58.2050   34.6600   52.8660 O   0  0  0  0  0  0  0  0  0  0  0  0
   57.8030   32.4570   51.9290 C   0  0  0  0  0  0  0  0  0  0  0  0
   58.1360   31.4530   51.0150 C   0  0  0  0  0  0  0  0  0  0  0  0
   59.9060   29.2430   49.6750 C   0  0  0  0  0  0  0  0  0  0  0  0
   59.5090   28.1720   48.6500 C   0  0  0  0  0  0  0  0  0  0  0  0
   57.5634   26.8641   44.9471 H   0  0  0  0  0  0  0  0  0  0  0  0
   56.4435   28.8264   43.5106 H   0  0  0  0  0  0  0  0  0  0  0  0
   56.6393   28.8784   45.3278 H   0  0  0  0  0  0  0  0  0  0  0  0
   58.8823   30.0911   44.7910 H   0  0  0  0  0  0  0  0  0  0  0  0
   58.0950   30.4160   43.1873 H   0  0  0  0  0  0  0  0  0  0  0  0
   56.4436   34.0824   45.4991 H   0  0  0  0  0  0  0  0  0  0  0  0
   56.5025   33.0905   46.9635 H   0  0  0  0  0  0  0  0  0  0  0  0
   57.8984   35.4963   46.5964 H   0  0  0  0  0  0  0  0  0  0  0  0
   58.3527   34.2755   47.7954 H   0  0  0  0  0  0  0  0  0  0  0  0
   59.5887   34.9039   45.1263 H   0  0  0  0  0  0  0  0  0  0  0  0
   60.3520   34.1753   46.5497 H   0  0  0  0  0  0  0  0  0  0  0  0
   59.5513   32.7757   44.2416 H   0  0  0  0  0  0  0  0  0  0  0  0
   59.8532   32.0060   45.8059 H   0  0  0  0  0  0  0  0  0  0  0  0
   61.5859   29.7997   47.4122 H   0  0  0  0  0  0  0  0  0  0  0  0
   60.5489   30.0506   45.9649 H   0  0  0  0  0  0  0  0  0  0  0  0
   60.3716   31.8717   47.7287 H   0  0  0  0  0  0  0  0  0  0  0  0
   58.8091   31.0666   47.2956 H   0  0  0  0  0  0  0  0  0  0  0  0
   60.8003   32.9714   49.4936 H   0  0  0  0  0  0  0  0  0  0  0  0
   60.1889   34.7650   51.1133 H   0  0  0  0  0  0  0  0  0  0  0  0
   57.9330   35.5820   52.5470 H   0  0  0  0  0  0  0  0  0  0  0  0
   56.9621   32.3095   52.6226 H   0  0  0  0  0  0  0  0  0  0  0  0
   57.5532   30.5204   50.9904 H   0  0  0  0  0  0  0  0  0  0  0  0
   60.9901   29.1865   49.8524 H   0  0  0  0  0  0  0  0  0  0  0  0
   59.3522   29.0576   50.6072 H   0  0  0  0  0  0  0  0  0  0  0  0
   60.0033   27.2260   48.9159 H   0  0  0  0  0  0  0  0  0  0  0  0
   58.4140   28.0703   48.6731 H   0  0  0  0  0  0  0  0  0  0  0  0
  1  2  3  0
  2  3  1  0
  3  4  1  0
  4  5  1  0
  5  6  1  0
  6  7  2  0
  6  8  1  0
  8  9  1  0
  9 10  1  0
 10 11  1  0
 11 12  1  0
  3 13  1  0
 13 14  2  0
 13 15  1  0
 15 16  2  0
 15 17  1  0
 17 18  1  0
 18 19  1  0
 19 20  1  0
 20 21  1  0
 21 22  2  0
 22 23  1  0
 23 24  2  0
 24 25  1  0
 24 26  1  0
 26 27  2  0
 20 28  1  0
 28 29  1  0
 12  8  1  0
 29 17  1  0
 27 21  1  0
  3 30  1  1
  4 31  1  0
  4 32  1  0
  5 33  1  0
  5 34  1  0
  9 35  1  0
  9 36  1  0
 10 37  1  0
 10 38  1  0
 11 39  1  0
 11 40  1  0
 12 41  1  0
 12 42  1  0
 18 43  1  0
 18 44  1  0
 19 45  1  0
 19 46  1  0
 22 47  1  0
 23 48  1  0
 25 49  1  0
 26 50  1  0
 27 51  1  0
 28 52  1  0
 28 53  1  0
 29 54  1  0
 29 55  1  0
M  END
>  <UniqueID>  (66) 
60

>  <SMILES>  (66) 
N#C[C@H](CCC(=O)N1CCCC1)C(=O)C(=O)N1CCN(c2ccc(O)cc2)CC1

>  <Energy>  (66) 
56.447615900222985

>  <Genealogy>  (66) 
N#C[C@H](CCC(=O)N1CCCC1)C(=O)C(=O)N1CCN(c2ccc(O)cc2)CC1 (chirality)
N#C[C@H](CCC(=O)N1CCCC1)C(=O)C(=O)N1CCN(c2ccc(O)cc2)CC1 (3D coordinates assigned)
N#C[C@H](CCC(=O)N1CCCC1)C(=O)C(=O)N1CCN(c2ccc(O)cc2)CC1 (nonaromatic ring conformer: 56.447615900222985 kcal/mol)

>  <smiles>  (66) 
N#CC(CCC(=O)N1CCCC1)C(=O)C(=O)N1CCN(c2ccc(O)cc2)CC1

>  <score_type>  (66) 
oracle

>  <origin>  (66) 
adg

>  <m_score__min__energy>  (66) 
-8.8200000000000003

>  <m_primary>  (66) 
energy

$$$$
66:0
     RDKit          3D

 46 48  0  0  0  0  0  0  0  0999 V2000
   58.8790   32.0270   45.8290 C   0  0  0  0  0  0  0  0  0  0  0  0
   57.6920   31.8040   44.8950 C   0  0  0  0  0  0  0  0  0  0  0  0
   57.2120   30.4160   44.9940 N   0  0  0  0  0  0  0  0  0  0  0  0
   55.8590   30.1810   44.8450 O   0  0  0  0  0  0  0  0  0  0  0  0
   57.9700   29.3930   45.2830 C   0  0  0  0  0  0  0  0  0  0  0  0
   57.4640   28.0660   45.6970 C   0  0  0  0  0  0  0  0  0  0  0  0
   56.2790   27.5510   45.3290 N   0  0  0  0  0  0  0  0  0  0  0  0
   56.1250   26.4590   46.1000 C   0  0  0  0  0  0  0  0  0  0  0  0
   55.1110   25.7140   46.0450 O   0  0  0  0  0  0  0  0  0  0  0  0
   57.1420   26.2480   46.9580 N   0  0  0  0  0  0  0  0  0  0  0  0
   57.9890   27.2660   46.7000 C   0  0  0  0  0  0  0  0  0  0  0  0
   59.2480   27.4700   47.4390 C   0  0  0  0  0  0  0  0  0  0  0  0
   60.2510   26.7680   47.1320 O   0  0  0  0  0  0  0  0  0  0  0  0
   59.3690   28.4790   48.4580 N   0  0  0  0  0  0  0  0  0  0  0  0
   58.7530   29.8030   48.2510 C   0  0  0  0  0  0  0  0  0  0  0  0
   59.3730   30.8580   49.1740 C   0  0  0  0  0  0  0  0  0  0  0  0
   60.8360   30.6960   49.1900 N   0  0  0  0  0  0  0  0  0  0  0  0
   61.7040   31.7670   48.7710 C   0  0  0  0  0  0  0  0  0  0  0  0
   61.6320   33.0290   49.3910 C   0  0  0  0  0  0  0  0  0  0  0  0
   62.4520   34.0750   48.9570 C   0  0  0  0  0  0  0  0  0  0  0  0
   63.3430   33.8770   47.8970 C   0  0  0  0  0  0  0  0  0  0  0  0
   64.1330   34.8970   47.4720 F   0  0  0  0  0  0  0  0  0  0  0  0
   63.4210   32.6280   47.2760 C   0  0  0  0  0  0  0  0  0  0  0  0
   62.6010   31.5790   47.7050 C   0  0  0  0  0  0  0  0  0  0  0  0
   61.4110   29.3750   49.4960 C   0  0  0  0  0  0  0  0  0  0  0  0
   60.3220   28.2950   49.5660 C   0  0  0  0  0  0  0  0  0  0  0  0
   58.5405   31.9634   46.8737 H   0  0  0  0  0  0  0  0  0  0  0  0
   59.6417   31.2564   45.6431 H   0  0  0  0  0  0  0  0  0  0  0  0
   59.3100   33.0218   45.6431 H   0  0  0  0  0  0  0  0  0  0  0  0
   56.8781   32.4893   45.1740 H   0  0  0  0  0  0  0  0  0  0  0  0
   58.0121   31.9969   43.8604 H   0  0  0  0  0  0  0  0  0  0  0  0
   55.2500   30.0950   45.6520 H   0  0  0  0  0  0  0  0  0  0  0  0
   59.0596   29.5270   45.2139 H   0  0  0  0  0  0  0  0  0  0  0  0
   55.5880   27.9420   44.6520 H   0  0  0  0  0  0  0  0  0  0  0  0
   58.9044   30.1088   47.2053 H   0  0  0  0  0  0  0  0  0  0  0  0
   57.6806   29.7264   48.4836 H   0  0  0  0  0  0  0  0  0  0  0  0
   59.1192   31.8628   48.8052 H   0  0  0  0  0  0  0  0  0  0  0  0
   58.9786   30.7315   50.1930 H   0  0  0  0  0  0  0  0  0  0  0  0
   60.9279   33.1927   50.2201 H   0  0  0  0  0  0  0  0  0  0  0  0
   62.3963   35.0565   49.4505 H   0  0  0  0  0  0  0  0  0  0  0  0
   64.1282   32.4692   46.4486 H   0  0  0  0  0  0  0  0  0  0  0  0
   62.6584   30.6008   47.2051 H   0  0  0  0  0  0  0  0  0  0  0  0
   62.1315   29.1069   48.7092 H   0  0  0  0  0  0  0  0  0  0  0  0
   61.9077   29.4312   50.4759 H   0  0  0  0  0  0  0  0  0  0  0  0
   60.7869   27.3012   49.4873 H   0  0  0  0  0  0  0  0  0  0  0  0
   59.7876   28.3778   50.5239 H   0  0  0  0  0  0  0  0  0  0  0  0
  1  2  1  0
  2  3  1  0
  3  4  1  0
  3  5  2  3
  5  6  1  0
  6  7  1  0
  7  8  1  0
  8  9  2  0
  8 10  1  0
 10 11  1  0
 11 12  1  0
 12 13  2  0
 12 14  1  0
 14 15  1  0
 15 16  1  0
 16 17  1  0
 17 18  1  0
 18 19  2  0
 19 20  1  0
 20 21  2  0
 21 22  1  0
 21 23  1  0
 23 24  2  0
 17 25  1  0
 25 26  1  0
 11  6  2  0
 26 14  1  0
 24 18  1  0
  1 27  1  0
  1 28  1  0
  1 29  1  0
  2 30  1  0
  2 31  1  0
  4 32  1  0
  5 33  1  0
  7 34  1  0
 15 35  1  0
 15 36  1  0
 16 37  1  0
 16 38  1  0
 19 39  1  0
 20 40  1  0
 23 41  1  0
 24 42  1  0
 25 43  1  0
 25 44  1  0
 26 45  1  0
 26 46  1  0
M  CHG  2   3   1  10  -1
M  END
>  <UniqueID>  (67) 
61

>  <SMILES>  (67) 
CC[N+](O)=Cc1[nH]c(=O)[n-]c1C(=O)N1CCN(c2ccc(F)cc2)CC1

>  <Energy>  (67) 
89.69923686892363

>  <Genealogy>  (67) 
CC[N+](O)=Cc1[nH]c(=O)[n-]c1C(=O)N1CCN(c2ccc(F)cc2)CC1 (protonated)
CC[N+](O)=Cc1[nH]c(=O)[n-]c1C(=O)N1CCN(c2ccc(F)cc2)CC1 (3D coordinates assigned)
CC[N+](O)=Cc1[nH]c(=O)[n-]c1C(=O)N1CCN(c2ccc(F)cc2)CC1 (nonaromatic ring conformer: 89.69923686892363 kcal/mol)

>  <smiles>  (67) 
CC[N+]([O-])=Cc1[nH]c(=O)[nH]c1C(=O)N1CCN(c2ccc(F)cc2)CC1

>  <score_type>  (67) 
oracle

>  <origin>  (67) 
adg

>  <m_score__min__energy>  (67) 
-8.6500000000000004

>  <m_primary>  (67) 
energy

$$$$
67:0
     RDKit          3D

 27 29  0  0  0  0  0  0  0  0999 V2000
   55.6600   28.9250   44.8660 N   0  0  0  0  0  0  0  0  0  0  0  0
   56.9160   28.7730   45.5430 C   0  0  0  0  0  0  0  0  0  0  0  0
   57.2810   27.4980   45.9980 C   0  0  0  0  0  0  0  0  0  0  0  0
   58.4890   27.3000   46.6600 C   0  0  0  0  0  0  0  0  0  0  0  0
   59.3510   28.3720   46.8770 C   0  0  0  0  0  0  0  0  0  0  0  0
   59.0140   29.6630   46.4320 C   0  0  0  0  0  0  0  0  0  0  0  0
   57.7870   29.8750   45.7580 C   0  0  0  0  0  0  0  0  0  0  0  0
   57.3920   31.2540   45.2640 C   0  0  0  0  0  0  0  0  0  0  0  0
   58.3770   32.3650   45.5370 C   0  0  0  0  0  0  0  0  0  0  0  0
   58.0570   33.6620   45.1000 C   0  0  0  0  0  0  0  0  0  0  0  0
   58.9350   34.7240   45.3260 C   0  0  0  0  0  0  0  0  0  0  0  0
   60.1400   34.5040   45.9900 C   0  0  0  0  0  0  0  0  0  0  0  0
   60.4710   33.2210   46.4310 C   0  0  0  0  0  0  0  0  0  0  0  0
   59.5950   32.1430   46.2080 C   0  0  0  0  0  0  0  0  0  0  0  0
   59.9420   30.7860   46.6710 C   0  0  0  0  0  0  0  0  0  0  0  0
   61.0340   30.5880   47.2730 O   0  0  0  0  0  0  0  0  0  0  0  0
   54.7690   28.9710   45.4100 H   0  0  0  0  0  0  0  0  0  0  0  0
   55.5830   28.9930   43.8280 H   0  0  0  0  0  0  0  0  0  0  0  0
   56.6059   26.6459   45.8301 H   0  0  0  0  0  0  0  0  0  0  0  0
   58.7635   26.2948   47.0125 H   0  0  0  0  0  0  0  0  0  0  0  0
   60.3040   28.2076   47.4011 H   0  0  0  0  0  0  0  0  0  0  0  0
   57.2482   31.1924   44.1752 H   0  0  0  0  0  0  0  0  0  0  0  0
   56.4840   31.5198   45.8252 H   0  0  0  0  0  0  0  0  0  0  0  0
   57.1069   33.8419   44.5756 H   0  0  0  0  0  0  0  0  0  0  0  0
   58.6751   35.7351   44.9795 H   0  0  0  0  0  0  0  0  0  0  0  0
   60.8310   35.3414   46.1669 H   0  0  0  0  0  0  0  0  0  0  0  0
   61.4227   33.0522   46.9561 H   0  0  0  0  0  0  0  0  0  0  0  0
  1  2  1  0
  2  3  2  0
  3  4  1  0
  4  5  2  0
  5  6  1  0
  6  7  2  0
  7  8  1  0
  8  9  1  0
  9 10  2  0
 10 11  1  0
 11 12  2  0
 12 13  1  0
 13 14  2  0
 14 15  1  0
 15 16  2  0
  7  2  1  0
 14  9  1  0
 15  6  1  0
  1 17  1  0
  1 18  1  0
  3 19  1  0
  4 20  1  0
  5 21  1  0
  8 22  1  0
  8 23  1  0
 10 24  1  0
 11 25  1  0
 12 26  1  0
 13 27  1  0
M  END
>  <UniqueID>  (68) 
62

>  <SMILES>  (68) 
Nc1cccc2c1Cc1ccccc1C2=O

>  <Energy>  (68) 
36.06086889158148

>  <Genealogy>  (68) 
Nc1cccc2c1Cc1ccccc1C2=O (3D coordinates assigned)
Nc1cccc2c1Cc1ccccc1C2=O (nonaromatic ring conformer: 36.06086889158148 kcal/mol)

>  <smiles>  (68) 
Nc1cccc2c1Cc1ccccc1C2=O

>  <score_type>  (68) 
oracle

>  <origin>  (68) 
adg

>  <m_score__min__energy>  (68) 
-6.96

>  <m_primary>  (68) 
energy

$$$$
68:0
     RDKit          3D

 34 36  0  0  0  0  0  0  0  0999 V2000
   56.0880   29.8120   43.1280 C   0  0  0  0  0  0  0  0  0  0  0  0
   56.7970   29.5510   44.2280 C   0  0  0  0  0  0  0  0  0  0  0  0
   56.6730   28.4110   44.9370 N   0  0  0  0  0  0  0  0  0  0  0  0
   57.5980   28.4550   45.9180 C   0  0  0  0  0  0  0  0  0  0  0  0
   57.7390   27.4810   46.8300 C   0  0  0  0  0  0  0  0  0  0  0  0
   57.1490   26.1360   46.7080 C   0  0  0  0  0  0  0  0  0  0  0  0
   57.7960   25.0130   47.0640 N   0  0  0  0  0  0  0  0  0  0  0  0
   56.8750   24.0440   46.8690 C   0  0  0  0  0  0  0  0  0  0  0  0
   57.1140   22.8280   47.0840 O   0  0  0  0  0  0  0  0  0  0  0  0
   55.6730   24.4830   46.4350 N   0  0  0  0  0  0  0  0  0  0  0  0
   55.8590   25.8100   46.3490 C   0  0  0  0  0  0  0  0  0  0  0  0
   54.8530   26.7040   46.0000 O   0  0  0  0  0  0  0  0  0  0  0  0
   58.3140   29.6440   45.8490 C   0  0  0  0  0  0  0  0  0  0  0  0
   57.7920   30.3470   44.7790 C   0  0  0  0  0  0  0  0  0  0  0  0
   58.2500   31.6720   44.3300 C   0  0  0  0  0  0  0  0  0  0  0  0
   58.1600   31.9660   43.1080 O   0  0  0  0  0  0  0  0  0  0  0  0
   58.8190   32.6140   45.2520 N   0  0  0  0  0  0  0  0  0  0  0  0
   59.6600   32.2050   46.3720 C   0  0  0  0  0  0  0  0  0  0  0  0
   59.9820   33.4510   47.2250 C   0  0  0  0  0  0  0  0  0  0  0  0
   58.8430   34.4710   47.1030 C   0  0  0  0  0  0  0  0  0  0  0  0
   58.1550   34.1760   45.5090 S   0  0  0  0  0  0  0  0  0  0  0  0
   58.6550   35.1710   44.5020 O   0  0  0  0  0  0  0  0  0  0  0  0
   56.6530   34.1380   45.5510 O   0  0  0  0  0  0  0  0  0  0  0  0
   56.2340   30.7614   42.5919 H   0  0  0  0  0  0  0  0  0  0  0  0
   55.3576   29.0778   42.7574 H   0  0  0  0  0  0  0  0  0  0  0  0
   56.0030   27.6300   44.7470 H   0  0  0  0  0  0  0  0  0  0  0  0
   58.3345   27.7010   47.7283 H   0  0  0  0  0  0  0  0  0  0  0  0
   59.1318   29.9620   46.5124 H   0  0  0  0  0  0  0  0  0  0  0  0
   59.1265   31.4637   46.9850 H   0  0  0  0  0  0  0  0  0  0  0  0
   60.5910   31.7537   45.9985 H   0  0  0  0  0  0  0  0  0  0  0  0
   60.0951   33.1537   48.2780 H   0  0  0  0  0  0  0  0  0  0  0  0
   60.9173   33.9055   46.8664 H   0  0  0  0  0  0  0  0  0  0  0  0
   58.0896   34.3081   47.8878 H   0  0  0  0  0  0  0  0  0  0  0  0
   59.1946   35.5065   47.2215 H   0  0  0  0  0  0  0  0  0  0  0  0
  1  2  2  0
  2  3  1  0
  3  4  1  0
  4  5  2  3
  5  6  1  0
  6  7  1  0
  7  8  1  0
  8  9  2  0
  8 10  1  0
 10 11  1  0
 11 12  1  0
  4 13  1  0
 13 14  2  0
 14 15  1  0
 15 16  2  0
 15 17  1  0
 17 18  1  0
 18 19  1  0
 19 20  1  0
 20 21  1  0
 21 22  2  0
 21 23  2  0
 14  2  1  0
 21 17  1  0
 11  6  2  0
  1 24  1  0
  1 25  1  0
  3 26  1  0
  5 27  1  0
 13 28  1  0
 18 29  1  0
 18 30  1  0
 19 31  1  0
 19 32  1  0
 20 33  1  0
 20 34  1  0
M  CHG  3   7  -1  10  -1  12  -1
M  END
>  <UniqueID>  (69) 
63

>  <SMILES>  (69) 
C=c1[nH]c(=Cc2[n-]c(=O)[n-]c2[O-])cc1C(=O)N1CCCS1(=O)=O

>  <Energy>  (69) 
106.47232585360622

>  <Genealogy>  (69) 
C=c1[nH]c(=Cc2[n-]c(=O)[n-]c2[O-])cc1C(=O)N1CCCS1(=O)=O (protonated)
C=c1[nH]c(=Cc2[n-]c(=O)[n-]c2[O-])cc1C(=O)N1CCCS1(=O)=O (3D coordinates assigned)
C=c1[nH]c(=Cc2[n-]c(=O)[n-]c2[O-])cc1C(=O)N1CCCS1(=O)=O (nonaromatic ring conformer: 106.47232585360622 kcal/mol)

>  <smiles>  (69) 
C=c1[nH]c(=Cc2[nH]c(=O)[nH]c2O)cc1C(=O)N1CCCS1(=O)=O

>  <score_type>  (69) 
oracle

>  <origin>  (69) 
adg

>  <m_score__min__energy>  (69) 
-16.359999999999999

>  <m_primary>  (69) 
energy

$$$$
69:0
     RDKit          3D

 57 60  0  0  0  0  0  0  0  0999 V2000
   58.1040   32.6230   42.7710 N   0  0  0  0  0  0  0  0  0  0  0  0
   58.1770   33.0550   44.1350 C   0  0  0  0  0  0  0  0  0  0  0  0
   59.0940   34.0600   44.4830 C   0  0  0  0  0  0  0  0  0  0  0  0
   59.1200   34.5790   45.7790 C   0  0  0  0  0  0  0  0  0  0  0  0
   58.2260   34.1040   46.7400 C   0  0  0  0  0  0  0  0  0  0  0  0
   57.3200   33.0930   46.4140 C   0  0  0  0  0  0  0  0  0  0  0  0
   57.3050   32.5390   45.1260 C   0  0  0  0  0  0  0  0  0  0  0  0
   56.3980   31.4570   44.8660 N   0  0  0  0  0  0  0  0  0  0  0  0
   56.7080   30.2580   44.1420 C   0  0  0  0  0  0  0  0  0  0  0  0
   56.2350   30.1130   42.9830 O   0  0  0  0  0  0  0  0  0  0  0  0
   57.5540   29.1860   44.7170 C   0  0  0  0  0  0  0  0  0  0  0  0
   57.0120   28.2290   45.5900 C   0  0  0  0  0  0  0  0  0  0  0  0
   57.8230   27.2300   46.1370 C   0  0  0  0  0  0  0  0  0  0  0  0
   59.1840   27.1620   45.8050 C   0  0  0  0  0  0  0  0  0  0  0  0
   60.0620   26.1170   46.4280 C   0  0  0  0  0  0  0  0  0  0  0  0
   60.8730   26.7310   47.4690 N   0  0  0  0  0  0  0  0  0  0  0  0
   60.4080   27.6600   48.4570 C   0  0  0  0  0  0  0  0  0  0  0  0
   60.4130   27.3000   49.6650 O   0  0  0  0  0  0  0  0  0  0  0  0
   59.9160   28.9710   48.1110 N   0  0  0  0  0  0  0  0  0  0  0  0
   60.7240   29.8610   47.2610 C   0  0  0  0  0  0  0  0  0  0  0  0
   60.3830   31.3450   47.4820 C   0  0  0  0  0  0  0  0  0  0  0  0
   60.1650   31.6300   48.9110 N   0  0  0  0  0  0  0  0  0  0  0  0
   60.5950   32.8740   49.5090 C   0  0  0  0  0  0  0  0  0  0  0  0
   60.6580   32.9700   50.7660 O   0  0  0  0  0  0  0  0  0  0  0  0
   60.9450   34.0840   48.6820 C   0  0  0  0  0  0  0  0  0  0  0  0
   62.1080   33.8140   47.8420 N   0  0  0  0  0  0  0  0  0  0  0  0
   63.2240   33.1430   48.1690 C   0  0  0  0  0  0  0  0  0  0  0  0
   64.0460   33.0930   47.1040 N   0  0  0  0  0  0  0  0  0  0  0  0
   63.4060   33.7380   46.1370 N   0  0  0  0  0  0  0  0  0  0  0  0
   62.2350   34.1700   46.5780 N   0  0  0  0  0  0  0  0  0  0  0  0
   59.3510   30.7130   49.7260 C   0  0  0  0  0  0  0  0  0  0  0  0
   58.8170   29.5500   48.8900 C   0  0  0  0  0  0  0  0  0  0  0  0
   59.7270   28.1150   44.9300 C   0  0  0  0  0  0  0  0  0  0  0  0
   58.9150   29.1120   44.3800 C   0  0  0  0  0  0  0  0  0  0  0  0
   58.7480   32.9960   42.0410 H   0  0  0  0  0  0  0  0  0  0  0  0
   57.4680   31.8400   42.4960 H   0  0  0  0  0  0  0  0  0  0  0  0
   59.7976   34.4415   43.7284 H   0  0  0  0  0  0  0  0  0  0  0  0
   59.8454   35.3627   46.0428 H   0  0  0  0  0  0  0  0  0  0  0  0
   58.2353   34.5268   47.7555 H   0  0  0  0  0  0  0  0  0  0  0  0
   56.6126   32.7283   47.1733 H   0  0  0  0  0  0  0  0  0  0  0  0
   55.9426   28.2655   45.8452 H   0  0  0  0  0  0  0  0  0  0  0  0
   57.3915   26.4938   46.8311 H   0  0  0  0  0  0  0  0  0  0  0  0
   59.4369   25.3257   46.8675 H   0  0  0  0  0  0  0  0  0  0  0  0
   60.7166   25.6790   45.6601 H   0  0  0  0  0  0  0  0  0  0  0  0
   61.7875   29.7036   47.4939 H   0  0  0  0  0  0  0  0  0  0  0  0
   60.5031   29.6169   46.2114 H   0  0  0  0  0  0  0  0  0  0  0  0
   61.2150   31.9638   47.1147 H   0  0  0  0  0  0  0  0  0  0  0  0
   59.4583   31.5773   46.9335 H   0  0  0  0  0  0  0  0  0  0  0  0
   60.0892   34.3439   48.0417 H   0  0  0  0  0  0  0  0  0  0  0  0
   61.1822   34.9187   49.3580 H   0  0  0  0  0  0  0  0  0  0  0  0
   63.4342   32.7023   49.1547 H   0  0  0  0  0  0  0  0  0  0  0  0
   59.9710   30.3126   50.5416 H   0  0  0  0  0  0  0  0  0  0  0  0
   58.4939   31.2738   50.1270 H   0  0  0  0  0  0  0  0  0  0  0  0
   58.3936   28.7829   49.5551 H   0  0  0  0  0  0  0  0  0  0  0  0
   58.0333   29.9138   48.2092 H   0  0  0  0  0  0  0  0  0  0  0  0
   60.7965   28.0778   44.6754 H   0  0  0  0  0  0  0  0  0  0  0  0
   59.3452   29.8426   43.6792 H   0  0  0  0  0  0  0  0  0  0  0  0
  1  2  1  0
  2  3  2  0
  3  4  1  0
  4  5  2  0
  5  6  1  0
  6  7  2  0
  7  8  1  0
  8  9  1  0
  9 10  2  0
  9 11  1  0
 11 12  2  0
 12 13  1  0
 13 14  2  0
 14 15  1  0
 15 16  1  0
 16 17  1  0
 17 18  2  0
 17 19  1  0
 19 20  1  0
 20 21  1  0
 21 22  1  0
 22 23  1  0
 23 24  2  0
 23 25  1  0
 25 26  1  0
 26 27  1  0
 27 28  2  0
 28 29  1  0
 29 30  2  0
 22 31  1  0
 31 32  1  0
 14 33  1  0
 33 34  2  0
  7  2  1  0
 34 11  1  0
 32 19  1  0
 30 26  1  0
  1 35  1  0
  1 36  1  0
  3 37  1  0
  4 38  1  0
  5 39  1  0
  6 40  1  0
 12 41  1  0
 13 42  1  0
 15 43  1  0
 15 44  1  0
 20 45  1  0
 20 46  1  0
 21 47  1  0
 21 48  1  0
 25 49  1  0
 25 50  1  0
 27 51  1  0
 31 52  1  0
 31 53  1  0
 32 54  1  0
 32 55  1  0
 33 56  1  0
 34 57  1  0
M  CHG  2   8  -1  16  -1
M  END
>  <UniqueID>  (70) 
64

>  <SMILES>  (70) 
Nc1ccccc1[N-]C(=O)c1ccc(C[N-]C(=O)N2CCN(C(=O)Cn3cnnn3)CC2)cc1

>  <Energy>  (70) 
111.82759853926261

>  <Genealogy>  (70) 
Nc1ccccc1[N-]C(=O)c1ccc(C[N-]C(=O)N2CCN(C(=O)Cn3cnnn3)CC2)cc1 (protonated)
Nc1ccccc1[N-]C(=O)c1ccc(C[N-]C(=O)N2CCN(C(=O)Cn3cnnn3)CC2)cc1 (3D coordinates assigned)
Nc1ccccc1[N-]C(=O)c1ccc(C[N-]C(=O)N2CCN(C(=O)Cn3cnnn3)CC2)cc1 (nonaromatic ring conformer: 111.82759853926261 kcal/mol)

>  <smiles>  (70) 
Nc1ccccc1NC(=O)c1ccc(CNC(=O)N2CCN(C(=O)Cn3cnnn3)CC2)cc1

>  <score_type>  (70) 
oracle

>  <origin>  (70) 
adg

>  <m_score__min__energy>  (70) 
-11.960000000000001

>  <m_primary>  (70) 
energy

$$$$
70:0
     RDKit          3D

 60 63  0  0  0  0  0  0  0  0999 V2000
   55.1460   27.4890   45.3120 H   0  0  0  0  0  0  0  0  0  0  0  0
   55.1800   26.7400   45.9930 O   0  0  0  0  0  0  0  0  0  0  0  0
   54.8880   25.4320   45.6230 C   0  0  0  0  0  0  0  0  0  0  0  0
   53.7820   24.7730   46.0050 N   0  0  0  0  0  0  0  0  0  0  0  0
   53.9500   23.5590   45.4370 C   0  0  0  0  0  0  0  0  0  0  0  0
   53.1140   22.6280   45.5660 O   0  0  0  0  0  0  0  0  0  0  0  0
   55.0920   23.4180   44.7290 N   0  0  0  0  0  0  0  0  0  0  0  0
   55.6710   24.6290   44.8300 C   0  0  0  0  0  0  0  0  0  0  0  0
   57.0170   24.9590   44.3340 C   0  0  0  0  0  0  0  0  0  0  0  0
   57.3904   24.3849   43.4732 H   0  0  0  0  0  0  0  0  0  0  0  0
   57.8310   25.9040   44.8440 C   0  0  0  0  0  0  0  0  0  0  0  0
   58.3640   25.8200   46.1170 C   0  0  0  0  0  0  0  0  0  0  0  0
   58.1495   25.0440   46.8666 H   0  0  0  0  0  0  0  0  0  0  0  0
   59.2140   26.8920   46.2680 C   0  0  0  0  0  0  0  0  0  0  0  0
   60.0300   27.1240   47.4750 C   0  0  0  0  0  0  0  0  0  0  0  0
   60.9250   26.2830   47.7600 O   0  0  0  0  0  0  0  0  0  0  0  0
   59.8080   28.2550   48.3460 N   0  0  0  0  0  0  0  0  0  0  0  0
   58.5010   28.9220   48.4200 C   0  0  0  0  0  0  0  0  0  0  0  0
   57.9272   28.6910   47.5104 H   0  0  0  0  0  0  0  0  0  0  0  0
   57.9713   28.5575   49.3125 H   0  0  0  0  0  0  0  0  0  0  0  0
   58.6670   30.4500   48.5370 C   0  0  0  0  0  0  0  0  0  0  0  0
   58.7375   30.8665   47.5213 H   0  0  0  0  0  0  0  0  0  0  0  0
   57.7922   30.8175   49.0936 H   0  0  0  0  0  0  0  0  0  0  0  0
   59.8680   30.8850   49.3020 N   0  0  0  0  0  0  0  0  0  0  0  0
   60.9130   31.4830   48.4420 C   0  0  0  0  0  0  0  0  0  0  0  0
   61.7892   31.7317   49.0588 H   0  0  0  0  0  0  0  0  0  0  0  0
   61.1875   30.7564   47.6631 H   0  0  0  0  0  0  0  0  0  0  0  0
   60.4050   32.7360   47.7770 C   0  0  0  0  0  0  0  0  0  0  0  0
   60.5750   32.9340   46.3960 C   0  0  0  0  0  0  0  0  0  0  0  0
   61.0903   32.1721   45.7928 H   0  0  0  0  0  0  0  0  0  0  0  0
   60.0920   34.0950   45.7860 C   0  0  0  0  0  0  0  0  0  0  0  0
   60.2272   34.2444   44.7046 H   0  0  0  0  0  0  0  0  0  0  0  0
   59.4370   35.0670   46.5490 C   0  0  0  0  0  0  0  0  0  0  0  0
   59.0571   35.9802   46.0676 H   0  0  0  0  0  0  0  0  0  0  0  0
   59.2650   34.8780   47.9240 C   0  0  0  0  0  0  0  0  0  0  0  0
   58.7508   35.6434   48.5238 H   0  0  0  0  0  0  0  0  0  0  0  0
   59.7460   33.7170   48.5370 C   0  0  0  0  0  0  0  0  0  0  0  0
   59.6079   33.5711   49.6185 H   0  0  0  0  0  0  0  0  0  0  0  0
   60.4160   29.8230   50.1690 C   0  0  0  0  0  0  0  0  0  0  0  0
   61.3012   30.2115   50.6939 H   0  0  0  0  0  0  0  0  0  0  0  0
   59.6355   29.5250   50.8846 H   0  0  0  0  0  0  0  0  0  0  0  0
   60.8220   28.5840   49.3550 C   0  0  0  0  0  0  0  0  0  0  0  0
   61.7786   28.7842   48.8501 H   0  0  0  0  0  0  0  0  0  0  0  0
   60.9173   27.7313   50.0434 H   0  0  0  0  0  0  0  0  0  0  0  0
   59.2180   27.6610   45.1510 N   0  0  0  0  0  0  0  0  0  0  0  0
   60.1110   28.8040   44.8990 C   0  0  0  0  0  0  0  0  0  0  0  0
   61.0643   28.6389   45.4225 H   0  0  0  0  0  0  0  0  0  0  0  0
   60.2784   28.8879   43.8150 H   0  0  0  0  0  0  0  0  0  0  0  0
   59.4840   30.1040   45.3990 C   0  0  0  0  0  0  0  0  0  0  0  0
   58.9065   29.9030   46.3134 H   0  0  0  0  0  0  0  0  0  0  0  0
   60.2800   30.8314   45.6162 H   0  0  0  0  0  0  0  0  0  0  0  0
   58.6270   30.6320   44.4100 O   0  0  0  0  0  0  0  0  0  0  0  0
   57.2890   30.5100   44.8360 C   0  0  0  0  0  0  0  0  0  0  0  0
   57.2531   30.5067   45.9354 H   0  0  0  0  0  0  0  0  0  0  0  0
   56.7033   31.3585   44.4525 H   0  0  0  0  0  0  0  0  0  0  0  0
   56.8664   29.5696   44.4525 H   0  0  0  0  0  0  0  0  0  0  0  0
   58.3470   27.0830   44.2780 C   0  0  0  0  0  0  0  0  0  0  0  0
   57.9660   27.6510   43.1240 C   0  0  0  0  0  0  0  0  0  0  0  0
   58.4471   28.5795   42.7828 H   0  0  0  0  0  0  0  0  0  0  0  0
   57.1725   27.1882   42.5189 H   0  0  0  0  0  0  0  0  0  0  0  0
  1  2  1  0
  2  3  1  0
  3  4  1  0
  4  5  1  0
  5  6  2  0
  5  7  1  0
  7  8  1  0
  8  9  1  0
  9 10  1  0
  9 11  2  0
 11 12  1  0
 12 13  1  0
 12 14  2  0
 14 15  1  0
 15 16  2  0
 15 17  1  0
 17 18  1  0
 18 19  1  0
 18 20  1  0
 18 21  1  0
 21 22  1  0
 21 23  1  0
 21 24  1  0
 24 25  1  0
 25 26  1  0
 25 27  1  0
 25 28  1  0
 28 29  2  0
 29 30  1  0
 29 31  1  0
 31 32  1  0
 31 33  2  0
 33 34  1  0
 33 35  1  0
 35 36  1  0
 35 37  2  0
 37 38  1  0
 24 39  1  0
 39 40  1  0
 39 41  1  0
 39 42  1  0
 42 43  1  0
 42 44  1  0
 14 45  1  0
 45 46  1  0
 46 47  1  0
 46 48  1  0
 46 49  1  0
 49 50  1  0
 49 51  1  0
 49 52  1  0
 52 53  1  0
 53 54  1  0
 53 55  1  0
 53 56  1  0
 45 57  1  0
 57 58  2  0
 58 59  1  0
 58 60  1  0
  8  3  2  0
 57 11  1  0
 42 17  1  0
 37 28  1  0
M  CHG  2   4  -1   7  -1
M  END
>  <UniqueID>  (71) 
65

>  <SMILES>  (71) 
C=c1/c(=C\c2[n-]c(=O)[n-]c2O)cc(C(=O)N2CCN(Cc3ccccc3)CC2)n1CCOC

>  <Energy>  (71) 
142.42165706041158

>  <Genealogy>  (71) 
C=c1c(=Cc2[n-]c(=O)[n-]c2O)cc(C(=O)N2CCN(Cc3ccccc3)CC2)n1CCOC (protonated)
C=c1/c(=C\c2[n-]c(=O)[n-]c2O)cc(C(=O)N2CCN(Cc3ccccc3)CC2)n1CCOC (cis-trans isomerization)
C=c1/c(=C\c2[n-]c(=O)[n-]c2O)cc(C(=O)N2CCN(Cc3ccccc3)CC2)n1CCOC (3D coordinates assigned)
C=c1/c(=C\c2[n-]c(=O)[n-]c2O)cc(C(=O)N2CCN(Cc3ccccc3)CC2)n1CCOC (nonaromatic ring conformer: 142.42165706041158 kcal/mol)

>  <smiles>  (71) 
C=c1c(=Cc2[nH]c(=O)[nH]c2O)cc(C(=O)N2CCN(Cc3ccccc3)CC2)n1CCOC

>  <score_type>  (71) 
oracle

>  <origin>  (71) 
adg

>  <m_score__min__energy>  (71) 
-13.359999999999999

>  <m_primary>  (71) 
energy

$$$$
71:0
     RDKit          3D

 56 59  0  0  1  0  0  0  0  0999 V2000
   55.1700   29.1630   44.8640 O   0  0  0  0  0  0  0  0  0  0  0  0
   55.8130   29.6560   43.7540 C   0  0  0  0  0  0  0  0  0  0  0  0
   57.0440   28.9260   43.3280 C   0  0  0  0  0  0  0  0  0  0  0  0
   58.0400   28.5960   44.3670 C   0  0  1  0  0  0  0  0  0  0  0  0
   58.8130   27.3250   44.1470 C   0  0  0  0  0  0  0  0  0  0  0  0
   59.4250   26.8850   45.3790 N   0  0  0  0  0  0  0  0  0  0  0  0
   58.7420   25.7440   45.9540 C   0  0  0  0  0  0  0  0  0  0  0  0
   57.2930   25.7080   45.8030 C   0  0  0  0  0  0  0  0  0  0  0  0
   56.4440   26.6870   46.3270 C   0  0  0  0  0  0  0  0  0  0  0  0
   55.1950   26.3420   46.0240 N   0  0  0  0  0  0  0  0  0  0  0  0
   55.2370   25.2220   45.3520 N   0  0  0  0  0  0  0  0  0  0  0  0
   56.5170   24.7940   45.1930 C   0  0  0  0  0  0  0  0  0  0  0  0
   56.8570   23.5810   44.4800 C   0  0  0  0  0  0  0  0  0  0  0  0
   57.8510   22.6370   44.6200 C   0  0  0  0  0  0  0  0  0  0  0  0
   57.9050   21.6090   43.7780 C   0  0  0  0  0  0  0  0  0  0  0  0
   56.9720   21.4900   42.7740 C   0  0  0  0  0  0  0  0  0  0  0  0
   55.9170   22.9720   43.0430 S   0  0  0  0  0  0  0  0  0  0  0  0
   59.3590   27.9200   46.3800 C   0  0  0  0  0  0  0  0  0  0  0  0
   59.5230   29.3090   45.9590 C   0  0  0  0  0  0  0  0  0  0  0  0
   59.0770   29.6280   44.5810 N   0  0  0  0  0  0  0  0  0  0  0  0
   58.5720   30.9690   44.5620 C   0  0  0  0  0  0  0  0  0  0  0  0
   57.9780   31.4540   45.8370 C   0  0  0  0  0  0  0  0  0  0  0  0
   58.5340   32.8330   46.1700 C   0  0  0  0  0  0  0  0  0  0  0  0
   58.7770   33.7380   45.1500 C   0  0  0  0  0  0  0  0  0  0  0  0
   59.2790   35.0070   45.3790 C   0  0  0  0  0  0  0  0  0  0  0  0
   59.5350   35.3440   46.6900 C   0  0  0  0  0  0  0  0  0  0  0  0
   59.2950   34.4460   47.7090 C   0  0  0  0  0  0  0  0  0  0  0  0
   58.7900   33.1700   47.4770 C   0  0  0  0  0  0  0  0  0  0  0  0
   55.1390   28.1790   44.8970 H   0  0  0  0  0  0  0  0  0  0  0  0
   55.1014   29.6323   42.9155 H   0  0  0  0  0  0  0  0  0  0  0  0
   56.1502   30.6653   44.0325 H   0  0  0  0  0  0  0  0  0  0  0  0
   56.7224   27.9796   42.8687 H   0  0  0  0  0  0  0  0  0  0  0  0
   57.5637   29.6252   42.6565 H   0  0  0  0  0  0  0  0  0  0  0  0
   57.3730   28.5020   45.2366 H   0  0  0  0  0  0  0  0  0  0  0  0
   58.1292   26.5438   43.7834 H   0  0  0  0  0  0  0  0  0  0  0  0
   59.6029   27.5132   43.4050 H   0  0  0  0  0  0  0  0  0  0  0  0
   59.1496   24.8380   45.4817 H   0  0  0  0  0  0  0  0  0  0  0  0
   58.9195   25.8148   47.0373 H   0  0  0  0  0  0  0  0  0  0  0  0
   56.7526   27.5812   46.8885 H   0  0  0  0  0  0  0  0  0  0  0  0
   54.3490   24.7550   45.0010 H   0  0  0  0  0  0  0  0  0  0  0  0
   58.5958   22.7332   45.4238 H   0  0  0  0  0  0  0  0  0  0  0  0
   58.6967   20.8528   43.8845 H   0  0  0  0  0  0  0  0  0  0  0  0
   56.8804   20.7078   42.0061 H   0  0  0  0  0  0  0  0  0  0  0  0
   58.3741   27.8415   46.8636 H   0  0  0  0  0  0  0  0  0  0  0  0
   60.2312   27.7289   47.0224 H   0  0  0  0  0  0  0  0  0  0  0  0
   58.9495   29.9409   46.6531 H   0  0  0  0  0  0  0  0  0  0  0  0
   60.6069   29.4962   45.9705 H   0  0  0  0  0  0  0  0  0  0  0  0
   59.4039   31.6395   44.3004 H   0  0  0  0  0  0  0  0  0  0  0  0
   57.7509   30.9693   43.8300 H   0  0  0  0  0  0  0  0  0  0  0  0
   56.8849   31.5162   45.7309 H   0  0  0  0  0  0  0  0  0  0  0  0
   58.2310   30.7537   46.6467 H   0  0  0  0  0  0  0  0  0  0  0  0
   58.5619   33.4353   44.1146 H   0  0  0  0  0  0  0  0  0  0  0  0
   59.4645   35.7118   44.5550 H   0  0  0  0  0  0  0  0  0  0  0  0
   59.9354   36.3408   46.9269 H   0  0  0  0  0  0  0  0  0  0  0  0
   59.5108   34.7497   48.7440 H   0  0  0  0  0  0  0  0  0  0  0  0
   58.6047   32.4650   48.3008 H   0  0  0  0  0  0  0  0  0  0  0  0
  1  2  1  0
  2  3  1  0
  3  4  1  0
  4  5  1  0
  5  6  1  0
  6  7  1  0
  7  8  1  0
  8  9  1  0
  9 10  2  0
 10 11  1  0
 11 12  1  0
 12 13  1  0
 13 14  2  0
 14 15  1  0
 15 16  2  0
 16 17  1  0
  6 18  1  0
 18 19  1  0
 19 20  1  0
 20 21  1  0
 21 22  1  0
 22 23  1  0
 23 24  2  0
 24 25  1  0
 25 26  2  0
 26 27  1  0
 27 28  2  0
 20  4  1  0
 28 23  1  0
 12  8  2  0
 17 13  1  0
  1 29  1  0
  2 30  1  0
  2 31  1  0
  3 32  1  0
  3 33  1  0
  4 34  1  1
  5 35  1  0
  5 36  1  0
  7 37  1  0
  7 38  1  0
  9 39  1  0
 11 40  1  0
 14 41  1  0
 15 42  1  0
 16 43  1  0
 18 44  1  0
 18 45  1  0
 19 46  1  0
 19 47  1  0
 21 48  1  0
 21 49  1  0
 22 50  1  0
 22 51  1  0
 24 52  1  0
 25 53  1  0
 26 54  1  0
 27 55  1  0
 28 56  1  0
M  END
>  <smiles>  (72) 
OCCC1CN(Cc2cn[nH]c2-c2cccs2)CCN1CCc1ccccc1

>  <score_type>  (72) 
oracle

>  <origin>  (72) 
adg

>  <m_score__min__energy>  (72) 
-10.32

>  <m_primary>  (72) 
energy

$$$$
72:0
     RDKit          3D

 58 61  0  0  0  0  0  0  0  0999 V2000
   57.3310   28.0700   45.9970 O   0  0  0  0  0  0  0  0  0  0  0  0
   57.6340   26.9370   46.4590 C   0  0  0  0  0  0  0  0  0  0  0  0
   58.5540   26.8250   47.5600 N   0  0  0  0  0  0  0  0  0  0  0  0
   59.1690   27.9480   48.2130 C   0  0  0  0  0  0  0  0  0  0  0  0
   60.4080   27.8300   48.8640 C   0  0  0  0  0  0  0  0  0  0  0  0
   60.9970   28.9440   49.4720 C   0  0  0  0  0  0  0  0  0  0  0  0
   60.3680   30.2000   49.4190 C   0  0  0  0  0  0  0  0  0  0  0  0
   60.9880   31.3710   50.0830 C   0  0  0  0  0  0  0  0  0  0  0  0
   60.5780   31.7200   51.2230 O   0  0  0  0  0  0  0  0  0  0  0  0
   62.0280   32.1360   49.4460 N   0  0  0  0  0  0  0  0  0  0  0  0
   63.1850   31.4700   48.8390 C   0  0  0  0  0  0  0  0  0  0  0  0
   63.5760   32.1550   47.5130 C   0  0  0  0  0  0  0  0  0  0  0  0
   63.2700   33.6110   47.4620 N   0  0  0  0  0  0  0  0  0  0  0  0
   62.0680   33.9100   46.6500 C   0  0  0  0  0  0  0  0  0  0  0  0
   61.0270   32.7950   46.8020 C   0  0  0  0  0  0  0  0  0  0  0  0
   59.6630   33.2920   46.4050 C   0  0  0  0  0  0  0  0  0  0  0  0
   58.5360   32.9720   47.1800 C   0  0  0  0  0  0  0  0  0  0  0  0
   57.2650   33.4070   46.7890 C   0  0  0  0  0  0  0  0  0  0  0  0
   57.1110   34.1530   45.6170 C   0  0  0  0  0  0  0  0  0  0  0  0
   58.2250   34.4640   44.8330 C   0  0  0  0  0  0  0  0  0  0  0  0
   59.4970   34.0320   45.2220 C   0  0  0  0  0  0  0  0  0  0  0  0
   63.1930   34.2220   48.8060 C   0  0  0  0  0  0  0  0  0  0  0  0
   62.0740   33.5870   49.6480 C   0  0  0  0  0  0  0  0  0  0  0  0
   59.1350   30.3160   48.7570 C   0  0  0  0  0  0  0  0  0  0  0  0
   58.5480   29.2020   48.1480 C   0  0  0  0  0  0  0  0  0  0  0  0
   57.0270   25.7320   45.8540 C   0  0  0  0  0  0  0  0  0  0  0  0
   57.8500   24.6400   45.5280 C   0  0  0  0  0  0  0  0  0  0  0  0
   57.3060   23.4900   44.9490 C   0  0  0  0  0  0  0  0  0  0  0  0
   55.9350   23.4140   44.6990 C   0  0  0  0  0  0  0  0  0  0  0  0
   55.1030   24.4840   45.0380 C   0  0  0  0  0  0  0  0  0  0  0  0
   55.6380   25.6370   45.6230 C   0  0  0  0  0  0  0  0  0  0  0  0
   54.7770   26.6620   46.0000 O   0  0  0  0  0  0  0  0  0  0  0  0
   58.8410   25.8720   47.8800 H   0  0  0  0  0  0  0  0  0  0  0  0
   60.9183   26.8560   48.8960 H   0  0  0  0  0  0  0  0  0  0  0  0
   61.9587   28.8362   49.9950 H   0  0  0  0  0  0  0  0  0  0  0  0
   64.0355   31.5186   49.5349 H   0  0  0  0  0  0  0  0  0  0  0  0
   62.9208   30.4226   48.6311 H   0  0  0  0  0  0  0  0  0  0  0  0
   64.6581   32.0250   47.3641 H   0  0  0  0  0  0  0  0  0  0  0  0
   62.9756   31.6791   46.7237 H   0  0  0  0  0  0  0  0  0  0  0  0
   61.6311   34.8617   46.9868 H   0  0  0  0  0  0  0  0  0  0  0  0
   62.3616   33.9811   45.5923 H   0  0  0  0  0  0  0  0  0  0  0  0
   61.3060   31.9485   46.1573 H   0  0  0  0  0  0  0  0  0  0  0  0
   60.9977   32.4756   47.8542 H   0  0  0  0  0  0  0  0  0  0  0  0
   58.6532   32.3771   48.0978 H   0  0  0  0  0  0  0  0  0  0  0  0
   56.3866   33.1619   47.4041 H   0  0  0  0  0  0  0  0  0  0  0  0
   56.1114   34.4957   45.3115 H   0  0  0  0  0  0  0  0  0  0  0  0
   58.1015   35.0488   43.9096 H   0  0  0  0  0  0  0  0  0  0  0  0
   60.3713   34.2725   44.5993 H   0  0  0  0  0  0  0  0  0  0  0  0
   64.1543   34.0769   49.3206 H   0  0  0  0  0  0  0  0  0  0  0  0
   62.9714   35.2929   48.6871 H   0  0  0  0  0  0  0  0  0  0  0  0
   62.2600   33.7970   50.7116 H   0  0  0  0  0  0  0  0  0  0  0  0
   61.1110   34.0166   49.3348 H   0  0  0  0  0  0  0  0  0  0  0  0
   58.6267   31.2907   48.7171 H   0  0  0  0  0  0  0  0  0  0  0  0
   57.5923   29.3113   47.6144 H   0  0  0  0  0  0  0  0  0  0  0  0
   58.9301   24.6909   45.7301 H   0  0  0  0  0  0  0  0  0  0  0  0
   57.9593   22.6437   44.6900 H   0  0  0  0  0  0  0  0  0  0  0  0
   55.5096   22.5119   44.2352 H   0  0  0  0  0  0  0  0  0  0  0  0
   54.0221   24.4197   44.8441 H   0  0  0  0  0  0  0  0  0  0  0  0
  1  2  2  0
  2  3  1  0
  3  4  1  0
  4  5  2  0
  5  6  1  0
  6  7  2  0
  7  8  1  0
  8  9  2  0
  8 10  1  0
 10 11  1  0
 11 12  1  0
 12 13  1  0
 13 14  1  0
 14 15  1  0
 15 16  1  0
 16 17  2  0
 17 18  1  0
 18 19  2  0
 19 20  1  0
 20 21  2  0
 13 22  1  0
 22 23  1  0
  7 24  1  0
 24 25  2  0
  2 26  1  0
 26 27  2  0
 27 28  1  0
 28 29  2  0
 29 30  1  0
 30 31  2  0
 31 32  1  0
 25  4  1  0
 31 26  1  0
 23 10  1  0
 21 16  1  0
  3 33  1  0
  5 34  1  0
  6 35  1  0
 11 36  1  0
 11 37  1  0
 12 38  1  0
 12 39  1  0
 14 40  1  0
 14 41  1  0
 15 42  1  0
 15 43  1  0
 17 44  1  0
 18 45  1  0
 19 46  1  0
 20 47  1  0
 21 48  1  0
 22 49  1  0
 22 50  1  0
 23 51  1  0
 23 52  1  0
 24 53  1  0
 25 54  1  0
 27 55  1  0
 28 56  1  0
 29 57  1  0
 30 58  1  0
M  CHG  1  32  -1
M  END
>  <UniqueID>  (73) 
66

>  <SMILES>  (73) 
O=C(Nc1ccc(C(=O)N2CCN(CCc3ccccc3)CC2)cc1)c1ccccc1[O-]

>  <Energy>  (73) 
80.4400716163956

>  <Genealogy>  (73) 
O=C(Nc1ccc(C(=O)N2CCN(CCc3ccccc3)CC2)cc1)c1ccccc1[O-] (protonated)
O=C(Nc1ccc(C(=O)N2CCN(CCc3ccccc3)CC2)cc1)c1ccccc1[O-] (3D coordinates assigned)
O=C(Nc1ccc(C(=O)N2CCN(CCc3ccccc3)CC2)cc1)c1ccccc1[O-] (nonaromatic ring conformer: 80.4400716163956 kcal/mol)

>  <smiles>  (73) 
O=C(Nc1ccc(C(=O)N2CCN(CCc3ccccc3)CC2)cc1)c1ccccc1O

>  <score_type>  (73) 
oracle

>  <origin>  (73) 
adg

>  <m_score__min__energy>  (73) 
-12.98

>  <m_primary>  (73) 
energy

$$$$
73:0
     RDKit          3D

 55 58  0  0  0  0  0  0  0  0999 V2000
   56.4870   22.7250   42.9430 C   0  0  0  0  0  0  0  0  0  0  0  0
   56.3330   24.0020   43.7670 C   0  0  0  0  0  0  0  0  0  0  0  0
   56.4380   23.7140   45.2500 C   0  0  0  0  0  0  0  0  0  0  0  0
   56.5330   22.3680   45.6510 C   0  0  0  0  0  0  0  0  0  0  0  0
   56.6910   22.0340   46.9970 C   0  0  0  0  0  0  0  0  0  0  0  0
   56.7660   23.0350   47.9620 C   0  0  0  0  0  0  0  0  0  0  0  0
   56.6610   24.3760   47.5880 C   0  0  0  0  0  0  0  0  0  0  0  0
   56.4730   24.7360   46.2400 C   0  0  0  0  0  0  0  0  0  0  0  0
   56.3160   26.1730   45.9200 C   0  0  0  0  0  0  0  0  0  0  0  0
   55.1710   26.6960   45.9740 O   0  0  0  0  0  0  0  0  0  0  0  0
   57.4570   26.9510   45.5330 N   0  0  0  0  0  0  0  0  0  0  0  0
   58.1230   27.9850   46.2720 C   0  0  0  0  0  0  0  0  0  0  0  0
   58.9800   27.6050   47.3120 C   0  0  0  0  0  0  0  0  0  0  0  0
   59.6720   28.5680   48.0500 C   0  0  0  0  0  0  0  0  0  0  0  0
   59.5300   29.9290   47.7460 C   0  0  0  0  0  0  0  0  0  0  0  0
   60.2380   30.9460   48.5420 C   0  0  0  0  0  0  0  0  0  0  0  0
   59.9520   31.0700   49.7630 O   0  0  0  0  0  0  0  0  0  0  0  0
   61.2480   31.7910   47.9520 N   0  0  0  0  0  0  0  0  0  0  0  0
   62.5220   31.2920   47.4620 C   0  0  0  0  0  0  0  0  0  0  0  0
   63.3550   32.5190   47.1170 C   0  0  0  0  0  0  0  0  0  0  0  0
   62.4050   33.7150   47.1360 C   0  0  0  0  0  0  0  0  0  0  0  0
   61.1050   33.2340   47.7920 C   0  0  1  0  0  0  0  0  0  0  0  0
   59.8950   33.5910   46.9490 C   0  0  0  0  0  0  0  0  0  0  0  0
   60.0690   34.0760   45.6410 C   0  0  0  0  0  0  0  0  0  0  0  0
   58.9600   34.4030   44.8550 C   0  0  0  0  0  0  0  0  0  0  0  0
   57.6680   34.2410   45.3640 C   0  0  0  0  0  0  0  0  0  0  0  0
   56.5940   34.5620   44.6010 F   0  0  0  0  0  0  0  0  0  0  0  0
   57.4840   33.7460   46.6580 C   0  0  0  0  0  0  0  0  0  0  0  0
   58.5900   33.4180   47.4480 C   0  0  0  0  0  0  0  0  0  0  0  0
   58.6740   30.3160   46.7060 C   0  0  0  0  0  0  0  0  0  0  0  0
   57.9890   29.3510   45.9580 C   0  0  0  0  0  0  0  0  0  0  0  0
   56.5909   21.8631   43.6185 H   0  0  0  0  0  0  0  0  0  0  0  0
   55.5988   22.5886   42.3086 H   0  0  0  0  0  0  0  0  0  0  0  0
   57.3822   22.8037   42.3086 H   0  0  0  0  0  0  0  0  0  0  0  0
   57.1250   24.7102   43.4823 H   0  0  0  0  0  0  0  0  0  0  0  0
   55.3395   24.4287   43.5650 H   0  0  0  0  0  0  0  0  0  0  0  0
   56.4821   21.5705   44.8951 H   0  0  0  0  0  0  0  0  0  0  0  0
   56.7564   20.9775   47.2961 H   0  0  0  0  0  0  0  0  0  0  0  0
   56.9081   22.7690   49.0199 H   0  0  0  0  0  0  0  0  0  0  0  0
   56.7260   25.1609   48.3560 H   0  0  0  0  0  0  0  0  0  0  0  0
   59.1094   26.5389   47.5499 H   0  0  0  0  0  0  0  0  0  0  0  0
   60.3315   28.2569   48.8736 H   0  0  0  0  0  0  0  0  0  0  0  0
   63.0232   30.6974   48.2399 H   0  0  0  0  0  0  0  0  0  0  0  0
   62.3869   30.6402   46.5862 H   0  0  0  0  0  0  0  0  0  0  0  0
   64.1529   32.6569   47.8616 H   0  0  0  0  0  0  0  0  0  0  0  0
   63.8321   32.4087   46.1320 H   0  0  0  0  0  0  0  0  0  0  0  0
   62.8428   34.5378   47.7203 H   0  0  0  0  0  0  0  0  0  0  0  0
   62.2199   34.0898   46.1185 H   0  0  0  0  0  0  0  0  0  0  0  0
   60.9402   33.7233   48.7633 H   0  0  0  0  0  0  0  0  0  0  0  0
   61.0834   34.1989   45.2337 H   0  0  0  0  0  0  0  0  0  0  0  0
   59.1042   34.7882   43.8348 H   0  0  0  0  0  0  0  0  0  0  0  0
   56.4669   33.6142   47.0558 H   0  0  0  0  0  0  0  0  0  0  0  0
   58.4398   33.0231   48.4636 H   0  0  0  0  0  0  0  0  0  0  0  0
   58.5397   31.3833   46.4763 H   0  0  0  0  0  0  0  0  0  0  0  0
   57.3441   29.6609   45.1225 H   0  0  0  0  0  0  0  0  0  0  0  0
  1  2  1  0
  2  3  1  0
  3  4  2  0
  4  5  1  0
  5  6  2  0
  6  7  1  0
  7  8  2  0
  8  9  1  0
  9 10  2  0
  9 11  1  0
 11 12  1  0
 12 13  2  0
 13 14  1  0
 14 15  2  0
 15 16  1  0
 16 17  2  0
 16 18  1  0
 18 19  1  0
 19 20  1  0
 20 21  1  0
 21 22  1  0
 22 23  1  0
 23 24  2  0
 24 25  1  0
 25 26  2  0
 26 27  1  0
 26 28  1  0
 28 29  2  0
 15 30  1  0
 30 31  2  0
  8  3  1  0
 31 12  1  0
 22 18  1  0
 29 23  1  0
  1 32  1  0
  1 33  1  0
  1 34  1  0
  2 35  1  0
  2 36  1  0
  4 37  1  0
  5 38  1  0
  6 39  1  0
  7 40  1  0
 13 41  1  0
 14 42  1  0
 19 43  1  0
 19 44  1  0
 20 45  1  0
 20 46  1  0
 21 47  1  0
 21 48  1  0
 22 49  1  1
 24 50  1  0
 25 51  1  0
 28 52  1  0
 29 53  1  0
 30 54  1  0
 31 55  1  0
M  CHG  1  11  -1
M  END
>  <UniqueID>  (74) 
67

>  <SMILES>  (74) 
CCc1ccccc1C(=O)[N-]c1ccc(C(=O)N2CCC[C@H]2c2ccc(F)cc2)cc1

>  <Energy>  (74) 
72.80931401317653

>  <Genealogy>  (74) 
CCc1ccccc1C(=O)[N-]c1ccc(C(=O)N2CCCC2c2ccc(F)cc2)cc1 (protonated)
CCc1ccccc1C(=O)[N-]c1ccc(C(=O)N2CCC[C@H]2c2ccc(F)cc2)cc1 (chirality)
CCc1ccccc1C(=O)[N-]c1ccc(C(=O)N2CCC[C@H]2c2ccc(F)cc2)cc1 (3D coordinates assigned)
CCc1ccccc1C(=O)[N-]c1ccc(C(=O)N2CCC[C@H]2c2ccc(F)cc2)cc1 (nonaromatic ring conformer: 72.80931401317653 kcal/mol)

>  <smiles>  (74) 
CCc1ccccc1C(=O)Nc1ccc(C(=O)N2CCCC2c2ccc(F)cc2)cc1

>  <score_type>  (74) 
oracle

>  <origin>  (74) 
adg

>  <m_score__min__energy>  (74) 
-10.630000000000001

>  <m_primary>  (74) 
energy

$$$$
74:0
     RDKit          3D

 39 42  0  0  0  0  0  0  0  0999 V2000
   56.9153   20.2220   42.1030 H   0  0  0  0  0  0  0  0  0  0  0  0
   56.9670   21.0890   42.7780 C   0  0  0  0  0  0  0  0  0  0  0  0
   55.9040   21.9000   43.0170 N   0  0  0  0  0  0  0  0  0  0  0  0
   56.4080   22.7980   43.8740 C   0  0  0  0  0  0  0  0  0  0  0  0
   55.7520   23.8780   44.4600 C   0  0  0  0  0  0  0  0  0  0  0  0
   54.6935   24.0830   44.2419 H   0  0  0  0  0  0  0  0  0  0  0  0
   56.4870   24.7050   45.3450 C   0  0  0  0  0  0  0  0  0  0  0  0
   55.8370   25.8660   45.9960 C   0  0  0  0  0  0  0  0  0  0  0  0
   54.5810   25.9750   45.9730 O   0  0  0  0  0  0  0  0  0  0  0  0
   56.6370   26.8900   46.6050 N   0  0  0  0  0  0  0  0  0  0  0  0
   57.4230   27.8790   45.9240 C   0  0  0  0  0  0  0  0  0  0  0  0
   58.8120   27.7220   45.8930 C   0  0  0  0  0  0  0  0  0  0  0  0
   59.2747   26.8468   46.3726 H   0  0  0  0  0  0  0  0  0  0  0  0
   59.6150   28.6710   45.2560 C   0  0  0  0  0  0  0  0  0  0  0  0
   60.7059   28.5336   45.2247 H   0  0  0  0  0  0  0  0  0  0  0  0
   59.0380   29.7930   44.6590 C   0  0  0  0  0  0  0  0  0  0  0  0
   59.6765   30.5311   44.1516 H   0  0  0  0  0  0  0  0  0  0  0  0
   57.6450   29.9860   44.7020 C   0  0  0  0  0  0  0  0  0  0  0  0
   57.0310   31.1870   44.0860 C   0  0  0  0  0  0  0  0  0  0  0  0
   56.6730   31.1540   42.8770 O   0  0  0  0  0  0  0  0  0  0  0  0
   56.7680   32.3490   44.8910 N   0  0  0  0  0  0  0  0  0  0  0  0
   57.6090   33.1270   45.5170 C   0  0  0  0  0  0  0  0  0  0  0  0
   57.8020   32.9220   46.8490 N   0  0  0  0  0  0  0  0  0  0  0  0
   58.6620   33.6740   47.5860 C   0  0  0  0  0  0  0  0  0  0  0  0
   58.7818   33.4765   48.6615 H   0  0  0  0  0  0  0  0  0  0  0  0
   59.3920   34.6950   46.9800 C   0  0  0  0  0  0  0  0  0  0  0  0
   60.0820   35.3134   47.5728 H   0  0  0  0  0  0  0  0  0  0  0  0
   59.2370   34.9230   45.6130 C   0  0  0  0  0  0  0  0  0  0  0  0
   59.8133   35.7195   45.1196 H   0  0  0  0  0  0  0  0  0  0  0  0
   58.3500   34.1400   44.8700 C   0  0  0  0  0  0  0  0  0  0  0  0
   58.2299   34.3112   43.7901 H   0  0  0  0  0  0  0  0  0  0  0  0
   56.8430   29.0230   45.3460 C   0  0  0  0  0  0  0  0  0  0  0  0
   55.7537   29.1670   45.3973 H   0  0  0  0  0  0  0  0  0  0  0  0
   57.8540   24.4060   45.6020 C   0  0  0  0  0  0  0  0  0  0  0  0
   58.4300   25.0437   46.2887 H   0  0  0  0  0  0  0  0  0  0  0  0
   58.4780   23.3040   44.9880 C   0  0  0  0  0  0  0  0  0  0  0  0
   59.5347   23.0682   45.1825 H   0  0  0  0  0  0  0  0  0  0  0  0
   57.7140   22.5230   44.1270 C   0  0  0  0  0  0  0  0  0  0  0  0
   58.0990   21.4380   43.4420 N   0  0  0  0  0  0  0  0  0  0  0  0
  1  2  1  0
  2  3  2  0
  3  4  1  0
  4  5  2  0
  5  6  1  0
  5  7  1  0
  7  8  1  0
  8  9  2  0
  8 10  1  0
 10 11  1  0
 11 12  2  0
 12 13  1  0
 12 14  1  0
 14 15  1  0
 14 16  2  0
 16 17  1  0
 16 18  1  0
 18 19  1  0
 19 20  2  0
 19 21  1  0
 21 22  2  0
 22 23  1  0
 23 24  1  0
 24 25  1  0
 24 26  2  0
 26 27  1  0
 26 28  1  0
 28 29  1  0
 28 30  2  0
 30 31  1  0
 18 32  2  0
 32 33  1  0
  7 34  2  0
 34 35  1  0
 34 36  1  0
 36 37  1  0
 36 38  2  0
 38 39  1  0
 39  2  1  0
 38  4  1  0
 32 11  1  0
 30 22  1  0
M  CHG  3  10  -1  23  -1  39  -1
M  END
>  <UniqueID>  (75) 
68

>  <SMILES>  (75) 
O=C(/N=c1\cccc[n-]1)c1cccc([N-]C(=O)c2ccc3[n-]cnc3c2)c1

>  <Energy>  (75) 
92.50869564462361

>  <Genealogy>  (75) 
O=C(N=c1cccc[n-]1)c1cccc([N-]C(=O)c2ccc3[n-]cnc3c2)c1 (protonated)
O=C(/N=c1\cccc[n-]1)c1cccc([N-]C(=O)c2ccc3[n-]cnc3c2)c1 (cis-trans isomerization)
O=C(/N=c1\cccc[n-]1)c1cccc([N-]C(=O)c2ccc3[n-]cnc3c2)c1 (3D coordinates assigned)
O=C(/N=c1\cccc[n-]1)c1cccc([N-]C(=O)c2ccc3[n-]cnc3c2)c1 (optimized conformer: 92.50869564462361 kcal/mol)

>  <smiles>  (75) 
O=C(N=c1cccc[nH]1)c1cccc(NC(=O)c2ccc3[nH]cnc3c2)c1

>  <score_type>  (75) 
oracle

>  <origin>  (75) 
adg

>  <m_score__min__energy>  (75) 
-13.19

>  <m_primary>  (75) 
energy

$$$$
75:0
     RDKit          3D

 37 39  0  0  0  0  0  0  0  0999 V2000
   61.6170   29.9650   46.0580 O   0  0  0  0  0  0  0  0  0  0  0  0
   60.5730   30.5750   46.4180 C   0  0  0  0  0  0  0  0  0  0  0  0
   60.6880   31.8510   47.1670 C   0  0  0  0  0  0  0  0  0  0  0  0
   61.9470   32.4490   47.3640 C   0  0  0  0  0  0  0  0  0  0  0  0
   62.0570   33.6510   48.0700 C   0  0  0  0  0  0  0  0  0  0  0  0
   60.9150   34.2710   48.5810 C   0  0  0  0  0  0  0  0  0  0  0  0
   59.6590   33.6930   48.3840 C   0  0  0  0  0  0  0  0  0  0  0  0
   59.5430   32.4920   47.6780 C   0  0  0  0  0  0  0  0  0  0  0  0
   59.2850   30.0220   46.0790 N   0  0  0  0  0  0  0  0  0  0  0  0
   58.4860   30.6620   45.1700 C   0  0  0  0  0  0  0  0  0  0  0  0
   58.8670   31.7290   44.6160 O   0  0  0  0  0  0  0  0  0  0  0  0
   57.2630   30.1630   44.8630 N   0  0  0  0  0  0  0  0  0  0  0  0
   56.7930   29.0280   45.4370 C   0  0  0  0  0  0  0  0  0  0  0  0
   55.5250   28.5650   45.1000 O   0  0  0  0  0  0  0  0  0  0  0  0
   57.5860   28.3330   46.3630 C   0  0  0  0  0  0  0  0  0  0  0  0
   57.0550   27.1000   47.0620 C   0  0  0  0  0  0  0  0  0  0  0  0
   56.8640   25.9710   46.0750 C   0  0  0  0  0  0  0  0  0  0  0  0
   57.9810   25.2330   45.6430 C   0  0  0  0  0  0  0  0  0  0  0  0
   57.8260   24.1640   44.7560 C   0  0  0  0  0  0  0  0  0  0  0  0
   56.5550   23.8220   44.2880 C   0  0  0  0  0  0  0  0  0  0  0  0
   56.4020   22.7590   43.4070 O   0  0  0  0  0  0  0  0  0  0  0  0
   55.4380   24.5490   44.7070 C   0  0  0  0  0  0  0  0  0  0  0  0
   55.5850   25.6200   45.5970 C   0  0  0  0  0  0  0  0  0  0  0  0
   54.4550   26.3280   45.9910 O   0  0  0  0  0  0  0  0  0  0  0  0
   58.8600   28.8550   46.6610 C   0  0  0  0  0  0  0  0  0  0  0  0
   59.6170   28.2360   47.4610 O   0  0  0  0  0  0  0  0  0  0  0  0
   62.8499   31.9678   46.9601 H   0  0  0  0  0  0  0  0  0  0  0  0
   63.0453   34.1091   48.2231 H   0  0  0  0  0  0  0  0  0  0  0  0
   61.0046   35.2148   49.1388 H   0  0  0  0  0  0  0  0  0  0  0  0
   58.7597   34.1835   48.7849 H   0  0  0  0  0  0  0  0  0  0  0  0
   58.5505   32.0446   47.5206 H   0  0  0  0  0  0  0  0  0  0  0  0
   55.1560   27.7140   45.5070 H   0  0  0  0  0  0  0  0  0  0  0  0
   57.7709   26.7865   47.8361 H   0  0  0  0  0  0  0  0  0  0  0  0
   56.0835   27.3411   47.5182 H   0  0  0  0  0  0  0  0  0  0  0  0
   58.9845   25.4994   46.0062 H   0  0  0  0  0  0  0  0  0  0  0  0
   58.7055   23.5916   44.4262 H   0  0  0  0  0  0  0  0  0  0  0  0
   54.4383   24.2788   44.3360 H   0  0  0  0  0  0  0  0  0  0  0  0
  1  2  2  0
  2  3  1  0
  3  4  2  0
  4  5  1  0
  5  6  2  0
  6  7  1  0
  7  8  2  0
  2  9  1  0
  9 10  1  0
 10 11  2  0
 10 12  1  0
 12 13  1  0
 13 14  1  0
 13 15  2  0
 15 16  1  0
 16 17  1  0
 17 18  2  0
 18 19  1  0
 19 20  2  0
 20 21  1  0
 20 22  1  0
 22 23  2  0
 23 24  1  0
 15 25  1  0
 25 26  2  0
  8  3  1  0
 25  9  1  0
 23 17  1  0
  4 27  1  0
  5 28  1  0
  6 29  1  0
  7 30  1  0
  8 31  1  0
 14 32  1  0
 16 33  1  0
 16 34  1  0
 18 35  1  0
 19 36  1  0
 22 37  1  0
M  CHG  3  12  -1  21  -1  24  -1
M  END
>  <UniqueID>  (76) 
69

>  <SMILES>  (76) 
O=C(c1ccccc1)n1c(=O)[n-]c(O)c(Cc2ccc([O-])cc2[O-])c1=O

>  <Energy>  (76) 
51.93194013703227

>  <Genealogy>  (76) 
O=C(c1ccccc1)n1c(=O)[n-]c(O)c(Cc2ccc([O-])cc2[O-])c1=O (protonated)
O=C(c1ccccc1)n1c(=O)[n-]c(O)c(Cc2ccc([O-])cc2[O-])c1=O (3D coordinates assigned)
O=C(c1ccccc1)n1c(=O)[n-]c(O)c(Cc2ccc([O-])cc2[O-])c1=O (optimized conformer: 51.93194013703227 kcal/mol)

>  <smiles>  (76) 
O=C(c1ccccc1)n1c(=O)[nH]c(O)c(Cc2ccc(O)cc2O)c1=O

>  <score_type>  (76) 
oracle

>  <origin>  (76) 
adg

>  <m_score__min__energy>  (76) 
-14.289999999999999

>  <m_primary>  (76) 
energy

$$$$
76:0
     RDKit          3D

 34 36  0  0  0  0  0  0  0  0999 V2000
   60.2425   26.3700   47.2329 H   0  0  0  0  0  0  0  0  0  0  0  0
   59.6450   26.9560   46.5190 C   0  0  0  0  0  0  0  0  0  0  0  0
   60.2790   27.8210   45.6240 C   0  0  0  0  0  0  0  0  0  0  0  0
   61.3746   27.9186   45.6366 H   0  0  0  0  0  0  0  0  0  0  0  0
   59.5220   28.5630   44.7120 C   0  0  0  0  0  0  0  0  0  0  0  0
   60.0240   29.2492   44.0141 H   0  0  0  0  0  0  0  0  0  0  0  0
   58.1230   28.4360   44.6830 C   0  0  0  0  0  0  0  0  0  0  0  0
   57.3110   29.2630   43.7230 C   0  0  0  0  0  0  0  0  0  0  0  0
   56.7202   28.5966   43.0773 H   0  0  0  0  0  0  0  0  0  0  0  0
   57.9891   29.8727   43.1079 H   0  0  0  0  0  0  0  0  0  0  0  0
   56.3840   30.1700   44.4840 C   0  0  0  0  0  0  0  0  0  0  0  0
   55.3330   29.6930   44.9860 O   0  0  0  0  0  0  0  0  0  0  0  0
   56.5800   31.5890   44.4930 N   0  0  0  0  0  0  0  0  0  0  0  0
   57.3890   32.2770   45.2480 C   0  0  0  0  0  0  0  0  0  0  0  0
   58.3080   31.6910   46.2570 C   0  0  0  0  0  0  0  0  0  0  0  0
   59.4020   32.4260   46.7050 C   0  0  0  0  0  0  0  0  0  0  0  0
   60.1880   31.5590   47.9170 S   0  0  0  0  0  0  0  0  0  0  0  0
   59.1000   30.2810   47.8140 C   0  0  0  0  0  0  0  0  0  0  0  0
   59.1500   29.2460   48.5290 O   0  0  0  0  0  0  0  0  0  0  0  0
   58.1350   30.4980   46.8930 N   0  0  0  0  0  0  0  0  0  0  0  0
   57.3330   29.8470   46.7490 H   0  0  0  0  0  0  0  0  0  0  0  0
   59.6630   33.8570   46.3370 C   0  0  0  0  0  0  0  0  0  0  0  0
   60.7412   33.9918   46.1655 H   0  0  0  0  0  0  0  0  0  0  0  0
   59.3170   34.4962   47.1627 H   0  0  0  0  0  0  0  0  0  0  0  0
   58.8980   34.2560   45.0600 C   0  0  0  0  0  0  0  0  0  0  0  0
   59.4021   33.8099   44.1900 H   0  0  0  0  0  0  0  0  0  0  0  0
   58.8921   35.3542   44.9965 H   0  0  0  0  0  0  0  0  0  0  0  0
   57.4350   33.7730   45.0890 C   0  0  0  0  0  0  0  0  0  0  0  0
   56.9399   34.0546   44.1480 H   0  0  0  0  0  0  0  0  0  0  0  0
   56.9170   34.2421   45.9385 H   0  0  0  0  0  0  0  0  0  0  0  0
   57.4910   27.5730   45.5990 C   0  0  0  0  0  0  0  0  0  0  0  0
   56.1380   27.4490   45.6130 F   0  0  0  0  0  0  0  0  0  0  0  0
   58.2540   26.8340   46.5090 C   0  0  0  0  0  0  0  0  0  0  0  0
   57.7573   26.1554   47.2181 H   0  0  0  0  0  0  0  0  0  0  0  0
  1  2  1  0
  2  3  2  0
  3  4  1  0
  3  5  1  0
  5  6  1  0
  5  7  2  0
  7  8  1  0
  8  9  1  0
  8 10  1  0
  8 11  1  0
 11 12  2  0
 11 13  1  0
 13 14  2  0
 14 15  1  0
 15 16  2  0
 16 17  1  0
 17 18  1  0
 18 19  2  0
 18 20  1  0
 20 21  1  0
 16 22  1  0
 22 23  1  0
 22 24  1  0
 22 25  1  0
 25 26  1  0
 25 27  1  0
 25 28  1  0
 28 29  1  0
 28 30  1  0
  7 31  1  0
 31 32  1  0
 31 33  2  0
 33 34  1  0
 33  2  1  0
 28 14  1  0
 20 15  1  0
M  END
>  <UniqueID>  (77) 
70

>  <SMILES>  (77) 
O=C(Cc1ccccc1F)/N=C1/CCCc2sc(=O)[nH]c21

>  <Energy>  (77) 
75.92383537129486

>  <Genealogy>  (77) 
O=C(Cc1ccccc1F)/N=C1/CCCc2sc(=O)[nH]c21 (cis-trans isomerization)
O=C(Cc1ccccc1F)/N=C1/CCCc2sc(=O)[nH]c21 (3D coordinates assigned)
O=C(Cc1ccccc1F)/N=C1/CCCc2sc(=O)[nH]c21 (nonaromatic ring conformer: 75.92383537129486 kcal/mol)

>  <smiles>  (77) 
O=C(Cc1ccccc1F)N=C1CCCc2sc(=O)[nH]c21

>  <score_type>  (77) 
oracle

>  <origin>  (77) 
adg

>  <m_score__min__energy>  (77) 
-8.6199999999999992

>  <m_primary>  (77) 
energy

$$$$
77:0
     RDKit          3D

 61 64  0  0  0  0  0  0  0  0999 V2000
   55.5740   23.9580   46.6170 C   0  0  0  0  0  0  0  0  0  0  0  0
   56.6590   24.9780   46.4090 C   0  0  0  0  0  0  0  0  0  0  0  0
   58.0080   24.6060   46.5190 C   0  0  0  0  0  0  0  0  0  0  0  0
   59.0170   25.5510   46.3220 C   0  0  0  0  0  0  0  0  0  0  0  0
   58.6920   26.8740   46.0220 C   0  0  0  0  0  0  0  0  0  0  0  0
   57.3480   27.2700   45.9260 C   0  0  0  0  0  0  0  0  0  0  0  0
   57.0090   28.6930   45.5770 C   0  0  0  0  0  0  0  0  0  0  0  0
   58.0950   29.5670   46.0020 N   0  0  0  0  0  0  0  0  0  0  0  0
   58.0110   30.9940   46.0850 C   0  0  0  0  0  0  0  0  0  0  0  0
   57.1690   31.5940   45.3660 O   0  0  0  0  0  0  0  0  0  0  0  0
   58.8510   31.7790   47.0090 C   0  0  0  0  0  0  0  0  0  0  0  0
   59.2500   33.0850   46.6850 C   0  0  0  0  0  0  0  0  0  0  0  0
   60.0310   33.8260   47.5770 C   0  0  0  0  0  0  0  0  0  0  0  0
   60.4100   33.2740   48.8030 C   0  0  0  0  0  0  0  0  0  0  0  0
   60.0000   31.9770   49.1520 C   0  0  0  0  0  0  0  0  0  0  0  0
   60.3890   31.3800   50.4790 C   0  0  0  0  0  0  0  0  0  0  0  0
   59.3440   31.6440   51.4890 N   0  0  0  0  0  0  0  0  0  0  0  0
   58.3230   32.5750   50.9530 C   0  0  0  0  0  0  0  0  0  0  0  0
   57.0140   32.4720   51.7410 C   0  0  0  0  0  0  0  0  0  0  0  0
   56.4050   31.1300   51.5980 N   0  0  0  0  0  0  0  0  0  0  0  0
   55.4760   30.8590   52.7130 C   0  0  0  0  0  0  0  0  0  0  0  0
   54.0640   30.7280   52.2050 C   0  0  0  0  0  0  0  0  0  0  0  0
   53.4220   29.4780   52.1850 C   0  0  0  0  0  0  0  0  0  0  0  0
   52.1150   29.3660   51.7040 C   0  0  0  0  0  0  0  0  0  0  0  0
   51.4380   30.4970   51.2400 C   0  0  0  0  0  0  0  0  0  0  0  0
   52.0690   31.7450   51.2570 C   0  0  0  0  0  0  0  0  0  0  0  0
   51.3960   32.8700   50.7960 O   0  0  0  0  0  0  0  0  0  0  0  0
   53.3780   31.8610   51.7390 C   0  0  0  0  0  0  0  0  0  0  0  0
   57.4040   30.0440   51.4200 C   0  0  0  0  0  0  0  0  0  0  0  0
   58.7660   30.3920   52.0430 C   0  0  0  0  0  0  0  0  0  0  0  0
   59.2160   31.2370   48.2520 C   0  0  0  0  0  0  0  0  0  0  0  0
   56.3300   26.3130   46.1100 C   0  0  0  0  0  0  0  0  0  0  0  0
   54.9930   26.6860   45.9910 O   0  0  0  0  0  0  0  0  0  0  0  0
   55.4139   23.8075   47.6948 H   0  0  0  0  0  0  0  0  0  0  0  0
   54.6420   24.3145   46.1542 H   0  0  0  0  0  0  0  0  0  0  0  0
   55.8723   23.0058   46.1542 H   0  0  0  0  0  0  0  0  0  0  0  0
   58.2714   23.5659   46.7614 H   0  0  0  0  0  0  0  0  0  0  0  0
   60.0721   25.2510   46.4037 H   0  0  0  0  0  0  0  0  0  0  0  0
   59.4925   27.6108   45.8598 H   0  0  0  0  0  0  0  0  0  0  0  0
   56.8710   28.7813   44.4893 H   0  0  0  0  0  0  0  0  0  0  0  0
   56.0800   28.9856   46.0883 H   0  0  0  0  0  0  0  0  0  0  0  0
   58.9468   33.5277   45.7247 H   0  0  0  0  0  0  0  0  0  0  0  0
   60.3477   34.8458   47.3129 H   0  0  0  0  0  0  0  0  0  0  0  0
   61.0320   33.8575   49.4977 H   0  0  0  0  0  0  0  0  0  0  0  0
   60.5158   30.2934   50.3643 H   0  0  0  0  0  0  0  0  0  0  0  0
   61.3318   31.8376   50.8133 H   0  0  0  0  0  0  0  0  0  0  0  0
   58.7040   33.6046   51.0226 H   0  0  0  0  0  0  0  0  0  0  0  0
   58.1218   32.3068   49.9054 H   0  0  0  0  0  0  0  0  0  0  0  0
   57.2203   32.6605   52.8049 H   0  0  0  0  0  0  0  0  0  0  0  0
   56.3095   33.2175   51.3435 H   0  0  0  0  0  0  0  0  0  0  0  0
   55.7702   29.9225   53.2095 H   0  0  0  0  0  0  0  0  0  0  0  0
   55.5212   31.6966   53.4246 H   0  0  0  0  0  0  0  0  0  0  0  0
   53.9504   28.5846   52.5493 H   0  0  0  0  0  0  0  0  0  0  0  0
   51.6176   28.3850   51.6905 H   0  0  0  0  0  0  0  0  0  0  0  0
   50.4092   30.4057   50.8615 H   0  0  0  0  0  0  0  0  0  0  0  0
   53.8714   32.8440   51.7528 H   0  0  0  0  0  0  0  0  0  0  0  0
   57.0207   29.1299   51.8969 H   0  0  0  0  0  0  0  0  0  0  0  0
   57.5559   29.9020   50.3398 H   0  0  0  0  0  0  0  0  0  0  0  0
   58.6362   30.5139   53.1285 H   0  0  0  0  0  0  0  0  0  0  0  0
   59.4598   29.5716   51.8073 H   0  0  0  0  0  0  0  0  0  0  0  0
   58.8848   30.2237   48.5232 H   0  0  0  0  0  0  0  0  0  0  0  0
  1  2  1  0
  2  3  2  0
  3  4  1  0
  4  5  2  0
  5  6  1  0
  6  7  1  0
  7  8  1  0
  8  9  1  0
  9 10  2  0
  9 11  1  0
 11 12  2  0
 12 13  1  0
 13 14  2  0
 14 15  1  0
 15 16  1  0
 16 17  1  0
 17 18  1  0
 18 19  1  0
 19 20  1  0
 20 21  1  0
 21 22  1  0
 22 23  2  0
 23 24  1  0
 24 25  2  0
 25 26  1  0
 26 27  1  0
 26 28  2  0
 20 29  1  0
 29 30  1  0
 15 31  2  0
  6 32  2  0
 32 33  1  0
 32  2  1  0
 31 11  1  0
 30 17  1  0
 28 22  1  0
  1 34  1  0
  1 35  1  0
  1 36  1  0
  3 37  1  0
  4 38  1  0
  5 39  1  0
  7 40  1  0
  7 41  1  0
 12 42  1  0
 13 43  1  0
 14 44  1  0
 16 45  1  0
 16 46  1  0
 18 47  1  0
 18 48  1  0
 19 49  1  0
 19 50  1  0
 21 51  1  0
 21 52  1  0
 23 53  1  0
 24 54  1  0
 25 55  1  0
 28 56  1  0
 29 57  1  0
 29 58  1  0
 30 59  1  0
 30 60  1  0
 31 61  1  0
M  CHG  3   8  -1  27  -1  33  -1
M  END
>  <UniqueID>  (78) 
71

>  <SMILES>  (78) 
Cc1cccc(C[N-]C(=O)c2cccc(CN3CCN(Cc4cccc([O-])c4)CC3)c2)c1[O-]

>  <Energy>  (78) 
80.89915792410416

>  <Genealogy>  (78) 
Cc1cccc(C[N-]C(=O)c2cccc(CN3CCN(Cc4cccc([O-])c4)CC3)c2)c1[O-] (protonated)
Cc1cccc(C[N-]C(=O)c2cccc(CN3CCN(Cc4cccc([O-])c4)CC3)c2)c1[O-] (3D coordinates assigned)
Cc1cccc(C[N-]C(=O)c2cccc(CN3CCN(Cc4cccc([O-])c4)CC3)c2)c1[O-] (nonaromatic ring conformer: 80.89915792410416 kcal/mol)

>  <smiles>  (78) 
Cc1cccc(CNC(=O)c2cccc(CN3CCN(Cc4cccc(O)c4)CC3)c2)c1O

>  <score_type>  (78) 
oracle

>  <origin>  (78) 
adg

>  <m_score__min__energy>  (78) 
-18.239999999999998

>  <m_primary>  (78) 
energy

$$$$
78:0
     RDKit          3D

 26 27  0  0  0  0  0  0  0  0999 V2000
   61.1480   26.5190   45.9000 H   0  0  0  0  0  0  0  0  0  0  0  0
   61.0340   27.5020   45.6770 O   0  0  0  0  0  0  0  0  0  0  0  0
   59.7870   28.1290   45.6580 C   0  0  0  0  0  0  0  0  0  0  0  0
   59.7331   29.2105   45.4644 H   0  0  0  0  0  0  0  0  0  0  0  0
   58.6530   27.4450   45.8700 C   0  0  0  0  0  0  0  0  0  0  0  0
   58.6480   26.1600   46.2940 N   0  0  0  0  0  0  0  0  0  0  0  0
   57.3540   25.7950   46.4050 C   0  0  0  0  0  0  0  0  0  0  0  0
   56.9960   24.5600   46.7930 C   0  0  0  0  0  0  0  0  0  0  0  0
   57.6700   24.0261   47.4791 H   0  0  0  0  0  0  0  0  0  0  0  0
   55.7660   23.8670   46.3670 C   0  0  0  0  0  0  0  0  0  0  0  0
   55.0190   23.1460   47.3110 C   0  0  0  0  0  0  0  0  0  0  0  0
   55.3749   23.0699   48.3491 H   0  0  0  0  0  0  0  0  0  0  0  0
   53.8240   22.5240   46.9370 C   0  0  0  0  0  0  0  0  0  0  0  0
   53.2518   21.9442   47.6762 H   0  0  0  0  0  0  0  0  0  0  0  0
   53.3550   22.6380   45.6240 C   0  0  0  0  0  0  0  0  0  0  0  0
   52.1680   22.0190   45.2540 O   0  0  0  0  0  0  0  0  0  0  0  0
   54.0790   23.3800   44.6850 C   0  0  0  0  0  0  0  0  0  0  0  0
   53.7076   23.4743   43.6539 H   0  0  0  0  0  0  0  0  0  0  0  0
   55.2750   24.0020   45.0570 C   0  0  0  0  0  0  0  0  0  0  0  0
   55.8337   24.5993   44.3214 H   0  0  0  0  0  0  0  0  0  0  0  0
   56.5340   26.8490   46.0320 C   0  0  0  0  0  0  0  0  0  0  0  0
   55.1460   26.8450   45.9490 O   0  0  0  0  0  0  0  0  0  0  0  0
   57.3480   27.9100   45.6970 C   0  0  0  0  0  0  0  0  0  0  0  0
   56.8560   29.2240   45.2370 C   0  0  0  0  0  0  0  0  0  0  0  0
   57.5548   30.0726   45.1993 H   0  0  0  0  0  0  0  0  0  0  0  0
   55.6610   29.4010   44.8870 O   0  0  0  0  0  0  0  0  0  0  0  0
  1  2  1  0
  2  3  1  0
  3  4  1  0
  3  5  2  0
  5  6  1  0
  6  7  1  0
  7  8  2  3
  8  9  1  0
  8 10  1  0
 10 11  2  0
 11 12  1  0
 11 13  1  0
 13 14  1  0
 13 15  2  0
 15 16  1  0
 15 17  1  0
 17 18  1  0
 17 19  2  0
 19 20  1  0
  7 21  1  0
 21 22  1  0
 21 23  2  0
 23 24  1  0
 24 25  1  0
 24 26  2  0
 23  5  1  0
 19 10  1  0
M  CHG  3   6  -1  16  -1  22  -1
M  END
>  <UniqueID>  (79) 
72

>  <SMILES>  (79) 
O=Cc1c([O-])c(=Cc2ccc([O-])cc2)[n-]/c1=C\O

>  <Energy>  (79) 
63.96542954631123

>  <Genealogy>  (79) 
O=Cc1c([O-])c(=Cc2ccc([O-])cc2)[n-]c1=CO (protonated)
O=Cc1c([O-])c(=Cc2ccc([O-])cc2)[n-]/c1=C\O (cis-trans isomerization)
O=Cc1c([O-])c(=Cc2ccc([O-])cc2)[n-]/c1=C\O (3D coordinates assigned)
O=Cc1c([O-])c(=Cc2ccc([O-])cc2)[n-]/c1=C\O (optimized conformer: 63.96542954631123 kcal/mol)

>  <smiles>  (79) 
O=Cc1c(O)c(=Cc2ccc(O)cc2)[nH]c1=CO

>  <score_type>  (79) 
oracle

>  <origin>  (79) 
adg

>  <m_score__min__energy>  (79) 
-11.970000000000001

>  <m_primary>  (79) 
energy

$$$$
79:0
     RDKit          3D

 45 47  0  0  0  0  0  0  0  0999 V2000
   56.2640   24.4590   44.4870 C   0  0  0  0  0  0  0  0  0  0  0  0
   55.3070   25.1060   45.8430 S   0  0  0  0  0  0  0  0  0  0  0  0
   53.8540   24.7780   45.6340 O   0  0  0  0  0  0  0  0  0  0  0  0
   55.7770   24.4630   47.1170 O   0  0  0  0  0  0  0  0  0  0  0  0
   55.5260   26.8240   45.9680 N   0  0  0  0  0  0  0  0  0  0  0  0
   56.9500   27.1510   45.9800 C   0  0  0  0  0  0  0  0  0  0  0  0
   57.1590   28.4620   45.2810 C   0  0  0  0  0  0  0  0  0  0  0  0
   56.0720   29.1440   44.7120 C   0  0  0  0  0  0  0  0  0  0  0  0
   56.2610   30.3830   44.0940 C   0  0  0  0  0  0  0  0  0  0  0  0
   57.5370   30.9720   44.0550 C   0  0  0  0  0  0  0  0  0  0  0  0
   57.7470   32.2860   43.4020 C   0  0  0  0  0  0  0  0  0  0  0  0
   57.9260   32.3330   42.1550 O   0  0  0  0  0  0  0  0  0  0  0  0
   57.7030   33.5180   44.1340 N   0  0  0  0  0  0  0  0  0  0  0  0
   58.4090   33.8060   45.3490 C   0  0  0  0  0  0  0  0  0  0  0  0
   59.2270   34.9440   45.4750 C   0  0  0  0  0  0  0  0  0  0  0  0
   59.8780   35.2100   46.6830 C   0  0  0  0  0  0  0  0  0  0  0  0
   59.7110   34.3550   47.7740 C   0  0  0  0  0  0  0  0  0  0  0  0
   58.8920   33.2210   47.6640 C   0  0  0  0  0  0  0  0  0  0  0  0
   58.6660   32.3320   48.8540 C   0  0  0  0  0  0  0  0  0  0  0  0
   59.2870   31.0300   48.6260 N   0  0  0  0  0  0  0  0  0  0  0  0
   58.8820   29.8460   49.1130 C   0  0  0  0  0  0  0  0  0  0  0  0
   59.6970   28.8720   48.5830 C   0  0  0  0  0  0  0  0  0  0  0  0
   60.6010   29.4380   47.7550 N   0  0  0  0  0  0  0  0  0  0  0  0
   60.3170   30.7560   47.8030 C   0  0  0  0  0  0  0  0  0  0  0  0
   58.2280   32.9650   46.4540 C   0  0  0  0  0  0  0  0  0  0  0  0
   58.6230   30.2870   44.6240 C   0  0  0  0  0  0  0  0  0  0  0  0
   58.4330   29.0480   45.2420 C   0  0  0  0  0  0  0  0  0  0  0  0
   57.1150   23.8837   44.8804 H   0  0  0  0  0  0  0  0  0  0  0  0
   55.6309   23.8028   43.8716 H   0  0  0  0  0  0  0  0  0  0  0  0
   56.6370   25.2910   43.8716 H   0  0  0  0  0  0  0  0  0  0  0  0
   57.3015   27.2278   47.0195 H   0  0  0  0  0  0  0  0  0  0  0  0
   57.5157   26.3615   45.4635 H   0  0  0  0  0  0  0  0  0  0  0  0
   55.0661   28.7008   44.7528 H   0  0  0  0  0  0  0  0  0  0  0  0
   55.4059   30.9008   43.6351 H   0  0  0  0  0  0  0  0  0  0  0  0
   59.3544   35.6257   44.6211 H   0  0  0  0  0  0  0  0  0  0  0  0
   60.5239   36.0957   46.7743 H   0  0  0  0  0  0  0  0  0  0  0  0
   60.2233   34.5711   48.7231 H   0  0  0  0  0  0  0  0  0  0  0  0
   59.1104   32.7969   49.7464 H   0  0  0  0  0  0  0  0  0  0  0  0
   57.5849   32.1965   49.0050 H   0  0  0  0  0  0  0  0  0  0  0  0
   58.0476   29.6836   49.8111 H   0  0  0  0  0  0  0  0  0  0  0  0
   59.6232   27.7963   48.8007 H   0  0  0  0  0  0  0  0  0  0  0  0
   60.8653   31.5210   47.2337 H   0  0  0  0  0  0  0  0  0  0  0  0
   57.5591   32.0955   46.3730 H   0  0  0  0  0  0  0  0  0  0  0  0
   59.6297   30.7285   44.5830 H   0  0  0  0  0  0  0  0  0  0  0  0
   59.2876   28.5291   45.7006 H   0  0  0  0  0  0  0  0  0  0  0  0
  1  2  1  0
  2  3  2  0
  2  4  2  0
  2  5  1  0
  5  6  1  0
  6  7  1  0
  7  8  2  0
  8  9  1  0
  9 10  2  0
 10 11  1  0
 11 12  2  0
 11 13  1  0
 13 14  1  0
 14 15  2  0
 15 16  1  0
 16 17  2  0
 17 18  1  0
 18 19  1  0
 19 20  1  0
 20 21  1  0
 21 22  2  0
 22 23  1  0
 23 24  2  0
 18 25  2  0
 10 26  1  0
 26 27  2  0
 27  7  1  0
 25 14  1  0
 24 20  1  0
  1 28  1  0
  1 29  1  0
  1 30  1  0
  6 31  1  0
  6 32  1  0
  8 33  1  0
  9 34  1  0
 15 35  1  0
 16 36  1  0
 17 37  1  0
 19 38  1  0
 19 39  1  0
 21 40  1  0
 22 41  1  0
 24 42  1  0
 25 43  1  0
 26 44  1  0
 27 45  1  0
M  CHG  2   5  -1  13  -1
M  END
>  <UniqueID>  (80) 
73

>  <SMILES>  (80) 
CS(=O)(=O)[N-]Cc1ccc(C(=O)[N-]c2cccc(Cn3ccnc3)c2)cc1

>  <Energy>  (80) 
74.46783544880752

>  <Genealogy>  (80) 
CS(=O)(=O)[N-]Cc1ccc(C(=O)[N-]c2cccc(Cn3ccnc3)c2)cc1 (protonated)
CS(=O)(=O)[N-]Cc1ccc(C(=O)[N-]c2cccc(Cn3ccnc3)c2)cc1 (3D coordinates assigned)
CS(=O)(=O)[N-]Cc1ccc(C(=O)[N-]c2cccc(Cn3ccnc3)c2)cc1 (optimized conformer: 74.46783544880752 kcal/mol)

>  <smiles>  (80) 
CS(=O)(=O)NCc1ccc(C(=O)Nc2cccc(Cn3ccnc3)c2)cc1

>  <score_type>  (80) 
oracle

>  <origin>  (80) 
adg

>  <m_score__min__energy>  (80) 
-11.630000000000001

>  <m_primary>  (80) 
energy

$$$$
80:0
     RDKit          3D

 57 59  0  0  0  0  0  0  0  0999 V2000
   59.6470   35.3440   47.0400 C   0  0  0  0  0  0  0  0  0  0  0  0
   58.9760   34.2330   46.2780 C   0  0  0  0  0  0  0  0  0  0  0  0
   58.4640   34.5220   44.9990 C   0  0  0  0  0  0  0  0  0  0  0  0
   57.8580   33.5300   44.2290 C   0  0  0  0  0  0  0  0  0  0  0  0
   57.7550   32.2270   44.7180 C   0  0  0  0  0  0  0  0  0  0  0  0
   56.9920   30.9680   43.7530 S   0  0  0  0  0  0  0  0  0  0  0  0
   55.5470   30.8450   44.1490 O   0  0  0  0  0  0  0  0  0  0  0  0
   57.0540   31.3130   42.2910 O   0  0  0  0  0  0  0  0  0  0  0  0
   57.7880   29.4570   44.0320 N   0  0  0  0  0  0  0  0  0  0  0  0
   57.3870   28.5510   45.0630 C   0  0  0  0  0  0  0  0  0  0  0  0
   56.1640   28.3450   45.2910 O   0  0  0  0  0  0  0  0  0  0  0  0
   58.4310   27.8910   45.9120 C   0  0  0  0  0  0  0  0  0  0  0  0
   58.5390   26.3950   45.6090 C   0  0  0  0  0  0  0  0  0  0  0  0
   57.2040   25.8230   45.4450 N   0  0  0  0  0  0  0  0  0  0  0  0
   56.7580   24.6810   46.1940 C   0  0  0  0  0  0  0  0  0  0  0  0
   57.5140   24.1690   47.0670 O   0  0  0  0  0  0  0  0  0  0  0  0
   55.4060   24.1140   45.9840 C   0  0  0  0  0  0  0  0  0  0  0  0
   55.2350   22.7170   46.0150 C   0  0  0  0  0  0  0  0  0  0  0  0
   53.9710   22.1500   45.8310 C   0  0  0  0  0  0  0  0  0  0  0  0
   52.8630   22.9690   45.6060 C   0  0  0  0  0  0  0  0  0  0  0  0
   53.0190   24.3560   45.5540 C   0  0  0  0  0  0  0  0  0  0  0  0
   54.2830   24.9330   45.7310 C   0  0  0  0  0  0  0  0  0  0  0  0
   54.4100   26.3140   45.6250 O   0  0  0  0  0  0  0  0  0  0  0  0
   58.2760   31.9190   45.9780 C   0  0  0  0  0  0  0  0  0  0  0  0
   58.8710   32.9070   46.7830 C   0  0  0  0  0  0  0  0  0  0  0  0
   59.4790   32.3980   48.3810 S   0  0  0  0  0  0  0  0  0  0  0  0
   58.9630   33.3740   49.4020 O   0  0  0  0  0  0  0  0  0  0  0  0
   58.9370   31.0480   48.7560 O   0  0  0  0  0  0  0  0  0  0  0  0
   61.2300   32.3820   48.4870 N   0  0  0  0  0  0  0  0  0  0  0  0
   61.8880   32.2150   47.1730 C   0  0  0  0  0  0  0  0  0  0  0  0
   62.5000   33.5340   46.6700 C   0  0  0  0  0  0  0  0  0  0  0  0
   63.4670   34.0800   47.5590 O   0  0  0  0  0  0  0  0  0  0  0  0
   63.2200   33.7880   48.9290 C   0  0  0  0  0  0  0  0  0  0  0  0
   61.7370   33.5410   49.2470 C   0  0  0  0  0  0  0  0  0  0  0  0
   59.5390   35.1652   48.1200 H   0  0  0  0  0  0  0  0  0  0  0  0
   60.7150   35.3751   46.7785 H   0  0  0  0  0  0  0  0  0  0  0  0
   59.1774   36.3037   46.7785 H   0  0  0  0  0  0  0  0  0  0  0  0
   58.5431   35.5446   44.6015 H   0  0  0  0  0  0  0  0  0  0  0  0
   57.4600   33.7752   43.2333 H   0  0  0  0  0  0  0  0  0  0  0  0
   59.4035   28.3662   45.7160 H   0  0  0  0  0  0  0  0  0  0  0  0
   58.1422   28.0088   46.9668 H   0  0  0  0  0  0  0  0  0  0  0  0
   59.1138   26.2511   44.6822 H   0  0  0  0  0  0  0  0  0  0  0  0
   59.0483   25.8922   46.4443 H   0  0  0  0  0  0  0  0  0  0  0  0
   56.5030   26.3840   44.9090 H   0  0  0  0  0  0  0  0  0  0  0  0
   56.1047   22.0654   46.1857 H   0  0  0  0  0  0  0  0  0  0  0  0
   53.8490   21.0573   45.8635 H   0  0  0  0  0  0  0  0  0  0  0  0
   51.8672   22.5220   45.4697 H   0  0  0  0  0  0  0  0  0  0  0  0
   52.1447   24.9985   45.3731 H   0  0  0  0  0  0  0  0  0  0  0  0
   58.2196   30.8843   46.3470 H   0  0  0  0  0  0  0  0  0  0  0  0
   62.6869   31.4647   47.2674 H   0  0  0  0  0  0  0  0  0  0  0  0
   61.1269   31.8921   46.4475 H   0  0  0  0  0  0  0  0  0  0  0  0
   62.9836   33.3470   45.6999 H   0  0  0  0  0  0  0  0  0  0  0  0
   61.6811   34.2641   46.5906 H   0  0  0  0  0  0  0  0  0  0  0  0
   63.7889   32.8865   49.2006 H   0  0  0  0  0  0  0  0  0  0  0  0
   63.5320   34.6695   49.5083 H   0  0  0  0  0  0  0  0  0  0  0  0
   61.6258   33.3443   50.3235 H   0  0  0  0  0  0  0  0  0  0  0  0
   61.1594   34.4327   48.9620 H   0  0  0  0  0  0  0  0  0  0  0  0
  1  2  1  0
  2  3  2  0
  3  4  1  0
  4  5  2  0
  5  6  1  0
  6  7  2  0
  6  8  2  0
  6  9  1  0
  9 10  1  0
 10 11  2  0
 10 12  1  0
 12 13  1  0
 13 14  1  0
 14 15  1  0
 15 16  2  0
 15 17  1  0
 17 18  2  0
 18 19  1  0
 19 20  2  0
 20 21  1  0
 21 22  2  0
 22 23  1  0
  5 24  1  0
 24 25  2  0
 25 26  1  0
 26 27  2  0
 26 28  2  0
 26 29  1  0
 29 30  1  0
 30 31  1  0
 31 32  1  0
 32 33  1  0
 33 34  1  0
 25  2  1  0
 34 29  1  0
 22 17  1  0
  1 35  1  0
  1 36  1  0
  1 37  1  0
  3 38  1  0
  4 39  1  0
 12 40  1  0
 12 41  1  0
 13 42  1  0
 13 43  1  0
 14 44  1  0
 18 45  1  0
 19 46  1  0
 20 47  1  0
 21 48  1  0
 24 49  1  0
 30 50  1  0
 30 51  1  0
 31 52  1  0
 31 53  1  0
 33 54  1  0
 33 55  1  0
 34 56  1  0
 34 57  1  0
M  CHG  2   9  -1  23  -1
M  END
>  <UniqueID>  (81) 
74

>  <SMILES>  (81) 
Cc1ccc(S(=O)(=O)[N-]C(=O)CCNC(=O)c2ccccc2[O-])cc1S(=O)(=O)N1CCOCC1

>  <Energy>  (81) 
77.36227078021363

>  <Genealogy>  (81) 
Cc1ccc(S(=O)(=O)[N-]C(=O)CCNC(=O)c2ccccc2[O-])cc1S(=O)(=O)N1CCOCC1 (protonated)
Cc1ccc(S(=O)(=O)[N-]C(=O)CCNC(=O)c2ccccc2[O-])cc1S(=O)(=O)N1CCOCC1 (3D coordinates assigned)
Cc1ccc(S(=O)(=O)[N-]C(=O)CCNC(=O)c2ccccc2[O-])cc1S(=O)(=O)N1CCOCC1 (nonaromatic ring conformer: 77.36227078021363 kcal/mol)

>  <smiles>  (81) 
Cc1ccc(S(=O)(=O)NC(=O)CCNC(=O)c2ccccc2O)cc1S(=O)(=O)N1CCOCC1

>  <score_type>  (81) 
oracle

>  <origin>  (81) 
adg

>  <m_score__min__energy>  (81) 
-15.4

>  <m_primary>  (81) 
energy

$$$$
81:0
     RDKit          3D

 55 58  0  0  1  0  0  0  0  0999 V2000
   57.0220   30.9840   42.6430 C   0  0  0  0  0  0  0  0  0  0  0  0
   57.4110   31.0640   43.8930 C   0  0  0  0  0  0  0  0  0  0  0  0
   57.3860   30.1500   44.9160 C   0  0  0  0  0  0  0  0  0  0  0  0
   56.9320   28.9230   44.8380 C   0  0  0  0  0  0  0  0  0  0  0  0
   57.3460   27.8050   45.6590 C   0  0  0  0  0  0  0  0  0  0  0  0
   58.6300   27.5850   46.0820 N   0  0  0  0  0  0  0  0  0  0  0  0
   58.6220   26.4830   46.8530 C   0  0  0  0  0  0  0  0  0  0  0  0
   59.6700   26.0070   47.4070 O   0  0  0  0  0  0  0  0  0  0  0  0
   57.3630   26.0240   46.9100 N   0  0  0  0  0  0  0  0  0  0  0  0
   56.5320   26.7960   46.1940 C   0  0  0  0  0  0  0  0  0  0  0  0
   55.1610   26.6650   45.9970 O   0  0  0  0  0  0  0  0  0  0  0  0
   57.9190   30.7010   46.0780 C   0  0  0  0  0  0  0  0  0  0  0  0
   58.2700   31.9840   45.7240 C   0  0  0  0  0  0  0  0  0  0  0  0
   58.8830   32.9550   46.6120 C   0  0  0  0  0  0  0  0  0  0  0  0
   58.2380   34.0200   46.8180 O   0  0  0  0  0  0  0  0  0  0  0  0
   60.1250   32.8030   47.2540 N   0  0  0  0  0  0  0  0  0  0  0  0
   60.9960   31.6400   47.1180 C   0  0  0  0  0  0  0  0  0  0  0  0
   62.4050   31.9760   47.5610 C   0  0  0  0  0  0  0  0  0  0  0  0
   62.4620   32.4910   48.9160 N   0  0  0  0  0  0  0  0  0  0  0  0
   62.9870   31.5230   49.8400 C   0  0  0  0  0  0  0  0  0  0  0  0
   61.8850   31.0570   50.7520 C   0  0  0  0  0  0  0  0  0  0  0  0
   60.9870   30.0930   50.1140 C   0  0  0  0  0  0  0  0  0  0  0  0
   61.2530   28.7220   50.0750 C   0  0  0  0  0  0  0  0  0  0  0  0
   60.2690   28.0890   49.4320 N   0  0  0  0  0  0  0  0  0  0  0  0
   59.3860   29.0380   49.0640 C   0  0  0  0  0  0  0  0  0  0  0  0
   59.8180   30.2230   49.4720 N   0  0  0  0  0  0  0  0  0  0  0  0
   61.1840   33.0260   49.3410 C   0  0  0  0  0  0  0  0  0  0  0  0
   60.6510   33.8450   48.1520 C   0  0  0  0  0  0  0  0  0  0  0  0
   57.9630   32.1810   44.4360 N   0  0  0  0  0  0  0  0  0  0  0  0
   58.2110   33.4440   43.7490 C   0  0  0  0  0  0  0  0  0  0  0  0
   57.1334   31.8514   41.9757 H   0  0  0  0  0  0  0  0  0  0  0  0
   56.5844   30.0495   42.2619 H   0  0  0  0  0  0  0  0  0  0  0  0
   56.1636   28.7239   44.0765 H   0  0  0  0  0  0  0  0  0  0  0  0
   59.4660   28.1940   45.8340 H   0  0  0  0  0  0  0  0  0  0  0  0
   57.0540   25.1600   47.4470 H   0  0  0  0  0  0  0  0  0  0  0  0
   54.6540   25.8800   46.3870 H   0  0  0  0  0  0  0  0  0  0  0  0
   58.0340   30.2187   47.0599 H   0  0  0  0  0  0  0  0  0  0  0  0
   60.6064   30.8215   47.7411 H   0  0  0  0  0  0  0  0  0  0  0  0
   61.0191   31.3352   46.0613 H   0  0  0  0  0  0  0  0  0  0  0  0
   63.0174   31.0639   47.5059 H   0  0  0  0  0  0  0  0  0  0  0  0
   62.7830   32.7632   46.8920 H   0  0  0  0  0  0  0  0  0  0  0  0
   63.3906   30.6646   49.2830 H   0  0  0  0  0  0  0  0  0  0  0  0
   63.7899   31.9808   50.4365 H   0  0  0  0  0  0  0  0  0  0  0  0
   62.3375   30.5835   51.6358 H   0  0  0  0  0  0  0  0  0  0  0  0
   61.2850   31.9385   51.0219 H   0  0  0  0  0  0  0  0  0  0  0  0
   62.1399   28.2370   50.5089 H   0  0  0  0  0  0  0  0  0  0  0  0
   60.1320   27.0770   49.2160 H   0  0  0  0  0  0  0  0  0  0  0  0
   58.4523   28.8575   48.5112 H   0  0  0  0  0  0  0  0  0  0  0  0
   60.4892   32.2086   49.5843 H   0  0  0  0  0  0  0  0  0  0  0  0
   61.2867   33.6460   50.2438 H   0  0  0  0  0  0  0  0  0  0  0  0
   59.8548   34.5343   48.4698 H   0  0  0  0  0  0  0  0  0  0  0  0
   61.4147   34.4824   47.6825 H   0  0  0  0  0  0  0  0  0  0  0  0
   58.3674   34.2406   44.4913 H   0  0  0  0  0  0  0  0  0  0  0  0
   59.1076   33.3488   43.1189 H   0  0  0  0  0  0  0  0  0  0  0  0
   57.3450   33.6949   43.1189 H   0  0  0  0  0  0  0  0  0  0  0  0
  1  2  2  0
  2  3  1  0
  3  4  2  0
  4  5  1  0
  5  6  1  0
  6  7  1  0
  7  8  2  0
  7  9  1  0
  9 10  1  0
 10 11  1  0
  3 12  1  0
 12 13  2  0
 13 14  1  0
 14 15  2  0
 14 16  1  0
 16 17  1  0
 17 18  1  0
 18 19  1  0
 19 20  1  0
 20 21  1  0
 21 22  1  0
 22 23  2  0
 23 24  1  0
 24 25  1  0
 25 26  2  0
 19 27  1  0
 27 28  1  0
 13 29  1  0
 29 30  1  0
 29  2  1  0
 10  5  2  0
 28 16  1  0
 26 22  1  0
  1 31  1  0
  1 32  1  0
  4 33  1  0
  6 34  1  0
  9 35  1  0
 11 36  1  0
 12 37  1  0
 17 38  1  0
 17 39  1  0
 18 40  1  0
 18 41  1  0
 20 42  1  0
 20 43  1  0
 21 44  1  0
 21 45  1  0
 23 46  1  0
 24 47  1  0
 25 48  1  0
 27 49  1  0
 27 50  1  0
 28 51  1  0
 28 52  1  0
 30 53  1  0
 30 54  1  0
 30 55  1  0
M  END
>  <smiles>  (82) 
C=c1c(=Cc2[nH]c(=O)[nH]c2O)cc(C(=O)N2CCN(CCc3c[nH]cn3)CC2)n1C

>  <score_type>  (82) 
oracle

>  <origin>  (82) 
adg

>  <m_score__min__energy>  (82) 
-9.6099999999999994

>  <m_primary>  (82) 
energy

$$$$
82:0
     RDKit          3D

 50 52  0  0  0  0  0  0  0  0999 V2000
   56.5730   30.0030   52.3630 C   0  0  0  0  0  0  0  0  0  0  0  0
   57.7510   29.6420   51.6480 O   0  0  0  0  0  0  0  0  0  0  0  0
   58.3450   30.4300   50.6520 C   0  0  0  0  0  0  0  0  0  0  0  0
   58.6490   31.7640   50.9510 C   0  0  0  0  0  0  0  0  0  0  0  0
   59.2410   32.5900   49.9910 C   0  0  0  0  0  0  0  0  0  0  0  0
   59.5400   32.0900   48.7190 C   0  0  0  0  0  0  0  0  0  0  0  0
   60.2690   33.1470   47.5120 S   0  0  0  0  0  0  0  0  0  0  0  0
   61.5440   33.7100   48.0750 O   0  0  0  0  0  0  0  0  0  0  0  0
   60.6000   32.3500   46.2800 O   0  0  0  0  0  0  0  0  0  0  0  0
   59.1500   34.4410   47.1260 N   0  0  0  0  0  0  0  0  0  0  0  0
   57.7460   33.9440   47.0700 C   0  0  0  0  0  0  0  0  0  0  0  0
   57.1850   33.8180   45.6420 C   0  0  0  0  0  0  0  0  0  0  0  0
   58.2550   33.4490   44.7120 N   0  0  0  0  0  0  0  0  0  0  0  0
   58.1600   32.3080   43.8420 C   0  0  0  0  0  0  0  0  0  0  0  0
   58.5510   32.4160   42.6480 O   0  0  0  0  0  0  0  0  0  0  0  0
   57.6320   31.0140   44.3390 C   0  0  0  0  0  0  0  0  0  0  0  0
   58.3260   29.8650   44.3820 C   0  0  0  0  0  0  0  0  0  0  0  0
   57.9470   28.6670   45.1600 C   0  0  0  0  0  0  0  0  0  0  0  0
   58.9500   27.8940   45.7640 C   0  0  0  0  0  0  0  0  0  0  0  0
   58.6170   26.7320   46.4660 C   0  0  0  0  0  0  0  0  0  0  0  0
   57.2840   26.3220   46.5510 C   0  0  0  0  0  0  0  0  0  0  0  0
   56.2810   27.0690   45.9260 C   0  0  0  0  0  0  0  0  0  0  0  0
   54.9570   26.6510   45.9970 O   0  0  0  0  0  0  0  0  0  0  0  0
   56.6110   28.2320   45.2240 C   0  0  0  0  0  0  0  0  0  0  0  0
   59.4420   34.3050   44.6410 C   0  0  0  0  0  0  0  0  0  0  0  0
   59.5670   35.1710   45.9060 C   0  0  0  0  0  0  0  0  0  0  0  0
   59.2350   30.7570   48.4110 C   0  0  0  0  0  0  0  0  0  0  0  0
   58.6430   29.9290   49.3700 C   0  0  0  0  0  0  0  0  0  0  0  0
   56.7675   29.9434   53.4440 H   0  0  0  0  0  0  0  0  0  0  0  0
   56.2841   31.0309   52.0985 H   0  0  0  0  0  0  0  0  0  0  0  0
   55.7578   29.3135   52.0985 H   0  0  0  0  0  0  0  0  0  0  0  0
   58.4201   32.1651   51.9494 H   0  0  0  0  0  0  0  0  0  0  0  0
   59.4726   33.6369   50.2366 H   0  0  0  0  0  0  0  0  0  0  0  0
   59.2160   35.1200   47.9210 H   0  0  0  0  0  0  0  0  0  0  0  0
   57.7105   32.9523   47.5447 H   0  0  0  0  0  0  0  0  0  0  0  0
   57.1240   34.6853   47.5930 H   0  0  0  0  0  0  0  0  0  0  0  0
   56.4045   33.0431   45.6247 H   0  0  0  0  0  0  0  0  0  0  0  0
   56.7590   34.7848   45.3357 H   0  0  0  0  0  0  0  0  0  0  0  0
   56.5930   30.9940   44.6998 H   0  0  0  0  0  0  0  0  0  0  0  0
   59.2516   29.8112   43.7901 H   0  0  0  0  0  0  0  0  0  0  0  0
   60.0026   28.2036   45.6848 H   0  0  0  0  0  0  0  0  0  0  0  0
   59.4058   26.1393   46.9524 H   0  0  0  0  0  0  0  0  0  0  0  0
   57.0236   25.4111   47.1099 H   0  0  0  0  0  0  0  0  0  0  0  0
   55.8223   28.8094   44.7195 H   0  0  0  0  0  0  0  0  0  0  0  0
   60.3373   33.6730   44.5466 H   0  0  0  0  0  0  0  0  0  0  0  0
   59.3474   34.9675   43.7680 H   0  0  0  0  0  0  0  0  0  0  0  0
   60.6158   35.4823   46.0203 H   0  0  0  0  0  0  0  0  0  0  0  0
   58.9028   36.0398   45.7881 H   0  0  0  0  0  0  0  0  0  0  0  0
   59.4623   30.3604   47.4105 H   0  0  0  0  0  0  0  0  0  0  0  0
   58.4094   28.8831   49.1222 H   0  0  0  0  0  0  0  0  0  0  0  0
  1  2  1  0
  2  3  1  0
  3  4  2  0
  4  5  1  0
  5  6  2  0
  6  7  1  0
  7  8  2  0
  7  9  2  0
  7 10  1  0
 10 11  1  0
 11 12  1  0
 12 13  1  0
 13 14  1  0
 14 15  2  0
 14 16  1  0
 16 17  2  3
 17 18  1  0
 18 19  2  0
 19 20  1  0
 20 21  2  0
 21 22  1  0
 22 23  1  0
 22 24  2  0
 13 25  1  0
 25 26  1  0
  6 27  1  0
 27 28  2  0
 28  3  1  0
 26 10  1  0
 24 18  1  0
  1 29  1  0
  1 30  1  0
  1 31  1  0
  4 32  1  0
  5 33  1  0
 10 34  1  0
 11 35  1  0
 11 36  1  0
 12 37  1  0
 12 38  1  0
 16 39  1  0
 17 40  1  0
 19 41  1  0
 20 42  1  0
 21 43  1  0
 24 44  1  0
 25 45  1  0
 25 46  1  0
 26 47  1  0
 26 48  1  0
 27 49  1  0
 28 50  1  0
M  CHG  2  10   1  23  -1
M  END
>  <UniqueID>  (83) 
75

>  <SMILES>  (83) 
COc1ccc(S(=O)(=O)[NH+]2CCN(C(=O)C=Cc3cccc([O-])c3)CC2)cc1

>  <Energy>  (83) 
68.01492376495239

>  <Genealogy>  (83) 
COc1ccc(S(=O)(=O)[NH+]2CCN(C(=O)C=Cc3cccc([O-])c3)CC2)cc1 (protonated)
COc1ccc(S(=O)(=O)[NH+]2CCN(C(=O)C=Cc3cccc([O-])c3)CC2)cc1 (3D coordinates assigned)
COc1ccc(S(=O)(=O)[NH+]2CCN(C(=O)C=Cc3cccc([O-])c3)CC2)cc1 (nonaromatic ring conformer: 68.01492376495239 kcal/mol)

>  <smiles>  (83) 
COc1ccc(S(=O)(=O)N2CCN(C(=O)C=Cc3cccc(O)c3)CC2)cc1

>  <score_type>  (83) 
oracle

>  <origin>  (83) 
adg

>  <m_score__min__energy>  (83) 
-10.93

>  <m_primary>  (83) 
energy

$$$$
83:0
     RDKit          3D

 57 61  0  0  0  0  0  0  0  0999 V2000
   59.6810   23.6640   45.9850 O   0  0  0  0  0  0  0  0  0  0  0  0
   58.9760   24.6940   45.8200 C   0  0  0  0  0  0  0  0  0  0  0  0
   59.5580   25.9800   46.0790 N   0  0  0  0  0  0  0  0  0  0  0  0
   59.0720   27.2530   45.5490 C   0  0  0  0  0  0  0  0  0  0  0  0
   59.6820   28.4070   46.3010 C   0  0  0  0  0  0  0  0  0  0  0  0
   60.7300   29.1430   45.7300 C   0  0  0  0  0  0  0  0  0  0  0  0
   61.3270   30.1860   46.4420 C   0  0  0  0  0  0  0  0  0  0  0  0
   60.8960   30.4920   47.7340 C   0  0  0  0  0  0  0  0  0  0  0  0
   59.8630   29.7500   48.3290 C   0  0  0  0  0  0  0  0  0  0  0  0
   59.3810   30.0950   49.7110 C   0  0  0  0  0  0  0  0  0  0  0  0
   58.5430   31.2860   49.6580 N   0  0  0  0  0  0  0  0  0  0  0  0
   59.0600   32.6200   49.6760 C   0  0  0  0  0  0  0  0  0  0  0  0
   58.8720   33.3680   50.6730 O   0  0  0  0  0  0  0  0  0  0  0  0
   59.8250   33.1210   48.5160 C   0  0  0  0  0  0  0  0  0  0  0  0
   59.1550   33.4730   47.3140 C   0  0  0  0  0  0  0  0  0  0  0  0
   57.7510   33.3700   47.1830 C   0  0  0  0  0  0  0  0  0  0  0  0
   57.1180   33.7280   45.9900 C   0  0  0  0  0  0  0  0  0  0  0  0
   57.8650   34.1970   44.9110 C   0  0  0  0  0  0  0  0  0  0  0  0
   59.2500   34.3160   45.0190 C   0  0  0  0  0  0  0  0  0  0  0  0
   59.9030   33.9610   46.2110 C   0  0  0  0  0  0  0  0  0  0  0  0
   61.2910   34.0990   46.3090 C   0  0  0  0  0  0  0  0  0  0  0  0
   61.9610   33.7530   47.4860 C   0  0  0  0  0  0  0  0  0  0  0  0
   63.3570   33.8920   47.5590 C   0  0  0  0  0  0  0  0  0  0  0  0
   64.0410   33.5350   48.7210 C   0  0  0  0  0  0  0  0  0  0  0  0
   63.3430   33.0330   49.8170 C   0  0  0  0  0  0  0  0  0  0  0  0
   61.9550   32.8910   49.7610 C   0  0  0  0  0  0  0  0  0  0  0  0
   61.2360   33.2570   48.6000 C   0  0  0  0  0  0  0  0  0  0  0  0
   59.2440   28.7260   47.5970 C   0  0  0  0  0  0  0  0  0  0  0  0
   57.5720   24.5430   45.4040 C   0  0  0  0  0  0  0  0  0  0  0  0
   57.2030   23.4900   44.5540 C   0  0  0  0  0  0  0  0  0  0  0  0
   55.8630   23.3030   44.2020 C   0  0  0  0  0  0  0  0  0  0  0  0
   55.5150   22.2360   43.3810 O   0  0  0  0  0  0  0  0  0  0  0  0
   54.8800   24.1840   44.6820 C   0  0  0  0  0  0  0  0  0  0  0  0
   53.5360   24.0090   44.3530 O   0  0  0  0  0  0  0  0  0  0  0  0
   55.2510   25.2550   45.5060 C   0  0  0  0  0  0  0  0  0  0  0  0
   54.2880   26.1390   45.9770 O   0  0  0  0  0  0  0  0  0  0  0  0
   56.5920   25.4370   45.8600 C   0  0  0  0  0  0  0  0  0  0  0  0
   59.3442   27.3297   44.4860 H   0  0  0  0  0  0  0  0  0  0  0  0
   57.9788   27.2917   45.6652 H   0  0  0  0  0  0  0  0  0  0  0  0
   61.0834   28.8981   44.7175 H   0  0  0  0  0  0  0  0  0  0  0  0
   62.1396   30.7683   45.9830 H   0  0  0  0  0  0  0  0  0  0  0  0
   61.3673   31.3173   48.2879 H   0  0  0  0  0  0  0  0  0  0  0  0
   58.7966   29.2549   50.1144 H   0  0  0  0  0  0  0  0  0  0  0  0
   60.2475   30.2890   50.3602 H   0  0  0  0  0  0  0  0  0  0  0  0
   57.1508   33.0042   48.0291 H   0  0  0  0  0  0  0  0  0  0  0  0
   56.0251   33.6393   45.9020 H   0  0  0  0  0  0  0  0  0  0  0  0
   57.3613   34.4736   43.9730 H   0  0  0  0  0  0  0  0  0  0  0  0
   59.8348   34.6901   44.1657 H   0  0  0  0  0  0  0  0  0  0  0  0
   61.8616   34.4839   45.4509 H   0  0  0  0  0  0  0  0  0  0  0  0
   63.9136   34.2845   46.6952 H   0  0  0  0  0  0  0  0  0  0  0  0
   65.1338   33.6501   48.7720 H   0  0  0  0  0  0  0  0  0  0  0  0
   63.8869   32.7475   50.7295 H   0  0  0  0  0  0  0  0  0  0  0  0
   61.4144   32.4895   50.6308 H   0  0  0  0  0  0  0  0  0  0  0  0
   58.4075   28.1674   48.0421 H   0  0  0  0  0  0  0  0  0  0  0  0
   57.9719   22.8078   44.1624 H   0  0  0  0  0  0  0  0  0  0  0  0
   52.8410   24.7280   44.5230 H   0  0  0  0  0  0  0  0  0  0  0  0
   56.8793   26.2851   46.4989 H   0  0  0  0  0  0  0  0  0  0  0  0
  1  2  2  0
  2  3  1  0
  3  4  1  0
  4  5  1  0
  5  6  2  0
  6  7  1  0
  7  8  2  0
  8  9  1  0
  9 10  1  0
 10 11  1  0
 11 12  1  0
 12 13  2  0
 12 14  1  0
 14 15  1  0
 15 16  2  0
 16 17  1  0
 17 18  2  0
 18 19  1  0
 19 20  2  0
 20 21  1  0
 21 22  2  0
 22 23  1  0
 23 24  2  0
 24 25  1  0
 25 26  2  0
 26 27  1  0
  9 28  2  0
  2 29  1  0
 29 30  2  0
 30 31  1  0
 31 32  1  0
 31 33  2  0
 33 34  1  0
 33 35  1  0
 35 36  1  0
 35 37  2  0
 28  5  1  0
 37 29  1  0
 27 14  2  0
 20 15  1  0
 27 22  1  0
  4 38  1  0
  4 39  1  0
  6 40  1  0
  7 41  1  0
  8 42  1  0
 10 43  1  0
 10 44  1  0
 16 45  1  0
 17 46  1  0
 18 47  1  0
 19 48  1  0
 21 49  1  0
 23 50  1  0
 24 51  1  0
 25 52  1  0
 26 53  1  0
 28 54  1  0
 30 55  1  0
 34 56  1  0
 37 57  1  0
M  CHG  4   3  -1  11  -1  32  -1  36  -1
M  END
>  <UniqueID>  (84) 
76

>  <SMILES>  (84) 
O=C([N-]Cc1cccc(C[N-]C(=O)c2c3ccccc3cc3ccccc23)c1)c1cc([O-])c(O)c([O-])c1

>  <Energy>  (84) 
79.6809714571944

>  <Genealogy>  (84) 
O=C([N-]Cc1cccc(C[N-]C(=O)c2c3ccccc3cc3ccccc23)c1)c1cc([O-])c(O)c([O-])c1 (protonated)
O=C([N-]Cc1cccc(C[N-]C(=O)c2c3ccccc3cc3ccccc23)c1)c1cc([O-])c(O)c([O-])c1 (3D coordinates assigned)
O=C([N-]Cc1cccc(C[N-]C(=O)c2c3ccccc3cc3ccccc23)c1)c1cc([O-])c(O)c([O-])c1 (optimized conformer: 79.6809714571944 kcal/mol)

>  <smiles>  (84) 
O=C(NCc1cccc(CNC(=O)c2c3ccccc3cc3ccccc23)c1)c1cc(O)c(O)c(O)c1

>  <score_type>  (84) 
oracle

>  <origin>  (84) 
adg

>  <m_score__min__energy>  (84) 
-20.050000000000001

>  <m_primary>  (84) 
energy

$$$$
84:0
     RDKit          3D

 45 47  0  0  0  0  0  0  0  0999 V2000
   59.2194   35.7636   45.4378 H   0  0  0  0  0  0  0  0  0  0  0  0
   58.9460   34.8380   44.9100 C   0  0  0  0  0  0  0  0  0  0  0  0
   59.6114   34.4296   44.1351 H   0  0  0  0  0  0  0  0  0  0  0  0
   57.8060   34.2100   45.2100 C   0  0  0  0  0  0  0  0  0  0  0  0
   57.1495   34.6290   45.9869 H   0  0  0  0  0  0  0  0  0  0  0  0
   57.4010   32.9460   44.5110 C   0  0  0  0  0  0  0  0  0  0  0  0
   56.4062   33.0787   44.0608 H   0  0  0  0  0  0  0  0  0  0  0  0
   58.1323   32.7127   43.7231 H   0  0  0  0  0  0  0  0  0  0  0  0
   57.3570   31.8510   45.4720 N   0  0  0  0  0  0  0  0  0  0  0  0
   58.3880   31.2860   46.0270 C   0  0  0  0  0  0  0  0  0  0  0  0
   59.3630   30.1230   45.0730 S   0  0  0  0  0  0  0  0  0  0  0  0
   59.4100   29.1070   46.5540 C   0  0  0  0  0  0  0  0  0  0  0  0
   59.5650   27.7740   46.5710 C   0  0  0  0  0  0  0  0  0  0  0  0
   60.5705   27.3740   46.7683 H   0  0  0  0  0  0  0  0  0  0  0  0
   58.4680   26.8100   46.3410 C   0  0  0  0  0  0  0  0  0  0  0  0
   58.7830   25.4660   46.0860 C   0  0  0  0  0  0  0  0  0  0  0  0
   59.8340   25.1414   46.0845 H   0  0  0  0  0  0  0  0  0  0  0  0
   57.7690   24.5380   45.8340 C   0  0  0  0  0  0  0  0  0  0  0  0
   58.0230   23.4838   45.6495 H   0  0  0  0  0  0  0  0  0  0  0  0
   56.4330   24.9470   45.8160 C   0  0  0  0  0  0  0  0  0  0  0  0
   55.6355   24.2131   45.6281 H   0  0  0  0  0  0  0  0  0  0  0  0
   56.1100   26.2900   46.0370 C   0  0  0  0  0  0  0  0  0  0  0  0
   54.7840   26.6990   45.9980 O   0  0  0  0  0  0  0  0  0  0  0  0
   57.1230   27.2200   46.2910 C   0  0  0  0  0  0  0  0  0  0  0  0
   56.8670   28.2775   46.4525 H   0  0  0  0  0  0  0  0  0  0  0  0
   59.0570   29.8860   47.7380 C   0  0  0  0  0  0  0  0  0  0  0  0
   59.1800   29.4490   48.9130 O   0  0  0  0  0  0  0  0  0  0  0  0
   58.5460   31.1860   47.4500 N   0  0  0  0  0  0  0  0  0  0  0  0
   58.9210   32.3490   48.2670 C   0  0  0  0  0  0  0  0  0  0  0  0
   58.3499   33.2248   47.9253 H   0  0  0  0  0  0  0  0  0  0  0  0
   58.6943   32.1193   49.3186 H   0  0  0  0  0  0  0  0  0  0  0  0
   60.3940   32.6510   48.1560 C   0  0  0  0  0  0  0  0  0  0  0  0
   60.8640   33.5390   47.1770 C   0  0  0  0  0  0  0  0  0  0  0  0
   60.1552   34.0074   46.4783 H   0  0  0  0  0  0  0  0  0  0  0  0
   62.2260   33.8320   47.0840 C   0  0  0  0  0  0  0  0  0  0  0  0
   62.5844   34.5323   46.3151 H   0  0  0  0  0  0  0  0  0  0  0  0
   63.1360   33.2390   47.9640 C   0  0  0  0  0  0  0  0  0  0  0  0
   64.4880   33.5460   47.8570 O   0  0  0  0  0  0  0  0  0  0  0  0
   62.6830   32.3410   48.9460 C   0  0  0  0  0  0  0  0  0  0  0  0
   63.6570   31.7050   49.8970 C   0  0  0  0  0  0  0  0  0  0  0  0
   63.3451   31.9087   50.9320 H   0  0  0  0  0  0  0  0  0  0  0  0
   63.6784   30.6183   49.7276 H   0  0  0  0  0  0  0  0  0  0  0  0
   64.6606   32.1224   49.7276 H   0  0  0  0  0  0  0  0  0  0  0  0
   61.3110   32.0510   49.0360 C   0  0  0  0  0  0  0  0  0  0  0  0
   60.9515   31.3481   49.8020 H   0  0  0  0  0  0  0  0  0  0  0  0
  1  2  1  0
  2  3  1  0
  2  4  2  0
  4  5  1  0
  4  6  1  0
  6  7  1  0
  6  8  1  0
  6  9  1  0
  9 10  2  0
 10 11  1  0
 11 12  1  0
 12 13  2  3
 13 14  1  0
 13 15  1  0
 15 16  2  0
 16 17  1  0
 16 18  1  0
 18 19  1  0
 18 20  2  0
 20 21  1  0
 20 22  1  0
 22 23  1  0
 22 24  2  0
 24 25  1  0
 12 26  1  0
 26 27  2  0
 26 28  1  0
 28 29  1  0
 29 30  1  0
 29 31  1  0
 29 32  1  0
 32 33  2  0
 33 34  1  0
 33 35  1  0
 35 36  1  0
 35 37  2  0
 37 38  1  0
 37 39  1  0
 39 40  1  0
 40 41  1  0
 40 42  1  0
 40 43  1  0
 39 44  2  0
 44 45  1  0
 28 10  1  0
 44 32  1  0
 24 15  1  0
M  CHG  2  23  -1  38  -1
M  END
>  <UniqueID>  (85) 
77

>  <SMILES>  (85) 
C=CC/N=C1/SC(=Cc2cccc([O-])c2)C(=O)N1Cc1ccc([O-])c(C)c1

>  <Energy>  (85) 
74.37467100123787

>  <Genealogy>  (85) 
C=CCN=C1SC(=Cc2cccc([O-])c2)C(=O)N1Cc1ccc([O-])c(C)c1 (protonated)
C=CC/N=C1/SC(=Cc2cccc([O-])c2)C(=O)N1Cc1ccc([O-])c(C)c1 (cis-trans isomerization)
C=CC/N=C1/SC(=Cc2cccc([O-])c2)C(=O)N1Cc1ccc([O-])c(C)c1 (3D coordinates assigned)
C=CC/N=C1/SC(=Cc2cccc([O-])c2)C(=O)N1Cc1ccc([O-])c(C)c1 (nonaromatic ring conformer: 74.37467100123787 kcal/mol)

>  <smiles>  (85) 
C=CCN=C1SC(=Cc2cccc(O)c2)C(=O)N1Cc1ccc(O)c(C)c1

>  <score_type>  (85) 
oracle

>  <origin>  (85) 
adg

>  <m_score__min__energy>  (85) 
-12.98

>  <m_primary>  (85) 
energy

$$$$
85:0
     RDKit          3D

 56 58  0  0  0  0  0  0  0  0999 V2000
   67.4120   36.2500   52.1530 C   0  0  0  0  0  0  0  0  0  0  0  0
   68.1300   35.2050   51.7430 C   0  0  0  0  0  0  0  0  0  0  0  0
   67.5510   34.1110   50.9400 C   0  0  0  0  0  0  0  0  0  0  0  0
   68.3060   33.3390   50.2850 O   0  0  0  0  0  0  0  0  0  0  0  0
   66.1250   33.9430   50.8970 N   0  0  0  0  0  0  0  0  0  0  0  0
   65.4730   32.8450   50.2340 C   0  0  0  0  0  0  0  0  0  0  0  0
   66.1380   31.8270   49.9010 O   0  0  0  0  0  0  0  0  0  0  0  0
   64.0140   32.8760   49.9630 C   0  0  0  0  0  0  0  0  0  0  0  0
   63.1690   33.7740   50.6370 C   0  0  0  0  0  0  0  0  0  0  0  0
   61.7990   33.8020   50.3600 C   0  0  0  0  0  0  0  0  0  0  0  0
   61.2490   32.9570   49.3810 C   0  0  0  0  0  0  0  0  0  0  0  0
   59.7620   32.9910   49.0930 C   0  0  0  0  0  0  0  0  0  0  0  0
   59.3550   33.5120   47.7500 N   0  0  2  0  0  0  0  0  0  0  0  0
   60.0800   34.7240   47.2930 C   0  0  0  0  0  0  0  0  0  0  0  0
   59.5900   35.3400   45.9710 C   0  0  0  0  0  0  0  0  0  0  0  0
   59.4940   34.3870   44.7640 C   0  0  0  0  0  0  0  0  0  0  0  0
   58.7840   33.1300   45.0920 N   0  0  0  0  0  0  0  0  0  0  0  0
   58.4340   32.3880   43.8590 C   0  0  0  0  0  0  0  0  0  0  0  0
   57.9790   30.9900   44.1940 C   0  0  0  0  0  0  0  0  0  0  0  0
   58.9210   30.0130   44.5560 C   0  0  0  0  0  0  0  0  0  0  0  0
   58.5060   28.7130   44.8610 C   0  0  0  0  0  0  0  0  0  0  0  0
   57.1500   28.3810   44.8110 C   0  0  0  0  0  0  0  0  0  0  0  0
   56.2040   29.3480   44.4540 C   0  0  0  0  0  0  0  0  0  0  0  0
   54.8560   29.0160   44.4050 O   0  0  0  0  0  0  0  0  0  0  0  0
   56.6160   30.6500   44.1480 C   0  0  0  0  0  0  0  0  0  0  0  0
   57.5770   33.4170   45.8980 C   0  0  0  0  0  0  0  0  0  0  0  0
   57.9110   33.5040   47.3970 C   0  0  0  0  0  0  0  0  0  0  0  0
   62.0880   32.0330   48.7380 C   0  0  0  0  0  0  0  0  0  0  0  0
   63.4570   32.0050   49.0110 C   0  0  0  0  0  0  0  0  0  0  0  0
   67.8861   37.0428   52.7502 H   0  0  0  0  0  0  0  0  0  0  0  0
   66.3452   36.3199   51.8942 H   0  0  0  0  0  0  0  0  0  0  0  0
   69.1951   35.1561   52.0136 H   0  0  0  0  0  0  0  0  0  0  0  0
   65.5390   34.6370   51.4110 H   0  0  0  0  0  0  0  0  0  0  0  0
   63.5885   34.4598   51.3879 H   0  0  0  0  0  0  0  0  0  0  0  0
   61.1453   34.4920   50.9136 H   0  0  0  0  0  0  0  0  0  0  0  0
   59.3803   31.9633   49.1828 H   0  0  0  0  0  0  0  0  0  0  0  0
   59.3399   33.6995   49.8210 H   0  0  0  0  0  0  0  0  0  0  0  0
   59.7340   32.7820   47.0980 H   0  0  0  0  0  0  0  0  0  0  0  0
   59.9853   35.4894   48.0773 H   0  0  0  0  0  0  0  0  0  0  0  0
   61.1144   34.4000   47.1058 H   0  0  0  0  0  0  0  0  0  0  0  0
   58.5879   35.7578   46.1478 H   0  0  0  0  0  0  0  0  0  0  0  0
   60.3522   36.0838   45.6955 H   0  0  0  0  0  0  0  0  0  0  0  0
   58.9529   34.8971   43.9534 H   0  0  0  0  0  0  0  0  0  0  0  0
   60.5186   34.1243   44.4620 H   0  0  0  0  0  0  0  0  0  0  0  0
   57.6234   32.9168   43.3363 H   0  0  0  0  0  0  0  0  0  0  0  0
   59.3244   32.3274   43.2159 H   0  0  0  0  0  0  0  0  0  0  0  0
   59.9893   30.2715   44.5997 H   0  0  0  0  0  0  0  0  0  0  0  0
   59.2482   27.9508   45.1407 H   0  0  0  0  0  0  0  0  0  0  0  0
   56.8256   27.3581   45.0526 H   0  0  0  0  0  0  0  0  0  0  0  0
   55.8706   31.4098   43.8705 H   0  0  0  0  0  0  0  0  0  0  0  0
   57.1476   34.3754   45.5707 H   0  0  0  0  0  0  0  0  0  0  0  0
   56.8589   32.5969   45.7503 H   0  0  0  0  0  0  0  0  0  0  0  0
   57.4655   34.4313   47.7865 H   0  0  0  0  0  0  0  0  0  0  0  0
   57.5050   32.5836   47.8421 H   0  0  0  0  0  0  0  0  0  0  0  0
   61.6627   31.3243   48.0121 H   0  0  0  0  0  0  0  0  0  0  0  0
   64.1052   31.2951   48.4763 H   0  0  0  0  0  0  0  0  0  0  0  0
  1  2  2  0
  2  3  1  0
  3  4  2  0
  3  5  1  0
  5  6  1  0
  6  7  2  0
  6  8  1  0
  8  9  2  0
  9 10  1  0
 10 11  2  0
 11 12  1  0
 12 13  1  0
 13 14  1  0
 14 15  1  0
 15 16  1  0
 16 17  1  0
 17 18  1  0
 18 19  1  0
 19 20  2  0
 20 21  1  0
 21 22  2  0
 22 23  1  0
 23 24  1  0
 23 25  2  0
 17 26  1  0
 26 27  1  0
 11 28  1  0
 28 29  2  0
 29  8  1  0
 27 13  1  0
 25 19  1  0
  1 30  1  0
  1 31  1  0
  2 32  1  0
  5 33  1  0
  9 34  1  0
 10 35  1  0
 12 36  1  0
 12 37  1  0
 13 38  1  6
 14 39  1  0
 14 40  1  0
 15 41  1  0
 15 42  1  0
 16 43  1  0
 16 44  1  0
 18 45  1  0
 18 46  1  0
 20 47  1  0
 21 48  1  0
 22 49  1  0
 25 50  1  0
 26 51  1  0
 26 52  1  0
 27 53  1  0
 27 54  1  0
 28 55  1  0
 29 56  1  0
M  CHG  2  13   1  24  -1
M  END
>  <UniqueID>  (86) 
78

>  <SMILES>  (86) 
C=CC(=O)NC(=O)c1ccc(C[N@@H+]2CCCN(Cc3cccc([O-])c3)CC2)cc1

>  <Energy>  (86) 
84.46186998154434

>  <Genealogy>  (86) 
C=CC(=O)NC(=O)c1ccc(C[NH+]2CCCN(Cc3cccc([O-])c3)CC2)cc1 (protonated)
C=CC(=O)NC(=O)c1ccc(C[N@@H+]2CCCN(Cc3cccc([O-])c3)CC2)cc1 (chirality)
C=CC(=O)NC(=O)c1ccc(C[N@@H+]2CCCN(Cc3cccc([O-])c3)CC2)cc1 (3D coordinates assigned)
C=CC(=O)NC(=O)c1ccc(C[N@@H+]2CCCN(Cc3cccc([O-])c3)CC2)cc1 (nonaromatic ring conformer: 84.46186998154434 kcal/mol)

>  <smiles>  (86) 
C=CC(=O)NC(=O)c1ccc(CN2CCCN(Cc3cccc(O)c3)CC2)cc1

>  <score_type>  (86) 
oracle

>  <origin>  (86) 
adg

>  <m_score__min__energy>  (86) 
-8.9399999999999995

>  <m_primary>  (86) 
energy

$$$$
86:0
     RDKit          3D

 46 48  0  0  0  0  0  0  0  0999 V2000
   63.0569   34.5826   50.7459 H   0  0  0  0  0  0  0  0  0  0  0  0
   62.4740   33.6930   50.4650 C   0  0  0  0  0  0  0  0  0  0  0  0
   61.2310   33.5780   50.9450 C   0  0  0  0  0  0  0  0  0  0  0  0
   61.0764   33.2583   51.9861 H   0  0  0  0  0  0  0  0  0  0  0  0
   59.4820   31.5080   49.5440 C   0  0  0  0  0  0  0  0  0  0  0  0
   58.4980   30.7790   50.1810 C   0  0  0  0  0  0  0  0  0  0  0  0
   57.5342   31.1557   50.5541 H   0  0  0  0  0  0  0  0  0  0  0  0
   58.9660   29.4820   50.2560 C   0  0  0  0  0  0  0  0  0  0  0  0
   58.4401   28.6174   50.6873 H   0  0  0  0  0  0  0  0  0  0  0  0
   60.2230   29.4820   49.6840 C   0  0  0  0  0  0  0  0  0  0  0  0
   60.8723   28.5992   49.5885 H   0  0  0  0  0  0  0  0  0  0  0  0
   60.5370   30.7190   49.2610 N   0  0  0  0  0  0  0  0  0  0  0  0
   61.4520   31.0070   48.8460 H   0  0  0  0  0  0  0  0  0  0  0  0
   59.4340   32.9680   49.3330 C   0  0  0  0  0  0  0  0  0  0  0  0
   58.8344   33.3396   48.4890 H   0  0  0  0  0  0  0  0  0  0  0  0
   60.0650   33.8760   50.0910 C   0  0  0  0  0  0  0  0  0  0  0  0
   59.6894   34.9098   50.0754 H   0  0  0  0  0  0  0  0  0  0  0  0
   63.1120   32.6940   49.5780 C   0  0  0  0  0  0  0  0  0  0  0  0
   63.1970   31.5050   49.9860 O   0  0  0  0  0  0  0  0  0  0  0  0
   63.6910   33.0330   48.2280 C   0  0  0  0  0  0  0  0  0  0  0  0
   63.5596   34.1098   48.0458 H   0  0  0  0  0  0  0  0  0  0  0  0
   64.7558   32.7571   48.2368 H   0  0  0  0  0  0  0  0  0  0  0  0
   63.0090   32.2520   47.0950 C   0  0  0  0  0  0  0  0  0  0  0  0
   63.6387   32.3076   46.1948 H   0  0  0  0  0  0  0  0  0  0  0  0
   62.8829   31.2103   47.4250 H   0  0  0  0  0  0  0  0  0  0  0  0
   61.6470   32.8100   46.7730 C   0  0  0  0  0  0  0  0  0  0  0  0
   61.4240   34.1960   46.8050 C   0  0  0  0  0  0  0  0  0  0  0  0
   62.2388   34.8762   47.0940 H   0  0  0  0  0  0  0  0  0  0  0  0
   60.1710   34.7130   46.4710 C   0  0  0  0  0  0  0  0  0  0  0  0
   60.0003   35.7992   46.5024 H   0  0  0  0  0  0  0  0  0  0  0  0
   59.1330   33.8560   46.0970 C   0  0  0  0  0  0  0  0  0  0  0  0
   58.1481   34.2715   45.8376 H   0  0  0  0  0  0  0  0  0  0  0  0
   59.3390   32.4660   46.0500 C   0  0  0  0  0  0  0  0  0  0  0  0
   58.2380   31.5540   45.6460 C   0  0  0  0  0  0  0  0  0  0  0  0
   57.2100   32.0050   44.7950 C   0  0  0  0  0  0  0  0  0  0  0  0
   57.2201   33.0417   44.4272 H   0  0  0  0  0  0  0  0  0  0  0  0
   56.1770   31.1430   44.4150 C   0  0  0  0  0  0  0  0  0  0  0  0
   55.3792   31.5033   43.7488 H   0  0  0  0  0  0  0  0  0  0  0  0
   56.1550   29.8250   44.8790 C   0  0  0  0  0  0  0  0  0  0  0  0
   55.1260   28.9720   44.5010 O   0  0  0  0  0  0  0  0  0  0  0  0
   57.1690   29.3670   45.7250 C   0  0  0  0  0  0  0  0  0  0  0  0
   57.1516   28.3298   46.0910 H   0  0  0  0  0  0  0  0  0  0  0  0
   58.2050   30.2240   46.1070 C   0  0  0  0  0  0  0  0  0  0  0  0
   59.0002   29.8568   46.7725 H   0  0  0  0  0  0  0  0  0  0  0  0
   60.6040   31.9520   46.3880 C   0  0  0  0  0  0  0  0  0  0  0  0
   60.7781   30.8665   46.3504 H   0  0  0  0  0  0  0  0  0  0  0  0
  1  2  1  0
  2  3  2  0
  3  4  1  0
  3  5  1  0
  5  6  2  0
  6  7  1  0
  6  8  1  0
  8  9  1  0
  8 10  2  0
 10 11  1  0
 10 12  1  0
 12 13  1  0
  2 14  1  0
 14 15  1  0
 14 16  2  0
 16 17  1  0
 16 18  1  0
 18 19  2  0
 18 20  1  0
 20 21  1  0
 20 22  1  0
 20 23  1  0
 23 24  1  0
 23 25  1  0
 23 26  1  0
 26 27  2  0
 27 28  1  0
 27 29  1  0
 29 30  1  0
 29 31  2  0
 31 32  1  0
 31 33  1  0
 33 34  1  0
 34 35  2  0
 35 36  1  0
 35 37  1  0
 37 38  1  0
 37 39  2  0
 39 40  1  0
 39 41  1  0
 41 42  1  0
 41 43  2  0
 43 44  1  0
 33 45  2  0
 45 46  1  0
 12  5  1  0
 45 26  1  0
 43 34  1  0
M  CHG  1  40  -1
M  END
>  <UniqueID>  (87) 
79

>  <SMILES>  (87) 
O=C(/C=C/C=C\c1ccc[nH]1)CCc1cccc(-c2ccc([O-])cc2)c1

>  <Energy>  (87) 
77.91399662605869

>  <Genealogy>  (87) 
O=C(C=CC=Cc1ccc[nH]1)CCc1cccc(-c2ccc([O-])cc2)c1 (protonated)
O=C(/C=C/C=C\c1ccc[nH]1)CCc1cccc(-c2ccc([O-])cc2)c1 (cis-trans isomerization)
O=C(/C=C/C=C\c1ccc[nH]1)CCc1cccc(-c2ccc([O-])cc2)c1 (3D coordinates assigned)
O=C(/C=C/C=C\c1ccc[nH]1)CCc1cccc(-c2ccc([O-])cc2)c1 (optimized conformer: 77.91399662605869 kcal/mol)

>  <smiles>  (87) 
O=C(C=CC=Cc1ccc[nH]1)CCc1cccc(-c2ccc(O)cc2)c1

>  <score_type>  (87) 
oracle

>  <origin>  (87) 
adg

>  <m_score__min__energy>  (87) 
-11.42

>  <m_primary>  (87) 
energy

$$$$
