0:0
     RDKit          3D

 44 46  0  0  0  0  0  0  0  0999 V2000
   60.7470   26.6180   46.3550 C   0  0  0  0  0  0  0  0  0  0  0  0
   60.2190   27.7600   47.1800 C   0  0  0  0  0  0  0  0  0  0  0  0
   60.0070   29.0150   46.5980 C   0  0  0  0  0  0  0  0  0  0  0  0
   59.5490   30.0790   47.3350 N   0  0  0  0  0  0  0  0  0  0  0  0
   59.4230   31.4020   46.6630 C   0  0  2  0  0  0  0  0  0  0  0  0
   58.2750   32.2680   47.1720 C   0  0  0  0  0  0  0  0  0  0  0  0
   58.0560   33.2090   46.0200 C   0  0  2  0  0  0  0  0  0  0  0  0
   56.7160   33.6250   45.9370 O   0  0  0  0  0  0  0  0  0  0  0  0
   58.5180   32.3810   44.8110 C   0  0  2  0  0  0  0  0  0  0  0  0
   57.3960   31.9580   43.8380 C   0  0  0  0  0  0  0  0  0  0  0  0
   56.3420   31.1910   44.4990 N   0  0  0  0  0  0  0  0  0  0  0  0
   56.2820   29.7700   44.6670 C   0  0  0  0  0  0  0  0  0  0  0  0
   55.1510   29.2160   44.6680 O   0  0  0  0  0  0  0  0  0  0  0  0
   57.4740   28.9740   44.7740 N   0  0  0  0  0  0  0  0  0  0  0  0
   57.4590   27.5740   45.0990 C   0  0  0  0  0  0  0  0  0  0  0  0
   57.8010   26.5970   44.1450 C   0  0  0  0  0  0  0  0  0  0  0  0
   57.7540   25.2400   44.4770 C   0  0  0  0  0  0  0  0  0  0  0  0
   57.3590   24.8450   45.7580 C   0  0  0  0  0  0  0  0  0  0  0  0
   57.3070   23.5280   46.0760 F   0  0  0  0  0  0  0  0  0  0  0  0
   57.0000   25.8070   46.7050 C   0  0  0  0  0  0  0  0  0  0  0  0
   57.0410   27.1650   46.3750 C   0  0  0  0  0  0  0  0  0  0  0  0
   59.2110   31.2430   45.2740 O   0  0  0  0  0  0  0  0  0  0  0  0
   59.4060   29.9170   48.6980 C   0  0  0  0  0  0  0  0  0  0  0  0
   59.1060   30.8850   49.4440 O   0  0  0  0  0  0  0  0  0  0  0  0
   59.6100   28.7050   49.2720 N   0  0  0  0  0  0  0  0  0  0  0  0
   60.0030   27.6280   48.5520 C   0  0  0  0  0  0  0  0  0  0  0  0
   60.1830   26.5250   49.1330 O   0  0  0  0  0  0  0  0  0  0  0  0
   61.1143   25.8235   47.0212 H   0  0  0  0  0  0  0  0  0  0  0  0
   59.9411   26.2209   45.7203 H   0  0  0  0  0  0  0  0  0  0  0  0
   61.5716   26.9747   45.7203 H   0  0  0  0  0  0  0  0  0  0  0  0
   60.2119   29.1520   45.5260 H   0  0  0  0  0  0  0  0  0  0  0  0
   60.3737   31.9055   46.8924 H   0  0  0  0  0  0  0  0  0  0  0  0
   57.3772   31.6644   47.3708 H   0  0  0  0  0  0  0  0  0  0  0  0
   58.4916   32.7758   48.1234 H   0  0  0  0  0  0  0  0  0  0  0  0
   58.6087   34.1561   46.1069 H   0  0  0  0  0  0  0  0  0  0  0  0
   56.2060   32.8590   45.5630 H   0  0  0  0  0  0  0  0  0  0  0  0
   59.1707   33.0407   44.2204 H   0  0  0  0  0  0  0  0  0  0  0  0
   56.9510   32.8626   43.3980 H   0  0  0  0  0  0  0  0  0  0  0  0
   57.8461   31.3135   43.0686 H   0  0  0  0  0  0  0  0  0  0  0  0
   58.3830   29.3900   44.4740 H   0  0  0  0  0  0  0  0  0  0  0  0
   58.1067   26.9029   43.1336 H   0  0  0  0  0  0  0  0  0  0  0  0
   58.0284   24.4818   43.7288 H   0  0  0  0  0  0  0  0  0  0  0  0
   56.6846   25.4957   47.7118 H   0  0  0  0  0  0  0  0  0  0  0  0
   56.7438   27.9177   47.1201 H   0  0  0  0  0  0  0  0  0  0  0  0
  1  2  1  0
  2  3  2  0
  3  4  1  0
  4  5  1  0
  5  6  1  0
  6  7  1  0
  7  8  1  0
  7  9  1  0
  9 10  1  0
 10 11  1  0
 11 12  1  0
 12 13  2  0
 12 14  1  0
 14 15  1  0
 15 16  2  0
 16 17  1  0
 17 18  2  0
 18 19  1  0
 18 20  1  0
 20 21  2  0
  9 22  1  0
  4 23  1  0
 23 24  2  0
 23 25  1  0
 25 26  1  0
 26 27  2  0
 26  2  1  0
 22  5  1  0
 21 15  1  0
  1 28  1  0
  1 29  1  0
  1 30  1  0
  3 31  1  0
  5 32  1  6
  6 33  1  0
  6 34  1  0
  7 35  1  1
  8 36  1  0
  9 37  1  6
 10 38  1  0
 10 39  1  0
 14 40  1  0
 16 41  1  0
 17 42  1  0
 20 43  1  0
 21 44  1  0
M  CHG  2  11  -1  25  -1
M  END
>  <UniqueID>  (1) 
1

>  <SMILES>  (1) 
Cc1cn([C@@H]2C[C@H](O)C(C[N-]C(=O)Nc3ccc(F)cc3)O2)c(=O)[n-]c1=O

>  <Energy>  (1) 
54.27108707670881

>  <Genealogy>  (1) 
Cc1cn(C2CC(O)C(C[N-]C(=O)Nc3ccc(F)cc3)O2)c(=O)[n-]c1=O (protonated)
Cc1cn([C@@H]2C[C@H](O)C(C[N-]C(=O)Nc3ccc(F)cc3)O2)c(=O)[n-]c1=O (chirality)
Cc1cn([C@@H]2C[C@H](O)C(C[N-]C(=O)Nc3ccc(F)cc3)O2)c(=O)[n-]c1=O (3D coordinates assigned)
Cc1cn([C@@H]2C[C@H](O)C(C[N-]C(=O)Nc3ccc(F)cc3)O2)c(=O)[n-]c1=O (nonaromatic ring conformer: 54.27108707670881 kcal/mol)

>  <smiles>  (1) 
Cc1cn(C2CC(O)C(CNC(=O)Nc3ccc(F)cc3)O2)c(=O)[nH]c1=O

>  <score_type>  (1) 
oracle

>  <origin>  (1) 
adg

>  <m_score__min__energy>  (1) 
-10.279999999999999

>  <m_primary>  (1) 
energy

$$$$
1:0
     RDKit          3D

 53 56  0  0  0  0  0  0  0  0999 V2000
   60.1390   33.9740   48.5600 C   0  0  0  0  0  0  0  0  0  0  0  0
   58.9260   34.3360   47.8110 N   0  0  0  0  0  0  0  0  0  0  0  0
   58.2420   33.1180   47.3220 C   0  0  0  0  0  0  0  0  0  0  0  0
   57.2710   33.4460   46.1800 C   0  0  0  0  0  0  0  0  0  0  0  0
   57.9560   34.0550   45.0100 N   0  0  0  0  0  0  0  0  0  0  0  0
   58.1150   33.0980   43.8950 C   0  0  0  0  0  0  0  0  0  0  0  0
   57.8690   31.6910   44.3720 C   0  0  0  0  0  0  0  0  0  0  0  0
   56.6090   31.0920   44.2170 C   0  0  0  0  0  0  0  0  0  0  0  0
   56.3900   29.7860   44.6640 C   0  0  0  0  0  0  0  0  0  0  0  0
   57.4180   29.0730   45.2960 C   0  0  0  0  0  0  0  0  0  0  0  0
   57.1780   27.7380   45.7610 N   0  0  0  0  0  0  0  0  0  0  0  0
   55.9960   27.1580   45.6220 N   0  0  0  0  0  0  0  0  0  0  0  0
   56.1220   25.8650   45.9850 C   0  0  0  0  0  0  0  0  0  0  0  0
   55.0150   24.9010   45.9680 C   0  0  0  0  0  0  0  0  0  0  0  0
   53.6980   25.3360   45.6420 N   0  0  0  0  0  0  0  0  0  0  0  0
   55.2240   23.6890   46.2410 O   0  0  0  0  0  0  0  0  0  0  0  0
   57.4270   25.5990   46.3560 C   0  0  0  0  0  0  0  0  0  0  0  0
   58.0620   26.8130   46.2240 C   0  0  0  0  0  0  0  0  0  0  0  0
   59.3110   27.0050   46.5500 N   0  0  0  0  0  0  0  0  0  0  0  0
   59.8410   27.3750   47.8280 C   0  0  0  0  0  0  0  0  0  0  0  0
   59.9920   26.4870   48.7090 O   0  0  0  0  0  0  0  0  0  0  0  0
   60.1200   28.7840   48.1580 C   0  0  0  0  0  0  0  0  0  0  0  0
   59.4640   29.5220   49.1280 C   0  0  0  0  0  0  0  0  0  0  0  0
   60.0520   30.7660   49.1270 C   0  0  0  0  0  0  0  0  0  0  0  0
   61.0280   30.7170   48.1550 C   0  0  0  0  0  0  0  0  0  0  0  0
   61.8680   31.7740   47.8300 O   0  0  0  0  0  0  0  0  0  0  0  0
   61.0810   29.5130   47.5540 N   0  0  0  0  0  0  0  0  0  0  0  0
   58.6900   29.6550   45.4130 C   0  0  0  0  0  0  0  0  0  0  0  0
   58.9110   30.9590   44.9630 C   0  0  0  0  0  0  0  0  0  0  0  0
   59.2580   34.6760   45.3480 C   0  0  0  0  0  0  0  0  0  0  0  0
   59.2230   35.3210   46.7400 C   0  0  0  0  0  0  0  0  0  0  0  0
   59.9353   34.0348   49.6393 H   0  0  0  0  0  0  0  0  0  0  0  0
   60.4376   32.9476   48.3004 H   0  0  0  0  0  0  0  0  0  0  0  0
   60.9513   34.6689   48.3004 H   0  0  0  0  0  0  0  0  0  0  0  0
   58.9962   32.4050   46.9577 H   0  0  0  0  0  0  0  0  0  0  0  0
   57.6671   32.6844   48.1536 H   0  0  0  0  0  0  0  0  0  0  0  0
   56.7792   32.5167   45.8568 H   0  0  0  0  0  0  0  0  0  0  0  0
   56.5423   34.1773   46.5596 H   0  0  0  0  0  0  0  0  0  0  0  0
   57.3938   33.3430   43.1014 H   0  0  0  0  0  0  0  0  0  0  0  0
   59.1420   33.1690   43.5074 H   0  0  0  0  0  0  0  0  0  0  0  0
   55.7906   31.6528   43.7418 H   0  0  0  0  0  0  0  0  0  0  0  0
   55.4063   29.3155   44.5191 H   0  0  0  0  0  0  0  0  0  0  0  0
   53.4040   26.3250   45.8060 H   0  0  0  0  0  0  0  0  0  0  0  0
   57.8576   24.6404   46.6810 H   0  0  0  0  0  0  0  0  0  0  0  0
   58.6384   29.1822   49.7706 H   0  0  0  0  0  0  0  0  0  0  0  0
   59.7962   31.6220   49.7688 H   0  0  0  0  0  0  0  0  0  0  0  0
   62.6930   31.9670   48.3860 H   0  0  0  0  0  0  0  0  0  0  0  0
   59.5157   29.0823   45.8606 H   0  0  0  0  0  0  0  0  0  0  0  0
   59.9063   31.4144   45.0723 H   0  0  0  0  0  0  0  0  0  0  0  0
   60.0394   33.9019   45.3312 H   0  0  0  0  0  0  0  0  0  0  0  0
   59.4715   35.4604   44.6070 H   0  0  0  0  0  0  0  0  0  0  0  0
   60.2025   35.7788   46.9423 H   0  0  0  0  0  0  0  0  0  0  0  0
   58.4198   36.0725   46.7422 H   0  0  0  0  0  0  0  0  0  0  0  0
  1  2  1  0
  2  3  1  0
  3  4  1  0
  4  5  1  0
  5  6  1  0
  6  7  1  0
  7  8  2  0
  8  9  1  0
  9 10  2  0
 10 11  1  0
 11 12  1  0
 12 13  1  0
 13 14  1  0
 14 15  1  0
 14 16  2  0
 13 17  2  0
 17 18  1  0
 18 19  2  3
 19 20  1  0
 20 21  2  0
 20 22  1  0
 22 23  2  0
 23 24  1  0
 24 25  2  0
 25 26  1  0
 25 27  1  0
 10 28  1  0
 28 29  2  0
  5 30  1  0
 30 31  1  0
 31  2  1  0
 29  7  1  0
 18 11  1  0
 27 22  1  0
  1 32  1  0
  1 33  1  0
  1 34  1  0
  3 35  1  0
  3 36  1  0
  4 37  1  0
  4 38  1  0
  6 39  1  0
  6 40  1  0
  8 41  1  0
  9 42  1  0
 15 43  1  0
 17 44  1  0
 23 45  1  0
 24 46  1  0
 26 47  1  0
 28 48  1  0
 29 49  1  0
 30 50  1  0
 30 51  1  0
 31 52  1  0
 31 53  1  0
M  CHG  3  12  -1  15  -1  27  -1
M  END
>  <UniqueID>  (2) 
2

>  <SMILES>  (2) 
CN1CCN(Cc2ccc(-n3[n-]c(C([NH-])=O)cc3=NC(=O)c3ccc(O)[n-]3)cc2)CC1

>  <Energy>  (2) 
135.72897043410146

>  <Genealogy>  (2) 
CN1CCN(Cc2ccc(-n3[n-]c(C([NH-])=O)cc3=NC(=O)c3ccc(O)[n-]3)cc2)CC1 (protonated)
CN1CCN(Cc2ccc(-n3[n-]c(C([NH-])=O)cc3=NC(=O)c3ccc(O)[n-]3)cc2)CC1 (3D coordinates assigned)
CN1CCN(Cc2ccc(-n3[n-]c(C([NH-])=O)cc3=NC(=O)c3ccc(O)[n-]3)cc2)CC1 (nonaromatic ring conformer: 135.72897043410146 kcal/mol)

>  <smiles>  (2) 
CN1CCN(Cc2ccc(-n3[nH]c(C(N)=O)cc3=NC(=O)c3ccc(O)[nH]3)cc2)CC1

>  <score_type>  (2) 
oracle

>  <origin>  (2) 
adg

>  <m_score__min__energy>  (2) 
-13.48

>  <m_primary>  (2) 
energy

$$$$
2:0
     RDKit          3D

 33 34  0  0  0  0  0  0  0  0999 V2000
   55.2180   29.0370   44.7890 O   0  0  0  0  0  0  0  0  0  0  0  0
   56.2710   29.7260   44.8670 C   0  0  0  0  0  0  0  0  0  0  0  0
   56.2460   31.0730   44.3840 N   0  0  0  0  0  0  0  0  0  0  0  0
   57.6550   31.9820   43.9450 S   0  0  0  0  0  0  0  0  0  0  0  0
   58.8550   31.3460   44.5850 O   0  0  0  0  0  0  0  0  0  0  0  0
   57.8300   31.9620   42.4530 O   0  0  0  0  0  0  0  0  0  0  0  0
   57.5060   33.6620   44.5400 C   0  0  0  0  0  0  0  0  0  0  0  0
   58.2550   33.8280   45.8310 C   0  0  0  0  0  0  0  0  0  0  0  0
   57.9720   32.9970   46.9280 C   0  0  0  0  0  0  0  0  0  0  0  0
   58.6930   33.1340   48.1190 C   0  0  0  0  0  0  0  0  0  0  0  0
   59.7040   34.0920   48.2190 C   0  0  0  0  0  0  0  0  0  0  0  0
   59.9990   34.9150   47.1280 C   0  0  0  0  0  0  0  0  0  0  0  0
   59.2800   34.7820   45.9360 C   0  0  0  0  0  0  0  0  0  0  0  0
   57.4520   29.1720   45.4690 N   0  0  0  0  0  0  0  0  0  0  0  0
   57.7020   27.7610   45.5880 C   0  0  0  0  0  0  0  0  0  0  0  0
   57.8280   27.1400   46.8460 C   0  0  0  0  0  0  0  0  0  0  0  0
   58.0470   25.7620   46.9340 C   0  0  0  0  0  0  0  0  0  0  0  0
   58.1280   24.9890   45.7720 C   0  0  0  0  0  0  0  0  0  0  0  0
   57.9850   25.5930   44.5210 C   0  0  0  0  0  0  0  0  0  0  0  0
   57.7660   26.9720   44.4290 C   0  0  0  0  0  0  0  0  0  0  0  0
   57.9207   34.3506   43.7891 H   0  0  0  0  0  0  0  0  0  0  0  0
   56.4431   33.8867   44.7125 H   0  0  0  0  0  0  0  0  0  0  0  0
   57.1812   32.2364   46.8501 H   0  0  0  0  0  0  0  0  0  0  0  0
   58.4632   32.4862   48.9778 H   0  0  0  0  0  0  0  0  0  0  0  0
   60.2687   34.1992   49.1569 H   0  0  0  0  0  0  0  0  0  0  0  0
   60.7972   35.6677   47.2073 H   0  0  0  0  0  0  0  0  0  0  0  0
   59.5182   35.4271   45.0775 H   0  0  0  0  0  0  0  0  0  0  0  0
   58.1290   29.8230   45.9230 H   0  0  0  0  0  0  0  0  0  0  0  0
   57.7537   27.7421   47.7636 H   0  0  0  0  0  0  0  0  0  0  0  0
   58.1558   25.2852   47.9193 H   0  0  0  0  0  0  0  0  0  0  0  0
   58.3043   23.9055   45.8430 H   0  0  0  0  0  0  0  0  0  0  0  0
   58.0446   24.9840   43.6069 H   0  0  0  0  0  0  0  0  0  0  0  0
   57.6432   27.4409   43.4416 H   0  0  0  0  0  0  0  0  0  0  0  0
  1  2  2  0
  2  3  1  0
  3  4  1  0
  4  5  2  0
  4  6  2  0
  4  7  1  0
  7  8  1  0
  8  9  2  0
  9 10  1  0
 10 11  2  0
 11 12  1  0
 12 13  2  0
  2 14  1  0
 14 15  1  0
 15 16  2  0
 16 17  1  0
 17 18  2  0
 18 19  1  0
 19 20  2  0
 13  8  1  0
 20 15  1  0
  7 21  1  0
  7 22  1  0
  9 23  1  0
 10 24  1  0
 11 25  1  0
 12 26  1  0
 13 27  1  0
 14 28  1  0
 16 29  1  0
 17 30  1  0
 18 31  1  0
 19 32  1  0
 20 33  1  0
M  CHG  1   3  -1
M  END
>  <UniqueID>  (3) 
3

>  <SMILES>  (3) 
O=C([N-]S(=O)(=O)Cc1ccccc1)Nc1ccccc1

>  <Energy>  (3) 
33.98498686332886

>  <Genealogy>  (3) 
O=C([N-]S(=O)(=O)Cc1ccccc1)Nc1ccccc1 (protonated)
O=C([N-]S(=O)(=O)Cc1ccccc1)Nc1ccccc1 (3D coordinates assigned)
O=C([N-]S(=O)(=O)Cc1ccccc1)Nc1ccccc1 (optimized conformer: 33.98498686332886 kcal/mol)

>  <smiles>  (3) 
O=C(Nc1ccccc1)NS(=O)(=O)Cc1ccccc1

>  <score_type>  (3) 
oracle

>  <origin>  (3) 
adg

>  <m_score__min__energy>  (3) 
-8.8399999999999999

>  <m_primary>  (3) 
energy

$$$$
3:0
     RDKit          3D

 22 23  0  0  0  0  0  0  0  0999 V2000
   56.9930   24.5820   44.9080 C   0  0  0  0  0  0  0  0  0  0  0  0
   56.1540   25.6690   46.0390 S   0  0  0  0  0  0  0  0  0  0  0  0
   56.3570   25.1970   47.4520 O   0  0  0  0  0  0  0  0  0  0  0  0
   54.6830   25.6590   45.7290 O   0  0  0  0  0  0  0  0  0  0  0  0
   56.7730   27.2780   45.8670 N   0  0  0  0  0  0  0  0  0  0  0  0
   56.1110   28.2790   45.2940 N   0  0  0  0  0  0  0  0  0  0  0  0
   56.8970   29.3750   45.3190 C   0  0  0  0  0  0  0  0  0  0  0  0
   56.5660   30.4980   44.8540 O   0  0  0  0  0  0  0  0  0  0  0  0
   58.0950   29.0630   45.9230 C   0  0  0  0  0  0  0  0  0  0  0  0
   59.2430   29.8020   46.1990 C   0  0  0  0  0  0  0  0  0  0  0  0
   59.3360   31.1130   45.8640 F   0  0  0  0  0  0  0  0  0  0  0  0
   60.3070   29.1390   46.8400 C   0  0  0  0  0  0  0  0  0  0  0  0
   60.1960   27.7710   47.1820 C   0  0  0  0  0  0  0  0  0  0  0  0
   59.0220   27.0510   46.8890 C   0  0  0  0  0  0  0  0  0  0  0  0
   57.9830   27.7350   46.2540 C   0  0  0  0  0  0  0  0  0  0  0  0
   57.5688   23.8360   45.4754 H   0  0  0  0  0  0  0  0  0  0  0  0
   56.2535   24.0702   44.2746 H   0  0  0  0  0  0  0  0  0  0  0  0
   57.6755   25.1677   44.2746 H   0  0  0  0  0  0  0  0  0  0  0  0
   55.1480   28.2120   44.8950 H   0  0  0  0  0  0  0  0  0  0  0  0
   61.2303   29.6883   47.0763 H   0  0  0  0  0  0  0  0  0  0  0  0
   61.0350   27.2647   47.6817 H   0  0  0  0  0  0  0  0  0  0  0  0
   58.9265   25.9870   47.1511 H   0  0  0  0  0  0  0  0  0  0  0  0
  1  2  1  0
  2  3  2  0
  2  4  2  0
  2  5  1  0
  5  6  1  0
  6  7  1  0
  7  8  2  0
  7  9  1  0
  9 10  2  0
 10 11  1  0
 10 12  1  0
 12 13  2  0
 13 14  1  0
 14 15  2  0
 15  5  1  0
 15  9  1  0
  1 16  1  0
  1 17  1  0
  1 18  1  0
  6 19  1  0
 12 20  1  0
 13 21  1  0
 14 22  1  0
M  END
>  <UniqueID>  (4) 
4

>  <SMILES>  (4) 
CS(=O)(=O)n1[nH]c(=O)c2c(F)cccc21

>  <Energy>  (4) 
61.74694607412493

>  <Genealogy>  (4) 
CS(=O)(=O)n1[nH]c(=O)c2c(F)cccc21 (3D coordinates assigned)
CS(=O)(=O)n1[nH]c(=O)c2c(F)cccc21 (optimized conformer: 61.74694607412493 kcal/mol)

>  <smiles>  (4) 
CS(=O)(=O)n1[nH]c(=O)c2c(F)cccc21

>  <score_type>  (4) 
oracle

>  <origin>  (4) 
adg

>  <m_score__min__energy>  (4) 
-6.7199999999999998

>  <m_primary>  (4) 
energy

$$$$
4:0
     RDKit          3D

 42 44  0  0  0  0  0  0  0  0999 V2000
   57.3780   24.8910   43.7580 C   0  0  0  0  0  0  0  0  0  0  0  0
   57.1630   25.6080   45.0130 N   0  0  0  0  0  0  0  0  0  0  0  0
   57.9760   26.7470   45.3570 C   0  0  0  0  0  0  0  0  0  0  0  0
   58.9830   26.6320   46.3290 C   0  0  0  0  0  0  0  0  0  0  0  0
   59.7840   27.7300   46.6480 C   0  0  0  0  0  0  0  0  0  0  0  0
   59.5840   28.9540   46.0090 C   0  0  0  0  0  0  0  0  0  0  0  0
   58.5720   29.0970   45.0540 C   0  0  0  0  0  0  0  0  0  0  0  0
   58.4110   30.3670   44.4070 N   0  0  0  0  0  0  0  0  0  0  0  0
   57.5590   31.4370   44.8380 C   0  0  0  0  0  0  0  0  0  0  0  0
   56.3070   31.2810   44.8630 O   0  0  0  0  0  0  0  0  0  0  0  0
   58.1600   32.6840   45.3630 C   0  0  0  0  0  0  0  0  0  0  0  0
   58.2670   33.7790   44.4890 C   0  0  0  0  0  0  0  0  0  0  0  0
   58.8820   34.9630   44.8950 C   0  0  0  0  0  0  0  0  0  0  0  0
   59.4000   35.0790   46.1820 C   0  0  0  0  0  0  0  0  0  0  0  0
   59.2870   34.0160   47.0890 C   0  0  0  0  0  0  0  0  0  0  0  0
   59.7890   34.1530   48.3920 C   0  0  0  0  0  0  0  0  0  0  0  0
   59.6510   33.1160   49.3130 C   0  0  0  0  0  0  0  0  0  0  0  0
   59.0010   31.9380   48.9470 C   0  0  0  0  0  0  0  0  0  0  0  0
   58.4980   31.7820   47.6530 C   0  0  0  0  0  0  0  0  0  0  0  0
   58.6520   32.8060   46.6920 C   0  0  0  0  0  0  0  0  0  0  0  0
   57.7820   27.9830   44.7130 C   0  0  0  0  0  0  0  0  0  0  0  0
   55.7820   25.1930   45.9890 S   0  0  0  0  0  0  0  0  0  0  0  0
   54.9840   23.7380   45.3420 C   0  0  0  0  0  0  0  0  0  0  0  0
   54.8130   26.3420   46.0110 O   0  0  0  0  0  0  0  0  0  0  0  0
   56.2250   24.8950   47.3940 O   0  0  0  0  0  0  0  0  0  0  0  0
   57.6878   23.8579   43.9743 H   0  0  0  0  0  0  0  0  0  0  0  0
   56.4437   24.8797   43.1775 H   0  0  0  0  0  0  0  0  0  0  0  0
   58.1643   25.3956   43.1775 H   0  0  0  0  0  0  0  0  0  0  0  0
   59.1415   25.6718   46.8417 H   0  0  0  0  0  0  0  0  0  0  0  0
   60.5753   27.6298   47.4055 H   0  0  0  0  0  0  0  0  0  0  0  0
   60.2261   29.8118   46.2577 H   0  0  0  0  0  0  0  0  0  0  0  0
   57.8599   33.7012   43.4701 H   0  0  0  0  0  0  0  0  0  0  0  0
   58.9581   35.8086   44.1956 H   0  0  0  0  0  0  0  0  0  0  0  0
   59.9004   36.0093   46.4887 H   0  0  0  0  0  0  0  0  0  0  0  0
   60.2943   35.0840   48.6883 H   0  0  0  0  0  0  0  0  0  0  0  0
   60.0554   33.2271   50.3299 H   0  0  0  0  0  0  0  0  0  0  0  0
   58.8836   31.1272   49.6810 H   0  0  0  0  0  0  0  0  0  0  0  0
   57.9769   30.8526   47.3797 H   0  0  0  0  0  0  0  0  0  0  0  0
   57.0076   28.0793   43.9377 H   0  0  0  0  0  0  0  0  0  0  0  0
   54.6386   23.1082   46.1751 H   0  0  0  0  0  0  0  0  0  0  0  0
   54.1228   24.0355   44.7257 H   0  0  0  0  0  0  0  0  0  0  0  0
   55.6978   23.1717   44.7257 H   0  0  0  0  0  0  0  0  0  0  0  0
  1  2  1  0
  2  3  1  0
  3  4  2  0
  4  5  1  0
  5  6  2  0
  6  7  1  0
  7  8  1  0
  8  9  1  0
  9 10  2  0
  9 11  1  0
 11 12  2  0
 12 13  1  0
 13 14  2  0
 14 15  1  0
 15 16  2  0
 16 17  1  0
 17 18  2  0
 18 19  1  0
 19 20  2  0
  7 21  2  0
  2 22  1  0
 22 23  1  0
 22 24  2  0
 22 25  2  0
 21  3  1  0
 20 11  1  0
 20 15  1  0
  1 26  1  0
  1 27  1  0
  1 28  1  0
  4 29  1  0
  5 30  1  0
  6 31  1  0
 12 32  1  0
 13 33  1  0
 14 34  1  0
 16 35  1  0
 17 36  1  0
 18 37  1  0
 19 38  1  0
 21 39  1  0
 23 40  1  0
 23 41  1  0
 23 42  1  0
M  CHG  1   8  -1
M  END
>  <UniqueID>  (5) 
5

>  <SMILES>  (5) 
CN(c1cccc([N-]C(=O)c2cccc3ccccc23)c1)S(C)(=O)=O

>  <Energy>  (5) 
58.20727955074618

>  <Genealogy>  (5) 
CN(c1cccc([N-]C(=O)c2cccc3ccccc23)c1)S(C)(=O)=O (protonated)
CN(c1cccc([N-]C(=O)c2cccc3ccccc23)c1)S(C)(=O)=O (3D coordinates assigned)
CN(c1cccc([N-]C(=O)c2cccc3ccccc23)c1)S(C)(=O)=O (optimized conformer: 58.20727955074618 kcal/mol)

>  <smiles>  (5) 
CN(c1cccc(NC(=O)c2cccc3ccccc23)c1)S(C)(=O)=O

>  <score_type>  (5) 
oracle

>  <origin>  (5) 
adg

>  <m_score__min__energy>  (5) 
-10.699999999999999

>  <m_primary>  (5) 
energy

$$$$
5:0
     RDKit          3D

 22 22  0  0  0  0  0  0  0  0999 V2000
   58.9460   30.8970   49.7730 C   0  0  0  0  0  0  0  0  0  0  0  0
   57.9360   31.1050   50.8110 C   0  0  0  0  0  0  0  0  0  0  0  0
   57.1040   31.2780   51.6660 C   0  0  0  0  0  0  0  0  0  0  0  0
   56.0950   31.4890   52.7090 C   0  0  0  0  0  0  0  0  0  0  0  0
   54.8260   30.8560   52.3180 N   0  0  0  0  0  0  0  0  0  0  0  0
   53.8120   31.6380   51.8410 C   0  0  0  0  0  0  0  0  0  0  0  0
   52.5950   31.0730   51.4340 C   0  0  0  0  0  0  0  0  0  0  0  0
   51.5070   31.9480   50.9260 C   0  0  0  0  0  0  0  0  0  0  0  0
   51.0310   32.8720   51.6390 O   0  0  0  0  0  0  0  0  0  0  0  0
   50.9950   31.7590   49.6480 O   0  0  0  0  0  0  0  0  0  0  0  0
   52.4630   29.6750   51.5270 C   0  0  0  0  0  0  0  0  0  0  0  0
   51.3950   29.1020   51.1800 O   0  0  0  0  0  0  0  0  0  0  0  0
   53.4970   28.9260   51.9900 N   0  0  0  0  0  0  0  0  0  0  0  0
   54.6680   29.4960   52.3780 C   0  0  0  0  0  0  0  0  0  0  0  0
   55.6070   28.7600   52.7890 O   0  0  0  0  0  0  0  0  0  0  0  0
   59.9197   30.6965   50.2438 H   0  0  0  0  0  0  0  0  0  0  0  0
   58.6576   30.0394   49.1474 H   0  0  0  0  0  0  0  0  0  0  0  0
   59.0200   31.7988   49.1474 H   0  0  0  0  0  0  0  0  0  0  0  0
   56.4477   31.0456   53.6519 H   0  0  0  0  0  0  0  0  0  0  0  0
   55.9336   32.5690   52.8415 H   0  0  0  0  0  0  0  0  0  0  0  0
   53.9526   32.7270   51.7753 H   0  0  0  0  0  0  0  0  0  0  0  0
   53.3910   27.8860   52.0480 H   0  0  0  0  0  0  0  0  0  0  0  0
  1  2  1  0
  2  3  3  0
  3  4  1  0
  4  5  1  0
  5  6  1  0
  6  7  2  0
  7  8  1  0
  8  9  2  0
  8 10  1  0
  7 11  1  0
 11 12  2  0
 11 13  1  0
 13 14  1  0
 14 15  2  0
 14  5  1  0
  1 16  1  0
  1 17  1  0
  1 18  1  0
  4 19  1  0
  4 20  1  0
  6 21  1  0
 13 22  1  0
M  CHG  1  10  -1
M  END
>  <UniqueID>  (6) 
6

>  <SMILES>  (6) 
CC#CCn1cc(C(=O)[O-])c(=O)[nH]c1=O

>  <Energy>  (6) 
19.367965287605333

>  <Genealogy>  (6) 
CC#CCn1cc(C(=O)[O-])c(=O)[nH]c1=O (protonated)
CC#CCn1cc(C(=O)[O-])c(=O)[nH]c1=O (3D coordinates assigned)
CC#CCn1cc(C(=O)[O-])c(=O)[nH]c1=O (optimized conformer: 19.367965287605333 kcal/mol)

>  <smiles>  (6) 
CC#CCn1cc(C(=O)O)c(=O)[nH]c1=O

>  <score_type>  (6) 
oracle

>  <origin>  (6) 
adg

>  <m_score__min__energy>  (6) 
-7.8099999999999996

>  <m_primary>  (6) 
energy

$$$$
6:0
     RDKit          3D

 70 73  0  0  0  0  0  0  0  0999 V2000
   58.9150   34.8810   44.8260 C   0  0  0  0  0  0  0  0  0  0  0  0
   58.4270   33.4660   44.7640 C   0  0  0  0  0  0  0  0  0  0  0  0
   58.2090   32.7320   45.9420 C   0  0  0  0  0  0  0  0  0  0  0  0
   57.7630   31.4100   45.8760 C   0  0  0  0  0  0  0  0  0  0  0  0
   57.5300   30.8050   44.6350 C   0  0  0  0  0  0  0  0  0  0  0  0
   56.9320   29.1530   44.5610 S   0  0  0  0  0  0  0  0  0  0  0  0
   55.4450   29.1590   44.3340 O   0  0  0  0  0  0  0  0  0  0  0  0
   57.5820   28.4260   43.4170 O   0  0  0  0  0  0  0  0  0  0  0  0
   57.2710   28.3320   46.0460 N   0  0  0  0  0  0  0  0  0  0  0  0
   58.3740   27.4300   46.1360 C   0  0  0  0  0  0  0  0  0  0  0  0
   58.1540   26.0600   45.9470 C   0  0  0  0  0  0  0  0  0  0  0  0
   59.2260   25.1520   45.9530 C   0  0  0  0  0  0  0  0  0  0  0  0
   58.9930   23.7070   45.7210 C   0  0  0  0  0  0  0  0  0  0  0  0
   59.9630   22.9410   45.4650 O   0  0  0  0  0  0  0  0  0  0  0  0
   57.6670   23.1710   45.7960 N   0  0  0  0  0  0  0  0  0  0  0  0
   56.7520   23.1030   44.6630 C   0  0  0  0  0  0  0  0  0  0  0  0
   56.0930   24.4590   44.4040 C   0  0  0  0  0  0  0  0  0  0  0  0
   55.0290   24.9530   45.7530 S   0  0  0  0  0  0  0  0  0  0  0  0
   55.1650   26.6610   45.9880 N   0  0  0  0  0  0  0  0  0  0  0  0
   55.4300   24.2470   47.0180 O   0  0  0  0  0  0  0  0  0  0  0  0
   53.6040   24.6120   45.4220 O   0  0  0  0  0  0  0  0  0  0  0  0
   60.5280   25.6410   46.1620 C   0  0  0  0  0  0  0  0  0  0  0  0
   60.7500   27.0050   46.3600 C   0  0  0  0  0  0  0  0  0  0  0  0
   59.6810   27.9060   46.3670 C   0  0  0  0  0  0  0  0  0  0  0  0
   59.9550   29.2660   46.5600 O   0  0  0  0  0  0  0  0  0  0  0  0
   59.7080   29.9830   47.7400 C   0  0  0  0  0  0  0  0  0  0  0  0
   59.0240   29.3390   48.7770 C   0  0  0  0  0  0  0  0  0  0  0  0
   58.7300   30.0170   49.9600 C   0  0  0  0  0  0  0  0  0  0  0  0
   59.0910   31.3580   50.1070 C   0  0  0  0  0  0  0  0  0  0  0  0
   59.7630   32.0270   49.0710 C   0  0  0  0  0  0  0  0  0  0  0  0
   60.1280   33.7480   49.2260 S   0  0  0  0  0  0  0  0  0  0  0  0
   59.8610   34.1740   50.6420 O   0  0  0  0  0  0  0  0  0  0  0  0
   59.2140   34.5290   48.3250 O   0  0  0  0  0  0  0  0  0  0  0  0
   61.7870   34.1120   48.8120 N   0  0  0  0  0  0  0  0  0  0  0  0
   62.0570   33.8800   47.3770 C   0  0  0  0  0  0  0  0  0  0  0  0
   62.9340   32.6360   47.1450 C   0  0  0  0  0  0  0  0  0  0  0  0
   64.1820   32.6980   47.8190 O   0  0  0  0  0  0  0  0  0  0  0  0
   64.1210   33.3420   49.0870 C   0  0  0  0  0  0  0  0  0  0  0  0
   62.7140   33.3920   49.7040 C   0  0  0  0  0  0  0  0  0  0  0  0
   60.0750   31.3350   47.8900 C   0  0  0  0  0  0  0  0  0  0  0  0
   57.7560   31.5330   43.4580 C   0  0  0  0  0  0  0  0  0  0  0  0
   58.2150   32.8510   43.5220 C   0  0  0  0  0  0  0  0  0  0  0  0
   59.0204   35.1868   45.8774 H   0  0  0  0  0  0  0  0  0  0  0  0
   59.8905   34.9548   44.3231 H   0  0  0  0  0  0  0  0  0  0  0  0
   58.1924   35.5405   44.3231 H   0  0  0  0  0  0  0  0  0  0  0  0
   58.3904   33.2005   46.9206 H   0  0  0  0  0  0  0  0  0  0  0  0
   57.5941   30.8419   46.8027 H   0  0  0  0  0  0  0  0  0  0  0  0
   56.5070   28.2570   46.7540 H   0  0  0  0  0  0  0  0  0  0  0  0
   57.1296   25.6904   45.7920 H   0  0  0  0  0  0  0  0  0  0  0  0
   57.3124   22.7990   43.7666 H   0  0  0  0  0  0  0  0  0  0  0  0
   55.9644   22.3706   44.8939 H   0  0  0  0  0  0  0  0  0  0  0  0
   56.8792   25.2175   44.2753 H   0  0  0  0  0  0  0  0  0  0  0  0
   55.4752   24.3698   43.4982 H   0  0  0  0  0  0  0  0  0  0  0  0
   55.1500   27.0960   45.0360 H   0  0  0  0  0  0  0  0  0  0  0  0
   61.3782   24.9431   46.1695 H   0  0  0  0  0  0  0  0  0  0  0  0
   61.7750   27.3741   46.5118 H   0  0  0  0  0  0  0  0  0  0  0  0
   58.7157   28.2898   48.6583 H   0  0  0  0  0  0  0  0  0  0  0  0
   58.2130   29.4946   50.7784 H   0  0  0  0  0  0  0  0  0  0  0  0
   58.8482   31.8922   51.0374 H   0  0  0  0  0  0  0  0  0  0  0  0
   61.0993   33.7410   46.8541 H   0  0  0  0  0  0  0  0  0  0  0  0
   62.6009   34.7542   46.9896 H   0  0  0  0  0  0  0  0  0  0  0  0
   62.3871   31.7511   47.5026 H   0  0  0  0  0  0  0  0  0  0  0  0
   63.1469   32.5825   46.0671 H   0  0  0  0  0  0  0  0  0  0  0  0
   64.7821   32.8013   49.7802 H   0  0  0  0  0  0  0  0  0  0  0  0
   64.4316   34.3849   48.9259 H   0  0  0  0  0  0  0  0  0  0  0  0
   62.3479   32.3658   49.8552 H   0  0  0  0  0  0  0  0  0  0  0  0
   62.7653   33.9208   50.6672 H   0  0  0  0  0  0  0  0  0  0  0  0
   60.6085   31.8508   47.0780 H   0  0  0  0  0  0  0  0  0  0  0  0
   57.5711   31.0644   42.4802 H   0  0  0  0  0  0  0  0  0  0  0  0
   58.4109   33.4085   42.5942 H   0  0  0  0  0  0  0  0  0  0  0  0
  1  2  1  0
  2  3  2  0
  3  4  1  0
  4  5  2  0
  5  6  1  0
  6  7  2  0
  6  8  2  0
  6  9  1  0
  9 10  1  0
 10 11  2  0
 11 12  1  0
 12 13  1  0
 13 14  2  0
 13 15  1  0
 15 16  1  0
 16 17  1  0
 17 18  1  0
 18 19  1  0
 18 20  2  0
 18 21  2  0
 12 22  2  0
 22 23  1  0
 23 24  2  0
 24 25  1  0
 25 26  1  0
 26 27  2  0
 27 28  1  0
 28 29  2  0
 29 30  1  0
 30 31  1  0
 31 32  2  0
 31 33  2  0
 31 34  1  0
 34 35  1  0
 35 36  1  0
 36 37  1  0
 37 38  1  0
 38 39  1  0
 30 40  2  0
  5 41  1  0
 41 42  2  0
 42  2  1  0
 24 10  1  0
 40 26  1  0
 39 34  1  0
  1 43  1  0
  1 44  1  0
  1 45  1  0
  3 46  1  0
  4 47  1  0
  9 48  1  0
 11 49  1  0
 16 50  1  0
 16 51  1  0
 17 52  1  0
 17 53  1  0
 19 54  1  0
 22 55  1  0
 23 56  1  0
 27 57  1  0
 28 58  1  0
 29 59  1  0
 35 60  1  0
 35 61  1  0
 36 62  1  0
 36 63  1  0
 38 64  1  0
 38 65  1  0
 39 66  1  0
 39 67  1  0
 40 68  1  0
 41 69  1  0
 42 70  1  0
M  CHG  2  15  -1  19  -1
M  END
>  <UniqueID>  (7) 
7

>  <SMILES>  (7) 
Cc1ccc(S(=O)(=O)Nc2cc(C(=O)[N-]CCS([NH-])(=O)=O)ccc2Oc2cccc(S(=O)(=O)N3CCOCC3)c2)cc1

>  <Energy>  (7) 
87.03773694333914

>  <Genealogy>  (7) 
Cc1ccc(S(=O)(=O)Nc2cc(C(=O)[N-]CCS([NH-])(=O)=O)ccc2Oc2cccc(S(=O)(=O)N3CCOCC3)c2)cc1 (protonated)
Cc1ccc(S(=O)(=O)Nc2cc(C(=O)[N-]CCS([NH-])(=O)=O)ccc2Oc2cccc(S(=O)(=O)N3CCOCC3)c2)cc1 (3D coordinates assigned)
Cc1ccc(S(=O)(=O)Nc2cc(C(=O)[N-]CCS([NH-])(=O)=O)ccc2Oc2cccc(S(=O)(=O)N3CCOCC3)c2)cc1 (nonaromatic ring conformer: 87.03773694333914 kcal/mol)

>  <smiles>  (7) 
Cc1ccc(S(=O)(=O)Nc2cc(C(=O)NCCS(N)(=O)=O)ccc2Oc2cccc(S(=O)(=O)N3CCOCC3)c2)cc1

>  <score_type>  (7) 
oracle

>  <origin>  (7) 
adg

>  <m_score__min__energy>  (7) 
-16.030000000000001

>  <m_primary>  (7) 
energy

$$$$
7:0
     RDKit          3D

 35 37  0  0  0  0  0  0  0  0999 V2000
   52.7064   24.6909   45.4346 H   0  0  0  0  0  0  0  0  0  0  0  0
   53.7980   24.7860   45.5310 C   0  0  0  0  0  0  0  0  0  0  0  0
   54.3950   25.9310   45.9580 N   0  0  0  0  0  0  0  0  0  0  0  0
   55.7380   25.8080   45.9940 C   0  0  0  0  0  0  0  0  0  0  0  0
   56.5120   26.7790   46.3720 N   0  0  0  0  0  0  0  0  0  0  0  0
   58.0040   27.1970   45.5920 S   0  0  0  0  0  0  0  0  0  0  0  0
   58.1940   26.3500   44.3640 O   0  0  0  0  0  0  0  0  0  0  0  0
   59.1560   26.9710   46.5310 O   0  0  0  0  0  0  0  0  0  0  0  0
   57.9480   28.8960   45.1340 C   0  0  0  0  0  0  0  0  0  0  0  0
   56.9540   29.3620   44.2630 C   0  0  0  0  0  0  0  0  0  0  0  0
   56.2087   28.6623   43.8568 H   0  0  0  0  0  0  0  0  0  0  0  0
   56.9070   30.7130   43.9090 C   0  0  0  0  0  0  0  0  0  0  0  0
   56.1344   31.0680   43.2111 H   0  0  0  0  0  0  0  0  0  0  0  0
   57.8360   31.6180   44.4360 C   0  0  0  0  0  0  0  0  0  0  0  0
   57.7660   32.9920   44.0290 N   0  0  0  0  0  0  0  0  0  0  0  0
   57.8990   34.1380   44.8800 C   0  0  0  0  0  0  0  0  0  0  0  0
   56.9130   34.5780   45.5300 O   0  0  0  0  0  0  0  0  0  0  0  0
   59.2230   34.8220   44.9910 C   0  0  0  0  0  0  0  0  0  0  0  0
   59.8662   34.5100   44.1550 H   0  0  0  0  0  0  0  0  0  0  0  0
   59.0726   35.9111   44.9571 H   0  0  0  0  0  0  0  0  0  0  0  0
   59.8780   34.4540   46.2860 C   0  0  0  0  0  0  0  0  0  0  0  0
   61.1260   33.8430   46.3620 C   0  0  0  0  0  0  0  0  0  0  0  0
   61.7811   33.6021   45.5118 H   0  0  0  0  0  0  0  0  0  0  0  0
   61.4560   33.5380   47.9810 S   0  0  0  0  0  0  0  0  0  0  0  0
   60.0240   34.1660   48.5990 C   0  0  0  0  0  0  0  0  0  0  0  0
   59.7416   34.2066   49.6614 H   0  0  0  0  0  0  0  0  0  0  0  0
   59.2610   34.6240   47.5350 C   0  0  0  0  0  0  0  0  0  0  0  0
   58.2665   35.0775   47.6585 H   0  0  0  0  0  0  0  0  0  0  0  0
   58.8430   31.1460   45.2990 C   0  0  0  0  0  0  0  0  0  0  0  0
   59.5945   31.8433   45.6977 H   0  0  0  0  0  0  0  0  0  0  0  0
   58.8910   29.7940   45.6510 C   0  0  0  0  0  0  0  0  0  0  0  0
   59.6722   29.4338   46.3366 H   0  0  0  0  0  0  0  0  0  0  0  0
   56.2400   24.2760   45.4980 S   0  0  0  0  0  0  0  0  0  0  0  0
   54.6670   23.7440   45.2250 C   0  0  0  0  0  0  0  0  0  0  0  0
   54.3764   22.7454   44.8667 H   0  0  0  0  0  0  0  0  0  0  0  0
  1  2  1  0
  2  3  1  0
  3  4  1  0
  4  5  2  0
  5  6  1  0
  6  7  2  0
  6  8  2  0
  6  9  1  0
  9 10  2  0
 10 11  1  0
 10 12  1  0
 12 13  1  0
 12 14  2  0
 14 15  1  0
 15 16  1  0
 16 17  2  0
 16 18  1  0
 18 19  1  0
 18 20  1  0
 18 21  1  0
 21 22  2  0
 22 23  1  0
 22 24  1  0
 24 25  1  0
 25 26  1  0
 25 27  2  0
 27 28  1  0
 14 29  1  0
 29 30  1  0
 29 31  2  0
 31 32  1  0
  4 33  1  0
 33 34  1  0
 34 35  1  0
 34  2  2  0
 31  9  1  0
 27 21  1  0
M  CHG  2   3  -1  15  -1
M  END
>  <UniqueID>  (8) 
8

>  <SMILES>  (8) 
O=C(Cc1ccsc1)[N-]c1ccc(S(=O)(=O)/N=c2/[n-]ccs2)cc1

>  <Energy>  (8) 
98.2640239946374

>  <Genealogy>  (8) 
O=C(Cc1ccsc1)[N-]c1ccc(S(=O)(=O)N=c2[n-]ccs2)cc1 (protonated)
O=C(Cc1ccsc1)[N-]c1ccc(S(=O)(=O)/N=c2/[n-]ccs2)cc1 (cis-trans isomerization)
O=C(Cc1ccsc1)[N-]c1ccc(S(=O)(=O)/N=c2/[n-]ccs2)cc1 (3D coordinates assigned)
O=C(Cc1ccsc1)[N-]c1ccc(S(=O)(=O)/N=c2/[n-]ccs2)cc1 (optimized conformer: 98.2640239946374 kcal/mol)

>  <smiles>  (8) 
O=C(Cc1ccsc1)Nc1ccc(S(=O)(=O)N=c2[nH]ccs2)cc1

>  <score_type>  (8) 
oracle

>  <origin>  (8) 
adg

>  <m_score__min__energy>  (8) 
-10.630000000000001

>  <m_primary>  (8) 
energy

$$$$
8:0
     RDKit          3D

 44 46  0  0  0  0  0  0  0  0999 V2000
   59.0775   36.0694   46.0849 H   0  0  0  0  0  0  0  0  0  0  0  0
   59.0710   34.9750   45.9740 C   0  0  0  0  0  0  0  0  0  0  0  0
   59.6430   34.1930   46.9270 N   0  0  0  0  0  0  0  0  0  0  0  0
   59.6550   32.8340   46.8360 C   0  0  0  0  0  0  0  0  0  0  0  0
   60.2550   32.0560   47.8360 O   0  0  0  0  0  0  0  0  0  0  0  0
   59.5690   31.4250   48.8870 C   0  0  0  0  0  0  0  0  0  0  0  0
   58.8180   32.1520   49.8280 C   0  0  0  0  0  0  0  0  0  0  0  0
   58.7806   33.2498   49.7689 H   0  0  0  0  0  0  0  0  0  0  0  0
   58.1190   31.4850   50.8380 C   0  0  0  0  0  0  0  0  0  0  0  0
   57.5387   32.0621   51.5730 H   0  0  0  0  0  0  0  0  0  0  0  0
   58.1520   30.0880   50.9210 C   0  0  0  0  0  0  0  0  0  0  0  0
   57.4280   29.4640   51.9480 O   0  0  0  0  0  0  0  0  0  0  0  0
   56.4700   30.1240   52.7720 C   0  0  0  0  0  0  0  0  0  0  0  0
   56.7172   29.9537   53.8302 H   0  0  0  0  0  0  0  0  0  0  0  0
   56.4863   31.2034   52.5608 H   0  0  0  0  0  0  0  0  0  0  0  0
   55.4672   29.7242   52.5608 H   0  0  0  0  0  0  0  0  0  0  0  0
   58.8980   29.3600   49.9740 C   0  0  0  0  0  0  0  0  0  0  0  0
   58.9360   28.2622   50.0324 H   0  0  0  0  0  0  0  0  0  0  0  0
   59.5910   30.0290   48.9590 C   0  0  0  0  0  0  0  0  0  0  0  0
   60.1570   29.4525   48.2125 H   0  0  0  0  0  0  0  0  0  0  0  0
   59.0870   32.2050   45.7110 C   0  0  0  0  0  0  0  0  0  0  0  0
   59.0390   30.7030   45.5970 C   0  0  0  0  0  0  0  0  0  0  0  0
   60.0574   30.3182   45.4394 H   0  0  0  0  0  0  0  0  0  0  0  0
   58.6186   30.2868   46.5244 H   0  0  0  0  0  0  0  0  0  0  0  0
   58.1560   30.2890   44.4210 C   0  0  0  0  0  0  0  0  0  0  0  0
   57.9917   31.1594   43.7688 H   0  0  0  0  0  0  0  0  0  0  0  0
   58.6612   29.4855   43.8649 H   0  0  0  0  0  0  0  0  0  0  0  0
   56.8300   29.7800   44.9070 C   0  0  0  0  0  0  0  0  0  0  0  0
   55.7680   30.3180   44.4950 O   0  0  0  0  0  0  0  0  0  0  0  0
   56.7620   28.8010   45.9490 N   0  0  0  0  0  0  0  0  0  0  0  0
   57.0890   27.5410   45.8850 C   0  0  0  0  0  0  0  0  0  0  0  0
   58.4120   27.2340   45.8420 N   0  0  0  0  0  0  0  0  0  0  0  0
   58.8630   25.9560   45.7580 C   0  0  0  0  0  0  0  0  0  0  0  0
   59.9443   25.7568   45.7246 H   0  0  0  0  0  0  0  0  0  0  0  0
   57.9600   24.8970   45.7140 C   0  0  0  0  0  0  0  0  0  0  0  0
   58.3199   23.8613   45.6259 H   0  0  0  0  0  0  0  0  0  0  0  0
   56.5950   25.1660   45.7830 C   0  0  0  0  0  0  0  0  0  0  0  0
   55.8707   24.3385   45.7572 H   0  0  0  0  0  0  0  0  0  0  0  0
   56.1430   26.4860   45.8850 C   0  0  0  0  0  0  0  0  0  0  0  0
   54.7790   26.7100   46.0200 O   0  0  0  0  0  0  0  0  0  0  0  0
   58.4810   33.0030   44.7270 C   0  0  0  0  0  0  0  0  0  0  0  0
   58.0091   32.5316   43.8523 H   0  0  0  0  0  0  0  0  0  0  0  0
   58.4760   34.3920   44.8560 C   0  0  0  0  0  0  0  0  0  0  0  0
   58.0078   35.0204   44.0841 H   0  0  0  0  0  0  0  0  0  0  0  0
  1  2  1  0
  2  3  2  0
  3  4  1  0
  4  5  1  0
  5  6  1  0
  6  7  2  0
  7  8  1  0
  7  9  1  0
  9 10  1  0
  9 11  2  0
 11 12  1  0
 12 13  1  0
 13 14  1  0
 13 15  1  0
 13 16  1  0
 11 17  1  0
 17 18  1  0
 17 19  2  0
 19 20  1  0
  4 21  2  0
 21 22  1  0
 22 23  1  0
 22 24  1  0
 22 25  1  0
 25 26  1  0
 25 27  1  0
 25 28  1  0
 28 29  2  0
 28 30  1  0
 30 31  2  0
 31 32  1  0
 32 33  1  0
 33 34  1  0
 33 35  2  0
 35 36  1  0
 35 37  1  0
 37 38  1  0
 37 39  2  0
 39 40  1  0
 21 41  1  0
 41 42  1  0
 41 43  2  0
 43 44  1  0
 43  2  1  0
 19  6  1  0
 39 31  1  0
M  CHG  2  32  -1  40  -1
M  END
>  <UniqueID>  (9) 
9

>  <SMILES>  (9) 
COc1ccc(Oc2ncccc2CCC(=O)/N=c2/[n-]cccc2[O-])cc1

>  <Energy>  (9) 
61.81017958391608

>  <Genealogy>  (9) 
COc1ccc(Oc2ncccc2CCC(=O)N=c2[n-]cccc2[O-])cc1 (protonated)
COc1ccc(Oc2ncccc2CCC(=O)/N=c2/[n-]cccc2[O-])cc1 (cis-trans isomerization)
COc1ccc(Oc2ncccc2CCC(=O)/N=c2/[n-]cccc2[O-])cc1 (3D coordinates assigned)
COc1ccc(Oc2ncccc2CCC(=O)/N=c2/[n-]cccc2[O-])cc1 (optimized conformer: 61.81017958391608 kcal/mol)

>  <smiles>  (9) 
COc1ccc(Oc2ncccc2CCC(=O)N=c2[nH]cccc2O)cc1

>  <score_type>  (9) 
oracle

>  <origin>  (9) 
adg

>  <m_score__min__energy>  (9) 
-13.859999999999999

>  <m_primary>  (9) 
energy

$$$$
9:0
     RDKit          3D

 30 31  0  0  0  0  0  0  0  0999 V2000
   55.0830   25.7230   46.0390 N   0  0  0  0  0  0  0  0  0  0  0  0
   56.1030   26.2670   46.0790 C   0  0  0  0  0  0  0  0  0  0  0  0
   57.3760   26.9460   46.1290 C   0  0  0  0  0  0  0  0  0  0  0  0
   57.6910   27.7890   45.1300 C   0  0  0  0  0  0  0  0  0  0  0  0
   57.4490   29.2520   45.1510 C   0  0  0  0  0  0  0  0  0  0  0  0
   56.2040   29.7930   44.8050 C   0  0  0  0  0  0  0  0  0  0  0  0
   55.1460   28.9710   44.4330 O   0  0  0  0  0  0  0  0  0  0  0  0
   56.0150   31.1340   44.8500 N   0  0  0  0  0  0  0  0  0  0  0  0
   57.0020   31.9770   45.2410 C   0  0  0  0  0  0  0  0  0  0  0  0
   56.7800   33.2180   45.2460 O   0  0  0  0  0  0  0  0  0  0  0  0
   58.2240   31.4830   45.6190 N   0  0  0  0  0  0  0  0  0  0  0  0
   59.2680   32.3840   46.0450 C   0  0  0  0  0  0  0  0  0  0  0  0
   59.3310   33.6900   45.5310 C   0  0  0  0  0  0  0  0  0  0  0  0
   60.3420   34.5620   45.9450 C   0  0  0  0  0  0  0  0  0  0  0  0
   61.2960   34.1360   46.8750 C   0  0  0  0  0  0  0  0  0  0  0  0
   61.2400   32.8390   47.3910 C   0  0  0  0  0  0  0  0  0  0  0  0
   60.2300   31.9640   46.9790 C   0  0  0  0  0  0  0  0  0  0  0  0
   58.4530   30.1300   45.5880 C   0  0  0  0  0  0  0  0  0  0  0  0
   59.5700   29.6660   45.9520 O   0  0  0  0  0  0  0  0  0  0  0  0
   58.2510   26.6860   47.2940 C   0  0  0  0  0  0  0  0  0  0  0  0
   59.0570   27.7180   47.8650 N   0  0  0  0  0  0  0  0  0  0  0  0
   58.2500   25.5430   47.8260 O   0  0  0  0  0  0  0  0  0  0  0  0
   58.1623   27.3627   44.2322 H   0  0  0  0  0  0  0  0  0  0  0  0
   58.5817   34.0277   44.7998 H   0  0  0  0  0  0  0  0  0  0  0  0
   60.3874   35.5835   45.5393 H   0  0  0  0  0  0  0  0  0  0  0  0
   62.0911   34.8229   47.2004 H   0  0  0  0  0  0  0  0  0  0  0  0
   61.9912   32.5057   48.1222 H   0  0  0  0  0  0  0  0  0  0  0  0
   60.1885   30.9435   47.3875 H   0  0  0  0  0  0  0  0  0  0  0  0
   58.9560   28.7120   47.5650 H   0  0  0  0  0  0  0  0  0  0  0  0
   59.7040   27.5010   48.6560 H   0  0  0  0  0  0  0  0  0  0  0  0
  1  2  3  0
  2  3  1  0
  3  4  2  3
  4  5  1  0
  5  6  2  0
  6  7  1  0
  6  8  1  0
  8  9  1  0
  9 10  2  0
  9 11  1  0
 11 12  1  0
 12 13  2  0
 13 14  1  0
 14 15  2  0
 15 16  1  0
 16 17  2  0
 11 18  1  0
 18 19  2  0
  3 20  1  0
 20 21  1  0
 20 22  2  0
 18  5  1  0
 17 12  1  0
  4 23  1  0
 13 24  1  0
 14 25  1  0
 15 26  1  0
 16 27  1  0
 17 28  1  0
 21 29  1  0
 21 30  1  0
M  CHG  2   7  -1   8  -1
M  END
>  <UniqueID>  (10) 
10

>  <SMILES>  (10) 
N#CC(=Cc1c([O-])[n-]c(=O)n(-c2ccccc2)c1=O)C(N)=O

>  <Energy>  (10) 
51.259484695186224

>  <Genealogy>  (10) 
N#CC(=Cc1c([O-])[n-]c(=O)n(-c2ccccc2)c1=O)C(N)=O (protonated)
N#CC(=Cc1c([O-])[n-]c(=O)n(-c2ccccc2)c1=O)C(N)=O (3D coordinates assigned)
N#CC(=Cc1c([O-])[n-]c(=O)n(-c2ccccc2)c1=O)C(N)=O (optimized conformer: 51.259484695186224 kcal/mol)

>  <smiles>  (10) 
N#CC(=Cc1c(O)[nH]c(=O)n(-c2ccccc2)c1=O)C(N)=O

>  <score_type>  (10) 
oracle

>  <origin>  (10) 
adg

>  <m_score__min__energy>  (10) 
-11.75

>  <m_primary>  (10) 
energy

$$$$
10:0
     RDKit          3D

 41 42  0  0  0  0  0  0  0  0999 V2000
   59.0690   33.4860   45.9150 C   0  0  0  0  0  0  0  0  0  0  0  0
   58.4110   32.4990   44.9960 C   0  0  0  0  0  0  0  0  0  0  0  0
   58.2020   32.8250   43.6530 C   0  0  0  0  0  0  0  0  0  0  0  0
   57.5510   31.9320   42.7870 C   0  0  0  0  0  0  0  0  0  0  0  0
   57.3530   32.3370   41.3490 C   0  0  0  0  0  0  0  0  0  0  0  0
   57.1410   30.6620   43.2690 C   0  0  0  0  0  0  0  0  0  0  0  0
   56.5190   29.6500   42.3290 C   0  0  0  0  0  0  0  0  0  0  0  0
   57.3010   30.3600   44.6460 C   0  0  0  0  0  0  0  0  0  0  0  0
   56.7590   29.1180   45.2400 C   0  0  0  0  0  0  0  0  0  0  0  0
   55.5130   28.9370   45.2460 O   0  0  0  0  0  0  0  0  0  0  0  0
   57.6020   28.1200   45.8300 N   0  0  0  0  0  0  0  0  0  0  0  0
   57.1640   27.0010   46.6640 C   0  0  0  0  0  0  0  0  0  0  0  0
   56.0000   26.2470   46.0110 C   0  0  0  0  0  0  0  0  0  0  0  0
   55.8980   24.9000   46.5680 N   0  0  0  0  0  0  0  0  0  0  0  0
   56.5830   23.8550   46.1960 C   0  0  0  0  0  0  0  0  0  0  0  0
   57.6650   23.9390   45.2970 C   0  0  0  0  0  0  0  0  0  0  0  0
   58.3720   22.7810   44.9610 C   0  0  0  0  0  0  0  0  0  0  0  0
   58.0170   21.5820   45.4970 N   0  0  0  0  0  0  0  0  0  0  0  0
   56.9690   21.4720   46.3570 C   0  0  0  0  0  0  0  0  0  0  0  0
   56.2340   22.6040   46.7160 C   0  0  0  0  0  0  0  0  0  0  0  0
   57.9280   31.2840   45.4930 C   0  0  0  0  0  0  0  0  0  0  0  0
   58.8775   33.1987   46.9594 H   0  0  0  0  0  0  0  0  0  0  0  0
   60.1532   33.4932   45.7296 H   0  0  0  0  0  0  0  0  0  0  0  0
   58.6586   34.4896   45.7296 H   0  0  0  0  0  0  0  0  0  0  0  0
   58.5524   33.7945   43.2693 H   0  0  0  0  0  0  0  0  0  0  0  0
   56.8702   33.3246   41.3094 H   0  0  0  0  0  0  0  0  0  0  0  0
   58.3290   32.3855   40.8440 H   0  0  0  0  0  0  0  0  0  0  0  0
   56.7153   31.5966   40.8440 H   0  0  0  0  0  0  0  0  0  0  0  0
   56.0315   28.8568   42.9147 H   0  0  0  0  0  0  0  0  0  0  0  0
   55.7718   30.1495   41.6948 H   0  0  0  0  0  0  0  0  0  0  0  0
   57.3021   29.2089   41.6948 H   0  0  0  0  0  0  0  0  0  0  0  0
   58.0062   26.3078   46.8060 H   0  0  0  0  0  0  0  0  0  0  0  0
   56.8230   27.3992   47.6310 H   0  0  0  0  0  0  0  0  0  0  0  0
   55.0627   26.7907   46.2002 H   0  0  0  0  0  0  0  0  0  0  0  0
   56.1798   26.1759   44.9281 H   0  0  0  0  0  0  0  0  0  0  0  0
   57.9510   24.9085   44.8630 H   0  0  0  0  0  0  0  0  0  0  0  0
   59.2183   22.8393   44.2608 H   0  0  0  0  0  0  0  0  0  0  0  0
   58.5570   20.7260   45.2370 H   0  0  0  0  0  0  0  0  0  0  0  0
   56.6997   20.4890   46.7708 H   0  0  0  0  0  0  0  0  0  0  0  0
   55.3824   22.5121   47.4062 H   0  0  0  0  0  0  0  0  0  0  0  0
   58.0417   31.0508   46.5620 H   0  0  0  0  0  0  0  0  0  0  0  0
  1  2  1  0
  2  3  2  0
  3  4  1  0
  4  5  1  0
  4  6  2  0
  6  7  1  0
  6  8  1  0
  8  9  1  0
  9 10  2  0
  9 11  1  0
 11 12  1  0
 12 13  1  0
 13 14  1  0
 14 15  2  3
 15 16  1  0
 16 17  2  0
 17 18  1  0
 18 19  1  0
 19 20  2  0
  8 21  2  0
 21  2  1  0
 20 15  1  0
  1 22  1  0
  1 23  1  0
  1 24  1  0
  3 25  1  0
  5 26  1  0
  5 27  1  0
  5 28  1  0
  7 29  1  0
  7 30  1  0
  7 31  1  0
 12 32  1  0
 12 33  1  0
 13 34  1  0
 13 35  1  0
 16 36  1  0
 17 37  1  0
 18 38  1  0
 19 39  1  0
 20 40  1  0
 21 41  1  0
M  CHG  1  11  -1
M  END
>  <UniqueID>  (11) 
11

>  <SMILES>  (11) 
Cc1cc(C)c(C)c(C(=O)[N-]CCN=c2cc[nH]cc2)c1

>  <Energy>  (11) 
44.31117493986691

>  <Genealogy>  (11) 
Cc1cc(C)c(C)c(C(=O)[N-]CCN=c2cc[nH]cc2)c1 (protonated)
Cc1cc(C)c(C)c(C(=O)[N-]CCN=c2cc[nH]cc2)c1 (3D coordinates assigned)
Cc1cc(C)c(C)c(C(=O)[N-]CCN=c2cc[nH]cc2)c1 (optimized conformer: 44.31117493986691 kcal/mol)

>  <smiles>  (11) 
Cc1cc(C)c(C)c(C(=O)NCCN=c2cc[nH]cc2)c1

>  <score_type>  (11) 
oracle

>  <origin>  (11) 
adg

>  <m_score__min__energy>  (11) 
-9

>  <m_primary>  (11) 
energy

$$$$
11:0
     RDKit          3D

 37 38  0  0  0  0  0  0  0  0999 V2000
   54.8880   26.3450   45.9990 O   0  0  0  0  0  0  0  0  0  0  0  0
   55.9940   26.9160   45.7910 C   0  0  0  0  0  0  0  0  0  0  0  0
   56.0280   28.2400   45.2560 N   0  0  0  0  0  0  0  0  0  0  0  0
   56.9150   28.6280   44.1670 C   0  0  0  0  0  0  0  0  0  0  0  0
   58.1490   29.3270   44.7350 C   0  0  0  0  0  0  0  0  0  0  0  0
   58.3370   30.7130   44.1060 C   0  0  0  0  0  0  0  0  0  0  0  0
   57.5490   31.7520   44.8600 C   0  0  0  0  0  0  0  0  0  0  0  0
   56.2910   31.6840   44.8130 O   0  0  0  0  0  0  0  0  0  0  0  0
   58.1950   32.8600   45.6200 C   0  0  0  0  0  0  0  0  0  0  0  0
   58.7170   34.0000   44.9730 C   0  0  0  0  0  0  0  0  0  0  0  0
   59.3150   35.0250   45.7130 C   0  0  0  0  0  0  0  0  0  0  0  0
   59.4020   34.9300   47.1030 C   0  0  0  0  0  0  0  0  0  0  0  0
   58.8890   33.8080   47.7580 C   0  0  0  0  0  0  0  0  0  0  0  0
   58.2900   32.7810   47.0250 C   0  0  0  0  0  0  0  0  0  0  0  0
   57.2260   26.2720   46.1320 N   0  0  0  0  0  0  0  0  0  0  0  0
   58.3420   26.8670   46.8120 C   0  0  0  0  0  0  0  0  0  0  0  0
   59.5850   26.2220   46.7530 C   0  0  0  0  0  0  0  0  0  0  0  0
   60.6920   26.7570   47.4180 C   0  0  0  0  0  0  0  0  0  0  0  0
   60.5630   27.9330   48.1600 C   0  0  0  0  0  0  0  0  0  0  0  0
   59.3210   28.5720   48.2470 C   0  0  0  0  0  0  0  0  0  0  0  0
   59.1520   30.0330   49.2030 Cl  0  0  0  0  0  0  0  0  0  0  0  0
   58.2110   28.0380   47.5820 C   0  0  0  0  0  0  0  0  0  0  0  0
   57.2258   27.7313   43.6109 H   0  0  0  0  0  0  0  0  0  0  0  0
   56.3847   29.3151   43.4913 H   0  0  0  0  0  0  0  0  0  0  0  0
   58.0295   29.4393   45.8227 H   0  0  0  0  0  0  0  0  0  0  0  0
   59.0339   28.7157   44.5044 H   0  0  0  0  0  0  0  0  0  0  0  0
   59.4039   30.9797   44.1324 H   0  0  0  0  0  0  0  0  0  0  0  0
   57.9767   30.6814   43.0672 H   0  0  0  0  0  0  0  0  0  0  0  0
   58.6531   34.0832   43.8780 H   0  0  0  0  0  0  0  0  0  0  0  0
   59.7183   35.9093   45.1979 H   0  0  0  0  0  0  0  0  0  0  0  0
   59.8739   35.7377   47.6817 H   0  0  0  0  0  0  0  0  0  0  0  0
   58.9569   33.7331   48.8533 H   0  0  0  0  0  0  0  0  0  0  0  0
   57.8881   31.9013   47.5490 H   0  0  0  0  0  0  0  0  0  0  0  0
   59.6900   25.2890   46.1798 H   0  0  0  0  0  0  0  0  0  0  0  0
   61.6666   26.2507   47.3567 H   0  0  0  0  0  0  0  0  0  0  0  0
   61.4372   28.3569   48.6758 H   0  0  0  0  0  0  0  0  0  0  0  0
   57.2330   28.5352   47.6614 H   0  0  0  0  0  0  0  0  0  0  0  0
  1  2  2  0
  2  3  1  0
  3  4  1  0
  4  5  1  0
  5  6  1  0
  6  7  1  0
  7  8  2  0
  7  9  1  0
  9 10  2  0
 10 11  1  0
 11 12  2  0
 12 13  1  0
 13 14  2  0
  2 15  1  0
 15 16  1  0
 16 17  2  0
 17 18  1  0
 18 19  2  0
 19 20  1  0
 20 21  1  0
 20 22  2  0
 14  9  1  0
 22 16  1  0
  4 23  1  0
  4 24  1  0
  5 25  1  0
  5 26  1  0
  6 27  1  0
  6 28  1  0
 10 29  1  0
 11 30  1  0
 12 31  1  0
 13 32  1  0
 14 33  1  0
 17 34  1  0
 18 35  1  0
 19 36  1  0
 22 37  1  0
M  CHG  2   3  -1  15  -1
M  END
>  <UniqueID>  (12) 
12

>  <SMILES>  (12) 
O=C([N-]CCCC(=O)c1ccccc1)[N-]c1cccc(Cl)c1

>  <Energy>  (12) 
35.19849538307978

>  <Genealogy>  (12) 
O=C([N-]CCCC(=O)c1ccccc1)[N-]c1cccc(Cl)c1 (protonated)
O=C([N-]CCCC(=O)c1ccccc1)[N-]c1cccc(Cl)c1 (3D coordinates assigned)
O=C([N-]CCCC(=O)c1ccccc1)[N-]c1cccc(Cl)c1 (optimized conformer: 35.19849538307978 kcal/mol)

>  <smiles>  (12) 
O=C(NCCCC(=O)c1ccccc1)Nc1cccc(Cl)c1

>  <score_type>  (12) 
oracle

>  <origin>  (12) 
adg

>  <m_score__min__energy>  (12) 
-12.029999999999999

>  <m_primary>  (12) 
energy

$$$$
12:0
     RDKit          3D

 60 63  0  0  0  0  0  0  0  0999 V2000
   55.2920   29.3630   51.9810 O   0  0  0  0  0  0  0  0  0  0  0  0
   54.9590   30.5370   51.6630 C   0  0  0  0  0  0  0  0  0  0  0  0
   55.9390   31.5860   51.6240 N   0  0  0  0  0  0  0  0  0  0  0  0
   57.3550   31.3620   51.7300 C   0  0  0  0  0  0  0  0  0  0  0  0
   57.8840   30.8670   52.9310 C   0  0  0  0  0  0  0  0  0  0  0  0
   59.2560   30.6400   53.0590 C   0  0  0  0  0  0  0  0  0  0  0  0
   60.1150   30.9200   51.9950 C   0  0  0  0  0  0  0  0  0  0  0  0
   59.6090   31.4480   50.7980 C   0  0  0  0  0  0  0  0  0  0  0  0
   60.5410   31.7390   49.6510 C   0  0  0  0  0  0  0  0  0  0  0  0
   61.1350   30.4890   49.1250 N   0  0  0  0  0  0  0  0  0  0  0  0
   60.2860   29.2980   49.3560 C   0  0  0  0  0  0  0  0  0  0  0  0
   59.0100   29.2960   48.4890 C   0  0  0  0  0  0  0  0  0  0  0  0
   59.2350   29.9280   47.0960 C   0  0  0  0  0  0  0  0  0  0  0  0
   58.3640   29.2730   46.0590 C   0  0  0  0  0  0  0  0  0  0  0  0
   57.8520   28.1420   46.2850 O   0  0  0  0  0  0  0  0  0  0  0  0
   58.1080   29.9480   44.8250 N   0  0  0  0  0  0  0  0  0  0  0  0
   56.8440   30.6080   44.5020 C   0  0  0  0  0  0  0  0  0  0  0  0
   56.5240   30.4180   43.0000 C   0  0  0  0  0  0  0  0  0  0  0  0
   57.0120   31.5760   42.1040 C   0  0  0  0  0  0  0  0  0  0  0  0
   58.2640   32.2510   42.6720 C   0  0  0  0  0  0  0  0  0  0  0  0
   58.0140   32.8420   44.0750 C   0  0  0  0  0  0  0  0  0  0  0  0
   56.9150   32.1030   44.8660 C   0  0  0  0  0  0  0  0  0  0  0  0
   60.7120   29.8630   46.6920 C   0  0  0  0  0  0  0  0  0  0  0  0
   61.5940   30.6110   47.7140 C   0  0  0  0  0  0  0  0  0  0  0  0
   58.2270   31.6710   50.6720 C   0  0  0  0  0  0  0  0  0  0  0  0
   53.5450   30.8320   51.3780 C   0  0  0  0  0  0  0  0  0  0  0  0
   52.7030   30.0420   50.6110 C   0  0  0  0  0  0  0  0  0  0  0  0
   51.4800   30.6760   50.6060 C   0  0  0  0  0  0  0  0  0  0  0  0
   51.6480   31.8120   51.3650 C   0  0  0  0  0  0  0  0  0  0  0  0
   50.6510   32.7450   51.6210 O   0  0  0  0  0  0  0  0  0  0  0  0
   52.9020   31.9220   51.8430 N   0  0  0  0  0  0  0  0  0  0  0  0
   55.6020   32.5750   51.6280 H   0  0  0  0  0  0  0  0  0  0  0  0
   57.2139   30.6562   53.7775 H   0  0  0  0  0  0  0  0  0  0  0  0
   59.6606   30.2397   54.0003 H   0  0  0  0  0  0  0  0  0  0  0  0
   61.1930   30.7258   52.0956 H   0  0  0  0  0  0  0  0  0  0  0  0
   59.9789   32.2371   48.8473 H   0  0  0  0  0  0  0  0  0  0  0  0
   61.3514   32.3894   50.0119 H   0  0  0  0  0  0  0  0  0  0  0  0
   60.8722   28.3975   49.1206 H   0  0  0  0  0  0  0  0  0  0  0  0
   59.9704   29.3156   50.4096 H   0  0  0  0  0  0  0  0  0  0  0  0
   58.6776   28.2561   48.3543 H   0  0  0  0  0  0  0  0  0  0  0  0
   58.2529   29.9004   49.0101 H   0  0  0  0  0  0  0  0  0  0  0  0
   58.9489   30.9883   47.1582 H   0  0  0  0  0  0  0  0  0  0  0  0
   56.0351   30.1524   45.0921 H   0  0  0  0  0  0  0  0  0  0  0  0
   57.0051   29.4896   42.6584 H   0  0  0  0  0  0  0  0  0  0  0  0
   55.4283   30.3847   42.9093 H   0  0  0  0  0  0  0  0  0  0  0  0
   57.2448   31.1786   41.1051 H   0  0  0  0  0  0  0  0  0  0  0  0
   56.2117   32.3291   42.0554 H   0  0  0  0  0  0  0  0  0  0  0  0
   59.0703   31.5057   42.7388 H   0  0  0  0  0  0  0  0  0  0  0  0
   58.5407   33.0762   41.9994 H   0  0  0  0  0  0  0  0  0  0  0  0
   58.9515   32.7881   44.6478 H   0  0  0  0  0  0  0  0  0  0  0  0
   57.6709   33.8775   43.9339 H   0  0  0  0  0  0  0  0  0  0  0  0
   57.1283   32.1964   45.9411 H   0  0  0  0  0  0  0  0  0  0  0  0
   55.9479   32.5601   44.6094 H   0  0  0  0  0  0  0  0  0  0  0  0
   61.0272   28.8101   46.6462 H   0  0  0  0  0  0  0  0  0  0  0  0
   60.8295   30.3414   45.7085 H   0  0  0  0  0  0  0  0  0  0  0  0
   62.6153   30.2077   47.6479 H   0  0  0  0  0  0  0  0  0  0  0  0
   61.5383   31.6789   47.4560 H   0  0  0  0  0  0  0  0  0  0  0  0
   57.8248   32.0906   49.7381 H   0  0  0  0  0  0  0  0  0  0  0  0
   52.9598   29.0983   50.1075 H   0  0  0  0  0  0  0  0  0  0  0  0
   50.5610   30.3438   50.1009 H   0  0  0  0  0  0  0  0  0  0  0  0
  1  2  2  0
  2  3  1  0
  3  4  1  0
  4  5  2  0
  5  6  1  0
  6  7  2  0
  7  8  1  0
  8  9  1  0
  9 10  1  0
 10 11  1  0
 11 12  1  0
 12 13  1  0
 13 14  1  0
 14 15  2  0
 14 16  1  0
 16 17  1  0
 17 18  1  0
 18 19  1  0
 19 20  1  0
 20 21  1  0
 21 22  1  0
 13 23  1  0
 23 24  1  0
  8 25  2  0
  2 26  1  0
 26 27  2  0
 27 28  1  0
 28 29  2  0
 29 30  1  0
 29 31  1  0
 25  4  1  0
 31 26  1  0
 24 10  1  0
 22 17  1  0
  3 32  1  0
  5 33  1  0
  6 34  1  0
  7 35  1  0
  9 36  1  0
  9 37  1  0
 11 38  1  0
 11 39  1  0
 12 40  1  0
 12 41  1  0
 13 42  1  0
 17 43  1  0
 18 44  1  0
 18 45  1  0
 19 46  1  0
 19 47  1  0
 20 48  1  0
 20 49  1  0
 21 50  1  0
 21 51  1  0
 22 52  1  0
 22 53  1  0
 23 54  1  0
 23 55  1  0
 24 56  1  0
 24 57  1  0
 25 58  1  0
 27 59  1  0
 28 60  1  0
M  CHG  3  16  -1  30  -1  31  -1
M  END
>  <UniqueID>  (13) 
13

>  <SMILES>  (13) 
O=C(Nc1cccc(CN2CCC(C(=O)[N-]C3CCCCC3)CC2)c1)c1ccc([O-])[n-]1

>  <Energy>  (13) 
98.19593746009951

>  <Genealogy>  (13) 
O=C(Nc1cccc(CN2CCC(C(=O)[N-]C3CCCCC3)CC2)c1)c1ccc([O-])[n-]1 (protonated)
O=C(Nc1cccc(CN2CCC(C(=O)[N-]C3CCCCC3)CC2)c1)c1ccc([O-])[n-]1 (3D coordinates assigned)
O=C(Nc1cccc(CN2CCC(C(=O)[N-]C3CCCCC3)CC2)c1)c1ccc([O-])[n-]1 (nonaromatic ring conformer: 98.19593746009951 kcal/mol)

>  <smiles>  (13) 
O=C(Nc1cccc(CN2CCC(C(=O)NC3CCCCC3)CC2)c1)c1ccc(O)[nH]1

>  <score_type>  (13) 
oracle

>  <origin>  (13) 
adg

>  <m_score__min__energy>  (13) 
-16.940000000000001

>  <m_primary>  (13) 
energy

$$$$
13:0
     RDKit          3D

 50 53  0  0  0  0  0  0  0  0999 V2000
   59.7075   26.6182   46.8529 H   0  0  0  0  0  0  0  0  0  0  0  0
   59.4250   27.6750   46.7370 C   0  0  0  0  0  0  0  0  0  0  0  0
   58.4620   27.9660   45.8430 C   0  0  0  0  0  0  0  0  0  0  0  0
   57.1880   27.2860   45.9170 C   0  0  0  0  0  0  0  0  0  0  0  0
   56.1590   26.7420   45.9790 N   0  0  0  0  0  0  0  0  0  0  0  0
   58.6650   28.9030   44.7270 C   0  0  0  0  0  0  0  0  0  0  0  0
   59.1469   28.5428   43.8061 H   0  0  0  0  0  0  0  0  0  0  0  0
   58.2790   30.1810   44.8030 C   0  0  0  0  0  0  0  0  0  0  0  0
   58.2570   31.3130   43.3930 S   0  0  0  0  0  0  0  0  0  0  0  0
   57.7710   32.6130   44.5300 C   0  0  0  0  0  0  0  0  0  0  0  0
   57.5350   33.7830   44.1350 O   0  0  0  0  0  0  0  0  0  0  0  0
   57.6460   32.2320   45.9030 N   0  0  0  0  0  0  0  0  0  0  0  0
   57.3370   33.1590   46.9980 C   0  0  0  0  0  0  0  0  0  0  0  0
   57.1563   34.1611   46.5819 H   0  0  0  0  0  0  0  0  0  0  0  0
   56.4423   32.7961   47.5251 H   0  0  0  0  0  0  0  0  0  0  0  0
   58.4840   33.2300   47.9820 C   0  0  0  0  0  0  0  0  0  0  0  0
   58.4830   32.3760   49.1000 C   0  0  0  0  0  0  0  0  0  0  0  0
   57.6671   31.6500   49.2315 H   0  0  0  0  0  0  0  0  0  0  0  0
   59.5120   32.4430   50.0460 C   0  0  0  0  0  0  0  0  0  0  0  0
   59.5023   31.7704   50.9163 H   0  0  0  0  0  0  0  0  0  0  0  0
   60.5520   33.3630   49.8870 C   0  0  0  0  0  0  0  0  0  0  0  0
   61.5480   33.4260   50.8070 F   0  0  0  0  0  0  0  0  0  0  0  0
   60.5660   34.2180   48.7820 C   0  0  0  0  0  0  0  0  0  0  0  0
   61.3870   34.9396   48.6590 H   0  0  0  0  0  0  0  0  0  0  0  0
   59.5380   34.1610   47.8280 C   0  0  0  0  0  0  0  0  0  0  0  0
   59.6110   35.2670   46.4630 Cl  0  0  0  0  0  0  0  0  0  0  0  0
   57.9030   30.8380   46.0510 C   0  0  0  0  0  0  0  0  0  0  0  0
   57.7890   30.2400   47.1490 O   0  0  0  0  0  0  0  0  0  0  0  0
   60.1330   28.6670   47.5760 C   0  0  0  0  0  0  0  0  0  0  0  0
   60.3350   28.6730   48.9570 C   0  0  0  0  0  0  0  0  0  0  0  0
   59.9145   27.9464   49.6678 H   0  0  0  0  0  0  0  0  0  0  0  0
   61.1330   29.7190   49.2800 N   0  0  0  0  0  0  0  0  0  0  0  0
   61.5930   30.0380   50.6340 C   0  0  0  0  0  0  0  0  0  0  0  0
   60.9205   29.5717   51.3691 H   0  0  0  0  0  0  0  0  0  0  0  0
   62.6137   29.6529   50.7747 H   0  0  0  0  0  0  0  0  0  0  0  0
   61.5901   31.1290   50.7747 H   0  0  0  0  0  0  0  0  0  0  0  0
   61.4750   30.3620   48.1660 N   0  0  0  0  0  0  0  0  0  0  0  0
   62.3840   31.4740   48.0830 C   0  0  0  0  0  0  0  0  0  0  0  0
   62.2910   32.3880   47.0170 C   0  0  0  0  0  0  0  0  0  0  0  0
   61.5334   32.2396   46.2334 H   0  0  0  0  0  0  0  0  0  0  0  0
   63.1570   33.4840   46.9490 C   0  0  0  0  0  0  0  0  0  0  0  0
   63.0821   34.1936   46.1118 H   0  0  0  0  0  0  0  0  0  0  0  0
   64.1180   33.6770   47.9460 C   0  0  0  0  0  0  0  0  0  0  0  0
   64.8015   34.5372   47.8915 H   0  0  0  0  0  0  0  0  0  0  0  0
   64.2110   32.7750   49.0150 C   0  0  0  0  0  0  0  0  0  0  0  0
   64.9665   32.9294   49.7995 H   0  0  0  0  0  0  0  0  0  0  0  0
   63.3440   31.6780   49.0860 C   0  0  0  0  0  0  0  0  0  0  0  0
   63.4154   30.9751   49.9291 H   0  0  0  0  0  0  0  0  0  0  0  0
   60.8790   29.7410   47.1250 C   0  0  0  0  0  0  0  0  0  0  0  0
   61.0090   30.0920   45.9220 O   0  0  0  0  0  0  0  0  0  0  0  0
  1  2  1  0
  2  3  2  0
  3  4  1  0
  4  5  3  0
  3  6  1  0
  6  7  1  0
  6  8  2  0
  8  9  1  0
  9 10  1  0
 10 11  2  0
 10 12  1  0
 12 13  1  0
 13 14  1  0
 13 15  1  0
 13 16  1  0
 16 17  2  0
 17 18  1  0
 17 19  1  0
 19 20  1  0
 19 21  2  0
 21 22  1  0
 21 23  1  0
 23 24  1  0
 23 25  2  0
 25 26  1  0
 12 27  1  0
 27 28  2  0
  2 29  1  0
 29 30  2  0
 30 31  1  0
 30 32  1  0
 32 33  1  0
 33 34  1  0
 33 35  1  0
 33 36  1  0
 32 37  1  0
 37 38  1  0
 38 39  2  0
 39 40  1  0
 39 41  1  0
 41 42  1  0
 41 43  2  0
 43 44  1  0
 43 45  1  0
 45 46  1  0
 45 47  2  0
 47 48  1  0
 37 49  1  0
 49 50  2  0
 27  8  1  0
 49 29  1  0
 25 16  1  0
 47 38  1  0
M  END
>  <UniqueID>  (14) 
14

>  <SMILES>  (14) 
Cn1cc(C=C(C#N)/C=C2\SC(=O)N(Cc3ccc(F)cc3Cl)C2=O)c(=O)n1-c1ccccc1

>  <Energy>  (14) 
122.5939112816927

>  <Genealogy>  (14) 
Cn1cc(C=C(C#N)/C=C2\SC(=O)N(Cc3ccc(F)cc3Cl)C2=O)c(=O)n1-c1ccccc1 (cis-trans isomerization)
Cn1cc(C=C(C#N)/C=C2\SC(=O)N(Cc3ccc(F)cc3Cl)C2=O)c(=O)n1-c1ccccc1 (3D coordinates assigned)
Cn1cc(C=C(C#N)/C=C2\SC(=O)N(Cc3ccc(F)cc3Cl)C2=O)c(=O)n1-c1ccccc1 (nonaromatic ring conformer: 122.5939112816927 kcal/mol)

>  <smiles>  (14) 
Cn1cc(C=C(C#N)C=C2SC(=O)N(Cc3ccc(F)cc3Cl)C2=O)c(=O)n1-c1ccccc1

>  <score_type>  (14) 
oracle

>  <origin>  (14) 
adg

>  <m_score__min__energy>  (14) 
-10.24

>  <m_primary>  (14) 
energy

$$$$
14:0
     RDKit          3D

 38 40  0  0  0  0  0  0  0  0999 V2000
   59.1400   33.9320   52.1100 N   0  0  0  0  0  0  0  0  0  0  0  0
   59.5020   32.8900   51.7620 C   0  0  0  0  0  0  0  0  0  0  0  0
   59.9540   31.5910   51.3280 C   0  0  0  0  0  0  0  0  0  0  0  0
   61.2460   31.4560   50.8010 C   0  0  0  0  0  0  0  0  0  0  0  0
   61.7120   30.2020   50.3960 C   0  0  0  0  0  0  0  0  0  0  0  0
   60.8940   29.0770   50.5190 C   0  0  0  0  0  0  0  0  0  0  0  0
   59.6050   29.2020   51.0440 C   0  0  0  0  0  0  0  0  0  0  0  0
   59.1250   30.4570   51.4490 C   0  0  0  0  0  0  0  0  0  0  0  0
   57.7960   30.5680   51.9810 N   0  0  0  0  0  0  0  0  0  0  0  0
   57.4770   29.9630   53.2770 C   0  0  0  0  0  0  0  0  0  0  0  0
   56.0730   29.3560   53.2370 C   0  0  0  0  0  0  0  0  0  0  0  0
   55.0880   30.2940   52.6750 N   0  0  0  0  0  0  0  0  0  0  0  0
   53.6880   29.9670   52.7890 C   0  0  0  0  0  0  0  0  0  0  0  0
   53.3390   28.7550   52.8620 O   0  0  0  0  0  0  0  0  0  0  0  0
   52.6260   31.0360   52.7820 C   0  0  0  0  0  0  0  0  0  0  0  0
   52.0350   31.2100   51.4160 C   0  0  0  0  0  0  0  0  0  0  0  0
   52.0830   30.2800   50.4470 N   0  0  0  0  0  0  0  0  0  0  0  0
   51.3860   30.8480   49.4380 C   0  0  0  0  0  0  0  0  0  0  0  0
   51.2080   30.2760   48.3310 O   0  0  0  0  0  0  0  0  0  0  0  0
   50.8890   32.0750   49.7110 N   0  0  0  0  0  0  0  0  0  0  0  0
   51.3050   32.2860   50.9690 C   0  0  0  0  0  0  0  0  0  0  0  0
   51.0200   33.4340   51.6960 O   0  0  0  0  0  0  0  0  0  0  0  0
   55.5260   31.5730   52.0960 C   0  0  0  0  0  0  0  0  0  0  0  0
   56.8070   31.3890   51.2730 C   0  0  0  0  0  0  0  0  0  0  0  0
   61.8947   32.3392   50.7060 H   0  0  0  0  0  0  0  0  0  0  0  0
   62.7251   30.1011   49.9796 H   0  0  0  0  0  0  0  0  0  0  0  0
   61.2648   28.0910   50.2022 H   0  0  0  0  0  0  0  0  0  0  0  0
   58.9641   28.3132   51.1402 H   0  0  0  0  0  0  0  0  0  0  0  0
   58.2094   29.1735   53.5011 H   0  0  0  0  0  0  0  0  0  0  0  0
   57.5146   30.7375   54.0572 H   0  0  0  0  0  0  0  0  0  0  0  0
   56.0950   28.4484   52.6160 H   0  0  0  0  0  0  0  0  0  0  0  0
   55.7722   29.1218   54.2688 H   0  0  0  0  0  0  0  0  0  0  0  0
   51.8279   30.7523   53.4839 H   0  0  0  0  0  0  0  0  0  0  0  0
   53.0899   31.9871   53.0824 H   0  0  0  0  0  0  0  0  0  0  0  0
   54.7315   31.9642   51.4436 H   0  0  0  0  0  0  0  0  0  0  0  0
   55.7317   32.2782   52.9148 H   0  0  0  0  0  0  0  0  0  0  0  0
   56.5520   30.8983   50.3221 H   0  0  0  0  0  0  0  0  0  0  0  0
   57.2477   32.3818   51.0996 H   0  0  0  0  0  0  0  0  0  0  0  0
  1  2  3  0
  2  3  1  0
  3  4  2  0
  4  5  1  0
  5  6  2  0
  6  7  1  0
  7  8  2  0
  8  9  1  0
  9 10  1  0
 10 11  1  0
 11 12  1  0
 12 13  1  0
 13 14  2  0
 13 15  1  0
 15 16  1  0
 16 17  1  0
 17 18  1  0
 18 19  2  0
 18 20  1  0
 20 21  1  0
 21 22  1  0
 12 23  1  0
 23 24  1  0
  8  3  1  0
 24  9  1  0
 21 16  2  0
  4 25  1  0
  5 26  1  0
  6 27  1  0
  7 28  1  0
 10 29  1  0
 10 30  1  0
 11 31  1  0
 11 32  1  0
 15 33  1  0
 15 34  1  0
 23 35  1  0
 23 36  1  0
 24 37  1  0
 24 38  1  0
M  CHG  3  17  -1  20  -1  22  -1
M  END
>  <UniqueID>  (15) 
15

>  <SMILES>  (15) 
N#Cc1ccccc1N1CCN(C(=O)Cc2[n-]c(=O)[n-]c2[O-])CC1

>  <Energy>  (15) 
73.80314502393213

>  <Genealogy>  (15) 
N#Cc1ccccc1N1CCN(C(=O)Cc2[n-]c(=O)[n-]c2[O-])CC1 (protonated)
N#Cc1ccccc1N1CCN(C(=O)Cc2[n-]c(=O)[n-]c2[O-])CC1 (3D coordinates assigned)
N#Cc1ccccc1N1CCN(C(=O)Cc2[n-]c(=O)[n-]c2[O-])CC1 (nonaromatic ring conformer: 73.80314502393213 kcal/mol)

>  <smiles>  (15) 
N#Cc1ccccc1N1CCN(C(=O)Cc2[nH]c(=O)[nH]c2O)CC1

>  <score_type>  (15) 
oracle

>  <origin>  (15) 
adg

>  <m_score__min__energy>  (15) 
-15.34

>  <m_primary>  (15) 
energy

$$$$
15:0
     RDKit          3D

 43 45  0  0  0  0  0  0  0  0999 V2000
   56.9010   30.6200   44.9710 O   0  0  0  0  0  0  0  0  0  0  0  0
   57.8960   29.9160   44.6520 C   0  0  0  0  0  0  0  0  0  0  0  0
   57.7090   28.7670   43.7070 C   0  0  0  0  0  0  0  0  0  0  0  0
   58.0420   27.4450   44.4030 C   0  0  0  0  0  0  0  0  0  0  0  0
   58.0890   27.6190   45.9280 C   0  0  0  0  0  0  0  0  0  0  0  0
   57.7970   26.3090   46.6730 C   0  0  0  0  0  0  0  0  0  0  0  0
   56.8560   25.4260   45.9020 C   0  0  0  0  0  0  0  0  0  0  0  0
   55.4880   25.6020   45.7370 C   0  0  0  0  0  0  0  0  0  0  0  0
   54.7660   26.6820   46.2250 O   0  0  0  0  0  0  0  0  0  0  0  0
   54.9180   24.5870   45.0450 N   0  0  0  0  0  0  0  0  0  0  0  0
   55.9440   23.7560   44.7790 C   0  0  0  0  0  0  0  0  0  0  0  0
   55.8740   22.5430   44.0960 C   0  0  0  0  0  0  0  0  0  0  0  0
   57.0600   21.8030   43.9370 C   0  0  0  0  0  0  0  0  0  0  0  0
   58.2790   22.2850   44.4610 C   0  0  0  0  0  0  0  0  0  0  0  0
   58.3240   23.5120   45.1460 C   0  0  0  0  0  0  0  0  0  0  0  0
   57.1320   24.2260   45.2840 C   0  0  0  0  0  0  0  0  0  0  0  0
   59.2150   30.2600   45.1060 N   0  0  0  0  0  0  0  0  0  0  0  0
   59.4880   31.2570   46.1050 C   0  0  0  0  0  0  0  0  0  0  0  0
   60.7330   31.2620   46.7490 C   0  0  0  0  0  0  0  0  0  0  0  0
   61.0180   32.2060   47.7400 C   0  0  0  0  0  0  0  0  0  0  0  0
   60.0540   33.1570   48.1160 C   0  0  0  0  0  0  0  0  0  0  0  0
   60.3570   34.1540   49.1660 C   0  0  0  0  0  0  0  0  0  0  0  0
   59.4510   34.5660   49.9390 O   0  0  0  0  0  0  0  0  0  0  0  0
   61.6470   34.6510   49.3130 O   0  0  0  0  0  0  0  0  0  0  0  0
   58.7960   33.1370   47.4870 C   0  0  0  0  0  0  0  0  0  0  0  0
   58.5130   32.1910   46.4960 C   0  0  0  0  0  0  0  0  0  0  0  0
   56.6633   28.7441   43.3665 H   0  0  0  0  0  0  0  0  0  0  0  0
   58.3832   28.8979   42.8477 H   0  0  0  0  0  0  0  0  0  0  0  0
   57.2715   26.7018   44.1499 H   0  0  0  0  0  0  0  0  0  0  0  0
   59.0314   27.1090   44.0593 H   0  0  0  0  0  0  0  0  0  0  0  0
   59.0910   27.9723   46.2130 H   0  0  0  0  0  0  0  0  0  0  0  0
   57.3121   28.3457   46.2079 H   0  0  0  0  0  0  0  0  0  0  0  0
   58.7430   25.7701   46.8297 H   0  0  0  0  0  0  0  0  0  0  0  0
   57.3213   26.5601   47.6325 H   0  0  0  0  0  0  0  0  0  0  0  0
   54.9190   22.1749   43.6929 H   0  0  0  0  0  0  0  0  0  0  0  0
   57.0373   20.8427   43.4010 H   0  0  0  0  0  0  0  0  0  0  0  0
   59.1996   21.6968   44.3325 H   0  0  0  0  0  0  0  0  0  0  0  0
   59.2677   23.8970   45.5598 H   0  0  0  0  0  0  0  0  0  0  0  0
   60.0270   29.8300   44.6090 H   0  0  0  0  0  0  0  0  0  0  0  0
   61.4928   30.5163   46.4721 H   0  0  0  0  0  0  0  0  0  0  0  0
   62.0035   32.2044   48.2288 H   0  0  0  0  0  0  0  0  0  0  0  0
   58.0291   33.8706   47.7765 H   0  0  0  0  0  0  0  0  0  0  0  0
   57.5215   32.1780   46.0199 H   0  0  0  0  0  0  0  0  0  0  0  0
  1  2  2  0
  2  3  1  0
  3  4  1  0
  4  5  1  0
  5  6  1  0
  6  7  1  0
  7  8  2  0
  8  9  1  0
  8 10  1  0
 10 11  1  0
 11 12  2  0
 12 13  1  0
 13 14  2  0
 14 15  1  0
 15 16  2  0
  2 17  1  0
 17 18  1  0
 18 19  2  0
 19 20  1  0
 20 21  2  0
 21 22  1  0
 22 23  2  0
 22 24  1  0
 21 25  1  0
 25 26  2  0
 16  7  1  0
 26 18  1  0
 16 11  1  0
  3 27  1  0
  3 28  1  0
  4 29  1  0
  4 30  1  0
  5 31  1  0
  5 32  1  0
  6 33  1  0
  6 34  1  0
 12 35  1  0
 13 36  1  0
 14 37  1  0
 15 38  1  0
 17 39  1  0
 19 40  1  0
 20 41  1  0
 25 42  1  0
 26 43  1  0
M  CHG  3   9  -1  10  -1  24  -1
M  END
>  <UniqueID>  (16) 
16

>  <SMILES>  (16) 
O=C(CCCCc1c([O-])[n-]c2ccccc12)Nc1ccc(C(=O)[O-])cc1

>  <Energy>  (16) 
73.2146743945435

>  <Genealogy>  (16) 
O=C(CCCCc1c([O-])[n-]c2ccccc12)Nc1ccc(C(=O)[O-])cc1 (protonated)
O=C(CCCCc1c([O-])[n-]c2ccccc12)Nc1ccc(C(=O)[O-])cc1 (3D coordinates assigned)
O=C(CCCCc1c([O-])[n-]c2ccccc12)Nc1ccc(C(=O)[O-])cc1 (optimized conformer: 73.2146743945435 kcal/mol)

>  <smiles>  (16) 
O=C(CCCCc1c(O)[nH]c2ccccc12)Nc1ccc(C(=O)O)cc1

>  <score_type>  (16) 
oracle

>  <origin>  (16) 
adg

>  <m_score__min__energy>  (16) 
-15.33

>  <m_primary>  (16) 
energy

$$$$
16:0
     RDKit          3D

 29 29  0  0  0  0  0  0  0  0999 V2000
   60.9920   33.8660   46.3430 C   0  0  0  0  0  0  0  0  0  0  0  0
   60.0660   34.1060   47.4950 C   0  0  0  0  0  0  0  0  0  0  0  0
   58.7260   34.1150   47.4150 C   0  0  0  0  0  0  0  0  0  0  0  0
   57.9060   33.3290   46.4630 C   0  0  0  0  0  0  0  0  0  0  0  0
   56.7540   33.7140   46.1280 O   0  0  0  0  0  0  0  0  0  0  0  0
   58.4450   32.1110   45.9210 N   0  0  0  0  0  0  0  0  0  0  0  0
   57.7540   31.2660   44.9910 C   0  0  0  0  0  0  0  0  0  0  0  0
   56.6070   31.5770   44.5660 O   0  0  0  0  0  0  0  0  0  0  0  0
   58.3790   30.0970   44.5420 O   0  0  0  0  0  0  0  0  0  0  0  0
   58.3770   28.8970   45.2630 C   0  0  0  0  0  0  0  0  0  0  0  0
   59.5900   28.4380   45.7840 C   0  0  0  0  0  0  0  0  0  0  0  0
   59.6480   27.2290   46.4730 C   0  0  0  0  0  0  0  0  0  0  0  0
   58.4930   26.4690   46.6530 C   0  0  0  0  0  0  0  0  0  0  0  0
   57.2520   26.9180   46.1640 C   0  0  0  0  0  0  0  0  0  0  0  0
   56.0380   26.0890   46.3880 C   0  0  0  0  0  0  0  0  0  0  0  0
   54.9040   26.5110   46.0330 O   0  0  0  0  0  0  0  0  0  0  0  0
   56.1210   24.8430   46.9970 O   0  0  0  0  0  0  0  0  0  0  0  0
   57.1910   28.1590   45.4830 C   0  0  0  0  0  0  0  0  0  0  0  0
   55.9570   28.6610   45.0660 O   0  0  0  0  0  0  0  0  0  0  0  0
   61.9911   33.6071   46.7234 H   0  0  0  0  0  0  0  0  0  0  0  0
   60.6072   33.0379   45.7296 H   0  0  0  0  0  0  0  0  0  0  0  0
   61.0579   34.7767   45.7296 H   0  0  0  0  0  0  0  0  0  0  0  0
   60.5178   34.2887   48.4811 H   0  0  0  0  0  0  0  0  0  0  0  0
   58.1875   34.7650   48.1203 H   0  0  0  0  0  0  0  0  0  0  0  0
   59.3990   31.8100   46.2230 H   0  0  0  0  0  0  0  0  0  0  0  0
   60.5040   29.0350   45.6491 H   0  0  0  0  0  0  0  0  0  0  0  0
   60.6075   26.8728   46.8762 H   0  0  0  0  0  0  0  0  0  0  0  0
   58.5524   25.5072   47.1834 H   0  0  0  0  0  0  0  0  0  0  0  0
   55.1410   28.0770   44.9380 H   0  0  0  0  0  0  0  0  0  0  0  0
  1  2  1  0
  2  3  2  3
  3  4  1  0
  4  5  2  0
  4  6  1  0
  6  7  1  0
  7  8  2  0
  7  9  1  0
  9 10  1  0
 10 11  2  0
 11 12  1  0
 12 13  2  0
 13 14  1  0
 14 15  1  0
 15 16  2  0
 15 17  1  0
 14 18  2  0
 18 19  1  0
 18 10  1  0
  1 20  1  0
  1 21  1  0
  1 22  1  0
  2 23  1  0
  3 24  1  0
  6 25  1  0
 11 26  1  0
 12 27  1  0
 13 28  1  0
 19 29  1  0
M  CHG  1  17  -1
M  END
>  <UniqueID>  (17) 
17

>  <SMILES>  (17) 
CC=CC(=O)NC(=O)Oc1cccc(C(=O)[O-])c1O

>  <Energy>  (17) 
36.35282279901038

>  <Genealogy>  (17) 
CC=CC(=O)NC(=O)Oc1cccc(C(=O)[O-])c1O (protonated)
CC=CC(=O)NC(=O)Oc1cccc(C(=O)[O-])c1O (3D coordinates assigned)
CC=CC(=O)NC(=O)Oc1cccc(C(=O)[O-])c1O (optimized conformer: 36.35282279901038 kcal/mol)

>  <smiles>  (17) 
CC=CC(=O)NC(=O)Oc1cccc(C(=O)O)c1O

>  <score_type>  (17) 
oracle

>  <origin>  (17) 
adg

>  <m_score__min__energy>  (17) 
-10.85

>  <m_primary>  (17) 
energy

$$$$
17:0
     RDKit          3D

 43 44  0  0  0  0  0  0  0  0999 V2000
   60.4610   34.0110   46.0100 C   0  0  0  0  0  0  0  0  0  0  0  0
   61.5510   33.8050   47.0260 C   0  0  0  0  0  0  0  0  0  0  0  0
   62.8620   33.5370   46.5940 C   0  0  0  0  0  0  0  0  0  0  0  0
   63.8830   33.3190   47.5230 C   0  0  0  0  0  0  0  0  0  0  0  0
   63.6060   33.3610   48.8900 C   0  0  0  0  0  0  0  0  0  0  0  0
   62.3100   33.6310   49.3330 C   0  0  0  0  0  0  0  0  0  0  0  0
   61.2820   33.8740   48.4120 C   0  0  0  0  0  0  0  0  0  0  0  0
   59.6270   34.2150   49.0370 S   0  0  0  0  0  0  0  0  0  0  0  0
   59.6860   32.9960   50.4060 C   0  0  0  0  0  0  0  0  0  0  0  0
   59.2710   31.5850   49.9690 C   0  0  0  0  0  0  0  0  0  0  0  0
   60.4570   30.7550   49.4630 C   0  0  0  0  0  0  0  0  0  0  0  0
   60.1300   30.1420   48.1350 C   0  0  0  0  0  0  0  0  0  0  0  0
   60.1330   30.8640   47.1020 O   0  0  0  0  0  0  0  0  0  0  0  0
   59.8190   28.7420   48.0520 N   0  0  0  0  0  0  0  0  0  0  0  0
   59.2630   28.1040   46.8890 C   0  0  0  0  0  0  0  0  0  0  0  0
   59.7350   28.3970   45.5970 C   0  0  0  0  0  0  0  0  0  0  0  0
   59.1620   27.7800   44.4810 C   0  0  0  0  0  0  0  0  0  0  0  0
   58.1050   26.8820   44.6420 C   0  0  0  0  0  0  0  0  0  0  0  0
   57.6050   26.6060   45.9210 C   0  0  0  0  0  0  0  0  0  0  0  0
   56.2730   25.4710   46.1240 S   0  0  0  0  0  0  0  0  0  0  0  0
   54.7710   26.3150   45.9930 N   0  0  0  0  0  0  0  0  0  0  0  0
   56.3640   24.8170   47.4740 O   0  0  0  0  0  0  0  0  0  0  0  0
   56.3440   24.4050   45.0650 O   0  0  0  0  0  0  0  0  0  0  0  0
   58.1850   27.2190   47.0400 C   0  0  0  0  0  0  0  0  0  0  0  0
   59.5070   34.1913   46.5271 H   0  0  0  0  0  0  0  0  0  0  0  0
   60.7062   34.8787   45.3799 H   0  0  0  0  0  0  0  0  0  0  0  0
   60.3727   33.1137   45.3799 H   0  0  0  0  0  0  0  0  0  0  0  0
   63.0854   33.4987   45.5176 H   0  0  0  0  0  0  0  0  0  0  0  0
   64.9065   33.1140   47.1761 H   0  0  0  0  0  0  0  0  0  0  0  0
   64.4097   33.1812   49.6192 H   0  0  0  0  0  0  0  0  0  0  0  0
   62.0944   33.6532   50.4114 H   0  0  0  0  0  0  0  0  0  0  0  0
   60.7142   32.9546   50.7947 H   0  0  0  0  0  0  0  0  0  0  0  0
   58.9706   33.3272   51.1732 H   0  0  0  0  0  0  0  0  0  0  0  0
   58.8195   31.0679   50.8285 H   0  0  0  0  0  0  0  0  0  0  0  0
   58.5567   31.6884   49.1389 H   0  0  0  0  0  0  0  0  0  0  0  0
   61.3370   31.4063   49.3559 H   0  0  0  0  0  0  0  0  0  0  0  0
   60.6690   29.9536   50.1860 H   0  0  0  0  0  0  0  0  0  0  0  0
   60.0800   28.1370   48.8650 H   0  0  0  0  0  0  0  0  0  0  0  0
   60.5582   29.1144   45.4640 H   0  0  0  0  0  0  0  0  0  0  0  0
   59.5447   28.0024   43.4740 H   0  0  0  0  0  0  0  0  0  0  0  0
   57.6639   26.3902   43.7625 H   0  0  0  0  0  0  0  0  0  0  0  0
   54.7970   27.0940   46.6890 H   0  0  0  0  0  0  0  0  0  0  0  0
   57.7918   27.0045   48.0447 H   0  0  0  0  0  0  0  0  0  0  0  0
  1  2  1  0
  2  3  2  0
  3  4  1  0
  4  5  2  0
  5  6  1  0
  6  7  2  0
  7  8  1  0
  8  9  1  0
  9 10  1  0
 10 11  1  0
 11 12  1  0
 12 13  2  0
 12 14  1  0
 14 15  1  0
 15 16  2  0
 16 17  1  0
 17 18  2  0
 18 19  1  0
 19 20  1  0
 20 21  1  0
 20 22  2  0
 20 23  2  0
 19 24  2  0
  7  2  1  0
 24 15  1  0
  1 25  1  0
  1 26  1  0
  1 27  1  0
  3 28  1  0
  4 29  1  0
  5 30  1  0
  6 31  1  0
  9 32  1  0
  9 33  1  0
 10 34  1  0
 10 35  1  0
 11 36  1  0
 11 37  1  0
 14 38  1  0
 16 39  1  0
 17 40  1  0
 18 41  1  0
 21 42  1  0
 24 43  1  0
M  CHG  1  21  -1
M  END
>  <UniqueID>  (18) 
18

>  <SMILES>  (18) 
Cc1ccccc1SCCCC(=O)Nc1cccc(S([NH-])(=O)=O)c1

>  <Energy>  (18) 
37.71229380166489

>  <Genealogy>  (18) 
Cc1ccccc1SCCCC(=O)Nc1cccc(S([NH-])(=O)=O)c1 (protonated)
Cc1ccccc1SCCCC(=O)Nc1cccc(S([NH-])(=O)=O)c1 (3D coordinates assigned)
Cc1ccccc1SCCCC(=O)Nc1cccc(S([NH-])(=O)=O)c1 (optimized conformer: 37.71229380166489 kcal/mol)

>  <smiles>  (18) 
Cc1ccccc1SCCCC(=O)Nc1cccc(S(N)(=O)=O)c1

>  <score_type>  (18) 
oracle

>  <origin>  (18) 
adg

>  <m_score__min__energy>  (18) 
-12.699999999999999

>  <m_primary>  (18) 
energy

$$$$
18:0
     RDKit          3D

 31 33  0  0  0  0  0  0  0  0999 V2000
   55.1520   26.5920   46.0000 O   0  0  0  0  0  0  0  0  0  0  0  0
   56.3840   26.3370   46.0600 C   0  0  0  0  0  0  0  0  0  0  0  0
   57.2910   27.4110   46.3450 N   0  0  0  0  0  0  0  0  0  0  0  0
   57.3740   28.6610   45.6430 C   0  0  0  0  0  0  0  0  0  0  0  0
   56.7880   28.8340   44.3800 C   0  0  0  0  0  0  0  0  0  0  0  0
   56.8640   30.0600   43.7100 C   0  0  0  0  0  0  0  0  0  0  0  0
   56.2590   30.1380   42.4520 O   0  0  0  0  0  0  0  0  0  0  0  0
   57.5340   31.1540   44.3200 C   0  0  0  0  0  0  0  0  0  0  0  0
   57.6560   32.4140   43.6960 C   0  0  0  0  0  0  0  0  0  0  0  0
   58.3170   33.4650   44.3380 C   0  0  0  0  0  0  0  0  0  0  0  0
   58.8660   33.2820   45.6060 C   0  0  0  0  0  0  0  0  0  0  0  0
   58.7610   32.0460   46.2430 C   0  0  0  0  0  0  0  0  0  0  0  0
   58.1010   30.9790   45.6110 C   0  0  0  0  0  0  0  0  0  0  0  0
   58.0070   29.7400   46.2600 C   0  0  0  0  0  0  0  0  0  0  0  0
   56.8500   24.9350   45.9060 C   0  0  0  0  0  0  0  0  0  0  0  0
   57.1890   24.4400   44.6350 C   0  0  0  0  0  0  0  0  0  0  0  0
   57.6330   23.1250   44.4880 C   0  0  0  0  0  0  0  0  0  0  0  0
   57.7440   22.3120   45.6150 C   0  0  0  0  0  0  0  0  0  0  0  0
   57.4250   22.8000   46.8410 N   0  0  0  0  0  0  0  0  0  0  0  0
   56.9860   24.0760   47.0170 C   0  0  0  0  0  0  0  0  0  0  0  0
   56.6940   24.4700   48.1770 O   0  0  0  0  0  0  0  0  0  0  0  0
   56.2601   27.9919   43.9087 H   0  0  0  0  0  0  0  0  0  0  0  0
   55.5130   29.5350   42.1360 H   0  0  0  0  0  0  0  0  0  0  0  0
   57.2270   32.5704   42.6953 H   0  0  0  0  0  0  0  0  0  0  0  0
   58.4044   34.4418   43.8398 H   0  0  0  0  0  0  0  0  0  0  0  0
   59.3833   34.1145   46.1054 H   0  0  0  0  0  0  0  0  0  0  0  0
   59.1963   31.9060   47.2435 H   0  0  0  0  0  0  0  0  0  0  0  0
   58.4365   29.6175   47.2653 H   0  0  0  0  0  0  0  0  0  0  0  0
   57.1041   25.0915   43.7527 H   0  0  0  0  0  0  0  0  0  0  0  0
   57.8927   22.7341   43.4931 H   0  0  0  0  0  0  0  0  0  0  0  0
   58.0907   21.2733   45.5107 H   0  0  0  0  0  0  0  0  0  0  0  0
  1  2  2  0
  2  3  1  0
  3  4  1  0
  4  5  2  0
  5  6  1  0
  6  7  1  0
  6  8  2  0
  8  9  1  0
  9 10  2  0
 10 11  1  0
 11 12  2  0
 12 13  1  0
 13 14  2  0
  2 15  1  0
 15 16  2  0
 16 17  1  0
 17 18  2  0
 18 19  1  0
 19 20  1  0
 20 21  2  0
 14  4  1  0
 20 15  1  0
 13  8  1  0
  5 22  1  0
  7 23  1  0
  9 24  1  0
 10 25  1  0
 11 26  1  0
 12 27  1  0
 14 28  1  0
 16 29  1  0
 17 30  1  0
 18 31  1  0
M  CHG  2   3  -1  19  -1
M  END
>  <UniqueID>  (19) 
19

>  <SMILES>  (19) 
O=C([N-]c1cc(O)c2ccccc2c1)c1ccc[n-]c1=O

>  <Energy>  (19) 
49.24331162856665

>  <Genealogy>  (19) 
O=C([N-]c1cc(O)c2ccccc2c1)c1ccc[n-]c1=O (protonated)
O=C([N-]c1cc(O)c2ccccc2c1)c1ccc[n-]c1=O (3D coordinates assigned)
O=C([N-]c1cc(O)c2ccccc2c1)c1ccc[n-]c1=O (optimized conformer: 49.24331162856665 kcal/mol)

>  <smiles>  (19) 
O=C(Nc1cc(O)c2ccccc2c1)c1ccc[nH]c1=O

>  <score_type>  (19) 
oracle

>  <origin>  (19) 
adg

>  <m_score__min__energy>  (19) 
-10.81

>  <m_primary>  (19) 
energy

$$$$
19:0
     RDKit          3D

 38 40  0  0  0  0  0  0  0  0999 V2000
   57.4060   25.1880   43.3070 C   0  0  0  0  0  0  0  0  0  0  0  0
   57.2160   24.5610   44.6610 C   0  0  0  0  0  0  0  0  0  0  0  0
   57.4620   23.1860   44.8260 C   0  0  0  0  0  0  0  0  0  0  0  0
   57.2930   22.5790   46.0710 C   0  0  0  0  0  0  0  0  0  0  0  0
   56.8880   23.3380   47.1690 C   0  0  0  0  0  0  0  0  0  0  0  0
   56.6490   24.7060   47.0250 C   0  0  0  0  0  0  0  0  0  0  0  0
   56.8030   25.3310   45.7750 C   0  0  0  0  0  0  0  0  0  0  0  0
   56.5910   26.7500   45.6470 N   0  0  0  0  0  0  0  0  0  0  0  0
   57.3520   27.7280   46.3760 C   0  0  0  0  0  0  0  0  0  0  0  0
   57.9770   27.3860   47.4160 O   0  0  0  0  0  0  0  0  0  0  0  0
   57.3560   29.1500   45.9600 C   0  0  0  0  0  0  0  0  0  0  0  0
   58.4530   29.9660   46.2800 C   0  0  0  0  0  0  0  0  0  0  0  0
   58.4800   31.3160   45.8990 C   0  0  0  0  0  0  0  0  0  0  0  0
   59.6480   32.1620   46.2540 C   0  0  0  0  0  0  0  0  0  0  0  0
   59.6180   33.5520   46.0400 C   0  0  0  0  0  0  0  0  0  0  0  0
   60.7250   34.3410   46.3660 C   0  0  0  0  0  0  0  0  0  0  0  0
   61.8720   33.7520   46.9040 C   0  0  0  0  0  0  0  0  0  0  0  0
   61.9140   32.3710   47.1140 C   0  0  0  0  0  0  0  0  0  0  0  0
   60.8110   31.5780   46.7880 C   0  0  0  0  0  0  0  0  0  0  0  0
   57.3790   31.8330   45.1900 C   0  0  0  0  0  0  0  0  0  0  0  0
   57.3370   33.0480   44.8560 O   0  0  0  0  0  0  0  0  0  0  0  0
   56.3360   31.0240   44.8710 N   0  0  0  0  0  0  0  0  0  0  0  0
   56.2970   29.7130   45.2230 C   0  0  0  0  0  0  0  0  0  0  0  0
   55.2130   28.9420   44.8210 O   0  0  0  0  0  0  0  0  0  0  0  0
   57.7230   26.2343   43.4287 H   0  0  0  0  0  0  0  0  0  0  0  0
   58.1765   24.6337   42.7511 H   0  0  0  0  0  0  0  0  0  0  0  0
   56.4574   25.1546   42.7511 H   0  0  0  0  0  0  0  0  0  0  0  0
   57.7905   22.5839   43.9660 H   0  0  0  0  0  0  0  0  0  0  0  0
   57.4793   21.5011   46.1867 H   0  0  0  0  0  0  0  0  0  0  0  0
   56.7567   22.8579   48.1500 H   0  0  0  0  0  0  0  0  0  0  0  0
   56.3376   25.2999   47.8969 H   0  0  0  0  0  0  0  0  0  0  0  0
   55.7940   27.0890   45.0630 H   0  0  0  0  0  0  0  0  0  0  0  0
   59.3017   29.5415   46.8363 H   0  0  0  0  0  0  0  0  0  0  0  0
   58.7187   34.0206   45.6139 H   0  0  0  0  0  0  0  0  0  0  0  0
   60.6929   35.4277   46.1986 H   0  0  0  0  0  0  0  0  0  0  0  0
   62.7413   34.3747   47.1621 H   0  0  0  0  0  0  0  0  0  0  0  0
   62.8175   31.9074   47.5369 H   0  0  0  0  0  0  0  0  0  0  0  0
   60.8522   30.4907   46.9498 H   0  0  0  0  0  0  0  0  0  0  0  0
  1  2  1  0
  2  3  2  0
  3  4  1  0
  4  5  2  0
  5  6  1  0
  6  7  2  0
  7  8  1  0
  8  9  1  0
  9 10  2  0
  9 11  1  0
 11 12  1  0
 12 13  2  0
 13 14  1  0
 14 15  2  0
 15 16  1  0
 16 17  2  0
 17 18  1  0
 18 19  2  0
 13 20  1  0
 20 21  2  0
 20 22  1  0
 22 23  1  0
 23 24  1  0
  7  2  1  0
 23 11  2  0
 19 14  1  0
  1 25  1  0
  1 26  1  0
  1 27  1  0
  3 28  1  0
  4 29  1  0
  5 30  1  0
  6 31  1  0
  8 32  1  0
 12 33  1  0
 15 34  1  0
 16 35  1  0
 17 36  1  0
 18 37  1  0
 19 38  1  0
M  CHG  2  22  -1  24  -1
M  END
>  <UniqueID>  (20) 
20

>  <SMILES>  (20) 
Cc1ccccc1NC(=O)c1cc(-c2ccccc2)c(=O)[n-]c1[O-]

>  <Energy>  (20) 
56.76962569876953

>  <Genealogy>  (20) 
Cc1ccccc1NC(=O)c1cc(-c2ccccc2)c(=O)[n-]c1[O-] (protonated)
Cc1ccccc1NC(=O)c1cc(-c2ccccc2)c(=O)[n-]c1[O-] (3D coordinates assigned)
Cc1ccccc1NC(=O)c1cc(-c2ccccc2)c(=O)[n-]c1[O-] (optimized conformer: 56.76962569876953 kcal/mol)

>  <smiles>  (20) 
Cc1ccccc1NC(=O)c1cc(-c2ccccc2)c(=O)[nH]c1O

>  <score_type>  (20) 
oracle

>  <origin>  (20) 
adg

>  <m_score__min__energy>  (20) 
-12.43

>  <m_primary>  (20) 
energy

$$$$
20:0
     RDKit          3D

 34 35  0  0  0  0  0  0  0  0999 V2000
   57.5030   29.6940   51.2050 O   0  0  0  0  0  0  0  0  0  0  0  0
   56.9610   30.1800   52.2320 C   0  0  0  0  0  0  0  0  0  0  0  0
   56.4810   29.2800   53.2420 N   0  0  0  0  0  0  0  0  0  0  0  0
   55.4510   29.5780   54.2320 C   0  0  0  0  0  0  0  0  0  0  0  0
   54.1210   28.9390   53.8250 C   0  0  0  0  0  0  0  0  0  0  0  0
   53.2870   29.9130   53.0380 C   0  0  0  0  0  0  0  0  0  0  0  0
   53.4880   30.0610   51.6560 C   0  0  0  0  0  0  0  0  0  0  0  0
   52.7350   30.9900   50.9300 C   0  0  0  0  0  0  0  0  0  0  0  0
   51.7860   31.7840   51.5810 C   0  0  0  0  0  0  0  0  0  0  0  0
   51.0400   32.7060   50.8580 O   0  0  0  0  0  0  0  0  0  0  0  0
   51.5900   31.6510   52.9590 C   0  0  0  0  0  0  0  0  0  0  0  0
   52.3400   30.7240   53.6870 C   0  0  0  0  0  0  0  0  0  0  0  0
   56.9070   31.6840   52.4030 C   0  0  1  0  0  0  0  0  0  0  0  0
   57.7550   32.1360   53.6080 C   0  0  0  0  0  0  0  0  0  0  0  0
   59.2490   32.0650   53.2850 C   0  0  0  0  0  0  0  0  0  0  0  0
   59.5240   32.7380   52.0200 N   0  0  0  0  0  0  0  0  0  0  0  0
   58.5440   32.8000   50.9770 C   0  0  0  0  0  0  0  0  0  0  0  0
   57.3360   32.3520   51.1650 N   0  0  0  0  0  0  0  0  0  0  0  0
   55.7610   29.1793   55.2092 H   0  0  0  0  0  0  0  0  0  0  0  0
   55.3195   30.6684   54.2939 H   0  0  0  0  0  0  0  0  0  0  0  0
   54.3202   28.0511   53.2069 H   0  0  0  0  0  0  0  0  0  0  0  0
   53.5710   28.6531   54.7337 H   0  0  0  0  0  0  0  0  0  0  0  0
   54.2403   29.4442   51.1425 H   0  0  0  0  0  0  0  0  0  0  0  0
   52.8897   31.0959   49.8461 H   0  0  0  0  0  0  0  0  0  0  0  0
   50.8442   32.2771   53.4706 H   0  0  0  0  0  0  0  0  0  0  0  0
   52.1888   30.6284   54.7724 H   0  0  0  0  0  0  0  0  0  0  0  0
   55.8662   31.9751   52.6080 H   0  0  0  0  0  0  0  0  0  0  0  0
   57.4914   33.1726   53.8647 H   0  0  0  0  0  0  0  0  0  0  0  0
   57.5472   31.4646   54.4542 H   0  0  0  0  0  0  0  0  0  0  0  0
   59.8181   32.5553   54.0886 H   0  0  0  0  0  0  0  0  0  0  0  0
   59.5484   31.0098   53.2024 H   0  0  0  0  0  0  0  0  0  0  0  0
   60.4910   33.0800   51.8250 H   0  0  0  0  0  0  0  0  0  0  0  0
   58.8161   33.2325   50.0029 H   0  0  0  0  0  0  0  0  0  0  0  0
   56.6510   32.4130   50.3780 H   0  0  0  0  0  0  0  0  0  0  0  0
  1  2  2  0
  2  3  1  0
  3  4  1  0
  4  5  1  0
  5  6  1  0
  6  7  2  0
  7  8  1  0
  8  9  2  0
  9 10  1  0
  9 11  1  0
 11 12  2  0
  2 13  1  0
 13 14  1  0
 14 15  1  0
 15 16  1  0
 16 17  1  0
 17 18  2  0
 12  6  1  0
 18 13  1  0
  4 19  1  0
  4 20  1  0
  5 21  1  0
  5 22  1  0
  7 23  1  0
  8 24  1  0
 11 25  1  0
 12 26  1  0
 13 27  1  1
 14 28  1  0
 14 29  1  0
 15 30  1  0
 15 31  1  0
 16 32  1  0
 17 33  1  0
 18 34  1  0
M  CHG  3   3  -1  10  -1  18   1
M  END
>  <UniqueID>  (21) 
21

>  <SMILES>  (21) 
O=C([N-]CCc1ccc([O-])cc1)[C@H]1CCNC=[NH+]1

>  <Energy>  (21) 
27.806531679374313

>  <Genealogy>  (21) 
O=C([N-]CCc1ccc([O-])cc1)C1CCNC=[NH+]1 (protonated)
O=C([N-]CCc1ccc([O-])cc1)[C@H]1CCNC=[NH+]1 (chirality)
O=C([N-]CCc1ccc([O-])cc1)[C@H]1CCNC=[NH+]1 (3D coordinates assigned)
O=C([N-]CCc1ccc([O-])cc1)[C@H]1CCNC=[NH+]1 (nonaromatic ring conformer: 27.806531679374313 kcal/mol)

>  <smiles>  (21) 
O=C(NCCc1ccc(O)cc1)C1CCNC=N1

>  <score_type>  (21) 
oracle

>  <origin>  (21) 
adg

>  <m_score__min__energy>  (21) 
-9.5399999999999991

>  <m_primary>  (21) 
energy

$$$$
21:0
     RDKit          3D

 40 41  0  0  0  0  0  0  0  0999 V2000
   58.7744   35.4654   45.3565 H   0  0  0  0  0  0  0  0  0  0  0  0
   58.6580   34.3800   45.4920 C   0  0  0  0  0  0  0  0  0  0  0  0
   57.2670   33.4870   45.1770 S   0  0  0  0  0  0  0  0  0  0  0  0
   57.9600   32.0260   45.6620 C   0  0  0  0  0  0  0  0  0  0  0  0
   57.3980   30.8530   45.6290 N   0  0  0  0  0  0  0  0  0  0  0  0
   58.0540   29.5950   45.4110 C   0  0  0  0  0  0  0  0  0  0  0  0
   59.3130   29.5630   45.4030 O   0  0  0  0  0  0  0  0  0  0  0  0
   57.2790   28.3130   45.2260 C   0  0  0  0  0  0  0  0  0  0  0  0
   56.2192   28.5614   45.0673 H   0  0  0  0  0  0  0  0  0  0  0  0
   57.7058   27.7870   44.3593 H   0  0  0  0  0  0  0  0  0  0  0  0
   57.3890   27.3780   46.4390 C   0  0  0  0  0  0  0  0  0  0  0  0
   58.3365   26.8226   46.3774 H   0  0  0  0  0  0  0  0  0  0  0  0
   57.3530   27.9910   47.3516 H   0  0  0  0  0  0  0  0  0  0  0  0
   56.2540   26.4010   46.4840 C   0  0  0  0  0  0  0  0  0  0  0  0
   55.1360   26.7060   45.9880 O   0  0  0  0  0  0  0  0  0  0  0  0
   56.4130   25.1740   47.1160 O   0  0  0  0  0  0  0  0  0  0  0  0
   59.2420   32.2020   46.0470 N   0  0  0  0  0  0  0  0  0  0  0  0
   59.8590   31.4260   46.3790 H   0  0  0  0  0  0  0  0  0  0  0  0
   59.6370   33.5020   45.9550 C   0  0  0  0  0  0  0  0  0  0  0  0
   61.0040   33.9530   46.3770 C   0  0  0  0  0  0  0  0  0  0  0  0
   61.0419   35.0523   46.3752 H   0  0  0  0  0  0  0  0  0  0  0  0
   61.7498   33.5537   45.6739 H   0  0  0  0  0  0  0  0  0  0  0  0
   61.3050   33.4490   47.7520 C   0  0  0  0  0  0  0  0  0  0  0  0
   61.8490   34.2170   48.5920 O   0  0  0  0  0  0  0  0  0  0  0  0
   61.0670   32.0680   48.0590 N   0  0  0  0  0  0  0  0  0  0  0  0
   60.0660   31.5320   48.9370 C   0  0  0  0  0  0  0  0  0  0  0  0
   59.3040   32.4230   49.7020 C   0  0  0  0  0  0  0  0  0  0  0  0
   59.4683   33.5059   49.6005 H   0  0  0  0  0  0  0  0  0  0  0  0
   58.3370   31.9510   50.5930 C   0  0  0  0  0  0  0  0  0  0  0  0
   57.7374   32.6626   51.1796 H   0  0  0  0  0  0  0  0  0  0  0  0
   58.1280   30.5660   50.7420 C   0  0  0  0  0  0  0  0  0  0  0  0
   57.1710   30.0400   51.6220 O   0  0  0  0  0  0  0  0  0  0  0  0
   56.1910   30.8170   52.3010 C   0  0  0  0  0  0  0  0  0  0  0  0
   56.3262   30.7098   53.3874 H   0  0  0  0  0  0  0  0  0  0  0  0
   56.3026   31.8747   52.0202 H   0  0  0  0  0  0  0  0  0  0  0  0
   55.1866   30.4671   52.0202 H   0  0  0  0  0  0  0  0  0  0  0  0
   58.9050   29.6750   49.9940 C   0  0  0  0  0  0  0  0  0  0  0  0
   58.7528   28.5915   50.1073 H   0  0  0  0  0  0  0  0  0  0  0  0
   59.8730   30.1490   49.1040 C   0  0  0  0  0  0  0  0  0  0  0  0
   60.4864   29.4373   48.5319 H   0  0  0  0  0  0  0  0  0  0  0  0
  1  2  1  0
  2  3  1  0
  3  4  1  0
  4  5  2  0
  5  6  1  0
  6  7  2  0
  6  8  1  0
  8  9  1  0
  8 10  1  0
  8 11  1  0
 11 12  1  0
 11 13  1  0
 11 14  1  0
 14 15  2  0
 14 16  1  0
  4 17  1  0
 17 18  1  0
 17 19  1  0
 19 20  1  0
 20 21  1  0
 20 22  1  0
 20 23  1  0
 23 24  2  0
 23 25  1  0
 25 26  1  0
 26 27  2  0
 27 28  1  0
 27 29  1  0
 29 30  1  0
 29 31  2  0
 31 32  1  0
 32 33  1  0
 33 34  1  0
 33 35  1  0
 33 36  1  0
 31 37  1  0
 37 38  1  0
 37 39  2  0
 39 40  1  0
 19  2  2  0
 39 26  1  0
M  CHG  2  16  -1  25  -1
M  END
>  <UniqueID>  (22) 
22

>  <SMILES>  (22) 
COc1ccc([N-]C(=O)Cc2cs/c(=N\C(=O)CCC(=O)[O-])[nH]2)cc1

>  <Energy>  (22) 
73.55445574010686

>  <Genealogy>  (22) 
COc1ccc([N-]C(=O)Cc2csc(=NC(=O)CCC(=O)[O-])[nH]2)cc1 (protonated)
COc1ccc([N-]C(=O)Cc2cs/c(=N\C(=O)CCC(=O)[O-])[nH]2)cc1 (cis-trans isomerization)
COc1ccc([N-]C(=O)Cc2cs/c(=N\C(=O)CCC(=O)[O-])[nH]2)cc1 (3D coordinates assigned)
COc1ccc([N-]C(=O)Cc2cs/c(=N\C(=O)CCC(=O)[O-])[nH]2)cc1 (optimized conformer: 73.55445574010686 kcal/mol)

>  <smiles>  (22) 
COc1ccc(NC(=O)Cc2csc(=NC(=O)CCC(=O)O)[nH]2)cc1

>  <score_type>  (22) 
oracle

>  <origin>  (22) 
adg

>  <m_score__min__energy>  (22) 
-12.199999999999999

>  <m_primary>  (22) 
energy

$$$$
22:0
     RDKit          3D

 45 47  0  0  0  0  0  0  0  0999 V2000
   59.8740   27.3170   46.3660 O   0  0  0  0  0  0  0  0  0  0  0  0
   59.1270   27.1130   47.3590 C   0  0  0  0  0  0  0  0  0  0  0  0
   59.1870   28.0570   48.5270 C   0  0  0  0  0  0  0  0  0  0  0  0
   59.8230   29.3110   48.1270 N   0  0  0  0  0  0  0  0  0  0  0  0
   59.4910   30.5640   48.7460 C   0  0  0  0  0  0  0  0  0  0  0  0
   58.5600   30.6190   49.5960 O   0  0  0  0  0  0  0  0  0  0  0  0
   60.2130   31.8020   48.4030 C   0  0  0  0  0  0  0  0  0  0  0  0
   59.7940   33.1020   48.6380 C   0  0  0  0  0  0  0  0  0  0  0  0
   60.7930   33.9120   48.1400 C   0  0  0  0  0  0  0  0  0  0  0  0
   61.7530   33.0590   47.6360 C   0  0  0  0  0  0  0  0  0  0  0  0
   63.3870   33.5900   46.8100 Br  0  0  0  0  0  0  0  0  0  0  0  0
   61.3820   31.8110   47.8050 O   0  0  0  0  0  0  0  0  0  0  0  0
   58.2980   25.9440   47.3710 N   0  0  0  0  0  0  0  0  0  0  0  0
   58.0060   25.0960   46.2500 C   0  0  0  0  0  0  0  0  0  0  0  0
   58.8020   23.9690   45.9760 C   0  0  0  0  0  0  0  0  0  0  0  0
   58.4850   23.1230   44.9120 C   0  0  0  0  0  0  0  0  0  0  0  0
   57.3700   23.3870   44.1160 C   0  0  0  0  0  0  0  0  0  0  0  0
   56.5600   24.4900   44.3900 C   0  0  0  0  0  0  0  0  0  0  0  0
   56.8570   25.3390   45.4700 C   0  0  0  0  0  0  0  0  0  0  0  0
   55.9940   26.5090   45.7380 C   0  0  0  0  0  0  0  0  0  0  0  0
   54.7940   26.3240   46.0740 O   0  0  0  0  0  0  0  0  0  0  0  0
   56.4740   27.8510   45.6010 N   0  0  0  0  0  0  0  0  0  0  0  0
   57.3750   28.3010   44.5460 C   0  0  0  0  0  0  0  0  0  0  0  0
   57.5010   29.7960   44.6050 C   0  0  0  0  0  0  0  0  0  0  0  0
   57.8880   30.4250   45.8000 C   0  0  0  0  0  0  0  0  0  0  0  0
   58.0400   31.8150   45.8470 C   0  0  0  0  0  0  0  0  0  0  0  0
   57.8180   32.5820   44.7000 C   0  0  0  0  0  0  0  0  0  0  0  0
   57.4480   31.9620   43.5030 C   0  0  0  0  0  0  0  0  0  0  0  0
   57.2950   30.5730   43.4520 C   0  0  0  0  0  0  0  0  0  0  0  0
   58.1661   28.2635   48.8808 H   0  0  0  0  0  0  0  0  0  0  0  0
   59.7762   27.5955   49.3331 H   0  0  0  0  0  0  0  0  0  0  0  0
   60.5230   29.2780   47.3530 H   0  0  0  0  0  0  0  0  0  0  0  0
   58.8589   33.4214   49.1213 H   0  0  0  0  0  0  0  0  0  0  0  0
   60.8190   35.0117   48.1439 H   0  0  0  0  0  0  0  0  0  0  0  0
   59.6791   23.7532   46.6037 H   0  0  0  0  0  0  0  0  0  0  0  0
   59.1154   22.2466   44.7007 H   0  0  0  0  0  0  0  0  0  0  0  0
   57.1290   22.7249   43.2713 H   0  0  0  0  0  0  0  0  0  0  0  0
   55.6842   24.6961   43.7571 H   0  0  0  0  0  0  0  0  0  0  0  0
   58.3649   27.8430   44.6881 H   0  0  0  0  0  0  0  0  0  0  0  0
   56.9728   28.0036   43.5663 H   0  0  0  0  0  0  0  0  0  0  0  0
   58.0721   29.8226   46.7018 H   0  0  0  0  0  0  0  0  0  0  0  0
   58.3344   32.3044   46.7871 H   0  0  0  0  0  0  0  0  0  0  0  0
   57.9346   33.6751   44.7392 H   0  0  0  0  0  0  0  0  0  0  0  0
   57.2771   32.5672   42.6005 H   0  0  0  0  0  0  0  0  0  0  0  0
   57.0125   30.0869   42.5065 H   0  0  0  0  0  0  0  0  0  0  0  0
  1  2  2  0
  2  3  1  0
  3  4  1  0
  4  5  1  0
  5  6  2  0
  5  7  1  0
  7  8  2  0
  8  9  1  0
  9 10  2  0
 10 11  1  0
 10 12  1  0
  2 13  1  0
 13 14  1  0
 14 15  2  0
 15 16  1  0
 16 17  2  0
 17 18  1  0
 18 19  2  0
 19 20  1  0
 20 21  2  0
 20 22  1  0
 22 23  1  0
 23 24  1  0
 24 25  2  0
 25 26  1  0
 26 27  2  0
 27 28  1  0
 28 29  2  0
 12  7  1  0
 19 14  1  0
 29 24  1  0
  3 30  1  0
  3 31  1  0
  4 32  1  0
  8 33  1  0
  9 34  1  0
 15 35  1  0
 16 36  1  0
 17 37  1  0
 18 38  1  0
 23 39  1  0
 23 40  1  0
 25 41  1  0
 26 42  1  0
 27 43  1  0
 28 44  1  0
 29 45  1  0
M  CHG  2  13  -1  22  -1
M  END
>  <UniqueID>  (23) 
23

>  <SMILES>  (23) 
O=C(CNC(=O)c1ccc(Br)o1)[N-]c1ccccc1C(=O)[N-]Cc1ccccc1

>  <Energy>  (23) 
79.16974319027682

>  <Genealogy>  (23) 
O=C(CNC(=O)c1ccc(Br)o1)[N-]c1ccccc1C(=O)[N-]Cc1ccccc1 (protonated)
O=C(CNC(=O)c1ccc(Br)o1)[N-]c1ccccc1C(=O)[N-]Cc1ccccc1 (3D coordinates assigned)
O=C(CNC(=O)c1ccc(Br)o1)[N-]c1ccccc1C(=O)[N-]Cc1ccccc1 (optimized conformer: 79.16974319027682 kcal/mol)

>  <smiles>  (23) 
O=C(CNC(=O)c1ccc(Br)o1)Nc1ccccc1C(=O)NCc1ccccc1

>  <score_type>  (23) 
oracle

>  <origin>  (23) 
adg

>  <m_score__min__energy>  (23) 
-13.16

>  <m_primary>  (23) 
energy

$$$$
23:0
     RDKit          3D

 31 33  0  0  0  0  0  0  0  0999 V2000
   57.3590   28.6030   43.2960 N   0  0  0  0  0  0  0  0  0  0  0  0
   56.9120   30.1820   43.8360 S   0  0  0  0  0  0  0  0  0  0  0  0
   55.5810   30.1220   44.5320 O   0  0  0  0  0  0  0  0  0  0  0  0
   56.7960   31.1030   42.6530 O   0  0  0  0  0  0  0  0  0  0  0  0
   58.1360   30.7900   44.9460 C   0  0  0  0  0  0  0  0  0  0  0  0
   58.1320   32.1380   45.3270 C   0  0  0  0  0  0  0  0  0  0  0  0
   59.0950   32.6210   46.2180 C   0  0  0  0  0  0  0  0  0  0  0  0
   60.0720   31.7600   46.7450 C   0  0  0  0  0  0  0  0  0  0  0  0
   61.0620   32.2570   47.6630 N   0  0  0  0  0  0  0  0  0  0  0  0
   60.8670   33.1560   48.7610 C   0  0  0  0  0  0  0  0  0  0  0  0
   59.7660   33.6900   49.0590 O   0  0  0  0  0  0  0  0  0  0  0  0
   62.1360   33.4010   49.4370 C   0  0  0  0  0  0  0  0  0  0  0  0
   62.4400   34.1950   50.5400 C   0  0  0  0  0  0  0  0  0  0  0  0
   63.7770   34.2380   50.9750 C   0  0  0  0  0  0  0  0  0  0  0  0
   64.7720   33.4940   50.3040 C   0  0  0  0  0  0  0  0  0  0  0  0
   64.4390   32.7010   49.1910 C   0  0  0  0  0  0  0  0  0  0  0  0
   63.1080   32.6760   48.7790 C   0  0  0  0  0  0  0  0  0  0  0  0
   62.4640   31.9620   47.6830 C   0  0  0  0  0  0  0  0  0  0  0  0
   63.0380   31.1630   46.8970 O   0  0  0  0  0  0  0  0  0  0  0  0
   60.0650   30.4070   46.3660 C   0  0  0  0  0  0  0  0  0  0  0  0
   59.1020   29.9260   45.4750 C   0  0  0  0  0  0  0  0  0  0  0  0
   56.5440   28.2200   42.7660 H   0  0  0  0  0  0  0  0  0  0  0  0
   58.1360   28.7240   42.6080 H   0  0  0  0  0  0  0  0  0  0  0  0
   57.3682   32.8191   44.9236 H   0  0  0  0  0  0  0  0  0  0  0  0
   59.0877   33.6820   46.5083 H   0  0  0  0  0  0  0  0  0  0  0  0
   61.6578   34.7714   51.0557 H   0  0  0  0  0  0  0  0  0  0  0  0
   64.0492   34.8554   51.8437 H   0  0  0  0  0  0  0  0  0  0  0  0
   65.8141   33.5348   50.6539 H   0  0  0  0  0  0  0  0  0  0  0  0
   65.2067   32.1177   48.6614 H   0  0  0  0  0  0  0  0  0  0  0  0
   60.8228   29.7217   46.7735 H   0  0  0  0  0  0  0  0  0  0  0  0
   59.1030   28.8641   45.1881 H   0  0  0  0  0  0  0  0  0  0  0  0
  1  2  1  0
  2  3  2  0
  2  4  2  0
  2  5  1  0
  5  6  2  0
  6  7  1  0
  7  8  2  0
  8  9  1  0
  9 10  1  0
 10 11  2  0
 10 12  1  0
 12 13  2  0
 13 14  1  0
 14 15  2  0
 15 16  1  0
 16 17  2  0
 17 18  1  0
 18 19  2  0
  8 20  1  0
 20 21  2  0
 21  5  1  0
 18  9  1  0
 17 12  1  0
  1 22  1  0
  1 23  1  0
  6 24  1  0
  7 25  1  0
 13 26  1  0
 14 27  1  0
 15 28  1  0
 16 29  1  0
 20 30  1  0
 21 31  1  0
M  END
>  <UniqueID>  (24) 
24

>  <SMILES>  (24) 
NS(=O)(=O)c1ccc(N2C(=O)c3ccccc3C2=O)cc1

>  <Energy>  (24) 
69.38790597640535

>  <Genealogy>  (24) 
NS(=O)(=O)c1ccc(N2C(=O)c3ccccc3C2=O)cc1 (3D coordinates assigned)
NS(=O)(=O)c1ccc(N2C(=O)c3ccccc3C2=O)cc1 (nonaromatic ring conformer: 69.38790597640535 kcal/mol)

>  <smiles>  (24) 
NS(=O)(=O)c1ccc(N2C(=O)c3ccccc3C2=O)cc1

>  <score_type>  (24) 
oracle

>  <origin>  (24) 
adg

>  <m_score__min__energy>  (24) 
-7.71

>  <m_primary>  (24) 
energy

$$$$
24:0
     RDKit          3D

 36 38  0  0  0  0  0  0  0  0999 V2000
   57.8900   30.1430   46.9320 O   0  0  0  0  0  0  0  0  0  0  0  0
   57.9350   29.9370   45.6870 C   0  0  0  0  0  0  0  0  0  0  0  0
   59.1050   29.1650   45.1360 C   0  0  0  0  0  0  0  0  0  0  0  0
   59.1470   27.7430   45.6270 C   0  0  0  0  0  0  0  0  0  0  0  0
   60.2650   26.9670   45.9510 C   0  0  0  0  0  0  0  0  0  0  0  0
   59.8800   25.7570   46.4180 N   0  0  0  0  0  0  0  0  0  0  0  0
   58.5370   25.7520   46.3760 C   0  0  0  0  0  0  0  0  0  0  0  0
   57.6830   24.7210   46.7650 C   0  0  0  0  0  0  0  0  0  0  0  0
   56.2930   24.9350   46.6470 C   0  0  0  0  0  0  0  0  0  0  0  0
   55.7970   26.1550   46.1370 C   0  0  0  0  0  0  0  0  0  0  0  0
   54.4210   26.3400   45.9910 O   0  0  0  0  0  0  0  0  0  0  0  0
   56.6850   27.1820   45.7660 C   0  0  0  0  0  0  0  0  0  0  0  0
   58.0560   26.9430   45.9010 C   0  0  0  0  0  0  0  0  0  0  0  0
   56.8670   30.4370   44.8590 N   0  0  0  0  0  0  0  0  0  0  0  0
   55.6850   29.7700   44.8640 O   0  0  0  0  0  0  0  0  0  0  0  0
   56.9730   31.6460   44.0340 C   0  0  0  0  0  0  0  0  0  0  0  0
   57.7210   32.7400   44.7480 C   0  0  0  0  0  0  0  0  0  0  0  0
   58.7060   33.4830   44.0750 C   0  0  0  0  0  0  0  0  0  0  0  0
   59.4010   34.4970   44.7420 C   0  0  0  0  0  0  0  0  0  0  0  0
   59.0960   34.7960   46.0710 C   0  0  0  0  0  0  0  0  0  0  0  0
   59.7740   35.8120   46.7200 O   0  0  0  0  0  0  0  0  0  0  0  0
   58.1030   34.0760   46.7430 C   0  0  0  0  0  0  0  0  0  0  0  0
   57.4160   33.0540   46.0850 C   0  0  0  0  0  0  0  0  0  0  0  0
   59.0349   29.1561   44.0383 H   0  0  0  0  0  0  0  0  0  0  0  0
   60.0231   29.6626   45.4816 H   0  0  0  0  0  0  0  0  0  0  0  0
   61.3094   27.2943   45.8415 H   0  0  0  0  0  0  0  0  0  0  0  0
   60.5020   24.9900   46.7580 H   0  0  0  0  0  0  0  0  0  0  0  0
   58.0800   23.7708   47.1517 H   0  0  0  0  0  0  0  0  0  0  0  0
   55.5910   24.1459   46.9544 H   0  0  0  0  0  0  0  0  0  0  0  0
   56.3120   28.1429   45.3818 H   0  0  0  0  0  0  0  0  0  0  0  0
   57.5052   31.3979   43.1038 H   0  0  0  0  0  0  0  0  0  0  0  0
   55.9562   32.0071   43.8204 H   0  0  0  0  0  0  0  0  0  0  0  0
   58.9311   33.2663   43.0203 H   0  0  0  0  0  0  0  0  0  0  0  0
   60.1885   35.0593   44.2190 H   0  0  0  0  0  0  0  0  0  0  0  0
   57.8633   34.3148   47.7897 H   0  0  0  0  0  0  0  0  0  0  0  0
   56.6327   32.4918   46.6144 H   0  0  0  0  0  0  0  0  0  0  0  0
  1  2  2  0
  2  3  1  0
  3  4  1  0
  4  5  2  0
  5  6  1  0
  6  7  1  0
  7  8  2  0
  8  9  1  0
  9 10  2  0
 10 11  1  0
 10 12  1  0
 12 13  2  0
  2 14  1  0
 14 15  1  0
 14 16  1  0
 16 17  1  0
 17 18  2  0
 18 19  1  0
 19 20  2  0
 20 21  1  0
 20 22  1  0
 22 23  2  0
 13  4  1  0
 23 17  1  0
 13  7  1  0
  3 24  1  0
  3 25  1  0
  5 26  1  0
  6 27  1  0
  8 28  1  0
  9 29  1  0
 12 30  1  0
 16 31  1  0
 16 32  1  0
 18 33  1  0
 19 34  1  0
 22 35  1  0
 23 36  1  0
M  CHG  3  11  -1  15  -1  21  -1
M  END
>  <UniqueID>  (25) 
25

>  <SMILES>  (25) 
O=C(Cc1c[nH]c2ccc([O-])cc12)N([O-])Cc1ccc([O-])cc1

>  <Energy>  (25) 
66.9859141423763

>  <Genealogy>  (25) 
O=C(Cc1c[nH]c2ccc([O-])cc12)N([O-])Cc1ccc([O-])cc1 (protonated)
O=C(Cc1c[nH]c2ccc([O-])cc12)N([O-])Cc1ccc([O-])cc1 (3D coordinates assigned)
O=C(Cc1c[nH]c2ccc([O-])cc12)N([O-])Cc1ccc([O-])cc1 (optimized conformer: 66.9859141423763 kcal/mol)

>  <smiles>  (25) 
O=C(Cc1c[nH]c2ccc(O)cc12)N(O)Cc1ccc(O)cc1

>  <score_type>  (25) 
oracle

>  <origin>  (25) 
adg

>  <m_score__min__energy>  (25) 
-14.140000000000001

>  <m_primary>  (25) 
energy

$$$$
25:0
     RDKit          3D

 66 69  0  0  0  0  0  0  0  0999 V2000
   57.7650   26.7200   43.4880 C   0  0  0  0  0  0  0  0  0  0  0  0
   58.3080   26.7500   44.9020 C   0  0  0  0  0  0  0  0  0  0  0  0
   58.5320   25.5440   45.6190 C   0  0  0  0  0  0  0  0  0  0  0  0
   58.2320   24.1900   45.0170 C   0  0  0  0  0  0  0  0  0  0  0  0
   56.8250   23.8540   45.1900 N   0  0  0  0  0  0  0  0  0  0  0  0
   56.0130   24.1580   46.3290 C   0  0  0  0  0  0  0  0  0  0  0  0
   55.2870   25.1890   46.2940 O   0  0  0  0  0  0  0  0  0  0  0  0
   55.9760   23.3080   47.5300 C   0  0  0  0  0  0  0  0  0  0  0  0
   54.8370   22.9570   48.2240 C   0  0  0  0  0  0  0  0  0  0  0  0
   55.2550   22.1320   49.2410 C   0  0  0  0  0  0  0  0  0  0  0  0
   56.6240   22.0190   49.1040 C   0  0  0  0  0  0  0  0  0  0  0  0
   57.0220   22.7280   48.0740 O   0  0  0  0  0  0  0  0  0  0  0  0
   59.0280   25.6040   46.9310 C   0  0  0  0  0  0  0  0  0  0  0  0
   59.2950   26.8280   47.5370 C   0  0  0  0  0  0  0  0  0  0  0  0
   59.0940   28.0220   46.8410 C   0  0  0  0  0  0  0  0  0  0  0  0
   59.4020   29.2700   47.4830 N   0  0  0  0  0  0  0  0  0  0  0  0
   60.4100   30.1580   46.8920 C   0  0  0  0  0  0  0  0  0  0  0  0
   61.1920   30.9400   47.9750 C   0  0  0  0  0  0  0  0  0  0  0  0
   60.7570   30.6550   49.2920 O   0  0  0  0  0  0  0  0  0  0  0  0
   59.3600   30.8350   49.3840 C   0  0  0  0  0  0  0  0  0  0  0  0
   58.6580   29.6740   48.6800 C   0  0  0  0  0  0  0  0  0  0  0  0
   58.6380   27.9880   45.5110 C   0  0  0  0  0  0  0  0  0  0  0  0
   58.5370   29.2180   44.7860 N   0  0  0  0  0  0  0  0  0  0  0  0
   57.3160   29.9560   44.6660 C   0  0  0  0  0  0  0  0  0  0  0  0
   56.2310   29.4750   45.0970 O   0  0  0  0  0  0  0  0  0  0  0  0
   57.3340   31.3110   44.0410 C   0  0  0  0  0  0  0  0  0  0  0  0
   56.6730   32.2650   44.9270 N   0  0  0  0  0  0  0  0  0  0  0  0
   57.2650   33.4440   45.4940 C   0  0  0  0  0  0  0  0  0  0  0  0
   57.0620   34.5480   44.9230 O   0  0  0  0  0  0  0  0  0  0  0  0
   58.1090   33.4230   46.7100 C   0  0  0  0  0  0  0  0  0  0  0  0
   57.7900   32.7260   47.7090 O   0  0  0  0  0  0  0  0  0  0  0  0
   59.2870   34.2320   46.7600 N   0  0  0  0  0  0  0  0  0  0  0  0
   59.9440   34.5910   48.0090 C   0  0  0  0  0  0  0  0  0  0  0  0
   61.3680   34.1210   47.9800 C   0  0  0  0  0  0  0  0  0  0  0  0
   62.0010   33.8620   46.7520 C   0  0  0  0  0  0  0  0  0  0  0  0
   63.3380   33.4610   46.7200 C   0  0  0  0  0  0  0  0  0  0  0  0
   64.0510   33.3130   47.9130 C   0  0  0  0  0  0  0  0  0  0  0  0
   63.4320   33.5750   49.1360 C   0  0  0  0  0  0  0  0  0  0  0  0
   62.0990   33.9880   49.1720 C   0  0  0  0  0  0  0  0  0  0  0  0
   56.6671   26.6593   43.5181 H   0  0  0  0  0  0  0  0  0  0  0  0
   58.0673   27.6362   42.9596 H   0  0  0  0  0  0  0  0  0  0  0  0
   58.1664   25.8427   42.9596 H   0  0  0  0  0  0  0  0  0  0  0  0
   58.4696   24.2108   43.9432 H   0  0  0  0  0  0  0  0  0  0  0  0
   58.8438   23.4311   45.5267 H   0  0  0  0  0  0  0  0  0  0  0  0
   53.8056   23.2725   48.0080 H   0  0  0  0  0  0  0  0  0  0  0  0
   54.6259   21.6578   50.0087 H   0  0  0  0  0  0  0  0  0  0  0  0
   57.2803   21.4258   49.7577 H   0  0  0  0  0  0  0  0  0  0  0  0
   59.2078   24.6720   47.4869 H   0  0  0  0  0  0  0  0  0  0  0  0
   59.6671   26.8552   48.5718 H   0  0  0  0  0  0  0  0  0  0  0  0
   61.1190   29.5530   46.3078 H   0  0  0  0  0  0  0  0  0  0  0  0
   59.8911   30.8864   46.2516 H   0  0  0  0  0  0  0  0  0  0  0  0
   62.2574   30.6783   47.8944 H   0  0  0  0  0  0  0  0  0  0  0  0
   61.0150   32.0109   47.7968 H   0  0  0  0  0  0  0  0  0  0  0  0
   59.0607   30.8591   50.4422 H   0  0  0  0  0  0  0  0  0  0  0  0
   59.0766   31.7840   48.9055 H   0  0  0  0  0  0  0  0  0  0  0  0
   58.5919   28.8198   49.3699 H   0  0  0  0  0  0  0  0  0  0  0  0
   57.6512   29.9989   48.3787 H   0  0  0  0  0  0  0  0  0  0  0  0
   58.3753   31.6247   43.8759 H   0  0  0  0  0  0  0  0  0  0  0  0
   56.8038   31.2773   43.0778 H   0  0  0  0  0  0  0  0  0  0  0  0
   59.9213   35.6836   48.1340 H   0  0  0  0  0  0  0  0  0  0  0  0
   59.4183   34.1140   48.8493 H   0  0  0  0  0  0  0  0  0  0  0  0
   61.4407   33.9757   45.8123 H   0  0  0  0  0  0  0  0  0  0  0  0
   63.8299   33.2617   45.7565 H   0  0  0  0  0  0  0  0  0  0  0  0
   65.1020   32.9894   47.8879 H   0  0  0  0  0  0  0  0  0  0  0  0
   63.9954   33.4559   50.0732 H   0  0  0  0  0  0  0  0  0  0  0  0
   61.6196   34.2100   50.1368 H   0  0  0  0  0  0  0  0  0  0  0  0
  1  2  1  0
  2  3  2  0
  3  4  1  0
  4  5  1  0
  5  6  1  0
  6  7  2  0
  6  8  1  0
  8  9  2  0
  9 10  1  0
 10 11  2  0
 11 12  1  0
  3 13  1  0
 13 14  2  0
 14 15  1  0
 15 16  1  0
 16 17  1  0
 17 18  1  0
 18 19  1  0
 19 20  1  0
 20 21  1  0
 15 22  2  0
 22 23  1  0
 23 24  1  0
 24 25  2  0
 24 26  1  0
 26 27  1  0
 27 28  1  0
 28 29  2  0
 28 30  1  0
 30 31  2  0
 30 32  1  0
 32 33  1  0
 33 34  1  0
 34 35  2  0
 35 36  1  0
 36 37  2  0
 37 38  1  0
 38 39  2  0
 22  2  1  0
 39 34  1  0
 12  8  1  0
 21 16  1  0
  1 40  1  0
  1 41  1  0
  1 42  1  0
  4 43  1  0
  4 44  1  0
  9 45  1  0
 10 46  1  0
 11 47  1  0
 13 48  1  0
 14 49  1  0
 17 50  1  0
 17 51  1  0
 18 52  1  0
 18 53  1  0
 20 54  1  0
 20 55  1  0
 21 56  1  0
 21 57  1  0
 26 58  1  0
 26 59  1  0
 33 60  1  0
 33 61  1  0
 35 62  1  0
 36 63  1  0
 37 64  1  0
 38 65  1  0
 39 66  1  0
M  CHG  4   5  -1  23  -1  27  -1  32  -1
M  END
>  <UniqueID>  (26) 
26

>  <SMILES>  (26) 
Cc1c(C[N-]C(=O)c2ccco2)ccc(N2CCOCC2)c1[N-]C(=O)C[N-]C(=O)C(=O)[N-]Cc1ccccc1

>  <Energy>  (26) 
110.56280281445457

>  <Genealogy>  (26) 
Cc1c(C[N-]C(=O)c2ccco2)ccc(N2CCOCC2)c1[N-]C(=O)C[N-]C(=O)C(=O)[N-]Cc1ccccc1 (protonated)
Cc1c(C[N-]C(=O)c2ccco2)ccc(N2CCOCC2)c1[N-]C(=O)C[N-]C(=O)C(=O)[N-]Cc1ccccc1 (3D coordinates assigned)
Cc1c(C[N-]C(=O)c2ccco2)ccc(N2CCOCC2)c1[N-]C(=O)C[N-]C(=O)C(=O)[N-]Cc1ccccc1 (nonaromatic ring conformer: 110.56280281445457 kcal/mol)

>  <smiles>  (26) 
Cc1c(CNC(=O)c2ccco2)ccc(N2CCOCC2)c1NC(=O)CNC(=O)C(=O)NCc1ccccc1

>  <score_type>  (26) 
oracle

>  <origin>  (26) 
adg

>  <m_score__min__energy>  (26) 
-14.58

>  <m_primary>  (26) 
energy

$$$$
26:0
     RDKit          3D

 49 52  0  0  1  0  0  0  0  0999 V2000
   64.2710   32.0600   48.7750 N   0  0  0  0  0  0  0  0  0  0  0  0
   64.1730   33.5000   48.5530 C   0  0  2  0  0  0  0  0  0  0  0  0
   63.3500   34.1590   49.6460 C   0  0  0  0  0  0  0  0  0  0  0  0
   61.9130   33.9030   49.2910 C   0  0  0  0  0  0  0  0  0  0  0  0
   61.9650   33.5160   47.8790 N   0  0  0  0  0  0  0  0  0  0  0  0
   60.8440   33.0100   47.1300 C   0  0  0  0  0  0  0  0  0  0  0  0
   59.9890   33.8930   46.4890 C   0  0  0  0  0  0  0  0  0  0  0  0
   58.9140   33.4100   45.7710 C   0  0  0  0  0  0  0  0  0  0  0  0
   58.7560   32.0420   45.7370 C   0  0  0  0  0  0  0  0  0  0  0  0
   57.7090   31.4890   45.0410 C   0  0  0  0  0  0  0  0  0  0  0  0
   56.9280   32.2650   44.4550 O   0  0  0  0  0  0  0  0  0  0  0  0
   57.5390   30.0870   45.0000 C   0  0  0  0  0  0  0  0  0  0  0  0
   56.3670   29.6800   44.2400 C   0  0  0  0  0  0  0  0  0  0  0  0
   56.3380   29.8070   42.9870 O   0  0  0  0  0  0  0  0  0  0  0  0
   55.2720   29.1310   44.9510 O   0  0  0  0  0  0  0  0  0  0  0  0
   58.3950   29.2320   45.6430 C   0  0  0  0  0  0  0  0  0  0  0  0
   58.2650   27.7940   45.7140 C   0  0  0  0  0  0  0  0  0  0  0  0
   59.4400   27.0450   45.7700 C   0  0  0  0  0  0  0  0  0  0  0  0
   59.3970   25.6430   45.8180 C   0  0  0  0  0  0  0  0  0  0  0  0
   58.2240   24.9440   45.8110 C   0  0  0  0  0  0  0  0  0  0  0  0
   57.0590   25.6710   45.7560 C   0  0  0  0  0  0  0  0  0  0  0  0
   55.5340   24.8280   45.7460 S   0  0  0  0  0  0  0  0  0  0  0  0
   54.1930   25.8820   45.6420 N   0  0  0  0  0  0  0  0  0  0  0  0
   55.4290   23.8630   44.6020 O   0  0  0  0  0  0  0  0  0  0  0  0
   55.4000   23.9790   47.0030 O   0  0  0  0  0  0  0  0  0  0  0  0
   57.1080   27.0710   45.7090 C   0  0  0  0  0  0  0  0  0  0  0  0
   59.4190   29.8100   46.3210 N   0  0  0  0  0  0  0  0  0  0  0  0
   59.5970   31.1560   46.3700 C   0  0  0  0  0  0  0  0  0  0  0  0
   60.6290   31.6840   47.0550 N   0  0  0  0  0  0  0  0  0  0  0  0
   63.2940   33.7150   47.3550 C   0  0  0  0  0  0  0  0  0  0  0  0
   63.2850   31.6960   48.8960 H   0  0  0  0  0  0  0  0  0  0  0  0
   64.6260   31.6550   47.8870 H   0  0  0  0  0  0  0  0  0  0  0  0
   65.1971   33.8950   48.4817 H   0  0  0  0  0  0  0  0  0  0  0  0
   63.5874   33.7149   50.6240 H   0  0  0  0  0  0  0  0  0  0  0  0
   63.5625   35.2359   49.7175 H   0  0  0  0  0  0  0  0  0  0  0  0
   61.4965   33.0907   49.9048 H   0  0  0  0  0  0  0  0  0  0  0  0
   61.2689   34.7767   49.4690 H   0  0  0  0  0  0  0  0  0  0  0  0
   60.1671   34.9766   46.5525 H   0  0  0  0  0  0  0  0  0  0  0  0
   58.2174   34.0843   45.2513 H   0  0  0  0  0  0  0  0  0  0  0  0
   55.1430   28.1340   44.8970 H   0  0  0  0  0  0  0  0  0  0  0  0
   60.4123   27.5593   45.7766 H   0  0  0  0  0  0  0  0  0  0  0  0
   60.3445   25.0860   45.8630 H   0  0  0  0  0  0  0  0  0  0  0  0
   58.2120   23.8447   45.8479 H   0  0  0  0  0  0  0  0  0  0  0  0
   54.4010   26.6870   44.9890 H   0  0  0  0  0  0  0  0  0  0  0  0
   53.9530   26.3460   46.5470 H   0  0  0  0  0  0  0  0  0  0  0  0
   56.1559   27.6201   45.6654 H   0  0  0  0  0  0  0  0  0  0  0  0
   60.1480   29.2770   46.8390 H   0  0  0  0  0  0  0  0  0  0  0  0
   63.5195   32.9841   46.5645 H   0  0  0  0  0  0  0  0  0  0  0  0
   63.4309   34.7035   46.8923 H   0  0  0  0  0  0  0  0  0  0  0  0
  1  2  1  0
  2  3  1  0
  3  4  1  0
  4  5  1  0
  5  6  1  0
  6  7  2  0
  7  8  1  0
  8  9  2  0
  9 10  1  0
 10 11  2  0
 10 12  1  0
 12 13  1  0
 13 14  2  0
 13 15  1  0
 12 16  2  0
 16 17  1  0
 17 18  2  0
 18 19  1  0
 19 20  2  0
 20 21  1  0
 21 22  1  0
 22 23  1  0
 22 24  2  0
 22 25  2  0
 21 26  2  0
 16 27  1  0
 27 28  1  0
 28 29  2  0
  5 30  1  0
 30  2  1  0
 29  6  1  0
 28  9  1  0
 26 17  1  0
  1 31  1  0
  1 32  1  0
  2 33  1  6
  3 34  1  0
  3 35  1  0
  4 36  1  0
  4 37  1  0
  7 38  1  0
  8 39  1  0
 15 40  1  0
 18 41  1  0
 19 42  1  0
 20 43  1  0
 23 44  1  0
 23 45  1  0
 26 46  1  0
 27 47  1  0
 30 48  1  0
 30 49  1  0
M  END
>  <smiles>  (27) 
NC1CCN(c2ccc3c(=O)c(C(=O)O)c(-c4cccc(S(N)(=O)=O)c4)[nH]c3n2)C1

>  <score_type>  (27) 
oracle

>  <origin>  (27) 
adg

>  <m_score__min__energy>  (27) 
-11.27

>  <m_primary>  (27) 
energy

$$$$
27:0
     RDKit          3D

 59 62  0  0  0  0  0  0  0  0999 V2000
   56.6059   30.1588   46.1303 H   0  0  0  0  0  0  0  0  0  0  0  0
   57.6250   29.7910   45.9400 C   0  0  0  0  0  0  0  0  0  0  0  0
   58.5520   29.8150   46.9350 N   0  0  0  0  0  0  0  0  0  0  0  0
   59.8260   29.3700   46.7580 C   0  0  0  0  0  0  0  0  0  0  0  0
   60.6600   29.4790   47.7540 N   0  0  0  0  0  0  0  0  0  0  0  0
   60.3850   29.3220   49.1580 C   0  0  0  0  0  0  0  0  0  0  0  0
   59.2010   29.1050   49.5470 O   0  0  0  0  0  0  0  0  0  0  0  0
   61.4700   29.4910   50.1620 C   0  0  0  0  0  0  0  0  0  0  0  0
   61.6560   28.5030   51.1500 C   0  0  0  0  0  0  0  0  0  0  0  0
   60.9805   27.6357   51.1893 H   0  0  0  0  0  0  0  0  0  0  0  0
   62.6940   28.6180   52.0810 C   0  0  0  0  0  0  0  0  0  0  0  0
   62.8307   27.8411   52.8476 H   0  0  0  0  0  0  0  0  0  0  0  0
   63.5580   29.7160   52.0410 C   0  0  0  0  0  0  0  0  0  0  0  0
   64.3721   29.8022   52.7757 H   0  0  0  0  0  0  0  0  0  0  0  0
   63.3880   30.7020   51.0700 C   0  0  0  0  0  0  0  0  0  0  0  0
   64.0633   31.5700   51.0477 H   0  0  0  0  0  0  0  0  0  0  0  0
   62.3600   30.5930   50.1210 C   0  0  0  0  0  0  0  0  0  0  0  0
   62.2360   31.5750   49.1360 O   0  0  0  0  0  0  0  0  0  0  0  0
   63.1530   31.6690   48.0520 C   0  0  0  0  0  0  0  0  0  0  0  0
   63.0799   30.7622   47.4336 H   0  0  0  0  0  0  0  0  0  0  0  0
   64.1735   31.7681   48.4505 H   0  0  0  0  0  0  0  0  0  0  0  0
   62.8280   32.8940   47.1950 C   0  0  0  0  0  0  0  0  0  0  0  0
   62.6142   32.5667   46.1668 H   0  0  0  0  0  0  0  0  0  0  0  0
   63.6937   33.5724   47.2125 H   0  0  0  0  0  0  0  0  0  0  0  0
   61.6920   33.5940   47.7080 O   0  0  0  0  0  0  0  0  0  0  0  0
   60.4270   33.6970   47.1010 C   0  0  0  0  0  0  0  0  0  0  0  0
   60.1360   34.6740   46.1270 C   0  0  0  0  0  0  0  0  0  0  0  0
   60.9089   35.3992   45.8324 H   0  0  0  0  0  0  0  0  0  0  0  0
   58.8710   34.7270   45.5330 C   0  0  0  0  0  0  0  0  0  0  0  0
   58.6542   35.4900   44.7709 H   0  0  0  0  0  0  0  0  0  0  0  0
   57.8830   33.8140   45.9050 C   0  0  0  0  0  0  0  0  0  0  0  0
   56.8917   33.8545   45.4300 H   0  0  0  0  0  0  0  0  0  0  0  0
   58.1500   32.8490   46.8790 C   0  0  0  0  0  0  0  0  0  0  0  0
   57.3694   32.1275   47.1619 H   0  0  0  0  0  0  0  0  0  0  0  0
   59.4120   32.7940   47.5010 C   0  0  0  0  0  0  0  0  0  0  0  0
   59.6620   31.8120   48.5300 N   0  0  0  0  0  0  0  0  0  0  0  0
   59.0670   30.9620   48.3940 H   0  0  0  0  0  0  0  0  0  0  0  0
   60.6630   31.5040   48.4920 H   0  0  0  0  0  0  0  0  0  0  0  0
   59.4090   32.3560   49.8330 C   0  0  0  0  0  0  0  0  0  0  0  0
   60.1780   33.0570   50.7450 C   0  0  0  0  0  0  0  0  0  0  0  0
   61.5210   33.5410   50.7570 N   0  0  0  0  0  0  0  0  0  0  0  0
   62.0280   33.6440   49.8510 H   0  0  0  0  0  0  0  0  0  0  0  0
   62.2090   33.8400   52.0060 C   0  0  0  0  0  0  0  0  0  0  0  0
   61.5668   33.5609   52.8543 H   0  0  0  0  0  0  0  0  0  0  0  0
   63.1478   33.2687   52.0533 H   0  0  0  0  0  0  0  0  0  0  0  0
   62.4319   34.9161   52.0533 H   0  0  0  0  0  0  0  0  0  0  0  0
   59.1090   33.0880   51.6230 C   0  0  0  0  0  0  0  0  0  0  0  0
   58.9100   33.5700   52.7690 O   0  0  0  0  0  0  0  0  0  0  0  0
   58.3540   32.3580   50.7310 C   0  0  0  0  0  0  0  0  0  0  0  0
   57.1820   31.8990   50.7280 O   0  0  0  0  0  0  0  0  0  0  0  0
   60.2060   28.8750   45.4950 C   0  0  0  0  0  0  0  0  0  0  0  0
   61.2312   28.5126   45.3284 H   0  0  0  0  0  0  0  0  0  0  0  0
   59.2740   28.8470   44.4560 C   0  0  0  0  0  0  0  0  0  0  0  0
   59.5681   28.4695   43.4655 H   0  0  0  0  0  0  0  0  0  0  0  0
   57.9660   29.2980   44.6710 C   0  0  0  0  0  0  0  0  0  0  0  0
   56.9730   29.3300   43.5470 C   0  0  0  0  0  0  0  0  0  0  0  0
   55.9536   29.3628   43.9591 H   0  0  0  0  0  0  0  0  0  0  0  0
   57.1475   30.2230   42.9289 H   0  0  0  0  0  0  0  0  0  0  0  0
   57.0897   28.4276   42.9289 H   0  0  0  0  0  0  0  0  0  0  0  0
  1  2  1  0
  2  3  1  0
  3  4  1  0
  4  5  2  0
  5  6  1  0
  6  7  2  0
  6  8  1  0
  8  9  2  0
  9 10  1  0
  9 11  1  0
 11 12  1  0
 11 13  2  0
 13 14  1  0
 13 15  1  0
 15 16  1  0
 15 17  2  0
 17 18  1  0
 18 19  1  0
 19 20  1  0
 19 21  1  0
 19 22  1  0
 22 23  1  0
 22 24  1  0
 22 25  1  0
 25 26  1  0
 26 27  2  0
 27 28  1  0
 27 29  1  0
 29 30  1  0
 29 31  2  0
 31 32  1  0
 31 33  1  0
 33 34  1  0
 33 35  2  0
 35 36  1  0
 36 37  1  0
 36 38  1  0
 36 39  1  0
 39 40  2  0
 40 41  1  0
 41 42  1  0
 41 43  1  0
 43 44  1  0
 43 45  1  0
 43 46  1  0
 40 47  1  0
 47 48  2  0
 47 49  1  0
 49 50  2  0
  4 51  1  0
 51 52  1  0
 51 53  2  0
 53 54  1  0
 53 55  1  0
 55 56  1  0
 56 57  1  0
 56 58  1  0
 56 59  1  0
 55  2  2  0
 17  8  1  0
 35 26  1  0
 49 39  1  0
M  CHG  2   3  -1  36   1
M  END
>  <UniqueID>  (28) 
27

>  <SMILES>  (28) 
CNc1c([NH2+]c2ccccc2OCCOc2ccccc2C(=O)/N=c2\ccc(C)c[n-]2)c(=O)c1=O

>  <Energy>  (28) 
65.98656459776282

>  <Genealogy>  (28) 
CNc1c([NH2+]c2ccccc2OCCOc2ccccc2C(=O)N=c2ccc(C)c[n-]2)c(=O)c1=O (protonated)
CNc1c([NH2+]c2ccccc2OCCOc2ccccc2C(=O)/N=c2\ccc(C)c[n-]2)c(=O)c1=O (cis-trans isomerization)
CNc1c([NH2+]c2ccccc2OCCOc2ccccc2C(=O)/N=c2\ccc(C)c[n-]2)c(=O)c1=O (3D coordinates assigned)
CNc1c([NH2+]c2ccccc2OCCOc2ccccc2C(=O)/N=c2\ccc(C)c[n-]2)c(=O)c1=O (optimized conformer: 65.98656459776282 kcal/mol)

>  <smiles>  (28) 
CNc1c(Nc2ccccc2OCCOc2ccccc2C(=O)N=c2ccc(C)c[nH]2)c(=O)c1=O

>  <score_type>  (28) 
oracle

>  <origin>  (28) 
adg

>  <m_score__min__energy>  (28) 
-7.4500000000000002

>  <m_primary>  (28) 
energy

$$$$
28:0
     RDKit          3D

 51 54  0  0  0  0  0  0  0  0999 V2000
   61.6200   30.0240   50.8570 N   0  0  0  0  0  0  0  0  0  0  0  0
   61.6550   31.4250   51.2700 C   0  0  0  0  0  0  0  0  0  0  0  0
   61.1460   32.3280   50.1530 C   0  0  0  0  0  0  0  0  0  0  0  0
   62.0130   33.2620   49.5290 C   0  0  0  0  0  0  0  0  0  0  0  0
   63.3850   33.5160   49.9980 C   0  0  0  0  0  0  0  0  0  0  0  0
   63.7190   34.2140   51.1510 C   0  0  0  0  0  0  0  0  0  0  0  0
   65.0900   34.1900   51.4350 C   0  0  0  0  0  0  0  0  0  0  0  0
   65.8340   33.4480   50.5270 C   0  0  0  0  0  0  0  0  0  0  0  0
   64.7850   32.8190   49.3740 S   0  0  0  0  0  0  0  0  0  0  0  0
   61.5970   33.9460   48.4340 N   0  0  0  0  0  0  0  0  0  0  0  0
   60.3620   33.7960   47.8990 C   0  0  0  0  0  0  0  0  0  0  0  0
   60.0030   34.5480   46.7740 C   0  0  0  0  0  0  0  0  0  0  0  0
   58.7300   34.4110   46.2160 C   0  0  0  0  0  0  0  0  0  0  0  0
   57.8120   33.5250   46.7780 C   0  0  0  0  0  0  0  0  0  0  0  0
   58.1610   32.7670   47.9010 C   0  0  0  0  0  0  0  0  0  0  0  0
   59.4460   32.8890   48.4740 C   0  0  0  0  0  0  0  0  0  0  0  0
   59.8490   32.1390   49.6060 C   0  0  0  0  0  0  0  0  0  0  0  0
   58.9260   31.1480   50.2010 C   0  0  0  0  0  0  0  0  0  0  0  0
   59.2130   29.9220   50.1350 O   0  0  0  0  0  0  0  0  0  0  0  0
   57.7090   31.5880   50.8230 N   0  0  0  0  0  0  0  0  0  0  0  0
   56.8020   30.7200   51.5160 C   0  0  0  0  0  0  0  0  0  0  0  0
   57.0560   29.4900   51.6340 O   0  0  0  0  0  0  0  0  0  0  0  0
   55.6000   31.2600   52.0850 N   0  0  0  0  0  0  0  0  0  0  0  0
   54.6800   30.4570   52.8860 C   0  0  0  0  0  0  0  0  0  0  0  0
   53.2670   30.9370   52.6910 C   0  0  0  0  0  0  0  0  0  0  0  0
   52.8770   31.4870   51.4590 C   0  0  0  0  0  0  0  0  0  0  0  0
   51.5720   31.9580   51.2790 C   0  0  0  0  0  0  0  0  0  0  0  0
   50.6510   31.8880   52.3280 C   0  0  0  0  0  0  0  0  0  0  0  0
   51.0340   31.3480   53.5590 C   0  0  0  0  0  0  0  0  0  0  0  0
   52.3370   30.8750   53.7430 C   0  0  0  0  0  0  0  0  0  0  0  0
   62.5550   29.5810   51.0070 H   0  0  0  0  0  0  0  0  0  0  0  0
   60.9090   29.5140   51.4290 H   0  0  0  0  0  0  0  0  0  0  0  0
   61.3550   29.9540   49.8460 H   0  0  0  0  0  0  0  0  0  0  0  0
   61.0193   31.5557   52.1582 H   0  0  0  0  0  0  0  0  0  0  0  0
   62.6947   31.6999   51.5014 H   0  0  0  0  0  0  0  0  0  0  0  0
   62.9803   34.7339   51.7787 H   0  0  0  0  0  0  0  0  0  0  0  0
   65.5356   34.7098   52.2960 H   0  0  0  0  0  0  0  0  0  0  0  0
   66.9233   33.2976   50.5572 H   0  0  0  0  0  0  0  0  0  0  0  0
   60.7250   35.2482   46.3286 H   0  0  0  0  0  0  0  0  0  0  0  0
   58.4513   35.0030   45.3318 H   0  0  0  0  0  0  0  0  0  0  0  0
   56.8096   33.4215   46.3369 H   0  0  0  0  0  0  0  0  0  0  0  0
   57.4302   32.0720   48.3402 H   0  0  0  0  0  0  0  0  0  0  0  0
   57.4820   32.6080   50.7840 H   0  0  0  0  0  0  0  0  0  0  0  0
   55.3760   32.2690   51.9300 H   0  0  0  0  0  0  0  0  0  0  0  0
   54.7522   29.4041   52.5760 H   0  0  0  0  0  0  0  0  0  0  0  0
   54.9492   30.5549   53.9481 H   0  0  0  0  0  0  0  0  0  0  0  0
   53.6003   31.5477   50.6325 H   0  0  0  0  0  0  0  0  0  0  0  0
   51.2704   32.3839   50.3107 H   0  0  0  0  0  0  0  0  0  0  0  0
   49.6250   32.2578   52.1848 H   0  0  0  0  0  0  0  0  0  0  0  0
   50.3090   31.2950   54.3846 H   0  0  0  0  0  0  0  0  0  0  0  0
   52.6351   30.4531   54.7141 H   0  0  0  0  0  0  0  0  0  0  0  0
  1  2  1  0
  2  3  1  0
  3  4  2  0
  4  5  1  0
  5  6  2  0
  6  7  1  0
  7  8  2  0
  8  9  1  0
  4 10  1  0
 10 11  2  0
 11 12  1  0
 12 13  2  0
 13 14  1  0
 14 15  2  0
 15 16  1  0
 16 17  2  0
 17 18  1  0
 18 19  2  0
 18 20  1  0
 20 21  1  0
 21 22  2  0
 21 23  1  0
 23 24  1  0
 24 25  1  0
 25 26  2  0
 26 27  1  0
 27 28  2  0
 28 29  1  0
 29 30  2  0
 17  3  1  0
 30 25  1  0
  9  5  1  0
 16 11  1  0
  1 31  1  0
  1 32  1  0
  1 33  1  0
  2 34  1  0
  2 35  1  0
  6 36  1  0
  7 37  1  0
  8 38  1  0
 12 39  1  0
 13 40  1  0
 14 41  1  0
 15 42  1  0
 20 43  1  0
 23 44  1  0
 24 45  1  0
 24 46  1  0
 26 47  1  0
 27 48  1  0
 28 49  1  0
 29 50  1  0
 30 51  1  0
M  CHG  1   1   1
M  END
>  <UniqueID>  (29) 
28

>  <SMILES>  (29) 
[NH3+]Cc1c(-c2cccs2)nc2ccccc2c1C(=O)NC(=O)NCc1ccccc1

>  <Energy>  (29) 
98.57831112544021

>  <Genealogy>  (29) 
[NH3+]Cc1c(-c2cccs2)nc2ccccc2c1C(=O)NC(=O)NCc1ccccc1 (protonated)
[NH3+]Cc1c(-c2cccs2)nc2ccccc2c1C(=O)NC(=O)NCc1ccccc1 (3D coordinates assigned)
[NH3+]Cc1c(-c2cccs2)nc2ccccc2c1C(=O)NC(=O)NCc1ccccc1 (optimized conformer: 98.57831112544021 kcal/mol)

>  <smiles>  (29) 
NCc1c(-c2cccs2)nc2ccccc2c1C(=O)NC(=O)NCc1ccccc1

>  <score_type>  (29) 
oracle

>  <origin>  (29) 
adg

>  <m_score__min__energy>  (29) 
-6.6900000000000004

>  <m_primary>  (29) 
energy

$$$$
29:0
     RDKit          3D

 48 51  0  0  1  0  0  0  0  0999 V2000
   51.8950   24.3450   45.2270 C   0  0  0  0  0  0  0  0  0  0  0  0
   53.3800   24.2540   45.0790 C   0  0  0  0  0  0  0  0  0  0  0  0
   54.0150   23.3580   44.2420 C   0  0  0  0  0  0  0  0  0  0  0  0
   55.3310   23.6030   44.4040 N   0  0  0  0  0  0  0  0  0  0  0  0
   56.4190   23.0490   43.8550 C   0  0  0  0  0  0  0  0  0  0  0  0
   56.2490   22.1190   43.0240 O   0  0  0  0  0  0  0  0  0  0  0  0
   57.6760   23.5030   44.2080 C   0  0  0  0  0  0  0  0  0  0  0  0
   57.8980   24.5150   45.1110 C   0  0  0  0  0  0  0  0  0  0  0  0
   59.0410   25.0400   45.5310 O   0  0  0  0  0  0  0  0  0  0  0  0
   59.4160   26.1140   46.2550 C   0  0  0  0  0  0  0  0  0  0  0  0
   58.7760   27.3790   45.8420 C   0  0  0  0  0  0  0  0  0  0  0  0
   58.3050   27.6850   44.6020 C   0  0  0  0  0  0  0  0  0  0  0  0
   57.7140   28.8840   44.3190 C   0  0  0  0  0  0  0  0  0  0  0  0
   57.5470   29.8990   45.2940 C   0  0  0  0  0  0  0  0  0  0  0  0
   56.9550   31.0180   44.8720 O   0  0  0  0  0  0  0  0  0  0  0  0
   57.4080   32.1900   44.3650 C   0  0  0  0  0  0  0  0  0  0  0  0
   57.2060   33.4590   45.1440 C   0  0  2  0  0  0  0  0  0  0  0  0
   58.4470   34.3370   44.8700 C   0  0  0  0  0  0  0  0  0  0  0  0
   59.3440   33.8890   46.0040 C   0  0  0  0  0  0  0  0  0  0  0  0
   58.3310   33.8090   47.1460 C   0  0  0  0  0  0  0  0  0  0  0  0
   57.1080   33.3800   46.5410 N   0  0  0  0  0  0  0  0  0  0  0  0
   58.0260   29.5800   46.5360 C   0  0  0  0  0  0  0  0  0  0  0  0
   58.6320   28.3520   46.8270 C   0  0  0  0  0  0  0  0  0  0  0  0
   56.7380   25.0480   45.6450 N   0  0  0  0  0  0  0  0  0  0  0  0
   55.5300   24.5930   45.2880 C   0  0  0  0  0  0  0  0  0  0  0  0
   54.3000   25.0030   45.7130 N   0  0  0  0  0  0  0  0  0  0  0  0
   51.6333   24.3610   46.2953 H   0  0  0  0  0  0  0  0  0  0  0  0
   51.5345   25.2669   44.7473 H   0  0  0  0  0  0  0  0  0  0  0  0
   51.4246   23.4740   44.7473 H   0  0  0  0  0  0  0  0  0  0  0  0
   53.5489   22.6079   43.5861 H   0  0  0  0  0  0  0  0  0  0  0  0
   58.5494   23.0266   43.7389 H   0  0  0  0  0  0  0  0  0  0  0  0
   59.1597   25.9261   47.3081 H   0  0  0  0  0  0  0  0  0  0  0  0
   60.4968   26.2406   46.0940 H   0  0  0  0  0  0  0  0  0  0  0  0
   58.4038   26.9400   43.7987 H   0  0  0  0  0  0  0  0  0  0  0  0
   57.3543   29.0684   43.2960 H   0  0  0  0  0  0  0  0  0  0  0  0
   58.4916   32.0760   44.2140 H   0  0  0  0  0  0  0  0  0  0  0  0
   56.7928   32.3379   43.4652 H   0  0  0  0  0  0  0  0  0  0  0  0
   56.2285   33.8334   44.8059 H   0  0  0  0  0  0  0  0  0  0  0  0
   58.8918   34.1194   43.8877 H   0  0  0  0  0  0  0  0  0  0  0  0
   58.2499   35.4187   44.8358 H   0  0  0  0  0  0  0  0  0  0  0  0
   59.8013   32.9101   45.7975 H   0  0  0  0  0  0  0  0  0  0  0  0
   60.2020   34.5495   46.1979 H   0  0  0  0  0  0  0  0  0  0  0  0
   58.6613   33.0824   47.9029 H   0  0  0  0  0  0  0  0  0  0  0  0
   58.2162   34.7754   47.6588 H   0  0  0  0  0  0  0  0  0  0  0  0
   56.2740   33.8410   46.9210 H   0  0  0  0  0  0  0  0  0  0  0  0
   57.9304   30.3223   47.3421 H   0  0  0  0  0  0  0  0  0  0  0  0
   58.9983   28.1538   47.8451 H   0  0  0  0  0  0  0  0  0  0  0  0
   56.7970   25.8300   46.3480 H   0  0  0  0  0  0  0  0  0  0  0  0
  1  2  1  0
  2  3  2  0
  3  4  1  0
  4  5  1  0
  5  6  2  0
  5  7  1  0
  7  8  2  0
  8  9  1  0
  9 10  1  0
 10 11  1  0
 11 12  2  0
 12 13  1  0
 13 14  2  0
 14 15  1  0
 15 16  1  0
 16 17  1  0
 17 18  1  0
 18 19  1  0
 19 20  1  0
 20 21  1  0
 14 22  1  0
 22 23  2  0
  8 24  1  0
 24 25  1  0
 25 26  2  0
 26  2  1  0
 25  4  1  0
 23 11  1  0
 21 17  1  0
  1 27  1  0
  1 28  1  0
  1 29  1  0
  3 30  1  0
  7 31  1  0
 10 32  1  0
 10 33  1  0
 12 34  1  0
 13 35  1  0
 16 36  1  0
 16 37  1  0
 17 38  1  6
 18 39  1  0
 18 40  1  0
 19 41  1  0
 19 42  1  0
 20 43  1  0
 20 44  1  0
 21 45  1  0
 22 46  1  0
 23 47  1  0
 24 48  1  0
M  END
>  <smiles>  (30) 
Cc1cn2c(=O)cc(OCc3ccc(OCC4CCCN4)cc3)[nH]c2n1

>  <score_type>  (30) 
oracle

>  <origin>  (30) 
adg

>  <m_score__min__energy>  (30) 
-8.2699999999999996

>  <m_primary>  (30) 
energy

$$$$
30:0
     RDKit          3D

 59 64  0  0  0  0  0  0  0  0999 V2000
   59.8047   26.7381   54.7291 H   0  0  0  0  0  0  0  0  0  0  0  0
   58.7700   27.1090   54.6860 C   0  0  0  0  0  0  0  0  0  0  0  0
   58.5200   28.4380   54.7860 N   0  0  0  0  0  0  0  0  0  0  0  0
   57.2630   28.9540   54.7380 C   0  0  0  0  0  0  0  0  0  0  0  0
   57.1260   30.7440   54.8420 S   0  0  0  0  0  0  0  0  0  0  0  0
   57.4570   30.9500   53.0960 C   0  0  0  0  0  0  0  0  0  0  0  0
   58.2490   29.8250   52.1310 S   0  0  0  0  0  0  0  0  0  0  0  0
   58.0770   30.7720   50.7530 C   0  0  0  0  0  0  0  0  0  0  0  0
   58.5030   30.4080   49.5800 N   0  0  0  0  0  0  0  0  0  0  0  0
   58.9350   31.2770   48.5230 C   0  0  0  0  0  0  0  0  0  0  0  0
   59.9660   31.0090   47.8480 O   0  0  0  0  0  0  0  0  0  0  0  0
   58.1940   32.4780   48.2690 N   0  0  0  0  0  0  0  0  0  0  0  0
   57.5570   32.8050   49.0270 H   0  0  0  0  0  0  0  0  0  0  0  0
   58.3950   33.3210   47.1190 C   0  0  0  0  0  0  0  0  0  0  0  0
   57.5600   33.2130   45.9920 C   0  0  0  0  0  0  0  0  0  0  0  0
   56.7431   32.4763   45.9861 H   0  0  0  0  0  0  0  0  0  0  0  0
   57.7610   34.0350   44.8800 C   0  0  0  0  0  0  0  0  0  0  0  0
   57.1059   33.9400   44.0015 H   0  0  0  0  0  0  0  0  0  0  0  0
   58.7910   34.9760   44.8820 C   0  0  0  0  0  0  0  0  0  0  0  0
   58.9533   35.6151   44.0016 H   0  0  0  0  0  0  0  0  0  0  0  0
   59.6160   35.1070   46.0010 C   0  0  0  0  0  0  0  0  0  0  0  0
   60.4277   35.8494   45.9994 H   0  0  0  0  0  0  0  0  0  0  0  0
   59.4140   34.2970   47.1250 C   0  0  0  0  0  0  0  0  0  0  0  0
   60.2520   34.4560   48.2340 O   0  0  0  0  0  0  0  0  0  0  0  0
   61.5440   33.9130   48.3210 C   0  0  0  0  0  0  0  0  0  0  0  0
   62.2450   33.4560   47.1870 C   0  0  0  0  0  0  0  0  0  0  0  0
   61.7794   33.5182   46.1923 H   0  0  0  0  0  0  0  0  0  0  0  0
   63.5300   32.9240   47.3230 C   0  0  0  0  0  0  0  0  0  0  0  0
   64.0738   32.5683   46.4354 H   0  0  0  0  0  0  0  0  0  0  0  0
   64.1260   32.8430   48.5860 C   0  0  0  0  0  0  0  0  0  0  0  0
   65.1366   32.4217   48.6917 H   0  0  0  0  0  0  0  0  0  0  0  0
   63.4360   33.2980   49.7140 C   0  0  0  0  0  0  0  0  0  0  0  0
   63.9072   33.2407   50.7063 H   0  0  0  0  0  0  0  0  0  0  0  0
   62.1470   33.8260   49.5820 C   0  0  0  0  0  0  0  0  0  0  0  0
   61.6045   34.1745   50.4732 H   0  0  0  0  0  0  0  0  0  0  0  0
   57.4280   31.9340   51.0030 N   0  0  0  0  0  0  0  0  0  0  0  0
   57.0820   32.0360   52.3140 C   0  0  0  0  0  0  0  0  0  0  0  0
   56.5487   32.9071   52.7224 H   0  0  0  0  0  0  0  0  0  0  0  0
   56.1470   28.0820   54.5940 C   0  0  0  0  0  0  0  0  0  0  0  0
   54.7240   28.5310   54.5750 C   0  0  0  0  0  0  0  0  0  0  0  0
   54.1900   28.9410   55.6450 O   0  0  0  0  0  0  0  0  0  0  0  0
   53.9310   28.4750   53.3840 N   0  0  0  0  0  0  0  0  0  0  0  0
   53.2350   29.5800   52.7930 C   0  0  0  0  0  0  0  0  0  0  0  0
   53.5280   30.0200   51.4710 C   0  0  0  0  0  0  0  0  0  0  0  0
   54.3183   29.5190   50.8927 H   0  0  0  0  0  0  0  0  0  0  0  0
   52.8160   31.0900   50.8970 C   0  0  0  0  0  0  0  0  0  0  0  0
   53.0384   31.4414   49.8786 H   0  0  0  0  0  0  0  0  0  0  0  0
   51.8210   31.6870   51.6640 C   0  0  0  0  0  0  0  0  0  0  0  0
   51.0230   32.7140   51.3250 N   0  0  0  0  0  0  0  0  0  0  0  0
   50.2230   32.9480   52.3630 N   0  0  0  0  0  0  0  0  0  0  0  0
   50.5080   32.0720   53.3550 C   0  0  0  0  0  0  0  0  0  0  0  0
   50.0113   32.0208   54.3351 H   0  0  0  0  0  0  0  0  0  0  0  0
   51.5270   31.2580   52.9220 C   0  0  0  0  0  0  0  0  0  0  0  0
   52.1990   30.1980   53.5240 C   0  0  0  0  0  0  0  0  0  0  0  0
   51.9316   29.8544   54.5342 H   0  0  0  0  0  0  0  0  0  0  0  0
   56.4120   26.7010   54.4850 C   0  0  0  0  0  0  0  0  0  0  0  0
   55.5761   25.9964   54.3635 H   0  0  0  0  0  0  0  0  0  0  0  0
   57.7170   26.2170   54.5290 C   0  0  0  0  0  0  0  0  0  0  0  0
   57.9121   25.1381   54.4402 H   0  0  0  0  0  0  0  0  0  0  0  0
  1  2  1  0
  2  3  2  0
  3  4  1  0
  4  5  1  0
  5  6  1  0
  6  7  1  0
  7  8  1  0
  8  9  2  0
  9 10  1  0
 10 11  2  0
 10 12  1  0
 12 13  1  0
 12 14  1  0
 14 15  2  0
 15 16  1  0
 15 17  1  0
 17 18  1  0
 17 19  2  0
 19 20  1  0
 19 21  1  0
 21 22  1  0
 21 23  2  0
 23 24  1  0
 24 25  1  0
 25 26  2  0
 26 27  1  0
 26 28  1  0
 28 29  1  0
 28 30  2  0
 30 31  1  0
 30 32  1  0
 32 33  1  0
 32 34  2  0
 34 35  1  0
  8 36  1  0
 36 37  1  0
 37 38  1  0
  4 39  2  0
 39 40  1  0
 40 41  2  0
 40 42  1  0
 42 43  1  0
 43 44  2  0
 44 45  1  0
 44 46  1  0
 46 47  1  0
 46 48  2  0
 48 49  1  0
 49 50  1  0
 50 51  2  0
 51 52  1  0
 51 53  1  0
 53 54  2  0
 54 55  1  0
 39 56  1  0
 56 57  1  0
 56 58  2  0
 58 59  1  0
 58  2  1  0
 37  6  2  0
 54 43  1  0
 23 14  1  0
 34 25  1  0
 53 48  1  0
M  CHG  3  36  -1  42  -1  49  -1
M  END
>  <UniqueID>  (31) 
29

>  <SMILES>  (31) 
O=C(/N=c1\[n-]cc(Sc2ncccc2C(=O)[N-]c2ccc3[n-]ncc3c2)s1)Nc1ccccc1Oc1ccccc1

>  <Energy>  (31) 
156.48132133720165

>  <Genealogy>  (31) 
O=C(N=c1[n-]cc(Sc2ncccc2C(=O)[N-]c2ccc3[n-]ncc3c2)s1)Nc1ccccc1Oc1ccccc1 (protonated)
O=C(/N=c1\[n-]cc(Sc2ncccc2C(=O)[N-]c2ccc3[n-]ncc3c2)s1)Nc1ccccc1Oc1ccccc1 (cis-trans isomerization)
O=C(/N=c1\[n-]cc(Sc2ncccc2C(=O)[N-]c2ccc3[n-]ncc3c2)s1)Nc1ccccc1Oc1ccccc1 (3D coordinates assigned)
O=C(/N=c1\[n-]cc(Sc2ncccc2C(=O)[N-]c2ccc3[n-]ncc3c2)s1)Nc1ccccc1Oc1ccccc1 (optimized conformer: 156.48132133720165 kcal/mol)

>  <smiles>  (31) 
O=C(N=c1[nH]cc(Sc2ncccc2C(=O)Nc2ccc3[nH]ncc3c2)s1)Nc1ccccc1Oc1ccccc1

>  <score_type>  (31) 
oracle

>  <origin>  (31) 
adg

>  <m_score__min__energy>  (31) 
-15.75

>  <m_primary>  (31) 
energy

$$$$
31:0
     RDKit          3D

 51 54  0  0  0  0  0  0  0  0999 V2000
   52.4780   23.0050   44.0380 H   0  0  0  0  0  0  0  0  0  0  0  0
   52.5960   23.3350   45.0220 N   0  0  0  0  0  0  0  0  0  0  0  0
   54.2800   23.2190   45.3970 S   0  0  0  0  0  0  0  0  0  0  0  0
   54.5400   21.9930   46.2270 O   0  0  0  0  0  0  0  0  0  0  0  0
   55.0630   23.1220   44.1180 O   0  0  0  0  0  0  0  0  0  0  0  0
   54.7870   24.6320   46.2630 N   0  0  0  0  0  0  0  0  0  0  0  0
   56.0700   25.2590   46.1380 C   0  0  0  0  0  0  0  0  0  0  0  0
   57.2160   24.5360   46.5430 C   0  0  0  0  0  0  0  0  0  0  0  0
   57.1020   23.5180   46.9439 H   0  0  0  0  0  0  0  0  0  0  0  0
   58.4980   25.1010   46.4400 C   0  0  0  0  0  0  0  0  0  0  0  0
   59.3907   24.5394   46.7526 H   0  0  0  0  0  0  0  0  0  0  0  0
   58.6060   26.3920   45.9310 C   0  0  0  0  0  0  0  0  0  0  0  0
   59.7430   27.0900   45.7590 N   0  0  0  0  0  0  0  0  0  0  0  0
   59.3410   28.2740   45.2410 C   0  0  0  0  0  0  0  0  0  0  0  0
   60.2530   29.2820   44.9310 O   0  0  0  0  0  0  0  0  0  0  0  0
   61.1050   29.1180   44.4150 H   0  0  0  0  0  0  0  0  0  0  0  0
   57.9490   28.3280   45.0810 C   0  0  0  0  0  0  0  0  0  0  0  0
   57.1010   29.4140   44.5510 C   0  0  0  0  0  0  0  0  0  0  0  0
   56.5599   29.2646   43.6050 H   0  0  0  0  0  0  0  0  0  0  0  0
   56.9830   30.5420   45.1820 N   0  0  0  0  0  0  0  0  0  0  0  0
   58.0540   31.3360   45.7210 C   0  0  0  0  0  0  0  0  0  0  0  0
   58.4590   32.5590   45.1510 C   0  0  0  0  0  0  0  0  0  0  0  0
   57.9538   32.9375   44.2502 H   0  0  0  0  0  0  0  0  0  0  0  0
   59.5010   33.2940   45.7260 C   0  0  0  0  0  0  0  0  0  0  0  0
   59.8172   34.2423   45.2670 H   0  0  0  0  0  0  0  0  0  0  0  0
   60.1470   32.8320   46.8840 C   0  0  0  0  0  0  0  0  0  0  0  0
   61.2320   33.5810   47.4650 N   0  0  0  0  0  0  0  0  0  0  0  0
   61.1400   34.0600   48.8480 C   0  0  0  0  0  0  0  0  0  0  0  0
   60.6697   33.2829   49.4685 H   0  0  0  0  0  0  0  0  0  0  0  0
   60.5361   34.9793   48.8637 H   0  0  0  0  0  0  0  0  0  0  0  0
   62.5360   34.3770   49.4090 C   0  0  0  0  0  0  0  0  0  0  0  0
   62.4929   34.3493   50.5078 H   0  0  0  0  0  0  0  0  0  0  0  0
   62.8305   35.3742   49.0500 H   0  0  0  0  0  0  0  0  0  0  0  0
   63.5480   33.4040   48.9450 N   0  0  0  0  0  0  0  0  0  0  0  0
   63.3210   32.0630   49.5150 C   0  0  0  0  0  0  0  0  0  0  0  0
   63.3315   32.1248   50.6132 H   0  0  0  0  0  0  0  0  0  0  0  0
   62.3456   31.6819   49.1785 H   0  0  0  0  0  0  0  0  0  0  0  0
   64.1167   31.3821   49.1785 H   0  0  0  0  0  0  0  0  0  0  0  0
   63.6900   33.3590   47.4660 C   0  0  0  0  0  0  0  0  0  0  0  0
   63.8753   32.3166   47.1675 H   0  0  0  0  0  0  0  0  0  0  0  0
   64.5234   34.0277   47.2049 H   0  0  0  0  0  0  0  0  0  0  0  0
   62.4520   33.8690   46.7040 C   0  0  0  0  0  0  0  0  0  0  0  0
   62.3963   33.3687   45.7259 H   0  0  0  0  0  0  0  0  0  0  0  0
   62.5395   34.9568   46.5662 H   0  0  0  0  0  0  0  0  0  0  0  0
   59.7380   31.6160   47.4530 C   0  0  0  0  0  0  0  0  0  0  0  0
   60.2410   31.2385   48.3555 H   0  0  0  0  0  0  0  0  0  0  0  0
   58.6950   30.8810   46.8800 C   0  0  0  0  0  0  0  0  0  0  0  0
   58.3751   29.9364   47.3442 H   0  0  0  0  0  0  0  0  0  0  0  0
   57.5030   27.1040   45.5350 C   0  0  0  0  0  0  0  0  0  0  0  0
   56.2150   26.5690   45.6240 C   0  0  0  0  0  0  0  0  0  0  0  0
   55.3381   27.1505   45.3032 H   0  0  0  0  0  0  0  0  0  0  0  0
  1  2  1  0
  2  3  1  0
  3  4  2  0
  3  5  2  0
  3  6  1  0
  6  7  1  0
  7  8  2  0
  8  9  1  0
  8 10  1  0
 10 11  1  0
 10 12  2  0
 12 13  1  0
 13 14  1  0
 14 15  1  0
 15 16  1  0
 14 17  2  0
 17 18  1  0
 18 19  1  0
 18 20  2  0
 20 21  1  0
 21 22  2  0
 22 23  1  0
 22 24  1  0
 24 25  1  0
 24 26  2  0
 26 27  1  0
 27 28  1  0
 28 29  1  0
 28 30  1  0
 28 31  1  0
 31 32  1  0
 31 33  1  0
 31 34  1  0
 34 35  1  0
 35 36  1  0
 35 37  1  0
 35 38  1  0
 34 39  1  0
 39 40  1  0
 39 41  1  0
 39 42  1  0
 42 43  1  0
 42 44  1  0
 26 45  1  0
 45 46  1  0
 45 47  2  0
 47 48  1  0
 17 49  1  0
 49 50  2  0
 50 51  1  0
 50  7  1  0
 49 12  1  0
 47 21  1  0
 42 27  1  0
M  CHG  3   2  -1   6  -1  13  -1
M  END
>  <UniqueID>  (32) 
30

>  <SMILES>  (32) 
CN1CCN(c2ccc(/N=C/c3c(O)[n-]c4ccc([N-]S([NH-])(=O)=O)cc34)cc2)CC1

>  <Energy>  (32) 
102.75371103670594

>  <Genealogy>  (32) 
CN1CCN(c2ccc(N=Cc3c(O)[n-]c4ccc([N-]S([NH-])(=O)=O)cc34)cc2)CC1 (protonated)
CN1CCN(c2ccc(/N=C/c3c(O)[n-]c4ccc([N-]S([NH-])(=O)=O)cc34)cc2)CC1 (cis-trans isomerization)
CN1CCN(c2ccc(/N=C/c3c(O)[n-]c4ccc([N-]S([NH-])(=O)=O)cc34)cc2)CC1 (3D coordinates assigned)
CN1CCN(c2ccc(/N=C/c3c(O)[n-]c4ccc([N-]S([NH-])(=O)=O)cc34)cc2)CC1 (nonaromatic ring conformer: 102.75371103670594 kcal/mol)

>  <smiles>  (32) 
CN1CCN(c2ccc(N=Cc3c(O)[nH]c4ccc(NS(N)(=O)=O)cc34)cc2)CC1

>  <score_type>  (32) 
oracle

>  <origin>  (32) 
adg

>  <m_score__min__energy>  (32) 
-13.41

>  <m_primary>  (32) 
energy

$$$$
32:0
     RDKit          3D

 73 77  0  0  0  0  0  0  0  0999 V2000
   55.3970   26.7480   45.9740 O   0  0  0  0  0  0  0  0  0  0  0  0
   56.5890   27.1530   45.9090 C   0  0  0  0  0  0  0  0  0  0  0  0
   56.9470   28.2190   44.9180 C   0  0  0  0  0  0  0  0  0  0  0  0
   55.5510   29.3390   44.5210 S   0  0  0  0  0  0  0  0  0  0  0  0
   56.5670   30.7760   44.1930 C   0  0  0  0  0  0  0  0  0  0  0  0
   56.8450   31.6540   45.1900 N   0  0  0  0  0  0  0  0  0  0  0  0
   57.5730   32.7780   44.9540 C   0  0  0  0  0  0  0  0  0  0  0  0
   57.6770   33.8210   46.0270 C   0  0  0  0  0  0  0  0  0  0  0  0
   58.9540   33.6040   46.7900 C   0  0  0  0  0  0  0  0  0  0  0  0
   59.4000   34.5750   47.7020 C   0  0  0  0  0  0  0  0  0  0  0  0
   60.6710   34.4780   48.2720 C   0  0  0  0  0  0  0  0  0  0  0  0
   61.5070   33.4020   47.9490 C   0  0  0  0  0  0  0  0  0  0  0  0
   63.1620   33.3700   48.5530 S   0  0  0  0  0  0  0  0  0  0  0  0
   63.3880   34.5290   49.4840 O   0  0  0  0  0  0  0  0  0  0  0  0
   64.1120   33.5010   47.3950 O   0  0  0  0  0  0  0  0  0  0  0  0
   63.4570   31.8540   49.3630 N   0  0  0  0  0  0  0  0  0  0  0  0
   63.6810   32.0510   50.8130 C   0  0  0  0  0  0  0  0  0  0  0  0
   62.5970   32.9730   51.4520 C   0  0  0  0  0  0  0  0  0  0  0  0
   61.6800   32.2350   52.4440 C   0  0  0  0  0  0  0  0  0  0  0  0
   61.2210   30.9350   51.9110 N   0  0  0  0  0  0  0  0  0  0  0  0
   60.2350   31.1080   50.8220 C   0  0  0  0  0  0  0  0  0  0  0  0
   58.8480   31.2630   51.3850 C   0  0  0  0  0  0  0  0  0  0  0  0
   58.3780   32.5350   51.7510 C   0  0  0  0  0  0  0  0  0  0  0  0
   57.0880   32.6860   52.2700 C   0  0  0  0  0  0  0  0  0  0  0  0
   56.2610   31.5700   52.4280 C   0  0  0  0  0  0  0  0  0  0  0  0
   56.7240   30.3020   52.0680 C   0  0  0  0  0  0  0  0  0  0  0  0
   58.0120   30.1460   51.5490 C   0  0  0  0  0  0  0  0  0  0  0  0
   62.3330   30.0180   51.5380 C   0  0  0  0  0  0  0  0  0  0  0  0
   63.7210   30.6840   51.5190 C   0  0  0  0  0  0  0  0  0  0  0  0
   61.0510   32.4090   47.0700 C   0  0  0  0  0  0  0  0  0  0  0  0
   59.7870   32.5140   46.4850 C   0  0  0  0  0  0  0  0  0  0  0  0
   58.0500   33.0330   43.6620 C   0  0  0  0  0  0  0  0  0  0  0  0
   57.7570   32.1170   42.6510 C   0  0  0  0  0  0  0  0  0  0  0  0
   58.1590   32.3200   41.4750 O   0  0  0  0  0  0  0  0  0  0  0  0
   57.0170   31.0130   42.9320 N   0  0  0  0  0  0  0  0  0  0  0  0
   57.5900   26.6130   46.7830 N   0  0  0  0  0  0  0  0  0  0  0  0
   58.6390   27.3720   47.3980 C   0  0  0  0  0  0  0  0  0  0  0  0
   58.5410   28.7680   47.4200 C   0  0  0  0  0  0  0  0  0  0  0  0
   59.5310   29.5370   48.0410 C   0  0  0  0  0  0  0  0  0  0  0  0
   60.6140   28.9100   48.6630 C   0  0  0  0  0  0  0  0  0  0  0  0
   60.7060   27.5150   48.6700 C   0  0  0  0  0  0  0  0  0  0  0  0
   59.7240   26.7450   48.0390 C   0  0  0  0  0  0  0  0  0  0  0  0
   57.7693   28.8199   45.3335 H   0  0  0  0  0  0  0  0  0  0  0  0
   57.2339   27.7127   43.9845 H   0  0  0  0  0  0  0  0  0  0  0  0
   57.6844   34.8218   45.5705 H   0  0  0  0  0  0  0  0  0  0  0  0
   56.8166   33.7443   46.7080 H   0  0  0  0  0  0  0  0  0  0  0  0
   58.7440   35.4168   47.9687 H   0  0  0  0  0  0  0  0  0  0  0  0
   61.0165   35.2488   48.9766 H   0  0  0  0  0  0  0  0  0  0  0  0
   62.5890   31.2980   49.2010 H   0  0  0  0  0  0  0  0  0  0  0  0
   64.6482   32.5583   50.9441 H   0  0  0  0  0  0  0  0  0  0  0  0
   63.1040   33.7900   51.9863 H   0  0  0  0  0  0  0  0  0  0  0  0
   61.9616   33.3448   50.6347 H   0  0  0  0  0  0  0  0  0  0  0  0
   62.2345   32.0603   53.3778 H   0  0  0  0  0  0  0  0  0  0  0  0
   60.7938   32.8626   52.6193 H   0  0  0  0  0  0  0  0  0  0  0  0
   60.4919   32.0058   50.2406 H   0  0  0  0  0  0  0  0  0  0  0  0
   60.2589   30.2177   50.1763 H   0  0  0  0  0  0  0  0  0  0  0  0
   59.0265   33.4151   51.6291 H   0  0  0  0  0  0  0  0  0  0  0  0
   56.7237   33.6842   52.5542 H   0  0  0  0  0  0  0  0  0  0  0  0
   55.2464   31.6902   52.8355 H   0  0  0  0  0  0  0  0  0  0  0  0
   56.0730   29.4242   52.1934 H   0  0  0  0  0  0  0  0  0  0  0  0
   58.3724   29.1454   51.2680 H   0  0  0  0  0  0  0  0  0  0  0  0
   62.3568   29.1917   52.2637 H   0  0  0  0  0  0  0  0  0  0  0  0
   62.1315   29.6781   50.5114 H   0  0  0  0  0  0  0  0  0  0  0  0
   64.0633   30.8264   52.5546 H   0  0  0  0  0  0  0  0  0  0  0  0
   64.4103   30.0296   50.9653 H   0  0  0  0  0  0  0  0  0  0  0  0
   61.6910   31.5443   46.8404 H   0  0  0  0  0  0  0  0  0  0  0  0
   59.4422   31.7406   45.7829 H   0  0  0  0  0  0  0  0  0  0  0  0
   58.6423   33.9351   43.4491 H   0  0  0  0  0  0  0  0  0  0  0  0
   57.6806   29.2633   46.9463 H   0  0  0  0  0  0  0  0  0  0  0  0
   59.4570   30.6345   48.0397 H   0  0  0  0  0  0  0  0  0  0  0  0
   61.3948   29.5146   49.1475 H   0  0  0  0  0  0  0  0  0  0  0  0
   61.5517   27.0226   49.1724 H   0  0  0  0  0  0  0  0  0  0  0  0
   59.7995   25.6476   48.0436 H   0  0  0  0  0  0  0  0  0  0  0  0
  1  2  2  0
  2  3  1  0
  3  4  1  0
  4  5  1  0
  5  6  2  0
  6  7  1  0
  7  8  1  0
  8  9  1  0
  9 10  2  0
 10 11  1  0
 11 12  2  0
 12 13  1  0
 13 14  2  0
 13 15  2  0
 13 16  1  0
 16 17  1  0
 17 18  1  0
 18 19  1  0
 19 20  1  0
 20 21  1  0
 21 22  1  0
 22 23  2  0
 23 24  1  0
 24 25  2  0
 25 26  1  0
 26 27  2  0
 20 28  1  0
 28 29  1  0
 12 30  1  0
 30 31  2  0
  7 32  2  0
 32 33  1  0
 33 34  2  0
 33 35  1  0
  2 36  1  0
 36 37  1  0
 37 38  2  0
 38 39  1  0
 39 40  2  0
 40 41  1  0
 41 42  2  0
 35  5  1  0
 42 37  1  0
 31  9  1  0
 29 17  1  0
 27 22  1  0
  3 43  1  0
  3 44  1  0
  8 45  1  0
  8 46  1  0
 10 47  1  0
 11 48  1  0
 16 49  1  0
 17 50  1  0
 18 51  1  0
 18 52  1  0
 19 53  1  0
 19 54  1  0
 21 55  1  0
 21 56  1  0
 23 57  1  0
 24 58  1  0
 25 59  1  0
 26 60  1  0
 27 61  1  0
 28 62  1  0
 28 63  1  0
 29 64  1  0
 29 65  1  0
 30 66  1  0
 31 67  1  0
 32 68  1  0
 38 69  1  0
 39 70  1  0
 40 71  1  0
 41 72  1  0
 42 73  1  0
M  CHG  2  35  -1  36  -1
M  END
>  <UniqueID>  (33) 
31

>  <SMILES>  (33) 
O=C(CSc1nc(Cc2ccc(S(=O)(=O)NC3CCN(Cc4ccccc4)CC3)cc2)cc(=O)[n-]1)[N-]c1ccccc1

>  <Energy>  (33) 
85.07833878541508

>  <Genealogy>  (33) 
O=C(CSc1nc(Cc2ccc(S(=O)(=O)NC3CCN(Cc4ccccc4)CC3)cc2)cc(=O)[n-]1)[N-]c1ccccc1 (protonated)
O=C(CSc1nc(Cc2ccc(S(=O)(=O)NC3CCN(Cc4ccccc4)CC3)cc2)cc(=O)[n-]1)[N-]c1ccccc1 (3D coordinates assigned)
O=C(CSc1nc(Cc2ccc(S(=O)(=O)NC3CCN(Cc4ccccc4)CC3)cc2)cc(=O)[n-]1)[N-]c1ccccc1 (nonaromatic ring conformer: 85.07833878541508 kcal/mol)

>  <smiles>  (33) 
O=C(CSc1nc(Cc2ccc(S(=O)(=O)NC3CCN(Cc4ccccc4)CC3)cc2)cc(=O)[nH]1)Nc1ccccc1

>  <score_type>  (33) 
oracle

>  <origin>  (33) 
adg

>  <m_score__min__energy>  (33) 
-14.16

>  <m_primary>  (33) 
energy

$$$$
33:0
     RDKit          3D

 40 43  0  0  0  0  0  0  0  0999 V2000
   55.1840   29.3390   44.9450 O   0  0  0  0  0  0  0  0  0  0  0  0
   56.2770   28.7850   45.2440 C   0  0  0  0  0  0  0  0  0  0  0  0
   57.4900   29.5510   45.2610 N   0  0  0  0  0  0  0  0  0  0  0  0
   57.6920   30.7480   44.4900 C   0  0  0  0  0  0  0  0  0  0  0  0
   57.3710   30.8020   43.1220 C   0  0  0  0  0  0  0  0  0  0  0  0
   57.5880   31.9730   42.3930 C   0  0  0  0  0  0  0  0  0  0  0  0
   58.1450   33.0950   43.0130 C   0  0  0  0  0  0  0  0  0  0  0  0
   58.5120   33.0440   44.3690 C   0  0  0  0  0  0  0  0  0  0  0  0
   59.0690   34.1910   45.0340 N   0  0  0  0  0  0  0  0  0  0  0  0
   59.7520   34.1440   46.2990 C   0  0  0  0  0  0  0  0  0  0  0  0
   61.1290   33.8640   46.3770 C   0  0  0  0  0  0  0  0  0  0  0  0
   61.7640   33.7950   47.6210 C   0  0  0  0  0  0  0  0  0  0  0  0
   61.0310   33.9870   48.7940 C   0  0  0  0  0  0  0  0  0  0  0  0
   59.6580   34.2420   48.7260 C   0  0  0  0  0  0  0  0  0  0  0  0
   59.0200   34.3110   47.4850 C   0  0  0  0  0  0  0  0  0  0  0  0
   58.2690   31.8720   45.1020 C   0  0  0  0  0  0  0  0  0  0  0  0
   56.2690   27.3710   45.6510 C   0  0  0  0  0  0  0  0  0  0  0  0
   55.1430   26.6960   45.9830 N   0  0  0  0  0  0  0  0  0  0  0  0
   55.4600   25.4450   46.3010 N   0  0  0  0  0  0  0  0  0  0  0  0
   56.7900   25.3210   46.1640 C   0  0  0  0  0  0  0  0  0  0  0  0
   57.5600   24.1770   46.3630 C   0  0  0  0  0  0  0  0  0  0  0  0
   58.9420   24.2680   46.1150 C   0  0  0  0  0  0  0  0  0  0  0  0
   59.5110   25.4830   45.6680 C   0  0  0  0  0  0  0  0  0  0  0  0
   58.7050   26.6200   45.4730 C   0  0  0  0  0  0  0  0  0  0  0  0
   57.3410   26.5030   45.7510 C   0  0  0  0  0  0  0  0  0  0  0  0
   58.2210   29.2850   45.9580 H   0  0  0  0  0  0  0  0  0  0  0  0
   56.9470   29.9177   42.6239 H   0  0  0  0  0  0  0  0  0  0  0  0
   57.3196   32.0126   41.3270 H   0  0  0  0  0  0  0  0  0  0  0  0
   58.2966   34.0206   42.4382 H   0  0  0  0  0  0  0  0  0  0  0  0
   58.9700   35.1210   44.5670 H   0  0  0  0  0  0  0  0  0  0  0  0
   61.7078   33.6989   45.4563 H   0  0  0  0  0  0  0  0  0  0  0  0
   62.8432   33.5890   47.6757 H   0  0  0  0  0  0  0  0  0  0  0  0
   61.5337   33.9376   49.7712 H   0  0  0  0  0  0  0  0  0  0  0  0
   59.0797   34.3884   49.6502 H   0  0  0  0  0  0  0  0  0  0  0  0
   57.9370   34.4974   47.4370 H   0  0  0  0  0  0  0  0  0  0  0  0
   58.5339   31.8337   46.1689 H   0  0  0  0  0  0  0  0  0  0  0  0
   57.1034   23.2355   46.7022 H   0  0  0  0  0  0  0  0  0  0  0  0
   59.5840   23.3883   46.2698 H   0  0  0  0  0  0  0  0  0  0  0  0
   60.5918   25.5398   45.4712 H   0  0  0  0  0  0  0  0  0  0  0  0
   59.1339   27.5673   45.1144 H   0  0  0  0  0  0  0  0  0  0  0  0
  1  2  2  0
  2  3  1  0
  3  4  1  0
  4  5  2  0
  5  6  1  0
  6  7  2  0
  7  8  1  0
  8  9  1  0
  9 10  1  0
 10 11  2  0
 11 12  1  0
 12 13  2  0
 13 14  1  0
 14 15  2  0
  8 16  2  0
  2 17  1  0
 17 18  1  0
 18 19  1  0
 19 20  2  0
 20 21  1  0
 21 22  2  0
 22 23  1  0
 23 24  2  0
 24 25  1  0
 16  4  1  0
 25 17  2  0
 15 10  1  0
 25 20  1  0
  3 26  1  0
  5 27  1  0
  6 28  1  0
  7 29  1  0
  9 30  1  0
 11 31  1  0
 12 32  1  0
 13 33  1  0
 14 34  1  0
 15 35  1  0
 16 36  1  0
 21 37  1  0
 22 38  1  0
 23 39  1  0
 24 40  1  0
M  CHG  1  18  -1
M  END
>  <UniqueID>  (34) 
32

>  <SMILES>  (34) 
O=C(Nc1cccc(Nc2ccccc2)c1)c1[n-]nc2ccccc12

>  <Energy>  (34) 
93.53216109385708

>  <Genealogy>  (34) 
O=C(Nc1cccc(Nc2ccccc2)c1)c1[n-]nc2ccccc12 (protonated)
O=C(Nc1cccc(Nc2ccccc2)c1)c1[n-]nc2ccccc12 (3D coordinates assigned)
O=C(Nc1cccc(Nc2ccccc2)c1)c1[n-]nc2ccccc12 (optimized conformer: 93.53216109385708 kcal/mol)

>  <smiles>  (34) 
O=C(Nc1cccc(Nc2ccccc2)c1)c1[nH]nc2ccccc12

>  <score_type>  (34) 
oracle

>  <origin>  (34) 
adg

>  <m_score__min__energy>  (34) 
-11.529999999999999

>  <m_primary>  (34) 
energy

$$$$
34:0
     RDKit          3D

 38 39  0  0  0  0  0  0  0  0999 V2000
   59.6350   33.6640   48.4570 C   0  0  0  0  0  0  0  0  0  0  0  0
   59.1140   33.5950   47.0490 C   0  0  0  0  0  0  0  0  0  0  0  0
   59.2190   34.7100   46.2020 C   0  0  0  0  0  0  0  0  0  0  0  0
   58.7360   34.6470   44.8950 C   0  0  0  0  0  0  0  0  0  0  0  0
   58.1630   33.4700   44.4140 C   0  0  0  0  0  0  0  0  0  0  0  0
   58.0770   32.3330   45.2330 C   0  0  0  0  0  0  0  0  0  0  0  0
   57.5340   31.0740   44.6650 C   0  0  0  0  0  0  0  0  0  0  0  0
   56.2850   30.9120   44.6350 O   0  0  0  0  0  0  0  0  0  0  0  0
   58.3910   29.9800   44.1520 C   0  0  0  0  0  0  0  0  0  0  0  0
   58.9610   29.0150   44.8940 C   0  0  0  0  0  0  0  0  0  0  0  0
   58.2380   27.8890   45.5190 C   0  0  0  0  0  0  0  0  0  0  0  0
   58.9630   26.8590   46.1260 C   0  0  0  0  0  0  0  0  0  0  0  0
   58.2990   25.7690   46.6910 C   0  0  0  0  0  0  0  0  0  0  0  0
   56.8990   25.6990   46.6900 C   0  0  0  0  0  0  0  0  0  0  0  0
   56.3180   24.5650   47.2810 O   0  0  0  0  0  0  0  0  0  0  0  0
   56.2720   22.9850   46.6210 S   0  0  0  0  0  0  0  0  0  0  0  0
   56.9530   22.9760   44.9760 C   0  0  0  0  0  0  0  0  0  0  0  0
   57.0180   22.0230   47.5040 O   0  0  0  0  0  0  0  0  0  0  0  0
   54.8360   22.5480   46.5420 O   0  0  0  0  0  0  0  0  0  0  0  0
   56.1640   26.7450   46.0860 C   0  0  0  0  0  0  0  0  0  0  0  0
   54.7810   26.7070   45.9910 O   0  0  0  0  0  0  0  0  0  0  0  0
   56.8360   27.8410   45.5310 C   0  0  0  0  0  0  0  0  0  0  0  0
   58.5260   32.4100   46.5690 C   0  0  0  0  0  0  0  0  0  0  0  0
   58.3840   31.3190   47.4210 O   0  0  0  0  0  0  0  0  0  0  0  0
   58.7989   33.5533   49.1632 H   0  0  0  0  0  0  0  0  0  0  0  0
   60.3616   32.8542   48.6192 H   0  0  0  0  0  0  0  0  0  0  0  0
   60.1258   34.6350   48.6192 H   0  0  0  0  0  0  0  0  0  0  0  0
   59.6838   35.6364   46.5705 H   0  0  0  0  0  0  0  0  0  0  0  0
   58.8073   35.5288   44.2413 H   0  0  0  0  0  0  0  0  0  0  0  0
   57.7755   33.4323   43.3852 H   0  0  0  0  0  0  0  0  0  0  0  0
   58.5773   29.9552   43.0682 H   0  0  0  0  0  0  0  0  0  0  0  0
   60.0490   29.0680   45.0474 H   0  0  0  0  0  0  0  0  0  0  0  0
   60.0614   26.9079   46.1584 H   0  0  0  0  0  0  0  0  0  0  0  0
   58.8825   24.9536   47.1434 H   0  0  0  0  0  0  0  0  0  0  0  0
   58.0514   22.9615   45.0339 H   0  0  0  0  0  0  0  0  0  0  0  0
   56.6023   22.0824   44.4389 H   0  0  0  0  0  0  0  0  0  0  0  0
   56.6261   23.8785   44.4389 H   0  0  0  0  0  0  0  0  0  0  0  0
   56.2589   28.6725   45.1002 H   0  0  0  0  0  0  0  0  0  0  0  0
  1  2  1  0
  2  3  2  0
  3  4  1  0
  4  5  2  0
  5  6  1  0
  6  7  1  0
  7  8  2  0
  7  9  1  0
  9 10  2  3
 10 11  1  0
 11 12  2  0
 12 13  1  0
 13 14  2  0
 14 15  1  0
 15 16  1  0
 16 17  1  0
 16 18  2  0
 16 19  2  0
 14 20  1  0
 20 21  1  0
 20 22  2  0
  6 23  2  0
 23 24  1  0
 23  2  1  0
 22 11  1  0
  1 25  1  0
  1 26  1  0
  1 27  1  0
  3 28  1  0
  4 29  1  0
  5 30  1  0
  9 31  1  0
 10 32  1  0
 12 33  1  0
 13 34  1  0
 17 35  1  0
 17 36  1  0
 17 37  1  0
 22 38  1  0
M  CHG  2  21  -1  24  -1
M  END
>  <UniqueID>  (35) 
33

>  <SMILES>  (35) 
Cc1cccc(C(=O)C=Cc2ccc(OS(C)(=O)=O)c([O-])c2)c1[O-]

>  <Energy>  (35) 
49.6900538144009

>  <Genealogy>  (35) 
Cc1cccc(C(=O)C=Cc2ccc(OS(C)(=O)=O)c([O-])c2)c1[O-] (protonated)
Cc1cccc(C(=O)C=Cc2ccc(OS(C)(=O)=O)c([O-])c2)c1[O-] (3D coordinates assigned)
Cc1cccc(C(=O)C=Cc2ccc(OS(C)(=O)=O)c([O-])c2)c1[O-] (optimized conformer: 49.6900538144009 kcal/mol)

>  <smiles>  (35) 
Cc1cccc(C(=O)C=Cc2ccc(OS(C)(=O)=O)c(O)c2)c1O

>  <score_type>  (35) 
oracle

>  <origin>  (35) 
adg

>  <m_score__min__energy>  (35) 
-14.630000000000001

>  <m_primary>  (35) 
energy

$$$$
35:0
     RDKit          3D

 40 42  0  0  0  0  0  0  0  0999 V2000
   55.9130   24.7410   47.1260 O   0  0  0  0  0  0  0  0  0  0  0  0
   55.9610   25.7440   46.3660 C   0  0  0  0  0  0  0  0  0  0  0  0
   54.7750   26.3240   45.9310 O   0  0  0  0  0  0  0  0  0  0  0  0
   57.2620   26.2940   45.9520 C   0  0  0  0  0  0  0  0  0  0  0  0
   58.3060   25.9330   46.5610 O   0  0  0  0  0  0  0  0  0  0  0  0
   57.3830   27.2440   44.7970 C   0  0  0  0  0  0  0  0  0  0  0  0
   57.0560   28.6420   45.2440 C   0  0  0  0  0  0  0  0  0  0  0  0
   55.8570   29.0230   45.1810 O   0  0  0  0  0  0  0  0  0  0  0  0
   58.0870   29.5550   45.7910 C   0  0  0  0  0  0  0  0  0  0  0  0
   59.1560   29.2110   46.6170 C   0  0  0  0  0  0  0  0  0  0  0  0
   59.9100   30.2980   46.9040 N   0  0  0  0  0  0  0  0  0  0  0  0
   61.0880   30.3060   47.7790 C   0  0  0  0  0  0  0  0  0  0  0  0
   61.1300   31.5470   48.6540 C   0  0  0  0  0  0  0  0  0  0  0  0
   62.1130   32.5530   48.4570 C   0  0  0  0  0  0  0  0  0  0  0  0
   63.3180   32.4690   47.1730 Cl  0  0  0  0  0  0  0  0  0  0  0  0
   62.1470   33.6760   49.2910 C   0  0  0  0  0  0  0  0  0  0  0  0
   61.2070   33.8300   50.3070 C   0  0  0  0  0  0  0  0  0  0  0  0
   60.2130   32.8720   50.4890 C   0  0  0  0  0  0  0  0  0  0  0  0
   60.1590   31.7410   49.6680 C   0  0  0  0  0  0  0  0  0  0  0  0
   58.8310   30.6140   49.9250 Cl  0  0  0  0  0  0  0  0  0  0  0  0
   59.3120   31.3430   46.2910 C   0  0  0  0  0  0  0  0  0  0  0  0
   59.6820   32.6900   46.3280 C   0  0  0  0  0  0  0  0  0  0  0  0
   58.9030   33.6260   45.6130 C   0  0  0  0  0  0  0  0  0  0  0  0
   59.2650   35.0610   45.6210 C   0  0  0  0  0  0  0  0  0  0  0  0
   59.2500   35.7310   44.5540 O   0  0  0  0  0  0  0  0  0  0  0  0
   59.6250   35.6890   46.8070 O   0  0  0  0  0  0  0  0  0  0  0  0
   57.7670   33.1810   44.8930 C   0  0  0  0  0  0  0  0  0  0  0  0
   57.4070   31.8240   44.8840 C   0  0  0  0  0  0  0  0  0  0  0  0
   58.2040   30.9230   45.5930 C   0  0  0  0  0  0  0  0  0  0  0  0
   58.4121   27.2169   44.4094 H   0  0  0  0  0  0  0  0  0  0  0  0
   56.6787   26.9436   44.0073 H   0  0  0  0  0  0  0  0  0  0  0  0
   59.3592   28.1946   46.9854 H   0  0  0  0  0  0  0  0  0  0  0  0
   61.0587   29.4157   48.4244 H   0  0  0  0  0  0  0  0  0  0  0  0
   61.9864   30.3036   47.1443 H   0  0  0  0  0  0  0  0  0  0  0  0
   62.9218   34.4427   49.1431 H   0  0  0  0  0  0  0  0  0  0  0  0
   61.2498   34.7094   50.9664 H   0  0  0  0  0  0  0  0  0  0  0  0
   59.4648   33.0057   51.2842 H   0  0  0  0  0  0  0  0  0  0  0  0
   60.5622   33.0146   46.9024 H   0  0  0  0  0  0  0  0  0  0  0  0
   57.1593   33.9078   44.3340 H   0  0  0  0  0  0  0  0  0  0  0  0
   56.5198   31.4794   44.3325 H   0  0  0  0  0  0  0  0  0  0  0  0
  1  2  2  0
  2  3  1  0
  2  4  1  0
  4  5  2  0
  4  6  1  0
  6  7  1  0
  7  8  2  0
  7  9  1  0
  9 10  2  0
 10 11  1  0
 11 12  1  0
 12 13  1  0
 13 14  2  0
 14 15  1  0
 14 16  1  0
 16 17  2  0
 17 18  1  0
 18 19  2  0
 19 20  1  0
 11 21  1  0
 21 22  2  0
 22 23  1  0
 23 24  1  0
 24 25  2  0
 24 26  1  0
 23 27  2  0
 27 28  1  0
 28 29  2  0
 29  9  1  0
 19 13  1  0
 29 21  1  0
  6 30  1  0
  6 31  1  0
 10 32  1  0
 12 33  1  0
 12 34  1  0
 16 35  1  0
 17 36  1  0
 18 37  1  0
 22 38  1  0
 27 39  1  0
 28 40  1  0
M  CHG  2   3  -1  26  -1
M  END
>  <UniqueID>  (36) 
34

>  <SMILES>  (36) 
O=C([O-])C(=O)CC(=O)c1cn(Cc2c(Cl)cccc2Cl)c2cc(C(=O)[O-])ccc12

>  <Energy>  (36) 
78.61124380732066

>  <Genealogy>  (36) 
O=C([O-])C(=O)CC(=O)c1cn(Cc2c(Cl)cccc2Cl)c2cc(C(=O)[O-])ccc12 (protonated)
O=C([O-])C(=O)CC(=O)c1cn(Cc2c(Cl)cccc2Cl)c2cc(C(=O)[O-])ccc12 (3D coordinates assigned)
O=C([O-])C(=O)CC(=O)c1cn(Cc2c(Cl)cccc2Cl)c2cc(C(=O)[O-])ccc12 (optimized conformer: 78.61124380732066 kcal/mol)

>  <smiles>  (36) 
O=C(O)C(=O)CC(=O)c1cn(Cc2c(Cl)cccc2Cl)c2cc(C(=O)O)ccc12

>  <score_type>  (36) 
oracle

>  <origin>  (36) 
adg

>  <m_score__min__energy>  (36) 
-12.539999999999999

>  <m_primary>  (36) 
energy

$$$$
36:0
     RDKit          3D

 59 62  0  0  0  0  0  0  0  0999 V2000
   60.5280   29.7640   46.1050 C   0  0  0  0  0  0  0  0  0  0  0  0
   59.7910   30.4860   47.2020 C   0  0  0  0  0  0  0  0  0  0  0  0
   60.1010   30.2060   48.5430 C   0  0  0  0  0  0  0  0  0  0  0  0
   59.4230   30.8510   49.5890 C   0  0  0  0  0  0  0  0  0  0  0  0
   59.7630   30.5340   50.9890 C   0  0  0  0  0  0  0  0  0  0  0  0
   58.9880   30.9030   51.9110 O   0  0  0  0  0  0  0  0  0  0  0  0
   60.9750   29.8450   51.3240 N   0  0  0  0  0  0  0  0  0  0  0  0
   61.7010   28.6360   50.8900 C   0  0  0  0  0  0  0  0  0  0  0  0
   62.8650   28.8050   51.8060 C   0  0  0  0  0  0  0  0  0  0  0  0
   62.1150   30.0330   52.2540 C   0  0  2  0  0  0  0  0  0  0  0  0
   61.6030   29.9710   53.7050 C   0  0  0  0  0  0  0  0  0  0  0  0
   62.8590   31.3330   51.9790 C   0  0  0  0  0  0  0  0  0  0  0  0
   62.3550   32.4180   52.3720 O   0  0  0  0  0  0  0  0  0  0  0  0
   64.1610   31.3850   51.3740 N   0  0  0  0  0  0  0  0  0  0  0  0
   64.8520   32.6520   50.4050 S   0  0  0  0  0  0  0  0  0  0  0  0
   66.1080   32.1540   49.7450 O   0  0  0  0  0  0  0  0  0  0  0  0
   65.1750   33.8680   51.2240 O   0  0  0  0  0  0  0  0  0  0  0  0
   63.6750   33.1080   49.1790 C   0  0  0  0  0  0  0  0  0  0  0  0
   64.0290   33.0560   47.8230 C   0  0  0  0  0  0  0  0  0  0  0  0
   63.1030   33.4240   46.8410 C   0  0  0  0  0  0  0  0  0  0  0  0
   61.8220   33.8490   47.2090 C   0  0  0  0  0  0  0  0  0  0  0  0
   60.9260   34.2040   46.2560 F   0  0  0  0  0  0  0  0  0  0  0  0
   61.4680   33.9090   48.5600 C   0  0  0  0  0  0  0  0  0  0  0  0
   62.3910   33.5430   49.5450 C   0  0  0  0  0  0  0  0  0  0  0  0
   58.4550   31.8180   49.2850 C   0  0  0  0  0  0  0  0  0  0  0  0
   58.1530   32.1210   47.9570 C   0  0  0  0  0  0  0  0  0  0  0  0
   58.8080   31.4590   46.9090 C   0  0  0  0  0  0  0  0  0  0  0  0
   58.4680   31.8170   45.5150 C   0  0  0  0  0  0  0  0  0  0  0  0
   58.8730   33.0690   45.0250 C   0  0  0  0  0  0  0  0  0  0  0  0
   58.5620   33.4530   43.7210 C   0  0  0  0  0  0  0  0  0  0  0  0
   57.8400   32.5930   42.8930 C   0  0  0  0  0  0  0  0  0  0  0  0
   57.4310   31.3440   43.3650 C   0  0  0  0  0  0  0  0  0  0  0  0
   57.7430   30.9380   44.6730 C   0  0  0  0  0  0  0  0  0  0  0  0
   57.2290   29.3370   45.2260 S   0  0  0  0  0  0  0  0  0  0  0  0
   55.5490   29.0960   44.8940 N   0  0  0  0  0  0  0  0  0  0  0  0
   57.4580   29.2190   46.7060 O   0  0  0  0  0  0  0  0  0  0  0  0
   58.0110   28.2730   44.5080 O   0  0  0  0  0  0  0  0  0  0  0  0
   61.2471   29.0595   46.5484 H   0  0  0  0  0  0  0  0  0  0  0  0
   59.8091   29.2110   45.4826 H   0  0  0  0  0  0  0  0  0  0  0  0
   61.0661   30.4941   45.4826 H   0  0  0  0  0  0  0  0  0  0  0  0
   60.8857   29.4713   48.7765 H   0  0  0  0  0  0  0  0  0  0  0  0
   61.1387   27.7111   51.0859 H   0  0  0  0  0  0  0  0  0  0  0  0
   61.9209   28.5451   49.8160 H   0  0  0  0  0  0  0  0  0  0  0  0
   62.9869   28.0202   52.5671 H   0  0  0  0  0  0  0  0  0  0  0  0
   63.9123   28.8157   51.4699 H   0  0  0  0  0  0  0  0  0  0  0  0
   62.4512   30.0737   54.3978 H   0  0  0  0  0  0  0  0  0  0  0  0
   60.8881   30.7891   53.8768 H   0  0  0  0  0  0  0  0  0  0  0  0
   61.1040   29.0059   53.8768 H   0  0  0  0  0  0  0  0  0  0  0  0
   65.0366   32.7252   47.5310 H   0  0  0  0  0  0  0  0  0  0  0  0
   63.3826   33.3791   45.7781 H   0  0  0  0  0  0  0  0  0  0  0  0
   60.4612   34.2448   48.8491 H   0  0  0  0  0  0  0  0  0  0  0  0
   62.1108   33.5959   50.6074 H   0  0  0  0  0  0  0  0  0  0  0  0
   57.9304   32.3410   50.0981 H   0  0  0  0  0  0  0  0  0  0  0  0
   57.3950   32.8853   47.7305 H   0  0  0  0  0  0  0  0  0  0  0  0
   59.4399   33.7521   45.6747 H   0  0  0  0  0  0  0  0  0  0  0  0
   58.8861   34.4346   43.3450 H   0  0  0  0  0  0  0  0  0  0  0  0
   57.5923   32.8995   41.8660 H   0  0  0  0  0  0  0  0  0  0  0  0
   56.8598   30.6726   42.7071 H   0  0  0  0  0  0  0  0  0  0  0  0
   55.1410   28.6090   45.7230 H   0  0  0  0  0  0  0  0  0  0  0  0
  1  2  1  0
  2  3  2  0
  3  4  1  0
  4  5  1  0
  5  6  2  0
  5  7  1  0
  7  8  1  0
  8  9  1  0
  9 10  1  0
 10 11  1  1
 10 12  1  0
 12 13  2  0
 12 14  1  0
 14 15  1  0
 15 16  2  0
 15 17  2  0
 15 18  1  0
 18 19  2  0
 19 20  1  0
 20 21  2  0
 21 22  1  0
 21 23  1  0
 23 24  2  0
  4 25  2  0
 25 26  1  0
 26 27  2  0
 27 28  1  0
 28 29  2  0
 29 30  1  0
 30 31  2  0
 31 32  1  0
 32 33  2  0
 33 34  1  0
 34 35  1  0
 34 36  2  0
 34 37  2  0
 27  2  1  0
 33 28  1  0
 10  7  1  0
 24 18  1  0
  1 38  1  0
  1 39  1  0
  1 40  1  0
  3 41  1  0
  8 42  1  0
  8 43  1  0
  9 44  1  0
  9 45  1  0
 11 46  1  0
 11 47  1  0
 11 48  1  0
 19 49  1  0
 20 50  1  0
 23 51  1  0
 24 52  1  0
 25 53  1  0
 26 54  1  0
 29 55  1  0
 30 56  1  0
 31 57  1  0
 32 58  1  0
 35 59  1  0
M  CHG  2  14  -1  35  -1
M  END
>  <UniqueID>  (37) 
35

>  <SMILES>  (37) 
Cc1cc(C(=O)N2CC[C@@]2(C)C(=O)[N-]S(=O)(=O)c2ccc(F)cc2)ccc1-c1ccccc1S([NH-])(=O)=O

>  <Energy>  (37) 
125.94605790332068

>  <Genealogy>  (37) 
Cc1cc(C(=O)N2CCC2(C)C(=O)[N-]S(=O)(=O)c2ccc(F)cc2)ccc1-c1ccccc1S([NH-])(=O)=O (protonated)
Cc1cc(C(=O)N2CC[C@@]2(C)C(=O)[N-]S(=O)(=O)c2ccc(F)cc2)ccc1-c1ccccc1S([NH-])(=O)=O (chirality)
Cc1cc(C(=O)N2CC[C@@]2(C)C(=O)[N-]S(=O)(=O)c2ccc(F)cc2)ccc1-c1ccccc1S([NH-])(=O)=O (3D coordinates assigned)
Cc1cc(C(=O)N2CC[C@@]2(C)C(=O)[N-]S(=O)(=O)c2ccc(F)cc2)ccc1-c1ccccc1S([NH-])(=O)=O (nonaromatic ring conformer: 125.94605790332068 kcal/mol)

>  <smiles>  (37) 
Cc1cc(C(=O)N2CCC2(C)C(=O)NS(=O)(=O)c2ccc(F)cc2)ccc1-c1ccccc1S(N)(=O)=O

>  <score_type>  (37) 
oracle

>  <origin>  (37) 
adg

>  <m_score__min__energy>  (37) 
-12.94

>  <m_primary>  (37) 
energy

$$$$
37:0
     RDKit          3D

 58 61  0  0  0  0  0  0  0  0999 V2000
   61.9290   30.2570   50.1200 C   0  0  0  0  0  0  0  0  0  0  0  0
   61.4390   31.4810   49.5840 O   0  0  0  0  0  0  0  0  0  0  0  0
   62.1030   32.2520   48.6130 C   0  0  0  0  0  0  0  0  0  0  0  0
   63.5090   32.3390   48.5750 C   0  0  0  0  0  0  0  0  0  0  0  0
   64.1430   33.1180   47.6080 C   0  0  0  0  0  0  0  0  0  0  0  0
   63.3850   33.8220   46.6720 C   0  0  0  0  0  0  0  0  0  0  0  0
   61.9930   33.7480   46.6940 C   0  0  0  0  0  0  0  0  0  0  0  0
   61.3350   32.9530   47.6530 C   0  0  0  0  0  0  0  0  0  0  0  0
   59.8970   32.8610   47.6840 N   0  0  0  0  0  0  0  0  0  0  0  0
   58.8520   33.8010   46.6690 S   0  0  0  0  0  0  0  0  0  0  0  0
   59.5580   35.0670   46.2710 O   0  0  0  0  0  0  0  0  0  0  0  0
   57.6050   34.1580   47.4270 O   0  0  0  0  0  0  0  0  0  0  0  0
   58.3960   32.8650   45.2470 C   0  0  0  0  0  0  0  0  0  0  0  0
   58.5190   33.4300   43.9720 C   0  0  0  0  0  0  0  0  0  0  0  0
   58.1240   32.7050   42.8440 C   0  0  0  0  0  0  0  0  0  0  0  0
   57.5940   31.4190   42.9860 C   0  0  0  0  0  0  0  0  0  0  0  0
   57.4680   30.8430   44.2580 C   0  0  0  0  0  0  0  0  0  0  0  0
   56.7840   29.2210   44.4220 S   0  0  0  0  0  0  0  0  0  0  0  0
   55.2990   29.3080   44.6290 O   0  0  0  0  0  0  0  0  0  0  0  0
   57.0420   28.4570   43.1540 O   0  0  0  0  0  0  0  0  0  0  0  0
   57.5390   28.3530   45.7270 N   0  0  0  0  0  0  0  0  0  0  0  0
   57.8440   26.9520   45.7320 C   0  0  0  0  0  0  0  0  0  0  0  0
   59.0920   26.4560   46.1540 C   0  0  0  0  0  0  0  0  0  0  0  0
   59.3820   25.0930   46.0480 C   0  0  0  0  0  0  0  0  0  0  0  0
   58.4400   24.2130   45.5000 C   0  0  0  0  0  0  0  0  0  0  0  0
   58.8410   22.5220   45.2190 S   0  0  0  0  0  0  0  0  0  0  0  0
   58.4670   22.0970   43.8260 O   0  0  0  0  0  0  0  0  0  0  0  0
   60.3240   22.3420   45.3770 O   0  0  0  0  0  0  0  0  0  0  0  0
   58.0260   21.5360   46.3960 N   0  0  0  0  0  0  0  0  0  0  0  0
   56.9800   21.8520   47.1040 C   0  0  0  0  0  0  0  0  0  0  0  0
   55.7220   22.1260   46.5270 C   0  0  0  0  0  0  0  0  0  0  0  0
   54.6440   22.4480   47.3530 C   0  0  0  0  0  0  0  0  0  0  0  0
   54.8200   22.5280   48.7310 C   0  0  0  0  0  0  0  0  0  0  0  0
   56.0760   22.2510   49.2720 C   0  0  0  0  0  0  0  0  0  0  0  0
   57.1110   21.9180   48.4560 N   0  0  0  0  0  0  0  0  0  0  0  0
   57.1870   24.7000   45.1050 C   0  0  0  0  0  0  0  0  0  0  0  0
   56.8860   26.0580   45.2390 C   0  0  0  0  0  0  0  0  0  0  0  0
   57.8740   31.5730   45.3840 C   0  0  0  0  0  0  0  0  0  0  0  0
   61.9101   30.3043   51.2188 H   0  0  0  0  0  0  0  0  0  0  0  0
   61.2940   29.4266   49.7777 H   0  0  0  0  0  0  0  0  0  0  0  0
   62.9616   30.0942   49.7777 H   0  0  0  0  0  0  0  0  0  0  0  0
   64.1105   31.7885   49.3134 H   0  0  0  0  0  0  0  0  0  0  0  0
   65.2411   33.1775   47.5831 H   0  0  0  0  0  0  0  0  0  0  0  0
   63.8882   34.4386   45.9127 H   0  0  0  0  0  0  0  0  0  0  0  0
   61.4043   34.3144   45.9573 H   0  0  0  0  0  0  0  0  0  0  0  0
   59.4370   32.1240   48.2670 H   0  0  0  0  0  0  0  0  0  0  0  0
   58.9268   34.4452   43.8578 H   0  0  0  0  0  0  0  0  0  0  0  0
   58.2304   33.1472   41.8424 H   0  0  0  0  0  0  0  0  0  0  0  0
   57.2746   30.8569   42.0961 H   0  0  0  0  0  0  0  0  0  0  0  0
   59.8426   27.1446   46.5692 H   0  0  0  0  0  0  0  0  0  0  0  0
   60.3528   24.7102   46.3959 H   0  0  0  0  0  0  0  0  0  0  0  0
   55.5919   22.0862   45.4354 H   0  0  0  0  0  0  0  0  0  0  0  0
   53.6536   22.6388   46.9139 H   0  0  0  0  0  0  0  0  0  0  0  0
   53.9803   22.8059   49.3850 H   0  0  0  0  0  0  0  0  0  0  0  0
   56.2288   22.3021   50.3601 H   0  0  0  0  0  0  0  0  0  0  0  0
   56.4377   24.0110   44.6880 H   0  0  0  0  0  0  0  0  0  0  0  0
   55.8894   26.4271   44.9552 H   0  0  0  0  0  0  0  0  0  0  0  0
   57.7815   31.1263   46.3850 H   0  0  0  0  0  0  0  0  0  0  0  0
  1  2  1  0
  2  3  1  0
  3  4  2  0
  4  5  1  0
  5  6  2  0
  6  7  1  0
  7  8  2  0
  8  9  1  0
  9 10  1  0
 10 11  2  0
 10 12  2  0
 10 13  1  0
 13 14  2  0
 14 15  1  0
 15 16  2  0
 16 17  1  0
 17 18  1  0
 18 19  2  0
 18 20  2  0
 18 21  1  0
 21 22  1  0
 22 23  2  0
 23 24  1  0
 24 25  2  0
 25 26  1  0
 26 27  2  0
 26 28  2  0
 26 29  1  0
 29 30  2  3
 30 31  1  0
 31 32  2  0
 32 33  1  0
 33 34  2  0
 34 35  1  0
 25 36  1  0
 36 37  2  0
 17 38  2  0
  8  3  1  0
 38 13  1  0
 37 22  1  0
 35 30  1  0
  1 39  1  0
  1 40  1  0
  1 41  1  0
  4 42  1  0
  5 43  1  0
  6 44  1  0
  7 45  1  0
  9 46  1  0
 14 47  1  0
 15 48  1  0
 16 49  1  0
 23 50  1  0
 24 51  1  0
 31 52  1  0
 32 53  1  0
 33 54  1  0
 34 55  1  0
 36 56  1  0
 37 57  1  0
 38 58  1  0
M  CHG  2  21  -1  35  -1
M  END
>  <UniqueID>  (38) 
36

>  <SMILES>  (38) 
COc1ccccc1NS(=O)(=O)c1cccc(S(=O)(=O)[N-]c2ccc(S(=O)(=O)N=c3cccc[n-]3)cc2)c1

>  <Energy>  (38) 
74.00306270811917

>  <Genealogy>  (38) 
COc1ccccc1NS(=O)(=O)c1cccc(S(=O)(=O)[N-]c2ccc(S(=O)(=O)N=c3cccc[n-]3)cc2)c1 (protonated)
COc1ccccc1NS(=O)(=O)c1cccc(S(=O)(=O)[N-]c2ccc(S(=O)(=O)N=c3cccc[n-]3)cc2)c1 (3D coordinates assigned)
COc1ccccc1NS(=O)(=O)c1cccc(S(=O)(=O)[N-]c2ccc(S(=O)(=O)N=c3cccc[n-]3)cc2)c1 (optimized conformer: 74.00306270811917 kcal/mol)

>  <smiles>  (38) 
COc1ccccc1NS(=O)(=O)c1cccc(S(=O)(=O)Nc2ccc(S(=O)(=O)N=c3cccc[nH]3)cc2)c1

>  <score_type>  (38) 
oracle

>  <origin>  (38) 
adg

>  <m_score__min__energy>  (38) 
-12.77

>  <m_primary>  (38) 
energy

$$$$
38:0
     RDKit          3D

 39 41  0  0  0  0  0  0  0  0999 V2000
   54.0430   25.2770   46.3650 H   0  0  0  0  0  0  0  0  0  0  0  0
   53.9010   24.2900   46.1910 O   0  0  0  0  0  0  0  0  0  0  0  0
   54.8240   23.3210   46.5880 C   0  0  0  0  0  0  0  0  0  0  0  0
   54.5670   21.9780   46.2940 C   0  0  0  0  0  0  0  0  0  0  0  0
   53.6489   21.6997   45.7559 H   0  0  0  0  0  0  0  0  0  0  0  0
   55.4730   20.9910   46.6820 C   0  0  0  0  0  0  0  0  0  0  0  0
   55.2755   19.9335   46.4526 H   0  0  0  0  0  0  0  0  0  0  0  0
   56.6320   21.3600   47.3640 C   0  0  0  0  0  0  0  0  0  0  0  0
   57.3544   20.5913   47.6757 H   0  0  0  0  0  0  0  0  0  0  0  0
   56.8700   22.6690   47.6440 N   0  0  0  0  0  0  0  0  0  0  0  0
   56.0050   23.6580   47.2780 C   0  0  0  0  0  0  0  0  0  0  0  0
   56.2540   24.9060   47.5590 N   0  0  0  0  0  0  0  0  0  0  0  0
   56.3260   26.0070   46.6360 C   0  0  0  0  0  0  0  0  0  0  0  0
   55.2830   26.4510   46.0820 O   0  0  0  0  0  0  0  0  0  0  0  0
   57.6370   26.6430   46.3610 C   0  0  0  0  0  0  0  0  0  0  0  0
   57.7030   28.0440   46.2290 C   0  0  0  0  0  0  0  0  0  0  0  0
   56.7984   28.6485   46.3910 H   0  0  0  0  0  0  0  0  0  0  0  0
   58.9030   28.6740   45.8950 C   0  0  0  0  0  0  0  0  0  0  0  0
   58.9398   29.7692   45.7989 H   0  0  0  0  0  0  0  0  0  0  0  0
   60.0550   27.9180   45.6830 C   0  0  0  0  0  0  0  0  0  0  0  0
   60.9958   28.4157   45.4053 H   0  0  0  0  0  0  0  0  0  0  0  0
   60.0150   26.5300   45.8230 C   0  0  0  0  0  0  0  0  0  0  0  0
   60.9263   25.9379   45.6528 H   0  0  0  0  0  0  0  0  0  0  0  0
   58.8220   25.8840   46.1790 C   0  0  0  0  0  0  0  0  0  0  0  0
   58.8510   24.4660   46.3980 N   0  0  0  0  0  0  0  0  0  0  0  0
   58.1620   24.0710   47.0790 H   0  0  0  0  0  0  0  0  0  0  0  0
   59.3390   23.5600   45.3610 C   0  0  0  0  0  0  0  0  0  0  0  0
   60.0250   24.1038   44.6949 H   0  0  0  0  0  0  0  0  0  0  0  0
   59.8681   22.7196   45.8341 H   0  0  0  0  0  0  0  0  0  0  0  0
   58.1830   23.0290   44.5600 C   0  0  0  0  0  0  0  0  0  0  0  0
   57.2160   23.9040   44.0450 C   0  0  0  0  0  0  0  0  0  0  0  0
   57.2757   24.9823   44.2540 H   0  0  0  0  0  0  0  0  0  0  0  0
   56.1760   23.3940   43.2640 C   0  0  0  0  0  0  0  0  0  0  0  0
   55.4081   24.0719   42.8630 H   0  0  0  0  0  0  0  0  0  0  0  0
   56.1100   22.0620   42.9980 N   0  0  0  0  0  0  0  0  0  0  0  0
   57.0420   21.1940   43.4740 C   0  0  0  0  0  0  0  0  0  0  0  0
   56.9631   20.1217   43.2416 H   0  0  0  0  0  0  0  0  0  0  0  0
   58.1000   21.6620   44.2580 C   0  0  0  0  0  0  0  0  0  0  0  0
   58.8616   20.9637   44.6352 H   0  0  0  0  0  0  0  0  0  0  0  0
  1  2  1  0
  2  3  1  0
  3  4  2  0
  4  5  1  0
  4  6  1  0
  6  7  1  0
  6  8  2  0
  8  9  1  0
  8 10  1  0
 10 11  1  0
 11 12  2  0
 12 13  1  0
 13 14  2  0
 13 15  1  0
 15 16  2  0
 16 17  1  0
 16 18  1  0
 18 19  1  0
 18 20  2  0
 20 21  1  0
 20 22  1  0
 22 23  1  0
 22 24  2  0
 24 25  1  0
 25 26  1  0
 25 27  1  0
 27 28  1  0
 27 29  1  0
 27 30  1  0
 30 31  2  0
 31 32  1  0
 31 33  1  0
 33 34  1  0
 33 35  2  0
 35 36  1  0
 36 37  1  0
 36 38  2  0
 38 39  1  0
 11  3  1  0
 24 15  1  0
 38 30  1  0
M  CHG  1  10  -1
M  END
>  <UniqueID>  (39) 
37

>  <SMILES>  (39) 
O=C(/N=c1\[n-]cccc1O)c1ccccc1NCc1ccncc1

>  <Energy>  (39) 
52.61206939064121

>  <Genealogy>  (39) 
O=C(N=c1[n-]cccc1O)c1ccccc1NCc1ccncc1 (protonated)
O=C(/N=c1\[n-]cccc1O)c1ccccc1NCc1ccncc1 (cis-trans isomerization)
O=C(/N=c1\[n-]cccc1O)c1ccccc1NCc1ccncc1 (3D coordinates assigned)
O=C(/N=c1\[n-]cccc1O)c1ccccc1NCc1ccncc1 (optimized conformer: 52.61206939064121 kcal/mol)

>  <smiles>  (39) 
O=C(N=c1[nH]cccc1O)c1ccccc1NCc1ccncc1

>  <score_type>  (39) 
oracle

>  <origin>  (39) 
adg

>  <m_score__min__energy>  (39) 
-10.210000000000001

>  <m_primary>  (39) 
energy

$$$$
39:0
     RDKit          3D

 28 29  0  0  0  0  0  0  0  0999 V2000
   56.7460   30.2040   43.1520 O   0  0  0  0  0  0  0  0  0  0  0  0
   56.4410   30.4100   44.3550 C   0  0  0  0  0  0  0  0  0  0  0  0
   56.3020   29.2940   45.2380 N   0  0  0  0  0  0  0  0  0  0  0  0
   57.3940   28.6730   45.9270 C   0  0  0  0  0  0  0  0  0  0  0  0
   58.3800   29.4940   46.4780 C   0  0  0  0  0  0  0  0  0  0  0  0
   59.4940   28.9260   47.0920 C   0  0  0  0  0  0  0  0  0  0  0  0
   59.6170   27.5750   47.1680 N   0  0  0  0  0  0  0  0  0  0  0  0
   58.6580   26.7400   46.6790 C   0  0  0  0  0  0  0  0  0  0  0  0
   58.7980   25.4940   46.8120 O   0  0  0  0  0  0  0  0  0  0  0  0
   57.5080   27.2680   46.0530 C   0  0  0  0  0  0  0  0  0  0  0  0
   56.4460   26.3950   45.6250 N   0  0  0  0  0  0  0  0  0  0  0  0
   56.6990   25.3560   44.9820 O   0  0  0  0  0  0  0  0  0  0  0  0
   55.1470   26.6490   46.0010 O   0  0  0  0  0  0  0  0  0  0  0  0
   56.2670   31.7140   44.8430 O   0  0  0  0  0  0  0  0  0  0  0  0
   57.2960   32.6180   45.1410 C   0  0  0  0  0  0  0  0  0  0  0  0
   57.4260   33.0670   46.4610 C   0  0  0  0  0  0  0  0  0  0  0  0
   58.4310   33.9760   46.8050 C   0  0  0  0  0  0  0  0  0  0  0  0
   59.3080   34.4520   45.8270 C   0  0  0  0  0  0  0  0  0  0  0  0
   59.1750   34.0260   44.5030 C   0  0  0  0  0  0  0  0  0  0  0  0
   58.1710   33.1160   44.1560 C   0  0  0  0  0  0  0  0  0  0  0  0
   58.2772   30.5880   46.4273 H   0  0  0  0  0  0  0  0  0  0  0  0
   60.2760   29.5728   47.5163 H   0  0  0  0  0  0  0  0  0  0  0  0
   60.4630   27.1730   47.6320 H   0  0  0  0  0  0  0  0  0  0  0  0
   56.7324   32.7019   47.2328 H   0  0  0  0  0  0  0  0  0  0  0  0
   58.5313   34.3166   47.8461 H   0  0  0  0  0  0  0  0  0  0  0  0
   60.1029   35.1619   46.0993 H   0  0  0  0  0  0  0  0  0  0  0  0
   59.8611   34.4069   43.7321 H   0  0  0  0  0  0  0  0  0  0  0  0
   58.0645   32.7885   43.1113 H   0  0  0  0  0  0  0  0  0  0  0  0
  1  2  2  0
  2  3  1  0
  3  4  1  0
  4  5  1  0
  5  6  2  0
  6  7  1  0
  7  8  1  0
  8  9  2  0
  8 10  1  0
 10 11  1  0
 11 12  2  0
 11 13  1  0
  2 14  1  0
 14 15  1  0
 15 16  2  0
 16 17  1  0
 17 18  2  0
 18 19  1  0
 19 20  2  0
 10  4  2  0
 20 15  1  0
  5 21  1  0
  6 22  1  0
  7 23  1  0
 16 24  1  0
 17 25  1  0
 18 26  1  0
 19 27  1  0
 20 28  1  0
M  CHG  3   3  -1  11   1  13  -1
M  END
>  <UniqueID>  (40) 
38

>  <SMILES>  (40) 
O=C([N-]c1cc[nH]c(=O)c1[N+](=O)[O-])Oc1ccccc1

>  <Energy>  (40) 
44.162240236503266

>  <Genealogy>  (40) 
O=C([N-]c1cc[nH]c(=O)c1[N+](=O)[O-])Oc1ccccc1 (protonated)
O=C([N-]c1cc[nH]c(=O)c1[N+](=O)[O-])Oc1ccccc1 (3D coordinates assigned)
O=C([N-]c1cc[nH]c(=O)c1[N+](=O)[O-])Oc1ccccc1 (optimized conformer: 44.162240236503266 kcal/mol)

>  <smiles>  (40) 
O=C(Nc1cc[nH]c(=O)c1[N+](=O)[O-])Oc1ccccc1

>  <score_type>  (40) 
oracle

>  <origin>  (40) 
adg

>  <m_score__min__energy>  (40) 
-9.3200000000000003

>  <m_primary>  (40) 
energy

$$$$
40:0
     RDKit          3D

 59 62  0  0  0  0  0  0  0  0999 V2000
   65.0310   32.3490   49.9500 C   0  0  0  0  0  0  0  0  0  0  0  0
   63.9000   31.4650   50.4670 C   0  0  0  0  0  0  0  0  0  0  0  0
   62.8640   31.2490   49.3980 C   0  0  0  0  0  0  0  0  0  0  0  0
   61.6870   30.5420   49.6860 C   0  0  0  0  0  0  0  0  0  0  0  0
   60.7450   30.3000   48.6810 C   0  0  0  0  0  0  0  0  0  0  0  0
   60.9760   30.7470   47.3720 C   0  0  0  0  0  0  0  0  0  0  0  0
   59.9950   30.5090   46.3410 N   0  0  0  0  0  0  0  0  0  0  0  0
   59.9560   29.2130   45.7020 C   0  0  0  0  0  0  0  0  0  0  0  0
   60.5600   29.0360   44.6090 O   0  0  0  0  0  0  0  0  0  0  0  0
   59.1960   28.0870   46.2860 C   0  0  0  0  0  0  0  0  0  0  0  0
   59.3490   27.4990   47.8380 S   0  0  0  0  0  0  0  0  0  0  0  0
   58.1480   26.3570   47.8570 N   0  0  0  0  0  0  0  0  0  0  0  0
   57.5740   26.4060   46.6260 C   0  0  0  0  0  0  0  0  0  0  0  0
   56.4910   25.4570   46.2930 C   0  0  0  0  0  0  0  0  0  0  0  0
   55.1980   25.9590   45.9660 N   0  0  0  0  0  0  0  0  0  0  0  0
   56.6780   24.2130   46.3260 O   0  0  0  0  0  0  0  0  0  0  0  0
   58.1290   27.3740   45.7330 C   0  0  0  0  0  0  0  0  0  0  0  0
   57.6540   27.6080   44.4000 N   0  0  0  0  0  0  0  0  0  0  0  0
   59.2570   31.6350   45.7220 C   0  0  2  0  0  0  0  0  0  0  0  0
   58.7580   32.6070   46.7630 C   0  0  0  0  0  0  0  0  0  0  0  0
   58.0660   32.2030   47.7370 O   0  0  0  0  0  0  0  0  0  0  0  0
   59.0400   34.0020   46.6100 N   0  0  0  0  0  0  0  0  0  0  0  0
   60.3230   34.6040   46.9500 C   0  0  0  0  0  0  0  0  0  0  0  0
   60.6490   34.3380   48.3850 C   0  0  0  0  0  0  0  0  0  0  0  0
   59.7580   33.9240   49.3570 C   0  0  0  0  0  0  0  0  0  0  0  0
   60.5070   33.7820   50.5070 C   0  0  0  0  0  0  0  0  0  0  0  0
   61.8040   34.1150   50.1660 C   0  0  0  0  0  0  0  0  0  0  0  0
   61.8570   34.4400   48.8940 O   0  0  0  0  0  0  0  0  0  0  0  0
   58.1340   31.1670   44.8100 C   0  0  0  0  0  0  0  0  0  0  0  0
   58.1320   31.5580   43.4590 C   0  0  0  0  0  0  0  0  0  0  0  0
   57.1370   31.0990   42.5900 C   0  0  0  0  0  0  0  0  0  0  0  0
   56.1390   30.2400   43.0570 C   0  0  0  0  0  0  0  0  0  0  0  0
   56.1360   29.8330   44.3940 C   0  0  0  0  0  0  0  0  0  0  0  0
   55.1460   28.9720   44.8540 O   0  0  0  0  0  0  0  0  0  0  0  0
   57.1290   30.2880   45.2670 C   0  0  0  0  0  0  0  0  0  0  0  0
   62.1450   31.4700   47.0880 C   0  0  0  0  0  0  0  0  0  0  0  0
   63.0900   31.7060   48.0900 C   0  0  0  0  0  0  0  0  0  0  0  0
   65.5797   32.7778   50.8015 H   0  0  0  0  0  0  0  0  0  0  0  0
   65.7175   31.7456   49.3379 H   0  0  0  0  0  0  0  0  0  0  0  0
   64.6113   33.1609   49.3379 H   0  0  0  0  0  0  0  0  0  0  0  0
   64.3126   30.4920   50.7720 H   0  0  0  0  0  0  0  0  0  0  0  0
   63.4249   31.9635   51.3248 H   0  0  0  0  0  0  0  0  0  0  0  0
   61.5042   30.1762   50.7072 H   0  0  0  0  0  0  0  0  0  0  0  0
   59.8186   29.7565   48.9184 H   0  0  0  0  0  0  0  0  0  0  0  0
   55.0850   26.8760   45.4790 H   0  0  0  0  0  0  0  0  0  0  0  0
   56.6430   27.5320   44.1560 H   0  0  0  0  0  0  0  0  0  0  0  0
   58.3020   27.9280   43.6490 H   0  0  0  0  0  0  0  0  0  0  0  0
   59.9761   32.1683   45.0828 H   0  0  0  0  0  0  0  0  0  0  0  0
   61.1083   34.1723   46.3121 H   0  0  0  0  0  0  0  0  0  0  0  0
   60.2660   35.6906   46.7883 H   0  0  0  0  0  0  0  0  0  0  0  0
   58.6791   33.7453   49.2387 H   0  0  0  0  0  0  0  0  0  0  0  0
   60.1444   33.4670   51.4966 H   0  0  0  0  0  0  0  0  0  0  0  0
   62.6617   34.1089   50.8547 H   0  0  0  0  0  0  0  0  0  0  0  0
   58.9183   32.2293   43.0834 H   0  0  0  0  0  0  0  0  0  0  0  0
   57.1402   31.4150   41.5364 H   0  0  0  0  0  0  0  0  0  0  0  0
   55.3553   29.8839   42.3721 H   0  0  0  0  0  0  0  0  0  0  0  0
   57.1268   29.9587   46.3166 H   0  0  0  0  0  0  0  0  0  0  0  0
   62.3182   31.8528   46.0714 H   0  0  0  0  0  0  0  0  0  0  0  0
   64.0149   32.2522   47.8528 H   0  0  0  0  0  0  0  0  0  0  0  0
  1  2  1  0
  2  3  1  0
  3  4  2  0
  4  5  1  0
  5  6  2  0
  6  7  1  0
  7  8  1  0
  8  9  2  0
  8 10  1  0
 10 11  1  0
 11 12  1  0
 12 13  2  0
 13 14  1  0
 14 15  1  0
 14 16  2  0
 13 17  1  0
 17 18  1  0
  7 19  1  0
 19 20  1  0
 20 21  2  0
 20 22  1  0
 22 23  1  0
 23 24  1  0
 24 25  2  0
 25 26  1  0
 26 27  2  0
 27 28  1  0
 19 29  1  0
 29 30  2  0
 30 31  1  0
 31 32  2  0
 32 33  1  0
 33 34  1  0
 33 35  2  0
  6 36  1  0
 36 37  2  0
 37  3  1  0
 17 10  2  0
 28 24  1  0
 35 29  1  0
  1 38  1  0
  1 39  1  0
  1 40  1  0
  2 41  1  0
  2 42  1  0
  4 43  1  0
  5 44  1  0
 15 45  1  0
 18 46  1  0
 18 47  1  0
 19 48  1  6
 23 49  1  0
 23 50  1  0
 25 51  1  0
 26 52  1  0
 27 53  1  0
 30 54  1  0
 31 55  1  0
 32 56  1  0
 35 57  1  0
 36 58  1  0
 37 59  1  0
M  CHG  3  15  -1  22  -1  34  -1
M  END
>  <UniqueID>  (41) 
39

>  <SMILES>  (41) 
CCc1ccc(N(C(=O)c2snc(C([NH-])=O)c2N)[C@H](C(=O)[N-]Cc2ccco2)c2cccc([O-])c2)cc1

>  <Energy>  (41) 
127.71497590377976

>  <Genealogy>  (41) 
CCc1ccc(N(C(=O)c2snc(C([NH-])=O)c2N)C(C(=O)[N-]Cc2ccco2)c2cccc([O-])c2)cc1 (protonated)
CCc1ccc(N(C(=O)c2snc(C([NH-])=O)c2N)[C@H](C(=O)[N-]Cc2ccco2)c2cccc([O-])c2)cc1 (chirality)
CCc1ccc(N(C(=O)c2snc(C([NH-])=O)c2N)[C@H](C(=O)[N-]Cc2ccco2)c2cccc([O-])c2)cc1 (3D coordinates assigned)
CCc1ccc(N(C(=O)c2snc(C([NH-])=O)c2N)[C@H](C(=O)[N-]Cc2ccco2)c2cccc([O-])c2)cc1 (optimized conformer: 127.71497590377976 kcal/mol)

>  <smiles>  (41) 
CCc1ccc(N(C(=O)c2snc(C(N)=O)c2N)C(C(=O)NCc2ccco2)c2cccc(O)c2)cc1

>  <score_type>  (41) 
oracle

>  <origin>  (41) 
adg

>  <m_score__min__energy>  (41) 
-16.239999999999998

>  <m_primary>  (41) 
energy

$$$$
41:0
     RDKit          3D

 50 52  0  0  0  0  0  0  0  0999 V2000
   53.4620   22.4600   46.1450 C   0  0  0  0  0  0  0  0  0  0  0  0
   54.3440   23.6720   46.1960 C   0  0  0  0  0  0  0  0  0  0  0  0
   53.9530   24.8630   45.5750 C   0  0  0  0  0  0  0  0  0  0  0  0
   54.7400   25.9660   45.6610 N   0  0  0  0  0  0  0  0  0  0  0  0
   55.9090   25.9440   46.3540 C   0  0  0  0  0  0  0  0  0  0  0  0
   56.6380   27.0210   46.4080 N   0  0  0  0  0  0  0  0  0  0  0  0
   57.3960   27.5820   45.3250 C   0  0  0  0  0  0  0  0  0  0  0  0
   57.9600   26.7970   44.5160 O   0  0  0  0  0  0  0  0  0  0  0  0
   57.4940   29.0440   45.1040 C   0  0  0  0  0  0  0  0  0  0  0  0
   58.2990   29.8420   45.9340 C   0  0  0  0  0  0  0  0  0  0  0  0
   58.4300   31.2110   45.6890 C   0  0  0  0  0  0  0  0  0  0  0  0
   57.7470   31.8080   44.6200 C   0  0  0  0  0  0  0  0  0  0  0  0
   57.9780   33.2610   44.2880 C   0  0  0  0  0  0  0  0  0  0  0  0
   57.7260   34.1780   45.4940 C   0  0  0  0  0  0  0  0  0  0  0  0
   59.2390   34.6410   46.3300 S   0  0  0  0  0  0  0  0  0  0  0  0
   58.9310   34.9620   47.7680 O   0  0  0  0  0  0  0  0  0  0  0  0
   59.8190   35.8590   45.6680 O   0  0  0  0  0  0  0  0  0  0  0  0
   60.3770   33.3310   46.2320 N   0  0  0  0  0  0  0  0  0  0  0  0
   61.7390   33.8450   46.3760 C   0  0  0  0  0  0  0  0  0  0  0  0
   62.4100   33.1810   47.5390 C   0  0  0  0  0  0  0  0  0  0  0  0
   63.3580   33.9820   48.6740 S   0  0  0  0  0  0  0  0  0  0  0  0
   63.6610   32.6420   49.6460 C   0  0  0  0  0  0  0  0  0  0  0  0
   63.0070   31.5450   49.0960 C   0  0  0  0  0  0  0  0  0  0  0  0
   62.2910   31.8450   47.9270 C   0  0  0  0  0  0  0  0  0  0  0  0
   61.5030   30.8180   47.1710 C   0  0  0  0  0  0  0  0  0  0  0  0
   56.9040   31.0210   43.8180 C   0  0  0  0  0  0  0  0  0  0  0  0
   56.7760   29.6510   44.0600 C   0  0  0  0  0  0  0  0  0  0  0  0
   56.3070   24.7900   46.9590 N   0  0  0  0  0  0  0  0  0  0  0  0
   55.5510   23.6640   46.9020 C   0  0  0  0  0  0  0  0  0  0  0  0
   53.2256   22.1352   47.1690 H   0  0  0  0  0  0  0  0  0  0  0  0
   52.5305   22.7064   45.6143 H   0  0  0  0  0  0  0  0  0  0  0  0
   53.9830   21.6495   45.6143 H   0  0  0  0  0  0  0  0  0  0  0  0
   53.0065   24.9059   45.0162 H   0  0  0  0  0  0  0  0  0  0  0  0
   58.8298   29.3857   46.7826 H   0  0  0  0  0  0  0  0  0  0  0  0
   59.0725   31.8239   46.3383 H   0  0  0  0  0  0  0  0  0  0  0  0
   59.0196   33.3878   43.9579 H   0  0  0  0  0  0  0  0  0  0  0  0
   57.2699   33.5433   43.4949 H   0  0  0  0  0  0  0  0  0  0  0  0
   57.2227   35.0913   45.1438 H   0  0  0  0  0  0  0  0  0  0  0  0
   57.1036   33.6234   46.2116 H   0  0  0  0  0  0  0  0  0  0  0  0
   60.2740   32.9180   45.2740 H   0  0  0  0  0  0  0  0  0  0  0  0
   62.3075   33.6358   45.4578 H   0  0  0  0  0  0  0  0  0  0  0  0
   61.7018   34.9307   46.5488 H   0  0  0  0  0  0  0  0  0  0  0  0
   64.2722   32.6351   50.5605 H   0  0  0  0  0  0  0  0  0  0  0  0
   63.0471   30.5375   49.5356 H   0  0  0  0  0  0  0  0  0  0  0  0
   60.9919   30.1519   47.8816 H   0  0  0  0  0  0  0  0  0  0  0  0
   60.7569   31.3210   46.5383 H   0  0  0  0  0  0  0  0  0  0  0  0
   62.1820   30.2275   46.5383 H   0  0  0  0  0  0  0  0  0  0  0  0
   56.3416   31.4859   42.9949 H   0  0  0  0  0  0  0  0  0  0  0  0
   56.1094   29.0442   43.4296 H   0  0  0  0  0  0  0  0  0  0  0  0
   55.8869   22.7478   47.4098 H   0  0  0  0  0  0  0  0  0  0  0  0
  1  2  1  0
  2  3  1  0
  3  4  2  0
  4  5  1  0
  5  6  2  3
  6  7  1  0
  7  8  2  0
  7  9  1  0
  9 10  2  0
 10 11  1  0
 11 12  2  0
 12 13  1  0
 13 14  1  0
 14 15  1  0
 15 16  2  0
 15 17  2  0
 15 18  1  0
 18 19  1  0
 19 20  1  0
 20 21  1  0
 21 22  1  0
 22 23  2  0
 23 24  1  0
 24 25  1  0
 12 26  1  0
 26 27  2  0
  5 28  1  0
 28 29  1  0
 29  2  2  0
 27  9  1  0
 24 20  2  0
  1 30  1  0
  1 31  1  0
  1 32  1  0
  3 33  1  0
 10 34  1  0
 11 35  1  0
 13 36  1  0
 13 37  1  0
 14 38  1  0
 14 39  1  0
 18 40  1  0
 19 41  1  0
 19 42  1  0
 22 43  1  0
 23 44  1  0
 25 45  1  0
 25 46  1  0
 25 47  1  0
 26 48  1  0
 27 49  1  0
 29 50  1  0
M  CHG  1  28  -1
M  END
>  <UniqueID>  (42) 
40

>  <SMILES>  (42) 
Cc1cnc(=NC(=O)c2ccc(CCS(=O)(=O)NCc3sccc3C)cc2)[n-]c1

>  <Energy>  (42) 
73.70014577537881

>  <Genealogy>  (42) 
Cc1cnc(=NC(=O)c2ccc(CCS(=O)(=O)NCc3sccc3C)cc2)[n-]c1 (protonated)
Cc1cnc(=NC(=O)c2ccc(CCS(=O)(=O)NCc3sccc3C)cc2)[n-]c1 (3D coordinates assigned)
Cc1cnc(=NC(=O)c2ccc(CCS(=O)(=O)NCc3sccc3C)cc2)[n-]c1 (optimized conformer: 73.70014577537881 kcal/mol)

>  <smiles>  (42) 
Cc1cnc(=NC(=O)c2ccc(CCS(=O)(=O)NCc3sccc3C)cc2)[nH]c1

>  <score_type>  (42) 
oracle

>  <origin>  (42) 
adg

>  <m_score__min__energy>  (42) 
-10.51

>  <m_primary>  (42) 
energy

$$$$
42:0
     RDKit          3D

 38 40  0  0  0  0  0  0  0  0999 V2000
   57.2280   30.1870   45.1100 H   0  0  0  0  0  0  0  0  0  0  0  0
   57.0910   31.1750   44.9320 O   0  0  0  0  0  0  0  0  0  0  0  0
   57.7600   32.1520   45.6690 C   0  0  0  0  0  0  0  0  0  0  0  0
   57.7070   33.4930   45.2620 C   0  0  0  0  0  0  0  0  0  0  0  0
   57.1327   33.7703   44.3657 H   0  0  0  0  0  0  0  0  0  0  0  0
   58.3790   34.4780   45.9880 C   0  0  0  0  0  0  0  0  0  0  0  0
   58.3350   35.5277   45.6620 H   0  0  0  0  0  0  0  0  0  0  0  0
   59.1070   34.1310   47.1280 C   0  0  0  0  0  0  0  0  0  0  0  0
   59.6307   34.9087   47.7032 H   0  0  0  0  0  0  0  0  0  0  0  0
   59.1710   32.7970   47.5390 C   0  0  0  0  0  0  0  0  0  0  0  0
   59.7491   32.5291   48.4356 H   0  0  0  0  0  0  0  0  0  0  0  0
   58.5020   31.7950   46.8150 C   0  0  0  0  0  0  0  0  0  0  0  0
   58.5550   30.3910   47.2860 C   0  0  0  0  0  0  0  0  0  0  0  0
   57.7680   29.5410   46.7920 O   0  0  0  0  0  0  0  0  0  0  0  0
   59.4290   29.9870   48.3490 N   0  0  0  0  0  0  0  0  0  0  0  0
   59.0920   29.9070   49.6010 C   0  0  0  0  0  0  0  0  0  0  0  0
   58.0110   30.5170   50.1370 N   0  0  0  0  0  0  0  0  0  0  0  0
   57.9360   30.3130   51.4820 C   0  0  0  0  0  0  0  0  0  0  0  0
   56.8850   30.9260   52.3210 C   0  0  0  0  0  0  0  0  0  0  0  0
   56.9590   32.1540   52.5900 O   0  0  0  0  0  0  0  0  0  0  0  0
   55.7620   30.1860   52.8220 N   0  0  0  0  0  0  0  0  0  0  0  0
   54.7010   29.5850   52.0190 C   0  0  0  0  0  0  0  0  0  0  0  0
   55.0586   29.4484   50.9878 H   0  0  0  0  0  0  0  0  0  0  0  0
   54.4288   28.6118   52.4536 H   0  0  0  0  0  0  0  0  0  0  0  0
   53.4890   30.4760   52.0110 C   0  0  0  0  0  0  0  0  0  0  0  0
   52.8320   30.7820   53.2140 C   0  0  0  0  0  0  0  0  0  0  0  0
   53.2186   30.3864   54.1648 H   0  0  0  0  0  0  0  0  0  0  0  0
   51.6890   31.5870   53.2090 C   0  0  0  0  0  0  0  0  0  0  0  0
   51.1840   31.8296   54.1556 H   0  0  0  0  0  0  0  0  0  0  0  0
   51.1870   32.0840   52.0030 C   0  0  0  0  0  0  0  0  0  0  0  0
   50.0520   32.8850   52.0000 O   0  0  0  0  0  0  0  0  0  0  0  0
   51.8250   31.7710   50.7990 C   0  0  0  0  0  0  0  0  0  0  0  0
   51.4277   32.1589   49.8494 H   0  0  0  0  0  0  0  0  0  0  0  0
   52.9680   30.9650   50.8010 C   0  0  0  0  0  0  0  0  0  0  0  0
   53.4615   30.7127   49.8508 H   0  0  0  0  0  0  0  0  0  0  0  0
   58.9770   29.5540   52.0160 C   0  0  0  0  0  0  0  0  0  0  0  0
   59.1023   29.2873   53.0758 H   0  0  0  0  0  0  0  0  0  0  0  0
   60.0090   29.1160   50.7600 S   0  0  0  0  0  0  0  0  0  0  0  0
  1  2  1  0
  2  3  1  0
  3  4  2  0
  4  5  1  0
  4  6  1  0
  6  7  1  0
  6  8  2  0
  8  9  1  0
  8 10  1  0
 10 11  1  0
 10 12  2  0
 12 13  1  0
 13 14  2  0
 13 15  1  0
 15 16  2  0
 16 17  1  0
 17 18  1  0
 18 19  1  0
 19 20  2  0
 19 21  1  0
 21 22  1  0
 22 23  1  0
 22 24  1  0
 22 25  1  0
 25 26  2  0
 26 27  1  0
 26 28  1  0
 28 29  1  0
 28 30  2  0
 30 31  1  0
 30 32  1  0
 32 33  1  0
 32 34  2  0
 34 35  1  0
 18 36  2  0
 36 37  1  0
 36 38  1  0
 12  3  1  0
 38 16  1  0
 34 25  1  0
M  CHG  3  17  -1  21  -1  31  -1
M  END
>  <UniqueID>  (43) 
41

>  <SMILES>  (43) 
O=C([N-]Cc1ccc([O-])cc1)c1cs/c(=N/C(=O)c2ccccc2O)[n-]1

>  <Energy>  (43) 
76.52751222406602

>  <Genealogy>  (43) 
O=C([N-]Cc1ccc([O-])cc1)c1csc(=NC(=O)c2ccccc2O)[n-]1 (protonated)
O=C([N-]Cc1ccc([O-])cc1)c1cs/c(=N/C(=O)c2ccccc2O)[n-]1 (cis-trans isomerization)
O=C([N-]Cc1ccc([O-])cc1)c1cs/c(=N/C(=O)c2ccccc2O)[n-]1 (3D coordinates assigned)
O=C([N-]Cc1ccc([O-])cc1)c1cs/c(=N/C(=O)c2ccccc2O)[n-]1 (optimized conformer: 76.52751222406602 kcal/mol)

>  <smiles>  (43) 
O=C(NCc1ccc(O)cc1)c1csc(=NC(=O)c2ccccc2O)[nH]1

>  <score_type>  (43) 
oracle

>  <origin>  (43) 
adg

>  <m_score__min__energy>  (43) 
-14.039999999999999

>  <m_primary>  (43) 
energy

$$$$
43:0
     RDKit          3D

 35 37  0  0  0  0  0  0  0  0999 V2000
   57.1591   28.3803   43.4911 H   0  0  0  0  0  0  0  0  0  0  0  0
   56.8520   28.9780   44.3620 C   0  0  0  0  0  0  0  0  0  0  0  0
   58.5320   26.7340   45.8960 N   0  0  0  0  0  0  0  0  0  0  0  0
   56.1890   27.0890   45.6920 N   0  0  0  0  0  0  0  0  0  0  0  0
   55.1520   26.3300   45.9930 N   0  0  0  0  0  0  0  0  0  0  0  0
   55.5950   25.2040   46.5360 N   0  0  0  0  0  0  0  0  0  0  0  0
   56.9220   25.2140   46.5980 N   0  0  0  0  0  0  0  0  0  0  0  0
   57.2860   26.3890   46.0540 C   0  0  0  0  0  0  0  0  0  0  0  0
   56.0710   28.4160   45.2410 N   0  0  0  0  0  0  0  0  0  0  0  0
   59.1880   27.9140   46.3800 C   0  0  0  0  0  0  0  0  0  0  0  0
   58.9860   28.3100   47.7080 C   0  0  0  0  0  0  0  0  0  0  0  0
   58.3022   27.7384   48.3527 H   0  0  0  0  0  0  0  0  0  0  0  0
   59.6510   29.4300   48.2170 C   0  0  0  0  0  0  0  0  0  0  0  0
   59.4676   29.7541   49.2520 H   0  0  0  0  0  0  0  0  0  0  0  0
   60.5480   30.1380   47.4130 C   0  0  0  0  0  0  0  0  0  0  0  0
   61.0619   31.0254   47.8110 H   0  0  0  0  0  0  0  0  0  0  0  0
   60.7920   29.7170   46.1010 C   0  0  0  0  0  0  0  0  0  0  0  0
   61.5083   30.2656   45.4718 H   0  0  0  0  0  0  0  0  0  0  0  0
   60.1260   28.6000   45.5900 C   0  0  0  0  0  0  0  0  0  0  0  0
   60.3366   28.2567   44.5664 H   0  0  0  0  0  0  0  0  0  0  0  0
   57.3530   30.3670   44.4580 C   0  0  0  0  0  0  0  0  0  0  0  0
   57.7230   30.9430   45.6860 C   0  0  0  0  0  0  0  0  0  0  0  0
   57.6501   30.3520   46.6109 H   0  0  0  0  0  0  0  0  0  0  0  0
   58.1830   32.2620   45.7390 C   0  0  0  0  0  0  0  0  0  0  0  0
   58.4909   32.6962   46.7016 H   0  0  0  0  0  0  0  0  0  0  0  0
   58.2540   33.0370   44.5660 C   0  0  0  0  0  0  0  0  0  0  0  0
   58.7140   34.3620   44.5660 O   0  0  0  0  0  0  0  0  0  0  0  0
   59.4630   34.9530   45.6230 C   0  0  0  0  0  0  0  0  0  0  0  0
   59.0515   34.6283   46.5901 H   0  0  0  0  0  0  0  0  0  0  0  0
   60.5144   34.6385   45.5477 H   0  0  0  0  0  0  0  0  0  0  0  0
   59.4017   36.0487   45.5477 H   0  0  0  0  0  0  0  0  0  0  0  0
   57.8470   32.4740   43.3520 C   0  0  0  0  0  0  0  0  0  0  0  0
   57.8895   33.0738   42.4309 H   0  0  0  0  0  0  0  0  0  0  0  0
   57.3870   31.1560   43.3000 C   0  0  0  0  0  0  0  0  0  0  0  0
   57.0486   30.7338   42.3423 H   0  0  0  0  0  0  0  0  0  0  0  0
  1  2  1  0
  2  3  2  0
  3  4  1  0
  4  5  1  0
  5  6  1  0
  6  7  2  0
  7  8  1  0
  8  9  2  0
  9 10  1  0
 10 11  2  0
 11 12  1  0
 11 13  1  0
 13 14  1  0
 13 15  2  0
 15 16  1  0
 15 17  1  0
 17 18  1  0
 17 19  2  0
 19 20  1  0
  2 21  1  0
 21 22  2  0
 22 23  1  0
 22 24  1  0
 24 25  1  0
 24 26  2  0
 26 27  1  0
 27 28  1  0
 28 29  1  0
 28 30  1  0
 28 31  1  0
 26 32  1  0
 32 33  1  0
 32 34  2  0
 34 35  1  0
  8  4  1  0
 19 10  1  0
 34 21  1  0
M  CHG  1   5  -1
M  END
>  <UniqueID>  (44) 
42

>  <SMILES>  (44) 
COc1ccc(/C=N\n2[n-]nn/c2=N/c2ccccc2)cc1

>  <Energy>  (44) 
100.1114320269557

>  <Genealogy>  (44) 
COc1ccc(C=Nn2[n-]nnc2=Nc2ccccc2)cc1 (protonated)
COc1ccc(/C=N\n2[n-]nn/c2=N/c2ccccc2)cc1 (cis-trans isomerization)
COc1ccc(/C=N\n2[n-]nn/c2=N/c2ccccc2)cc1 (3D coordinates assigned)
COc1ccc(/C=N\n2[n-]nn/c2=N/c2ccccc2)cc1 (optimized conformer: 100.1114320269557 kcal/mol)

>  <smiles>  (44) 
COc1ccc(C=Nn2[nH]nnc2=Nc2ccccc2)cc1

>  <score_type>  (44) 
oracle

>  <origin>  (44) 
adg

>  <m_score__min__energy>  (44) 
-9.6799999999999997

>  <m_primary>  (44) 
energy

$$$$
44:0
     RDKit          3D

 43 45  0  0  1  0  0  0  0  0999 V2000
   62.0690   32.0130   47.2950 C   0  0  0  0  0  0  0  0  0  0  0  0
   60.8220   31.3890   47.3240 O   0  0  0  0  0  0  0  0  0  0  0  0
   60.0320   31.1710   48.4310 C   0  0  0  0  0  0  0  0  0  0  0  0
   59.7590   32.1530   49.3590 C   0  0  0  0  0  0  0  0  0  0  0  0
   58.9580   31.8970   50.4650 C   0  0  0  0  0  0  0  0  0  0  0  0
   58.4250   30.6380   50.6380 C   0  0  0  0  0  0  0  0  0  0  0  0
   57.4040   30.3020   52.0430 Cl  0  0  0  0  0  0  0  0  0  0  0  0
   58.6910   29.6470   49.7150 C   0  0  0  0  0  0  0  0  0  0  0  0
   59.4920   29.9040   48.6100 C   0  0  0  0  0  0  0  0  0  0  0  0
   59.7770   28.8950   47.6490 N   0  0  0  0  0  0  0  0  0  0  0  0
   60.3910   27.6650   48.0090 C   0  0  0  0  0  0  0  0  0  0  0  0
   60.7060   27.4320   49.2220 O   0  0  0  0  0  0  0  0  0  0  0  0
   60.6410   26.6880   46.9210 C   0  0  0  0  0  0  0  0  0  0  0  0
   59.1040   26.0880   46.1750 S   0  0  0  0  0  0  0  0  0  0  0  0
   58.1360   27.4760   45.6650 C   0  0  0  0  0  0  0  0  0  0  0  0
   57.4970   28.3980   46.0980 N   0  0  0  0  0  0  0  0  0  0  0  0
   56.8420   29.3220   45.4630 N   0  0  0  0  0  0  0  0  0  0  0  0
   56.8580   29.2740   44.1690 C   0  0  0  0  0  0  0  0  0  0  0  0
   56.3160   30.0230   43.1770 N   0  0  0  0  0  0  0  0  0  0  0  0
   57.0280   31.2030   42.8790 C   0  0  0  0  0  0  0  0  0  0  0  0
   57.3340   31.6020   41.7380 O   0  0  0  0  0  0  0  0  0  0  0  0
   57.4560   32.0530   44.0040 C   0  0  0  0  0  0  0  0  0  0  0  0
   58.3860   33.0660   43.9290 C   0  0  0  0  0  0  0  0  0  0  0  0
   58.4960   33.6080   45.1980 C   0  0  0  0  0  0  0  0  0  0  0  0
   57.6110   32.8870   45.9970 C   0  0  0  0  0  0  0  0  0  0  0  0
   57.4520   33.1900   47.4490 C   0  0  0  0  0  0  0  0  0  0  0  0
   57.0300   31.9930   45.2570 O   0  0  0  0  0  0  0  0  0  0  0  0
   57.8860   27.8000   43.7720 S   0  0  0  0  0  0  0  0  0  0  0  0
   62.4161   32.1867   48.3242 H   0  0  0  0  0  0  0  0  0  0  0  0
   62.7891   31.3690   46.7689 H   0  0  0  0  0  0  0  0  0  0  0  0
   61.9853   32.9754   46.7689 H   0  0  0  0  0  0  0  0  0  0  0  0
   60.1834   33.1585   49.2213 H   0  0  0  0  0  0  0  0  0  0  0  0
   58.7511   32.6923   51.1962 H   0  0  0  0  0  0  0  0  0  0  0  0
   58.2641   28.6431   49.8561 H   0  0  0  0  0  0  0  0  0  0  0  0
   59.5130   29.1020   46.6570 H   0  0  0  0  0  0  0  0  0  0  0  0
   61.2474   27.1728   46.1418 H   0  0  0  0  0  0  0  0  0  0  0  0
   61.1651   25.8243   47.3562 H   0  0  0  0  0  0  0  0  0  0  0  0
   56.3150   30.0900   46.0050 H   0  0  0  0  0  0  0  0  0  0  0  0
   58.9367   33.3839   43.0314 H   0  0  0  0  0  0  0  0  0  0  0  0
   59.1477   34.4370   45.5111 H   0  0  0  0  0  0  0  0  0  0  0  0
   57.8820   32.3706   48.0438 H   0  0  0  0  0  0  0  0  0  0  0  0
   57.9737   34.1287   47.6869 H   0  0  0  0  0  0  0  0  0  0  0  0
   56.3831   33.2941   47.6869 H   0  0  0  0  0  0  0  0  0  0  0  0
  1  2  1  0
  2  3  1  0
  3  4  2  0
  4  5  1  0
  5  6  2  0
  6  7  1  0
  6  8  1  0
  8  9  2  0
  9 10  1  0
 10 11  1  0
 11 12  2  0
 11 13  1  0
 13 14  1  0
 14 15  1  0
 15 16  2  0
 16 17  1  0
 17 18  1  0
 18 19  2  0
 19 20  1  0
 20 21  2  0
 20 22  1  0
 22 23  2  0
 23 24  1  0
 24 25  2  0
 25 26  1  0
 25 27  1  0
 18 28  1  0
  9  3  1  0
 28 15  1  0
 27 22  1  0
  1 29  1  0
  1 30  1  0
  1 31  1  0
  4 32  1  0
  5 33  1  0
  8 34  1  0
 10 35  1  0
 13 36  1  0
 13 37  1  0
 17 38  1  0
 23 39  1  0
 24 40  1  0
 26 41  1  0
 26 42  1  0
 26 43  1  0
M  END
>  <smiles>  (45) 
COc1ccc(Cl)cc1NC(=O)CSc1n[nH]c(=NC(=O)c2ccc(C)o2)s1

>  <score_type>  (45) 
oracle

>  <origin>  (45) 
adg

>  <m_score__min__energy>  (45) 
-8.9700000000000006

>  <m_primary>  (45) 
energy

$$$$
45:0
     RDKit          3D

 39 40  0  0  0  0  0  0  0  0999 V2000
   54.7250   26.3240   45.9640 N   0  0  0  0  0  0  0  0  0  0  0  0
   55.3690   24.7320   45.7780 S   0  0  0  0  0  0  0  0  0  0  0  0
   54.9210   24.1640   44.4600 O   0  0  0  0  0  0  0  0  0  0  0  0
   54.8570   23.8500   46.8800 O   0  0  0  0  0  0  0  0  0  0  0  0
   57.1250   24.7950   45.8430 C   0  0  0  0  0  0  0  0  0  0  0  0
   57.8860   23.6630   45.5250 C   0  0  0  0  0  0  0  0  0  0  0  0
   59.2800   23.7130   45.6030 C   0  0  0  0  0  0  0  0  0  0  0  0
   59.9220   24.8940   45.9850 C   0  0  0  0  0  0  0  0  0  0  0  0
   59.1670   26.0430   46.2790 C   0  0  0  0  0  0  0  0  0  0  0  0
   59.7830   27.2690   46.6920 N   0  0  0  0  0  0  0  0  0  0  0  0
   59.1580   28.5590   46.7400 C   0  0  0  0  0  0  0  0  0  0  0  0
   57.9630   28.6840   47.1200 O   0  0  0  0  0  0  0  0  0  0  0  0
   59.9790   29.7810   46.4640 C   0  0  0  0  0  0  0  0  0  0  0  0
   59.5210   30.9820   47.2980 C   0  0  0  0  0  0  0  0  0  0  0  0
   58.1600   31.3780   46.9470 N   0  0  0  0  0  0  0  0  0  0  0  0
   57.8460   32.3840   45.9720 C   0  0  0  0  0  0  0  0  0  0  0  0
   57.8170   33.5940   46.3190 O   0  0  0  0  0  0  0  0  0  0  0  0
   57.5840   32.0000   44.5610 C   0  0  0  0  0  0  0  0  0  0  0  0
   58.0810   32.8080   43.5180 C   0  0  0  0  0  0  0  0  0  0  0  0
   57.8290   32.4860   42.1830 C   0  0  0  0  0  0  0  0  0  0  0  0
   57.0830   31.3520   41.8660 C   0  0  0  0  0  0  0  0  0  0  0  0
   56.5840   30.5380   42.8850 C   0  0  0  0  0  0  0  0  0  0  0  0
   56.8210   30.8550   44.2300 C   0  0  0  0  0  0  0  0  0  0  0  0
   56.2960   30.0330   45.2280 O   0  0  0  0  0  0  0  0  0  0  0  0
   57.7700   25.9810   46.2180 C   0  0  0  0  0  0  0  0  0  0  0  0
   53.7790   26.3140   45.5330 H   0  0  0  0  0  0  0  0  0  0  0  0
   57.3858   22.7341   45.2137 H   0  0  0  0  0  0  0  0  0  0  0  0
   59.8746   22.8192   45.3628 H   0  0  0  0  0  0  0  0  0  0  0  0
   61.0193   24.9247   46.0557 H   0  0  0  0  0  0  0  0  0  0  0  0
   61.0305   29.5635   46.7026 H   0  0  0  0  0  0  0  0  0  0  0  0
   59.8566   30.0391   45.4017 H   0  0  0  0  0  0  0  0  0  0  0  0
   59.5530   30.7122   48.3639 H   0  0  0  0  0  0  0  0  0  0  0  0
   60.1945   31.8271   47.0925 H   0  0  0  0  0  0  0  0  0  0  0  0
   58.6742   33.7025   43.7588 H   0  0  0  0  0  0  0  0  0  0  0  0
   58.2198   33.1283   41.3800 H   0  0  0  0  0  0  0  0  0  0  0  0
   56.8875   31.0984   40.8136 H   0  0  0  0  0  0  0  0  0  0  0  0
   56.0004   29.6410   42.6304 H   0  0  0  0  0  0  0  0  0  0  0  0
   56.6140   30.0900   46.1870 H   0  0  0  0  0  0  0  0  0  0  0  0
   57.1733   26.8711   46.4666 H   0  0  0  0  0  0  0  0  0  0  0  0
  1  2  1  0
  2  3  2  0
  2  4  2  0
  2  5  1  0
  5  6  2  0
  6  7  1  0
  7  8  2  0
  8  9  1  0
  9 10  1  0
 10 11  1  0
 11 12  2  0
 11 13  1  0
 13 14  1  0
 14 15  1  0
 15 16  1  0
 16 17  2  0
 16 18  1  0
 18 19  2  0
 19 20  1  0
 20 21  2  0
 21 22  1  0
 22 23  2  0
 23 24  1  0
  9 25  2  0
 25  5  1  0
 23 18  1  0
  1 26  1  0
  6 27  1  0
  7 28  1  0
  8 29  1  0
 13 30  1  0
 13 31  1  0
 14 32  1  0
 14 33  1  0
 19 34  1  0
 20 35  1  0
 21 36  1  0
 22 37  1  0
 24 38  1  0
 25 39  1  0
M  CHG  3   1  -1  10  -1  15  -1
M  END
>  <UniqueID>  (46) 
43

>  <SMILES>  (46) 
[NH-]S(=O)(=O)c1cccc([N-]C(=O)CC[N-]C(=O)c2ccccc2O)c1

>  <Energy>  (46) 
37.71639615391498

>  <Genealogy>  (46) 
[NH-]S(=O)(=O)c1cccc([N-]C(=O)CC[N-]C(=O)c2ccccc2O)c1 (protonated)
[NH-]S(=O)(=O)c1cccc([N-]C(=O)CC[N-]C(=O)c2ccccc2O)c1 (3D coordinates assigned)
[NH-]S(=O)(=O)c1cccc([N-]C(=O)CC[N-]C(=O)c2ccccc2O)c1 (optimized conformer: 37.71639615391498 kcal/mol)

>  <smiles>  (46) 
NS(=O)(=O)c1cccc(NC(=O)CCNC(=O)c2ccccc2O)c1

>  <score_type>  (46) 
oracle

>  <origin>  (46) 
adg

>  <m_score__min__energy>  (46) 
-12.800000000000001

>  <m_primary>  (46) 
energy

$$$$
46:0
     RDKit          3D

 26 27  0  0  0  0  0  0  0  0999 V2000
   62.5480   34.2000   49.1950 C   0  0  0  0  0  0  0  0  0  0  0  0
   61.4560   34.3490   48.2950 O   0  0  0  0  0  0  0  0  0  0  0  0
   60.6950   33.2860   47.7880 C   0  0  0  0  0  0  0  0  0  0  0  0
   61.2840   32.1280   47.2450 C   0  0  0  0  0  0  0  0  0  0  0  0
   60.4820   31.0950   46.7490 C   0  0  0  0  0  0  0  0  0  0  0  0
   59.0810   31.2060   46.7760 C   0  0  0  0  0  0  0  0  0  0  0  0
   58.2170   30.1090   46.2800 C   0  0  0  0  0  0  0  0  0  0  0  0
   57.3610   30.3770   45.2590 N   0  0  0  0  0  0  0  0  0  0  0  0
   56.5340   29.4290   44.7520 C   0  0  0  0  0  0  0  0  0  0  0  0
   55.5220   29.8160   43.5270 S   0  0  0  0  0  0  0  0  0  0  0  0
   56.5490   28.1690   45.2640 N   0  0  0  0  0  0  0  0  0  0  0  0
   57.3970   27.8360   46.2740 C   0  0  0  0  0  0  0  0  0  0  0  0
   57.4020   26.6560   46.7190 O   0  0  0  0  0  0  0  0  0  0  0  0
   58.2640   28.8020   46.8110 C   0  0  0  0  0  0  0  0  0  0  0  0
   59.2140   28.4290   47.8350 C   0  0  0  0  0  0  0  0  0  0  0  0
   59.9740   28.1300   48.6560 N   0  0  0  0  0  0  0  0  0  0  0  0
   58.4980   32.3520   47.3370 C   0  0  0  0  0  0  0  0  0  0  0  0
   59.3000   33.3850   47.8310 C   0  0  0  0  0  0  0  0  0  0  0  0
   62.1794   34.2503   50.2302 H   0  0  0  0  0  0  0  0  0  0  0  0
   63.0329   33.2274   49.0253 H   0  0  0  0  0  0  0  0  0  0  0  0
   63.2758   35.0072   49.0253 H   0  0  0  0  0  0  0  0  0  0  0  0
   62.3796   32.0354   47.2107 H   0  0  0  0  0  0  0  0  0  0  0  0
   60.9506   30.1899   46.3351 H   0  0  0  0  0  0  0  0  0  0  0  0
   55.9090   27.4410   44.8720 H   0  0  0  0  0  0  0  0  0  0  0  0
   57.4026   32.4384   47.3885 H   0  0  0  0  0  0  0  0  0  0  0  0
   58.8302   34.2836   48.2573 H   0  0  0  0  0  0  0  0  0  0  0  0
  1  2  1  0
  2  3  1  0
  3  4  2  0
  4  5  1  0
  5  6  2  0
  6  7  1  0
  7  8  1  0
  8  9  1  0
  9 10  2  0
  9 11  1  0
 11 12  1  0
 12 13  2  0
 12 14  1  0
 14 15  1  0
 15 16  3  0
  6 17  1  0
 17 18  2  0
 18  3  1  0
 14  7  2  0
  1 19  1  0
  1 20  1  0
  1 21  1  0
  4 22  1  0
  5 23  1  0
 11 24  1  0
 17 25  1  0
 18 26  1  0
M  CHG  1   8  -1
M  END
>  <UniqueID>  (47) 
44

>  <SMILES>  (47) 
COc1ccc(-c2[n-]c(=S)[nH]c(=O)c2C#N)cc1

>  <Energy>  (47) 
34.09893135103115

>  <Genealogy>  (47) 
COc1ccc(-c2[n-]c(=S)[nH]c(=O)c2C#N)cc1 (protonated)
COc1ccc(-c2[n-]c(=S)[nH]c(=O)c2C#N)cc1 (3D coordinates assigned)
COc1ccc(-c2[n-]c(=S)[nH]c(=O)c2C#N)cc1 (optimized conformer: 34.09893135103115 kcal/mol)

>  <smiles>  (47) 
COc1ccc(-c2[nH]c(=S)[nH]c(=O)c2C#N)cc1

>  <score_type>  (47) 
oracle

>  <origin>  (47) 
adg

>  <m_score__min__energy>  (47) 
-7.1799999999999997

>  <m_primary>  (47) 
energy

$$$$
47:0
     RDKit          3D

 40 43  0  0  0  0  0  0  0  0999 V2000
   57.4540   34.0160   47.1140 O   0  0  0  0  0  0  0  0  0  0  0  0
   58.4720   33.7960   46.4000 C   0  0  0  0  0  0  0  0  0  0  0  0
   58.3350   33.5300   44.9930 N   0  0  0  0  0  0  0  0  0  0  0  0
   57.9140   32.4300   44.4380 C   0  0  0  0  0  0  0  0  0  0  0  0
   57.8420   31.2620   45.2060 C   0  0  0  0  0  0  0  0  0  0  0  0
   57.3790   30.0710   44.6260 C   0  0  0  0  0  0  0  0  0  0  0  0
   57.3110   28.8320   45.4330 C   0  0  0  0  0  0  0  0  0  0  0  0
   56.3870   27.8730   45.2460 N   0  0  0  0  0  0  0  0  0  0  0  0
   56.6020   26.9880   46.2350 C   0  0  0  0  0  0  0  0  0  0  0  0
   55.9080   25.9500   46.3910 O   0  0  0  0  0  0  0  0  0  0  0  0
   57.6260   27.3160   47.0480 N   0  0  0  0  0  0  0  0  0  0  0  0
   58.0820   28.4780   46.5360 C   0  0  0  0  0  0  0  0  0  0  0  0
   59.2540   29.1890   47.0910 C   0  0  0  0  0  0  0  0  0  0  0  0
   60.2420   29.6690   46.2200 C   0  0  0  0  0  0  0  0  0  0  0  0
   61.3560   30.3410   46.7240 C   0  0  0  0  0  0  0  0  0  0  0  0
   61.4670   30.5420   48.1000 C   0  0  0  0  0  0  0  0  0  0  0  0
   60.4900   30.0990   48.9340 N   0  0  0  0  0  0  0  0  0  0  0  0
   59.3940   29.4410   48.4720 C   0  0  0  0  0  0  0  0  0  0  0  0
   58.5030   29.0820   49.2870 O   0  0  0  0  0  0  0  0  0  0  0  0
   57.0190   30.0710   43.2690 C   0  0  0  0  0  0  0  0  0  0  0  0
   57.1040   31.2530   42.5340 C   0  0  0  0  0  0  0  0  0  0  0  0
   57.5430   32.3940   43.1260 N   0  0  0  0  0  0  0  0  0  0  0  0
   59.8200   33.8140   47.0180 C   0  0  0  0  0  0  0  0  0  0  0  0
   60.9760   33.7900   46.2120 C   0  0  0  0  0  0  0  0  0  0  0  0
   62.2470   33.8070   46.7960 C   0  0  0  0  0  0  0  0  0  0  0  0
   62.3800   33.8490   48.1850 C   0  0  0  0  0  0  0  0  0  0  0  0
   61.2420   33.8730   48.9940 C   0  0  0  0  0  0  0  0  0  0  0  0
   59.9680   33.8570   48.4180 C   0  0  0  0  0  0  0  0  0  0  0  0
   58.1479   31.2777   46.2625 H   0  0  0  0  0  0  0  0  0  0  0  0
   55.6350   27.8400   44.5210 H   0  0  0  0  0  0  0  0  0  0  0  0
   60.1386   29.5153   45.1357 H   0  0  0  0  0  0  0  0  0  0  0  0
   62.1384   30.7084   46.0436 H   0  0  0  0  0  0  0  0  0  0  0  0
   62.3465   31.0597   48.5103 H   0  0  0  0  0  0  0  0  0  0  0  0
   56.6720   29.1443   42.7885 H   0  0  0  0  0  0  0  0  0  0  0  0
   56.8150   31.2614   41.4727 H   0  0  0  0  0  0  0  0  0  0  0  0
   60.8781   33.7577   45.1168 H   0  0  0  0  0  0  0  0  0  0  0  0
   63.1438   33.7872   46.1593 H   0  0  0  0  0  0  0  0  0  0  0  0
   63.3805   33.8632   48.6419 H   0  0  0  0  0  0  0  0  0  0  0  0
   61.3482   33.9046   50.0884 H   0  0  0  0  0  0  0  0  0  0  0  0
   59.0764   33.8781   49.0618 H   0  0  0  0  0  0  0  0  0  0  0  0
  1  2  2  0
  2  3  1  0
  3  4  2  3
  4  5  1  0
  5  6  2  0
  6  7  1  0
  7  8  1  0
  8  9  1  0
  9 10  2  0
  9 11  1  0
 11 12  1  0
 12 13  1  0
 13 14  2  0
 14 15  1  0
 15 16  2  0
 16 17  1  0
 17 18  1  0
 18 19  2  0
  6 20  1  0
 20 21  2  0
 21 22  1  0
  2 23  1  0
 23 24  2  0
 24 25  1  0
 25 26  2  0
 26 27  1  0
 27 28  2  0
 22  4  1  0
 28 23  1  0
 12  7  2  0
 18 13  1  0
  5 29  1  0
  8 30  1  0
 14 31  1  0
 15 32  1  0
 16 33  1  0
 20 34  1  0
 21 35  1  0
 24 36  1  0
 25 37  1  0
 26 38  1  0
 27 39  1  0
 28 40  1  0
M  CHG  3  11  -1  17  -1  22  -1
M  END
>  <UniqueID>  (48) 
45

>  <SMILES>  (48) 
O=C(N=c1cc(-c2[nH]c(=O)[n-]c2-c2ccc[n-]c2=O)cc[n-]1)c1ccccc1

>  <Energy>  (48) 
89.82512862623395

>  <Genealogy>  (48) 
O=C(N=c1cc(-c2[nH]c(=O)[n-]c2-c2ccc[n-]c2=O)cc[n-]1)c1ccccc1 (protonated)
O=C(N=c1cc(-c2[nH]c(=O)[n-]c2-c2ccc[n-]c2=O)cc[n-]1)c1ccccc1 (3D coordinates assigned)
O=C(N=c1cc(-c2[nH]c(=O)[n-]c2-c2ccc[n-]c2=O)cc[n-]1)c1ccccc1 (optimized conformer: 89.82512862623395 kcal/mol)

>  <smiles>  (48) 
O=C(N=c1cc(-c2[nH]c(=O)[nH]c2-c2ccc[nH]c2=O)cc[nH]1)c1ccccc1

>  <score_type>  (48) 
oracle

>  <origin>  (48) 
adg

>  <m_score__min__energy>  (48) 
-12.550000000000001

>  <m_primary>  (48) 
energy

$$$$
48:0
     RDKit          3D

 37 39  0  0  0  0  0  0  0  0999 V2000
   56.3260   29.3490   43.4540 O   0  0  0  0  0  0  0  0  0  0  0  0
   57.2060   29.5670   44.3310 C   0  0  0  0  0  0  0  0  0  0  0  0
   57.7620   28.4280   45.1090 C   0  0  0  0  0  0  0  0  0  0  0  0
   59.1560   28.2720   45.2350 C   0  0  0  0  0  0  0  0  0  0  0  0
   59.6900   27.2040   45.9580 C   0  0  0  0  0  0  0  0  0  0  0  0
   58.8430   26.2700   46.5560 C   0  0  0  0  0  0  0  0  0  0  0  0
   57.4590   26.4050   46.4330 C   0  0  0  0  0  0  0  0  0  0  0  0
   56.9130   27.4750   45.7150 C   0  0  0  0  0  0  0  0  0  0  0  0
   55.5300   27.5910   45.6260 O   0  0  0  0  0  0  0  0  0  0  0  0
   57.6800   30.9590   44.5380 C   0  0  0  0  0  0  0  0  0  0  0  0
   57.7140   31.8650   43.4720 C   0  0  0  0  0  0  0  0  0  0  0  0
   57.2960   31.4800   42.1990 O   0  0  0  0  0  0  0  0  0  0  0  0
   58.1730   33.1230   43.6710 N   0  0  0  0  0  0  0  0  0  0  0  0
   58.6090   33.5400   44.8850 C   0  0  0  0  0  0  0  0  0  0  0  0
   59.0390   34.7190   45.0040 O   0  0  0  0  0  0  0  0  0  0  0  0
   58.5820   32.6890   45.9620 N   0  0  0  0  0  0  0  0  0  0  0  0
   59.1110   33.1360   47.2680 C   0  0  0  0  0  0  0  0  0  0  0  0
   60.6110   32.9680   47.3120 C   0  0  0  0  0  0  0  0  0  0  0  0
   61.4400   33.9480   46.7370 C   0  0  0  0  0  0  0  0  0  0  0  0
   62.8300   33.8210   46.7950 C   0  0  0  0  0  0  0  0  0  0  0  0
   63.4070   32.7180   47.4280 C   0  0  0  0  0  0  0  0  0  0  0  0
   62.5940   31.7380   48.0020 C   0  0  0  0  0  0  0  0  0  0  0  0
   61.2020   31.8580   47.9480 C   0  0  0  0  0  0  0  0  0  0  0  0
   60.4360   30.8900   48.5110 F   0  0  0  0  0  0  0  0  0  0  0  0
   58.1040   31.4110   45.8030 C   0  0  0  0  0  0  0  0  0  0  0  0
   58.0270   30.6330   46.7950 O   0  0  0  0  0  0  0  0  0  0  0  0
   59.8306   28.9989   44.7590 H   0  0  0  0  0  0  0  0  0  0  0  0
   60.7805   27.0984   46.0565 H   0  0  0  0  0  0  0  0  0  0  0  0
   59.2656   25.4280   47.1239 H   0  0  0  0  0  0  0  0  0  0  0  0
   56.7937   25.6659   46.9032 H   0  0  0  0  0  0  0  0  0  0  0  0
   57.3220   30.5080   41.9140 H   0  0  0  0  0  0  0  0  0  0  0  0
   58.8603   34.1966   47.4171 H   0  0  0  0  0  0  0  0  0  0  0  0
   58.6595   32.5261   48.0643 H   0  0  0  0  0  0  0  0  0  0  0  0
   60.9911   34.8198   46.2386 H   0  0  0  0  0  0  0  0  0  0  0  0
   63.4711   34.5911   46.3413 H   0  0  0  0  0  0  0  0  0  0  0  0
   64.5017   32.6210   47.4745 H   0  0  0  0  0  0  0  0  0  0  0  0
   63.0504   30.8688   48.4982 H   0  0  0  0  0  0  0  0  0  0  0  0
  1  2  2  0
  2  3  1  0
  3  4  2  0
  4  5  1  0
  5  6  2  0
  6  7  1  0
  7  8  2  0
  8  9  1  0
  2 10  1  0
 10 11  2  0
 11 12  1  0
 11 13  1  0
 13 14  1  0
 14 15  2  0
 14 16  1  0
 16 17  1  0
 17 18  1  0
 18 19  2  0
 19 20  1  0
 20 21  2  0
 21 22  1  0
 22 23  2  0
 23 24  1  0
 16 25  1  0
 25 26  2  0
  8  3  1  0
 25 10  1  0
 23 18  1  0
  4 27  1  0
  5 28  1  0
  6 29  1  0
  7 30  1  0
 12 31  1  0
 17 32  1  0
 17 33  1  0
 19 34  1  0
 20 35  1  0
 21 36  1  0
 22 37  1  0
M  CHG  2   9  -1  13  -1
M  END
>  <UniqueID>  (49) 
46

>  <SMILES>  (49) 
O=C(c1ccccc1[O-])c1c(O)[n-]c(=O)n(Cc2ccccc2F)c1=O

>  <Energy>  (49) 
53.59813657506765

>  <Genealogy>  (49) 
O=C(c1ccccc1[O-])c1c(O)[n-]c(=O)n(Cc2ccccc2F)c1=O (protonated)
O=C(c1ccccc1[O-])c1c(O)[n-]c(=O)n(Cc2ccccc2F)c1=O (3D coordinates assigned)
O=C(c1ccccc1[O-])c1c(O)[n-]c(=O)n(Cc2ccccc2F)c1=O (optimized conformer: 53.59813657506765 kcal/mol)

>  <smiles>  (49) 
O=C(c1ccccc1O)c1c(O)[nH]c(=O)n(Cc2ccccc2F)c1=O

>  <score_type>  (49) 
oracle

>  <origin>  (49) 
adg

>  <m_score__min__energy>  (49) 
-12.67

>  <m_primary>  (49) 
energy

$$$$
49:0
     RDKit          3D

 52 54  0  0  0  0  0  0  0  0999 V2000
   65.1320   32.7140   49.7660 C   0  0  0  0  0  0  0  0  0  0  0  0
   64.4780   33.7950   49.1090 O   0  0  0  0  0  0  0  0  0  0  0  0
   63.2220   33.7050   48.4860 C   0  0  0  0  0  0  0  0  0  0  0  0
   63.1800   33.6300   47.0900 C   0  0  0  0  0  0  0  0  0  0  0  0
   61.9590   33.5280   46.4220 C   0  0  0  0  0  0  0  0  0  0  0  0
   60.7570   33.4800   47.1410 C   0  0  0  0  0  0  0  0  0  0  0  0
   59.5190   33.3620   46.4240 N   0  0  0  0  0  0  0  0  0  0  0  0
   58.9110   34.4690   45.7370 C   0  0  0  0  0  0  0  0  0  0  0  0
   59.3580   35.6390   45.8900 O   0  0  0  0  0  0  0  0  0  0  0  0
   57.6980   34.2500   44.8800 C   0  0  0  0  0  0  0  0  0  0  0  0
   57.7220   32.8580   44.2420 C   0  0  0  0  0  0  0  0  0  0  0  0
   57.3630   31.8330   45.2190 N   0  0  0  0  0  0  0  0  0  0  0  0
   57.2370   30.4420   44.9080 C   0  0  0  0  0  0  0  0  0  0  0  0
   56.0990   29.9230   44.7480 O   0  0  0  0  0  0  0  0  0  0  0  0
   58.4670   29.5870   44.8390 C   0  0  0  0  0  0  0  0  0  0  0  0
   58.9700   29.2790   46.1890 N   0  0  0  0  0  0  0  0  0  0  0  0
   58.4340   28.2190   46.8700 C   0  0  0  0  0  0  0  0  0  0  0  0
   58.8940   27.8740   48.1410 C   0  0  0  0  0  0  0  0  0  0  0  0
   59.9270   28.6120   48.7250 C   0  0  0  0  0  0  0  0  0  0  0  0
   60.4150   28.2700   49.9960 C   0  0  0  0  0  0  0  0  0  0  0  0
   61.4550   29.0090   50.5690 C   0  0  0  0  0  0  0  0  0  0  0  0
   62.0100   30.0920   49.8810 C   0  0  0  0  0  0  0  0  0  0  0  0
   61.5330   30.4390   48.6120 C   0  0  0  0  0  0  0  0  0  0  0  0
   60.4870   29.7030   48.0210 C   0  0  0  0  0  0  0  0  0  0  0  0
   59.9890   30.0220   46.7410 C   0  0  0  0  0  0  0  0  0  0  0  0
   60.4840   30.9890   46.0950 O   0  0  0  0  0  0  0  0  0  0  0  0
   60.7760   33.5890   48.5480 C   0  0  0  0  0  0  0  0  0  0  0  0
   59.5550   33.6190   49.2430 O   0  0  0  0  0  0  0  0  0  0  0  0
   58.9170   32.4810   49.8160 C   0  0  0  0  0  0  0  0  0  0  0  0
   62.0140   33.6890   49.2140 C   0  0  0  0  0  0  0  0  0  0  0  0
   65.0527   32.8450   50.8553 H   0  0  0  0  0  0  0  0  0  0  0  0
   64.6558   31.7661   49.4751 H   0  0  0  0  0  0  0  0  0  0  0  0
   66.1927   32.6959   49.4751 H   0  0  0  0  0  0  0  0  0  0  0  0
   64.1169   33.6516   46.5140 H   0  0  0  0  0  0  0  0  0  0  0  0
   61.9399   33.4850   45.3230 H   0  0  0  0  0  0  0  0  0  0  0  0
   58.9610   32.4870   46.5500 H   0  0  0  0  0  0  0  0  0  0  0  0
   56.7958   34.3452   45.5021 H   0  0  0  0  0  0  0  0  0  0  0  0
   57.6941   35.0033   44.0784 H   0  0  0  0  0  0  0  0  0  0  0  0
   57.0033   32.8304   43.4098 H   0  0  0  0  0  0  0  0  0  0  0  0
   58.7395   32.6554   43.8763 H   0  0  0  0  0  0  0  0  0  0  0  0
   58.2235   28.6469   44.3223 H   0  0  0  0  0  0  0  0  0  0  0  0
   59.2464   30.1364   44.2906 H   0  0  0  0  0  0  0  0  0  0  0  0
   57.6280   27.6302   46.4077 H   0  0  0  0  0  0  0  0  0  0  0  0
   58.4463   27.0262   48.6802 H   0  0  0  0  0  0  0  0  0  0  0  0
   59.9791   27.4202   50.5417 H   0  0  0  0  0  0  0  0  0  0  0  0
   61.8374   28.7373   51.5640 H   0  0  0  0  0  0  0  0  0  0  0  0
   62.8242   30.6732   50.3385 H   0  0  0  0  0  0  0  0  0  0  0  0
   61.9764   31.2897   48.0738 H   0  0  0  0  0  0  0  0  0  0  0  0
   58.9568   32.5519   50.9130 H   0  0  0  0  0  0  0  0  0  0  0  0
   57.8674   32.4455   49.4887 H   0  0  0  0  0  0  0  0  0  0  0  0
   59.4343   31.5671   49.4887 H   0  0  0  0  0  0  0  0  0  0  0  0
   62.0384   33.7552   50.3117 H   0  0  0  0  0  0  0  0  0  0  0  0
  1  2  1  0
  2  3  1  0
  3  4  2  0
  4  5  1  0
  5  6  2  0
  6  7  1  0
  7  8  1  0
  8  9  2  0
  8 10  1  0
 10 11  1  0
 11 12  1  0
 12 13  1  0
 13 14  2  0
 13 15  1  0
 15 16  1  0
 16 17  1  0
 17 18  2  0
 18 19  1  0
 19 20  2  0
 20 21  1  0
 21 22  2  0
 22 23  1  0
 23 24  2  0
 24 25  1  0
 25 26  2  0
  6 27  1  0
 27 28  1  0
 28 29  1  0
 27 30  2  0
 30  3  1  0
 25 16  1  0
 24 19  1  0
  1 31  1  0
  1 32  1  0
  1 33  1  0
  4 34  1  0
  5 35  1  0
  7 36  1  0
 10 37  1  0
 10 38  1  0
 11 39  1  0
 11 40  1  0
 15 41  1  0
 15 42  1  0
 17 43  1  0
 18 44  1  0
 20 45  1  0
 21 46  1  0
 22 47  1  0
 23 48  1  0
 29 49  1  0
 29 50  1  0
 29 51  1  0
 30 52  1  0
M  CHG  1  12  -1
M  END
>  <UniqueID>  (50) 
47

>  <SMILES>  (50) 
COc1ccc(NC(=O)CC[N-]C(=O)Cn2ccc3ccccc3c2=O)c(OC)c1

>  <Energy>  (50) 
59.274567114186084

>  <Genealogy>  (50) 
COc1ccc(NC(=O)CC[N-]C(=O)Cn2ccc3ccccc3c2=O)c(OC)c1 (protonated)
COc1ccc(NC(=O)CC[N-]C(=O)Cn2ccc3ccccc3c2=O)c(OC)c1 (3D coordinates assigned)
COc1ccc(NC(=O)CC[N-]C(=O)Cn2ccc3ccccc3c2=O)c(OC)c1 (optimized conformer: 59.274567114186084 kcal/mol)

>  <smiles>  (50) 
COc1ccc(NC(=O)CCNC(=O)Cn2ccc3ccccc3c2=O)c(OC)c1

>  <score_type>  (50) 
oracle

>  <origin>  (50) 
adg

>  <m_score__min__energy>  (50) 
-9.5

>  <m_primary>  (50) 
energy

$$$$
50:0
     RDKit          3D

 76 78  0  0  0  0  0  0  0  0999 V2000
   56.9226   31.1098   45.4975 H   0  0  0  0  0  0  0  0  0  0  0  0
   59.8360   28.2690   47.2240 C   0  0  0  0  0  0  0  0  0  0  0  0
   58.8170   32.2490   45.2330 C   0  0  0  0  0  0  0  0  0  0  0  0
   59.7127   31.9262   44.6821 H   0  0  0  0  0  0  0  0  0  0  0  0
   58.5780   33.5990   45.3220 C   0  0  0  0  0  0  0  0  0  0  0  0
   59.3790   29.2530   46.3550 C   0  0  0  0  0  0  0  0  0  0  0  0
   60.2401   34.9349   44.6934 H   0  0  0  0  0  0  0  0  0  0  0  0
   59.7550   34.4750   45.5670 C   0  0  0  0  0  0  0  0  0  0  0  0
   58.2268   30.5230   47.8030 H   0  0  0  0  0  0  0  0  0  0  0  0
   57.9710   31.2100   45.8150 C   0  0  0  0  0  0  0  0  0  0  0  0
   60.0985   35.7272   47.2288 H   0  0  0  0  0  0  0  0  0  0  0  0
   58.4800   30.3740   46.7430 C   0  0  0  0  0  0  0  0  0  0  0  0
   60.2630   34.7420   46.7680 C   0  0  0  0  0  0  0  0  0  0  0  0
   59.7080   28.4290   48.7120 C   0  0  0  0  0  0  0  0  0  0  0  0
   60.5790   27.9310   49.4830 O   0  0  0  0  0  0  0  0  0  0  0  0
   58.5300   29.0170   49.3120 N   0  0  0  0  0  0  0  0  0  0  0  0
   58.5390   29.7300   50.3960 C   0  0  0  0  0  0  0  0  0  0  0  0
   57.4610   30.4380   50.8440 N   0  0  0  0  0  0  0  0  0  0  0  0
   57.7700   31.1710   51.9440 C   0  0  0  0  0  0  0  0  0  0  0  0
   57.0241   31.7900   52.4641 H   0  0  0  0  0  0  0  0  0  0  0  0
   59.0960   31.0880   52.3720 C   0  0  0  0  0  0  0  0  0  0  0  0
   59.7110   31.8740   53.4810 C   0  0  0  0  0  0  0  0  0  0  0  0
   58.9946   32.6347   53.8248 H   0  0  0  0  0  0  0  0  0  0  0  0
   59.9633   31.1878   54.3029 H   0  0  0  0  0  0  0  0  0  0  0  0
   60.9710   32.5560   53.0160 C   0  0  0  0  0  0  0  0  0  0  0  0
   60.9760   33.8110   52.8990 O   0  0  0  0  0  0  0  0  0  0  0  0
   62.1600   31.7910   52.7470 N   0  0  0  0  0  0  0  0  0  0  0  0
   62.0470   30.7500   52.7860 H   0  0  0  0  0  0  0  0  0  0  0  0
   63.2770   32.2820   51.9890 C   0  0  0  0  0  0  0  0  0  0  0  0
   63.5480   33.6650   51.9820 C   0  0  0  0  0  0  0  0  0  0  0  0
   62.9105   34.3467   52.5641 H   0  0  0  0  0  0  0  0  0  0  0  0
   64.6160   34.1800   51.2450 C   0  0  0  0  0  0  0  0  0  0  0  0
   64.8442   35.2555   51.2791 H   0  0  0  0  0  0  0  0  0  0  0  0
   65.3950   33.3190   50.4620 C   0  0  0  0  0  0  0  0  0  0  0  0
   66.2297   33.7225   49.8700 H   0  0  0  0  0  0  0  0  0  0  0  0
   65.1170   31.9490   50.4290 C   0  0  0  0  0  0  0  0  0  0  0  0
   65.7397   31.2791   49.8179 H   0  0  0  0  0  0  0  0  0  0  0  0
   64.0540   31.4270   51.1670 C   0  0  0  0  0  0  0  0  0  0  0  0
   63.7550   30.1140   51.0220 F   0  0  0  0  0  0  0  0  0  0  0  0
   59.8810   29.9760   51.3900 S   0  0  0  0  0  0  0  0  0  0  0  0
   60.4180   26.9740   46.6660 C   0  0  0  0  0  0  0  0  0  0  0  0
   60.7134   26.3167   47.4971 H   0  0  0  0  0  0  0  0  0  0  0  0
   59.6609   26.4676   46.0493 H   0  0  0  0  0  0  0  0  0  0  0  0
   61.2994   27.2039   46.0493 H   0  0  0  0  0  0  0  0  0  0  0  0
   59.6840   29.2000   44.8650 C   0  0  0  0  0  0  0  0  0  0  0  0
   60.7579   29.0134   44.7170 H   0  0  0  0  0  0  0  0  0  0  0  0
   59.1035   28.3893   44.4005 H   0  0  0  0  0  0  0  0  0  0  0  0
   59.4110   30.1590   44.4005 H   0  0  0  0  0  0  0  0  0  0  0  0
   57.1830   34.1770   45.2780 C   0  0  0  0  0  0  0  0  0  0  0  0
   56.8165   34.3289   46.3040 H   0  0  0  0  0  0  0  0  0  0  0  0
   57.2021   35.1413   44.7490 H   0  0  0  0  0  0  0  0  0  0  0  0
   56.5146   33.4818   44.7490 H   0  0  0  0  0  0  0  0  0  0  0  0
   61.0630   33.6940   47.4950 C   0  0  0  0  0  0  0  0  0  0  0  0
   62.3810   33.4460   47.2000 C   0  0  0  0  0  0  0  0  0  0  0  0
   63.1390   34.0770   46.0460 C   0  0  0  0  0  0  0  0  0  0  0  0
   63.9280   34.7338   46.4411 H   0  0  0  0  0  0  0  0  0  0  0  0
   63.5937   33.2869   45.4304 H   0  0  0  0  0  0  0  0  0  0  0  0
   62.4445   34.6675   45.4304 H   0  0  0  0  0  0  0  0  0  0  0  0
   63.1270   32.4040   48.0000 C   0  0  0  0  0  0  0  0  0  0  0  0
   64.0483   32.1236   47.4684 H   0  0  0  0  0  0  0  0  0  0  0  0
   63.3845   32.8143   48.9876 H   0  0  0  0  0  0  0  0  0  0  0  0
   62.2500   31.1780   48.1740 C   0  0  0  0  0  0  0  0  0  0  0  0
   62.0387   30.7484   47.1837 H   0  0  0  0  0  0  0  0  0  0  0  0
   62.7889   30.4607   48.8105 H   0  0  0  0  0  0  0  0  0  0  0  0
   60.9150   31.5200   48.8640 C   0  0  0  0  0  0  0  0  0  0  0  0
   60.1408   30.8591   48.4470 H   0  0  0  0  0  0  0  0  0  0  0  0
   61.0913   31.3799   49.9407 H   0  0  0  0  0  0  0  0  0  0  0  0
   60.4190   33.0080   48.7020 C   0  0  0  0  0  0  0  0  0  0  0  0
   60.7490   33.8600   49.9520 C   0  0  0  0  0  0  0  0  0  0  0  0
   60.5247   33.2810   50.8600 H   0  0  0  0  0  0  0  0  0  0  0  0
   61.8159   34.1278   49.9420 H   0  0  0  0  0  0  0  0  0  0  0  0
   60.1408   34.7765   49.9420 H   0  0  0  0  0  0  0  0  0  0  0  0
   58.8630   32.9530   48.5640 C   0  0  0  0  0  0  0  0  0  0  0  0
   58.4065   32.9369   49.5647 H   0  0  0  0  0  0  0  0  0  0  0  0
   58.5120   33.8393   48.0151 H   0  0  0  0  0  0  0  0  0  0  0  0
   58.5755   32.0441   48.0151 H   0  0  0  0  0  0  0  0  0  0  0  0
  1  2  1  0
  2  3  2  0
  3  4  1  0
  3  5  1  0
  5  6  2  0
  6  7  1  0
  6  8  1  0
  8  9  1  0
  8 10  2  0
 10 11  1  0
 10 12  1  0
 12 13  2  3
 13 14  1  0
 14 15  2  0
 14 16  1  0
 16 17  2  3
 17 18  1  0
 18 19  1  0
 19 20  1  0
 19 21  2  0
 21 22  1  0
 22 23  1  0
 22 24  1  0
 22 25  1  0
 25 26  2  0
 25 27  1  0
 27 28  1  0
 27 29  1  0
 29 30  2  0
 30 31  1  0
 30 32  1  0
 32 33  1  0
 32 34  2  0
 34 35  1  0
 34 36  1  0
 36 37  1  0
 36 38  2  0
 38 39  1  0
 21 40  1  0
 13 41  1  0
 41 42  1  0
 41 43  1  0
 41 44  1  0
 12 45  1  0
 45 46  1  0
 45 47  1  0
 45 48  1  0
  5 49  1  0
 49 50  1  0
 49 51  1  0
 49 52  1  0
  2 53  1  0
 53 54  2  0
 54 55  1  0
 55 56  1  0
 55 57  1  0
 55 58  1  0
 54 59  1  0
 59 60  1  0
 59 61  1  0
 59 62  1  0
 62 63  1  0
 62 64  1  0
 62 65  1  0
 65 66  1  0
 65 67  1  0
 65 68  1  0
 68 69  1  0
 69 70  1  0
 69 71  1  0
 69 72  1  0
 68 73  1  0
 73 74  1  0
 73 75  1  0
 73 76  1  0
 40 17  1  0
 68 53  1  0
 38 29  1  0
M  CHG  1  18  -1
M  END
>  <UniqueID>  (51) 
48

>  <SMILES>  (51) 
CC(/C=C\C=C(/C)C=CC1=C(C)CCCC1(C)C)=C(C)C(=O)N=c1[n-]cc(CC(=O)Nc2ccccc2F)s1

>  <Energy>  (51) 
159.56511721960086

>  <Genealogy>  (51) 
CC(C=CC1=C(C)CCCC1(C)C)=CC=CC(C)=C(C)C(=O)N=c1[n-]cc(CC(=O)Nc2ccccc2F)s1 (protonated)
CC(/C=C\C=C(/C)C=CC1=C(C)CCCC1(C)C)=C(C)C(=O)N=c1[n-]cc(CC(=O)Nc2ccccc2F)s1 (cis-trans isomerization)
CC(/C=C\C=C(/C)C=CC1=C(C)CCCC1(C)C)=C(C)C(=O)N=c1[n-]cc(CC(=O)Nc2ccccc2F)s1 (3D coordinates assigned)
CC(/C=C\C=C(/C)C=CC1=C(C)CCCC1(C)C)=C(C)C(=O)N=c1[n-]cc(CC(=O)Nc2ccccc2F)s1 (nonaromatic ring conformer: 159.56511721960086 kcal/mol)

>  <smiles>  (51) 
CC(C=CC1=C(C)CCCC1(C)C)=CC=CC(C)=C(C)C(=O)N=c1[nH]cc(CC(=O)Nc2ccccc2F)s1

>  <score_type>  (51) 
oracle

>  <origin>  (51) 
adg

>  <m_score__min__energy>  (51) 
-11.5

>  <m_primary>  (51) 
energy

$$$$
51:0
     RDKit          3D

 47 48  0  0  0  0  0  0  0  0999 V2000
   58.4870   27.2670   47.5510 C   0  0  0  0  0  0  0  0  0  0  0  0
   58.5860   26.3370   46.3430 C   0  0  0  0  0  0  0  0  0  0  0  0
   57.4110   26.5110   45.4600 N   0  0  0  0  0  0  0  0  0  0  0  0
   56.7730   25.2060   45.1500 C   0  0  0  0  0  0  0  0  0  0  0  0
   55.4110   25.1440   45.7670 C   0  0  0  0  0  0  0  0  0  0  0  0
   54.6690   26.3410   45.9870 N   0  0  0  0  0  0  0  0  0  0  0  0
   54.9140   24.0300   46.0840 O   0  0  0  0  0  0  0  0  0  0  0  0
   57.7950   27.2380   44.2280 C   0  0  0  0  0  0  0  0  0  0  0  0
   57.7210   28.7310   44.4270 C   0  0  0  0  0  0  0  0  0  0  0  0
   56.6100   29.4570   43.9730 C   0  0  0  0  0  0  0  0  0  0  0  0
   56.5340   30.8340   44.1930 C   0  0  0  0  0  0  0  0  0  0  0  0
   57.5600   31.4960   44.8700 C   0  0  0  0  0  0  0  0  0  0  0  0
   58.6840   30.7850   45.3310 C   0  0  0  0  0  0  0  0  0  0  0  0
   59.7700   31.4850   46.0620 C   0  0  0  0  0  0  0  0  0  0  0  0
   59.8390   32.8900   46.0670 C   0  0  0  0  0  0  0  0  0  0  0  0
   60.8590   33.5480   46.7620 C   0  0  0  0  0  0  0  0  0  0  0  0
   61.8280   32.8130   47.4560 C   0  0  0  0  0  0  0  0  0  0  0  0
   63.1050   33.6330   48.3530 S   0  0  0  0  0  0  0  0  0  0  0  0
   63.7890   34.6140   47.4430 O   0  0  0  0  0  0  0  0  0  0  0  0
   62.5150   34.3910   49.5110 O   0  0  0  0  0  0  0  0  0  0  0  0
   64.2710   32.4860   48.9360 N   0  0  0  0  0  0  0  0  0  0  0  0
   63.6790   31.6750   49.9960 C   0  0  0  0  0  0  0  0  0  0  0  0
   61.7640   31.4140   47.4600 C   0  0  0  0  0  0  0  0  0  0  0  0
   60.7440   30.7540   46.7670 C   0  0  0  0  0  0  0  0  0  0  0  0
   58.7570   29.4000   45.0990 C   0  0  0  0  0  0  0  0  0  0  0  0
   58.5500   26.6748   48.4758 H   0  0  0  0  0  0  0  0  0  0  0  0
   59.3129   27.9930   47.5235 H   0  0  0  0  0  0  0  0  0  0  0  0
   57.5267   27.8029   47.5235 H   0  0  0  0  0  0  0  0  0  0  0  0
   59.5009   26.5714   45.7792 H   0  0  0  0  0  0  0  0  0  0  0  0
   58.6158   25.2956   46.6960 H   0  0  0  0  0  0  0  0  0  0  0  0
   56.6845   25.0935   44.0594 H   0  0  0  0  0  0  0  0  0  0  0  0
   57.3926   24.3944   45.5592 H   0  0  0  0  0  0  0  0  0  0  0  0
   55.1480   27.2680   46.0270 H   0  0  0  0  0  0  0  0  0  0  0  0
   58.8249   26.9634   43.9562 H   0  0  0  0  0  0  0  0  0  0  0  0
   57.0937   26.9593   43.4277 H   0  0  0  0  0  0  0  0  0  0  0  0
   55.7966   28.9405   43.4424 H   0  0  0  0  0  0  0  0  0  0  0  0
   55.6623   31.3993   43.8315 H   0  0  0  0  0  0  0  0  0  0  0  0
   57.4896   32.5798   45.0442 H   0  0  0  0  0  0  0  0  0  0  0  0
   59.0852   33.4755   45.5203 H   0  0  0  0  0  0  0  0  0  0  0  0
   60.9001   34.6472   46.7634 H   0  0  0  0  0  0  0  0  0  0  0  0
   64.5030   31.8490   48.1390 H   0  0  0  0  0  0  0  0  0  0  0  0
   63.9743   32.0795   50.9754 H   0  0  0  0  0  0  0  0  0  0  0  0
   62.5829   31.6968   49.9056 H   0  0  0  0  0  0  0  0  0  0  0  0
   64.0338   30.6377   49.9056 H   0  0  0  0  0  0  0  0  0  0  0  0
   62.5184   30.8323   48.0100 H   0  0  0  0  0  0  0  0  0  0  0  0
   60.7029   29.6548   46.7731 H   0  0  0  0  0  0  0  0  0  0  0  0
   59.6342   28.8350   45.4473 H   0  0  0  0  0  0  0  0  0  0  0  0
  1  2  1  0
  2  3  1  0
  3  4  1  0
  4  5  1  0
  5  6  1  0
  5  7  2  0
  3  8  1  0
  8  9  1  0
  9 10  2  0
 10 11  1  0
 11 12  2  0
 12 13  1  0
 13 14  1  0
 14 15  2  0
 15 16  1  0
 16 17  2  0
 17 18  1  0
 18 19  2  0
 18 20  2  0
 18 21  1  0
 21 22  1  0
 17 23  1  0
 23 24  2  0
 13 25  2  0
 25  9  1  0
 24 14  1  0
  1 26  1  0
  1 27  1  0
  1 28  1  0
  2 29  1  0
  2 30  1  0
  4 31  1  0
  4 32  1  0
  6 33  1  0
  8 34  1  0
  8 35  1  0
 10 36  1  0
 11 37  1  0
 12 38  1  0
 15 39  1  0
 16 40  1  0
 21 41  1  0
 22 42  1  0
 22 43  1  0
 22 44  1  0
 23 45  1  0
 24 46  1  0
 25 47  1  0
M  CHG  1   6  -1
M  END
>  <UniqueID>  (52) 
49

>  <SMILES>  (52) 
CCN(CC([NH-])=O)Cc1cccc(-c2ccc(S(=O)(=O)NC)cc2)c1

>  <Energy>  (52) 
47.82715453496351

>  <Genealogy>  (52) 
CCN(CC([NH-])=O)Cc1cccc(-c2ccc(S(=O)(=O)NC)cc2)c1 (protonated)
CCN(CC([NH-])=O)Cc1cccc(-c2ccc(S(=O)(=O)NC)cc2)c1 (3D coordinates assigned)
CCN(CC([NH-])=O)Cc1cccc(-c2ccc(S(=O)(=O)NC)cc2)c1 (optimized conformer: 47.82715453496351 kcal/mol)

>  <smiles>  (52) 
CCN(CC(N)=O)Cc1cccc(-c2ccc(S(=O)(=O)NC)cc2)c1

>  <score_type>  (52) 
oracle

>  <origin>  (52) 
adg

>  <m_score__min__energy>  (52) 
-11.59

>  <m_primary>  (52) 
energy

$$$$
52:0
     RDKit          3D

 32 33  0  0  0  0  0  0  0  0999 V2000
   58.5750   33.8330   45.2400 O   0  0  0  0  0  0  0  0  0  0  0  0
   58.3380   32.8610   46.0110 C   0  0  0  0  0  0  0  0  0  0  0  0
   58.5340   33.0280   47.5000 C   0  0  0  0  0  0  0  0  0  0  0  0
   59.3810   34.2520   47.8630 C   0  0  0  0  0  0  0  0  0  0  0  0
   60.7830   34.0060   47.5350 N   0  0  0  0  0  0  0  0  0  0  0  0
   61.7880   33.8470   48.4150 C   0  0  0  0  0  0  0  0  0  0  0  0
   62.9690   33.7140   47.7100 C   0  0  0  0  0  0  0  0  0  0  0  0
   62.6040   33.8130   46.3790 C   0  0  0  0  0  0  0  0  0  0  0  0
   61.2740   33.9960   46.3070 N   0  0  0  0  0  0  0  0  0  0  0  0
   57.9090   31.5980   45.4550 N   0  0  0  0  0  0  0  0  0  0  0  0
   57.6080   31.4960   44.0170 C   0  0  0  0  0  0  0  0  0  0  0  0
   56.4910   30.4680   43.7220 C   0  0  0  0  0  0  0  0  0  0  0  0
   56.2870   29.4800   44.7960 N   0  0  0  0  0  0  0  0  0  0  0  0
   57.5410   29.1510   45.4750 C   0  0  0  0  0  0  0  0  0  0  0  0
   58.0040   30.3720   46.2660 C   0  0  0  0  0  0  0  0  0  0  0  0
   57.5465   33.1332   47.9731 H   0  0  0  0  0  0  0  0  0  0  0  0
   59.0721   32.1391   47.8609 H   0  0  0  0  0  0  0  0  0  0  0  0
   59.0222   35.1240   47.2965 H   0  0  0  0  0  0  0  0  0  0  0  0
   59.2917   34.4450   48.9423 H   0  0  0  0  0  0  0  0  0  0  0  0
   61.6868   33.8264   49.5101 H   0  0  0  0  0  0  0  0  0  0  0  0
   63.9792   33.5624   48.1180 H   0  0  0  0  0  0  0  0  0  0  0  0
   63.2894   33.7520   45.5208 H   0  0  0  0  0  0  0  0  0  0  0  0
   60.7140   34.1230   45.4350 H   0  0  0  0  0  0  0  0  0  0  0  0
   57.2860   32.4825   43.6523 H   0  0  0  0  0  0  0  0  0  0  0  0
   58.5209   31.1566   43.5056 H   0  0  0  0  0  0  0  0  0  0  0  0
   55.5485   31.0149   43.5715 H   0  0  0  0  0  0  0  0  0  0  0  0
   56.8025   29.9071   42.8285 H   0  0  0  0  0  0  0  0  0  0  0  0
   55.9080   28.6030   44.3690 H   0  0  0  0  0  0  0  0  0  0  0  0
   57.3803   28.3053   46.1599 H   0  0  0  0  0  0  0  0  0  0  0  0
   58.3057   28.8714   44.7353 H   0  0  0  0  0  0  0  0  0  0  0  0
   57.3713   30.4823   47.1590 H   0  0  0  0  0  0  0  0  0  0  0  0
   59.0557   30.2238   46.5524 H   0  0  0  0  0  0  0  0  0  0  0  0
  1  2  2  0
  2  3  1  0
  3  4  1  0
  4  5  1  0
  5  6  1  0
  6  7  2  0
  7  8  1  0
  8  9  2  0
  2 10  1  0
 10 11  1  0
 11 12  1  0
 12 13  1  0
 13 14  1  0
 14 15  1  0
  9  5  1  0
 15 10  1  0
  3 16  1  0
  3 17  1  0
  4 18  1  0
  4 19  1  0
  6 20  1  0
  7 21  1  0
  8 22  1  0
  9 23  1  0
 11 24  1  0
 11 25  1  0
 12 26  1  0
 12 27  1  0
 13 28  1  0
 14 29  1  0
 14 30  1  0
 15 31  1  0
 15 32  1  0
M  CHG  1   9   1
M  END
>  <UniqueID>  (53) 
50

>  <SMILES>  (53) 
O=C(CCn1ccc[nH+]1)N1CCNCC1

>  <Energy>  (53) 
62.04494604711431

>  <Genealogy>  (53) 
O=C(CCn1ccc[nH+]1)N1CCNCC1 (protonated)
O=C(CCn1ccc[nH+]1)N1CCNCC1 (3D coordinates assigned)
O=C(CCn1ccc[nH+]1)N1CCNCC1 (nonaromatic ring conformer: 62.04494604711431 kcal/mol)

>  <smiles>  (53) 
O=C(CCn1cccn1)N1CCNCC1

>  <score_type>  (53) 
oracle

>  <origin>  (53) 
adg

>  <m_score__min__energy>  (53) 
-4.0099999999999998

>  <m_primary>  (53) 
energy

$$$$
53:0
     RDKit          3D

 34 35  0  0  0  0  0  0  0  0999 V2000
   56.6550   29.3300   42.6420 N   0  0  0  0  0  0  0  0  0  0  0  0
   56.5300   29.8020   44.3010 S   0  0  0  0  0  0  0  0  0  0  0  0
   56.5670   31.3010   44.3990 O   0  0  0  0  0  0  0  0  0  0  0  0
   55.2260   29.3140   44.8700 O   0  0  0  0  0  0  0  0  0  0  0  0
   57.8680   29.1080   45.2100 C   0  0  0  0  0  0  0  0  0  0  0  0
   58.3710   27.8420   44.8740 C   0  0  0  0  0  0  0  0  0  0  0  0
   59.4280   27.2930   45.6040 C   0  0  0  0  0  0  0  0  0  0  0  0
   59.9860   27.9980   46.6730 C   0  0  0  0  0  0  0  0  0  0  0  0
   59.4840   29.2610   47.0190 C   0  0  0  0  0  0  0  0  0  0  0  0
   60.1820   30.1740   48.3560 S   0  0  0  0  0  0  0  0  0  0  0  0
   60.4990   29.2200   49.4730 O   0  0  0  0  0  0  0  0  0  0  0  0
   61.4590   30.8400   47.9220 O   0  0  0  0  0  0  0  0  0  0  0  0
   59.0720   31.3810   48.9420 N   0  0  0  0  0  0  0  0  0  0  0  0
   59.5730   32.7380   48.7120 C   0  0  0  0  0  0  0  0  0  0  0  0
   59.1220   33.2740   47.3750 C   0  0  0  0  0  0  0  0  0  0  0  0
   57.7510   33.2780   47.0580 C   0  0  0  0  0  0  0  0  0  0  0  0
   57.3110   33.7510   45.8190 C   0  0  0  0  0  0  0  0  0  0  0  0
   58.2330   34.2290   44.8860 C   0  0  0  0  0  0  0  0  0  0  0  0
   59.5960   34.2360   45.1890 C   0  0  0  0  0  0  0  0  0  0  0  0
   60.0480   33.7630   46.4270 C   0  0  0  0  0  0  0  0  0  0  0  0
   61.7760   33.8000   46.7570 Cl  0  0  0  0  0  0  0  0  0  0  0  0
   58.4230   29.8100   46.2870 C   0  0  0  0  0  0  0  0  0  0  0  0
   56.6120   28.2860   42.6180 H   0  0  0  0  0  0  0  0  0  0  0  0
   57.6110   29.6010   42.3200 H   0  0  0  0  0  0  0  0  0  0  0  0
   57.9327   27.2814   44.0352 H   0  0  0  0  0  0  0  0  0  0  0  0
   59.8224   26.3017   45.3360 H   0  0  0  0  0  0  0  0  0  0  0  0
   60.8194   27.5624   47.2436 H   0  0  0  0  0  0  0  0  0  0  0  0
   59.1962   33.3979   49.5074 H   0  0  0  0  0  0  0  0  0  0  0  0
   60.6725   32.7061   48.7184 H   0  0  0  0  0  0  0  0  0  0  0  0
   57.0201   32.9060   47.7911 H   0  0  0  0  0  0  0  0  0  0  0  0
   56.2376   33.7467   45.5786 H   0  0  0  0  0  0  0  0  0  0  0  0
   57.8852   34.6006   43.9108 H   0  0  0  0  0  0  0  0  0  0  0  0
   60.3185   34.6151   44.4513 H   0  0  0  0  0  0  0  0  0  0  0  0
   58.0237   30.7980   46.5599 H   0  0  0  0  0  0  0  0  0  0  0  0
  1  2  1  0
  2  3  2  0
  2  4  2  0
  2  5  1  0
  5  6  2  0
  6  7  1  0
  7  8  2  0
  8  9  1  0
  9 10  1  0
 10 11  2  0
 10 12  2  0
 10 13  1  0
 13 14  1  0
 14 15  1  0
 15 16  2  0
 16 17  1  0
 17 18  2  0
 18 19  1  0
 19 20  2  0
 20 21  1  0
  9 22  2  0
 22  5  1  0
 20 15  1  0
  1 23  1  0
  1 24  1  0
  6 25  1  0
  7 26  1  0
  8 27  1  0
 14 28  1  0
 14 29  1  0
 16 30  1  0
 17 31  1  0
 18 32  1  0
 19 33  1  0
 22 34  1  0
M  CHG  1  13  -1
M  END
>  <UniqueID>  (54) 
51

>  <SMILES>  (54) 
NS(=O)(=O)c1cccc(S(=O)(=O)[N-]Cc2ccccc2Cl)c1

>  <Energy>  (54) 
32.567410676658085

>  <Genealogy>  (54) 
NS(=O)(=O)c1cccc(S(=O)(=O)[N-]Cc2ccccc2Cl)c1 (protonated)
NS(=O)(=O)c1cccc(S(=O)(=O)[N-]Cc2ccccc2Cl)c1 (3D coordinates assigned)
NS(=O)(=O)c1cccc(S(=O)(=O)[N-]Cc2ccccc2Cl)c1 (optimized conformer: 32.567410676658085 kcal/mol)

>  <smiles>  (54) 
NS(=O)(=O)c1cccc(S(=O)(=O)NCc2ccccc2Cl)c1

>  <score_type>  (54) 
oracle

>  <origin>  (54) 
adg

>  <m_score__min__energy>  (54) 
-9.9600000000000009

>  <m_primary>  (54) 
energy

$$$$
54:0
     RDKit          3D

 46 48  0  0  0  0  0  0  0  0999 V2000
   54.7770   26.3360   45.9770 N   0  0  0  0  0  0  0  0  0  0  0  0
   56.3830   25.7090   46.0810 S   0  0  0  0  0  0  0  0  0  0  0  0
   56.5410   24.5630   45.1200 O   0  0  0  0  0  0  0  0  0  0  0  0
   56.6310   25.2060   47.4750 O   0  0  0  0  0  0  0  0  0  0  0  0
   57.5360   26.9770   45.6820 C   0  0  0  0  0  0  0  0  0  0  0  0
   57.8690   27.2390   44.3480 C   0  0  0  0  0  0  0  0  0  0  0  0
   58.7880   28.2430   44.0400 C   0  0  0  0  0  0  0  0  0  0  0  0
   59.3830   28.9900   45.0590 C   0  0  0  0  0  0  0  0  0  0  0  0
   59.0630   28.7380   46.4080 C   0  0  0  0  0  0  0  0  0  0  0  0
   59.6880   29.5140   47.5100 C   0  0  0  0  0  0  0  0  0  0  0  0
   59.1080   29.6970   48.7710 C   0  0  0  0  0  0  0  0  0  0  0  0
   60.1670   30.6090   49.7090 S   0  0  0  0  0  0  0  0  0  0  0  0
   61.3080   30.7480   48.4750 C   0  0  0  0  0  0  0  0  0  0  0  0
   62.4670   31.3340   48.5540 N   0  0  0  0  0  0  0  0  0  0  0  0
   62.7460   32.7250   48.3360 C   0  0  0  0  0  0  0  0  0  0  0  0
   63.5490   33.0420   47.4190 O   0  0  0  0  0  0  0  0  0  0  0  0
   62.0690   33.8110   49.1360 C   0  0  0  0  0  0  0  0  0  0  0  0
   61.0070   34.5700   48.3210 C   0  0  0  0  0  0  0  0  0  0  0  0
   59.6770   33.8550   48.2410 C   0  0  0  0  0  0  0  0  0  0  0  0
   59.1220   33.4530   49.3040 O   0  0  0  0  0  0  0  0  0  0  0  0
   59.0110   33.6550   46.9750 N   0  0  0  0  0  0  0  0  0  0  0  0
   59.1810   34.6240   45.8810 C   0  0  0  0  0  0  0  0  0  0  0  0
   58.8660   33.9610   44.5330 C   0  0  0  0  0  0  0  0  0  0  0  0
   57.6060   33.3210   44.5670 O   0  0  0  0  0  0  0  0  0  0  0  0
   57.6490   32.2450   45.4840 C   0  0  0  0  0  0  0  0  0  0  0  0
   57.8520   32.7580   46.9150 C   0  0  0  0  0  0  0  0  0  0  0  0
   60.9130   30.0940   47.3630 N   0  0  0  0  0  0  0  0  0  0  0  0
   58.1400   27.7190   46.7060 C   0  0  0  0  0  0  0  0  0  0  0  0
   54.6980   27.0910   46.6950 H   0  0  0  0  0  0  0  0  0  0  0  0
   57.4055   26.6525   43.5410 H   0  0  0  0  0  0  0  0  0  0  0  0
   59.0449   28.4469   42.9900 H   0  0  0  0  0  0  0  0  0  0  0  0
   60.1059   29.7799   44.8070 H   0  0  0  0  0  0  0  0  0  0  0  0
   58.1294   29.3114   49.0931 H   0  0  0  0  0  0  0  0  0  0  0  0
   61.5822   33.3536   50.0100 H   0  0  0  0  0  0  0  0  0  0  0  0
   62.8408   34.5355   49.4351 H   0  0  0  0  0  0  0  0  0  0  0  0
   60.8458   35.5520   48.7897 H   0  0  0  0  0  0  0  0  0  0  0  0
   61.3896   34.6535   47.2931 H   0  0  0  0  0  0  0  0  0  0  0  0
   58.4982   35.4722   46.0373 H   0  0  0  0  0  0  0  0  0  0  0  0
   60.2226   34.9775   45.8728 H   0  0  0  0  0  0  0  0  0  0  0  0
   58.8580   34.7302   43.7467 H   0  0  0  0  0  0  0  0  0  0  0  0
   59.6380   33.2057   44.3243 H   0  0  0  0  0  0  0  0  0  0  0  0
   56.7019   31.6880   45.4313 H   0  0  0  0  0  0  0  0  0  0  0  0
   58.4928   31.5903   45.2207 H   0  0  0  0  0  0  0  0  0  0  0  0
   56.9530   33.3049   47.2353 H   0  0  0  0  0  0  0  0  0  0  0  0
   58.0287   31.9003   47.5807 H   0  0  0  0  0  0  0  0  0  0  0  0
   57.8895   27.5021   47.7549 H   0  0  0  0  0  0  0  0  0  0  0  0
  1  2  1  0
  2  3  2  0
  2  4  2  0
  2  5  1  0
  5  6  2  0
  6  7  1  0
  7  8  2  0
  8  9  1  0
  9 10  1  0
 10 11  2  0
 11 12  1  0
 12 13  1  0
 13 14  2  3
 14 15  1  0
 15 16  2  0
 15 17  1  0
 17 18  1  0
 18 19  1  0
 19 20  2  0
 19 21  1  0
 21 22  1  0
 22 23  1  0
 23 24  1  0
 24 25  1  0
 25 26  1  0
 13 27  1  0
  9 28  2  0
 28  5  1  0
 27 10  1  0
 26 21  1  0
  1 29  1  0
  6 30  1  0
  7 31  1  0
  8 32  1  0
 11 33  1  0
 17 34  1  0
 17 35  1  0
 18 36  1  0
 18 37  1  0
 22 38  1  0
 22 39  1  0
 23 40  1  0
 23 41  1  0
 25 42  1  0
 25 43  1  0
 26 44  1  0
 26 45  1  0
 28 46  1  0
M  CHG  2   1  -1  27  -1
M  END
>  <UniqueID>  (55) 
52

>  <SMILES>  (55) 
[NH-]S(=O)(=O)c1cccc(-c2csc(=NC(=O)CCC(=O)N3CCOCC3)[n-]2)c1

>  <Energy>  (55) 
86.90514068766379

>  <Genealogy>  (55) 
[NH-]S(=O)(=O)c1cccc(-c2csc(=NC(=O)CCC(=O)N3CCOCC3)[n-]2)c1 (protonated)
[NH-]S(=O)(=O)c1cccc(-c2csc(=NC(=O)CCC(=O)N3CCOCC3)[n-]2)c1 (3D coordinates assigned)
[NH-]S(=O)(=O)c1cccc(-c2csc(=NC(=O)CCC(=O)N3CCOCC3)[n-]2)c1 (nonaromatic ring conformer: 86.90514068766379 kcal/mol)

>  <smiles>  (55) 
NS(=O)(=O)c1cccc(-c2csc(=NC(=O)CCC(=O)N3CCOCC3)[nH]2)c1

>  <score_type>  (55) 
oracle

>  <origin>  (55) 
adg

>  <m_score__min__energy>  (55) 
-12.33

>  <m_primary>  (55) 
energy

$$$$
55:0
     RDKit          3D

 55 58  0  0  0  0  0  0  0  0999 V2000
   64.2836   34.4478   47.1929 H   0  0  0  0  0  0  0  0  0  0  0  0
   63.5510   33.6400   47.3370 C   0  0  0  0  0  0  0  0  0  0  0  0
   62.3760   33.6200   46.5830 C   0  0  0  0  0  0  0  0  0  0  0  0
   62.1804   34.4169   45.8504 H   0  0  0  0  0  0  0  0  0  0  0  0
   61.4480   32.5900   46.7570 C   0  0  0  0  0  0  0  0  0  0  0  0
   60.5179   32.5860   46.1698 H   0  0  0  0  0  0  0  0  0  0  0  0
   61.6980   31.5580   47.6800 C   0  0  0  0  0  0  0  0  0  0  0  0
   60.7180   30.4730   47.8930 C   0  0  0  0  0  0  0  0  0  0  0  0
   60.7080   29.3490   47.1520 N   0  0  0  0  0  0  0  0  0  0  0  0
   59.7550   28.5910   47.7290 C   0  0  0  0  0  0  0  0  0  0  0  0
   59.4600   27.4020   47.2940 N   0  0  0  0  0  0  0  0  0  0  0  0
   58.4040   27.1180   46.3230 C   0  0  0  0  0  0  0  0  0  0  0  0
   58.3170   26.0294   46.1915 H   0  0  0  0  0  0  0  0  0  0  0  0
   57.4567   27.5329   46.6977 H   0  0  0  0  0  0  0  0  0  0  0  0
   58.7270   27.7660   44.9680 C   0  0  0  0  0  0  0  0  0  0  0  0
   59.7527   28.1623   44.9973 H   0  0  0  0  0  0  0  0  0  0  0  0
   58.6244   26.9986   44.1866 H   0  0  0  0  0  0  0  0  0  0  0  0
   57.7630   28.9080   44.6460 C   0  0  0  0  0  0  0  0  0  0  0  0
   57.0791   28.5923   43.8443 H   0  0  0  0  0  0  0  0  0  0  0  0
   57.1879   29.1605   45.5490 H   0  0  0  0  0  0  0  0  0  0  0  0
   58.5120   30.0870   44.2080 N   0  0  0  0  0  0  0  0  0  0  0  0
   57.4460   31.4510   44.0760 S   0  0  0  0  0  0  0  0  0  0  0  0
   57.4050   31.9210   42.6470 O   0  0  0  0  0  0  0  0  0  0  0  0
   56.0610   31.0480   44.5000 O   0  0  0  0  0  0  0  0  0  0  0  0
   58.0230   32.7340   45.1360 C   0  0  0  0  0  0  0  0  0  0  0  0
   57.8160   32.6290   46.5190 C   0  0  0  0  0  0  0  0  0  0  0  0
   57.2677   31.7675   46.9278 H   0  0  0  0  0  0  0  0  0  0  0  0
   58.3050   33.6170   47.3800 C   0  0  0  0  0  0  0  0  0  0  0  0
   58.1393   33.5318   48.4641 H   0  0  0  0  0  0  0  0  0  0  0  0
   59.0050   34.7140   46.8640 C   0  0  0  0  0  0  0  0  0  0  0  0
   59.3929   35.4878   47.5429 H   0  0  0  0  0  0  0  0  0  0  0  0
   59.2110   34.8260   45.4860 C   0  0  0  0  0  0  0  0  0  0  0  0
   59.7572   35.6902   45.0801 H   0  0  0  0  0  0  0  0  0  0  0  0
   58.7220   33.8380   44.6220 C   0  0  0  0  0  0  0  0  0  0  0  0
   58.8860   33.9272   43.5380 H   0  0  0  0  0  0  0  0  0  0  0  0
   59.1510   29.1690   48.7890 N   0  0  0  0  0  0  0  0  0  0  0  0
   59.7550   30.3660   48.8900 C   0  0  0  0  0  0  0  0  0  0  0  0
   59.3510   31.3810   49.8870 C   0  0  0  0  0  0  0  0  0  0  0  0
   60.0810   32.5700   50.0490 C   0  0  0  0  0  0  0  0  0  0  0  0
   60.9789   32.7485   49.4392 H   0  0  0  0  0  0  0  0  0  0  0  0
   59.6720   33.5270   50.9810 C   0  0  0  0  0  0  0  0  0  0  0  0
   60.2525   34.4527   51.1078 H   0  0  0  0  0  0  0  0  0  0  0  0
   58.5280   33.3110   51.7520 C   0  0  0  0  0  0  0  0  0  0  0  0
   58.2074   34.0696   52.4812 H   0  0  0  0  0  0  0  0  0  0  0  0
   57.7860   32.1300   51.6000 C   0  0  0  0  0  0  0  0  0  0  0  0
   56.5340   31.9220   52.4010 C   0  0  0  0  0  0  0  0  0  0  0  0
   56.7742   31.9619   53.4737 H   0  0  0  0  0  0  0  0  0  0  0  0
   55.8079   32.7118   52.1582 H   0  0  0  0  0  0  0  0  0  0  0  0
   56.1023   30.9398   52.1582 H   0  0  0  0  0  0  0  0  0  0  0  0
   58.1890   31.1790   50.6500 C   0  0  0  0  0  0  0  0  0  0  0  0
   57.5903   30.2682   50.5017 H   0  0  0  0  0  0  0  0  0  0  0  0
   62.8710   31.5990   48.4510 C   0  0  0  0  0  0  0  0  0  0  0  0
   63.0632   30.8139   49.1971 H   0  0  0  0  0  0  0  0  0  0  0  0
   63.7960   32.6330   48.2750 C   0  0  0  0  0  0  0  0  0  0  0  0
   64.7175   32.6539   48.8754 H   0  0  0  0  0  0  0  0  0  0  0  0
  1  2  1  0
  2  3  2  0
  3  4  1  0
  3  5  1  0
  5  6  1  0
  5  7  2  0
  7  8  1  0
  8  9  1  0
  9 10  1  0
 10 11  2  0
 11 12  1  0
 12 13  1  0
 12 14  1  0
 12 15  1  0
 15 16  1  0
 15 17  1  0
 15 18  1  0
 18 19  1  0
 18 20  1  0
 18 21  1  0
 21 22  1  0
 22 23  2  0
 22 24  2  0
 22 25  1  0
 25 26  2  0
 26 27  1  0
 26 28  1  0
 28 29  1  0
 28 30  2  0
 30 31  1  0
 30 32  1  0
 32 33  1  0
 32 34  2  0
 34 35  1  0
 10 36  1  0
 36 37  1  0
 37 38  1  0
 38 39  2  0
 39 40  1  0
 39 41  1  0
 41 42  1  0
 41 43  2  0
 43 44  1  0
 43 45  1  0
 45 46  1  0
 46 47  1  0
 46 48  1  0
 46 49  1  0
 45 50  2  0
 50 51  1  0
  7 52  1  0
 52 53  1  0
 52 54  2  0
 54 55  1  0
 54  2  1  0
 37  8  2  0
 50 38  1  0
 34 25  1  0
M  CHG  3   9  -1  21  -1  36  -1
M  END
>  <UniqueID>  (56) 
53

>  <SMILES>  (56) 
Cc1cccc(-c2[n-]/c(=N\CCC[N-]S(=O)(=O)c3ccccc3)[n-]c2-c2ccccc2)c1

>  <Energy>  (56) 
87.94246286944431

>  <Genealogy>  (56) 
Cc1cccc(-c2[n-]c(=NCCC[N-]S(=O)(=O)c3ccccc3)[n-]c2-c2ccccc2)c1 (protonated)
Cc1cccc(-c2[n-]/c(=N\CCC[N-]S(=O)(=O)c3ccccc3)[n-]c2-c2ccccc2)c1 (cis-trans isomerization)
Cc1cccc(-c2[n-]/c(=N\CCC[N-]S(=O)(=O)c3ccccc3)[n-]c2-c2ccccc2)c1 (3D coordinates assigned)
Cc1cccc(-c2[n-]/c(=N\CCC[N-]S(=O)(=O)c3ccccc3)[n-]c2-c2ccccc2)c1 (optimized conformer: 87.94246286944431 kcal/mol)

>  <smiles>  (56) 
Cc1cccc(-c2[nH]c(=NCCCNS(=O)(=O)c3ccccc3)[nH]c2-c2ccccc2)c1

>  <score_type>  (56) 
oracle

>  <origin>  (56) 
adg

>  <m_score__min__energy>  (56) 
-13.880000000000001

>  <m_primary>  (56) 
energy

$$$$
56:0
     RDKit          3D

 56 58  0  0  0  0  0  0  0  0999 V2000
   55.4730   22.6930   48.0160 C   0  0  0  0  0  0  0  0  0  0  0  0
   55.7950   23.2590   46.7500 O   0  0  0  0  0  0  0  0  0  0  0  0
   56.5110   24.4530   46.5760 C   0  0  0  0  0  0  0  0  0  0  0  0
   57.8630   24.5970   46.9940 C   0  0  0  0  0  0  0  0  0  0  0  0
   58.5470   25.8100   46.8040 C   0  0  0  0  0  0  0  0  0  0  0  0
   57.8620   26.8620   46.1940 C   0  0  0  0  0  0  0  0  0  0  0  0
   58.2550   28.1510   45.8750 C   0  0  0  0  0  0  0  0  0  0  0  0
   59.6010   28.7700   46.1300 C   0  0  0  0  0  0  0  0  0  0  0  0
   59.4290   29.9820   46.8360 O   0  0  0  0  0  0  0  0  0  0  0  0
   60.3360   30.0590   47.9200 C   0  0  0  0  0  0  0  0  0  0  0  0
   61.3370   31.1990   47.6970 C   0  0  0  0  0  0  0  0  0  0  0  0
   61.9910   31.6370   49.0140 C   0  0  0  0  0  0  0  0  0  0  0  0
   63.0340   32.7300   48.7810 C   0  0  0  0  0  0  0  0  0  0  0  0
   63.4680   32.7100   47.4240 O   0  0  0  0  0  0  0  0  0  0  0  0
   62.9710   33.5950   46.4900 N   0  0  0  0  0  0  0  0  0  0  0  0
   63.6930   34.5250   46.0800 O   0  0  0  0  0  0  0  0  0  0  0  0
   61.6960   33.4560   45.9920 O   0  0  0  0  0  0  0  0  0  0  0  0
   57.1250   28.7530   45.2930 C   0  0  0  0  0  0  0  0  0  0  0  0
   57.0330   30.1520   44.8040 C   0  0  0  0  0  0  0  0  0  0  0  0
   55.9030   30.6470   44.5540 O   0  0  0  0  0  0  0  0  0  0  0  0
   58.2100   30.9530   44.6020 N   0  0  0  0  0  0  0  0  0  0  0  0
   58.1380   32.3230   44.0940 C   0  0  0  0  0  0  0  0  0  0  0  0
   58.5830   33.2990   45.1500 C   0  0  0  0  0  0  0  0  0  0  0  0
   58.4330   32.9960   46.5140 C   0  0  0  0  0  0  0  0  0  0  0  0
   58.8700   33.9010   47.4870 C   0  0  0  0  0  0  0  0  0  0  0  0
   59.4580   35.1090   47.1070 C   0  0  0  0  0  0  0  0  0  0  0  0
   59.6160   35.4150   45.7520 C   0  0  0  0  0  0  0  0  0  0  0  0
   59.1820   34.5130   44.7750 C   0  0  0  0  0  0  0  0  0  0  0  0
   56.1000   27.8660   45.2450 N   0  0  0  0  0  0  0  0  0  0  0  0
   56.5590   26.7290   45.7940 C   0  0  0  0  0  0  0  0  0  0  0  0
   55.8540   25.5390   45.9680 C   0  0  0  0  0  0  0  0  0  0  0  0
   55.8461   23.3488   48.8164 H   0  0  0  0  0  0  0  0  0  0  0  0
   54.3814   22.5905   48.1049 H   0  0  0  0  0  0  0  0  0  0  0  0
   55.9427   21.7023   48.1049 H   0  0  0  0  0  0  0  0  0  0  0  0
   58.3785   23.7503   47.4708 H   0  0  0  0  0  0  0  0  0  0  0  0
   59.5921   25.9269   47.1267 H   0  0  0  0  0  0  0  0  0  0  0  0
   60.2158   28.0805   46.7271 H   0  0  0  0  0  0  0  0  0  0  0  0
   60.1038   28.9686   45.1720 H   0  0  0  0  0  0  0  0  0  0  0  0
   59.7764   30.2440   48.8488 H   0  0  0  0  0  0  0  0  0  0  0  0
   60.8862   29.1094   47.9941 H   0  0  0  0  0  0  0  0  0  0  0  0
   62.1206   30.8567   47.0050 H   0  0  0  0  0  0  0  0  0  0  0  0
   60.7939   32.0589   47.2780 H   0  0  0  0  0  0  0  0  0  0  0  0
   61.2130   32.0225   49.6893 H   0  0  0  0  0  0  0  0  0  0  0  0
   62.4951   30.7656   49.4574 H   0  0  0  0  0  0  0  0  0  0  0  0
   62.5901   33.7108   49.0068 H   0  0  0  0  0  0  0  0  0  0  0  0
   63.8975   32.5503   49.4383 H   0  0  0  0  0  0  0  0  0  0  0  0
   59.1590   30.5570   44.7760 H   0  0  0  0  0  0  0  0  0  0  0  0
   58.7915   32.4180   43.2143 H   0  0  0  0  0  0  0  0  0  0  0  0
   57.0970   32.5466   43.8179 H   0  0  0  0  0  0  0  0  0  0  0  0
   57.9709   32.0450   46.8172 H   0  0  0  0  0  0  0  0  0  0  0  0
   58.7501   33.6605   48.5537 H   0  0  0  0  0  0  0  0  0  0  0  0
   59.7972   35.8205   47.8743 H   0  0  0  0  0  0  0  0  0  0  0  0
   60.0820   36.3658   45.4540 H   0  0  0  0  0  0  0  0  0  0  0  0
   59.3102   34.7551   43.7096 H   0  0  0  0  0  0  0  0  0  0  0  0
   55.1380   28.0100   44.8670 H   0  0  0  0  0  0  0  0  0  0  0  0
   54.8085   25.4509   45.6377 H   0  0  0  0  0  0  0  0  0  0  0  0
  1  2  1  0
  2  3  1  0
  3  4  2  0
  4  5  1  0
  5  6  2  0
  6  7  1  0
  7  8  1  0
  8  9  1  0
  9 10  1  0
 10 11  1  0
 11 12  1  0
 12 13  1  0
 13 14  1  0
 14 15  1  0
 15 16  2  0
 15 17  1  0
  7 18  2  0
 18 19  1  0
 19 20  2  0
 19 21  1  0
 21 22  1  0
 22 23  1  0
 23 24  2  0
 24 25  1  0
 25 26  2  0
 26 27  1  0
 27 28  2  0
 18 29  1  0
 29 30  1  0
 30 31  2  0
 31  3  1  0
 30  6  1  0
 28 23  1  0
  1 32  1  0
  1 33  1  0
  1 34  1  0
  4 35  1  0
  5 36  1  0
  8 37  1  0
  8 38  1  0
 10 39  1  0
 10 40  1  0
 11 41  1  0
 11 42  1  0
 12 43  1  0
 12 44  1  0
 13 45  1  0
 13 46  1  0
 21 47  1  0
 22 48  1  0
 22 49  1  0
 24 50  1  0
 25 51  1  0
 26 52  1  0
 27 53  1  0
 28 54  1  0
 29 55  1  0
 31 56  1  0
M  CHG  2  15   1  17  -1
M  END
>  <UniqueID>  (57) 
54

>  <SMILES>  (57) 
COc1ccc2c(COCCCCO[N+](=O)[O-])c(C(=O)NCc3ccccc3)[nH]c2c1

>  <Energy>  (57) 
81.03403262740811

>  <Genealogy>  (57) 
COc1ccc2c(COCCCCO[N+](=O)[O-])c(C(=O)NCc3ccccc3)[nH]c2c1 (3D coordinates assigned)
COc1ccc2c(COCCCCO[N+](=O)[O-])c(C(=O)NCc3ccccc3)[nH]c2c1 (optimized conformer: 81.03403262740811 kcal/mol)

>  <smiles>  (57) 
COc1ccc2c(COCCCCO[N+](=O)[O-])c(C(=O)NCc3ccccc3)[nH]c2c1

>  <score_type>  (57) 
oracle

>  <origin>  (57) 
adg

>  <m_score__min__energy>  (57) 
-8.6699999999999999

>  <m_primary>  (57) 
energy

$$$$
57:0
     RDKit          3D

 43 46  0  0  0  0  0  0  0  0999 V2000
   59.5875   28.1906   47.5635 H   0  0  0  0  0  0  0  0  0  0  0  0
   58.9560   28.8500   46.9500 C   0  0  0  0  0  0  0  0  0  0  0  0
   59.2700   30.1800   46.8350 N   0  0  0  0  0  0  0  0  0  0  0  0
   58.5160   31.0360   46.0790 C   0  0  0  0  0  0  0  0  0  0  0  0
   58.8850   32.4700   45.9770 C   0  0  0  0  0  0  0  0  0  0  0  0
   58.4260   33.2400   44.8950 C   0  0  0  0  0  0  0  0  0  0  0  0
   57.7781   32.7815   44.1334 H   0  0  0  0  0  0  0  0  0  0  0  0
   58.7870   34.5820   44.7810 C   0  0  0  0  0  0  0  0  0  0  0  0
   58.4234   35.1844   43.9355 H   0  0  0  0  0  0  0  0  0  0  0  0
   59.6120   35.1530   45.7470 C   0  0  0  0  0  0  0  0  0  0  0  0
   59.9029   36.2108   45.6668 H   0  0  0  0  0  0  0  0  0  0  0  0
   60.0570   34.4030   46.7880 N   0  0  0  0  0  0  0  0  0  0  0  0
   59.7190   33.0890   46.9370 C   0  0  0  0  0  0  0  0  0  0  0  0
   60.1610   32.4100   47.9570 N   0  0  0  0  0  0  0  0  0  0  0  0
   59.7840   32.6480   49.3200 C   0  0  0  0  0  0  0  0  0  0  0  0
   58.5460   32.1800   49.7690 C   0  0  0  0  0  0  0  0  0  0  0  0
   57.8889   31.6367   49.0740 H   0  0  0  0  0  0  0  0  0  0  0  0
   58.1260   32.3920   51.0950 C   0  0  0  0  0  0  0  0  0  0  0  0
   56.8450   31.9030   51.5430 N   0  0  0  0  0  0  0  0  0  0  0  0
   55.9740   32.4340   51.3210 H   0  0  0  0  0  0  0  0  0  0  0  0
   56.6550   30.5000   52.5440 S   0  0  0  0  0  0  0  0  0  0  0  0
   57.3660   29.3300   51.9260 O   0  0  0  0  0  0  0  0  0  0  0  0
   57.2100   30.7700   53.9150 O   0  0  0  0  0  0  0  0  0  0  0  0
   54.9230   30.1200   52.6950 C   0  0  0  0  0  0  0  0  0  0  0  0
   54.6521   30.0606   53.7595 H   0  0  0  0  0  0  0  0  0  0  0  0
   54.3307   30.9096   52.2094 H   0  0  0  0  0  0  0  0  0  0  0  0
   54.7156   29.1550   52.2094 H   0  0  0  0  0  0  0  0  0  0  0  0
   58.9700   33.1120   51.9740 C   0  0  0  0  0  0  0  0  0  0  0  0
   58.5770   33.3670   53.4060 C   0  0  0  0  0  0  0  0  0  0  0  0
   59.3082   32.8925   54.0770 H   0  0  0  0  0  0  0  0  0  0  0  0
   58.5568   34.4508   53.5933 H   0  0  0  0  0  0  0  0  0  0  0  0
   57.5791   32.9439   53.5933 H   0  0  0  0  0  0  0  0  0  0  0  0
   60.1950   33.6140   51.5040 C   0  0  0  0  0  0  0  0  0  0  0  0
   60.8414   34.1903   52.1822 H   0  0  0  0  0  0  0  0  0  0  0  0
   60.6030   33.3910   50.1870 C   0  0  0  0  0  0  0  0  0  0  0  0
   62.2470   34.1780   49.5930 Br  0  0  0  0  0  0  0  0  0  0  0  0
   57.4060   30.4930   45.4290 C   0  0  0  0  0  0  0  0  0  0  0  0
   56.4800   31.0970   44.6680 N   0  0  0  0  0  0  0  0  0  0  0  0
   55.6450   30.0710   44.3520 C   0  0  0  0  0  0  0  0  0  0  0  0
   54.7560   30.2019   43.7175 H   0  0  0  0  0  0  0  0  0  0  0  0
   55.9980   28.8700   44.8840 N   0  0  0  0  0  0  0  0  0  0  0  0
   57.1130   29.1810   45.5580 C   0  0  0  0  0  0  0  0  0  0  0  0
   57.8630   28.3380   46.3070 N   0  0  0  0  0  0  0  0  0  0  0  0
  1  2  1  0
  2  3  2  0
  3  4  1  0
  4  5  1  0
  5  6  2  0
  6  7  1  0
  6  8  1  0
  8  9  1  0
  8 10  2  0
 10 11  1  0
 10 12  1  0
 12 13  1  0
 13 14  2  0
 14 15  1  0
 15 16  2  0
 16 17  1  0
 16 18  1  0
 18 19  1  0
 19 20  1  0
 19 21  1  0
 21 22  2  0
 21 23  2  0
 21 24  1  0
 24 25  1  0
 24 26  1  0
 24 27  1  0
 18 28  2  0
 28 29  1  0
 29 30  1  0
 29 31  1  0
 29 32  1  0
 28 33  1  0
 33 34  1  0
 33 35  2  0
 35 36  1  0
  4 37  2  0
 37 38  1  0
 38 39  2  0
 39 40  1  0
 39 41  1  0
 41 42  1  0
 42 43  2  0
 43  2  1  0
 13  5  1  0
 35 15  1  0
 42 37  1  0
M  CHG  2  12  -1  41  -1
M  END
>  <UniqueID>  (58) 
55

>  <SMILES>  (58) 
Cc1cc(Br)c(/N=c2\[n-]cccc2-c2ncnc3[n-]cnc23)cc1NS(C)(=O)=O

>  <Energy>  (58) 
101.45444543378747

>  <Genealogy>  (58) 
Cc1cc(Br)c(N=c2[n-]cccc2-c2ncnc3[n-]cnc23)cc1NS(C)(=O)=O (protonated)
Cc1cc(Br)c(/N=c2\[n-]cccc2-c2ncnc3[n-]cnc23)cc1NS(C)(=O)=O (cis-trans isomerization)
Cc1cc(Br)c(/N=c2\[n-]cccc2-c2ncnc3[n-]cnc23)cc1NS(C)(=O)=O (3D coordinates assigned)
Cc1cc(Br)c(/N=c2\[n-]cccc2-c2ncnc3[n-]cnc23)cc1NS(C)(=O)=O (optimized conformer: 101.45444543378747 kcal/mol)

>  <smiles>  (58) 
Cc1cc(Br)c(N=c2[nH]cccc2-c2ncnc3[nH]cnc23)cc1NS(C)(=O)=O

>  <score_type>  (58) 
oracle

>  <origin>  (58) 
adg

>  <m_score__min__energy>  (58) 
-11.58

>  <m_primary>  (58) 
energy

$$$$
58:0
     RDKit          3D

 48 50  0  0  0  0  0  0  0  0999 V2000
   60.3130   26.2400   47.4010 N   0  0  0  0  0  0  0  0  0  0  0  0
   59.3460   28.3910   44.8030 C   0  0  0  0  0  0  0  0  0  0  0  0
   58.3270   26.3620   46.2730 C   0  0  0  0  0  0  0  0  0  0  0  0
   57.5760   26.9670   45.2940 C   0  0  0  0  0  0  0  0  0  0  0  0
   58.0680   27.9810   44.5500 N   0  0  0  0  0  0  0  0  0  0  0  0
   57.3690   28.6430   43.5120 C   0  0  0  0  0  0  0  0  0  0  0  0
   56.9540   30.0390   43.8970 C   0  0  0  0  0  0  0  0  0  0  0  0
   55.8980   30.2890   44.5070 O   0  0  0  0  0  0  0  0  0  0  0  0
   57.8940   31.0530   43.4970 N   0  0  0  0  0  0  0  0  0  0  0  0
   57.7940   32.4450   43.7020 C   0  0  0  0  0  0  0  0  0  0  0  0
   58.5270   32.9140   44.8790 C   0  0  0  0  0  0  0  0  0  0  0  0
   58.7960   34.1880   45.2710 C   0  0  0  0  0  0  0  0  0  0  0  0
   59.4790   34.4740   46.4750 C   0  0  0  0  0  0  0  0  0  0  0  0
   59.9120   33.5040   47.3180 C   0  0  0  0  0  0  0  0  0  0  0  0
   60.5930   33.6040   48.5760 C   0  0  0  0  0  0  0  0  0  0  0  0
   59.7570   33.7590   49.6950 C   0  0  0  0  0  0  0  0  0  0  0  0
   60.2080   33.8430   50.9710 C   0  0  0  0  0  0  0  0  0  0  0  0
   61.5590   33.7770   51.2220 C   0  0  0  0  0  0  0  0  0  0  0  0
   62.3930   33.6270   50.1390 C   0  0  0  0  0  0  0  0  0  0  0  0
   61.9200   33.5410   48.8260 C   0  0  0  0  0  0  0  0  0  0  0  0
   63.1070   33.3620   47.5620 S   0  0  0  0  0  0  0  0  0  0  0  0
   63.3030   31.6480   47.2090 N   0  0  0  0  0  0  0  0  0  0  0  0
   62.6890   34.0730   46.3290 O   0  0  0  0  0  0  0  0  0  0  0  0
   64.4850   33.8460   48.0110 O   0  0  0  0  0  0  0  0  0  0  0  0
   59.6350   32.1790   46.9120 C   0  0  0  0  0  0  0  0  0  0  0  0
   58.9750   31.8990   45.7490 C   0  0  0  0  0  0  0  0  0  0  0  0
   59.6270   26.8360   46.4740 C   0  0  0  0  0  0  0  0  0  0  0  0
   59.8670   29.3440   44.1370 O   0  0  0  0  0  0  0  0  0  0  0  0
   60.1190   27.8410   45.7410 N   0  0  0  0  0  0  0  0  0  0  0  0
   60.8590   26.8340   48.0820 H   0  0  0  0  0  0  0  0  0  0  0  0
   57.9209   25.5362   46.8756 H   0  0  0  0  0  0  0  0  0  0  0  0
   56.5492   26.6169   45.1119 H   0  0  0  0  0  0  0  0  0  0  0  0
   58.0208   28.6997   42.6277 H   0  0  0  0  0  0  0  0  0  0  0  0
   56.4551   28.0674   43.3036 H   0  0  0  0  0  0  0  0  0  0  0  0
   58.7690   30.7070   42.9890 H   0  0  0  0  0  0  0  0  0  0  0  0
   58.1944   32.9576   42.8149 H   0  0  0  0  0  0  0  0  0  0  0  0
   56.7310   32.6727   43.8698 H   0  0  0  0  0  0  0  0  0  0  0  0
   58.4720   35.0220   44.6312 H   0  0  0  0  0  0  0  0  0  0  0  0
   59.6668   35.5253   46.7387 H   0  0  0  0  0  0  0  0  0  0  0  0
   58.6716   33.8156   49.5255 H   0  0  0  0  0  0  0  0  0  0  0  0
   59.4969   33.9634   51.8016 H   0  0  0  0  0  0  0  0  0  0  0  0
   61.9555   33.8415   52.2460 H   0  0  0  0  0  0  0  0  0  0  0  0
   63.4778   33.5724   50.3129 H   0  0  0  0  0  0  0  0  0  0  0  0
   64.2910   31.4480   47.0320 H   0  0  0  0  0  0  0  0  0  0  0  0
   62.6750   31.4740   46.4080 H   0  0  0  0  0  0  0  0  0  0  0  0
   59.9612   31.3466   47.5528 H   0  0  0  0  0  0  0  0  0  0  0  0
   58.7872   30.8483   45.4830 H   0  0  0  0  0  0  0  0  0  0  0  0
   61.0820   28.1680   45.9100 H   0  0  0  0  0  0  0  0  0  0  0  0
  1  2  2  3
  2  3  1  0
  3  4  2  0
  4  5  1  0
  5  6  1  0
  6  7  1  0
  7  8  2  0
  7  9  1  0
  9 10  1  0
 10 11  1  0
 11 12  2  0
 12 13  1  0
 13 14  2  0
 14 15  1  0
 15 16  2  0
 16 17  1  0
 17 18  2  0
 18 19  1  0
 19 20  2  0
 20 21  1  0
 21 22  1  0
 21 23  2  0
 21 24  2  0
 14 25  1  0
 25 26  2  0
  5 27  1  0
 27 28  2  0
 27 29  1  0
 29  2  1  0
 26 11  1  0
 20 15  1  0
  1 30  1  0
  3 31  1  0
  4 32  1  0
  6 33  1  0
  6 34  1  0
  9 35  1  0
 10 36  1  0
 10 37  1  0
 12 38  1  0
 13 39  1  0
 16 40  1  0
 17 41  1  0
 18 42  1  0
 19 43  1  0
 22 44  1  0
 22 45  1  0
 25 46  1  0
 26 47  1  0
 29 48  1  0
M  END
>  <smiles>  (59) 
N=c1ccn(CC(=O)NCc2ccc(-c3ccccc3S(N)(=O)=O)cc2)c(=O)[nH]1

>  <score_type>  (59) 
oracle

>  <origin>  (59) 
adg

>  <m_score__min__energy>  (59) 
-9.2100000000000009

>  <m_primary>  (59) 
energy

$$$$
59:0
     RDKit          3D

 52 55  0  0  0  0  0  0  0  0999 V2000
   58.8780   34.3260   53.0800 C   0  0  0  0  0  0  0  0  0  0  0  0
   57.9660   33.6490   52.2200 O   0  0  0  0  0  0  0  0  0  0  0  0
   58.2940   32.5420   51.4220 C   0  0  0  0  0  0  0  0  0  0  0  0
   59.2690   32.6230   50.4050 C   0  0  0  0  0  0  0  0  0  0  0  0
   59.5720   31.5120   49.6040 C   0  0  0  0  0  0  0  0  0  0  0  0
   60.5950   31.6060   48.5360 C   0  0  0  0  0  0  0  0  0  0  0  0
   61.7910   31.8540   48.8470 O   0  0  0  0  0  0  0  0  0  0  0  0
   60.2490   31.4390   47.1470 N   0  0  0  0  0  0  0  0  0  0  0  0
   60.2440   30.0950   46.5570 C   0  0  0  0  0  0  0  0  0  0  0  0
   58.8180   29.7390   46.1450 C   0  0  0  0  0  0  0  0  0  0  0  0
   58.2890   30.7380   45.1040 C   0  0  0  0  0  0  0  0  0  0  0  0
   58.6050   32.1760   45.4510 C   0  0  0  0  0  0  0  0  0  0  0  0
   57.9640   33.2080   44.7440 C   0  0  0  0  0  0  0  0  0  0  0  0
   58.2800   34.5420   45.0030 C   0  0  0  0  0  0  0  0  0  0  0  0
   59.2460   34.8610   45.9650 C   0  0  0  0  0  0  0  0  0  0  0  0
   59.9000   33.8440   46.6670 C   0  0  0  0  0  0  0  0  0  0  0  0
   59.5840   32.4950   46.4220 C   0  0  0  0  0  0  0  0  0  0  0  0
   58.8750   30.3100   49.8070 C   0  0  0  0  0  0  0  0  0  0  0  0
   57.9210   30.2130   50.8200 C   0  0  0  0  0  0  0  0  0  0  0  0
   57.6260   31.3180   51.6380 C   0  0  0  0  0  0  0  0  0  0  0  0
   56.5900   31.1560   52.7200 C   0  0  0  0  0  0  0  0  0  0  0  0
   55.2570   31.3360   52.1510 N   0  0  0  0  0  0  0  0  0  0  0  0
   54.1300   30.4980   52.4370 C   0  0  0  0  0  0  0  0  0  0  0  0
   54.3120   29.2590   52.5690 O   0  0  0  0  0  0  0  0  0  0  0  0
   52.7500   31.0580   52.6340 C   0  0  0  0  0  0  0  0  0  0  0  0
   52.0470   31.2020   51.3170 C   0  0  0  0  0  0  0  0  0  0  0  0
   52.0750   30.2820   50.3390 N   0  0  0  0  0  0  0  0  0  0  0  0
   51.3200   30.8360   49.3640 C   0  0  0  0  0  0  0  0  0  0  0  0
   51.1030   30.2590   48.2650 O   0  0  0  0  0  0  0  0  0  0  0  0
   50.8140   32.0490   49.6620 N   0  0  0  0  0  0  0  0  0  0  0  0
   51.2840   32.2670   50.9020 C   0  0  0  0  0  0  0  0  0  0  0  0
   51.0190   33.4180   51.6380 O   0  0  0  0  0  0  0  0  0  0  0  0
   58.6100   34.1271   54.1282 H   0  0  0  0  0  0  0  0  0  0  0  0
   59.8994   33.9657   52.8879 H   0  0  0  0  0  0  0  0  0  0  0  0
   58.8287   35.4080   52.8879 H   0  0  0  0  0  0  0  0  0  0  0  0
   59.7996   33.5720   50.2378 H   0  0  0  0  0  0  0  0  0  0  0  0
   60.8986   30.0777   45.6731 H   0  0  0  0  0  0  0  0  0  0  0  0
   60.6118   29.3646   47.2927 H   0  0  0  0  0  0  0  0  0  0  0  0
   58.8087   28.7277   45.7125 H   0  0  0  0  0  0  0  0  0  0  0  0
   58.1720   29.7791   47.0344 H   0  0  0  0  0  0  0  0  0  0  0  0
   58.7446   30.5041   44.1305 H   0  0  0  0  0  0  0  0  0  0  0  0
   57.1938   30.6385   45.0793 H   0  0  0  0  0  0  0  0  0  0  0  0
   57.2092   32.9625   43.9824 H   0  0  0  0  0  0  0  0  0  0  0  0
   57.7694   35.3445   44.4505 H   0  0  0  0  0  0  0  0  0  0  0  0
   59.4909   35.9138   46.1689 H   0  0  0  0  0  0  0  0  0  0  0  0
   60.6654   34.0998   47.4145 H   0  0  0  0  0  0  0  0  0  0  0  0
   59.0822   29.4414   49.1646 H   0  0  0  0  0  0  0  0  0  0  0  0
   57.3935   29.2612   50.9808 H   0  0  0  0  0  0  0  0  0  0  0  0
   56.6695   30.1490   53.1555 H   0  0  0  0  0  0  0  0  0  0  0  0
   56.7582   31.9096   53.5034 H   0  0  0  0  0  0  0  0  0  0  0  0
   52.1731   30.3796   53.2797 H   0  0  0  0  0  0  0  0  0  0  0  0
   52.8328   32.0497   53.1027 H   0  0  0  0  0  0  0  0  0  0  0  0
  1  2  1  0
  2  3  1  0
  3  4  2  0
  4  5  1  0
  5  6  1  0
  6  7  2  0
  6  8  1  0
  8  9  1  0
  9 10  1  0
 10 11  1  0
 11 12  1  0
 12 13  2  0
 13 14  1  0
 14 15  2  0
 15 16  1  0
 16 17  2  0
  5 18  2  0
 18 19  1  0
 19 20  2  0
 20 21  1  0
 21 22  1  0
 22 23  1  0
 23 24  2  0
 23 25  1  0
 25 26  1  0
 26 27  1  0
 27 28  1  0
 28 29  2  0
 28 30  1  0
 30 31  1  0
 31 32  1  0
 20  3  1  0
 31 26  2  0
 17  8  1  0
 17 12  1  0
  1 33  1  0
  1 34  1  0
  1 35  1  0
  4 36  1  0
  9 37  1  0
  9 38  1  0
 10 39  1  0
 10 40  1  0
 11 41  1  0
 11 42  1  0
 13 43  1  0
 14 44  1  0
 15 45  1  0
 16 46  1  0
 18 47  1  0
 19 48  1  0
 21 49  1  0
 21 50  1  0
 25 51  1  0
 25 52  1  0
M  CHG  4  22  -1  27  -1  30  -1  32  -1
M  END
>  <UniqueID>  (60) 
56

>  <SMILES>  (60) 
COc1cc(C(=O)N2CCCc3ccccc32)ccc1C[N-]C(=O)Cc1[n-]c(=O)[n-]c1[O-]

>  <Energy>  (60) 
89.98399485681676

>  <Genealogy>  (60) 
COc1cc(C(=O)N2CCCc3ccccc32)ccc1C[N-]C(=O)Cc1[n-]c(=O)[n-]c1[O-] (protonated)
COc1cc(C(=O)N2CCCc3ccccc32)ccc1C[N-]C(=O)Cc1[n-]c(=O)[n-]c1[O-] (3D coordinates assigned)
COc1cc(C(=O)N2CCCc3ccccc32)ccc1C[N-]C(=O)Cc1[n-]c(=O)[n-]c1[O-] (nonaromatic ring conformer: 89.98399485681676 kcal/mol)

>  <smiles>  (60) 
COc1cc(C(=O)N2CCCc3ccccc32)ccc1CNC(=O)Cc1[nH]c(=O)[nH]c1O

>  <score_type>  (60) 
oracle

>  <origin>  (60) 
adg

>  <m_score__min__energy>  (60) 
-19.23

>  <m_primary>  (60) 
energy

$$$$
60:0
     RDKit          3D

 44 48  0  0  0  0  0  0  0  0999 V2000
   54.7650   27.4410   46.3420 H   0  0  0  0  0  0  0  0  0  0  0  0
   55.2570   26.7590   45.7790 O   0  0  0  0  0  0  0  0  0  0  0  0
   56.1580   25.8600   46.3460 C   0  0  0  0  0  0  0  0  0  0  0  0
   55.7790   24.7570   47.0110 N   0  0  0  0  0  0  0  0  0  0  0  0
   56.9550   24.2350   47.4200 C   0  0  0  0  0  0  0  0  0  0  0  0
   57.0270   23.1760   48.0950 O   0  0  0  0  0  0  0  0  0  0  0  0
   58.0470   24.9420   47.0550 N   0  0  0  0  0  0  0  0  0  0  0  0
   57.5330   25.9650   46.3500 C   0  0  0  0  0  0  0  0  0  0  0  0
   58.3530   27.0460   45.7800 C   0  0  0  0  0  0  0  0  0  0  0  0
   59.3847   26.8109   45.4794 H   0  0  0  0  0  0  0  0  0  0  0  0
   57.9140   28.3020   45.6060 C   0  0  0  0  0  0  0  0  0  0  0  0
   56.8780   28.7030   44.7680 C   0  0  0  0  0  0  0  0  0  0  0  0
   56.2932   28.0328   44.1209 H   0  0  0  0  0  0  0  0  0  0  0  0
   56.6970   30.0420   44.8680 N   0  0  0  0  0  0  0  0  0  0  0  0
   57.5800   30.4910   45.7470 N   0  0  0  0  0  0  0  0  0  0  0  0
   57.7710   31.7640   46.1990 C   0  0  0  0  0  0  0  0  0  0  0  0
   57.0840   32.7850   45.7710 N   0  0  0  0  0  0  0  0  0  0  0  0
   57.5940   33.9120   44.9960 C   0  0  0  0  0  0  0  0  0  0  0  0
   56.6389   34.2363   44.5572 H   0  0  0  0  0  0  0  0  0  0  0  0
   58.7700   34.5940   45.6710 C   0  0  0  0  0  0  0  0  0  0  0  0
   58.8965   35.6835   45.5872 H   0  0  0  0  0  0  0  0  0  0  0  0
   59.1669   34.6272   46.6964 H   0  0  0  0  0  0  0  0  0  0  0  0
   58.9970   33.7060   44.4570 C   0  0  0  0  0  0  0  0  0  0  0  0
   59.2879   34.1531   43.4950 H   0  0  0  0  0  0  0  0  0  0  0  0
   59.6265   32.8304   44.2402 H   0  0  0  0  0  0  0  0  0  0  0  0
   58.7320   31.9660   47.1420 N   0  0  0  0  0  0  0  0  0  0  0  0
   59.4770   30.9260   47.6310 C   0  0  0  0  0  0  0  0  0  0  0  0
   60.4920   31.1580   48.6340 N   0  0  0  0  0  0  0  0  0  0  0  0
   60.1450   30.8560   50.0350 C   0  0  0  0  0  0  0  0  0  0  0  0
   59.8542   29.7974   50.1040 H   0  0  0  0  0  0  0  0  0  0  0  0
   59.3221   31.5268   50.3227 H   0  0  0  0  0  0  0  0  0  0  0  0
   61.3010   31.1080   51.0030 C   0  0  0  0  0  0  0  0  0  0  0  0
   61.1348   30.5285   51.9231 H   0  0  0  0  0  0  0  0  0  0  0  0
   61.3432   32.1830   51.2324 H   0  0  0  0  0  0  0  0  0  0  0  0
   62.5250   30.7190   50.4260 O   0  0  0  0  0  0  0  0  0  0  0  0
   62.8440   31.6300   49.3980 C   0  0  0  0  0  0  0  0  0  0  0  0
   63.8672   31.4307   49.0467 H   0  0  0  0  0  0  0  0  0  0  0  0
   62.7639   32.6508   49.7999 H   0  0  0  0  0  0  0  0  0  0  0  0
   61.8710   31.4950   48.2130 C   0  0  2  0  0  0  0  0  0  0  0  0
   62.2186   30.6581   47.5894 H   0  0  0  0  0  0  0  0  0  0  0  0
   61.8760   32.7510   47.4410 C   0  0  0  0  0  0  0  0  0  0  0  0
   61.8790   33.7370   46.8360 N   0  0  0  0  0  0  0  0  0  0  0  0
   59.2620   29.6630   47.1570 N   0  0  0  0  0  0  0  0  0  0  0  0
   58.3180   29.4780   46.2080 C   0  0  0  0  0  0  0  0  0  0  0  0
  1  2  1  0
  2  3  1  0
  3  4  1  0
  4  5  1  0
  5  6  2  0
  5  7  1  0
  7  8  1  0
  8  9  1  0
  9 10  1  0
  9 11  2  3
 11 12  1  0
 12 13  1  0
 12 14  2  0
 14 15  1  0
 15 16  1  0
 16 17  2  0
 17 18  1  0
 18 19  1  0
 18 20  1  0
 20 21  1  0
 20 22  1  0
 20 23  1  0
 23 24  1  0
 23 25  1  0
 16 26  1  0
 26 27  2  0
 27 28  1  0
 28 29  1  0
 29 30  1  0
 29 31  1  0
 29 32  1  0
 32 33  1  0
 32 34  1  0
 32 35  1  0
 35 36  1  0
 36 37  1  0
 36 38  1  0
 36 39  1  0
 39 40  1  6
 39 41  1  0
 41 42  3  0
 27 43  1  0
 43 44  2  0
  8  3  2  0
 44 11  1  0
 44 15  1  0
 23 18  1  0
 39 28  1  0
M  CHG  2   4  -1   7  -1
M  END
>  <UniqueID>  (61) 
57

>  <SMILES>  (61) 
N#C[C@H]1COCCN1c1n/c(=N/C2CC2)n2ncc(=Cc3[n-]c(=O)[n-]c3O)c2n1

>  <Energy>  (61) 
392.1932449016297

>  <Genealogy>  (61) 
N#CC1COCCN1c1nc(=NC2CC2)n2ncc(=Cc3[n-]c(=O)[n-]c3O)c2n1 (protonated)
N#C[C@H]1COCCN1c1nc(=NC2CC2)n2ncc(=Cc3[n-]c(=O)[n-]c3O)c2n1 (chirality)
N#C[C@H]1COCCN1c1n/c(=N/C2CC2)n2ncc(=Cc3[n-]c(=O)[n-]c3O)c2n1 (cis-trans isomerization)
N#C[C@H]1COCCN1c1n/c(=N/C2CC2)n2ncc(=Cc3[n-]c(=O)[n-]c3O)c2n1 (3D coordinates assigned)
N#C[C@H]1COCCN1c1n/c(=N/C2CC2)n2ncc(=Cc3[n-]c(=O)[n-]c3O)c2n1 (nonaromatic ring conformer: 392.1932449016297 kcal/mol)

>  <smiles>  (61) 
N#CC1COCCN1c1nc(=NC2CC2)n2ncc(=Cc3[nH]c(=O)[nH]c3O)c2n1

>  <score_type>  (61) 
oracle

>  <origin>  (61) 
adg

>  <m_score__min__energy>  (61) 
-12.52

>  <m_primary>  (61) 
energy

$$$$
61:0
     RDKit          3D

 54 57  0  0  0  0  0  0  0  0999 V2000
   57.7270   22.3580   44.8720 C   0  0  0  0  0  0  0  0  0  0  0  0
   57.8530   23.7890   45.1190 N   0  0  0  0  0  0  0  0  0  0  0  0
   56.9280   24.7250   44.8330 C   0  0  0  0  0  0  0  0  0  0  0  0
   57.3690   25.9520   45.2980 C   0  0  0  0  0  0  0  0  0  0  0  0
   56.6700   27.2050   45.2640 N   0  0  0  0  0  0  0  0  0  0  0  0
   57.1120   28.4230   44.6530 C   0  0  0  0  0  0  0  0  0  0  0  0
   57.7420   28.4010   43.5620 O   0  0  0  0  0  0  0  0  0  0  0  0
   56.7650   29.6710   45.2670 N   0  0  0  0  0  0  0  0  0  0  0  0
   57.2940   30.9470   44.8680 C   0  0  0  0  0  0  0  0  0  0  0  0
   57.7610   31.8350   45.8520 C   0  0  0  0  0  0  0  0  0  0  0  0
   58.2990   33.0740   45.4890 C   0  0  0  0  0  0  0  0  0  0  0  0
   58.3920   33.4300   44.1410 C   0  0  0  0  0  0  0  0  0  0  0  0
   57.9530   32.5450   43.1530 C   0  0  0  0  0  0  0  0  0  0  0  0
   57.4120   31.3050   43.5110 C   0  0  0  0  0  0  0  0  0  0  0  0
   58.6060   25.7460   45.8890 C   0  0  0  0  0  0  0  0  0  0  0  0
   59.4540   26.7460   46.5720 C   0  0  0  0  0  0  0  0  0  0  0  0
   59.5630   26.7440   47.9080 C   0  0  0  0  0  0  0  0  0  0  0  0
   60.3780   27.8060   48.5840 C   0  0  0  0  0  0  0  0  0  0  0  0
   60.1600   29.0920   47.9040 N   0  0  0  0  0  0  0  0  0  0  0  0
   59.9990   30.3050   48.6590 C   0  0  0  0  0  0  0  0  0  0  0  0
   58.8500   30.6600   49.0310 O   0  0  0  0  0  0  0  0  0  0  0  0
   61.1210   31.1330   48.9880 N   0  0  0  0  0  0  0  0  0  0  0  0
   61.7720   32.0510   48.0980 C   0  0  0  0  0  0  0  0  0  0  0  0
   63.1750   32.1120   47.9940 C   0  0  0  0  0  0  0  0  0  0  0  0
   63.7780   33.0160   47.1150 C   0  0  0  0  0  0  0  0  0  0  0  0
   62.9890   33.8790   46.3490 C   0  0  0  0  0  0  0  0  0  0  0  0
   61.5970   33.8420   46.4680 C   0  0  0  0  0  0  0  0  0  0  0  0
   60.9910   32.9360   47.3440 C   0  0  0  0  0  0  0  0  0  0  0  0
   60.1480   29.1600   46.4310 C   0  0  0  0  0  0  0  0  0  0  0  0
   60.2550   27.7640   45.7890 C   0  0  0  0  0  0  0  0  0  0  0  0
   58.8630   24.3900   45.7790 C   0  0  0  0  0  0  0  0  0  0  0  0
   57.6799   21.8230   45.8320 H   0  0  0  0  0  0  0  0  0  0  0  0
   56.8083   22.1643   44.2988 H   0  0  0  0  0  0  0  0  0  0  0  0
   58.5977   22.0068   44.2988 H   0  0  0  0  0  0  0  0  0  0  0  0
   55.9755   24.5437   44.3136 H   0  0  0  0  0  0  0  0  0  0  0  0
   56.0170   29.6530   45.9970 H   0  0  0  0  0  0  0  0  0  0  0  0
   57.7031   31.5540   46.9139 H   0  0  0  0  0  0  0  0  0  0  0  0
   58.6495   33.7693   46.2660 H   0  0  0  0  0  0  0  0  0  0  0  0
   58.8108   34.4069   43.8577 H   0  0  0  0  0  0  0  0  0  0  0  0
   58.0328   32.8234   42.0918 H   0  0  0  0  0  0  0  0  0  0  0  0
   57.0775   30.6071   42.7293 H   0  0  0  0  0  0  0  0  0  0  0  0
   59.0585   25.9693   48.5040 H   0  0  0  0  0  0  0  0  0  0  0  0
   60.0710   27.8903   49.6369 H   0  0  0  0  0  0  0  0  0  0  0  0
   61.4441   27.5394   48.5355 H   0  0  0  0  0  0  0  0  0  0  0  0
   63.7991   31.4453   48.6072 H   0  0  0  0  0  0  0  0  0  0  0  0
   64.8739   33.0484   47.0259 H   0  0  0  0  0  0  0  0  0  0  0  0
   63.4634   34.5866   45.6531 H   0  0  0  0  0  0  0  0  0  0  0  0
   60.9768   34.5270   45.8713 H   0  0  0  0  0  0  0  0  0  0  0  0
   59.8955   32.9183   47.4414 H   0  0  0  0  0  0  0  0  0  0  0  0
   59.2086   29.6301   46.1047 H   0  0  0  0  0  0  0  0  0  0  0  0
   61.0197   29.7495   46.1106 H   0  0  0  0  0  0  0  0  0  0  0  0
   59.8699   27.8106   44.7597 H   0  0  0  0  0  0  0  0  0  0  0  0
   61.3112   27.4566   45.7908 H   0  0  0  0  0  0  0  0  0  0  0  0
   59.7558   23.8805   46.1707 H   0  0  0  0  0  0  0  0  0  0  0  0
  1  2  1  0
  2  3  1  0
  3  4  2  0
  4  5  1  0
  5  6  1  0
  6  7  2  0
  6  8  1  0
  8  9  1  0
  9 10  2  0
 10 11  1  0
 11 12  2  0
 12 13  1  0
 13 14  2  0
  4 15  1  0
 15 16  1  0
 16 17  2  0
 17 18  1  0
 18 19  1  0
 19 20  1  0
 20 21  2  0
 20 22  1  0
 22 23  1  0
 23 24  2  0
 24 25  1  0
 25 26  2  0
 26 27  1  0
 27 28  2  0
 19 29  1  0
 29 30  1  0
 15 31  2  0
 31  2  1  0
 14  9  1  0
 30 16  1  0
 28 23  1  0
  1 32  1  0
  1 33  1  0
  1 34  1  0
  3 35  1  0
  8 36  1  0
 10 37  1  0
 11 38  1  0
 12 39  1  0
 13 40  1  0
 14 41  1  0
 17 42  1  0
 18 43  1  0
 18 44  1  0
 24 45  1  0
 25 46  1  0
 26 47  1  0
 27 48  1  0
 28 49  1  0
 29 50  1  0
 29 51  1  0
 30 52  1  0
 30 53  1  0
 31 54  1  0
M  CHG  2   5  -1  22  -1
M  END
>  <UniqueID>  (62) 
58

>  <SMILES>  (62) 
Cn1cc([N-]C(=O)Nc2ccccc2)c(C2=CCN(C(=O)[N-]c3ccccc3)CC2)c1

>  <Energy>  (62) 
98.31317715221768

>  <Genealogy>  (62) 
Cn1cc([N-]C(=O)Nc2ccccc2)c(C2=CCN(C(=O)[N-]c3ccccc3)CC2)c1 (protonated)
Cn1cc([N-]C(=O)Nc2ccccc2)c(C2=CCN(C(=O)[N-]c3ccccc3)CC2)c1 (3D coordinates assigned)
Cn1cc([N-]C(=O)Nc2ccccc2)c(C2=CCN(C(=O)[N-]c3ccccc3)CC2)c1 (nonaromatic ring conformer: 98.31317715221768 kcal/mol)

>  <smiles>  (62) 
Cn1cc(NC(=O)Nc2ccccc2)c(C2=CCN(C(=O)Nc3ccccc3)CC2)c1

>  <score_type>  (62) 
oracle

>  <origin>  (62) 
adg

>  <m_score__min__energy>  (62) 
-11.029999999999999

>  <m_primary>  (62) 
energy

$$$$
62:0
     RDKit          3D

 52 57  0  0  0  0  0  0  0  0999 V2000
   58.0659   26.0084   43.7486 H   0  0  0  0  0  0  0  0  0  0  0  0
   57.6320   26.5190   44.6210 C   0  0  0  0  0  0  0  0  0  0  0  0
   57.0970   25.6860   45.7100 C   0  0  0  0  0  0  0  0  0  0  0  0
   57.7280   24.6040   46.1960 N   0  0  0  0  0  0  0  0  0  0  0  0
   56.8480   24.1050   47.0910 C   0  0  0  0  0  0  0  0  0  0  0  0
   57.0890   23.0780   47.7770 O   0  0  0  0  0  0  0  0  0  0  0  0
   55.6860   24.7850   47.1850 N   0  0  0  0  0  0  0  0  0  0  0  0
   55.8540   25.7760   46.2960 C   0  0  0  0  0  0  0  0  0  0  0  0
   54.8750   26.7160   45.9950 O   0  0  0  0  0  0  0  0  0  0  0  0
   57.6250   27.8600   44.6230 C   0  0  0  0  0  0  0  0  0  0  0  0
   57.3820   28.6800   43.5220 C   0  0  0  0  0  0  0  0  0  0  0  0
   57.1382   28.3218   42.5109 H   0  0  0  0  0  0  0  0  0  0  0  0
   57.4900   29.9820   43.8790 N   0  0  0  0  0  0  0  0  0  0  0  0
   57.7970   30.0000   45.1660 N   0  0  0  0  0  0  0  0  0  0  0  0
   58.0510   31.0820   45.9420 C   0  0  0  0  0  0  0  0  0  0  0  0
   57.9630   32.2820   45.4320 N   0  0  0  0  0  0  0  0  0  0  0  0
   58.0140   33.6290   46.0300 C   0  0  0  0  0  0  0  0  0  0  0  0
   56.9201   33.7068   46.1161 H   0  0  0  0  0  0  0  0  0  0  0  0
   59.1630   33.9710   46.9650 C   0  0  0  0  0  0  0  0  0  0  0  0
   58.9979   34.6487   47.8155 H   0  0  0  0  0  0  0  0  0  0  0  0
   59.8768   33.3902   47.5677 H   0  0  0  0  0  0  0  0  0  0  0  0
   59.1430   34.5160   45.5370 C   0  0  0  0  0  0  0  0  0  0  0  0
   58.9641   35.5867   45.3590 H   0  0  0  0  0  0  0  0  0  0  0  0
   59.8373   34.4907   44.6842 H   0  0  0  0  0  0  0  0  0  0  0  0
   58.4090   30.8590   47.2390 N   0  0  0  0  0  0  0  0  0  0  0  0
   58.5160   29.5840   47.7310 C   0  0  0  0  0  0  0  0  0  0  0  0
   58.8450   29.3700   48.9690 N   0  0  0  0  0  0  0  0  0  0  0  0
   59.1050   30.4090   49.9670 C   0  0  0  0  0  0  0  0  0  0  0  0
   59.2648   29.9306   50.9446 H   0  0  0  0  0  0  0  0  0  0  0  0
   58.2355   31.0824   49.9914 H   0  0  0  0  0  0  0  0  0  0  0  0
   60.3220   31.2310   49.6220 C   0  0  0  0  0  0  0  0  0  0  0  0
   60.4620   32.5480   50.0910 C   0  0  0  0  0  0  0  0  0  0  0  0
   59.6841   32.9844   50.7347 H   0  0  0  0  0  0  0  0  0  0  0  0
   61.5830   33.3070   49.7450 C   0  0  0  0  0  0  0  0  0  0  0  0
   61.6954   34.3273   50.1403 H   0  0  0  0  0  0  0  0  0  0  0  0
   62.5680   32.7750   48.8950 C   0  0  0  0  0  0  0  0  0  0  0  0
   63.7640   33.5800   48.5500 C   0  0  0  0  0  0  0  0  0  0  0  0
   63.8060   34.1760   47.4420 O   0  0  0  0  0  0  0  0  0  0  0  0
   64.8610   33.7530   49.4620 N   0  0  0  0  0  0  0  0  0  0  0  0
   65.4590   32.8010   50.1130 C   0  0  0  0  0  0  0  0  0  0  0  0
   64.8330   31.7170   50.6250 N   0  0  0  0  0  0  0  0  0  0  0  0
   65.7140   30.8740   51.2260 C   0  0  0  0  0  0  0  0  0  0  0  0
   65.3983   29.9375   51.7091 H   0  0  0  0  0  0  0  0  0  0  0  0
   67.0430   31.2810   51.1860 C   0  0  0  0  0  0  0  0  0  0  0  0
   67.8975   30.7373   51.6152 H   0  0  0  0  0  0  0  0  0  0  0  0
   67.1180   32.7500   50.3670 S   0  0  0  0  0  0  0  0  0  0  0  0
   62.4180   31.4640   48.4120 C   0  0  0  0  0  0  0  0  0  0  0  0
   63.1879   31.0318   47.7559 H   0  0  0  0  0  0  0  0  0  0  0  0
   61.2970   30.7060   48.7600 C   0  0  0  0  0  0  0  0  0  0  0  0
   61.1779   29.6901   48.3553 H   0  0  0  0  0  0  0  0  0  0  0  0
   58.2680   28.5180   46.9180 N   0  0  0  0  0  0  0  0  0  0  0  0
   57.8910   28.7570   45.6400 C   0  0  0  0  0  0  0  0  0  0  0  0
  1  2  1  0
  2  3  1  0
  3  4  1  0
  4  5  1  0
  5  6  2  0
  5  7  1  0
  7  8  1  0
  8  9  1  0
  2 10  2  0
 10 11  1  0
 11 12  1  0
 11 13  2  0
 13 14  1  0
 14 15  1  0
 15 16  2  3
 16 17  1  0
 17 18  1  0
 17 19  1  0
 19 20  1  0
 19 21  1  0
 19 22  1  0
 22 23  1  0
 22 24  1  0
 15 25  1  0
 25 26  1  0
 26 27  2  3
 27 28  1  0
 28 29  1  0
 28 30  1  0
 28 31  1  0
 31 32  2  0
 32 33  1  0
 32 34  1  0
 34 35  1  0
 34 36  2  0
 36 37  1  0
 37 38  2  0
 37 39  1  0
 39 40  2  3
 40 41  1  0
 41 42  1  0
 42 43  1  0
 42 44  2  0
 44 45  1  0
 44 46  1  0
 36 47  1  0
 47 48  1  0
 47 49  2  0
 49 50  1  0
 26 51  1  0
 51 52  2  0
  8  3  2  0
 52 10  1  0
 52 14  1  0
 22 17  1  0
 49 31  1  0
 46 40  1  0
M  CHG  5   4  -1   7  -1   9  -1  25  -1  41  -1
M  END
>  <UniqueID>  (63) 
59

>  <SMILES>  (63) 
O=C(N=c1[n-]ccs1)c1ccc(CN=c2nc3/c(=C\c4[n-]c(=O)[n-]c4[O-])cnn3c(=NC3CC3)[n-]2)cc1

>  <Energy>  (63) 
444.1029193160087

>  <Genealogy>  (63) 
O=C(N=c1[n-]ccs1)c1ccc(CN=c2nc3c(=Cc4[n-]c(=O)[n-]c4[O-])cnn3c(=NC3CC3)[n-]2)cc1 (protonated)
O=C(N=c1[n-]ccs1)c1ccc(CN=c2nc3/c(=C\c4[n-]c(=O)[n-]c4[O-])cnn3c(=NC3CC3)[n-]2)cc1 (cis-trans isomerization)
O=C(N=c1[n-]ccs1)c1ccc(CN=c2nc3/c(=C\c4[n-]c(=O)[n-]c4[O-])cnn3c(=NC3CC3)[n-]2)cc1 (3D coordinates assigned)
O=C(N=c1[n-]ccs1)c1ccc(CN=c2nc3/c(=C\c4[n-]c(=O)[n-]c4[O-])cnn3c(=NC3CC3)[n-]2)cc1 (nonaromatic ring conformer: 444.1029193160087 kcal/mol)

>  <smiles>  (63) 
O=C(N=c1[nH]ccs1)c1ccc(CN=c2nc3c(=Cc4[nH]c(=O)[nH]c4O)cnn3c(=NC3CC3)[nH]2)cc1

>  <score_type>  (63) 
oracle

>  <origin>  (63) 
adg

>  <m_score__min__energy>  (63) 
-21.73

>  <m_primary>  (63) 
energy

$$$$
63:0
     RDKit          3D

 42 44  0  0  0  0  0  0  0  0999 V2000
   55.9510   27.1950   45.6730 N   0  0  0  0  0  0  0  0  0  0  0  0
   55.7270   25.7840   45.7020 C   0  0  0  0  0  0  0  0  0  0  0  0
   54.5670   25.3500   45.9360 O   0  0  0  0  0  0  0  0  0  0  0  0
   56.8380   24.8270   45.5250 C   0  0  0  0  0  0  0  0  0  0  0  0
   56.6140   23.4990   45.1270 C   0  0  0  0  0  0  0  0  0  0  0  0
   57.7560   22.7060   45.1370 C   0  0  0  0  0  0  0  0  0  0  0  0
   59.0570   23.6500   45.6270 S   0  0  0  0  0  0  0  0  0  0  0  0
   58.1860   25.0730   45.8130 C   0  0  0  0  0  0  0  0  0  0  0  0
   58.7850   26.3140   46.1970 N   0  0  0  0  0  0  0  0  0  0  0  0
   58.8640   27.4740   45.3620 C   0  0  0  0  0  0  0  0  0  0  0  0
   58.6050   27.3700   44.1320 O   0  0  0  0  0  0  0  0  0  0  0  0
   59.2840   28.7870   45.9210 C   0  0  0  0  0  0  0  0  0  0  0  0
   60.6560   29.0230   46.1420 C   0  0  0  0  0  0  0  0  0  0  0  0
   61.0980   30.2450   46.6460 C   0  0  0  0  0  0  0  0  0  0  0  0
   60.1840   31.2590   46.9210 C   0  0  0  0  0  0  0  0  0  0  0  0
   58.8220   31.0520   46.7020 C   0  0  0  0  0  0  0  0  0  0  0  0
   58.3520   29.8140   46.2230 C   0  0  0  0  0  0  0  0  0  0  0  0
   56.9540   29.6140   45.9540 N   0  0  0  0  0  0  0  0  0  0  0  0
   56.2470   29.9080   44.7400 C   0  0  0  0  0  0  0  0  0  0  0  0
   55.1210   29.3890   44.5110 O   0  0  0  0  0  0  0  0  0  0  0  0
   56.8870   30.7460   43.6710 C   0  0  0  0  0  0  0  0  0  0  0  0
   57.3920   32.0640   44.1980 C   0  0  0  0  0  0  0  0  0  0  0  0
   56.7150   32.7210   45.2400 C   0  0  0  0  0  0  0  0  0  0  0  0
   57.1800   33.9510   45.7170 C   0  0  0  0  0  0  0  0  0  0  0  0
   58.3140   34.5390   45.1500 C   0  0  0  0  0  0  0  0  0  0  0  0
   58.9850   33.8980   44.1070 C   0  0  0  0  0  0  0  0  0  0  0  0
   58.5270   32.6660   43.6290 C   0  0  0  0  0  0  0  0  0  0  0  0
   56.9160   27.5880   45.6270 H   0  0  0  0  0  0  0  0  0  0  0  0
   55.1490   27.8550   45.7710 H   0  0  0  0  0  0  0  0  0  0  0  0
   55.6238   23.1202   44.8336 H   0  0  0  0  0  0  0  0  0  0  0  0
   57.8004   21.6400   44.8692 H   0  0  0  0  0  0  0  0  0  0  0  0
   61.3868   28.2331   45.9139 H   0  0  0  0  0  0  0  0  0  0  0  0
   62.1706   30.4087   46.8268 H   0  0  0  0  0  0  0  0  0  0  0  0
   60.5367   32.2249   47.3116 H   0  0  0  0  0  0  0  0  0  0  0  0
   58.1081   31.8638   46.9055 H   0  0  0  0  0  0  0  0  0  0  0  0
   57.7340   30.1882   43.2450 H   0  0  0  0  0  0  0  0  0  0  0  0
   56.1216   30.9606   42.9107 H   0  0  0  0  0  0  0  0  0  0  0  0
   55.8162   32.2662   45.6820 H   0  0  0  0  0  0  0  0  0  0  0  0
   56.6524   34.4561   46.5395 H   0  0  0  0  0  0  0  0  0  0  0  0
   58.6778   35.5068   45.5255 H   0  0  0  0  0  0  0  0  0  0  0  0
   59.8761   34.3630   43.6601 H   0  0  0  0  0  0  0  0  0  0  0  0
   59.0572   32.1665   42.8047 H   0  0  0  0  0  0  0  0  0  0  0  0
  1  2  1  0
  2  3  2  0
  2  4  1  0
  4  5  1  0
  5  6  2  0
  6  7  1  0
  7  8  1  0
  8  9  1  0
  9 10  1  0
 10 11  2  0
 10 12  1  0
 12 13  2  0
 13 14  1  0
 14 15  2  0
 15 16  1  0
 16 17  2  0
 17 18  1  0
 18 19  1  0
 19 20  2  0
 19 21  1  0
 21 22  1  0
 22 23  2  0
 23 24  1  0
 24 25  2  0
 25 26  1  0
 26 27  2  0
  8  4  2  0
 17 12  1  0
 27 22  1  0
  1 28  1  0
  1 29  1  0
  5 30  1  0
  6 31  1  0
 13 32  1  0
 14 33  1  0
 15 34  1  0
 16 35  1  0
 21 36  1  0
 21 37  1  0
 23 38  1  0
 24 39  1  0
 25 40  1  0
 26 41  1  0
 27 42  1  0
M  CHG  2   9  -1  18  -1
M  END
>  <UniqueID>  (64) 
60

>  <SMILES>  (64) 
NC(=O)c1ccsc1[N-]C(=O)c1ccccc1[N-]C(=O)Cc1ccccc1

>  <Energy>  (64) 
78.9108724116072

>  <Genealogy>  (64) 
NC(=O)c1ccsc1[N-]C(=O)c1ccccc1[N-]C(=O)Cc1ccccc1 (protonated)
NC(=O)c1ccsc1[N-]C(=O)c1ccccc1[N-]C(=O)Cc1ccccc1 (3D coordinates assigned)
NC(=O)c1ccsc1[N-]C(=O)c1ccccc1[N-]C(=O)Cc1ccccc1 (optimized conformer: 78.9108724116072 kcal/mol)

>  <smiles>  (64) 
NC(=O)c1ccsc1NC(=O)c1ccccc1NC(=O)Cc1ccccc1

>  <score_type>  (64) 
oracle

>  <origin>  (64) 
adg

>  <m_score__min__energy>  (64) 
-12.630000000000001

>  <m_primary>  (64) 
energy

$$$$
64:0
     RDKit          3D

 50 53  0  0  0  0  0  0  0  0999 V2000
   56.4450   24.5750   46.7690 C   0  0  0  0  0  0  0  0  0  0  0  0
   56.2500   25.9670   46.2460 C   0  0  0  0  0  0  0  0  0  0  0  0
   55.0750   26.3510   45.9910 O   0  0  0  0  0  0  0  0  0  0  0  0
   57.3930   26.8910   46.0230 C   0  0  0  0  0  0  0  0  0  0  0  0
   57.6550   27.3900   44.7340 C   0  0  0  0  0  0  0  0  0  0  0  0
   58.7130   28.2760   44.5160 C   0  0  0  0  0  0  0  0  0  0  0  0
   59.5230   28.6770   45.5780 C   0  0  0  0  0  0  0  0  0  0  0  0
   59.2920   28.1820   46.8690 C   0  0  0  0  0  0  0  0  0  0  0  0
   60.1250   28.6620   48.0280 C   0  0  0  0  0  0  0  0  0  0  0  0
   60.3900   30.0940   47.8950 N   0  0  0  0  0  0  0  0  0  0  0  0
   61.0520   30.7130   46.8060 C   0  0  0  0  0  0  0  0  0  0  0  0
   61.8470   30.1100   46.0370 O   0  0  0  0  0  0  0  0  0  0  0  0
   60.7190   32.0510   46.6580 O   0  0  0  0  0  0  0  0  0  0  0  0
   59.7520   32.4270   47.6450 C   0  0  1  0  0  0  0  0  0  0  0  0
   60.2950   33.5640   48.5400 C   0  0  0  0  0  0  0  0  0  0  0  0
   61.7660   33.4080   48.8430 C   0  0  0  0  0  0  0  0  0  0  0  0
   62.1910   33.1010   50.1460 C   0  0  0  0  0  0  0  0  0  0  0  0
   63.5550   32.9980   50.4360 C   0  0  0  0  0  0  0  0  0  0  0  0
   64.5030   33.2020   49.4290 C   0  0  0  0  0  0  0  0  0  0  0  0
   64.0880   33.5130   48.1320 C   0  0  0  0  0  0  0  0  0  0  0  0
   62.7250   33.6170   47.8380 C   0  0  0  0  0  0  0  0  0  0  0  0
   58.4420   32.8190   46.9930 C   0  0  0  0  0  0  0  0  0  0  0  0
   58.0160   33.9960   47.1240 O   0  0  0  0  0  0  0  0  0  0  0  0
   57.6110   31.8550   46.3330 N   0  0  0  0  0  0  0  0  0  0  0  0
   57.4640   31.7370   45.0480 C   0  0  0  0  0  0  0  0  0  0  0  0
   56.7150   30.7570   44.4980 N   0  0  0  0  0  0  0  0  0  0  0  0
   56.6810   30.8510   43.1410 C   0  0  0  0  0  0  0  0  0  0  0  0
   57.3970   31.9170   42.6160 C   0  0  0  0  0  0  0  0  0  0  0  0
   57.5460   32.3140   40.9170 Cl  0  0  0  0  0  0  0  0  0  0  0  0
   58.0990   32.7780   43.8760 S   0  0  0  0  0  0  0  0  0  0  0  0
   59.5750   31.1410   48.4090 C   0  0  0  0  0  0  0  0  0  0  0  0
   58.7930   30.9900   49.3860 O   0  0  0  0  0  0  0  0  0  0  0  0
   58.2250   27.2940   47.0870 C   0  0  0  0  0  0  0  0  0  0  0  0
   56.4425   24.5928   47.8689 H   0  0  0  0  0  0  0  0  0  0  0  0
   55.6283   23.9310   46.4109 H   0  0  0  0  0  0  0  0  0  0  0  0
   57.4072   24.1802   46.4109 H   0  0  0  0  0  0  0  0  0  0  0  0
   57.0211   27.0798   43.8902 H   0  0  0  0  0  0  0  0  0  0  0  0
   58.9078   28.6586   43.5032 H   0  0  0  0  0  0  0  0  0  0  0  0
   60.3466   29.3846   45.4019 H   0  0  0  0  0  0  0  0  0  0  0  0
   59.5828   28.4777   48.9672 H   0  0  0  0  0  0  0  0  0  0  0  0
   61.0807   28.1174   48.0355 H   0  0  0  0  0  0  0  0  0  0  0  0
   60.1407   34.5233   48.0243 H   0  0  0  0  0  0  0  0  0  0  0  0
   59.7509   33.5267   49.4953 H   0  0  0  0  0  0  0  0  0  0  0  0
   61.4481   32.9410   50.9413 H   0  0  0  0  0  0  0  0  0  0  0  0
   63.8825   32.7561   51.4579 H   0  0  0  0  0  0  0  0  0  0  0  0
   65.5756   33.1176   49.6580 H   0  0  0  0  0  0  0  0  0  0  0  0
   64.8345   33.6763   47.3408 H   0  0  0  0  0  0  0  0  0  0  0  0
   62.4024   33.8635   46.8157 H   0  0  0  0  0  0  0  0  0  0  0  0
   56.1295   30.1383   42.5102 H   0  0  0  0  0  0  0  0  0  0  0  0
   58.0368   26.9088   48.1000 H   0  0  0  0  0  0  0  0  0  0  0  0
  1  2  1  0
  2  3  2  0
  2  4  1  0
  4  5  2  0
  5  6  1  0
  6  7  2  0
  7  8  1  0
  8  9  1  0
  9 10  1  0
 10 11  1  0
 11 12  2  0
 11 13  1  0
 13 14  1  0
 14 15  1  1
 15 16  1  0
 16 17  2  0
 17 18  1  0
 18 19  2  0
 19 20  1  0
 20 21  2  0
 14 22  1  0
 22 23  2  0
 22 24  1  0
 24 25  2  3
 25 26  1  0
 26 27  1  0
 27 28  2  0
 28 29  1  0
 28 30  1  0
 14 31  1  0
 31 32  2  0
  8 33  2  0
 33  4  1  0
 31 10  1  0
 21 16  1  0
 30 25  1  0
  1 34  1  0
  1 35  1  0
  1 36  1  0
  5 37  1  0
  6 38  1  0
  7 39  1  0
  9 40  1  0
  9 41  1  0
 15 42  1  0
 15 43  1  0
 17 44  1  0
 18 45  1  0
 19 46  1  0
 20 47  1  0
 21 48  1  0
 27 49  1  0
 33 50  1  0
M  CHG  1  26  -1
M  END
>  <UniqueID>  (65) 
61

>  <SMILES>  (65) 
CC(=O)c1cccc(CN2C(=O)O[C@@](Cc3ccccc3)(C(=O)N=c3[n-]cc(Cl)s3)C2=O)c1

>  <Energy>  (65) 
109.20000620353905

>  <Genealogy>  (65) 
CC(=O)c1cccc(CN2C(=O)OC(Cc3ccccc3)(C(=O)N=c3[n-]cc(Cl)s3)C2=O)c1 (protonated)
CC(=O)c1cccc(CN2C(=O)O[C@@](Cc3ccccc3)(C(=O)N=c3[n-]cc(Cl)s3)C2=O)c1 (chirality)
CC(=O)c1cccc(CN2C(=O)O[C@@](Cc3ccccc3)(C(=O)N=c3[n-]cc(Cl)s3)C2=O)c1 (3D coordinates assigned)
CC(=O)c1cccc(CN2C(=O)O[C@@](Cc3ccccc3)(C(=O)N=c3[n-]cc(Cl)s3)C2=O)c1 (nonaromatic ring conformer: 109.20000620353905 kcal/mol)

>  <smiles>  (65) 
CC(=O)c1cccc(CN2C(=O)OC(Cc3ccccc3)(C(=O)N=c3[nH]cc(Cl)s3)C2=O)c1

>  <score_type>  (65) 
oracle

>  <origin>  (65) 
adg

>  <m_score__min__energy>  (65) 
-11.359999999999999

>  <m_primary>  (65) 
energy

$$$$
65:0
     RDKit          3D

 52 56  0  0  0  0  0  0  0  0999 V2000
   58.6780   27.4960   43.5610 C   0  0  0  0  0  0  0  0  0  0  0  0
   58.8530   27.3280   45.0400 C   0  0  0  0  0  0  0  0  0  0  0  0
   60.1130   27.2050   45.6460 C   0  0  0  0  0  0  0  0  0  0  0  0
   60.0600   27.1080   47.0290 C   0  0  0  0  0  0  0  0  0  0  0  0
   58.4490   27.1750   47.5020 S   0  0  0  0  0  0  0  0  0  0  0  0
   57.8000   27.3190   45.9570 C   0  0  0  0  0  0  0  0  0  0  0  0
   56.3630   27.4810   45.6530 C   0  0  0  0  0  0  0  0  0  0  0  0
   55.5520   26.5860   46.0100 O   0  0  0  0  0  0  0  0  0  0  0  0
   55.8550   28.6530   44.9960 N   0  0  0  0  0  0  0  0  0  0  0  0
   56.6020   29.8160   44.5920 C   0  0  0  0  0  0  0  0  0  0  0  0
   57.3890   30.5000   45.5650 C   0  0  0  0  0  0  0  0  0  0  0  0
   58.1730   31.6950   45.5440 C   0  0  0  0  0  0  0  0  0  0  0  0
   58.7070   32.1870   46.7500 O   0  0  0  0  0  0  0  0  0  0  0  0
   60.0690   32.2990   47.0570 C   0  0  0  0  0  0  0  0  0  0  0  0
   60.6200   33.5660   47.2730 C   0  0  0  0  0  0  0  0  0  0  0  0
   61.9660   33.6990   47.6250 C   0  0  0  0  0  0  0  0  0  0  0  0
   62.7820   32.5650   47.7600 C   0  0  0  0  0  0  0  0  0  0  0  0
   64.1650   32.7310   48.1160 N   0  0  0  0  0  0  0  0  0  0  0  0
   64.6370   32.8970   49.4620 C   0  0  0  0  0  0  0  0  0  0  0  0
   63.8370   33.2350   50.3780 O   0  0  0  0  0  0  0  0  0  0  0  0
   66.1140   32.8110   49.7550 C   0  0  0  0  0  0  0  0  0  0  0  0
   66.5080   31.5790   50.5700 C   0  0  0  0  0  0  0  0  0  0  0  0
   67.0010   32.4780   51.6960 C   0  0  0  0  0  0  0  0  0  0  0  0
   66.5920   33.7080   50.8990 C   0  0  0  0  0  0  0  0  0  0  0  0
   62.2390   31.2960   47.4880 C   0  0  0  0  0  0  0  0  0  0  0  0
   60.8920   31.1650   47.1390 C   0  0  0  0  0  0  0  0  0  0  0  0
   58.4260   32.4520   44.4450 N   0  0  0  0  0  0  0  0  0  0  0  0
   57.9800   32.1780   43.2360 N   0  0  0  0  0  0  0  0  0  0  0  0
   58.0900   32.7260   42.0060 C   0  0  0  0  0  0  0  0  0  0  0  0
   57.2840   31.7280   41.4730 C   0  0  0  0  0  0  0  0  0  0  0  0
   57.1630   31.1720   42.7210 C   0  0  0  0  0  0  0  0  0  0  0  0
   56.5370   30.1300   43.2740 N   0  0  0  0  0  0  0  0  0  0  0  0
   57.8969   28.2459   43.3670 H   0  0  0  0  0  0  0  0  0  0  0  0
   59.6263   27.8306   43.1152 H   0  0  0  0  0  0  0  0  0  0  0  0
   58.3823   26.5348   43.1152 H   0  0  0  0  0  0  0  0  0  0  0  0
   61.0546   27.1872   45.0775 H   0  0  0  0  0  0  0  0  0  0  0  0
   60.9248   27.0049   47.7010 H   0  0  0  0  0  0  0  0  0  0  0  0
   57.3937   29.9992   46.5444 H   0  0  0  0  0  0  0  0  0  0  0  0
   59.9911   34.4621   47.1654 H   0  0  0  0  0  0  0  0  0  0  0  0
   62.3889   34.6997   47.7975 H   0  0  0  0  0  0  0  0  0  0  0  0
   64.8650   32.8090   47.3440 H   0  0  0  0  0  0  0  0  0  0  0  0
   66.4980   32.9636   48.7356 H   0  0  0  0  0  0  0  0  0  0  0  0
   65.6605   30.9353   50.8482 H   0  0  0  0  0  0  0  0  0  0  0  0
   67.1713   30.8154   50.1376 H   0  0  0  0  0  0  0  0  0  0  0  0
   66.4530   32.3538   52.6416 H   0  0  0  0  0  0  0  0  0  0  0  0
   68.0285   32.3790   52.0761 H   0  0  0  0  0  0  0  0  0  0  0  0
   65.7931   34.3012   51.3679 H   0  0  0  0  0  0  0  0  0  0  0  0
   67.3168   34.5132   50.7084 H   0  0  0  0  0  0  0  0  0  0  0  0
   62.8777   30.4026   47.5503 H   0  0  0  0  0  0  0  0  0  0  0  0
   60.4752   30.1692   46.9277 H   0  0  0  0  0  0  0  0  0  0  0  0
   58.6074   33.6050   41.5941 H   0  0  0  0  0  0  0  0  0  0  0  0
   56.9026   31.4853   40.4702 H   0  0  0  0  0  0  0  0  0  0  0  0
  1  2  1  0
  2  3  1  0
  3  4  2  0
  4  5  1  0
  5  6  1  0
  6  7  1  0
  7  8  2  0
  7  9  1  0
  9 10  1  0
 10 11  2  0
 11 12  1  0
 12 13  1  0
 13 14  1  0
 14 15  2  0
 15 16  1  0
 16 17  2  0
 17 18  1  0
 18 19  1  0
 19 20  2  0
 19 21  1  0
 21 22  1  0
 22 23  1  0
 23 24  1  0
 17 25  1  0
 25 26  2  0
 12 27  2  0
 27 28  1  0
 28 29  1  0
 29 30  2  0
 30 31  1  0
 31 32  2  0
  6  2  2  0
 32 10  1  0
 26 14  1  0
 31 28  1  0
 24 21  1  0
  1 33  1  0
  1 34  1  0
  1 35  1  0
  3 36  1  0
  4 37  1  0
 11 38  1  0
 15 39  1  0
 16 40  1  0
 18 41  1  0
 21 42  1  0
 22 43  1  0
 22 44  1  0
 23 45  1  0
 23 46  1  0
 24 47  1  0
 24 48  1  0
 25 49  1  0
 26 50  1  0
 29 51  1  0
 30 52  1  0
M  CHG  1   9  -1
M  END
>  <UniqueID>  (66) 
62

>  <SMILES>  (66) 
Cc1ccsc1C(=O)[N-]c1cc(Oc2ccc(NC(=O)C3CCC3)cc2)nn2ccc-2n1

>  <Energy>  (66) 
164.85157112639382

>  <Genealogy>  (66) 
Cc1ccsc1C(=O)[N-]c1cc(Oc2ccc(NC(=O)C3CCC3)cc2)nn2ccc-2n1 (protonated)
Cc1ccsc1C(=O)[N-]c1cc(Oc2ccc(NC(=O)C3CCC3)cc2)nn2ccc-2n1 (3D coordinates assigned)
Cc1ccsc1C(=O)[N-]c1cc(Oc2ccc(NC(=O)C3CCC3)cc2)nn2ccc-2n1 (nonaromatic ring conformer: 164.85157112639382 kcal/mol)

>  <smiles>  (66) 
Cc1ccsc1C(=O)Nc1cc(Oc2ccc(NC(=O)C3CCC3)cc2)nn2ccc-2n1

>  <score_type>  (66) 
oracle

>  <origin>  (66) 
adg

>  <m_score__min__energy>  (66) 
-10.68

>  <m_primary>  (66) 
energy

$$$$
66:0
     RDKit          3D

 57 59  0  0  0  0  0  0  0  0999 V2000
   57.3520   31.2460   42.8210 C   0  0  0  0  0  0  0  0  0  0  0  0
   57.3670   30.0090   43.7320 C   0  0  0  0  0  0  0  0  0  0  0  0
   58.6930   29.6870   44.3030 N   0  0  0  0  0  0  0  0  0  0  0  0
   59.1220   28.2880   44.1100 C   0  0  0  0  0  0  0  0  0  0  0  0
   58.3610   27.3930   45.0520 C   0  0  0  0  0  0  0  0  0  0  0  0
   59.0430   26.5090   45.9040 C   0  0  0  0  0  0  0  0  0  0  0  0
   58.3310   25.6650   46.7590 C   0  0  0  0  0  0  0  0  0  0  0  0
   56.9310   25.7160   46.8110 C   0  0  0  0  0  0  0  0  0  0  0  0
   56.2770   24.8230   47.6670 O   0  0  0  0  0  0  0  0  0  0  0  0
   55.4960   23.7120   47.2380 C   0  0  0  0  0  0  0  0  0  0  0  0
   56.4440   22.6180   46.7340 C   0  0  0  0  0  0  0  0  0  0  0  0
   56.1950   22.3350   45.3020 N   0  0  0  0  0  0  0  0  0  0  0  0
   56.1830   23.5740   44.4950 C   0  0  0  0  0  0  0  0  0  0  0  0
   55.8610   23.2500   43.0190 C   0  0  0  0  0  0  0  0  0  0  0  0
   55.9570   21.8670   42.7320 O   0  0  0  0  0  0  0  0  0  0  0  0
   57.1740   21.3500   43.2300 C   0  0  0  0  0  0  0  0  0  0  0  0
   57.1850   21.3790   44.7700 C   0  0  0  0  0  0  0  0  0  0  0  0
   56.2460   26.6300   45.9830 C   0  0  0  0  0  0  0  0  0  0  0  0
   54.8580   26.7020   45.9960 O   0  0  0  0  0  0  0  0  0  0  0  0
   56.9600   27.4640   45.1180 C   0  0  0  0  0  0  0  0  0  0  0  0
   58.9530   30.2950   45.9300 S   0  0  0  0  0  0  0  0  0  0  0  0
   57.7730   29.9290   46.7860 O   0  0  0  0  0  0  0  0  0  0  0  0
   60.1650   29.6190   46.5140 O   0  0  0  0  0  0  0  0  0  0  0  0
   59.1700   32.0500   46.0160 C   0  0  0  0  0  0  0  0  0  0  0  0
   60.2800   32.5940   46.6810 C   0  0  0  0  0  0  0  0  0  0  0  0
   60.4410   33.9770   46.7760 C   0  0  0  0  0  0  0  0  0  0  0  0
   59.4850   34.8370   46.2250 C   0  0  0  0  0  0  0  0  0  0  0  0
   59.6550   36.2160   46.3320 O   0  0  0  0  0  0  0  0  0  0  0  0
   58.3600   34.3020   45.5830 C   0  0  0  0  0  0  0  0  0  0  0  0
   58.1990   32.9170   45.4870 C   0  0  0  0  0  0  0  0  0  0  0  0
   57.3410   32.1561   43.4387 H   0  0  0  0  0  0  0  0  0  0  0  0
   58.2502   31.2447   42.1860 H   0  0  0  0  0  0  0  0  0  0  0  0
   56.4541   31.2229   42.1860 H   0  0  0  0  0  0  0  0  0  0  0  0
   56.6681   30.1852   44.5630 H   0  0  0  0  0  0  0  0  0  0  0  0
   57.0792   29.1530   43.1040 H   0  0  0  0  0  0  0  0  0  0  0  0
   58.9210   27.9831   43.0724 H   0  0  0  0  0  0  0  0  0  0  0  0
   60.1993   28.2040   44.3158 H   0  0  0  0  0  0  0  0  0  0  0  0
   60.1426   26.4813   45.8978 H   0  0  0  0  0  0  0  0  0  0  0  0
   58.8741   24.9531   47.3980 H   0  0  0  0  0  0  0  0  0  0  0  0
   54.9014   23.3288   48.0804 H   0  0  0  0  0  0  0  0  0  0  0  0
   54.8128   24.0196   46.4327 H   0  0  0  0  0  0  0  0  0  0  0  0
   57.4839   22.9534   46.8612 H   0  0  0  0  0  0  0  0  0  0  0  0
   56.2679   21.7000   47.3138 H   0  0  0  0  0  0  0  0  0  0  0  0
   55.4181   24.2578   44.8915 H   0  0  0  0  0  0  0  0  0  0  0  0
   57.1752   24.0458   44.5493 H   0  0  0  0  0  0  0  0  0  0  0  0
   54.8364   23.5850   42.8002 H   0  0  0  0  0  0  0  0  0  0  0  0
   56.6006   23.7722   42.3942 H   0  0  0  0  0  0  0  0  0  0  0  0
   57.2930   20.3116   42.8870 H   0  0  0  0  0  0  0  0  0  0  0  0
   58.0021   21.9708   42.8575 H   0  0  0  0  0  0  0  0  0  0  0  0
   56.9489   20.3732   45.1477 H   0  0  0  0  0  0  0  0  0  0  0  0
   58.1842   21.6983   45.1011 H   0  0  0  0  0  0  0  0  0  0  0  0
   56.4199   28.1821   44.4835 H   0  0  0  0  0  0  0  0  0  0  0  0
   61.0286   31.9252   47.1307 H   0  0  0  0  0  0  0  0  0  0  0  0
   61.3227   34.3924   47.2859 H   0  0  0  0  0  0  0  0  0  0  0  0
   59.2200   36.7440   47.0800 H   0  0  0  0  0  0  0  0  0  0  0  0
   57.6020   34.9736   45.1537 H   0  0  0  0  0  0  0  0  0  0  0  0
   57.3068   32.5032   44.9944 H   0  0  0  0  0  0  0  0  0  0  0  0
  1  2  1  0
  2  3  1  0
  3  4  1  0
  4  5  1  0
  5  6  2  0
  6  7  1  0
  7  8  2  0
  8  9  1  0
  9 10  1  0
 10 11  1  0
 11 12  1  0
 12 13  1  0
 13 14  1  0
 14 15  1  0
 15 16  1  0
 16 17  1  0
  8 18  1  0
 18 19  1  0
 18 20  2  0
  3 21  1  0
 21 22  2  0
 21 23  2  0
 21 24  1  0
 24 25  2  0
 25 26  1  0
 26 27  2  0
 27 28  1  0
 27 29  1  0
 29 30  2  0
 20  5  1  0
 30 24  1  0
 17 12  1  0
  1 31  1  0
  1 32  1  0
  1 33  1  0
  2 34  1  0
  2 35  1  0
  4 36  1  0
  4 37  1  0
  6 38  1  0
  7 39  1  0
 10 40  1  0
 10 41  1  0
 11 42  1  0
 11 43  1  0
 13 44  1  0
 13 45  1  0
 14 46  1  0
 14 47  1  0
 16 48  1  0
 16 49  1  0
 17 50  1  0
 17 51  1  0
 20 52  1  0
 25 53  1  0
 26 54  1  0
 28 55  1  0
 29 56  1  0
 30 57  1  0
M  CHG  1  19  -1
M  END
>  <UniqueID>  (67) 
63

>  <SMILES>  (67) 
CCN(Cc1ccc(OCCN2CCOCC2)c([O-])c1)S(=O)(=O)c1ccc(O)cc1

>  <Energy>  (67) 
75.86926418657478

>  <Genealogy>  (67) 
CCN(Cc1ccc(OCCN2CCOCC2)c([O-])c1)S(=O)(=O)c1ccc(O)cc1 (protonated)
CCN(Cc1ccc(OCCN2CCOCC2)c([O-])c1)S(=O)(=O)c1ccc(O)cc1 (3D coordinates assigned)
CCN(Cc1ccc(OCCN2CCOCC2)c([O-])c1)S(=O)(=O)c1ccc(O)cc1 (nonaromatic ring conformer: 75.86926418657478 kcal/mol)

>  <smiles>  (67) 
CCN(Cc1ccc(OCCN2CCOCC2)c(O)c1)S(=O)(=O)c1ccc(O)cc1

>  <score_type>  (67) 
oracle

>  <origin>  (67) 
adg

>  <m_score__min__energy>  (67) 
-13.119999999999999

>  <m_primary>  (67) 
energy

$$$$
67:0
     RDKit          3D

 31 32  0  0  1  0  0  0  0  0999 V2000
   60.2250   29.4210   46.4440 C   0  0  0  0  0  0  0  0  0  0  0  0
   59.6520   29.0580   45.0470 C   0  0  0  0  0  0  0  0  0  0  0  0
   58.4750   28.3000   45.3840 C   0  0  0  0  0  0  0  0  0  0  0  0
   58.7010   26.9570   45.6570 N   0  0  0  0  0  0  0  0  0  0  0  0
   57.7130   26.1360   45.8840 N   0  0  0  0  0  0  0  0  0  0  0  0
   56.4290   26.5130   45.8740 C   0  0  0  0  0  0  0  0  0  0  0  0
   55.5320   25.6940   46.0940 O   0  0  0  0  0  0  0  0  0  0  0  0
   56.1400   27.7950   45.6210 N   0  0  0  0  0  0  0  0  0  0  0  0
   57.1650   28.6610   45.3840 C   0  0  0  0  0  0  0  0  0  0  0  0
   56.8430   29.8770   45.2590 N   0  0  0  0  0  0  0  0  0  0  0  0
   57.1090   30.5960   44.0540 C   0  0  0  0  0  0  0  0  0  0  0  0
   57.6760   31.8710   44.6830 C   0  0  0  0  0  0  0  0  0  0  0  0
   58.0860   32.9290   43.9010 C   0  0  0  0  0  0  0  0  0  0  0  0
   58.5980   34.0570   44.5070 C   0  0  0  0  0  0  0  0  0  0  0  0
   58.6690   34.0490   45.8750 C   0  0  0  0  0  0  0  0  0  0  0  0
   58.2700   33.0140   46.6830 C   0  0  0  0  0  0  0  0  0  0  0  0
   57.7610   31.8960   46.0700 C   0  0  0  0  0  0  0  0  0  0  0  0
   59.5722   29.0074   47.2268 H   0  0  0  0  0  0  0  0  0  0  0  0
   61.2350   28.9976   46.5474 H   0  0  0  0  0  0  0  0  0  0  0  0
   60.2737   30.5151   46.5474 H   0  0  0  0  0  0  0  0  0  0  0  0
   59.3935   29.9617   44.4757 H   0  0  0  0  0  0  0  0  0  0  0  0
   60.3611   28.5093   44.4098 H   0  0  0  0  0  0  0  0  0  0  0  0
   57.9040   25.1270   46.0880 H   0  0  0  0  0  0  0  0  0  0  0  0
   55.1460   28.1260   45.6050 H   0  0  0  0  0  0  0  0  0  0  0  0
   57.8451   30.0832   43.4174 H   0  0  0  0  0  0  0  0  0  0  0  0
   56.2534   30.7329   43.3763 H   0  0  0  0  0  0  0  0  0  0  0  0
   58.0057   32.8744   42.8053 H   0  0  0  0  0  0  0  0  0  0  0  0
   58.9340   34.9236   43.9187 H   0  0  0  0  0  0  0  0  0  0  0  0
   59.0788   34.9443   46.3653 H   0  0  0  0  0  0  0  0  0  0  0  0
   58.3546   33.0776   47.7779 H   0  0  0  0  0  0  0  0  0  0  0  0
   57.4261   31.0346   46.6665 H   0  0  0  0  0  0  0  0  0  0  0  0
  1  2  1  0
  2  3  1  0
  3  4  2  0
  4  5  1  0
  5  6  1  0
  6  7  2  0
  6  8  1  0
  8  9  1  0
  9 10  2  0
 10 11  1  0
 11 12  1  0
 12 13  2  0
 13 14  1  0
 14 15  2  0
 15 16  1  0
 16 17  2  0
  9  3  1  0
 17 12  1  0
  1 18  1  0
  1 19  1  0
  1 20  1  0
  2 21  1  0
  2 22  1  0
  5 23  1  0
  8 24  1  0
 11 25  1  0
 11 26  1  0
 13 27  1  0
 14 28  1  0
 15 29  1  0
 16 30  1  0
 17 31  1  0
M  END
>  <smiles>  (68) 
CCc1n[nH]c(=O)[nH]c1=NCc1ccccc1

>  <score_type>  (68) 
oracle

>  <origin>  (68) 
adg

>  <m_score__min__energy>  (68) 
-7.3799999999999999

>  <m_primary>  (68) 
energy

$$$$
68:0
     RDKit          3D

 28 30  0  0  0  0  0  0  0  0999 V2000
   55.4480   29.4990   44.8100 O   0  0  0  0  0  0  0  0  0  0  0  0
   56.6050   29.0440   45.0180 C   0  0  0  0  0  0  0  0  0  0  0  0
   56.7600   27.6250   45.3930 C   0  0  0  0  0  0  0  0  0  0  0  0
   57.9310   26.8960   45.2890 C   0  0  0  0  0  0  0  0  0  0  0  0
   57.6300   25.6170   45.7090 C   0  0  0  0  0  0  0  0  0  0  0  0
   56.2890   25.6150   46.0400 C   0  0  0  0  0  0  0  0  0  0  0  0
   55.7640   26.8380   45.8430 N   0  0  0  0  0  0  0  0  0  0  0  0
   57.7440   29.9160   44.8920 N   0  0  0  0  0  0  0  0  0  0  0  0
   58.9090   29.7430   45.7750 C   0  0  0  0  0  0  0  0  0  0  0  0
   58.9850   30.9030   46.7780 C   0  0  0  0  0  0  0  0  0  0  0  0
   58.7580   32.2040   46.0720 C   0  0  0  0  0  0  0  0  0  0  0  0
   59.0980   33.7380   46.6630 S   0  0  0  0  0  0  0  0  0  0  0  0
   58.4560   34.5770   45.3490 C   0  0  0  0  0  0  0  0  0  0  0  0
   57.9510   33.6550   44.4360 C   0  0  0  0  0  0  0  0  0  0  0  0
   58.1060   32.3270   44.8530 C   0  0  0  0  0  0  0  0  0  0  0  0
   57.6790   31.1270   44.0560 C   0  0  0  0  0  0  0  0  0  0  0  0
   58.9077   27.2631   44.9407 H   0  0  0  0  0  0  0  0  0  0  0  0
   58.3229   24.7648   45.7687 H   0  0  0  0  0  0  0  0  0  0  0  0
   55.7320   24.7417   46.4103 H   0  0  0  0  0  0  0  0  0  0  0  0
   54.7640   27.1020   45.9850 H   0  0  0  0  0  0  0  0  0  0  0  0
   58.8132   28.7938   46.3225 H   0  0  0  0  0  0  0  0  0  0  0  0
   59.8250   29.7318   45.1660 H   0  0  0  0  0  0  0  0  0  0  0  0
   58.2137   30.7680   47.5506 H   0  0  0  0  0  0  0  0  0  0  0  0
   59.9812   30.9134   47.2443 H   0  0  0  0  0  0  0  0  0  0  0  0
   58.4389   35.6707   45.2324 H   0  0  0  0  0  0  0  0  0  0  0  0
   57.4786   33.9404   43.4845 H   0  0  0  0  0  0  0  0  0  0  0  0
   56.6467   31.2719   43.7048 H   0  0  0  0  0  0  0  0  0  0  0  0
   58.3534   31.0074   43.1953 H   0  0  0  0  0  0  0  0  0  0  0  0
  1  2  2  0
  2  3  1  0
  3  4  2  0
  4  5  1  0
  5  6  2  0
  6  7  1  0
  2  8  1  0
  8  9  1  0
  9 10  1  0
 10 11  1  0
 11 12  1  0
 12 13  1  0
 13 14  2  0
 14 15  1  0
 15 16  1  0
  7  3  1  0
 16  8  1  0
 15 11  2  0
  4 17  1  0
  5 18  1  0
  6 19  1  0
  7 20  1  0
  9 21  1  0
  9 22  1  0
 10 23  1  0
 10 24  1  0
 13 25  1  0
 14 26  1  0
 16 27  1  0
 16 28  1  0
M  END
>  <UniqueID>  (69) 
64

>  <SMILES>  (69) 
O=C(c1ccc[nH]1)N1CCc2sccc2C1

>  <Energy>  (69) 
85.1696322630842

>  <Genealogy>  (69) 
O=C(c1ccc[nH]1)N1CCc2sccc2C1 (3D coordinates assigned)
O=C(c1ccc[nH]1)N1CCc2sccc2C1 (nonaromatic ring conformer: 85.1696322630842 kcal/mol)

>  <smiles>  (69) 
O=C(c1ccc[nH]1)N1CCc2sccc2C1

>  <score_type>  (69) 
oracle

>  <origin>  (69) 
adg

>  <m_score__min__energy>  (69) 
-7.0499999999999998

>  <m_primary>  (69) 
energy

$$$$
69:0
     RDKit          3D

 60 64  0  0  0  0  0  0  0  0999 V2000
   60.2830   31.3530   54.4800 O   0  0  0  0  0  0  0  0  0  0  0  0
   59.7140   31.8050   53.4500 C   0  0  0  0  0  0  0  0  0  0  0  0
   58.3040   31.6090   53.2900 N   0  0  0  0  0  0  0  0  0  0  0  0
   57.6770   30.6200   52.4130 C   0  0  0  0  0  0  0  0  0  0  0  0
   57.7730   31.0130   50.9320 C   0  0  0  0  0  0  0  0  0  0  0  0
   58.8670   30.2710   50.2320 C   0  0  0  0  0  0  0  0  0  0  0  0
   59.9030   29.5800   50.8410 C   0  0  0  0  0  0  0  0  0  0  0  0
   60.7240   28.9090   49.9290 C   0  0  0  0  0  0  0  0  0  0  0  0
   60.3300   29.0580   48.6050 C   0  0  0  0  0  0  0  0  0  0  0  0
   58.9570   30.0240   48.5680 S   0  0  0  0  0  0  0  0  0  0  0  0
   60.5250   32.4560   52.4140 C   0  0  0  0  0  0  0  0  0  0  0  0
   59.9290   33.3370   51.5050 C   0  0  0  0  0  0  0  0  0  0  0  0
   60.6840   33.8870   50.4680 C   0  0  0  0  0  0  0  0  0  0  0  0
   62.0500   33.5780   50.3500 C   0  0  0  0  0  0  0  0  0  0  0  0
   62.8300   34.0930   49.2660 N   0  0  0  0  0  0  0  0  0  0  0  0
   62.5910   33.7820   47.8890 C   0  0  0  0  0  0  0  0  0  0  0  0
   63.5720   33.7270   47.0960 O   0  0  0  0  0  0  0  0  0  0  0  0
   61.2690   33.4830   47.4090 N   0  0  0  0  0  0  0  0  0  0  0  0
   60.2560   34.5130   47.1680 C   0  0  0  0  0  0  0  0  0  0  0  0
   59.1870   33.7710   46.4550 C   0  0  0  0  0  0  0  0  0  0  0  0
   57.9850   34.2730   45.9570 C   0  0  0  0  0  0  0  0  0  0  0  0
   57.1110   33.3950   45.2990 C   0  0  0  0  0  0  0  0  0  0  0  0
   57.4400   32.0210   45.1610 C   0  0  0  0  0  0  0  0  0  0  0  0
   56.5830   31.0980   44.4730 N   0  0  0  0  0  0  0  0  0  0  0  0
   56.3280   29.7270   44.8340 C   0  0  0  0  0  0  0  0  0  0  0  0
   55.1440   29.3030   44.9290 O   0  0  0  0  0  0  0  0  0  0  0  0
   57.4590   28.8220   45.1480 C   0  0  0  0  0  0  0  0  0  0  0  0
   58.6050   28.8030   44.3340 C   0  0  0  0  0  0  0  0  0  0  0  0
   59.6690   27.9430   44.6280 C   0  0  0  0  0  0  0  0  0  0  0  0
   59.5990   27.0960   45.7340 C   0  0  0  0  0  0  0  0  0  0  0  0
   58.4640   27.1050   46.5490 C   0  0  0  0  0  0  0  0  0  0  0  0
   57.3990   27.9600   46.2570 C   0  0  0  0  0  0  0  0  0  0  0  0
   58.6710   31.5540   45.6530 C   0  0  0  0  0  0  0  0  0  0  0  0
   59.5250   32.4510   46.2960 C   0  0  0  0  0  0  0  0  0  0  0  0
   60.8560   32.1750   46.8880 C   0  0  0  0  0  0  0  0  0  0  0  0
   62.6570   32.7600   51.3020 C   0  0  0  0  0  0  0  0  0  0  0  0
   61.8960   32.1860   52.3220 C   0  0  0  0  0  0  0  0  0  0  0  0
   58.1789   29.6516   52.5556 H   0  0  0  0  0  0  0  0  0  0  0  0
   56.6110   30.5619   52.6781 H   0  0  0  0  0  0  0  0  0  0  0  0
   56.8160   30.7847   50.4399 H   0  0  0  0  0  0  0  0  0  0  0  0
   57.9983   32.0882   50.8767 H   0  0  0  0  0  0  0  0  0  0  0  0
   60.0628   29.5614   51.9292 H   0  0  0  0  0  0  0  0  0  0  0  0
   61.6008   28.3178   50.2320 H   0  0  0  0  0  0  0  0  0  0  0  0
   60.8318   28.6183   47.7304 H   0  0  0  0  0  0  0  0  0  0  0  0
   58.8649   33.5963   51.6077 H   0  0  0  0  0  0  0  0  0  0  0  0
   60.2092   34.5633   49.7419 H   0  0  0  0  0  0  0  0  0  0  0  0
   59.8833   34.9300   48.1152 H   0  0  0  0  0  0  0  0  0  0  0  0
   60.6395   35.3729   46.5993 H   0  0  0  0  0  0  0  0  0  0  0  0
   57.7276   35.3356   46.0777 H   0  0  0  0  0  0  0  0  0  0  0  0
   56.1640   33.7739   44.8870 H   0  0  0  0  0  0  0  0  0  0  0  0
   58.6657   29.4685   43.4603 H   0  0  0  0  0  0  0  0  0  0  0  0
   60.5621   27.9349   43.9858 H   0  0  0  0  0  0  0  0  0  0  0  0
   60.4367   26.4214   45.9645 H   0  0  0  0  0  0  0  0  0  0  0  0
   58.4093   26.4377   47.4218 H   0  0  0  0  0  0  0  0  0  0  0  0
   56.5063   27.9590   46.8997 H   0  0  0  0  0  0  0  0  0  0  0  0
   58.9566   30.4985   45.5331 H   0  0  0  0  0  0  0  0  0  0  0  0
   60.7817   31.4337   47.6972 H   0  0  0  0  0  0  0  0  0  0  0  0
   61.5704   31.7533   46.1656 H   0  0  0  0  0  0  0  0  0  0  0  0
   63.7385   32.5664   51.2493 H   0  0  0  0  0  0  0  0  0  0  0  0
   62.3745   31.5200   53.0552 H   0  0  0  0  0  0  0  0  0  0  0  0
  1  2  2  0
  2  3  1  0
  3  4  1  0
  4  5  1  0
  5  6  1  0
  6  7  2  0
  7  8  1  0
  8  9  2  0
  9 10  1  0
  2 11  1  0
 11 12  2  0
 12 13  1  0
 13 14  2  0
 14 15  1  0
 15 16  1  0
 16 17  2  0
 16 18  1  0
 18 19  1  0
 19 20  1  0
 20 21  2  0
 21 22  1  0
 22 23  2  0
 23 24  1  0
 24 25  1  0
 25 26  2  0
 25 27  1  0
 27 28  2  0
 28 29  1  0
 29 30  2  0
 30 31  1  0
 31 32  2  0
 23 33  1  0
 33 34  2  0
 34 35  1  0
 14 36  1  0
 36 37  2  0
 10  6  1  0
 37 11  1  0
 35 18  1  0
 34 20  1  0
 32 27  1  0
  4 38  1  0
  4 39  1  0
  5 40  1  0
  5 41  1  0
  7 42  1  0
  8 43  1  0
  9 44  1  0
 12 45  1  0
 13 46  1  0
 19 47  1  0
 19 48  1  0
 21 49  1  0
 22 50  1  0
 28 51  1  0
 29 52  1  0
 30 53  1  0
 31 54  1  0
 32 55  1  0
 33 56  1  0
 35 57  1  0
 35 58  1  0
 36 59  1  0
 37 60  1  0
M  CHG  3   3  -1  15  -1  24  -1
M  END
>  <UniqueID>  (70) 
65

>  <SMILES>  (70) 
O=C([N-]CCc1cccs1)c1ccc([N-]C(=O)N2Cc3ccc([N-]C(=O)c4ccccc4)cc3C2)cc1

>  <Energy>  (70) 
114.22632575151376

>  <Genealogy>  (70) 
O=C([N-]CCc1cccs1)c1ccc([N-]C(=O)N2Cc3ccc([N-]C(=O)c4ccccc4)cc3C2)cc1 (protonated)
O=C([N-]CCc1cccs1)c1ccc([N-]C(=O)N2Cc3ccc([N-]C(=O)c4ccccc4)cc3C2)cc1 (3D coordinates assigned)
O=C([N-]CCc1cccs1)c1ccc([N-]C(=O)N2Cc3ccc([N-]C(=O)c4ccccc4)cc3C2)cc1 (nonaromatic ring conformer: 114.22632575151376 kcal/mol)

>  <smiles>  (70) 
O=C(NCCc1cccs1)c1ccc(NC(=O)N2Cc3ccc(NC(=O)c4ccccc4)cc3C2)cc1

>  <score_type>  (70) 
oracle

>  <origin>  (70) 
adg

>  <m_score__min__energy>  (70) 
-14.08

>  <m_primary>  (70) 
energy

$$$$
70:0
     RDKit          3D

 42 44  0  0  0  0  0  0  0  0999 V2000
   57.1460   24.2760   48.2230 N   0  0  0  0  0  0  0  0  0  0  0  0
   56.7020   25.0290   47.0920 C   0  0  0  0  0  0  0  0  0  0  0  0
   55.5300   24.8470   46.6630 O   0  0  0  0  0  0  0  0  0  0  0  0
   57.5790   26.0260   46.4290 C   0  0  0  0  0  0  0  0  0  0  0  0
   58.9680   25.9840   46.6330 C   0  0  0  0  0  0  0  0  0  0  0  0
   59.8060   26.9100   46.0090 C   0  0  0  0  0  0  0  0  0  0  0  0
   59.2670   27.9000   45.1860 C   0  0  0  0  0  0  0  0  0  0  0  0
   57.8770   27.9840   45.0010 C   0  0  0  0  0  0  0  0  0  0  0  0
   57.2890   28.9920   44.1640 N   0  0  0  0  0  0  0  0  0  0  0  0
   56.7600   30.2510   44.6050 C   0  0  0  0  0  0  0  0  0  0  0  0
   55.5260   30.4630   44.4750 O   0  0  0  0  0  0  0  0  0  0  0  0
   57.6100   31.2870   45.2400 C   0  0  0  0  0  0  0  0  0  0  0  0
   57.5160   32.5730   44.8590 C   0  0  0  0  0  0  0  0  0  0  0  0
   58.3740   33.6520   45.4620 C   0  0  0  0  0  0  0  0  0  0  0  0
   58.8530   33.2720   46.8010 N   0  0  0  0  0  0  0  0  0  0  0  0
   59.9600   34.4850   47.3910 S   0  0  0  0  0  0  0  0  0  0  0  0
   59.9720   35.6640   46.4580 O   0  0  0  0  0  0  0  0  0  0  0  0
   59.5400   34.9520   48.7580 O   0  0  0  0  0  0  0  0  0  0  0  0
   61.5820   33.8210   47.4750 C   0  0  0  0  0  0  0  0  0  0  0  0
   62.5050   33.8190   46.4420 C   0  0  0  0  0  0  0  0  0  0  0  0
   63.7050   33.1850   46.7860 C   0  0  0  0  0  0  0  0  0  0  0  0
   63.7200   32.6850   48.0840 C   0  0  0  0  0  0  0  0  0  0  0  0
   62.2390   33.0320   48.8050 S   0  0  0  0  0  0  0  0  0  0  0  0
   59.5370   31.9720   46.7330 C   0  0  0  0  0  0  0  0  0  0  0  0
   58.5260   30.8790   46.3740 C   0  0  0  0  0  0  0  0  0  0  0  0
   57.0430   27.0360   45.6070 C   0  0  0  0  0  0  0  0  0  0  0  0
   58.0390   24.4980   48.7160 H   0  0  0  0  0  0  0  0  0  0  0  0
   56.5300   23.5370   48.6300 H   0  0  0  0  0  0  0  0  0  0  0  0
   59.3994   25.2147   47.2903 H   0  0  0  0  0  0  0  0  0  0  0  0
   60.8935   26.8592   46.1663 H   0  0  0  0  0  0  0  0  0  0  0  0
   59.9321   28.6161   44.6811 H   0  0  0  0  0  0  0  0  0  0  0  0
   56.7878   32.8453   44.0808 H   0  0  0  0  0  0  0  0  0  0  0  0
   59.2411   33.8270   44.8081 H   0  0  0  0  0  0  0  0  0  0  0  0
   57.7667   34.5641   45.5576 H   0  0  0  0  0  0  0  0  0  0  0  0
   62.3152   34.2680   45.4559 H   0  0  0  0  0  0  0  0  0  0  0  0
   64.5557   33.0911   46.0950 H   0  0  0  0  0  0  0  0  0  0  0  0
   64.5576   32.1531   48.5588 H   0  0  0  0  0  0  0  0  0  0  0  0
   60.3226   32.0112   45.9640 H   0  0  0  0  0  0  0  0  0  0  0  0
   59.9895   31.7452   47.7096 H   0  0  0  0  0  0  0  0  0  0  0  0
   59.0757   29.9742   46.0754 H   0  0  0  0  0  0  0  0  0  0  0  0
   57.9005   30.6979   47.2605 H   0  0  0  0  0  0  0  0  0  0  0  0
   55.9568   27.0809   45.4389 H   0  0  0  0  0  0  0  0  0  0  0  0
  1  2  1  0
  2  3  2  0
  2  4  1  0
  4  5  2  0
  5  6  1  0
  6  7  2  0
  7  8  1  0
  8  9  1  0
  9 10  1  0
 10 11  2  0
 10 12  1  0
 12 13  2  0
 13 14  1  0
 14 15  1  0
 15 16  1  0
 16 17  2  0
 16 18  2  0
 16 19  1  0
 19 20  2  0
 20 21  1  0
 21 22  2  0
 22 23  1  0
 15 24  1  0
 24 25  1  0
  8 26  2  0
 26  4  1  0
 25 12  1  0
 23 19  1  0
  1 27  1  0
  1 28  1  0
  5 29  1  0
  6 30  1  0
  7 31  1  0
 13 32  1  0
 14 33  1  0
 14 34  1  0
 20 35  1  0
 21 36  1  0
 22 37  1  0
 24 38  1  0
 24 39  1  0
 25 40  1  0
 25 41  1  0
 26 42  1  0
M  CHG  1   9  -1
M  END
>  <UniqueID>  (71) 
66

>  <SMILES>  (71) 
NC(=O)c1cccc([N-]C(=O)C2=CCN(S(=O)(=O)c3cccs3)CC2)c1

>  <Energy>  (71) 
77.23864755576247

>  <Genealogy>  (71) 
NC(=O)c1cccc([N-]C(=O)C2=CCN(S(=O)(=O)c3cccs3)CC2)c1 (protonated)
NC(=O)c1cccc([N-]C(=O)C2=CCN(S(=O)(=O)c3cccs3)CC2)c1 (3D coordinates assigned)
NC(=O)c1cccc([N-]C(=O)C2=CCN(S(=O)(=O)c3cccs3)CC2)c1 (nonaromatic ring conformer: 77.23864755576247 kcal/mol)

>  <smiles>  (71) 
NC(=O)c1cccc(NC(=O)C2=CCN(S(=O)(=O)c3cccs3)CC2)c1

>  <score_type>  (71) 
oracle

>  <origin>  (71) 
adg

>  <m_score__min__energy>  (71) 
-10.85

>  <m_primary>  (71) 
energy

$$$$
71:0
     RDKit          3D

 63 66  0  0  0  0  0  0  0  0999 V2000
   55.3220   26.3670   54.2620 C   0  0  0  0  0  0  0  0  0  0  0  0
   56.0370   27.5910   54.1200 O   0  0  0  0  0  0  0  0  0  0  0  0
   55.6600   28.6530   53.2830 C   0  0  0  0  0  0  0  0  0  0  0  0
   54.3650   28.7080   52.7310 C   0  0  0  0  0  0  0  0  0  0  0  0
   53.9740   29.7780   51.9190 C   0  0  0  0  0  0  0  0  0  0  0  0
   52.5640   29.8460   51.3890 C   0  0  0  0  0  0  0  0  0  0  0  0
   51.8060   30.9610   52.0630 C   0  0  0  0  0  0  0  0  0  0  0  0
   51.6600   30.9760   53.4560 C   0  0  0  0  0  0  0  0  0  0  0  0
   51.0250   32.0110   54.0650 N   0  0  0  0  0  0  0  0  0  0  0  0
   50.5240   33.0460   53.3440 C   0  0  0  0  0  0  0  0  0  0  0  0
   49.9420   33.9960   53.9290 O   0  0  0  0  0  0  0  0  0  0  0  0
   50.6570   33.0610   51.9930 N   0  0  0  0  0  0  0  0  0  0  0  0
   51.2850   32.0490   51.3380 C   0  0  0  0  0  0  0  0  0  0  0  0
   51.3960   32.1000   50.0840 O   0  0  0  0  0  0  0  0  0  0  0  0
   54.8850   30.7990   51.6390 C   0  0  0  0  0  0  0  0  0  0  0  0
   56.1910   30.7500   52.1440 C   0  0  0  0  0  0  0  0  0  0  0  0
   57.1440   31.8190   51.7770 C   0  0  0  0  0  0  0  0  0  0  0  0
   57.1960   32.2260   50.5840 O   0  0  0  0  0  0  0  0  0  0  0  0
   58.0270   32.3700   52.7630 N   0  0  0  0  0  0  0  0  0  0  0  0
   58.6860   33.6640   52.5970 C   0  0  0  0  0  0  0  0  0  0  0  0
   59.3240   33.7530   51.2080 C   0  0  0  0  0  0  0  0  0  0  0  0
   60.4570   32.7310   51.0430 C   0  0  0  0  0  0  0  0  0  0  0  0
   60.2270   31.7460   49.8890 C   0  0  0  0  0  0  0  0  0  0  0  0
   60.4980   32.3800   48.5970 N   0  0  0  0  0  0  0  0  0  0  0  0
   59.7570   32.9660   47.6890 C   0  0  0  0  0  0  0  0  0  0  0  0
   59.8380   34.3660   47.6630 C   0  0  0  0  0  0  0  0  0  0  0  0
   59.3140   35.0910   46.5980 C   0  0  0  0  0  0  0  0  0  0  0  0
   58.6990   34.4500   45.5770 N   0  0  0  0  0  0  0  0  0  0  0  0
   58.5180   33.1060   45.5800 C   0  0  0  0  0  0  0  0  0  0  0  0
   57.8280   32.5180   44.5130 C   0  0  0  0  0  0  0  0  0  0  0  0
   57.5180   31.1590   44.5400 C   0  0  0  0  0  0  0  0  0  0  0  0
   56.6420   30.4310   43.2070 Cl  0  0  0  0  0  0  0  0  0  0  0  0
   57.8580   30.3950   45.6560 C   0  0  0  0  0  0  0  0  0  0  0  0
   58.5580   30.9710   46.7200 C   0  0  0  0  0  0  0  0  0  0  0  0
   58.9830   32.3160   46.6720 C   0  0  0  0  0  0  0  0  0  0  0  0
   56.5840   29.6910   52.9940 C   0  0  0  0  0  0  0  0  0  0  0  0
   57.8830   29.7460   53.5390 O   0  0  0  0  0  0  0  0  0  0  0  0
   59.0510   29.1100   53.0350 C   0  0  0  0  0  0  0  0  0  0  0  0
   55.1901   26.1412   55.3305 H   0  0  0  0  0  0  0  0  0  0  0  0
   54.3364   26.4604   53.7826 H   0  0  0  0  0  0  0  0  0  0  0  0
   55.8874   25.5543   53.7826 H   0  0  0  0  0  0  0  0  0  0  0  0
   53.6511   27.8980   52.9415 H   0  0  0  0  0  0  0  0  0  0  0  0
   52.5921   30.0297   50.3048 H   0  0  0  0  0  0  0  0  0  0  0  0
   52.0571   28.8920   51.5960 H   0  0  0  0  0  0  0  0  0  0  0  0
   52.0606   30.1474   54.0584 H   0  0  0  0  0  0  0  0  0  0  0  0
   54.5740   31.6503   51.0156 H   0  0  0  0  0  0  0  0  0  0  0  0
   58.1890   31.8430   53.6510 H   0  0  0  0  0  0  0  0  0  0  0  0
   57.9435   34.4678   52.7089 H   0  0  0  0  0  0  0  0  0  0  0  0
   59.4697   33.7706   53.3615 H   0  0  0  0  0  0  0  0  0  0  0  0
   58.5534   33.5583   50.4476 H   0  0  0  0  0  0  0  0  0  0  0  0
   59.7479   34.7608   51.0868 H   0  0  0  0  0  0  0  0  0  0  0  0
   61.3935   33.2763   50.8544 H   0  0  0  0  0  0  0  0  0  0  0  0
   60.4987   32.1405   51.9701 H   0  0  0  0  0  0  0  0  0  0  0  0
   60.8971   30.8827   50.0138 H   0  0  0  0  0  0  0  0  0  0  0  0
   59.1756   31.4231   49.9077 H   0  0  0  0  0  0  0  0  0  0  0  0
   60.3222   34.8974   48.4956 H   0  0  0  0  0  0  0  0  0  0  0  0
   59.3996   36.1876   46.5855 H   0  0  0  0  0  0  0  0  0  0  0  0
   57.5292   33.1309   43.6498 H   0  0  0  0  0  0  0  0  0  0  0  0
   57.5738   29.3332   45.6992 H   0  0  0  0  0  0  0  0  0  0  0  0
   58.7816   30.3652   47.6105 H   0  0  0  0  0  0  0  0  0  0  0  0
   59.6749   28.7703   53.8749 H   0  0  0  0  0  0  0  0  0  0  0  0
   58.7612   28.2451   52.4202 H   0  0  0  0  0  0  0  0  0  0  0  0
   59.6202   29.8227   52.4202 H   0  0  0  0  0  0  0  0  0  0  0  0
  1  2  1  0
  2  3  1  0
  3  4  2  0
  4  5  1  0
  5  6  1  0
  6  7  1  0
  7  8  2  0
  8  9  1  0
  9 10  1  0
 10 11  2  0
 10 12  1  0
 12 13  1  0
 13 14  2  0
  5 15  2  0
 15 16  1  0
 16 17  1  0
 17 18  2  0
 17 19  1  0
 19 20  1  0
 20 21  1  0
 21 22  1  0
 22 23  1  0
 23 24  1  0
 24 25  2  3
 25 26  1  0
 26 27  2  0
 27 28  1  0
 28 29  1  0
 29 30  2  0
 30 31  1  0
 31 32  1  0
 31 33  2  0
 33 34  1  0
 34 35  2  0
 16 36  2  0
 36 37  1  0
 37 38  1  0
 36  3  1  0
 13  7  1  0
 35 25  1  0
 35 29  1  0
  1 39  1  0
  1 40  1  0
  1 41  1  0
  4 42  1  0
  6 43  1  0
  6 44  1  0
  8 45  1  0
 15 46  1  0
 19 47  1  0
 20 48  1  0
 20 49  1  0
 21 50  1  0
 21 51  1  0
 22 52  1  0
 22 53  1  0
 23 54  1  0
 23 55  1  0
 26 56  1  0
 27 57  1  0
 30 58  1  0
 33 59  1  0
 34 60  1  0
 38 61  1  0
 38 62  1  0
 38 63  1  0
M  CHG  3   9  -1  12  -1  28  -1
M  END
>  <UniqueID>  (72) 
67

>  <SMILES>  (72) 
COc1cc(Cc2c[n-]c(=O)[n-]c2=O)cc(C(=O)NCCCCN=c2cc[n-]c3cc(Cl)ccc23)c1OC

>  <Energy>  (72) 
90.8058873718188

>  <Genealogy>  (72) 
COc1cc(Cc2c[n-]c(=O)[n-]c2=O)cc(C(=O)NCCCCN=c2cc[n-]c3cc(Cl)ccc23)c1OC (protonated)
COc1cc(Cc2c[n-]c(=O)[n-]c2=O)cc(C(=O)NCCCCN=c2cc[n-]c3cc(Cl)ccc23)c1OC (3D coordinates assigned)
COc1cc(Cc2c[n-]c(=O)[n-]c2=O)cc(C(=O)NCCCCN=c2cc[n-]c3cc(Cl)ccc23)c1OC (optimized conformer: 90.8058873718188 kcal/mol)

>  <smiles>  (72) 
COc1cc(Cc2c[nH]c(=O)[nH]c2=O)cc(C(=O)NCCCCN=c2cc[nH]c3cc(Cl)ccc23)c1OC

>  <score_type>  (72) 
oracle

>  <origin>  (72) 
adg

>  <m_score__min__energy>  (72) 
-15.800000000000001

>  <m_primary>  (72) 
energy

$$$$
72:0
     RDKit          3D

 52 55  0  0  1  0  0  0  0  0999 V2000
   55.3380   29.3120   44.7860 N   0  0  0  0  0  0  0  0  0  0  0  0
   56.5980   29.5270   43.5960 S   0  0  0  0  0  0  0  0  0  0  0  0
   57.5240   28.3670   43.7150 O   0  0  0  0  0  0  0  0  0  0  0  0
   55.9130   29.6280   42.2720 O   0  0  0  0  0  0  0  0  0  0  0  0
   57.3710   31.0560   44.0050 C   0  0  0  0  0  0  0  0  0  0  0  0
   57.7050   31.9320   42.9670 C   0  0  0  0  0  0  0  0  0  0  0  0
   58.3030   33.1100   43.2970 C   0  0  0  0  0  0  0  0  0  0  0  0
   58.5920   33.4800   44.5900 C   0  0  0  0  0  0  0  0  0  0  0  0
   58.2530   32.5990   45.6040 C   0  0  0  0  0  0  0  0  0  0  0  0
   58.5610   32.9950   46.9570 N   0  0  0  0  0  0  0  0  0  0  0  0
   59.5020   32.3860   47.5820 C   0  0  0  0  0  0  0  0  0  0  0  0
   59.3440   31.0430   47.9290 C   0  0  0  0  0  0  0  0  0  0  0  0
   60.3490   30.3750   48.6030 C   0  0  0  0  0  0  0  0  0  0  0  0
   60.1310   29.0520   48.9180 O   0  0  0  0  0  0  0  0  0  0  0  0
   59.8020   28.0710   48.0170 C   0  0  0  0  0  0  0  0  0  0  0  0
   60.7470   27.0780   47.7730 C   0  0  0  0  0  0  0  0  0  0  0  0
   60.4870   26.0590   46.8790 C   0  0  0  0  0  0  0  0  0  0  0  0
   59.2630   26.0500   46.2330 C   0  0  0  0  0  0  0  0  0  0  0  0
   58.2970   27.0100   46.4420 C   0  0  0  0  0  0  0  0  0  0  0  0
   57.0410   27.0320   45.8010 N   0  0  0  0  0  0  0  0  0  0  0  0
   55.9650   25.6880   46.0410 S   0  0  0  0  0  0  0  0  0  0  0  0
   56.0430   25.2400   47.4660 O   0  0  0  0  0  0  0  0  0  0  0  0
   54.5460   26.0920   45.6860 O   0  0  0  0  0  0  0  0  0  0  0  0
   56.4000   24.3940   44.9490 C   0  0  0  0  0  0  0  0  0  0  0  0
   57.5100   23.5970   45.1280 C   0  0  0  0  0  0  0  0  0  0  0  0
   57.8570   22.5750   44.2690 C   0  0  0  0  0  0  0  0  0  0  0  0
   57.0380   22.3450   43.1690 C   0  0  0  0  0  0  0  0  0  0  0  0
   55.9260   23.1460   42.9930 C   0  0  0  0  0  0  0  0  0  0  0  0
   55.6360   24.1370   43.8720 N   0  0  0  0  0  0  0  0  0  0  0  0
   58.5750   28.0340   47.3480 C   0  0  0  0  0  0  0  0  0  0  0  0
   61.4610   31.0570   48.9040 N   0  0  0  0  0  0  0  0  0  0  0  0
   61.6490   32.3520   48.5840 C   0  0  0  0  0  0  0  0  0  0  0  0
   60.6540   32.9950   47.9240 N   0  0  0  0  0  0  0  0  0  0  0  0
   57.6440   31.3880   45.3260 C   0  0  0  0  0  0  0  0  0  0  0  0
   55.2010   28.2610   44.8680 H   0  0  0  0  0  0  0  0  0  0  0  0
   55.7510   29.5790   45.7230 H   0  0  0  0  0  0  0  0  0  0  0  0
   57.4916   31.6776   41.9183 H   0  0  0  0  0  0  0  0  0  0  0  0
   58.5694   33.8033   42.4856 H   0  0  0  0  0  0  0  0  0  0  0  0
   59.0759   34.4428   44.8113 H   0  0  0  0  0  0  0  0  0  0  0  0
   58.4162   30.5144   47.6650 H   0  0  0  0  0  0  0  0  0  0  0  0
   61.7126   27.1059   48.2991 H   0  0  0  0  0  0  0  0  0  0  0  0
   61.2332   25.2744   46.6850 H   0  0  0  0  0  0  0  0  0  0  0  0
   59.0517   25.2393   45.5201 H   0  0  0  0  0  0  0  0  0  0  0  0
   56.7490   27.8390   45.1880 H   0  0  0  0  0  0  0  0  0  0  0  0
   58.1523   23.7856   46.0008 H   0  0  0  0  0  0  0  0  0  0  0  0
   58.7525   21.9619   44.4483 H   0  0  0  0  0  0  0  0  0  0  0  0
   57.2706   21.5422   42.4539 H   0  0  0  0  0  0  0  0  0  0  0  0
   55.2672   22.9776   42.1284 H   0  0  0  0  0  0  0  0  0  0  0  0
   57.8250   28.8162   47.5368 H   0  0  0  0  0  0  0  0  0  0  0  0
   62.5811   32.8720   48.8499 H   0  0  0  0  0  0  0  0  0  0  0  0
   60.8090   33.9990   47.6810 H   0  0  0  0  0  0  0  0  0  0  0  0
   57.3795   30.6973   46.1403 H   0  0  0  0  0  0  0  0  0  0  0  0
  1  2  1  0
  2  3  2  0
  2  4  2  0
  2  5  1  0
  5  6  2  0
  6  7  1  0
  7  8  2  0
  8  9  1  0
  9 10  1  0
 10 11  2  0
 11 12  1  0
 12 13  2  0
 13 14  1  0
 14 15  1  0
 15 16  2  0
 16 17  1  0
 17 18  2  0
 18 19  1  0
 19 20  1  0
 20 21  1  0
 21 22  2  0
 21 23  2  0
 21 24  1  0
 24 25  2  0
 25 26  1  0
 26 27  2  0
 27 28  1  0
 28 29  2  0
 19 30  2  0
 13 31  1  0
 31 32  2  0
 32 33  1  0
  9 34  2  0
 34  5  1  0
 33 11  1  0
 30 15  1  0
 29 24  1  0
  1 35  1  0
  1 36  1  0
  6 37  1  0
  7 38  1  0
  8 39  1  0
 12 40  1  0
 16 41  1  0
 17 42  1  0
 18 43  1  0
 20 44  1  0
 25 45  1  0
 26 46  1  0
 27 47  1  0
 28 48  1  0
 30 49  1  0
 32 50  1  0
 33 51  1  0
 34 52  1  0
M  END
>  <smiles>  (73) 
NS(=O)(=O)c1cccc(N=c2cc(Oc3cccc(NS(=O)(=O)c4ccccn4)c3)nc[nH]2)c1

>  <score_type>  (73) 
oracle

>  <origin>  (73) 
adg

>  <m_score__min__energy>  (73) 
-10.609999999999999

>  <m_primary>  (73) 
energy

$$$$
73:0
     RDKit          3D

 26 28  0  0  1  0  0  0  0  0999 V2000
   55.1360   26.3580   46.0600 O   0  0  0  0  0  0  0  0  0  0  0  0
   56.3620   26.1650   45.8340 C   0  0  0  0  0  0  0  0  0  0  0  0
   57.2970   27.2230   46.0820 N   0  0  0  0  0  0  0  0  0  0  0  0
   57.0360   28.3870   45.6030 C   0  0  0  0  0  0  0  0  0  0  0  0
   55.8820   28.6870   44.9790 N   0  0  0  0  0  0  0  0  0  0  0  0
   55.6190   29.9130   44.4800 C   0  0  0  0  0  0  0  0  0  0  0  0
   56.5140   30.9130   44.5820 N   0  0  0  0  0  0  0  0  0  0  0  0
   57.6960   30.6470   45.2060 C   0  0  0  0  0  0  0  0  0  0  0  0
   57.9850   29.4010   45.7240 C   0  0  0  0  0  0  0  0  0  0  0  0
   59.1990   29.4520   46.2660 N   0  0  0  0  0  0  0  0  0  0  0  0
   59.6590   30.7240   46.0840 C   0  0  0  0  0  0  0  0  0  0  0  0
   58.7470   31.4560   45.4390 N   0  0  0  0  0  0  0  0  0  0  0  0
   58.8300   32.8470   45.0470 C   0  0  0  0  0  0  0  0  0  0  0  0
   57.6690   33.6300   45.5520 C   0  0  0  0  0  0  0  0  0  0  0  0
   58.1140   34.5890   46.3770 C   0  0  0  0  0  0  0  0  0  0  0  0
   59.5600   34.4960   46.4620 C   0  0  0  0  0  0  0  0  0  0  0  0
   59.9870   33.4870   45.6920 C   0  0  0  0  0  0  0  0  0  0  0  0
   56.7101   25.1946   45.4505 H   0  0  0  0  0  0  0  0  0  0  0  0
   55.1480   27.9270   44.8780 H   0  0  0  0  0  0  0  0  0  0  0  0
   54.6563   30.0983   43.9812 H   0  0  0  0  0  0  0  0  0  0  0  0
   60.6393   31.0930   46.4200 H   0  0  0  0  0  0  0  0  0  0  0  0
   58.8832   32.8469   43.9483 H   0  0  0  0  0  0  0  0  0  0  0  0
   56.6157   33.4508   45.2905 H   0  0  0  0  0  0  0  0  0  0  0  0
   57.4870   35.3244   46.9024 H   0  0  0  0  0  0  0  0  0  0  0  0
   60.2048   35.1522   47.0651 H   0  0  0  0  0  0  0  0  0  0  0  0
   61.0366   33.1846   45.5623 H   0  0  0  0  0  0  0  0  0  0  0  0
  1  2  2  0
  2  3  1  0
  3  4  2  0
  4  5  1  0
  5  6  1  0
  6  7  2  0
  7  8  1  0
  8  9  2  0
  9 10  1  0
 10 11  2  0
 11 12  1  0
 12 13  1  0
 13 14  1  0
 14 15  2  0
 15 16  1  0
 16 17  2  0
  9  4  1  0
 17 13  1  0
 12  8  1  0
  2 18  1  0
  5 19  1  0
  6 20  1  0
 11 21  1  0
 13 22  1  0
 14 23  1  0
 15 24  1  0
 16 25  1  0
 17 26  1  0
M  END
>  <smiles>  (74) 
O=CN=c1[nH]cnc2c1ncn2C1C=CC=C1

>  <score_type>  (74) 
oracle

>  <origin>  (74) 
adg

>  <m_score__min__energy>  (74) 
-7.1699999999999999

>  <m_primary>  (74) 
energy

$$$$
74:0
     RDKit          3D

 46 49  0  0  0  0  0  0  0  0999 V2000
   54.0680   25.1400   45.6220 C   0  0  0  0  0  0  0  0  0  0  0  0
   54.8250   26.2840   46.0040 O   0  0  0  0  0  0  0  0  0  0  0  0
   56.2240   26.3060   46.1290 C   0  0  0  0  0  0  0  0  0  0  0  0
   56.9320   25.2790   46.7850 C   0  0  0  0  0  0  0  0  0  0  0  0
   58.3230   25.3350   46.8850 C   0  0  0  0  0  0  0  0  0  0  0  0
   59.0230   26.4050   46.3270 C   0  0  0  0  0  0  0  0  0  0  0  0
   58.3330   27.4260   45.6730 C   0  0  0  0  0  0  0  0  0  0  0  0
   56.9300   27.3930   45.5850 C   0  0  0  0  0  0  0  0  0  0  0  0
   56.2000   28.4270   44.9050 N   0  0  0  0  0  0  0  0  0  0  0  0
   56.7490   29.6440   44.3810 C   0  0  0  0  0  0  0  0  0  0  0  0
   56.6080   29.8880   43.1530 O   0  0  0  0  0  0  0  0  0  0  0  0
   57.4240   30.6380   45.2470 C   0  0  0  0  0  0  0  0  0  0  0  0
   57.9220   30.2670   46.5260 C   0  0  0  0  0  0  0  0  0  0  0  0
   58.5660   31.2070   47.3510 C   0  0  0  0  0  0  0  0  0  0  0  0
   58.6830   32.5120   46.8780 C   0  0  0  0  0  0  0  0  0  0  0  0
   58.1950   32.8800   45.6540 C   0  0  0  0  0  0  0  0  0  0  0  0
   57.5540   31.9770   44.8110 C   0  0  0  0  0  0  0  0  0  0  0  0
   58.4480   34.1830   45.4370 N   0  0  0  0  0  0  0  0  0  0  0  0
   59.0980   34.5770   46.5570 C   0  0  0  0  0  0  0  0  0  0  0  0
   59.5180   35.7520   46.7260 O   0  0  0  0  0  0  0  0  0  0  0  0
   59.2540   33.5800   47.4650 N   0  0  0  0  0  0  0  0  0  0  0  0
   60.0380   33.6400   49.0150 S   0  0  0  0  0  0  0  0  0  0  0  0
   59.7840   34.9750   49.6550 O   0  0  0  0  0  0  0  0  0  0  0  0
   59.4730   32.5630   49.8980 O   0  0  0  0  0  0  0  0  0  0  0  0
   61.7790   33.4200   48.8520 C   0  0  0  0  0  0  0  0  0  0  0  0
   62.3540   33.2140   47.5890 C   0  0  0  0  0  0  0  0  0  0  0  0
   63.7380   33.0580   47.4650 C   0  0  0  0  0  0  0  0  0  0  0  0
   64.5540   33.1100   48.5990 C   0  0  0  0  0  0  0  0  0  0  0  0
   63.9840   33.3200   49.8590 C   0  0  0  0  0  0  0  0  0  0  0  0
   62.6010   33.4770   49.9860 C   0  0  0  0  0  0  0  0  0  0  0  0
   53.7196   24.6134   46.5227 H   0  0  0  0  0  0  0  0  0  0  0  0
   53.2008   25.4571   45.0241 H   0  0  0  0  0  0  0  0  0  0  0  0
   54.6989   24.4658   45.0241 H   0  0  0  0  0  0  0  0  0  0  0  0
   56.3857   24.4292   47.2203 H   0  0  0  0  0  0  0  0  0  0  0  0
   58.8685   24.5337   47.4049 H   0  0  0  0  0  0  0  0  0  0  0  0
   60.1197   26.4437   46.4027 H   0  0  0  0  0  0  0  0  0  0  0  0
   58.8896   28.2616   45.2236 H   0  0  0  0  0  0  0  0  0  0  0  0
   57.8021   29.2308   46.8752 H   0  0  0  0  0  0  0  0  0  0  0  0
   58.9636   30.9213   48.3360 H   0  0  0  0  0  0  0  0  0  0  0  0
   57.1602   32.2954   43.8345 H   0  0  0  0  0  0  0  0  0  0  0  0
   58.2090   34.7540   44.5960 H   0  0  0  0  0  0  0  0  0  0  0  0
   61.7149   33.1751   46.6946 H   0  0  0  0  0  0  0  0  0  0  0  0
   64.1855   32.8941   46.4736 H   0  0  0  0  0  0  0  0  0  0  0  0
   65.6425   32.9860   48.5005 H   0  0  0  0  0  0  0  0  0  0  0  0
   64.6255   33.3617   50.7516 H   0  0  0  0  0  0  0  0  0  0  0  0
   62.1566   33.6457   50.9780 H   0  0  0  0  0  0  0  0  0  0  0  0
  1  2  1  0
  2  3  1  0
  3  4  2  0
  4  5  1  0
  5  6  2  0
  6  7  1  0
  7  8  2  0
  8  9  1  0
  9 10  1  0
 10 11  2  0
 10 12  1  0
 12 13  2  0
 13 14  1  0
 14 15  2  0
 15 16  1  0
 16 17  2  0
 16 18  1  0
 18 19  1  0
 19 20  2  0
 19 21  1  0
 21 22  1  0
 22 23  2  0
 22 24  2  0
 22 25  1  0
 25 26  2  0
 26 27  1  0
 27 28  2  0
 28 29  1  0
 29 30  2  0
  8  3  1  0
 17 12  1  0
 30 25  1  0
 21 15  1  0
  1 31  1  0
  1 32  1  0
  1 33  1  0
  4 34  1  0
  5 35  1  0
  6 36  1  0
  7 37  1  0
 13 38  1  0
 14 39  1  0
 17 40  1  0
 18 41  1  0
 26 42  1  0
 27 43  1  0
 28 44  1  0
 29 45  1  0
 30 46  1  0
M  CHG  1   9  -1
M  END
>  <UniqueID>  (75) 
68

>  <SMILES>  (75) 
COc1ccccc1[N-]C(=O)c1ccc2c(c1)[nH]c(=O)n2S(=O)(=O)c1ccccc1

>  <Energy>  (75) 
100.51725276167836

>  <Genealogy>  (75) 
COc1ccccc1[N-]C(=O)c1ccc2c(c1)[nH]c(=O)n2S(=O)(=O)c1ccccc1 (protonated)
COc1ccccc1[N-]C(=O)c1ccc2c(c1)[nH]c(=O)n2S(=O)(=O)c1ccccc1 (3D coordinates assigned)
COc1ccccc1[N-]C(=O)c1ccc2c(c1)[nH]c(=O)n2S(=O)(=O)c1ccccc1 (optimized conformer: 100.51725276167836 kcal/mol)

>  <smiles>  (75) 
COc1ccccc1NC(=O)c1ccc2c(c1)[nH]c(=O)n2S(=O)(=O)c1ccccc1

>  <score_type>  (75) 
oracle

>  <origin>  (75) 
adg

>  <m_score__min__energy>  (75) 
-11.09

>  <m_primary>  (75) 
energy

$$$$
75:0
     RDKit          3D

 32 33  0  0  0  0  0  0  0  0999 V2000
   61.8590   30.9250   49.4580 H   0  0  0  0  0  0  0  0  0  0  0  0
   61.0240   31.4170   49.0680 N   0  0  0  0  0  0  0  0  0  0  0  0
   61.2760   31.5600   47.3640 S   0  0  0  0  0  0  0  0  0  0  0  0
   62.5710   32.2790   47.1060 O   0  0  0  0  0  0  0  0  0  0  0  0
   61.3570   30.1890   46.7550 O   0  0  0  0  0  0  0  0  0  0  0  0
   59.9430   32.4570   46.6450 C   0  0  0  0  0  0  0  0  0  0  0  0
   59.9640   33.8570   46.6230 C   0  0  0  0  0  0  0  0  0  0  0  0
   60.8094   34.4000   47.0706 H   0  0  0  0  0  0  0  0  0  0  0  0
   58.9140   34.5660   46.0340 C   0  0  0  0  0  0  0  0  0  0  0  0
   58.9351   35.6657   46.0173 H   0  0  0  0  0  0  0  0  0  0  0  0
   57.8370   33.8800   45.4660 C   0  0  0  0  0  0  0  0  0  0  0  0
   57.0185   34.4408   44.9911 H   0  0  0  0  0  0  0  0  0  0  0  0
   57.7970   32.4750   45.5000 C   0  0  0  0  0  0  0  0  0  0  0  0
   56.7120   31.7430   44.9120 N   0  0  0  0  0  0  0  0  0  0  0  0
   56.7940   30.8970   43.7560 C   0  0  0  0  0  0  0  0  0  0  0  0
   57.2210   31.3830   42.6760 O   0  0  0  0  0  0  0  0  0  0  0  0
   56.4600   29.4630   43.8050 C   0  0  0  0  0  0  0  0  0  0  0  0
   56.4035   28.8828   42.8722 H   0  0  0  0  0  0  0  0  0  0  0  0
   56.2320   28.8800   44.9420 N   0  0  0  0  0  0  0  0  0  0  0  0
   56.9650   27.7820   45.5130 C   0  0  0  0  0  0  0  0  0  0  0  0
   58.3740   27.7610   45.5790 C   0  0  0  0  0  0  0  0  0  0  0  0
   58.9540   28.6058   45.1791 H   0  0  0  0  0  0  0  0  0  0  0  0
   59.0360   26.6700   46.1510 C   0  0  0  0  0  0  0  0  0  0  0  0
   60.1351   26.6564   46.1941 H   0  0  0  0  0  0  0  0  0  0  0  0
   58.3050   25.5970   46.6680 C   0  0  0  0  0  0  0  0  0  0  0  0
   58.8283   24.7383   47.1139 H   0  0  0  0  0  0  0  0  0  0  0  0
   56.9100   25.6160   46.6180 C   0  0  0  0  0  0  0  0  0  0  0  0
   56.3350   24.7738   47.0304 H   0  0  0  0  0  0  0  0  0  0  0  0
   56.2410   26.7030   46.0450 C   0  0  0  0  0  0  0  0  0  0  0  0
   54.8500   26.7070   46.0040 O   0  0  0  0  0  0  0  0  0  0  0  0
   58.8650   31.7700   46.0670 C   0  0  0  0  0  0  0  0  0  0  0  0
   58.8590   30.6700   46.0593 H   0  0  0  0  0  0  0  0  0  0  0  0
  1  2  1  0
  2  3  1  0
  3  4  2  0
  3  5  2  0
  3  6  1  0
  6  7  2  0
  7  8  1  0
  7  9  1  0
  9 10  1  0
  9 11  2  0
 11 12  1  0
 11 13  1  0
 13 14  1  0
 14 15  1  0
 15 16  2  0
 15 17  1  0
 17 18  1  0
 17 19  2  0
 19 20  1  0
 20 21  2  0
 21 22  1  0
 21 23  1  0
 23 24  1  0
 23 25  2  0
 25 26  1  0
 25 27  1  0
 27 28  1  0
 27 29  2  0
 29 30  1  0
 13 31  2  0
 31 32  1  0
 31  6  1  0
 29 20  1  0
M  CHG  3   2  -1  14  -1  30  -1
M  END
>  <UniqueID>  (76) 
69

>  <SMILES>  (76) 
[NH-]S(=O)(=O)c1cccc([N-]C(=O)/C=N/c2ccccc2[O-])c1

>  <Energy>  (76) 
39.110794978822256

>  <Genealogy>  (76) 
[NH-]S(=O)(=O)c1cccc([N-]C(=O)C=Nc2ccccc2[O-])c1 (protonated)
[NH-]S(=O)(=O)c1cccc([N-]C(=O)/C=N/c2ccccc2[O-])c1 (cis-trans isomerization)
[NH-]S(=O)(=O)c1cccc([N-]C(=O)/C=N/c2ccccc2[O-])c1 (3D coordinates assigned)
[NH-]S(=O)(=O)c1cccc([N-]C(=O)/C=N/c2ccccc2[O-])c1 (optimized conformer: 39.110794978822256 kcal/mol)

>  <smiles>  (76) 
NS(=O)(=O)c1cccc(NC(=O)C=Nc2ccccc2O)c1

>  <score_type>  (76) 
oracle

>  <origin>  (76) 
adg

>  <m_score__min__energy>  (76) 
-14.4

>  <m_primary>  (76) 
energy

$$$$
76:0
     RDKit          3D

 45 47  0  0  0  0  0  0  0  0999 V2000
   60.3830   34.5180   47.7750 C   0  0  0  0  0  0  0  0  0  0  0  0
   59.3140   33.9400   46.8840 C   0  0  0  0  0  0  0  0  0  0  0  0
   59.0230   34.5880   45.6730 C   0  0  0  0  0  0  0  0  0  0  0  0
   58.0190   34.1090   44.8400 C   0  0  0  0  0  0  0  0  0  0  0  0
   57.3040   32.9760   45.2150 C   0  0  0  0  0  0  0  0  0  0  0  0
   57.5920   32.3380   46.3800 N   0  0  0  0  0  0  0  0  0  0  0  0
   58.5810   32.7700   47.2240 C   0  0  0  0  0  0  0  0  0  0  0  0
   58.8390   31.9960   48.4660 C   0  0  0  0  0  0  0  0  0  0  0  0
   59.1020   32.5920   49.5460 O   0  0  0  0  0  0  0  0  0  0  0  0
   58.8170   30.5590   48.4110 N   0  0  0  0  0  0  0  0  0  0  0  0
   59.7570   29.7740   47.9670 C   0  0  0  0  0  0  0  0  0  0  0  0
   59.5010   28.8610   46.8860 N   0  0  0  0  0  0  0  0  0  0  0  0
   58.3480   28.5910   46.3370 C   0  0  0  0  0  0  0  0  0  0  0  0
   57.7660   27.3420   46.5860 C   0  0  0  0  0  0  0  0  0  0  0  0
   56.5280   27.0260   46.0230 C   0  0  0  0  0  0  0  0  0  0  0  0
   55.8810   27.9340   45.2460 N   0  0  0  0  0  0  0  0  0  0  0  0
   56.4070   29.1620   44.9990 C   0  0  0  0  0  0  0  0  0  0  0  0
   57.6430   29.5200   45.5420 C   0  0  0  0  0  0  0  0  0  0  0  0
   61.0190   29.7320   48.6490 N   0  0  0  0  0  0  0  0  0  0  0  0
   61.3900   30.7350   49.6480 C   0  0  0  0  0  0  0  0  0  0  0  0
   62.1970   31.8350   49.0160 C   0  0  0  0  0  0  0  0  0  0  0  0
   62.7010   32.8880   49.7980 C   0  0  0  0  0  0  0  0  0  0  0  0
   63.4840   33.8870   49.2130 C   0  0  0  0  0  0  0  0  0  0  0  0
   63.7790   33.8370   47.8470 C   0  0  0  0  0  0  0  0  0  0  0  0
   63.2950   32.7830   47.0660 C   0  0  0  0  0  0  0  0  0  0  0  0
   62.5120   31.7820   47.6480 C   0  0  0  0  0  0  0  0  0  0  0  0
   60.1037   34.3670   48.8282 H   0  0  0  0  0  0  0  0  0  0  0  0
   61.3400   34.0144   47.5736 H   0  0  0  0  0  0  0  0  0  0  0  0
   60.4856   35.5945   47.5736 H   0  0  0  0  0  0  0  0  0  0  0  0
   59.5941   35.4817   45.3813 H   0  0  0  0  0  0  0  0  0  0  0  0
   57.7918   34.6208   43.8932 H   0  0  0  0  0  0  0  0  0  0  0  0
   56.5020   32.5948   44.5657 H   0  0  0  0  0  0  0  0  0  0  0  0
   57.0400   31.4810   46.6110 H   0  0  0  0  0  0  0  0  0  0  0  0
   58.2835   26.6107   47.2243 H   0  0  0  0  0  0  0  0  0  0  0  0
   56.0757   26.0406   46.2087 H   0  0  0  0  0  0  0  0  0  0  0  0
   55.8574   29.8769   44.3691 H   0  0  0  0  0  0  0  0  0  0  0  0
   58.0638   30.5183   45.3515 H   0  0  0  0  0  0  0  0  0  0  0  0
   61.6810   28.9550   48.4270 H   0  0  0  0  0  0  0  0  0  0  0  0
   60.4770   31.1628   50.0877 H   0  0  0  0  0  0  0  0  0  0  0  0
   61.9967   30.2522   50.4283 H   0  0  0  0  0  0  0  0  0  0  0  0
   62.4785   32.9262   50.8746 H   0  0  0  0  0  0  0  0  0  0  0  0
   63.8688   34.7138   49.8280 H   0  0  0  0  0  0  0  0  0  0  0  0
   64.3915   34.6265   47.3871 H   0  0  0  0  0  0  0  0  0  0  0  0
   63.5307   32.7415   45.9924 H   0  0  0  0  0  0  0  0  0  0  0  0
   62.1410   30.9494   47.0323 H   0  0  0  0  0  0  0  0  0  0  0  0
  1  2  1  0
  2  3  2  0
  3  4  1  0
  4  5  2  0
  5  6  1  0
  6  7  2  0
  7  8  1  0
  8  9  2  0
  8 10  1  0
 10 11  2  3
 11 12  1  0
 12 13  2  3
 13 14  1  0
 14 15  2  0
 15 16  1  0
 16 17  1  0
 17 18  2  0
 11 19  1  0
 19 20  1  0
 20 21  1  0
 21 22  2  0
 22 23  1  0
 23 24  2  0
 24 25  1  0
 25 26  2  0
  7  2  1  0
 18 13  1  0
 26 21  1  0
  1 27  1  0
  1 28  1  0
  1 29  1  0
  3 30  1  0
  4 31  1  0
  5 32  1  0
  6 33  1  0
 14 34  1  0
 15 35  1  0
 17 36  1  0
 18 37  1  0
 19 38  1  0
 20 39  1  0
 20 40  1  0
 22 41  1  0
 23 42  1  0
 24 43  1  0
 25 44  1  0
 26 45  1  0
M  CHG  2   6   1  16  -1
M  END
>  <UniqueID>  (77) 
70

>  <SMILES>  (77) 
Cc1ccc[nH+]c1C(=O)N=C(N=c1cc[n-]cc1)NCc1ccccc1

>  <Energy>  (77) 
60.30625032648237

>  <Genealogy>  (77) 
Cc1ccc[nH+]c1C(=O)N=C(N=c1cc[n-]cc1)NCc1ccccc1 (protonated)
Cc1ccc[nH+]c1C(=O)N=C(N=c1cc[n-]cc1)NCc1ccccc1 (3D coordinates assigned)
Cc1ccc[nH+]c1C(=O)N=C(N=c1cc[n-]cc1)NCc1ccccc1 (optimized conformer: 60.30625032648237 kcal/mol)

>  <smiles>  (77) 
Cc1cccnc1C(=O)N=C(N=c1cc[nH]cc1)NCc1ccccc1

>  <score_type>  (77) 
oracle

>  <origin>  (77) 
adg

>  <m_score__min__energy>  (77) 
-7.9699999999999998

>  <m_primary>  (77) 
energy

$$$$
77:0
     RDKit          3D

 57 61  0  0  0  0  0  0  0  0999 V2000
   59.9890   27.4970   45.3530 C   0  0  0  0  0  0  0  0  0  0  0  0
   58.8640   28.4630   45.0570 C   0  0  0  0  0  0  0  0  0  0  0  0
   57.7320   28.0330   44.3140 C   0  0  0  0  0  0  0  0  0  0  0  0
   57.5510   26.6590   43.9380 N   0  0  0  0  0  0  0  0  0  0  0  0
   57.2460   25.6360   44.9000 C   0  0  0  0  0  0  0  0  0  0  0  0
   56.9100   25.9630   46.0720 O   0  0  0  0  0  0  0  0  0  0  0  0
   57.3010   24.2030   44.5300 C   0  0  0  0  0  0  0  0  0  0  0  0
   58.3600   23.3800   44.9540 C   0  0  0  0  0  0  0  0  0  0  0  0
   58.3850   22.0300   44.6000 C   0  0  0  0  0  0  0  0  0  0  0  0
   57.3490   21.5050   43.8280 C   0  0  0  0  0  0  0  0  0  0  0  0
   56.3240   22.3040   43.4310 N   0  0  0  0  0  0  0  0  0  0  0  0
   56.2740   23.6230   43.7630 C   0  0  0  0  0  0  0  0  0  0  0  0
   56.7700   28.9660   43.9060 C   0  0  0  0  0  0  0  0  0  0  0  0
   56.8810   30.3040   44.2720 C   0  0  0  0  0  0  0  0  0  0  0  0
   57.9500   30.7270   45.0580 C   0  0  0  0  0  0  0  0  0  0  0  0
   58.9420   29.8200   45.4760 C   0  0  0  0  0  0  0  0  0  0  0  0
   60.0210   30.3210   46.3600 C   0  0  0  0  0  0  0  0  0  0  0  0
   60.4650   31.5940   46.3580 N   0  0  0  0  0  0  0  0  0  0  0  0
   61.4000   31.5540   47.3290 C   0  0  0  0  0  0  0  0  0  0  0  0
   62.2030   32.7520   47.7590 C   0  0  2  0  0  0  0  0  0  0  0  0
   63.6020   32.3440   48.2210 C   0  0  0  0  0  0  0  0  0  0  0  0
   63.5260   32.2780   49.7430 C   0  0  0  0  0  0  0  0  0  0  0  0
   62.3610   33.1790   50.1370 C   0  0  0  0  0  0  0  0  0  0  0  0
   61.5860   33.3800   48.9200 N   0  0  0  0  0  0  0  0  0  0  0  0
   60.2910   34.0150   48.8810 C   0  0  0  0  0  0  0  0  0  0  0  0
   59.8460   34.5880   49.9140 O   0  0  0  0  0  0  0  0  0  0  0  0
   59.4770   34.0450   47.6510 C   0  0  0  0  0  0  0  0  0  0  0  0
   59.9330   34.7550   46.5290 C   0  0  0  0  0  0  0  0  0  0  0  0
   59.1610   34.8020   45.3620 C   0  0  0  0  0  0  0  0  0  0  0  0
   57.9240   34.1540   45.3150 C   0  0  0  0  0  0  0  0  0  0  0  0
   57.1760   34.2030   44.1840 F   0  0  0  0  0  0  0  0  0  0  0  0
   57.4540   33.4640   46.4360 C   0  0  0  0  0  0  0  0  0  0  0  0
   58.2230   33.4130   47.6030 C   0  0  0  0  0  0  0  0  0  0  0  0
   61.5110   30.3340   47.8900 N   0  0  0  0  0  0  0  0  0  0  0  0
   60.6430   29.6020   47.2630 O   0  0  0  0  0  0  0  0  0  0  0  0
   60.1078   27.3950   46.4418 H   0  0  0  0  0  0  0  0  0  0  0  0
   59.7537   26.5152   44.9163 H   0  0  0  0  0  0  0  0  0  0  0  0
   60.9239   27.8780   44.9163 H   0  0  0  0  0  0  0  0  0  0  0  0
   57.4090   26.4480   42.9240 H   0  0  0  0  0  0  0  0  0  0  0  0
   59.1708   23.8015   45.5663 H   0  0  0  0  0  0  0  0  0  0  0  0
   59.2146   21.3859   44.9271 H   0  0  0  0  0  0  0  0  0  0  0  0
   57.3616   20.4434   43.5402 H   0  0  0  0  0  0  0  0  0  0  0  0
   55.4258   24.2390   43.4297 H   0  0  0  0  0  0  0  0  0  0  0  0
   55.9192   28.6380   43.2908 H   0  0  0  0  0  0  0  0  0  0  0  0
   56.1231   31.0288   43.9399 H   0  0  0  0  0  0  0  0  0  0  0  0
   58.0201   31.7835   45.3560 H   0  0  0  0  0  0  0  0  0  0  0  0
   62.2477   33.4263   46.8911 H   0  0  0  0  0  0  0  0  0  0  0  0
   63.8723   31.3615   47.8067 H   0  0  0  0  0  0  0  0  0  0  0  0
   64.3678   33.0569   47.8814 H   0  0  0  0  0  0  0  0  0  0  0  0
   63.3410   31.2452   50.0734 H   0  0  0  0  0  0  0  0  0  0  0  0
   64.4670   32.6028   50.2111 H   0  0  0  0  0  0  0  0  0  0  0  0
   61.7447   32.6933   50.9078 H   0  0  0  0  0  0  0  0  0  0  0  0
   62.7112   34.1337   50.5565 H   0  0  0  0  0  0  0  0  0  0  0  0
   60.9008   35.2765   46.5669 H   0  0  0  0  0  0  0  0  0  0  0  0
   59.5285   35.3494   44.4815 H   0  0  0  0  0  0  0  0  0  0  0  0
   56.4770   32.9599   46.4002 H   0  0  0  0  0  0  0  0  0  0  0  0
   57.8451   32.8766   48.4858 H   0  0  0  0  0  0  0  0  0  0  0  0
  1  2  1  0
  2  3  2  0
  3  4  1  0
  4  5  1  0
  5  6  2  0
  5  7  1  0
  7  8  2  0
  8  9  1  0
  9 10  2  0
 10 11  1  0
 11 12  2  0
  3 13  1  0
 13 14  2  0
 14 15  1  0
 15 16  2  0
 16 17  1  0
 17 18  2  0
 18 19  1  0
 19 20  1  0
 20 21  1  0
 21 22  1  0
 22 23  1  0
 23 24  1  0
 24 25  1  0
 25 26  2  0
 25 27  1  0
 27 28  2  0
 28 29  1  0
 29 30  2  0
 30 31  1  0
 30 32  1  0
 32 33  2  0
 19 34  2  0
 34 35  1  0
 16  2  1  0
 35 17  1  0
 12  7  1  0
 24 20  1  0
 33 27  1  0
  1 36  1  0
  1 37  1  0
  1 38  1  0
  4 39  1  0
  8 40  1  0
  9 41  1  0
 10 42  1  0
 12 43  1  0
 13 44  1  0
 14 45  1  0
 15 46  1  0
 20 47  1  6
 21 48  1  0
 21 49  1  0
 22 50  1  0
 22 51  1  0
 23 52  1  0
 23 53  1  0
 28 54  1  0
 29 55  1  0
 32 56  1  0
 33 57  1  0
M  END
>  <UniqueID>  (78) 
71

>  <SMILES>  (78) 
Cc1c(NC(=O)c2cccnc2)cccc1-c1nc([C@@H]2CCCN2C(=O)c2ccc(F)cc2)no1

>  <Energy>  (78) 
113.85654165520188

>  <Genealogy>  (78) 
Cc1c(NC(=O)c2cccnc2)cccc1-c1nc([C@@H]2CCCN2C(=O)c2ccc(F)cc2)no1 (chirality)
Cc1c(NC(=O)c2cccnc2)cccc1-c1nc([C@@H]2CCCN2C(=O)c2ccc(F)cc2)no1 (3D coordinates assigned)
Cc1c(NC(=O)c2cccnc2)cccc1-c1nc([C@@H]2CCCN2C(=O)c2ccc(F)cc2)no1 (nonaromatic ring conformer: 113.85654165520188 kcal/mol)

>  <smiles>  (78) 
Cc1c(NC(=O)c2cccnc2)cccc1-c1nc(C2CCCN2C(=O)c2ccc(F)cc2)no1

>  <score_type>  (78) 
oracle

>  <origin>  (78) 
adg

>  <m_score__min__energy>  (78) 
-10.66

>  <m_primary>  (78) 
energy

$$$$
78:0
     RDKit          3D

 49 51  0  0  0  0  0  0  0  0999 V2000
   57.0380   25.0020   44.8100 C   0  0  0  0  0  0  0  0  0  0  0  0
   56.3870   25.7400   46.2930 S   0  0  0  0  0  0  0  0  0  0  0  0
   56.1850   24.6870   47.3440 O   0  0  0  0  0  0  0  0  0  0  0  0
   55.0580   26.3680   45.9840 O   0  0  0  0  0  0  0  0  0  0  0  0
   57.4680   26.9680   46.8720 N   0  0  0  0  0  0  0  0  0  0  0  0
   57.7500   28.1920   46.1660 C   0  0  0  0  0  0  0  0  0  0  0  0
   57.0320   28.5290   45.0020 C   0  0  0  0  0  0  0  0  0  0  0  0
   57.2500   29.7480   44.3560 C   0  0  0  0  0  0  0  0  0  0  0  0
   58.1820   30.6530   44.8630 C   0  0  0  0  0  0  0  0  0  0  0  0
   58.9020   30.3390   46.0150 C   0  0  0  0  0  0  0  0  0  0  0  0
   58.6950   29.1160   46.6770 C   0  0  0  0  0  0  0  0  0  0  0  0
   59.5050   28.8120   47.8760 C   0  0  0  0  0  0  0  0  0  0  0  0
   59.9370   27.6390   48.0400 O   0  0  0  0  0  0  0  0  0  0  0  0
   59.8210   29.8350   48.8400 N   0  0  0  0  0  0  0  0  0  0  0  0
   60.9760   29.6800   49.7280 C   0  0  0  0  0  0  0  0  0  0  0  0
   61.6240   31.0500   49.9470 C   0  0  0  0  0  0  0  0  0  0  0  0
   60.6660   32.0580   50.4640 N   0  0  0  0  0  0  0  0  0  0  0  0
   61.0180   33.4570   50.1240 C   0  0  0  0  0  0  0  0  0  0  0  0
   60.7060   33.8340   48.6900 C   0  0  0  0  0  0  0  0  0  0  0  0
   61.6050   33.5190   47.6540 C   0  0  0  0  0  0  0  0  0  0  0  0
   61.2990   33.8390   46.3270 C   0  0  0  0  0  0  0  0  0  0  0  0
   60.1040   34.4930   46.0220 C   0  0  0  0  0  0  0  0  0  0  0  0
   59.2210   34.8440   47.0470 C   0  0  0  0  0  0  0  0  0  0  0  0
   59.5230   34.5280   48.3750 C   0  0  0  0  0  0  0  0  0  0  0  0
   59.2280   31.7240   50.3360 C   0  0  0  0  0  0  0  0  0  0  0  0
   58.9070   30.9660   49.0390 C   0  0  0  0  0  0  0  0  0  0  0  0
   57.7438   24.2019   45.0779 H   0  0  0  0  0  0  0  0  0  0  0  0
   56.2127   24.5798   44.2178 H   0  0  0  0  0  0  0  0  0  0  0  0
   57.5598   25.7681   44.2178 H   0  0  0  0  0  0  0  0  0  0  0  0
   57.9630   26.7610   47.7670 H   0  0  0  0  0  0  0  0  0  0  0  0
   56.2910   27.8240   44.5971 H   0  0  0  0  0  0  0  0  0  0  0  0
   56.6851   29.9948   43.4450 H   0  0  0  0  0  0  0  0  0  0  0  0
   58.3490   31.6140   44.3544 H   0  0  0  0  0  0  0  0  0  0  0  0
   59.6385   31.0545   46.4094 H   0  0  0  0  0  0  0  0  0  0  0  0
   60.6462   29.2694   50.6937 H   0  0  0  0  0  0  0  0  0  0  0  0
   61.7047   28.9927   49.2734 H   0  0  0  0  0  0  0  0  0  0  0  0
   62.4446   30.9399   50.6712 H   0  0  0  0  0  0  0  0  0  0  0  0
   61.9884   31.4059   48.9721 H   0  0  0  0  0  0  0  0  0  0  0  0
   60.4550   34.1280   50.7895 H   0  0  0  0  0  0  0  0  0  0  0  0
   62.1063   33.5540   50.2516 H   0  0  0  0  0  0  0  0  0  0  0  0
   62.5553   33.0175   47.8895 H   0  0  0  0  0  0  0  0  0  0  0  0
   62.0012   33.5748   45.5225 H   0  0  0  0  0  0  0  0  0  0  0  0
   59.8577   34.7317   44.9768 H   0  0  0  0  0  0  0  0  0  0  0  0
   58.2853   35.3706   46.8080 H   0  0  0  0  0  0  0  0  0  0  0  0
   58.8320   34.8235   49.1782 H   0  0  0  0  0  0  0  0  0  0  0  0
   58.9351   31.0973   51.1912 H   0  0  0  0  0  0  0  0  0  0  0  0
   58.6684   32.6708   50.3139 H   0  0  0  0  0  0  0  0  0  0  0  0
   57.8754   30.5877   49.0914 H   0  0  0  0  0  0  0  0  0  0  0  0
   59.0255   31.6600   48.1938 H   0  0  0  0  0  0  0  0  0  0  0  0
  1  2  1  0
  2  3  2  0
  2  4  2  0
  2  5  1  0
  5  6  1  0
  6  7  2  0
  7  8  1  0
  8  9  2  0
  9 10  1  0
 10 11  2  0
 11 12  1  0
 12 13  2  0
 12 14  1  0
 14 15  1  0
 15 16  1  0
 16 17  1  0
 17 18  1  0
 18 19  1  0
 19 20  2  0
 20 21  1  0
 21 22  2  0
 22 23  1  0
 23 24  2  0
 17 25  1  0
 25 26  1  0
 11  6  1  0
 26 14  1  0
 24 19  1  0
  1 27  1  0
  1 28  1  0
  1 29  1  0
  5 30  1  0
  7 31  1  0
  8 32  1  0
  9 33  1  0
 10 34  1  0
 15 35  1  0
 15 36  1  0
 16 37  1  0
 16 38  1  0
 18 39  1  0
 18 40  1  0
 20 41  1  0
 21 42  1  0
 22 43  1  0
 23 44  1  0
 24 45  1  0
 25 46  1  0
 25 47  1  0
 26 48  1  0
 26 49  1  0
M  END
>  <UniqueID>  (79) 
72

>  <SMILES>  (79) 
CS(=O)(=O)Nc1ccccc1C(=O)N1CCN(Cc2ccccc2)CC1

>  <Energy>  (79) 
65.49998150388228

>  <Genealogy>  (79) 
CS(=O)(=O)Nc1ccccc1C(=O)N1CCN(Cc2ccccc2)CC1 (3D coordinates assigned)
CS(=O)(=O)Nc1ccccc1C(=O)N1CCN(Cc2ccccc2)CC1 (nonaromatic ring conformer: 65.49998150388228 kcal/mol)

>  <smiles>  (79) 
CS(=O)(=O)Nc1ccccc1C(=O)N1CCN(Cc2ccccc2)CC1

>  <score_type>  (79) 
oracle

>  <origin>  (79) 
adg

>  <m_score__min__energy>  (79) 
-8.9399999999999995

>  <m_primary>  (79) 
energy

$$$$
79:0
     RDKit          3D

 52 54  0  0  1  0  0  0  0  0999 V2000
   61.0960   28.7030   44.7500 C   0  0  0  0  0  0  0  0  0  0  0  0
   59.6330   28.6430   44.9950 C   0  0  0  0  0  0  0  0  0  0  0  0
   58.8960   29.7980   44.9370 C   0  0  0  0  0  0  0  0  0  0  0  0
   57.5300   29.6780   45.1760 C   0  0  0  0  0  0  0  0  0  0  0  0
   56.8510   30.7620   45.1200 N   0  0  0  0  0  0  0  0  0  0  0  0
   57.4030   31.9630   44.5590 C   0  0  0  0  0  0  0  0  0  0  0  0
   56.6820   33.1590   45.1660 C   0  0  0  0  0  0  0  0  0  0  0  0
   57.6060   34.1870   45.7350 C   0  0  0  0  0  0  0  0  0  0  0  0
   58.6300   33.6850   46.6580 C   0  0  0  0  0  0  0  0  0  0  0  0
   59.6430   34.2980   47.0500 O   0  0  0  0  0  0  0  0  0  0  0  0
   58.4560   32.3520   47.1650 N   0  0  0  0  0  0  0  0  0  0  0  0
   59.4230   31.7880   48.0780 C   0  0  0  0  0  0  0  0  0  0  0  0
   60.8020   31.6840   47.4770 C   0  0  0  0  0  0  0  0  0  0  0  0
   61.4230   30.4850   48.1580 C   0  0  0  0  0  0  0  0  0  0  0  0
   60.3160   29.7730   48.8990 C   0  0  0  0  0  0  0  0  0  0  0  0
   59.0610   30.3390   48.2830 C   0  0  0  0  0  0  0  0  0  0  0  0
   57.0000   28.4680   45.4490 N   0  0  0  0  0  0  0  0  0  0  0  0
   57.7120   27.3420   45.5060 C   0  0  0  0  0  0  0  0  0  0  0  0
   57.2260   26.0160   45.7880 C   0  0  0  0  0  0  0  0  0  0  0  0
   58.1500   24.9590   45.8350 C   0  0  0  0  0  0  0  0  0  0  0  0
   57.7720   23.6660   46.0980 C   0  0  0  0  0  0  0  0  0  0  0  0
   56.4610   23.3270   46.3310 C   0  0  0  0  0  0  0  0  0  0  0  0
   55.5340   24.3450   46.2910 C   0  0  0  0  0  0  0  0  0  0  0  0
   55.9240   25.6620   46.0230 C   0  0  0  0  0  0  0  0  0  0  0  0
   54.9200   26.5970   46.0070 O   0  0  0  0  0  0  0  0  0  0  0  0
   59.0500   27.4880   45.2670 N   0  0  0  0  0  0  0  0  0  0  0  0
   61.6283   28.7248   45.7124 H   0  0  0  0  0  0  0  0  0  0  0  0
   61.4086   27.8169   44.1781 H   0  0  0  0  0  0  0  0  0  0  0  0
   61.3350   29.6117   44.1781 H   0  0  0  0  0  0  0  0  0  0  0  0
   59.3606   30.7696   44.7131 H   0  0  0  0  0  0  0  0  0  0  0  0
   58.4767   32.0208   44.7909 H   0  0  0  0  0  0  0  0  0  0  0  0
   57.2739   31.9613   43.4666 H   0  0  0  0  0  0  0  0  0  0  0  0
   56.0739   33.6336   44.3818 H   0  0  0  0  0  0  0  0  0  0  0  0
   56.0693   32.7795   45.9971 H   0  0  0  0  0  0  0  0  0  0  0  0
   58.1200   34.6797   44.8965 H   0  0  0  0  0  0  0  0  0  0  0  0
   56.9724   34.8611   46.3301 H   0  0  0  0  0  0  0  0  0  0  0  0
   57.6450   31.7520   46.9000 H   0  0  0  0  0  0  0  0  0  0  0  0
   59.4180   32.4278   48.9728 H   0  0  0  0  0  0  0  0  0  0  0  0
   60.7414   31.5256   46.3902 H   0  0  0  0  0  0  0  0  0  0  0  0
   61.3923   32.6005   47.6240 H   0  0  0  0  0  0  0  0  0  0  0  0
   61.8680   29.8139   47.4087 H   0  0  0  0  0  0  0  0  0  0  0  0
   62.2200   30.7963   48.8493 H   0  0  0  0  0  0  0  0  0  0  0  0
   60.3746   28.6856   48.7437 H   0  0  0  0  0  0  0  0  0  0  0  0
   60.3640   29.9215   49.9879 H   0  0  0  0  0  0  0  0  0  0  0  0
   58.8312   29.8474   47.3261 H   0  0  0  0  0  0  0  0  0  0  0  0
   58.1643   30.1946   48.9035 H   0  0  0  0  0  0  0  0  0  0  0  0
   55.9870   28.4310   45.6170 H   0  0  0  0  0  0  0  0  0  0  0  0
   59.2134   25.1750   45.6548 H   0  0  0  0  0  0  0  0  0  0  0  0
   58.5402   22.8791   46.1229 H   0  0  0  0  0  0  0  0  0  0  0  0
   56.1648   22.2885   46.5402 H   0  0  0  0  0  0  0  0  0  0  0  0
   54.4727   24.1197   46.4722 H   0  0  0  0  0  0  0  0  0  0  0  0
   54.0200   26.3350   46.3940 H   0  0  0  0  0  0  0  0  0  0  0  0
  1  2  1  0
  2  3  2  0
  3  4  1  0
  4  5  2  0
  5  6  1  0
  6  7  1  0
  7  8  1  0
  8  9  1  0
  9 10  2  0
  9 11  1  0
 11 12  1  0
 12 13  1  0
 13 14  1  0
 14 15  1  0
 15 16  1  0
  4 17  1  0
 17 18  1  0
 18 19  1  0
 19 20  2  0
 20 21  1  0
 21 22  2  0
 22 23  1  0
 23 24  2  0
 24 25  1  0
 18 26  2  0
 26  2  1  0
 16 12  1  0
 24 19  1  0
  1 27  1  0
  1 28  1  0
  1 29  1  0
  3 30  1  0
  6 31  1  0
  6 32  1  0
  7 33  1  0
  7 34  1  0
  8 35  1  0
  8 36  1  0
 11 37  1  0
 12 38  1  0
 13 39  1  0
 13 40  1  0
 14 41  1  0
 14 42  1  0
 15 43  1  0
 15 44  1  0
 16 45  1  0
 16 46  1  0
 17 47  1  0
 20 48  1  0
 21 49  1  0
 22 50  1  0
 23 51  1  0
 25 52  1  0
M  END
>  <smiles>  (80) 
Cc1cc(=NCCCC(=O)NC2CCCC2)[nH]c(-c2ccccc2O)n1

>  <score_type>  (80) 
oracle

>  <origin>  (80) 
adg

>  <m_score__min__energy>  (80) 
-10.1

>  <m_primary>  (80) 
energy

$$$$
80:0
     RDKit          3D

 44 46  0  0  0  0  0  0  0  0999 V2000
   57.5270   32.3360   41.0930 C   0  0  0  0  0  0  0  0  0  0  0  0
   57.5340   32.1020   42.5430 N   0  0  0  0  0  0  0  0  0  0  0  0
   57.9800   33.0880   43.3790 C   0  0  0  0  0  0  0  0  0  0  0  0
   58.0210   32.8960   44.7670 C   0  0  0  0  0  0  0  0  0  0  0  0
   58.5160   33.9800   45.6540 C   0  0  0  0  0  0  0  0  0  0  0  0
   58.9060   35.0650   45.1400 O   0  0  0  0  0  0  0  0  0  0  0  0
   58.6300   33.7940   47.1480 C   0  0  0  0  0  0  0  0  0  0  0  0
   59.5050   32.6210   47.5210 C   0  0  0  0  0  0  0  0  0  0  0  0
   58.9630   31.5600   47.9360 O   0  0  0  0  0  0  0  0  0  0  0  0
   60.9790   32.6590   47.3470 C   0  0  0  0  0  0  0  0  0  0  0  0
   61.7880   31.5600   47.6980 C   0  0  0  0  0  0  0  0  0  0  0  0
   63.1750   31.6190   47.5320 C   0  0  0  0  0  0  0  0  0  0  0  0
   63.7710   32.7720   47.0200 C   0  0  0  0  0  0  0  0  0  0  0  0
   62.9830   33.8720   46.6770 C   0  0  0  0  0  0  0  0  0  0  0  0
   61.5950   33.8190   46.8420 C   0  0  0  0  0  0  0  0  0  0  0  0
   57.6100   31.6600   45.2830 C   0  0  0  0  0  0  0  0  0  0  0  0
   57.1450   30.6530   44.4310 C   0  0  0  0  0  0  0  0  0  0  0  0
   56.7200   29.3540   45.0090 C   0  0  0  0  0  0  0  0  0  0  0  0
   55.4970   29.0480   44.9690 O   0  0  0  0  0  0  0  0  0  0  0  0
   57.6860   28.4000   45.6070 C   0  0  0  0  0  0  0  0  0  0  0  0
   59.0520   28.7200   45.7090 C   0  0  0  0  0  0  0  0  0  0  0  0
   59.9550   27.8060   46.2620 C   0  0  0  0  0  0  0  0  0  0  0  0
   59.5050   26.5630   46.7110 C   0  0  0  0  0  0  0  0  0  0  0  0
   58.1540   26.2280   46.6020 C   0  0  0  0  0  0  0  0  0  0  0  0
   57.2480   27.1380   46.0500 C   0  0  0  0  0  0  0  0  0  0  0  0
   57.1370   30.8870   43.0420 C   0  0  0  0  0  0  0  0  0  0  0  0
   56.7830   29.9660   42.2540 O   0  0  0  0  0  0  0  0  0  0  0  0
   57.4946   33.4178   40.8963 H   0  0  0  0  0  0  0  0  0  0  0  0
   58.4383   31.9096   40.6484 H   0  0  0  0  0  0  0  0  0  0  0  0
   56.6428   31.8559   40.6484 H   0  0  0  0  0  0  0  0  0  0  0  0
   58.3120   34.0474   42.9554 H   0  0  0  0  0  0  0  0  0  0  0  0
   59.0597   34.7074   47.5852 H   0  0  0  0  0  0  0  0  0  0  0  0
   57.6207   33.5945   47.5374 H   0  0  0  0  0  0  0  0  0  0  0  0
   61.3250   30.6492   48.1055 H   0  0  0  0  0  0  0  0  0  0  0  0
   63.7977   30.7545   47.8057 H   0  0  0  0  0  0  0  0  0  0  0  0
   64.8621   32.8142   46.8866 H   0  0  0  0  0  0  0  0  0  0  0  0
   63.4542   34.7817   46.2764 H   0  0  0  0  0  0  0  0  0  0  0  0
   60.9801   34.6911   46.5749 H   0  0  0  0  0  0  0  0  0  0  0  0
   57.6534   31.4800   46.3673 H   0  0  0  0  0  0  0  0  0  0  0  0
   59.4126   29.6958   45.3514 H   0  0  0  0  0  0  0  0  0  0  0  0
   61.0205   28.0668   46.3432 H   0  0  0  0  0  0  0  0  0  0  0  0
   60.2151   25.8473   47.1508 H   0  0  0  0  0  0  0  0  0  0  0  0
   57.8020   25.2461   46.9512 H   0  0  0  0  0  0  0  0  0  0  0  0
   56.1858   26.8661   45.9613 H   0  0  0  0  0  0  0  0  0  0  0  0
  1  2  1  0
  2  3  1  0
  3  4  2  0
  4  5  1  0
  5  6  2  0
  5  7  1  0
  7  8  1  0
  8  9  2  0
  8 10  1  0
 10 11  2  0
 11 12  1  0
 12 13  2  0
 13 14  1  0
 14 15  2  0
  4 16  1  0
 16 17  2  0
 17 18  1  0
 18 19  2  0
 18 20  1  0
 20 21  2  0
 21 22  1  0
 22 23  2  0
 23 24  1  0
 24 25  2  0
 17 26  1  0
 26 27  2  0
 26  2  1  0
 15 10  1  0
 25 20  1  0
  1 28  1  0
  1 29  1  0
  1 30  1  0
  3 31  1  0
  7 32  1  0
  7 33  1  0
 11 34  1  0
 12 35  1  0
 13 36  1  0
 14 37  1  0
 15 38  1  0
 16 39  1  0
 21 40  1  0
 22 41  1  0
 23 42  1  0
 24 43  1  0
 25 44  1  0
M  END
>  <UniqueID>  (81) 
73

>  <SMILES>  (81) 
Cn1cc(C(=O)CC(=O)c2ccccc2)cc(C(=O)c2ccccc2)c1=O

>  <Energy>  (81) 
62.019772481408026

>  <Genealogy>  (81) 
Cn1cc(C(=O)CC(=O)c2ccccc2)cc(C(=O)c2ccccc2)c1=O (3D coordinates assigned)
Cn1cc(C(=O)CC(=O)c2ccccc2)cc(C(=O)c2ccccc2)c1=O (optimized conformer: 62.019772481408026 kcal/mol)

>  <smiles>  (81) 
Cn1cc(C(=O)CC(=O)c2ccccc2)cc(C(=O)c2ccccc2)c1=O

>  <score_type>  (81) 
oracle

>  <origin>  (81) 
adg

>  <m_score__min__energy>  (81) 
-9.4299999999999997

>  <m_primary>  (81) 
energy

$$$$
81:0
     RDKit          3D

 40 41  0  0  0  0  0  0  0  0999 V2000
   64.0202   33.0270   46.5349 H   0  0  0  0  0  0  0  0  0  0  0  0
   63.4750   33.1180   47.4860 C   0  0  0  0  0  0  0  0  0  0  0  0
   62.8760   33.2180   48.5310 C   0  0  0  0  0  0  0  0  0  0  0  0
   62.1510   33.3380   49.8020 C   0  0  0  0  0  0  0  0  0  0  0  0
   61.9232   32.3326   50.1858 H   0  0  0  0  0  0  0  0  0  0  0  0
   62.7794   33.8834   50.5214 H   0  0  0  0  0  0  0  0  0  0  0  0
   60.9320   34.0570   49.6130 O   0  0  0  0  0  0  0  0  0  0  0  0
   60.1340   34.0150   48.4600 C   0  0  0  0  0  0  0  0  0  0  0  0
   60.3790   34.8320   47.3420 C   0  0  0  0  0  0  0  0  0  0  0  0
   61.2240   35.5362   47.3559 H   0  0  0  0  0  0  0  0  0  0  0  0
   59.5580   34.7570   46.2130 C   0  0  0  0  0  0  0  0  0  0  0  0
   59.7648   35.4016   45.3459 H   0  0  0  0  0  0  0  0  0  0  0  0
   58.4690   33.8650   46.1740 C   0  0  0  0  0  0  0  0  0  0  0  0
   57.5820   33.7650   44.9800 C   0  0  0  0  0  0  0  0  0  0  0  0
   56.6020   34.5510   44.8680 O   0  0  0  0  0  0  0  0  0  0  0  0
   57.7770   32.7230   43.9100 C   0  0  0  0  0  0  0  0  0  0  0  0
   57.0060   32.8481   43.1355 H   0  0  0  0  0  0  0  0  0  0  0  0
   58.7762   32.8449   43.4665 H   0  0  0  0  0  0  0  0  0  0  0  0
   57.6670   31.3500   44.5020 C   0  0  0  0  0  0  0  0  0  0  0  0
   56.5280   30.8300   44.6610 O   0  0  0  0  0  0  0  0  0  0  0  0
   58.8890   30.6240   44.9120 C   0  0  0  0  0  0  0  0  0  0  0  0
   59.6660   31.1983   45.4379 H   0  0  0  0  0  0  0  0  0  0  0  0
   59.1260   29.3210   44.6940 C   0  0  0  0  0  0  0  0  0  0  0  0
   59.8606   29.0641   43.9166 H   0  0  0  0  0  0  0  0  0  0  0  0
   58.4780   28.2000   45.4160 C   0  0  0  0  0  0  0  0  0  0  0  0
   59.2790   27.2680   46.0910 C   0  0  0  0  0  0  0  0  0  0  0  0
   60.3697   27.4073   46.1232 H   0  0  0  0  0  0  0  0  0  0  0  0
   58.7010   26.1620   46.7240 C   0  0  0  0  0  0  0  0  0  0  0  0
   59.3385   25.4386   47.2535 H   0  0  0  0  0  0  0  0  0  0  0  0
   57.3170   25.9730   46.6860 C   0  0  0  0  0  0  0  0  0  0  0  0
   56.7510   24.8710   47.3190 O   0  0  0  0  0  0  0  0  0  0  0  0
   56.5070   26.8860   46.0010 C   0  0  0  0  0  0  0  0  0  0  0  0
   55.1290   26.6930   45.9670 O   0  0  0  0  0  0  0  0  0  0  0  0
   54.6980   25.8770   46.3850 H   0  0  0  0  0  0  0  0  0  0  0  0
   57.0890   27.9860   45.3500 C   0  0  0  0  0  0  0  0  0  0  0  0
   56.4547   28.6848   44.7848 H   0  0  0  0  0  0  0  0  0  0  0  0
   58.2290   33.0510   47.2980 C   0  0  0  0  0  0  0  0  0  0  0  0
   57.3790   32.3528   47.2912 H   0  0  0  0  0  0  0  0  0  0  0  0
   59.0570   33.1190   48.4220 C   0  0  0  0  0  0  0  0  0  0  0  0
   58.8080   32.2860   49.5070 O   0  0  0  0  0  0  0  0  0  0  0  0
  1  2  1  0
  2  3  3  0
  3  4  1  0
  4  5  1  0
  4  6  1  0
  4  7  1  0
  7  8  1  0
  8  9  2  0
  9 10  1  0
  9 11  1  0
 11 12  1  0
 11 13  2  0
 13 14  1  0
 14 15  2  0
 14 16  1  0
 16 17  1  0
 16 18  1  0
 16 19  1  0
 19 20  2  0
 19 21  1  0
 21 22  1  0
 21 23  2  0
 23 24  1  0
 23 25  1  0
 25 26  2  0
 26 27  1  0
 26 28  1  0
 28 29  1  0
 28 30  2  0
 30 31  1  0
 30 32  1  0
 32 33  1  0
 33 34  1  0
 32 35  2  0
 35 36  1  0
 13 37  1  0
 37 38  1  0
 37 39  2  0
 39 40  1  0
 39  8  1  0
 35 25  1  0
M  CHG  2  31  -1  40  -1
M  END
>  <UniqueID>  (82) 
74

>  <SMILES>  (82) 
C#CCOc1ccc(C(=O)CC(=O)/C=C\c2ccc([O-])c(O)c2)cc1[O-]

>  <Energy>  (82) 
44.36352882133684

>  <Genealogy>  (82) 
C#CCOc1ccc(C(=O)CC(=O)C=Cc2ccc([O-])c(O)c2)cc1[O-] (protonated)
C#CCOc1ccc(C(=O)CC(=O)/C=C\c2ccc([O-])c(O)c2)cc1[O-] (cis-trans isomerization)
C#CCOc1ccc(C(=O)CC(=O)/C=C\c2ccc([O-])c(O)c2)cc1[O-] (3D coordinates assigned)
C#CCOc1ccc(C(=O)CC(=O)/C=C\c2ccc([O-])c(O)c2)cc1[O-] (optimized conformer: 44.36352882133684 kcal/mol)

>  <smiles>  (82) 
C#CCOc1ccc(C(=O)CC(=O)C=Cc2ccc(O)c(O)c2)cc1O

>  <score_type>  (82) 
oracle

>  <origin>  (82) 
adg

>  <m_score__min__energy>  (82) 
-12.19

>  <m_primary>  (82) 
energy

$$$$
82:0
     RDKit          3D

 51 53  0  0  0  0  0  0  0  0999 V2000
   55.2212   25.7181   46.6125 H   0  0  0  0  0  0  0  0  0  0  0  0
   56.0810   26.3490   46.3430 C   0  0  0  0  0  0  0  0  0  0  0  0
   55.8860   27.4860   45.6280 N   0  0  0  0  0  0  0  0  0  0  0  0
   56.9180   28.2940   45.2740 C   0  0  0  0  0  0  0  0  0  0  0  0
   56.6660   29.4540   44.5330 C   0  0  0  0  0  0  0  0  0  0  0  0
   55.6350   29.7065   44.2445 H   0  0  0  0  0  0  0  0  0  0  0  0
   57.7190   30.2930   44.1580 C   0  0  0  0  0  0  0  0  0  0  0  0
   57.3960   31.7440   43.2260 Cl  0  0  0  0  0  0  0  0  0  0  0  0
   59.0300   29.9760   44.5240 C   0  0  0  0  0  0  0  0  0  0  0  0
   59.8568   30.6378   44.2267 H   0  0  0  0  0  0  0  0  0  0  0  0
   59.2950   28.8220   45.2660 C   0  0  0  0  0  0  0  0  0  0  0  0
   60.3296   28.5810   45.5516 H   0  0  0  0  0  0  0  0  0  0  0  0
   58.2430   27.9640   45.6510 C   0  0  0  0  0  0  0  0  0  0  0  0
   58.4710   26.7820   46.3940 C   0  0  0  0  0  0  0  0  0  0  0  0
   59.6910   26.4660   46.7390 N   0  0  0  0  0  0  0  0  0  0  0  0
   60.3540   26.7040   48.0230 C   0  0  0  0  0  0  0  0  0  0  0  0
   61.4249   26.8810   47.8444 H   0  0  0  0  0  0  0  0  0  0  0  0
   60.2027   25.8184   48.6577 H   0  0  0  0  0  0  0  0  0  0  0  0
   59.7610   27.9230   48.7490 C   0  0  0  0  0  0  0  0  0  0  0  0
   58.7195   27.6945   49.0194 H   0  0  0  0  0  0  0  0  0  0  0  0
   59.8354   28.7775   48.0603 H   0  0  0  0  0  0  0  0  0  0  0  0
   60.5260   28.3070   50.0330 C   0  0  0  0  0  0  0  0  0  0  0  0
   61.5713   27.9810   49.9279 H   0  0  0  0  0  0  0  0  0  0  0  0
   60.0213   27.8109   50.8751 H   0  0  0  0  0  0  0  0  0  0  0  0
   60.5120   29.7630   50.3070 N   0  0  0  0  0  0  0  0  0  0  0  0
   59.5340   30.1220   50.2070 H   0  0  0  0  0  0  0  0  0  0  0  0
   60.7880   29.9600   51.2970 H   0  0  0  0  0  0  0  0  0  0  0  0
   61.4020   30.5250   49.4120 C   0  0  0  0  0  0  0  0  0  0  0  0
   62.0033   29.8177   48.8219 H   0  0  0  0  0  0  0  0  0  0  0  0
   62.0427   31.1672   50.0342 H   0  0  0  0  0  0  0  0  0  0  0  0
   60.6250   31.4130   48.4670 C   0  0  0  0  0  0  0  0  0  0  0  0
   61.2440   32.5190   47.8700 C   0  0  0  0  0  0  0  0  0  0  0  0
   62.3014   32.7342   48.0833 H   0  0  0  0  0  0  0  0  0  0  0  0
   60.5270   33.3510   47.0050 C   0  0  0  0  0  0  0  0  0  0  0  0
   61.0273   34.2157   46.5445 H   0  0  0  0  0  0  0  0  0  0  0  0
   59.1700   33.0960   46.7150 C   0  0  0  0  0  0  0  0  0  0  0  0
   58.4240   33.9600   45.8190 N   0  0  0  0  0  0  0  0  0  0  0  0
   56.9610   33.8610   45.7330 C   0  0  0  0  0  0  0  0  0  0  0  0
   56.5352   33.8322   46.7468 H   0  0  0  0  0  0  0  0  0  0  0  0
   56.5654   34.7344   45.1939 H   0  0  0  0  0  0  0  0  0  0  0  0
   56.6867   32.9422   45.1939 H   0  0  0  0  0  0  0  0  0  0  0  0
   59.1170   34.9490   44.9840 C   0  0  0  0  0  0  0  0  0  0  0  0
   59.6285   35.6790   45.6285 H   0  0  0  0  0  0  0  0  0  0  0  0
   59.8564   34.4391   44.3489 H   0  0  0  0  0  0  0  0  0  0  0  0
   58.3853   35.4699   44.3489 H   0  0  0  0  0  0  0  0  0  0  0  0
   58.5590   31.9780   47.3210 C   0  0  0  0  0  0  0  0  0  0  0  0
   57.5023   31.7567   47.1104 H   0  0  0  0  0  0  0  0  0  0  0  0
   59.2780   31.1480   48.1850 C   0  0  0  0  0  0  0  0  0  0  0  0
   58.7835   30.2808   48.6469 H   0  0  0  0  0  0  0  0  0  0  0  0
   57.3660   25.9760   46.7380 C   0  0  0  0  0  0  0  0  0  0  0  0
   57.5173   25.0534   47.3176 H   0  0  0  0  0  0  0  0  0  0  0  0
  1  2  1  0
  2  3  1  0
  3  4  1  0
  4  5  2  0
  5  6  1  0
  5  7  1  0
  7  8  1  0
  7  9  2  0
  9 10  1  0
  9 11  1  0
 11 12  1  0
 11 13  2  0
 13 14  1  0
 14 15  2  0
 15 16  1  0
 16 17  1  0
 16 18  1  0
 16 19  1  0
 19 20  1  0
 19 21  1  0
 19 22  1  0
 22 23  1  0
 22 24  1  0
 22 25  1  0
 25 26  1  0
 25 27  1  0
 25 28  1  0
 28 29  1  0
 28 30  1  0
 28 31  1  0
 31 32  2  0
 32 33  1  0
 32 34  1  0
 34 35  1  0
 34 36  2  0
 36 37  1  0
 37 38  1  0
 38 39  1  0
 38 40  1  0
 38 41  1  0
 37 42  1  0
 42 43  1  0
 42 44  1  0
 42 45  1  0
 36 46  1  0
 46 47  1  0
 46 48  2  0
 48 49  1  0
 14 50  1  0
 50 51  1  0
 50  2  2  0
 13  4  1  0
 48 31  1  0
M  CHG  2   3  -1  25   1
M  END
>  <UniqueID>  (83) 
75

>  <SMILES>  (83) 
CN(C)c1ccc(C[NH2+]CCC/N=c2\cc[n-]c3cc(Cl)ccc23)cc1

>  <Energy>  (83) 
60.77136241248062

>  <Genealogy>  (83) 
CN(C)c1ccc(C[NH2+]CCCN=c2cc[n-]c3cc(Cl)ccc23)cc1 (protonated)
CN(C)c1ccc(C[NH2+]CCC/N=c2\cc[n-]c3cc(Cl)ccc23)cc1 (cis-trans isomerization)
CN(C)c1ccc(C[NH2+]CCC/N=c2\cc[n-]c3cc(Cl)ccc23)cc1 (3D coordinates assigned)
CN(C)c1ccc(C[NH2+]CCC/N=c2\cc[n-]c3cc(Cl)ccc23)cc1 (optimized conformer: 60.77136241248062 kcal/mol)

>  <smiles>  (83) 
CN(C)c1ccc(CNCCCN=c2cc[nH]c3cc(Cl)ccc23)cc1

>  <score_type>  (83) 
oracle

>  <origin>  (83) 
adg

>  <m_score__min__energy>  (83) 
-8.0500000000000007

>  <m_primary>  (83) 
energy

$$$$
83:0
     RDKit          3D

 18 19  0  0  0  0  0  0  0  0999 V2000
   60.4300   28.9120   44.6310 O   0  0  0  0  0  0  0  0  0  0  0  0
   59.1730   28.9020   44.7100 C   0  0  0  0  0  0  0  0  0  0  0  0
   58.4330   30.0240   44.2270 N   0  0  0  0  0  0  0  0  0  0  0  0
   57.1360   30.0880   44.2730 C   0  0  0  0  0  0  0  0  0  0  0  0
   56.2790   28.9850   44.8440 C   0  0  0  0  0  0  0  0  0  0  0  0
   57.0550   27.7910   45.3600 C   0  0  0  0  0  0  0  0  0  0  0  0
   56.3620   26.6980   45.9160 C   0  0  0  0  0  0  0  0  0  0  0  0
   54.9720   26.7090   45.9930 O   0  0  0  0  0  0  0  0  0  0  0  0
   57.0640   25.5890   46.3960 C   0  0  0  0  0  0  0  0  0  0  0  0
   58.4570   25.5570   46.3270 C   0  0  0  0  0  0  0  0  0  0  0  0
   59.1570   26.6340   45.7790 C   0  0  0  0  0  0  0  0  0  0  0  0
   58.4620   27.7540   45.2940 C   0  0  0  0  0  0  0  0  0  0  0  0
   56.6403   30.9869   43.8778 H   0  0  0  0  0  0  0  0  0  0  0  0
   55.6938   29.4009   45.6774 H   0  0  0  0  0  0  0  0  0  0  0  0
   55.6508   28.6176   44.0191 H   0  0  0  0  0  0  0  0  0  0  0  0
   56.5167   24.7390   46.8294 H   0  0  0  0  0  0  0  0  0  0  0  0
   59.0052   24.6815   46.7051 H   0  0  0  0  0  0  0  0  0  0  0  0
   60.2554   26.6051   45.7271 H   0  0  0  0  0  0  0  0  0  0  0  0
  1  2  2  0
  2  3  1  0
  3  4  2  0
  4  5  1  0
  5  6  1  0
  6  7  2  0
  7  8  1  0
  7  9  1  0
  9 10  2  0
 10 11  1  0
 11 12  2  0
 12  2  1  0
 12  6  1  0
  4 13  1  0
  5 14  1  0
  5 15  1  0
  9 16  1  0
 10 17  1  0
 11 18  1  0
M  CHG  1   8  -1
M  END
>  <UniqueID>  (84) 
76

>  <SMILES>  (84) 
O=C1N=CCc2c([O-])cccc21

>  <Energy>  (84) 
21.752989337232552

>  <Genealogy>  (84) 
O=C1N=CCc2c([O-])cccc21 (protonated)
O=C1N=CCc2c([O-])cccc21 (3D coordinates assigned)
O=C1N=CCc2c([O-])cccc21 (nonaromatic ring conformer: 21.752989337232552 kcal/mol)

>  <smiles>  (84) 
O=C1N=CCc2c(O)cccc21

>  <score_type>  (84) 
oracle

>  <origin>  (84) 
adg

>  <m_score__min__energy>  (84) 
-8.7899999999999991

>  <m_primary>  (84) 
energy

$$$$
84:0
     RDKit          3D

 36 38  0  0  0  0  0  0  0  0999 V2000
   54.7670   28.5770   44.5030 H   0  0  0  0  0  0  0  0  0  0  0  0
   55.5370   28.6900   45.1500 O   0  0  0  0  0  0  0  0  0  0  0  0
   56.3230   27.6230   45.5870 C   0  0  0  0  0  0  0  0  0  0  0  0
   55.7150   26.5880   46.2240 N   0  0  0  0  0  0  0  0  0  0  0  0
   56.4190   25.5100   46.6520 C   0  0  0  0  0  0  0  0  0  0  0  0
   55.8290   24.5680   47.2410 O   0  0  0  0  0  0  0  0  0  0  0  0
   57.7570   25.4440   46.4400 N   0  0  0  0  0  0  0  0  0  0  0  0
   58.4190   26.4500   45.8120 C   0  0  0  0  0  0  0  0  0  0  0  0
   59.6610   26.3530   45.6290 O   0  0  0  0  0  0  0  0  0  0  0  0
   57.7180   27.5880   45.3820 C   0  0  0  0  0  0  0  0  0  0  0  0
   58.4300   28.6740   44.6800 C   0  0  0  0  0  0  0  0  0  0  0  0
   58.8128   28.4553   43.6722 H   0  0  0  0  0  0  0  0  0  0  0  0
   58.6510   29.9100   45.1680 C   0  0  0  0  0  0  0  0  0  0  0  0
   57.9390   31.0190   44.7390 C   0  0  0  0  0  0  0  0  0  0  0  0
   57.1723   31.0403   43.9505 H   0  0  0  0  0  0  0  0  0  0  0  0
   58.3750   32.0900   45.4890 C   0  0  0  0  0  0  0  0  0  0  0  0
   57.8650   33.4930   45.3500 C   0  0  0  0  0  0  0  0  0  0  0  0
   57.7074   33.9265   46.3486 H   0  0  0  0  0  0  0  0  0  0  0  0
   58.6008   34.0978   44.7997 H   0  0  0  0  0  0  0  0  0  0  0  0
   56.9126   33.4841   44.7997 H   0  0  0  0  0  0  0  0  0  0  0  0
   59.3470   31.7020   46.3440 N   0  0  0  0  0  0  0  0  0  0  0  0
   60.0440   32.5620   47.2630 C   0  0  0  0  0  0  0  0  0  0  0  0
   61.3750   32.9300   47.0100 C   0  0  0  0  0  0  0  0  0  0  0  0
   61.8858   32.5562   46.1103 H   0  0  0  0  0  0  0  0  0  0  0  0
   62.0530   33.7700   47.8980 C   0  0  0  0  0  0  0  0  0  0  0  0
   63.0961   34.0553   47.6965 H   0  0  0  0  0  0  0  0  0  0  0  0
   61.4070   34.2480   49.0420 C   0  0  0  0  0  0  0  0  0  0  0  0
   61.9421   34.9081   49.7406 H   0  0  0  0  0  0  0  0  0  0  0  0
   60.0810   33.8870   49.2980 C   0  0  0  0  0  0  0  0  0  0  0  0
   59.5737   34.2633   50.1986 H   0  0  0  0  0  0  0  0  0  0  0  0
   59.3980   33.0480   48.4110 C   0  0  0  0  0  0  0  0  0  0  0  0
   58.1060   32.7180   48.6620 F   0  0  0  0  0  0  0  0  0  0  0  0
   59.5450   30.3720   46.1510 C   0  0  0  0  0  0  0  0  0  0  0  0
   60.5240   29.6820   46.7570 C   0  0  0  0  0  0  0  0  0  0  0  0
   61.1542   30.1713   47.5143 H   0  0  0  0  0  0  0  0  0  0  0  0
   60.6961   28.6273   46.4963 H   0  0  0  0  0  0  0  0  0  0  0  0
  1  2  1  0
  2  3  1  0
  3  4  1  0
  4  5  1  0
  5  6  2  0
  5  7  1  0
  7  8  1  0
  8  9  2  0
  8 10  1  0
 10 11  1  0
 11 12  1  0
 11 13  2  0
 13 14  1  0
 14 15  1  0
 14 16  2  0
 16 17  1  0
 17 18  1  0
 17 19  1  0
 17 20  1  0
 16 21  1  0
 21 22  1  0
 22 23  2  0
 23 24  1  0
 23 25  1  0
 25 26  1  0
 25 27  2  0
 27 28  1  0
 27 29  1  0
 29 30  1  0
 29 31  2  0
 31 32  1  0
 21 33  1  0
 33 34  2  0
 34 35  1  0
 34 36  1  0
 10  3  2  0
 33 13  1  0
 31 22  1  0
M  CHG  2   4  -1   7  -1
M  END
>  <UniqueID>  (85) 
77

>  <SMILES>  (85) 
C=c1/c(=C\c2c(O)[n-]c(=O)[n-]c2=O)cc(C)n1-c1ccccc1F

>  <Energy>  (85) 
88.28967705879991

>  <Genealogy>  (85) 
C=c1c(=Cc2c(O)[n-]c(=O)[n-]c2=O)cc(C)n1-c1ccccc1F (protonated)
C=c1/c(=C\c2c(O)[n-]c(=O)[n-]c2=O)cc(C)n1-c1ccccc1F (cis-trans isomerization)
C=c1/c(=C\c2c(O)[n-]c(=O)[n-]c2=O)cc(C)n1-c1ccccc1F (3D coordinates assigned)
C=c1/c(=C\c2c(O)[n-]c(=O)[n-]c2=O)cc(C)n1-c1ccccc1F (optimized conformer: 88.28967705879991 kcal/mol)

>  <smiles>  (85) 
C=c1c(=Cc2c(O)[nH]c(=O)[nH]c2=O)cc(C)n1-c1ccccc1F

>  <score_type>  (85) 
oracle

>  <origin>  (85) 
adg

>  <m_score__min__energy>  (85) 
-12.76

>  <m_primary>  (85) 
energy

$$$$
85:0
     RDKit          3D

 62 65  0  0  0  0  0  0  0  0999 V2000
   55.7650   29.7490   43.9400 C   0  0  0  0  0  0  0  0  0  0  0  0
   56.3250   29.5990   45.2420 O   0  0  0  0  0  0  0  0  0  0  0  0
   57.4720   28.8440   45.5370 C   0  0  0  0  0  0  0  0  0  0  0  0
   57.4070   27.6870   46.3430 C   0  0  0  0  0  0  0  0  0  0  0  0
   58.5630   26.9540   46.6200 C   0  0  0  0  0  0  0  0  0  0  0  0
   59.7940   27.3640   46.1010 C   0  0  0  0  0  0  0  0  0  0  0  0
   59.8750   28.5090   45.3040 C   0  0  0  0  0  0  0  0  0  0  0  0
   58.7210   29.2590   45.0170 C   0  0  0  0  0  0  0  0  0  0  0  0
   58.8330   30.4660   44.1140 C   0  0  0  0  0  0  0  0  0  0  0  0
   58.0660   31.5830   44.6590 N   0  0  0  0  0  0  0  0  0  0  0  0
   58.0850   32.8940   44.0700 C   0  0  0  0  0  0  0  0  0  0  0  0
   58.4930   33.0650   42.8890 O   0  0  0  0  0  0  0  0  0  0  0  0
   57.5930   34.0680   44.8490 C   0  0  0  0  0  0  0  0  0  0  0  0
   58.8530   34.6560   46.0330 S   0  0  0  0  0  0  0  0  0  0  0  0
   59.1320   33.0460   46.7880 C   0  0  0  0  0  0  0  0  0  0  0  0
   58.1510   32.3130   47.3480 N   0  0  0  0  0  0  0  0  0  0  0  0
   58.7210   31.2330   47.8570 N   0  0  0  0  0  0  0  0  0  0  0  0
   60.0430   31.3210   47.6030 C   0  0  0  0  0  0  0  0  0  0  0  0
   61.0540   30.3490   48.1570 C   0  0  0  0  0  0  0  0  0  0  0  0
   61.2600   30.5040   49.6700 C   0  0  0  0  0  0  0  0  0  0  0  0
   60.0020   30.9450   50.3780 C   0  0  0  0  0  0  0  0  0  0  0  0
   58.9740   30.0220   50.6490 C   0  0  0  0  0  0  0  0  0  0  0  0
   57.8060   30.4370   51.2990 C   0  0  0  0  0  0  0  0  0  0  0  0
   57.6560   31.7700   51.6920 C   0  0  0  0  0  0  0  0  0  0  0  0
   58.6790   32.6890   51.4400 C   0  0  0  0  0  0  0  0  0  0  0  0
   59.8450   32.2820   50.7810 C   0  0  0  0  0  0  0  0  0  0  0  0
   60.3380   32.4650   46.9450 N   0  0  0  0  0  0  0  0  0  0  0  0
   61.6540   33.0550   46.6720 C   0  0  0  0  0  0  0  0  0  0  0  0
   62.4400   33.2660   47.9390 C   0  0  0  0  0  0  0  0  0  0  0  0
   63.6610   32.6070   48.1470 C   0  0  0  0  0  0  0  0  0  0  0  0
   64.3360   32.7440   49.3610 C   0  0  0  0  0  0  0  0  0  0  0  0
   63.8010   33.5470   50.3710 C   0  0  0  0  0  0  0  0  0  0  0  0
   62.5950   34.2170   50.1690 C   0  0  0  0  0  0  0  0  0  0  0  0
   61.9140   34.0790   48.9600 C   0  0  0  0  0  0  0  0  0  0  0  0
   54.7058   30.0327   44.0269 H   0  0  0  0  0  0  0  0  0  0  0  0
   56.3109   30.5326   43.3941 H   0  0  0  0  0  0  0  0  0  0  0  0
   55.8461   28.7975   43.3941 H   0  0  0  0  0  0  0  0  0  0  0  0
   56.4406   27.3610   46.7551 H   0  0  0  0  0  0  0  0  0  0  0  0
   58.5044   26.0526   47.2477 H   0  0  0  0  0  0  0  0  0  0  0  0
   60.7022   26.7835   46.3206 H   0  0  0  0  0  0  0  0  0  0  0  0
   60.8475   28.8254   44.8988 H   0  0  0  0  0  0  0  0  0  0  0  0
   59.8900   30.7589   44.0301 H   0  0  0  0  0  0  0  0  0  0  0  0
   58.4321   30.2081   43.1226 H   0  0  0  0  0  0  0  0  0  0  0  0
   57.5660   31.4430   45.5660 H   0  0  0  0  0  0  0  0  0  0  0  0
   57.3485   34.8832   44.1521 H   0  0  0  0  0  0  0  0  0  0  0  0
   56.7022   33.7593   45.4157 H   0  0  0  0  0  0  0  0  0  0  0  0
   60.7065   29.3256   47.9525 H   0  0  0  0  0  0  0  0  0  0  0  0
   62.0171   30.5579   47.6682 H   0  0  0  0  0  0  0  0  0  0  0  0
   61.5782   29.5361   50.0845 H   0  0  0  0  0  0  0  0  0  0  0  0
   62.0239   31.2796   49.8275 H   0  0  0  0  0  0  0  0  0  0  0  0
   59.0893   28.9701   50.3486 H   0  0  0  0  0  0  0  0  0  0  0  0
   57.0038   29.7121   51.5012 H   0  0  0  0  0  0  0  0  0  0  0  0
   56.7352   32.0952   52.1984 H   0  0  0  0  0  0  0  0  0  0  0  0
   58.5673   33.7353   51.7606 H   0  0  0  0  0  0  0  0  0  0  0  0
   60.6421   33.0122   50.5777 H   0  0  0  0  0  0  0  0  0  0  0  0
   62.2174   32.3805   46.0104 H   0  0  0  0  0  0  0  0  0  0  0  0
   61.5000   34.0343   46.1953 H   0  0  0  0  0  0  0  0  0  0  0  0
   64.0879   31.9800   47.3504 H   0  0  0  0  0  0  0  0  0  0  0  0
   65.2894   32.2196   49.5224 H   0  0  0  0  0  0  0  0  0  0  0  0
   64.3326   33.6511   51.3284 H   0  0  0  0  0  0  0  0  0  0  0  0
   62.1806   34.8547   50.9637 H   0  0  0  0  0  0  0  0  0  0  0  0
   60.9621   34.6076   48.8038 H   0  0  0  0  0  0  0  0  0  0  0  0
  1  2  1  0
  2  3  1  0
  3  4  2  0
  4  5  1  0
  5  6  2  0
  6  7  1  0
  7  8  2  0
  8  9  1  0
  9 10  1  0
 10 11  1  0
 11 12  2  0
 11 13  1  0
 13 14  1  0
 14 15  1  0
 15 16  2  0
 16 17  1  0
 17 18  2  0
 18 19  1  0
 19 20  1  0
 20 21  1  0
 21 22  2  0
 22 23  1  0
 23 24  2  0
 24 25  1  0
 25 26  2  0
 18 27  1  0
 27 28  1  0
 28 29  1  0
 29 30  2  0
 30 31  1  0
 31 32  2  0
 32 33  1  0
 33 34  2  0
  8  3  1  0
 27 15  1  0
 34 29  1  0
 26 21  1  0
  1 35  1  0
  1 36  1  0
  1 37  1  0
  4 38  1  0
  5 39  1  0
  6 40  1  0
  7 41  1  0
  9 42  1  0
  9 43  1  0
 10 44  1  0
 13 45  1  0
 13 46  1  0
 19 47  1  0
 19 48  1  0
 20 49  1  0
 20 50  1  0
 22 51  1  0
 23 52  1  0
 24 53  1  0
 25 54  1  0
 26 55  1  0
 28 56  1  0
 28 57  1  0
 30 58  1  0
 31 59  1  0
 32 60  1  0
 33 61  1  0
 34 62  1  0
M  END
>  <UniqueID>  (86) 
78

>  <SMILES>  (86) 
COc1ccccc1CNC(=O)CSc1nnc(CCc2ccccc2)n1Cc1ccccc1

>  <Energy>  (86) 
86.07665210850114

>  <Genealogy>  (86) 
COc1ccccc1CNC(=O)CSc1nnc(CCc2ccccc2)n1Cc1ccccc1 (3D coordinates assigned)
COc1ccccc1CNC(=O)CSc1nnc(CCc2ccccc2)n1Cc1ccccc1 (optimized conformer: 86.07665210850114 kcal/mol)

>  <smiles>  (86) 
COc1ccccc1CNC(=O)CSc1nnc(CCc2ccccc2)n1Cc1ccccc1

>  <score_type>  (86) 
oracle

>  <origin>  (86) 
adg

>  <m_score__min__energy>  (86) 
-10.32

>  <m_primary>  (86) 
energy

$$$$
86:0
     RDKit          3D

 32 33  0  0  0  0  0  0  0  0999 V2000
   54.7800   26.7180   45.2090 H   0  0  0  0  0  0  0  0  0  0  0  0
   55.0300   26.3840   46.1660 N   0  0  0  0  0  0  0  0  0  0  0  0
   56.6930   25.9170   46.1210 S   0  0  0  0  0  0  0  0  0  0  0  0
   56.8950   24.7120   46.9950 O   0  0  0  0  0  0  0  0  0  0  0  0
   57.0760   25.5760   44.7090 O   0  0  0  0  0  0  0  0  0  0  0  0
   57.7160   27.2540   46.7150 C   0  0  0  0  0  0  0  0  0  0  0  0
   57.3377   27.5937   47.6904 H   0  0  0  0  0  0  0  0  0  0  0  0
   58.7506   26.8938   46.8146 H   0  0  0  0  0  0  0  0  0  0  0  0
   57.6920   28.4040   45.7470 C   0  0  0  0  0  0  0  0  0  0  0  0
   58.8230   29.2170   45.5840 C   0  0  0  0  0  0  0  0  0  0  0  0
   59.7412   28.9962   46.1481 H   0  0  0  0  0  0  0  0  0  0  0  0
   58.7900   30.3060   44.7090 C   0  0  0  0  0  0  0  0  0  0  0  0
   59.6852   30.9331   44.5847 H   0  0  0  0  0  0  0  0  0  0  0  0
   57.6220   30.6070   43.9860 C   0  0  0  0  0  0  0  0  0  0  0  0
   57.5850   31.7610   43.0550 C   0  0  0  0  0  0  0  0  0  0  0  0
   57.2890   31.5760   41.8430 O   0  0  0  0  0  0  0  0  0  0  0  0
   57.7930   33.0920   43.5580 N   0  0  0  0  0  0  0  0  0  0  0  0
   58.1300   33.4640   44.7630 C   0  0  0  0  0  0  0  0  0  0  0  0
   59.2360   34.3120   44.9080 C   0  0  0  0  0  0  0  0  0  0  0  0
   59.7949   34.6462   44.0215 H   0  0  0  0  0  0  0  0  0  0  0  0
   59.6260   34.7310   46.1800 C   0  0  0  0  0  0  0  0  0  0  0  0
   60.5005   35.3873   46.3006 H   0  0  0  0  0  0  0  0  0  0  0  0
   58.9050   34.3160   47.2970 C   0  0  0  0  0  0  0  0  0  0  0  0
   59.2096   34.6343   48.3049 H   0  0  0  0  0  0  0  0  0  0  0  0
   57.7920   33.4920   47.1240 C   0  0  0  0  0  0  0  0  0  0  0  0
   57.2112   33.1662   47.9995 H   0  0  0  0  0  0  0  0  0  0  0  0
   57.4210   33.0890   45.8770 N   0  0  0  0  0  0  0  0  0  0  0  0
   56.5520   32.5190   45.8080 H   0  0  0  0  0  0  0  0  0  0  0  0
   56.4870   29.7940   44.1600 C   0  0  0  0  0  0  0  0  0  0  0  0
   55.5657   30.0163   43.6016 H   0  0  0  0  0  0  0  0  0  0  0  0
   56.5210   28.7060   45.0370 C   0  0  0  0  0  0  0  0  0  0  0  0
   55.6242   28.0832   45.1709 H   0  0  0  0  0  0  0  0  0  0  0  0
  1  2  1  0
  2  3  1  0
  3  4  2  0
  3  5  2  0
  3  6  1  0
  6  7  1  0
  6  8  1  0
  6  9  1  0
  9 10  2  0
 10 11  1  0
 10 12  1  0
 12 13  1  0
 12 14  2  0
 14 15  1  0
 15 16  2  0
 15 17  1  0
 17 18  2  0
 18 19  1  0
 19 20  1  0
 19 21  2  0
 21 22  1  0
 21 23  1  0
 23 24  1  0
 23 25  2  0
 25 26  1  0
 25 27  1  0
 27 28  1  0
 14 29  1  0
 29 30  1  0
 29 31  2  0
 31 32  1  0
 31  9  1  0
 27 18  1  0
M  CHG  1   2  -1
M  END
>  <UniqueID>  (87) 
79

>  <SMILES>  (87) 
[NH-]S(=O)(=O)Cc1ccc(C(=O)/N=c2/cccc[nH]2)cc1

>  <Energy>  (87) 
34.87527285348301

>  <Genealogy>  (87) 
[NH-]S(=O)(=O)Cc1ccc(C(=O)N=c2cccc[nH]2)cc1 (protonated)
[NH-]S(=O)(=O)Cc1ccc(C(=O)/N=c2/cccc[nH]2)cc1 (cis-trans isomerization)
[NH-]S(=O)(=O)Cc1ccc(C(=O)/N=c2/cccc[nH]2)cc1 (3D coordinates assigned)
[NH-]S(=O)(=O)Cc1ccc(C(=O)/N=c2/cccc[nH]2)cc1 (optimized conformer: 34.87527285348301 kcal/mol)

>  <smiles>  (87) 
NS(=O)(=O)Cc1ccc(C(=O)N=c2cccc[nH]2)cc1

>  <score_type>  (87) 
oracle

>  <origin>  (87) 
adg

>  <m_score__min__energy>  (87) 
-10.33

>  <m_primary>  (87) 
energy

$$$$
87:0
     RDKit          3D

 62 65  0  0  0  0  0  0  0  0999 V2000
   62.4700   31.4490   47.1460 O   0  0  0  0  0  0  0  0  0  0  0  0
   62.5400   32.3960   47.9750 C   0  0  0  0  0  0  0  0  0  0  0  0
   61.6890   33.5460   47.8240 N   0  0  0  0  0  0  0  0  0  0  0  0
   60.5520   33.6060   46.9440 C   0  0  0  0  0  0  0  0  0  0  0  0
   60.2010   34.8380   46.3670 C   0  0  0  0  0  0  0  0  0  0  0  0
   59.0890   34.9360   45.5300 C   0  0  0  0  0  0  0  0  0  0  0  0
   58.3070   33.8090   45.2650 C   0  0  0  0  0  0  0  0  0  0  0  0
   58.6280   32.5740   45.8460 C   0  0  0  0  0  0  0  0  0  0  0  0
   57.7810   31.3570   45.5630 C   0  0  0  0  0  0  0  0  0  0  0  0
   58.5700   30.2710   44.9340 N   0  0  0  0  0  0  0  0  0  0  0  0
   57.8220   29.5950   43.8380 C   0  0  0  0  0  0  0  0  0  0  0  0
   57.3880   28.1510   44.1620 C   0  0  0  0  0  0  0  0  0  0  0  0
   56.9470   28.0310   45.6300 C   0  0  0  0  0  0  0  0  0  0  0  0
   56.4420   26.6530   45.9650 C   0  0  0  0  0  0  0  0  0  0  0  0
   55.1980   26.4460   46.0130 O   0  0  0  0  0  0  0  0  0  0  0  0
   57.3600   25.5970   46.2720 N   0  0  0  0  0  0  0  0  0  0  0  0
   57.5470   24.4170   45.4330 C   0  0  0  0  0  0  0  0  0  0  0  0
   56.8870   24.6540   44.0580 C   0  0  0  0  0  0  0  0  0  0  0  0
   56.5480   23.3480   43.3070 C   0  0  0  0  0  0  0  0  0  0  0  0
   57.3980   22.1640   43.7740 C   0  0  0  0  0  0  0  0  0  0  0  0
   57.2330   21.8980   45.2840 C   0  0  0  0  0  0  0  0  0  0  0  0
   56.9530   23.1720   46.1090 C   0  0  0  0  0  0  0  0  0  0  0  0
   58.0930   28.4330   46.5880 C   0  0  0  0  0  0  0  0  0  0  0  0
   59.1540   29.3230   45.9120 C   0  0  0  0  0  0  0  0  0  0  0  0
   59.7480   32.4770   46.6900 C   0  0  0  0  0  0  0  0  0  0  0  0
   63.5450   32.3300   49.0670 C   0  0  0  0  0  0  0  0  0  0  0  0
   64.7220   33.0960   48.9990 C   0  0  0  0  0  0  0  0  0  0  0  0
   65.6620   33.0360   50.0290 C   0  0  0  0  0  0  0  0  0  0  0  0
   65.4310   32.1950   51.1170 C   0  0  0  0  0  0  0  0  0  0  0  0
   64.3020   31.4390   51.1640 N   0  0  0  0  0  0  0  0  0  0  0  0
   63.3670   31.4850   50.1770 C   0  0  0  0  0  0  0  0  0  0  0  0
   62.0080   34.4440   48.2520 H   0  0  0  0  0  0  0  0  0  0  0  0
   60.8072   35.7316   46.5766 H   0  0  0  0  0  0  0  0  0  0  0  0
   58.8272   35.9037   45.0773 H   0  0  0  0  0  0  0  0  0  0  0  0
   57.4361   33.8909   44.5980 H   0  0  0  0  0  0  0  0  0  0  0  0
   57.3597   30.9884   46.5099 H   0  0  0  0  0  0  0  0  0  0  0  0
   56.9845   31.6501   44.8633 H   0  0  0  0  0  0  0  0  0  0  0  0
   56.9195   30.1856   43.6217 H   0  0  0  0  0  0  0  0  0  0  0  0
   58.5081   29.5326   42.9804 H   0  0  0  0  0  0  0  0  0  0  0  0
   56.5481   27.8715   43.5089 H   0  0  0  0  0  0  0  0  0  0  0  0
   58.2428   27.4793   43.9941 H   0  0  0  0  0  0  0  0  0  0  0  0
   56.1089   28.7302   45.7667 H   0  0  0  0  0  0  0  0  0  0  0  0
   58.6240   24.2440   45.2914 H   0  0  0  0  0  0  0  0  0  0  0  0
   55.9562   25.2199   44.2109 H   0  0  0  0  0  0  0  0  0  0  0  0
   57.6119   25.2048   43.4406 H   0  0  0  0  0  0  0  0  0  0  0  0
   55.4877   23.1092   43.4762 H   0  0  0  0  0  0  0  0  0  0  0  0
   56.7613   23.5116   42.2404 H   0  0  0  0  0  0  0  0  0  0  0  0
   57.0913   21.2652   43.2189 H   0  0  0  0  0  0  0  0  0  0  0  0
   58.4540   22.4064   43.5839 H   0  0  0  0  0  0  0  0  0  0  0  0
   56.3936   21.2012   45.4246 H   0  0  0  0  0  0  0  0  0  0  0  0
   58.1860   21.4833   45.6444 H   0  0  0  0  0  0  0  0  0  0  0  0
   55.8653   23.3027   46.2081 H   0  0  0  0  0  0  0  0  0  0  0  0
   57.4229   23.0560   47.0968 H   0  0  0  0  0  0  0  0  0  0  0  0
   57.6633   28.9830   47.4382 H   0  0  0  0  0  0  0  0  0  0  0  0
   58.5940   27.5083   46.9104 H   0  0  0  0  0  0  0  0  0  0  0  0
   59.6773   29.8984   46.6898 H   0  0  0  0  0  0  0  0  0  0  0  0
   59.8400   28.6614   45.3628 H   0  0  0  0  0  0  0  0  0  0  0  0
   59.9987   31.5125   47.1557 H   0  0  0  0  0  0  0  0  0  0  0  0
   64.9029   33.7456   48.1300 H   0  0  0  0  0  0  0  0  0  0  0  0
   66.5761   33.6462   49.9829 H   0  0  0  0  0  0  0  0  0  0  0  0
   66.1622   32.1432   51.9372 H   0  0  0  0  0  0  0  0  0  0  0  0
   62.4663   30.8575   50.2475 H   0  0  0  0  0  0  0  0  0  0  0  0
  1  2  2  0
  2  3  1  0
  3  4  1  0
  4  5  2  0
  5  6  1  0
  6  7  2  0
  7  8  1  0
  8  9  1  0
  9 10  1  0
 10 11  1  0
 11 12  1  0
 12 13  1  0
 13 14  1  0
 14 15  2  0
 14 16  1  0
 16 17  1  0
 17 18  1  0
 18 19  1  0
 19 20  1  0
 20 21  1  0
 21 22  1  0
 13 23  1  0
 23 24  1  0
  8 25  2  0
  2 26  1  0
 26 27  2  0
 27 28  1  0
 28 29  2  0
 29 30  1  0
 30 31  2  0
 25  4  1  0
 31 26  1  0
 24 10  1  0
 22 17  1  0
  3 32  1  0
  5 33  1  0
  6 34  1  0
  7 35  1  0
  9 36  1  0
  9 37  1  0
 11 38  1  0
 11 39  1  0
 12 40  1  0
 12 41  1  0
 13 42  1  0
 17 43  1  0
 18 44  1  0
 18 45  1  0
 19 46  1  0
 19 47  1  0
 20 48  1  0
 20 49  1  0
 21 50  1  0
 21 51  1  0
 22 52  1  0
 22 53  1  0
 23 54  1  0
 23 55  1  0
 24 56  1  0
 24 57  1  0
 25 58  1  0
 27 59  1  0
 28 60  1  0
 29 61  1  0
 31 62  1  0
M  CHG  1  16  -1
M  END
>  <UniqueID>  (88) 
80

>  <SMILES>  (88) 
O=C(Nc1cccc(CN2CCC(C(=O)[N-]C3CCCCC3)CC2)c1)c1cccnc1

>  <Energy>  (88) 
80.05052550167402

>  <Genealogy>  (88) 
O=C(Nc1cccc(CN2CCC(C(=O)[N-]C3CCCCC3)CC2)c1)c1cccnc1 (protonated)
O=C(Nc1cccc(CN2CCC(C(=O)[N-]C3CCCCC3)CC2)c1)c1cccnc1 (3D coordinates assigned)
O=C(Nc1cccc(CN2CCC(C(=O)[N-]C3CCCCC3)CC2)c1)c1cccnc1 (nonaromatic ring conformer: 80.05052550167402 kcal/mol)

>  <smiles>  (88) 
O=C(Nc1cccc(CN2CCC(C(=O)NC3CCCCC3)CC2)c1)c1cccnc1

>  <score_type>  (88) 
oracle

>  <origin>  (88) 
adg

>  <m_score__min__energy>  (88) 
-11.380000000000001

>  <m_primary>  (88) 
energy

$$$$
88:0
     RDKit          3D

 54 57  0  0  0  0  0  0  0  0999 V2000
   58.9010   32.7860   49.9410 C   0  0  0  0  0  0  0  0  0  0  0  0
   60.2520   33.2580   49.6560 N   0  0  0  0  0  0  0  0  0  0  0  0
   61.1960   33.3550   50.5790 N   0  0  0  0  0  0  0  0  0  0  0  0
   62.2890   33.8840   49.9930 C   0  0  0  0  0  0  0  0  0  0  0  0
   62.0280   34.1350   48.6590 C   0  0  0  0  0  0  0  0  0  0  0  0
   60.7270   33.7120   48.4760 C   0  0  0  0  0  0  0  0  0  0  0  0
   59.9830   33.7510   47.2040 C   0  0  0  0  0  0  0  0  0  0  0  0
   59.9350   34.9300   46.4450 C   0  0  0  0  0  0  0  0  0  0  0  0
   59.2090   34.9690   45.2500 C   0  0  0  0  0  0  0  0  0  0  0  0
   58.5430   33.8280   44.7950 C   0  0  0  0  0  0  0  0  0  0  0  0
   58.6200   32.6330   45.5250 C   0  0  0  0  0  0  0  0  0  0  0  0
   57.9490   31.4090   45.0430 C   0  0  0  0  0  0  0  0  0  0  0  0
   56.6740   31.5270   44.4740 C   0  0  0  0  0  0  0  0  0  0  0  0
   55.9540   30.3910   44.1130 C   0  0  0  0  0  0  0  0  0  0  0  0
   56.4770   29.1240   44.3640 C   0  0  0  0  0  0  0  0  0  0  0  0
   57.7370   28.9760   44.9540 C   0  0  0  0  0  0  0  0  0  0  0  0
   58.1600   27.6470   45.2940 N   0  0  0  0  0  0  0  0  0  0  0  0
   58.2340   27.0900   46.6160 C   0  0  0  0  0  0  0  0  0  0  0  0
   57.6640   25.9890   46.8380 O   0  0  0  0  0  0  0  0  0  0  0  0
   58.9620   27.7590   47.7210 C   0  0  0  0  0  0  0  0  0  0  0  0
   60.0960   27.1720   48.3070 C   0  0  0  0  0  0  0  0  0  0  0  0
   60.7540   27.8060   49.3660 C   0  0  0  0  0  0  0  0  0  0  0  0
   60.2850   29.0330   49.8580 C   0  0  0  0  0  0  0  0  0  0  0  0
   61.0080   29.7380   50.9740 C   0  0  0  0  0  0  0  0  0  0  0  0
   61.8480   30.8000   50.4320 N   0  0  0  0  0  0  0  0  0  0  0  0
   59.1710   29.6340   49.2550 C   0  0  0  0  0  0  0  0  0  0  0  0
   58.5190   29.0060   48.1910 C   0  0  0  0  0  0  0  0  0  0  0  0
   58.5330   30.1260   45.2130 C   0  0  0  0  0  0  0  0  0  0  0  0
   59.9930   30.0020   45.6080 C   0  0  0  0  0  0  0  0  0  0  0  0
   60.5670   28.8900   44.9750 O   0  0  0  0  0  0  0  0  0  0  0  0
   59.3340   32.6020   46.7310 C   0  0  0  0  0  0  0  0  0  0  0  0
   58.7527   32.7342   51.0297 H   0  0  0  0  0  0  0  0  0  0  0  0
   58.1697   33.4819   49.5041 H   0  0  0  0  0  0  0  0  0  0  0  0
   58.7621   31.7861   49.5041 H   0  0  0  0  0  0  0  0  0  0  0  0
   63.2442   34.0854   50.5000 H   0  0  0  0  0  0  0  0  0  0  0  0
   62.7051   34.5734   47.9112 H   0  0  0  0  0  0  0  0  0  0  0  0
   60.4701   35.8267   46.7908 H   0  0  0  0  0  0  0  0  0  0  0  0
   59.1622   35.9005   44.6668 H   0  0  0  0  0  0  0  0  0  0  0  0
   57.9582   33.8671   43.8641 H   0  0  0  0  0  0  0  0  0  0  0  0
   56.2387   32.5240   44.3113 H   0  0  0  0  0  0  0  0  0  0  0  0
   54.9715   30.4939   43.6292 H   0  0  0  0  0  0  0  0  0  0  0  0
   55.8933   28.2311   44.0955 H   0  0  0  0  0  0  0  0  0  0  0  0
   60.4687   26.2079   47.9307 H   0  0  0  0  0  0  0  0  0  0  0  0
   61.6435   27.3402   49.8152 H   0  0  0  0  0  0  0  0  0  0  0  0
   60.2726   30.1730   51.6668 H   0  0  0  0  0  0  0  0  0  0  0  0
   61.6411   29.0141   51.5080 H   0  0  0  0  0  0  0  0  0  0  0  0
   62.0650   31.4620   51.2110 H   0  0  0  0  0  0  0  0  0  0  0  0
   61.2850   31.3390   49.7330 H   0  0  0  0  0  0  0  0  0  0  0  0
   58.8083   30.6056   49.6218 H   0  0  0  0  0  0  0  0  0  0  0  0
   57.6527   29.4916   47.7181 H   0  0  0  0  0  0  0  0  0  0  0  0
   60.5312   30.9122   45.3048 H   0  0  0  0  0  0  0  0  0  0  0  0
   60.0631   29.8737   46.6982 H   0  0  0  0  0  0  0  0  0  0  0  0
   59.8770   28.1770   44.9870 H   0  0  0  0  0  0  0  0  0  0  0  0
   59.3854   31.6686   47.3108 H   0  0  0  0  0  0  0  0  0  0  0  0
  1  2  1  0
  2  3  1  0
  3  4  2  0
  4  5  1  0
  5  6  2  0
  6  7  1  0
  7  8  2  0
  8  9  1  0
  9 10  2  0
 10 11  1  0
 11 12  1  0
 12 13  2  0
 13 14  1  0
 14 15  2  0
 15 16  1  0
 16 17  1  0
 17 18  1  0
 18 19  2  0
 18 20  1  0
 20 21  2  0
 21 22  1  0
 22 23  2  0
 23 24  1  0
 24 25  1  0
 23 26  1  0
 26 27  2  0
 16 28  2  0
 28 29  1  0
 29 30  1  0
 11 31  2  0
  6  2  1  0
 31  7  1  0
 28 12  1  0
 27 20  1  0
  1 32  1  0
  1 33  1  0
  1 34  1  0
  4 35  1  0
  5 36  1  0
  8 37  1  0
  9 38  1  0
 10 39  1  0
 13 40  1  0
 14 41  1  0
 15 42  1  0
 21 43  1  0
 22 44  1  0
 24 45  1  0
 24 46  1  0
 25 47  1  0
 25 48  1  0
 26 49  1  0
 27 50  1  0
 29 51  1  0
 29 52  1  0
 30 53  1  0
 31 54  1  0
M  CHG  1  17  -1
M  END
>  <UniqueID>  (89) 
81

>  <SMILES>  (89) 
Cn1nccc1-c1cccc(-c2cccc([N-]C(=O)c3ccc(CN)cc3)c2CO)c1

>  <Energy>  (89) 
106.66549861358044

>  <Genealogy>  (89) 
Cn1nccc1-c1cccc(-c2cccc([N-]C(=O)c3ccc(CN)cc3)c2CO)c1 (protonated)
Cn1nccc1-c1cccc(-c2cccc([N-]C(=O)c3ccc(CN)cc3)c2CO)c1 (3D coordinates assigned)
Cn1nccc1-c1cccc(-c2cccc([N-]C(=O)c3ccc(CN)cc3)c2CO)c1 (optimized conformer: 106.66549861358044 kcal/mol)

>  <smiles>  (89) 
Cn1nccc1-c1cccc(-c2cccc(NC(=O)c3ccc(CN)cc3)c2CO)c1

>  <score_type>  (89) 
oracle

>  <origin>  (89) 
adg

>  <m_score__min__energy>  (89) 
-11.24

>  <m_primary>  (89) 
energy

$$$$
89:0
     RDKit          3D

 25 26  0  0  0  0  0  0  0  0999 V2000
   56.2650   29.5230   42.8080 N   0  0  0  0  0  0  0  0  0  0  0  0
   56.9710   30.7610   42.9020 C   0  0  0  0  0  0  0  0  0  0  0  0
   57.0540   31.5070   41.8900 O   0  0  0  0  0  0  0  0  0  0  0  0
   57.5470   31.2060   44.1860 C   0  0  0  0  0  0  0  0  0  0  0  0
   57.2640   32.5120   44.6180 C   0  0  0  0  0  0  0  0  0  0  0  0
   57.7770   32.9860   45.8270 C   0  0  0  0  0  0  0  0  0  0  0  0
   58.5890   32.1670   46.6100 C   0  0  0  0  0  0  0  0  0  0  0  0
   58.8960   30.8740   46.1850 C   0  0  0  0  0  0  0  0  0  0  0  0
   58.3800   30.3730   44.9760 C   0  0  0  0  0  0  0  0  0  0  0  0
   58.8380   29.0090   44.5100 C   0  0  0  0  0  0  0  0  0  0  0  0
   58.0090   27.9390   45.1460 C   0  0  0  0  0  0  0  0  0  0  0  0
   56.6590   27.9720   45.1920 N   0  0  0  0  0  0  0  0  0  0  0  0
   56.1580   26.8960   45.8570 C   0  0  0  0  0  0  0  0  0  0  0  0
   54.7920   26.7160   46.0280 O   0  0  0  0  0  0  0  0  0  0  0  0
   57.0980   26.0020   46.3530 C   0  0  0  0  0  0  0  0  0  0  0  0
   58.6200   26.5860   45.9390 S   0  0  0  0  0  0  0  0  0  0  0  0
   56.0790   28.9500   43.6600 H   0  0  0  0  0  0  0  0  0  0  0  0
   55.8820   29.2050   41.8900 H   0  0  0  0  0  0  0  0  0  0  0  0
   56.6331   33.1668   43.9989 H   0  0  0  0  0  0  0  0  0  0  0  0
   57.5402   34.0067   46.1619 H   0  0  0  0  0  0  0  0  0  0  0  0
   58.9883   32.5407   47.5644 H   0  0  0  0  0  0  0  0  0  0  0  0
   59.5488   30.2393   46.8022 H   0  0  0  0  0  0  0  0  0  0  0  0
   58.7359   28.9457   43.4166 H   0  0  0  0  0  0  0  0  0  0  0  0
   59.8898   28.8663   44.7986 H   0  0  0  0  0  0  0  0  0  0  0  0
   56.8858   25.0801   46.9143 H   0  0  0  0  0  0  0  0  0  0  0  0
  1  2  1  0
  2  3  2  0
  2  4  1  0
  4  5  2  0
  5  6  1  0
  6  7  2  0
  7  8  1  0
  8  9  2  0
  9 10  1  0
 10 11  1  0
 11 12  2  0
 12 13  1  0
 13 14  1  0
 13 15  2  0
 15 16  1  0
  9  4  1  0
 16 11  1  0
  1 17  1  0
  1 18  1  0
  5 19  1  0
  6 20  1  0
  7 21  1  0
  8 22  1  0
 10 23  1  0
 10 24  1  0
 15 25  1  0
M  CHG  1  14  -1
M  END
>  <UniqueID>  (90) 
82

>  <SMILES>  (90) 
NC(=O)c1ccccc1Cc1nc([O-])cs1

>  <Energy>  (90) 
59.602986255864224

>  <Genealogy>  (90) 
NC(=O)c1ccccc1Cc1nc([O-])cs1 (protonated)
NC(=O)c1ccccc1Cc1nc([O-])cs1 (3D coordinates assigned)
NC(=O)c1ccccc1Cc1nc([O-])cs1 (optimized conformer: 59.602986255864224 kcal/mol)

>  <smiles>  (90) 
NC(=O)c1ccccc1Cc1nc(O)cs1

>  <score_type>  (90) 
oracle

>  <origin>  (90) 
adg

>  <m_score__min__energy>  (90) 
-11.09

>  <m_primary>  (90) 
energy

$$$$
90:0
     RDKit          3D

 62 65  0  0  0  0  0  0  0  0999 V2000
   56.2328   32.4487   43.9877 H   0  0  0  0  0  0  0  0  0  0  0  0
   56.6690   31.6280   44.5760 C   0  0  0  0  0  0  0  0  0  0  0  0
   56.0810   30.4030   44.5680 N   0  0  0  0  0  0  0  0  0  0  0  0
   56.5700   29.3600   45.2940 C   0  0  0  0  0  0  0  0  0  0  0  0
   56.0170   28.1820   45.2420 N   0  0  0  0  0  0  0  0  0  0  0  0
   56.6490   26.9170   45.5070 C   0  0  0  0  0  0  0  0  0  0  0  0
   55.9470   25.9580   46.2470 C   0  0  0  0  0  0  0  0  0  0  0  0
   54.9362   26.1865   46.6160 H   0  0  0  0  0  0  0  0  0  0  0  0
   56.5200   24.7120   46.5210 C   0  0  0  0  0  0  0  0  0  0  0  0
   55.9612   23.9717   47.1124 H   0  0  0  0  0  0  0  0  0  0  0  0
   57.7990   24.4010   46.0480 C   0  0  0  0  0  0  0  0  0  0  0  0
   58.3400   23.1450   46.3590 O   0  0  0  0  0  0  0  0  0  0  0  0
   58.5210   22.0910   45.4220 C   0  0  0  0  0  0  0  0  0  0  0  0
   58.6833   21.1456   45.9604 H   0  0  0  0  0  0  0  0  0  0  0  0
   57.6247   22.0040   44.7903 H   0  0  0  0  0  0  0  0  0  0  0  0
   59.3950   22.3080   44.7903 H   0  0  0  0  0  0  0  0  0  0  0  0
   58.4940   25.3480   45.2720 C   0  0  0  0  0  0  0  0  0  0  0  0
   59.4957   25.1103   44.8846 H   0  0  0  0  0  0  0  0  0  0  0  0
   57.9150   26.5900   44.9920 C   0  0  0  0  0  0  0  0  0  0  0  0
   58.4539   27.3154   44.3648 H   0  0  0  0  0  0  0  0  0  0  0  0
   57.7210   29.5400   46.0680 C   0  0  0  0  0  0  0  0  0  0  0  0
   58.1374   28.6960   46.6374 H   0  0  0  0  0  0  0  0  0  0  0  0
   58.3430   30.7910   46.1190 C   0  0  0  0  0  0  0  0  0  0  0  0
   59.4600   30.9330   46.9610 O   0  0  0  0  0  0  0  0  0  0  0  0
   59.6300   30.2890   48.1980 C   0  0  0  0  0  0  0  0  0  0  0  0
   59.2920   30.9170   49.4210 C   0  0  0  0  0  0  0  0  0  0  0  0
   58.6260   32.2660   49.4630 C   0  0  0  0  0  0  0  0  0  0  0  0
   58.4766   32.5687   50.5099 H   0  0  0  0  0  0  0  0  0  0  0  0
   59.2627   33.0052   48.9549 H   0  0  0  0  0  0  0  0  0  0  0  0
   57.6520   32.2100   48.9549 H   0  0  0  0  0  0  0  0  0  0  0  0
   59.6020   30.2810   50.6320 C   0  0  0  0  0  0  0  0  0  0  0  0
   59.3955   30.7923   51.5838 H   0  0  0  0  0  0  0  0  0  0  0  0
   60.1720   29.0010   50.6420 C   0  0  0  0  0  0  0  0  0  0  0  0
   60.5510   28.3540   51.9410 C   0  0  0  0  0  0  0  0  0  0  0  0
   60.1897   28.9708   52.7770 H   0  0  0  0  0  0  0  0  0  0  0  0
   60.0957   27.3544   51.9993 H   0  0  0  0  0  0  0  0  0  0  0  0
   61.6456   28.2623   51.9993 H   0  0  0  0  0  0  0  0  0  0  0  0
   60.4440   28.3570   49.4290 C   0  0  0  0  0  0  0  0  0  0  0  0
   60.8936   27.3531   49.4342 H   0  0  0  0  0  0  0  0  0  0  0  0
   60.1490   28.9790   48.2080 C   0  0  0  0  0  0  0  0  0  0  0  0
   60.4640   28.2780   46.9150 C   0  0  0  0  0  0  0  0  0  0  0  0
   60.9062   27.2939   47.1297 H   0  0  0  0  0  0  0  0  0  0  0  0
   59.5389   28.1456   46.3349 H   0  0  0  0  0  0  0  0  0  0  0  0
   61.1773   28.8818   46.3349 H   0  0  0  0  0  0  0  0  0  0  0  0
   57.8280   31.8500   45.3300 C   0  0  0  0  0  0  0  0  0  0  0  0
   58.4950   33.1560   45.2300 C   0  0  0  0  0  0  0  0  0  0  0  0
   58.8650   33.5830   44.1040 O   0  0  0  0  0  0  0  0  0  0  0  0
   58.7450   33.9200   46.4140 N   0  0  0  0  0  0  0  0  0  0  0  0
   59.8820   34.8170   46.5730 C   0  0  0  0  0  0  0  0  0  0  0  0
   60.2274   35.1470   45.5821 H   0  0  0  0  0  0  0  0  0  0  0  0
   59.5745   35.6887   47.1694 H   0  0  0  0  0  0  0  0  0  0  0  0
   61.0030   34.1040   47.2800 C   0  0  0  0  0  0  0  0  0  0  0  0
   61.0970   34.1500   48.6820 C   0  0  0  0  0  0  0  0  0  0  0  0
   60.3310   34.6825   49.2648 H   0  0  0  0  0  0  0  0  0  0  0  0
   62.1580   33.5230   49.3380 C   0  0  0  0  0  0  0  0  0  0  0  0
   62.2178   33.5499   50.4360 H   0  0  0  0  0  0  0  0  0  0  0  0
   63.1460   32.8600   48.6000 C   0  0  0  0  0  0  0  0  0  0  0  0
   63.9853   32.3725   49.1175 H   0  0  0  0  0  0  0  0  0  0  0  0
   63.0650   32.8180   47.2040 C   0  0  0  0  0  0  0  0  0  0  0  0
   63.8408   32.2966   46.6241 H   0  0  0  0  0  0  0  0  0  0  0  0
   61.9990   33.4380   46.5450 C   0  0  0  0  0  0  0  0  0  0  0  0
   61.9396   33.4044   45.4471 H   0  0  0  0  0  0  0  0  0  0  0  0
  1  2  1  0
  2  3  1  0
  3  4  1  0
  4  5  2  0
  5  6  1  0
  6  7  2  0
  7  8  1  0
  7  9  1  0
  9 10  1  0
  9 11  2  0
 11 12  1  0
 12 13  1  0
 13 14  1  0
 13 15  1  0
 13 16  1  0
 11 17  1  0
 17 18  1  0
 17 19  2  0
 19 20  1  0
  4 21  1  0
 21 22  1  0
 21 23  2  0
 23 24  1  0
 24 25  1  0
 25 26  2  0
 26 27  1  0
 27 28  1  0
 27 29  1  0
 27 30  1  0
 26 31  1  0
 31 32  1  0
 31 33  2  0
 33 34  1  0
 34 35  1  0
 34 36  1  0
 34 37  1  0
 33 38  1  0
 38 39  1  0
 38 40  2  0
 40 41  1  0
 41 42  1  0
 41 43  1  0
 41 44  1  0
 23 45  1  0
 45 46  1  0
 46 47  2  0
 46 48  1  0
 48 49  1  0
 49 50  1  0
 49 51  1  0
 49 52  1  0
 52 53  2  0
 53 54  1  0
 53 55  1  0
 55 56  1  0
 55 57  2  0
 57 58  1  0
 57 59  1  0
 59 60  1  0
 59 61  2  0
 61 62  1  0
 45  2  2  0
 61 52  1  0
 19  6  1  0
 40 25  1  0
M  CHG  2   3  -1  48  -1
M  END
>  <UniqueID>  (91) 
83

>  <SMILES>  (91) 
COc1ccc(/N=c2/cc(Oc3c(C)cc(C)cc3C)c(C(=O)[N-]Cc3ccccc3)c[n-]2)cc1

>  <Energy>  (91) 
84.19538778302201

>  <Genealogy>  (91) 
COc1ccc(N=c2cc(Oc3c(C)cc(C)cc3C)c(C(=O)[N-]Cc3ccccc3)c[n-]2)cc1 (protonated)
COc1ccc(/N=c2/cc(Oc3c(C)cc(C)cc3C)c(C(=O)[N-]Cc3ccccc3)c[n-]2)cc1 (cis-trans isomerization)
COc1ccc(/N=c2/cc(Oc3c(C)cc(C)cc3C)c(C(=O)[N-]Cc3ccccc3)c[n-]2)cc1 (3D coordinates assigned)
COc1ccc(/N=c2/cc(Oc3c(C)cc(C)cc3C)c(C(=O)[N-]Cc3ccccc3)c[n-]2)cc1 (optimized conformer: 84.19538778302201 kcal/mol)

>  <smiles>  (91) 
COc1ccc(N=c2cc(Oc3c(C)cc(C)cc3C)c(C(=O)NCc3ccccc3)c[nH]2)cc1

>  <score_type>  (91) 
oracle

>  <origin>  (91) 
adg

>  <m_score__min__energy>  (91) 
-11.56

>  <m_primary>  (91) 
energy

$$$$
91:0
     RDKit          3D

 39 41  0  0  0  0  0  0  0  0999 V2000
   63.8580   31.9680   49.5810 C   0  0  0  0  0  0  0  0  0  0  0  0
   63.0640   32.5740   48.4620 C   0  0  0  0  0  0  0  0  0  0  0  0
   63.7150   33.2550   47.4230 C   0  0  0  0  0  0  0  0  0  0  0  0
   62.9720   33.8590   46.4060 C   0  0  0  0  0  0  0  0  0  0  0  0
   61.5760   33.7960   46.4220 C   0  0  0  0  0  0  0  0  0  0  0  0
   60.9090   33.1200   47.4570 C   0  0  0  0  0  0  0  0  0  0  0  0
   59.4280   33.0770   47.4840 C   0  0  0  0  0  0  0  0  0  0  0  0
   58.8190   33.4930   48.5080 O   0  0  0  0  0  0  0  0  0  0  0  0
   58.6680   32.5550   46.3810 N   0  0  0  0  0  0  0  0  0  0  0  0
   58.1520   31.3120   46.3050 C   0  0  0  0  0  0  0  0  0  0  0  0
   57.4500   31.1720   45.1190 C   0  0  0  0  0  0  0  0  0  0  0  0
   56.7200   29.9650   44.6820 C   0  0  0  0  0  0  0  0  0  0  0  0
   55.4630   29.9990   44.6130 O   0  0  0  0  0  0  0  0  0  0  0  0
   57.4020   28.7720   44.2780 N   0  0  0  0  0  0  0  0  0  0  0  0
   57.8440   27.7150   45.1450 C   0  0  0  0  0  0  0  0  0  0  0  0
   59.2140   27.4970   45.3810 C   0  0  0  0  0  0  0  0  0  0  0  0
   59.6280   26.4770   46.2420 C   0  0  0  0  0  0  0  0  0  0  0  0
   58.6810   25.6790   46.8870 C   0  0  0  0  0  0  0  0  0  0  0  0
   57.3190   25.9030   46.6780 C   0  0  0  0  0  0  0  0  0  0  0  0
   56.8940   26.9200   45.8150 C   0  0  0  0  0  0  0  0  0  0  0  0
   55.5240   27.1190   45.6350 O   0  0  0  0  0  0  0  0  0  0  0  0
   57.5120   32.3900   44.4610 C   0  0  0  0  0  0  0  0  0  0  0  0
   58.2630   33.2100   45.2740 C   0  0  0  0  0  0  0  0  0  0  0  0
   58.5290   34.5490   45.0120 O   0  0  0  0  0  0  0  0  0  0  0  0
   61.6610   32.5290   48.4860 C   0  0  0  0  0  0  0  0  0  0  0  0
   63.4371   32.2893   50.5452 H   0  0  0  0  0  0  0  0  0  0  0  0
   63.8147   30.8712   49.5092 H   0  0  0  0  0  0  0  0  0  0  0  0
   64.9045   32.2991   49.5092 H   0  0  0  0  0  0  0  0  0  0  0  0
   64.8133   33.3136   47.4090 H   0  0  0  0  0  0  0  0  0  0  0  0
   63.4875   34.3861   45.5897 H   0  0  0  0  0  0  0  0  0  0  0  0
   60.9969   34.2779   45.6205 H   0  0  0  0  0  0  0  0  0  0  0  0
   58.2703   30.5286   47.0681 H   0  0  0  0  0  0  0  0  0  0  0  0
   59.9627   28.1325   44.8854 H   0  0  0  0  0  0  0  0  0  0  0  0
   60.7008   26.3027   46.4117 H   0  0  0  0  0  0  0  0  0  0  0  0
   59.0084   24.8732   47.5604 H   0  0  0  0  0  0  0  0  0  0  0  0
   56.5760   25.2772   47.1941 H   0  0  0  0  0  0  0  0  0  0  0  0
   55.1560   27.8760   45.0720 H   0  0  0  0  0  0  0  0  0  0  0  0
   57.0572   32.6477   43.4932 H   0  0  0  0  0  0  0  0  0  0  0  0
   61.1459   32.0265   49.3180 H   0  0  0  0  0  0  0  0  0  0  0  0
  1  2  1  0
  2  3  2  0
  3  4  1  0
  4  5  2  0
  5  6  1  0
  6  7  1  0
  7  8  2  0
  7  9  1  0
  9 10  1  0
 10 11  2  0
 11 12  1  0
 12 13  2  0
 12 14  1  0
 14 15  1  0
 15 16  2  0
 16 17  1  0
 17 18  2  0
 18 19  1  0
 19 20  2  0
 20 21  1  0
 11 22  1  0
 22 23  2  0
 23 24  1  0
  6 25  2  0
 25  2  1  0
 23  9  1  0
 20 15  1  0
  1 26  1  0
  1 27  1  0
  1 28  1  0
  3 29  1  0
  4 30  1  0
  5 31  1  0
 10 32  1  0
 16 33  1  0
 17 34  1  0
 18 35  1  0
 19 36  1  0
 21 37  1  0
 22 38  1  0
 25 39  1  0
M  CHG  2  14  -1  24  -1
M  END
>  <UniqueID>  (92) 
84

>  <SMILES>  (92) 
Cc1cccc(C(=O)n2cc(C(=O)[N-]c3ccccc3O)cc2[O-])c1

>  <Energy>  (92) 
79.28853982976075

>  <Genealogy>  (92) 
Cc1cccc(C(=O)n2cc(C(=O)[N-]c3ccccc3O)cc2[O-])c1 (protonated)
Cc1cccc(C(=O)n2cc(C(=O)[N-]c3ccccc3O)cc2[O-])c1 (3D coordinates assigned)
Cc1cccc(C(=O)n2cc(C(=O)[N-]c3ccccc3O)cc2[O-])c1 (optimized conformer: 79.28853982976075 kcal/mol)

>  <smiles>  (92) 
Cc1cccc(C(=O)n2cc(C(=O)Nc3ccccc3O)cc2O)c1

>  <score_type>  (92) 
oracle

>  <origin>  (92) 
adg

>  <m_score__min__energy>  (92) 
-13.07

>  <m_primary>  (92) 
energy

$$$$
92:0
     RDKit          3D

 47 49  0  0  0  0  0  0  0  0999 V2000
   59.4060   29.9430   48.1910 O   0  0  0  0  0  0  0  0  0  0  0  0
   59.7660   30.2340   47.0170 C   0  0  0  0  0  0  0  0  0  0  0  0
   61.2140   30.5980   46.7960 C   0  0  0  0  0  0  0  0  0  0  0  0
   61.9270   30.9720   48.1080 C   0  0  0  0  0  0  0  0  0  0  0  0
   63.3370   31.5750   47.9080 C   0  0  0  0  0  0  0  0  0  0  0  0
   63.4030   33.0220   48.2520 N   0  0  1  0  0  0  0  0  0  0  0  0
   63.3890   33.8520   47.0220 C   0  0  0  0  0  0  0  0  0  0  0  0
   62.0260   33.8410   46.3960 C   0  0  0  0  0  0  0  0  0  0  0  0
   60.9590   34.0180   47.1810 C   0  0  0  0  0  0  0  0  0  0  0  0
   59.5810   34.0130   46.6230 C   0  0  0  0  0  0  0  0  0  0  0  0
   59.3230   34.5790   45.3600 C   0  0  0  0  0  0  0  0  0  0  0  0
   58.0260   34.5800   44.8360 C   0  0  0  0  0  0  0  0  0  0  0  0
   56.9730   34.0260   45.5680 C   0  0  0  0  0  0  0  0  0  0  0  0
   57.2150   33.4680   46.8250 C   0  0  0  0  0  0  0  0  0  0  0  0
   58.5110   33.4590   47.3530 C   0  0  0  0  0  0  0  0  0  0  0  0
   61.2080   34.3120   48.6390 C   0  0  0  0  0  0  0  0  0  0  0  0
   62.3290   33.4140   49.2250 C   0  0  0  0  0  0  0  0  0  0  0  0
   58.7590   30.1810   45.9190 C   0  0  0  0  0  0  0  0  0  0  0  0
   57.7930   29.1540   45.9100 C   0  0  0  0  0  0  0  0  0  0  0  0
   56.8390   29.0790   44.8920 C   0  0  0  0  0  0  0  0  0  0  0  0
   56.8260   30.0340   43.8740 C   0  0  0  0  0  0  0  0  0  0  0  0
   55.9060   29.9550   42.8800 F   0  0  0  0  0  0  0  0  0  0  0  0
   57.7690   31.0650   43.8740 C   0  0  0  0  0  0  0  0  0  0  0  0
   58.7290   31.1400   44.8860 C   0  0  0  0  0  0  0  0  0  0  0  0
   61.7305   29.7379   46.3450 H   0  0  0  0  0  0  0  0  0  0  0  0
   61.2440   31.4757   46.1336 H   0  0  0  0  0  0  0  0  0  0  0  0
   61.3078   31.7092   48.6401 H   0  0  0  0  0  0  0  0  0  0  0  0
   62.0575   30.0393   48.6763 H   0  0  0  0  0  0  0  0  0  0  0  0
   64.0460   31.0295   48.5481 H   0  0  0  0  0  0  0  0  0  0  0  0
   63.5892   31.4776   46.8417 H   0  0  0  0  0  0  0  0  0  0  0  0
   64.3260   33.2060   48.7100 H   0  0  0  0  0  0  0  0  0  0  0  0
   63.6604   34.8863   47.2802 H   0  0  0  0  0  0  0  0  0  0  0  0
   64.1130   33.4375   46.3050 H   0  0  0  0  0  0  0  0  0  0  0  0
   61.9071   33.6903   45.3129 H   0  0  0  0  0  0  0  0  0  0  0  0
   60.1465   35.0232   44.7816 H   0  0  0  0  0  0  0  0  0  0  0  0
   57.8348   35.0180   43.8453 H   0  0  0  0  0  0  0  0  0  0  0  0
   55.9537   34.0293   45.1544 H   0  0  0  0  0  0  0  0  0  0  0  0
   56.3847   33.0344   47.4017 H   0  0  0  0  0  0  0  0  0  0  0  0
   58.6952   33.0170   48.3433 H   0  0  0  0  0  0  0  0  0  0  0  0
   61.5048   35.3660   48.7440 H   0  0  0  0  0  0  0  0  0  0  0  0
   60.2802   34.1053   49.1926 H   0  0  0  0  0  0  0  0  0  0  0  0
   62.8030   33.9583   50.0551 H   0  0  0  0  0  0  0  0  0  0  0  0
   61.8414   32.4787   49.5372 H   0  0  0  0  0  0  0  0  0  0  0  0
   57.7904   28.4031   46.7138 H   0  0  0  0  0  0  0  0  0  0  0  0
   56.0974   28.2666   44.8927 H   0  0  0  0  0  0  0  0  0  0  0  0
   57.7554   31.8202   43.0743 H   0  0  0  0  0  0  0  0  0  0  0  0
   59.4682   31.9546   44.8768 H   0  0  0  0  0  0  0  0  0  0  0  0
  1  2  2  0
  2  3  1  0
  3  4  1  0
  4  5  1  0
  5  6  1  0
  6  7  1  0
  7  8  1  0
  8  9  2  0
  9 10  1  0
 10 11  2  0
 11 12  1  0
 12 13  2  0
 13 14  1  0
 14 15  2  0
  9 16  1  0
 16 17  1  0
  2 18  1  0
 18 19  2  0
 19 20  1  0
 20 21  2  0
 21 22  1  0
 21 23  1  0
 23 24  2  0
 17  6  1  0
 24 18  1  0
 15 10  1  0
  3 25  1  0
  3 26  1  0
  4 27  1  0
  4 28  1  0
  5 29  1  0
  5 30  1  0
  6 31  1  1
  7 32  1  0
  7 33  1  0
  8 34  1  0
 11 35  1  0
 12 36  1  0
 13 37  1  0
 14 38  1  0
 15 39  1  0
 16 40  1  0
 16 41  1  0
 17 42  1  0
 17 43  1  0
 19 44  1  0
 20 45  1  0
 23 46  1  0
 24 47  1  0
M  CHG  1   6   1
M  END
>  <UniqueID>  (93) 
85

>  <SMILES>  (93) 
O=C(CCC[N@H+]1CC=C(c2ccccc2)CC1)c1ccc(F)cc1

>  <Energy>  (93) 
63.31874589822716

>  <Genealogy>  (93) 
O=C(CCC[NH+]1CC=C(c2ccccc2)CC1)c1ccc(F)cc1 (protonated)
O=C(CCC[N@H+]1CC=C(c2ccccc2)CC1)c1ccc(F)cc1 (chirality)
O=C(CCC[N@H+]1CC=C(c2ccccc2)CC1)c1ccc(F)cc1 (3D coordinates assigned)
O=C(CCC[N@H+]1CC=C(c2ccccc2)CC1)c1ccc(F)cc1 (nonaromatic ring conformer: 63.31874589822716 kcal/mol)

>  <smiles>  (93) 
O=C(CCCN1CC=C(c2ccccc2)CC1)c1ccc(F)cc1

>  <score_type>  (93) 
oracle

>  <origin>  (93) 
adg

>  <m_score__min__energy>  (93) 
-7.8799999999999999

>  <m_primary>  (93) 
energy

$$$$
93:0
     RDKit          3D

 63 66  0  0  0  0  0  0  0  0999 V2000
   56.8997   21.1035   42.2537 H   0  0  0  0  0  0  0  0  0  0  0  0
   56.7220   21.7920   43.0930 C   0  0  0  0  0  0  0  0  0  0  0  0
   55.5640   22.3390   43.3900 O   0  0  0  0  0  0  0  0  0  0  0  0
   55.7230   23.1050   44.4450 C   0  0  0  0  0  0  0  0  0  0  0  0
   54.6190   23.8910   45.0820 C   0  0  0  0  0  0  0  0  0  0  0  0
   53.8128   23.2059   45.3831 H   0  0  0  0  0  0  0  0  0  0  0  0
   54.2382   24.6255   44.3570 H   0  0  0  0  0  0  0  0  0  0  0  0
   55.1150   24.5990   46.2600 N   0  0  0  0  0  0  0  0  0  0  0  0
   55.9030   25.6300   46.2300 C   0  0  0  0  0  0  0  0  0  0  0  0
   55.5130   26.7890   45.6410 N   0  0  0  0  0  0  0  0  0  0  0  0
   56.3470   27.8570   45.6090 C   0  0  0  0  0  0  0  0  0  0  0  0
   55.9440   28.9530   45.0400 N   0  0  0  0  0  0  0  0  0  0  0  0
   56.3780   29.4050   43.7220 C   0  0  0  0  0  0  0  0  0  0  0  0
   55.5015   29.5198   43.0673 H   0  0  0  0  0  0  0  0  0  0  0  0
   57.0658   28.6635   43.2895 H   0  0  0  0  0  0  0  0  0  0  0  0
   57.0810   30.7210   43.8490 C   0  0  0  0  0  0  0  0  0  0  0  0
   57.3900   31.4650   42.6970 C   0  0  0  0  0  0  0  0  0  0  0  0
   57.1394   31.0666   41.7028 H   0  0  0  0  0  0  0  0  0  0  0  0
   58.0140   32.7080   42.8120 C   0  0  0  0  0  0  0  0  0  0  0  0
   58.2592   33.2850   41.9082 H   0  0  0  0  0  0  0  0  0  0  0  0
   58.3280   33.2210   44.0740 C   0  0  0  0  0  0  0  0  0  0  0  0
   58.8195   34.2015   44.1573 H   0  0  0  0  0  0  0  0  0  0  0  0
   58.0220   32.4970   45.2330 C   0  0  0  0  0  0  0  0  0  0  0  0
   58.3630   33.0670   46.5020 N   0  0  0  0  0  0  0  0  0  0  0  0
   59.7650   34.0370   46.8360 S   0  0  0  0  0  0  0  0  0  0  0  0
   61.0060   33.3310   46.3580 O   0  0  0  0  0  0  0  0  0  0  0  0
   59.8630   34.2450   48.3170 O   0  0  0  0  0  0  0  0  0  0  0  0
   59.6210   35.6290   46.0510 C   0  0  0  0  0  0  0  0  0  0  0  0
   59.5502   36.4121   46.8203 H   0  0  0  0  0  0  0  0  0  0  0  0
   60.5064   35.8101   45.4239 H   0  0  0  0  0  0  0  0  0  0  0  0
   58.7174   35.6482   45.4239 H   0  0  0  0  0  0  0  0  0  0  0  0
   57.3810   31.2480   45.1150 C   0  0  0  0  0  0  0  0  0  0  0  0
   57.1141   30.6826   46.0200 H   0  0  0  0  0  0  0  0  0  0  0  0
   57.5820   27.7660   46.1740 N   0  0  0  0  0  0  0  0  0  0  0  0
   57.9760   26.6100   46.7700 C   0  0  0  0  0  0  0  0  0  0  0  0
   59.1420   26.5060   47.3370 N   0  0  0  0  0  0  0  0  0  0  0  0
   60.1540   27.5630   47.4010 C   0  0  0  0  0  0  0  0  0  0  0  0
   61.0704   27.1545   47.8520 H   0  0  0  0  0  0  0  0  0  0  0  0
   60.3481   27.9194   46.3786 H   0  0  0  0  0  0  0  0  0  0  0  0
   59.6670   28.7560   48.2470 C   0  0  0  0  0  0  0  0  0  0  0  0
   58.7085   28.4835   48.7127 H   0  0  0  0  0  0  0  0  0  0  0  0
   60.4501   28.9642   48.9909 H   0  0  0  0  0  0  0  0  0  0  0  0
   59.4630   30.0470   47.4340 C   0  0  0  0  0  0  0  0  0  0  0  0
   59.9980   29.9499   46.4778 H   0  0  0  0  0  0  0  0  0  0  0  0
   58.3816   30.1782   47.2810 H   0  0  0  0  0  0  0  0  0  0  0  0
   59.9700   31.2560   48.1450 N   0  0  1  0  0  0  0  0  0  0  0  0
   59.7110   32.1400   47.6450 H   0  0  0  0  0  0  0  0  0  0  0  0
   59.4350   31.3140   49.4750 C   0  0  0  0  0  0  0  0  0  0  0  0
   58.2600   31.5740   49.6920 O   0  0  0  0  0  0  0  0  0  0  0  0
   60.4080   31.0750   50.5650 C   0  0  0  0  0  0  0  0  0  0  0  0
   60.0931   30.2353   51.2020 H   0  0  0  0  0  0  0  0  0  0  0  0
   60.5190   31.9294   51.2489 H   0  0  0  0  0  0  0  0  0  0  0  0
   61.6780   30.7400   49.8040 C   0  0  0  0  0  0  0  0  0  0  0  0
   61.8605   29.6553   49.8175 H   0  0  0  0  0  0  0  0  0  0  0  0
   62.5622   31.2172   50.2517 H   0  0  0  0  0  0  0  0  0  0  0  0
   61.4310   31.2250   48.3710 C   0  0  0  0  0  0  0  0  0  0  0  0
   61.9048   30.5357   47.6566 H   0  0  0  0  0  0  0  0  0  0  0  0
   61.8615   32.2270   48.2269 H   0  0  0  0  0  0  0  0  0  0  0  0
   57.1330   25.5490   46.7960 N   0  0  0  0  0  0  0  0  0  0  0  0
   57.0370   23.0570   44.8700 C   0  0  0  0  0  0  0  0  0  0  0  0
   57.4763   23.5842   45.7297 H   0  0  0  0  0  0  0  0  0  0  0  0
   57.6830   22.2120   43.9940 C   0  0  0  0  0  0  0  0  0  0  0  0
   58.7460   21.9294   44.0085 H   0  0  0  0  0  0  0  0  0  0  0  0
  1  2  1  0
  2  3  1  0
  3  4  1  0
  4  5  1  0
  5  6  1  0
  5  7  1  0
  5  8  1  0
  8  9  2  0
  9 10  1  0
 10 11  1  0
 11 12  2  3
 12 13  1  0
 13 14  1  0
 13 15  1  0
 13 16  1  0
 16 17  2  0
 17 18  1  0
 17 19  1  0
 19 20  1  0
 19 21  2  0
 21 22  1  0
 21 23  1  0
 23 24  1  0
 24 25  1  0
 25 26  2  0
 25 27  2  0
 25 28  1  0
 28 29  1  0
 28 30  1  0
 28 31  1  0
 23 32  2  0
 32 33  1  0
 11 34  1  0
 34 35  1  0
 35 36  2  3
 36 37  1  0
 37 38  1  0
 37 39  1  0
 37 40  1  0
 40 41  1  0
 40 42  1  0
 40 43  1  0
 43 44  1  0
 43 45  1  0
 43 46  1  0
 46 47  1  6
 46 48  1  0
 48 49  2  0
 48 50  1  0
 50 51  1  0
 50 52  1  0
 50 53  1  0
 53 54  1  0
 53 55  1  0
 53 56  1  0
 56 57  1  0
 56 58  1  0
 35 59  1  0
  4 60  2  0
 60 61  1  0
 60 62  1  0
 62 63  1  0
 62  2  2  0
 59  9  1  0
 32 16  1  0
 56 46  1  0
M  CHG  5  10  -1  24  -1  34  -1  46   1  59  -1
M  END
>  <UniqueID>  (94) 
86

>  <SMILES>  (94) 
CS(=O)(=O)[N-]c1cccc(CN=c2[n-]c(=NCCC[N@@H+]3CCCC3=O)[n-]/c(=N/Cc3ccco3)[n-]2)c1

>  <Energy>  (94) 
92.34951267476144

>  <Genealogy>  (94) 
CS(=O)(=O)[N-]c1cccc(CN=c2[n-]c(=NCCC[NH+]3CCCC3=O)[n-]c(=NCc3ccco3)[n-]2)c1 (protonated)
CS(=O)(=O)[N-]c1cccc(CN=c2[n-]c(=NCCC[N@@H+]3CCCC3=O)[n-]c(=NCc3ccco3)[n-]2)c1 (chirality)
CS(=O)(=O)[N-]c1cccc(CN=c2[n-]c(=NCCC[N@@H+]3CCCC3=O)[n-]/c(=N/Cc3ccco3)[n-]2)c1 (cis-trans isomerization)
CS(=O)(=O)[N-]c1cccc(CN=c2[n-]c(=NCCC[N@@H+]3CCCC3=O)[n-]/c(=N/Cc3ccco3)[n-]2)c1 (3D coordinates assigned)
CS(=O)(=O)[N-]c1cccc(CN=c2[n-]c(=NCCC[N@@H+]3CCCC3=O)[n-]/c(=N/Cc3ccco3)[n-]2)c1 (nonaromatic ring conformer: 92.34951267476144 kcal/mol)

>  <smiles>  (94) 
CS(=O)(=O)Nc1cccc(CN=c2[nH]c(=NCCCN3CCCC3=O)[nH]c(=NCc3ccco3)[nH]2)c1

>  <score_type>  (94) 
oracle

>  <origin>  (94) 
adg

>  <m_score__min__energy>  (94) 
-14.34

>  <m_primary>  (94) 
energy

$$$$
