0:0
     RDKit          3D

 45 47  0  0  0  0  0  0  0  0999 V2000
   58.3570   27.6190   47.4790 C   0  0  0  0  0  0  0  0  0  0  0  0
   58.1100   28.0400   46.2340 C   0  0  0  0  0  0  0  0  0  0  0  0
   57.9730   29.3500   45.9430 N   0  0  0  0  0  0  0  0  0  0  0  0
   57.5260   29.4320   44.6770 C   0  0  0  0  0  0  0  0  0  0  0  0
   57.0850   30.6830   44.0400 C   0  0  0  0  0  0  0  0  0  0  0  0
   57.2580   30.8570   42.8050 O   0  0  0  0  0  0  0  0  0  0  0  0
   56.5040   31.7280   44.8250 N   0  0  0  0  0  0  0  0  0  0  0  0
   57.0830   33.0680   44.8690 C   0  0  0  0  0  0  0  0  0  0  0  0
   58.2370   33.1100   45.8370 C   0  0  0  0  0  0  0  0  0  0  0  0
   58.1440   32.4540   47.0730 C   0  0  0  0  0  0  0  0  0  0  0  0
   59.1420   32.6200   48.0370 C   0  0  0  0  0  0  0  0  0  0  0  0
   60.2560   33.4400   47.7810 C   0  0  0  0  0  0  0  0  0  0  0  0
   61.2810   33.6470   48.8320 C   0  0  0  0  0  0  0  0  0  0  0  0
   60.9440   34.1910   49.9190 O   0  0  0  0  0  0  0  0  0  0  0  0
   62.6400   33.2180   48.6360 N   0  0  0  0  0  0  0  0  0  0  0  0
   63.7270   33.5950   49.4960 C   0  0  0  0  0  0  0  0  0  0  0  0
   65.0310   33.0620   49.2670 N   0  0  0  0  0  0  0  0  0  0  0  0
   63.5470   34.4000   50.4490 O   0  0  0  0  0  0  0  0  0  0  0  0
   60.3500   34.0870   46.5340 C   0  0  0  0  0  0  0  0  0  0  0  0
   59.3500   33.9200   45.5720 C   0  0  0  0  0  0  0  0  0  0  0  0
   57.4080   28.1720   44.1270 C   0  0  0  0  0  0  0  0  0  0  0  0
   57.7970   27.2700   45.1030 C   0  0  0  0  0  0  0  0  0  0  0  0
   57.8080   25.9390   44.9020 C   0  0  0  0  0  0  0  0  0  0  0  0
   56.6820   25.0240   45.1460 C   0  0  0  0  0  0  0  0  0  0  0  0
   56.6320   23.7490   44.7190 N   0  0  0  0  0  0  0  0  0  0  0  0
   55.3790   23.3620   45.0460 C   0  0  0  0  0  0  0  0  0  0  0  0
   54.9480   22.2010   44.8160 O   0  0  0  0  0  0  0  0  0  0  0  0
   54.6230   24.3170   45.6260 N   0  0  0  0  0  0  0  0  0  0  0  0
   55.4570   25.3690   45.6710 C   0  0  0  0  0  0  0  0  0  0  0  0
   55.0970   26.6130   46.1790 O   0  0  0  0  0  0  0  0  0  0  0  0
   58.4637   26.5437   47.6850 H   0  0  0  0  0  0  0  0  0  0  0  0
   58.4535   28.3480   48.2971 H   0  0  0  0  0  0  0  0  0  0  0  0
   58.0890   30.1510   46.6060 H   0  0  0  0  0  0  0  0  0  0  0  0
   57.4415   33.3411   43.8656 H   0  0  0  0  0  0  0  0  0  0  0  0
   56.3123   33.7790   45.2015 H   0  0  0  0  0  0  0  0  0  0  0  0
   57.2811   31.8055   47.2848 H   0  0  0  0  0  0  0  0  0  0  0  0
   59.0557   32.1047   49.0050 H   0  0  0  0  0  0  0  0  0  0  0  0
   62.8540   32.5650   47.8500 H   0  0  0  0  0  0  0  0  0  0  0  0
   65.2040   32.3970   48.4820 H   0  0  0  0  0  0  0  0  0  0  0  0
   65.8280   33.3350   49.8850 H   0  0  0  0  0  0  0  0  0  0  0  0
   61.2165   34.7284   46.3154 H   0  0  0  0  0  0  0  0  0  0  0  0
   59.4369   34.4277   44.6001 H   0  0  0  0  0  0  0  0  0  0  0  0
   57.0698   27.9304   43.1085 H   0  0  0  0  0  0  0  0  0  0  0  0
   58.7407   25.4967   44.5220 H   0  0  0  0  0  0  0  0  0  0  0  0
   54.7650   26.7190   47.1300 H   0  0  0  0  0  0  0  0  0  0  0  0
  1  2  2  0
  2  3  1  0
  3  4  1  0
  4  5  1  0
  5  6  2  0
  5  7  1  0
  7  8  1  0
  8  9  1  0
  9 10  2  0
 10 11  1  0
 11 12  2  0
 12 13  1  0
 13 14  2  0
 13 15  1  0
 15 16  1  0
 16 17  1  0
 16 18  2  0
 12 19  1  0
 19 20  2  0
  4 21  2  0
 21 22  1  0
 22 23  2  3
 23 24  1  0
 24 25  1  0
 25 26  1  0
 26 27  2  0
 26 28  1  0
 28 29  1  0
 29 30  1  0
 22  2  1  0
 29 24  2  0
 20  9  1  0
  1 31  1  0
  1 32  1  0
  3 33  1  0
  8 34  1  0
  8 35  1  0
 10 36  1  0
 11 37  1  0
 15 38  1  0
 17 39  1  0
 17 40  1  0
 19 41  1  0
 20 42  1  0
 21 43  1  0
 23 44  1  0
 30 45  1  0
M  CHG  3   7  -1  25  -1  28  -1
M  END
>  <UniqueID>  (1) 
1

>  <SMILES>  (1) 
C=c1[nH]c(C(=O)[N-]Cc2ccc(C(=O)NC(N)=O)cc2)cc1=Cc1[n-]c(=O)[n-]c1O

>  <Energy>  (1) 
116.27442477056326

>  <Genealogy>  (1) 
C=c1[nH]c(C(=O)[N-]Cc2ccc(C(=O)NC(N)=O)cc2)cc1=Cc1[n-]c(=O)[n-]c1O (protonated)
C=c1[nH]c(C(=O)[N-]Cc2ccc(C(=O)NC(N)=O)cc2)cc1=Cc1[n-]c(=O)[n-]c1O (3D coordinates assigned)
C=c1[nH]c(C(=O)[N-]Cc2ccc(C(=O)NC(N)=O)cc2)cc1=Cc1[n-]c(=O)[n-]c1O (optimized conformer: 116.27442477056326 kcal/mol)

>  <smiles>  (1) 
C=c1[nH]c(C(=O)NCc2ccc(C(=O)NC(N)=O)cc2)cc1=Cc1[nH]c(=O)[nH]c1O

>  <score_type>  (1) 
oracle

>  <origin>  (1) 
adg

>  <m_score__min__energy>  (1) 
-14.5

>  <m_primary>  (1) 
energy

$$$$
1:0
     RDKit          3D

 49 52  0  0  0  0  0  0  0  0999 V2000
   57.7303   26.1958   44.1089 H   0  0  0  0  0  0  0  0  0  0  0  0
   57.7160   26.6470   45.1120 C   0  0  0  0  0  0  0  0  0  0  0  0
   56.4100   27.1500   45.6060 C   0  0  0  0  0  0  0  0  0  0  0  0
   55.7230   26.3990   46.3460 O   0  0  0  0  0  0  0  0  0  0  0  0
   55.8770   28.4370   45.2510 N   0  0  0  0  0  0  0  0  0  0  0  0
   56.4890   29.4140   44.6420 C   0  0  0  0  0  0  0  0  0  0  0  0
   57.3100   30.2190   45.3670 N   0  0  0  0  0  0  0  0  0  0  0  0
   57.9550   31.2750   44.8070 C   0  0  0  0  0  0  0  0  0  0  0  0
   58.6072   31.9152   45.4192 H   0  0  0  0  0  0  0  0  0  0  0  0
   57.7830   31.5400   43.4500 C   0  0  0  0  0  0  0  0  0  0  0  0
   58.2889   32.3986   42.9843 H   0  0  0  0  0  0  0  0  0  0  0  0
   56.9860   30.7300   42.7070 N   0  0  0  0  0  0  0  0  0  0  0  0
   56.3380   29.6720   43.2640 C   0  0  0  0  0  0  0  0  0  0  0  0
   55.7014   29.0230   42.6447 H   0  0  0  0  0  0  0  0  0  0  0  0
   58.8820   26.6920   45.7770 C   0  0  0  0  0  0  0  0  0  0  0  0
   59.4873   25.7739   45.8024 H   0  0  0  0  0  0  0  0  0  0  0  0
   59.4140   27.8770   46.4760 C   0  0  0  0  0  0  0  0  0  0  0  0
   58.8620   28.2520   47.7070 C   0  0  0  0  0  0  0  0  0  0  0  0
   58.0721   27.6370   48.1629 H   0  0  0  0  0  0  0  0  0  0  0  0
   59.3100   29.4040   48.3590 C   0  0  0  0  0  0  0  0  0  0  0  0
   58.8584   29.7008   49.3171 H   0  0  0  0  0  0  0  0  0  0  0  0
   60.3350   30.1860   47.7970 C   0  0  0  0  0  0  0  0  0  0  0  0
   60.8200   31.3690   48.4540 N   0  0  0  0  0  0  0  0  0  0  0  0
   60.2610   32.2480   48.3690 H   0  0  0  0  0  0  0  0  0  0  0  0
   62.0120   31.4060   49.2510 C   0  0  0  0  0  0  0  0  0  0  0  0
   62.4360   30.3500   49.7990 O   0  0  0  0  0  0  0  0  0  0  0  0
   62.7100   32.7240   49.4990 C   0  0  0  0  0  0  0  0  0  0  0  0
   61.8490   33.9010   49.3450 N   0  0  0  0  0  0  0  0  0  0  0  0
   60.4200   33.9280   49.2010 C   0  0  0  0  0  0  0  0  0  0  0  0
   59.7160   33.6400   50.2030 O   0  0  0  0  0  0  0  0  0  0  0  0
   59.7400   34.2350   47.9270 C   0  0  0  0  0  0  0  0  0  0  0  0
   58.1820   33.7780   47.4780 S   0  0  0  0  0  0  0  0  0  0  0  0
   58.2420   34.4440   45.9380 C   0  0  0  0  0  0  0  0  0  0  0  0
   56.9340   34.4130   44.7750 Cl  0  0  0  0  0  0  0  0  0  0  0  0
   59.4880   35.0190   45.7420 C   0  0  0  0  0  0  0  0  0  0  0  0
   59.7831   35.5235   44.8101 H   0  0  0  0  0  0  0  0  0  0  0  0
   60.3320   34.8920   46.8510 C   0  0  0  0  0  0  0  0  0  0  0  0
   61.3633   35.2741   46.8710 H   0  0  0  0  0  0  0  0  0  0  0  0
   64.0910   32.9210   48.9000 C   0  0  0  0  0  0  0  0  0  0  0  0
   64.4172   32.0836   48.2656 H   0  0  0  0  0  0  0  0  0  0  0  0
   64.2578   33.7632   48.2123 H   0  0  0  0  0  0  0  0  0  0  0  0
   64.7100   32.9410   50.1650 O   0  0  0  0  0  0  0  0  0  0  0  0
   63.4710   32.7590   50.8080 C   0  0  0  0  0  0  0  0  0  0  0  0
   63.4069   31.8196   51.3767 H   0  0  0  0  0  0  0  0  0  0  0  0
   63.1637   33.4783   51.5814 H   0  0  0  0  0  0  0  0  0  0  0  0
   60.9340   29.7680   46.6000 C   0  0  0  0  0  0  0  0  0  0  0  0
   61.7696   30.3446   46.1767 H   0  0  0  0  0  0  0  0  0  0  0  0
   60.4760   28.6230   45.9410 C   0  0  0  0  0  0  0  0  0  0  0  0
   60.9495   28.3057   45.0002 H   0  0  0  0  0  0  0  0  0  0  0  0
  1  2  1  0
  2  3  1  0
  3  4  2  0
  3  5  1  0
  5  6  2  3
  6  7  1  0
  7  8  1  0
  8  9  1  0
  8 10  2  0
 10 11  1  0
 10 12  1  0
 12 13  2  0
 13 14  1  0
  2 15  2  0
 15 16  1  0
 15 17  1  0
 17 18  2  0
 18 19  1  0
 18 20  1  0
 20 21  1  0
 20 22  2  0
 22 23  1  0
 23 24  1  0
 23 25  1  0
 25 26  2  0
 25 27  1  0
 27 28  1  0
 28 29  1  0
 29 30  2  0
 29 31  1  0
 31 32  1  0
 32 33  1  0
 33 34  1  0
 33 35  2  0
 35 36  1  0
 35 37  1  0
 37 38  1  0
 27 39  1  0
 39 40  1  0
 39 41  1  0
 39 42  1  0
 42 43  1  0
 43 44  1  0
 43 45  1  0
 22 46  1  0
 46 47  1  0
 46 48  2  0
 48 49  1  0
 13  6  1  0
 48 17  1  0
 43 27  1  0
 37 31  2  0
M  CHG  2   7  -1  28  -1
M  END
>  <UniqueID>  (2) 
2

>  <SMILES>  (2) 
O=C(/C=C\c1ccc(NC(=O)C2([N-]C(=O)c3ccc(Cl)s3)COC2)cc1)N=c1cncc[n-]1

>  <Energy>  (2) 
165.40267312447142

>  <Genealogy>  (2) 
O=C(C=Cc1ccc(NC(=O)C2([N-]C(=O)c3ccc(Cl)s3)COC2)cc1)N=c1cncc[n-]1 (protonated)
O=C(/C=C\c1ccc(NC(=O)C2([N-]C(=O)c3ccc(Cl)s3)COC2)cc1)N=c1cncc[n-]1 (cis-trans isomerization)
O=C(/C=C\c1ccc(NC(=O)C2([N-]C(=O)c3ccc(Cl)s3)COC2)cc1)N=c1cncc[n-]1 (3D coordinates assigned)
O=C(/C=C\c1ccc(NC(=O)C2([N-]C(=O)c3ccc(Cl)s3)COC2)cc1)N=c1cncc[n-]1 (nonaromatic ring conformer: 165.40267312447142 kcal/mol)

>  <smiles>  (2) 
O=C(C=Cc1ccc(NC(=O)C2(NC(=O)c3ccc(Cl)s3)COC2)cc1)N=c1cncc[nH]1

>  <score_type>  (2) 
oracle

>  <origin>  (2) 
adg

>  <m_score__min__energy>  (2) 
-12.029999999999999

>  <m_primary>  (2) 
energy

$$$$
2:0
     RDKit          3D

 49 52  0  0  0  0  0  0  0  0999 V2000
   57.1370   24.6020   45.5960 O   0  0  0  0  0  0  0  0  0  0  0  0
   55.9630   25.0570   45.5790 C   0  0  0  0  0  0  0  0  0  0  0  0
   54.8740   24.2230   45.1680 N   0  0  0  0  0  0  0  0  0  0  0  0
   54.0410   23.4700   46.0970 C   0  0  0  0  0  0  0  0  0  0  0  0
   52.6050   23.4970   45.6490 C   0  0  0  0  0  0  0  0  0  0  0  0
   52.2550   24.0240   44.3930 C   0  0  0  0  0  0  0  0  0  0  0  0
   50.9300   23.9860   43.9570 C   0  0  0  0  0  0  0  0  0  0  0  0
   49.9420   23.4160   44.7650 C   0  0  0  0  0  0  0  0  0  0  0  0
   50.2830   22.8880   46.0130 C   0  0  0  0  0  0  0  0  0  0  0  0
   51.6060   22.9240   46.4550 C   0  0  0  0  0  0  0  0  0  0  0  0
   55.7070   26.4260   45.9160 N   0  0  0  0  0  0  0  0  0  0  0  0
   56.6890   27.4670   46.0450 C   0  0  0  0  0  0  0  0  0  0  0  0
   57.9060   27.2560   46.7320 C   0  0  0  0  0  0  0  0  0  0  0  0
   58.8070   28.3120   46.8200 C   0  0  0  0  0  0  0  0  0  0  0  0
   60.3240   28.3370   47.5420 S   0  0  0  0  0  0  0  0  0  0  0  0
   60.5730   29.9540   47.1060 C   0  0  0  0  0  0  0  0  0  0  0  0
   62.0720   30.8670   47.4580 S   0  0  0  0  0  0  0  0  0  0  0  0
   61.2050   32.4110   47.9290 C   0  0  0  0  0  0  0  0  0  0  0  0
   60.9320   33.3110   46.7530 C   0  0  0  0  0  0  0  0  0  0  0  0
   61.8810   33.9060   46.1780 O   0  0  0  0  0  0  0  0  0  0  0  0
   59.5870   33.5370   46.3070 N   0  0  0  0  0  0  0  0  0  0  0  0
   59.2660   34.3120   45.1220 C   0  0  0  0  0  0  0  0  0  0  0  0
   57.7520   34.2280   44.9700 C   0  0  0  0  0  0  0  0  0  0  0  0
   57.2290   33.7640   46.3280 C   0  0  0  0  0  0  0  0  0  0  0  0
   58.4040   33.0790   47.0160 C   0  0  0  0  0  0  0  0  0  0  0  0
   59.5270   30.4760   46.4220 N   0  0  0  0  0  0  0  0  0  0  0  0
   58.5430   29.5550   46.2700 C   0  0  0  0  0  0  0  0  0  0  0  0
   57.3390   29.7890   45.6090 C   0  0  0  0  0  0  0  0  0  0  0  0
   56.4070   28.7410   45.5020 C   0  0  0  0  0  0  0  0  0  0  0  0
   55.2010   28.9680   44.8490 O   0  0  0  0  0  0  0  0  0  0  0  0
   54.3901   22.4275   46.1345 H   0  0  0  0  0  0  0  0  0  0  0  0
   54.1136   23.9274   47.0948 H   0  0  0  0  0  0  0  0  0  0  0  0
   53.0297   24.4685   43.7510 H   0  0  0  0  0  0  0  0  0  0  0  0
   50.6626   24.4053   42.9758 H   0  0  0  0  0  0  0  0  0  0  0  0
   48.8983   23.3832   44.4191 H   0  0  0  0  0  0  0  0  0  0  0  0
   49.5049   22.4419   46.6499 H   0  0  0  0  0  0  0  0  0  0  0  0
   51.8679   22.5028   47.4368 H   0  0  0  0  0  0  0  0  0  0  0  0
   58.1350   26.2806   47.1860 H   0  0  0  0  0  0  0  0  0  0  0  0
   60.2461   32.1461   48.3984 H   0  0  0  0  0  0  0  0  0  0  0  0
   61.8608   32.9605   48.6204 H   0  0  0  0  0  0  0  0  0  0  0  0
   59.5808   35.3580   45.2513 H   0  0  0  0  0  0  0  0  0  0  0  0
   59.7848   33.9258   44.2322 H   0  0  0  0  0  0  0  0  0  0  0  0
   57.3363   35.2139   44.7147 H   0  0  0  0  0  0  0  0  0  0  0  0
   57.4611   33.5382   44.1640 H   0  0  0  0  0  0  0  0  0  0  0  0
   56.8874   34.6251   46.9211 H   0  0  0  0  0  0  0  0  0  0  0  0
   56.3716   33.0834   46.2196 H   0  0  0  0  0  0  0  0  0  0  0  0
   58.4531   33.3710   48.0754 H   0  0  0  0  0  0  0  0  0  0  0  0
   58.3106   31.9833   46.9907 H   0  0  0  0  0  0  0  0  0  0  0  0
   57.1209   30.7772   45.1779 H   0  0  0  0  0  0  0  0  0  0  0  0
  1  2  2  0
  2  3  1  0
  3  4  1  0
  4  5  1  0
  5  6  2  0
  6  7  1  0
  7  8  2  0
  8  9  1  0
  9 10  2  0
  2 11  1  0
 11 12  1  0
 12 13  2  0
 13 14  1  0
 14 15  1  0
 15 16  1  0
 16 17  1  0
 17 18  1  0
 18 19  1  0
 19 20  2  0
 19 21  1  0
 21 22  1  0
 22 23  1  0
 23 24  1  0
 24 25  1  0
 16 26  2  0
 26 27  1  0
 27 28  1  0
 28 29  2  0
 29 30  1  0
 10  5  1  0
 29 12  1  0
 27 14  2  0
 25 21  1  0
  4 31  1  0
  4 32  1  0
  6 33  1  0
  7 34  1  0
  8 35  1  0
  9 36  1  0
 10 37  1  0
 13 38  1  0
 18 39  1  0
 18 40  1  0
 22 41  1  0
 22 42  1  0
 23 43  1  0
 23 44  1  0
 24 45  1  0
 24 46  1  0
 25 47  1  0
 25 48  1  0
 28 49  1  0
M  CHG  3   3  -1  11  -1  30  -1
M  END
>  <UniqueID>  (3) 
3

>  <SMILES>  (3) 
O=C([N-]Cc1ccccc1)[N-]c1cc2sc(SCC(=O)N3CCCC3)nc2cc1[O-]

>  <Energy>  (3) 
83.46026545861046

>  <Genealogy>  (3) 
O=C([N-]Cc1ccccc1)[N-]c1cc2sc(SCC(=O)N3CCCC3)nc2cc1[O-] (protonated)
O=C([N-]Cc1ccccc1)[N-]c1cc2sc(SCC(=O)N3CCCC3)nc2cc1[O-] (3D coordinates assigned)
O=C([N-]Cc1ccccc1)[N-]c1cc2sc(SCC(=O)N3CCCC3)nc2cc1[O-] (nonaromatic ring conformer: 83.46026545861046 kcal/mol)

>  <smiles>  (3) 
O=C(NCc1ccccc1)Nc1cc2sc(SCC(=O)N3CCCC3)nc2cc1O

>  <score_type>  (3) 
oracle

>  <origin>  (3) 
adg

>  <m_score__min__energy>  (3) 
-15.449999999999999

>  <m_primary>  (3) 
energy

$$$$
3:0
     RDKit          3D

 32 33  0  0  0  0  0  0  0  0999 V2000
   55.1350   28.0690   44.9720 H   0  0  0  0  0  0  0  0  0  0  0  0
   55.5270   28.9840   44.7840 O   0  0  0  0  0  0  0  0  0  0  0  0
   56.8230   29.3430   45.1530 C   0  0  0  0  0  0  0  0  0  0  0  0
   57.0430   30.6100   45.5940 N   0  0  0  0  0  0  0  0  0  0  0  0
   58.2700   31.0480   45.9890 C   0  0  0  0  0  0  0  0  0  0  0  0
   58.4700   32.4430   46.4430 C   0  0  0  0  0  0  0  0  0  0  0  0
   57.9049   33.2298   45.9219 H   0  0  0  0  0  0  0  0  0  0  0  0
   59.2850   32.8260   47.4390 C   0  0  0  0  0  0  0  0  0  0  0  0
   58.8198   33.1299   48.3883 H   0  0  0  0  0  0  0  0  0  0  0  0
   60.7600   32.8700   47.3560 C   0  0  0  0  0  0  0  0  0  0  0  0
   61.3670   33.8370   46.5410 C   0  0  0  0  0  0  0  0  0  0  0  0
   60.7445   34.5536   45.9852 H   0  0  0  0  0  0  0  0  0  0  0  0
   62.7600   33.8940   46.4320 C   0  0  0  0  0  0  0  0  0  0  0  0
   63.2308   34.6644   45.8036 H   0  0  0  0  0  0  0  0  0  0  0  0
   63.5540   32.9740   47.1200 C   0  0  0  0  0  0  0  0  0  0  0  0
   64.6499   33.0262   47.0401 H   0  0  0  0  0  0  0  0  0  0  0  0
   62.9580   31.9870   47.9100 C   0  0  0  0  0  0  0  0  0  0  0  0
   63.5860   31.2601   48.4460 H   0  0  0  0  0  0  0  0  0  0  0  0
   61.5650   31.9210   48.0210 C   0  0  0  0  0  0  0  0  0  0  0  0
   60.9910   30.9100   48.7830 O   0  0  0  0  0  0  0  0  0  0  0  0
   59.3660   30.1820   45.9060 C   0  0  0  0  0  0  0  0  0  0  0  0
   60.3685   30.5302   46.1953 H   0  0  0  0  0  0  0  0  0  0  0  0
   59.1810   28.8730   45.4540 C   0  0  0  0  0  0  0  0  0  0  0  0
   60.1760   28.1040   45.3680 O   0  0  0  0  0  0  0  0  0  0  0  0
   57.8940   28.4290   45.0920 C   0  0  0  0  0  0  0  0  0  0  0  0
   57.6860   27.0570   44.5830 C   0  0  0  0  0  0  0  0  0  0  0  0
   57.8143   26.8885   43.5036 H   0  0  0  0  0  0  0  0  0  0  0  0
   57.3520   26.0020   45.3420 C   0  0  0  0  0  0  0  0  0  0  0  0
   58.0153   25.1251   45.3080 H   0  0  0  0  0  0  0  0  0  0  0  0
   56.1670   25.9220   46.2190 C   0  0  0  0  0  0  0  0  0  0  0  0
   56.1580   25.0930   47.1650 O   0  0  0  0  0  0  0  0  0  0  0  0
   55.0400   26.7060   45.9980 O   0  0  0  0  0  0  0  0  0  0  0  0
  1  2  1  0
  2  3  1  0
  3  4  1  0
  4  5  1  0
  5  6  1  0
  6  7  1  0
  6  8  2  3
  8  9  1  0
  8 10  1  0
 10 11  2  0
 11 12  1  0
 11 13  1  0
 13 14  1  0
 13 15  2  0
 15 16  1  0
 15 17  1  0
 17 18  1  0
 17 19  2  0
 19 20  1  0
  5 21  2  0
 21 22  1  0
 21 23  1  0
 23 24  2  0
 23 25  1  0
 25 26  1  0
 26 27  1  0
 26 28  2  0
 28 29  1  0
 28 30  1  0
 30 31  2  0
 30 32  1  0
 25  3  2  0
 19 10  1  0
M  CHG  3   4  -1  20  -1  32  -1
M  END
>  <UniqueID>  (4) 
4

>  <SMILES>  (4) 
O=C([O-])/C=C\c1c(O)[n-]c(C=Cc2ccccc2[O-])cc1=O

>  <Energy>  (4) 
52.057782710396786

>  <Genealogy>  (4) 
O=C([O-])C=Cc1c(O)[n-]c(C=Cc2ccccc2[O-])cc1=O (protonated)
O=C([O-])/C=C\c1c(O)[n-]c(C=Cc2ccccc2[O-])cc1=O (cis-trans isomerization)
O=C([O-])/C=C\c1c(O)[n-]c(C=Cc2ccccc2[O-])cc1=O (3D coordinates assigned)
O=C([O-])/C=C\c1c(O)[n-]c(C=Cc2ccccc2[O-])cc1=O (optimized conformer: 52.057782710396786 kcal/mol)

>  <smiles>  (4) 
O=C(O)C=Cc1c(O)[nH]c(C=Cc2ccccc2O)cc1=O

>  <score_type>  (4) 
oracle

>  <origin>  (4) 
adg

>  <m_score__min__energy>  (4) 
-14.68

>  <m_primary>  (4) 
energy

$$$$
4:0
     RDKit          3D

 20 21  0  0  0  0  0  0  0  0999 V2000
   57.2170   22.7510   48.8530 H   0  0  0  0  0  0  0  0  0  0  0  0
   57.3220   22.8750   47.8220 N   0  0  0  0  0  0  0  0  0  0  0  0
   57.0550   24.0050   47.2520 C   0  0  0  0  0  0  0  0  0  0  0  0
   55.7970   24.4020   46.9670 N   0  0  0  0  0  0  0  0  0  0  0  0
   55.9860   25.6050   46.3990 C   0  0  0  0  0  0  0  0  0  0  0  0
   54.9450   26.4200   45.9700 O   0  0  0  0  0  0  0  0  0  0  0  0
   54.0220   26.3400   46.3800 H   0  0  0  0  0  0  0  0  0  0  0  0
   57.3350   25.9040   46.3470 C   0  0  0  0  0  0  0  0  0  0  0  0
   57.9830   27.1260   45.8150 C   0  0  0  0  0  0  0  0  0  0  0  0
   59.3620   27.1140   45.5320 C   0  0  0  0  0  0  0  0  0  0  0  0
   59.9475   26.2001   45.7108 H   0  0  0  0  0  0  0  0  0  0  0  0
   59.9930   28.2530   45.0260 C   0  0  0  0  0  0  0  0  0  0  0  0
   61.0727   28.2357   44.8164 H   0  0  0  0  0  0  0  0  0  0  0  0
   59.2540   29.4140   44.7860 C   0  0  0  0  0  0  0  0  0  0  0  0
   59.7529   30.3113   44.3911 H   0  0  0  0  0  0  0  0  0  0  0  0
   57.8830   29.4360   45.0470 C   0  0  0  0  0  0  0  0  0  0  0  0
   57.3015   30.3493   44.8527 H   0  0  0  0  0  0  0  0  0  0  0  0
   57.2480   28.2990   45.5550 C   0  0  0  0  0  0  0  0  0  0  0  0
   56.1662   28.3206   45.7532 H   0  0  0  0  0  0  0  0  0  0  0  0
   58.0180   24.8830   46.9000 N   0  0  0  0  0  0  0  0  0  0  0  0
  1  2  1  0
  2  3  2  0
  3  4  1  0
  4  5  1  0
  5  6  1  0
  6  7  1  0
  5  8  2  0
  8  9  1  0
  9 10  2  0
 10 11  1  0
 10 12  1  0
 12 13  1  0
 12 14  2  0
 14 15  1  0
 14 16  1  0
 16 17  1  0
 16 18  2  0
 18 19  1  0
  8 20  1  0
 20  3  1  0
 18  9  1  0
M  CHG  2   4  -1  20  -1
M  END
>  <UniqueID>  (5) 
5

>  <SMILES>  (5) 
[H]/N=c1\[n-]c(O)c(-c2ccccc2)[n-]1

>  <Energy>  (5) 
51.88286614810983

>  <Genealogy>  (5) 
N=c1[n-]c(O)c(-c2ccccc2)[n-]1 (protonated)
[H]/N=c1\[n-]c(O)c(-c2ccccc2)[n-]1 (cis-trans isomerization)
[H]/N=c1\[n-]c(O)c(-c2ccccc2)[n-]1 (3D coordinates assigned)
[H]/N=c1\[n-]c(O)c(-c2ccccc2)[n-]1 (optimized conformer: 51.88286614810983 kcal/mol)

>  <smiles>  (5) 
N=c1[nH]c(O)c(-c2ccccc2)[nH]1

>  <score_type>  (5) 
oracle

>  <origin>  (5) 
adg

>  <m_score__min__energy>  (5) 
-10.57

>  <m_primary>  (5) 
energy

$$$$
5:0
     RDKit          3D

 55 57  0  0  0  0  0  0  0  0999 V2000
   60.2510   27.3930   47.0330 C   0  0  0  0  0  0  0  0  0  0  0  0
   59.4360   28.3710   46.6030 C   0  0  0  0  0  0  0  0  0  0  0  0
   58.2540   28.2150   45.8620 C   0  0  0  0  0  0  0  0  0  0  0  0
   57.7300   27.1370   45.2450 C   0  0  0  0  0  0  0  0  0  0  0  0
   57.1270   25.9730   45.9110 C   0  0  0  0  0  0  0  0  0  0  0  0
   57.8430   24.9580   46.4260 N   0  0  0  0  0  0  0  0  0  0  0  0
   56.9100   24.1990   47.0400 C   0  0  0  0  0  0  0  0  0  0  0  0
   57.1950   23.1280   47.6380 O   0  0  0  0  0  0  0  0  0  0  0  0
   55.6500   24.6830   46.9760 N   0  0  0  0  0  0  0  0  0  0  0  0
   55.8080   25.8140   46.2710 C   0  0  0  0  0  0  0  0  0  0  0  0
   54.7720   26.6960   45.9880 O   0  0  0  0  0  0  0  0  0  0  0  0
   57.6370   29.4530   45.8500 C   0  0  0  0  0  0  0  0  0  0  0  0
   58.4750   30.3260   46.5100 C   0  0  0  0  0  0  0  0  0  0  0  0
   58.1710   31.7530   46.7490 C   0  0  0  0  0  0  0  0  0  0  0  0
   58.2230   32.1940   47.9280 O   0  0  0  0  0  0  0  0  0  0  0  0
   57.8040   32.6380   45.6700 N   0  0  0  0  0  0  0  0  0  0  0  0
   58.1450   32.3090   44.2820 C   0  0  0  0  0  0  0  0  0  0  0  0
   57.1860   33.9300   45.9880 C   0  0  0  0  0  0  0  0  0  0  0  0
   59.5750   29.6760   46.9620 N   0  0  0  0  0  0  0  0  0  0  0  0
   60.6760   30.2840   47.7270 C   0  0  0  0  0  0  0  0  0  0  0  0
   60.5870   29.9060   49.1780 C   0  0  0  0  0  0  0  0  0  0  0  0
   61.5390   29.2760   49.7130 O   0  0  0  0  0  0  0  0  0  0  0  0
   59.4200   30.2520   49.9430 N   0  0  0  0  0  0  0  0  0  0  0  0
   59.2750   29.9610   51.3430 C   0  0  0  0  0  0  0  0  0  0  0  0
   60.3840   29.5750   52.1140 C   0  0  0  0  0  0  0  0  0  0  0  0
   60.2550   29.3140   53.4820 C   0  0  0  0  0  0  0  0  0  0  0  0
   61.3970   28.9280   54.1980 O   0  0  0  0  0  0  0  0  0  0  0  0
   62.5950   28.4420   53.6010 C   0  0  0  0  0  0  0  0  0  0  0  0
   58.9950   29.4520   54.0890 C   0  0  0  0  0  0  0  0  0  0  0  0
   57.8890   29.8520   53.3370 C   0  0  0  0  0  0  0  0  0  0  0  0
   58.0190   30.1140   51.9600 C   0  0  0  0  0  0  0  0  0  0  0  0
   56.9260   30.5130   51.1730 O   0  0  0  0  0  0  0  0  0  0  0  0
   55.6480   30.8760   51.6880 C   0  0  0  0  0  0  0  0  0  0  0  0
   61.1542   27.6432   47.6090 H   0  0  0  0  0  0  0  0  0  0  0  0
   60.0150   26.3422   46.8091 H   0  0  0  0  0  0  0  0  0  0  0  0
   57.7558   27.1273   44.1453 H   0  0  0  0  0  0  0  0  0  0  0  0
   56.6630   29.6948   45.3995 H   0  0  0  0  0  0  0  0  0  0  0  0
   58.9366   31.5453   44.2701 H   0  0  0  0  0  0  0  0  0  0  0  0
   57.2535   31.9211   43.7675 H   0  0  0  0  0  0  0  0  0  0  0  0
   58.5007   33.2138   43.7675 H   0  0  0  0  0  0  0  0  0  0  0  0
   57.1285   34.0501   47.0799 H   0  0  0  0  0  0  0  0  0  0  0  0
   57.7933   34.7419   45.5613 H   0  0  0  0  0  0  0  0  0  0  0  0
   56.1728   33.9668   45.5613 H   0  0  0  0  0  0  0  0  0  0  0  0
   61.6356   29.9320   47.3204 H   0  0  0  0  0  0  0  0  0  0  0  0
   60.6036   31.3783   47.6417 H   0  0  0  0  0  0  0  0  0  0  0  0
   58.5920   30.6310   49.4320 H   0  0  0  0  0  0  0  0  0  0  0  0
   61.3690   29.4765   51.6344 H   0  0  0  0  0  0  0  0  0  0  0  0
   63.3064   28.1534   54.3888 H   0  0  0  0  0  0  0  0  0  0  0  0
   62.3644   27.5663   52.9765 H   0  0  0  0  0  0  0  0  0  0  0  0
   63.0397   29.2309   52.9765 H   0  0  0  0  0  0  0  0  0  0  0  0
   58.8796   29.2436   55.1629 H   0  0  0  0  0  0  0  0  0  0  0  0
   56.9089   29.9633   53.8239 H   0  0  0  0  0  0  0  0  0  0  0  0
   55.6797   30.8670   52.7875 H   0  0  0  0  0  0  0  0  0  0  0  0
   55.3842   31.8846   51.3370 H   0  0  0  0  0  0  0  0  0  0  0  0
   54.8934   30.1567   51.3370 H   0  0  0  0  0  0  0  0  0  0  0  0
  1  2  2  0
  2  3  1  0
  3  4  2  3
  4  5  1  0
  5  6  1  0
  6  7  1  0
  7  8  2  0
  7  9  1  0
  9 10  1  0
 10 11  1  0
  3 12  1  0
 12 13  2  0
 13 14  1  0
 14 15  2  0
 14 16  1  0
 16 17  1  0
 16 18  1  0
 13 19  1  0
 19 20  1  0
 20 21  1  0
 21 22  2  0
 21 23  1  0
 23 24  1  0
 24 25  2  0
 25 26  1  0
 26 27  1  0
 27 28  1  0
 26 29  2  0
 29 30  1  0
 30 31  2  0
 31 32  1  0
 32 33  1  0
 19  2  1  0
 31 24  1  0
 10  5  2  0
  1 34  1  0
  1 35  1  0
  4 36  1  0
 12 37  1  0
 17 38  1  0
 17 39  1  0
 17 40  1  0
 18 41  1  0
 18 42  1  0
 18 43  1  0
 20 44  1  0
 20 45  1  0
 23 46  1  0
 25 47  1  0
 28 48  1  0
 28 49  1  0
 28 50  1  0
 29 51  1  0
 30 52  1  0
 33 53  1  0
 33 54  1  0
 33 55  1  0
M  CHG  3   6  -1   9  -1  11  -1
M  END
>  <UniqueID>  (6) 
6

>  <SMILES>  (6) 
C=c1c(=Cc2[n-]c(=O)[n-]c2[O-])cc(C(=O)N(C)C)n1CC(=O)Nc1cc(OC)ccc1OC

>  <Energy>  (6) 
131.50794326919356

>  <Genealogy>  (6) 
C=c1c(=Cc2[n-]c(=O)[n-]c2[O-])cc(C(=O)N(C)C)n1CC(=O)Nc1cc(OC)ccc1OC (protonated)
C=c1c(=Cc2[n-]c(=O)[n-]c2[O-])cc(C(=O)N(C)C)n1CC(=O)Nc1cc(OC)ccc1OC (3D coordinates assigned)
C=c1c(=Cc2[n-]c(=O)[n-]c2[O-])cc(C(=O)N(C)C)n1CC(=O)Nc1cc(OC)ccc1OC (optimized conformer: 131.50794326919356 kcal/mol)

>  <smiles>  (6) 
C=c1c(=Cc2[nH]c(=O)[nH]c2O)cc(C(=O)N(C)C)n1CC(=O)Nc1cc(OC)ccc1OC

>  <score_type>  (6) 
oracle

>  <origin>  (6) 
adg

>  <m_score__min__energy>  (6) 
-15.48

>  <m_primary>  (6) 
energy

$$$$
6:0
     RDKit          3D

 49 53  0  0  0  0  0  0  0  0999 V2000
   61.8480   29.5400   51.9050 O   0  0  0  0  0  0  0  0  0  0  0  0
   61.8460   30.0350   50.7520 C   0  0  0  0  0  0  0  0  0  0  0  0
   61.1310   29.4700   49.7640 N   0  0  0  0  0  0  0  0  0  0  0  0
   61.0850   29.9490   48.5100 C   0  0  0  0  0  0  0  0  0  0  0  0
   60.3080   29.3340   47.4410 C   0  0  0  0  0  0  0  0  0  0  0  0
   59.2110   28.5310   47.6660 C   0  0  0  0  0  0  0  0  0  0  0  0
   58.4840   27.9530   46.6470 C   0  0  0  0  0  0  0  0  0  0  0  0
   58.8540   28.1790   45.3380 C   0  0  0  0  0  0  0  0  0  0  0  0
   58.0530   27.5440   44.2280 C   0  0  0  0  0  0  0  0  0  0  0  0
   57.5410   28.5460   43.3350 N   0  0  0  0  0  0  0  0  0  0  0  0
   56.6040   29.7560   44.0490 S   0  0  0  0  0  0  0  0  0  0  0  0
   55.5300   30.1640   43.0390 O   0  0  0  0  0  0  0  0  0  0  0  0
   55.8840   29.1120   45.2380 O   0  0  0  0  0  0  0  0  0  0  0  0
   57.4200   31.1750   44.5680 C   0  0  0  0  0  0  0  0  0  0  0  0
   57.8070   31.4830   45.8430 C   0  0  0  0  0  0  0  0  0  0  0  0
   58.4950   32.6550   46.1690 C   0  0  0  0  0  0  0  0  0  0  0  0
   58.8100   33.5530   45.1880 C   0  0  0  0  0  0  0  0  0  0  0  0
   58.4380   33.2720   43.9050 C   0  0  0  0  0  0  0  0  0  0  0  0
   57.7590   32.1180   43.5850 C   0  0  0  0  0  0  0  0  0  0  0  0
   57.4240   31.9110   42.2900 F   0  0  0  0  0  0  0  0  0  0  0  0
   59.9380   28.9710   45.0780 C   0  0  0  0  0  0  0  0  0  0  0  0
   60.6620   29.5460   46.1240 C   0  0  0  0  0  0  0  0  0  0  0  0
   61.8010   31.0550   48.2480 N   0  0  0  0  0  0  0  0  0  0  0  0
   62.5310   31.6570   49.1980 C   0  0  0  0  0  0  0  0  0  0  0  0
   63.3470   32.7790   49.2180 C   0  0  0  0  0  0  0  0  0  0  0  0
   63.6400   33.6820   48.0700 C   0  0  0  0  0  0  0  0  0  0  0  0
   62.4930   33.8130   47.0260 C   0  0  0  0  0  0  0  0  0  0  0  0
   63.7690   33.1300   46.6990 C   0  0  0  0  0  0  0  0  0  0  0  0
   63.8410   32.9270   50.4610 N   0  0  0  0  0  0  0  0  0  0  0  0
   63.3770   31.9450   51.2430 N   0  0  0  0  0  0  0  0  0  0  0  0
   62.5860   31.1710   50.4990 C   0  0  0  0  0  0  0  0  0  0  0  0
   60.5930   28.6150   50.0150 H   0  0  0  0  0  0  0  0  0  0  0  0
   58.9016   28.3428   48.7047 H   0  0  0  0  0  0  0  0  0  0  0  0
   57.6163   27.3170   46.8763 H   0  0  0  0  0  0  0  0  0  0  0  0
   58.6993   26.8546   43.6650 H   0  0  0  0  0  0  0  0  0  0  0  0
   57.2066   26.9979   44.6700 H   0  0  0  0  0  0  0  0  0  0  0  0
   58.2760   28.9510   42.7250 H   0  0  0  0  0  0  0  0  0  0  0  0
   57.5655   30.7752   46.6497 H   0  0  0  0  0  0  0  0  0  0  0  0
   58.7821   32.8541   47.2120 H   0  0  0  0  0  0  0  0  0  0  0  0
   59.3508   34.4807   45.4268 H   0  0  0  0  0  0  0  0  0  0  0  0
   58.6872   33.9861   43.1062 H   0  0  0  0  0  0  0  0  0  0  0  0
   60.2417   29.1564   44.0371 H   0  0  0  0  0  0  0  0  0  0  0  0
   61.5310   30.1800   45.8942 H   0  0  0  0  0  0  0  0  0  0  0  0
   64.2685   34.3457   48.6819 H   0  0  0  0  0  0  0  0  0  0  0  0
   61.5669   33.2312   47.1437 H   0  0  0  0  0  0  0  0  0  0  0  0
   61.9105   34.6411   46.5960 H   0  0  0  0  0  0  0  0  0  0  0  0
   63.7769   32.0397   46.5536 H   0  0  0  0  0  0  0  0  0  0  0  0
   64.5125   33.2556   45.8981 H   0  0  0  0  0  0  0  0  0  0  0  0
   64.4880   33.6840   50.7850 H   0  0  0  0  0  0  0  0  0  0  0  0
  1  2  2  0
  2  3  1  0
  3  4  1  0
  4  5  1  0
  5  6  2  0
  6  7  1  0
  7  8  2  0
  8  9  1  0
  9 10  1  0
 10 11  1  0
 11 12  2  0
 11 13  2  0
 11 14  1  0
 14 15  2  0
 15 16  1  0
 16 17  2  0
 17 18  1  0
 18 19  2  0
 19 20  1  0
  8 21  1  0
 21 22  2  0
  4 23  2  0
 23 24  1  0
 24 25  2  0
 25 26  1  0
 26 27  1  0
 27 28  1  0
 25 29  1  0
 29 30  1  0
 30 31  2  0
 31  2  1  0
 22  5  1  0
 31 24  1  0
 19 14  1  0
 28 26  1  0
  3 32  1  0
  6 33  1  0
  7 34  1  0
  9 35  1  0
  9 36  1  0
 10 37  1  0
 15 38  1  0
 16 39  1  0
 17 40  1  0
 18 41  1  0
 21 42  1  0
 22 43  1  0
 26 44  1  0
 27 45  1  0
 27 46  1  0
 28 47  1  0
 28 48  1  0
 29 49  1  0
M  END
>  <smiles>  (7) 
O=c1[nH]c(-c2ccc(CNS(=O)(=O)c3ccccc3F)cc2)nc2c(C3CC3)[nH]nc12

>  <score_type>  (7) 
oracle

>  <origin>  (7) 
adg

>  <m_score__min__energy>  (7) 
-9.3200000000000003

>  <m_primary>  (7) 
energy

$$$$
7:0
     RDKit          3D

 47 50  0  0  0  0  0  0  0  0999 V2000
   62.2540   26.9290   52.9260 H   0  0  0  0  0  0  0  0  0  0  0  0
   62.0410   27.4590   52.0880 O   0  0  0  0  0  0  0  0  0  0  0  0
   62.7380   28.6210   51.7630 C   0  0  0  0  0  0  0  0  0  0  0  0
   64.1270   28.6810   51.9510 C   0  0  0  0  0  0  0  0  0  0  0  0
   64.6598   27.8162   52.3732 H   0  0  0  0  0  0  0  0  0  0  0  0
   64.8370   29.8330   51.6050 C   0  0  0  0  0  0  0  0  0  0  0  0
   65.9250   29.8771   51.7611 H   0  0  0  0  0  0  0  0  0  0  0  0
   64.1630   30.9300   51.0600 C   0  0  0  0  0  0  0  0  0  0  0  0
   64.7233   31.8334   50.7771 H   0  0  0  0  0  0  0  0  0  0  0  0
   62.7790   30.8810   50.8740 C   0  0  0  0  0  0  0  0  0  0  0  0
   62.2537   31.7473   50.4455 H   0  0  0  0  0  0  0  0  0  0  0  0
   62.0550   29.7320   51.2310 C   0  0  0  0  0  0  0  0  0  0  0  0
   60.6260   29.7110   51.0720 N   0  0  0  0  0  0  0  0  0  0  0  0
   59.7960   29.1210   52.1340 C   0  0  0  0  0  0  0  0  0  0  0  0
   60.1032   29.5424   53.1025 H   0  0  0  0  0  0  0  0  0  0  0  0
   59.9393   28.0305   52.1162 H   0  0  0  0  0  0  0  0  0  0  0  0
   58.3060   29.4120   51.9150 C   0  0  0  0  0  0  0  0  0  0  0  0
   57.7555   29.2027   52.8440 H   0  0  0  0  0  0  0  0  0  0  0  0
   57.9331   28.7715   51.1022 H   0  0  0  0  0  0  0  0  0  0  0  0
   58.1080   30.8220   51.5410 N   0  0  0  0  0  0  0  0  0  0  0  0
   57.1030   31.6310   52.1840 C   0  0  0  0  0  0  0  0  0  0  0  0
   57.3430   32.8480   52.4140 O   0  0  0  0  0  0  0  0  0  0  0  0
   55.7860   31.0850   52.5740 C   0  0  0  0  0  0  0  0  0  0  0  0
   54.6030   31.2160   51.8670 C   0  0  0  0  0  0  0  0  0  0  0  0
   54.4666   31.7269   50.9024 H   0  0  0  0  0  0  0  0  0  0  0  0
   53.6200   30.5750   52.6150 C   0  0  0  0  0  0  0  0  0  0  0  0
   52.3180   30.4240   52.2970 C   0  0  0  0  0  0  0  0  0  0  0  0
   51.6585   29.9799   53.0571 H   0  0  0  0  0  0  0  0  0  0  0  0
   51.7080   30.8090   51.0060 C   0  0  0  0  0  0  0  0  0  0  0  0
   51.6700   30.0460   49.8960 N   0  0  0  0  0  0  0  0  0  0  0  0
   51.0620   30.8410   48.9890 C   0  0  0  0  0  0  0  0  0  0  0  0
   50.8250   30.4670   47.8090 O   0  0  0  0  0  0  0  0  0  0  0  0
   50.7250   32.0650   49.4440 N   0  0  0  0  0  0  0  0  0  0  0  0
   51.1440   32.0290   50.7210 C   0  0  0  0  0  0  0  0  0  0  0  0
   51.0150   33.0900   51.6070 O   0  0  0  0  0  0  0  0  0  0  0  0
   54.2660   30.0890   53.7560 C   0  0  0  0  0  0  0  0  0  0  0  0
   53.7210   29.4070   54.7690 C   0  0  0  0  0  0  0  0  0  0  0  0
   52.6486   29.1627   54.7536 H   0  0  0  0  0  0  0  0  0  0  0  0
   54.3451   29.0903   55.6177 H   0  0  0  0  0  0  0  0  0  0  0  0
   55.5750   30.4150   53.7240 N   0  0  0  0  0  0  0  0  0  0  0  0
   56.2940   30.1860   54.4510 H   0  0  0  0  0  0  0  0  0  0  0  0
   58.9900   31.4520   50.5450 C   0  0  0  0  0  0  0  0  0  0  0  0
   59.5383   32.2767   51.0238 H   0  0  0  0  0  0  0  0  0  0  0  0
   58.3670   31.8242   49.7184 H   0  0  0  0  0  0  0  0  0  0  0  0
   59.9960   30.4510   49.9750 C   0  0  0  0  0  0  0  0  0  0  0  0
   60.7677   30.9905   49.4063 H   0  0  0  0  0  0  0  0  0  0  0  0
   59.4748   29.7466   49.3101 H   0  0  0  0  0  0  0  0  0  0  0  0
  1  2  1  0
  2  3  1  0
  3  4  2  0
  4  5  1  0
  4  6  1  0
  6  7  1  0
  6  8  2  0
  8  9  1  0
  8 10  1  0
 10 11  1  0
 10 12  2  0
 12 13  1  0
 13 14  1  0
 14 15  1  0
 14 16  1  0
 14 17  1  0
 17 18  1  0
 17 19  1  0
 17 20  1  0
 20 21  1  0
 21 22  2  0
 21 23  1  0
 23 24  2  0
 24 25  1  0
 24 26  1  0
 26 27  2  0
 27 28  1  0
 27 29  1  0
 29 30  1  0
 30 31  1  0
 31 32  2  0
 31 33  1  0
 33 34  1  0
 34 35  1  0
 26 36  1  0
 36 37  2  0
 37 38  1  0
 37 39  1  0
 36 40  1  0
 40 41  1  0
 20 42  1  0
 42 43  1  0
 42 44  1  0
 42 45  1  0
 45 46  1  0
 45 47  1  0
 12  3  1  0
 45 13  1  0
 40 23  1  0
 34 29  2  0
M  CHG  3  30  -1  33  -1  35  -1
M  END
>  <UniqueID>  (8) 
7

>  <SMILES>  (8) 
C=c1[nH]c(C(=O)N2CCN(c3ccccc3O)CC2)c/c1=C\c1[n-]c(=O)[n-]c1[O-]

>  <Energy>  (8) 
119.16076911611805

>  <Genealogy>  (8) 
C=c1[nH]c(C(=O)N2CCN(c3ccccc3O)CC2)cc1=Cc1[n-]c(=O)[n-]c1[O-] (protonated)
C=c1[nH]c(C(=O)N2CCN(c3ccccc3O)CC2)c/c1=C\c1[n-]c(=O)[n-]c1[O-] (cis-trans isomerization)
C=c1[nH]c(C(=O)N2CCN(c3ccccc3O)CC2)c/c1=C\c1[n-]c(=O)[n-]c1[O-] (3D coordinates assigned)
C=c1[nH]c(C(=O)N2CCN(c3ccccc3O)CC2)c/c1=C\c1[n-]c(=O)[n-]c1[O-] (nonaromatic ring conformer: 119.16076911611805 kcal/mol)

>  <smiles>  (8) 
C=c1[nH]c(C(=O)N2CCN(c3ccccc3O)CC2)cc1=Cc1[nH]c(=O)[nH]c1O

>  <score_type>  (8) 
oracle

>  <origin>  (8) 
adg

>  <m_score__min__energy>  (8) 
-17.260000000000002

>  <m_primary>  (8) 
energy

$$$$
8:0
     RDKit          3D

 40 42  0  0  0  0  0  0  0  0999 V2000
   61.1410   30.6460   48.3920 C   0  0  0  0  0  0  0  0  0  0  0  0
   61.6640   30.9440   49.6790 O   0  0  0  0  0  0  0  0  0  0  0  0
   62.7410   31.8130   49.8780 C   0  0  0  0  0  0  0  0  0  0  0  0
   63.9220   31.3730   49.8900 O   0  0  0  0  0  0  0  0  0  0  0  0
   62.5140   33.2130   50.0750 N   0  0  0  0  0  0  0  0  0  0  0  0
   62.3130   34.2030   49.0120 C   0  0  1  0  0  0  0  0  0  0  0  0
   63.2530   33.9560   47.8240 C   0  0  0  0  0  0  0  0  0  0  0  0
   62.3760   33.5290   46.6520 C   0  0  0  0  0  0  0  0  0  0  0  0
   60.9990   33.7030   47.0850 N   0  0  0  0  0  0  0  0  0  0  0  0
   59.8790   33.4080   46.2300 C   0  0  0  0  0  0  0  0  0  0  0  0
   59.3210   34.3850   45.3880 C   0  0  0  0  0  0  0  0  0  0  0  0
   58.2330   34.0540   44.5800 C   0  0  0  0  0  0  0  0  0  0  0  0
   57.7070   32.7630   44.6100 C   0  0  0  0  0  0  0  0  0  0  0  0
   58.2820   31.8030   45.4580 C   0  0  0  0  0  0  0  0  0  0  0  0
   57.7710   30.4190   45.5370 C   0  0  0  0  0  0  0  0  0  0  0  0
   56.6470   29.8860   44.8990 C   0  0  0  0  0  0  0  0  0  0  0  0
   56.4130   28.5710   45.1550 N   0  0  0  0  0  0  0  0  0  0  0  0
   57.3320   28.0410   45.9890 C   0  0  0  0  0  0  0  0  0  0  0  0
   57.2850   26.7940   46.3590 N   0  0  0  0  0  0  0  0  0  0  0  0
   56.1310   25.9520   46.5080 C   0  0  0  0  0  0  0  0  0  0  0  0
   54.8570   26.3190   45.9790 N   0  0  0  0  0  0  0  0  0  0  0  0
   56.2500   24.8610   47.1220 O   0  0  0  0  0  0  0  0  0  0  0  0
   58.4810   29.1900   46.4450 S   0  0  0  0  0  0  0  0  0  0  0  0
   59.3430   32.1550   46.2350 N   0  0  0  0  0  0  0  0  0  0  0  0
   60.8860   34.1630   48.4600 C   0  0  0  0  0  0  0  0  0  0  0  0
   60.1898   30.1040   48.4992 H   0  0  0  0  0  0  0  0  0  0  0  0
   60.9695   31.5820   47.8402 H   0  0  0  0  0  0  0  0  0  0  0  0
   61.8588   30.0213   47.8402 H   0  0  0  0  0  0  0  0  0  0  0  0
   62.5199   35.1788   49.4758 H   0  0  0  0  0  0  0  0  0  0  0  0
   63.7976   34.8783   47.5735 H   0  0  0  0  0  0  0  0  0  0  0  0
   63.9976   33.1825   48.0631 H   0  0  0  0  0  0  0  0  0  0  0  0
   62.5812   34.1590   45.7739 H   0  0  0  0  0  0  0  0  0  0  0  0
   62.5748   32.4861   46.3644 H   0  0  0  0  0  0  0  0  0  0  0  0
   59.7387   35.4024   45.3662 H   0  0  0  0  0  0  0  0  0  0  0  0
   57.7894   34.8125   43.9183 H   0  0  0  0  0  0  0  0  0  0  0  0
   56.8488   32.4989   43.9746 H   0  0  0  0  0  0  0  0  0  0  0  0
   56.0010   30.4847   44.2400 H   0  0  0  0  0  0  0  0  0  0  0  0
   54.7740   27.0580   45.2470 H   0  0  0  0  0  0  0  0  0  0  0  0
   60.4362   35.1663   48.4913 H   0  0  0  0  0  0  0  0  0  0  0  0
   60.2431   33.4978   49.0551 H   0  0  0  0  0  0  0  0  0  0  0  0
  1  2  1  0
  2  3  1  0
  3  4  2  0
  3  5  1  0
  5  6  1  0
  6  7  1  0
  7  8  1  0
  8  9  1  0
  9 10  1  0
 10 11  2  0
 11 12  1  0
 12 13  2  0
 13 14  1  0
 14 15  1  0
 15 16  2  0
 16 17  1  0
 17 18  1  0
 18 19  2  3
 19 20  1  0
 20 21  1  0
 20 22  2  0
 18 23  1  0
 14 24  2  0
  9 25  1  0
 25  6  1  0
 24 10  1  0
 23 15  1  0
  1 26  1  0
  1 27  1  0
  1 28  1  0
  6 29  1  1
  7 30  1  0
  7 31  1  0
  8 32  1  0
  8 33  1  0
 11 34  1  0
 12 35  1  0
 13 36  1  0
 16 37  1  0
 21 38  1  0
 25 39  1  0
 25 40  1  0
M  CHG  3   5  -1  17  -1  21  -1
M  END
>  <UniqueID>  (9) 
8

>  <SMILES>  (9) 
COC(=O)[N-][C@H]1CCN(c2cccc(-c3c[n-]c(=NC([NH-])=O)s3)n2)C1

>  <Energy>  (9) 
73.23912632174455

>  <Genealogy>  (9) 
COC(=O)[N-]C1CCN(c2cccc(-c3c[n-]c(=NC([NH-])=O)s3)n2)C1 (protonated)
COC(=O)[N-][C@H]1CCN(c2cccc(-c3c[n-]c(=NC([NH-])=O)s3)n2)C1 (chirality)
COC(=O)[N-][C@H]1CCN(c2cccc(-c3c[n-]c(=NC([NH-])=O)s3)n2)C1 (3D coordinates assigned)
COC(=O)[N-][C@H]1CCN(c2cccc(-c3c[n-]c(=NC([NH-])=O)s3)n2)C1 (nonaromatic ring conformer: 73.23912632174455 kcal/mol)

>  <smiles>  (9) 
COC(=O)NC1CCN(c2cccc(-c3c[nH]c(=NC(N)=O)s3)n2)C1

>  <score_type>  (9) 
oracle

>  <origin>  (9) 
adg

>  <m_score__min__energy>  (9) 
-10.85

>  <m_primary>  (9) 
energy

$$$$
9:0
     RDKit          3D

 72 76  0  0  0  0  0  0  0  0999 V2000
   54.3970   29.6060   53.8280 C   0  0  0  0  0  0  0  0  0  0  0  0
   55.0000   29.2030   52.4910 C   0  0  0  0  0  0  0  0  0  0  0  0
   56.2880   29.7920   52.3550 O   0  0  0  0  0  0  0  0  0  0  0  0
   56.5210   31.1610   52.5350 C   0  0  0  0  0  0  0  0  0  0  0  0
   55.6730   32.0010   52.1230 O   0  0  0  0  0  0  0  0  0  0  0  0
   57.7400   31.6110   53.1610 N   0  0  0  0  0  0  0  0  0  0  0  0
   58.1740   33.0070   53.0390 C   0  0  0  0  0  0  0  0  0  0  0  0
   59.1910   33.1060   51.8930 C   0  0  0  0  0  0  0  0  0  0  0  0
   59.9610   31.8580   51.7720 N   0  0  0  0  0  0  0  0  0  0  0  0
   60.6110   31.5450   50.5320 C   0  0  0  0  0  0  0  0  0  0  0  0
   61.2880   32.4300   49.9430 O   0  0  0  0  0  0  0  0  0  0  0  0
   60.4630   30.2020   49.9240 C   0  0  0  0  0  0  0  0  0  0  0  0
   61.4610   29.2360   50.1270 C   0  0  0  0  0  0  0  0  0  0  0  0
   61.3610   28.0090   49.5560 N   0  0  0  0  0  0  0  0  0  0  0  0
   60.3120   27.6680   48.7650 C   0  0  0  0  0  0  0  0  0  0  0  0
   60.2780   26.4080   48.1580 C   0  0  0  0  0  0  0  0  0  0  0  0
   59.2490   26.0850   47.2710 C   0  0  0  0  0  0  0  0  0  0  0  0
   58.2410   27.0170   46.9890 C   0  0  0  0  0  0  0  0  0  0  0  0
   57.0560   26.6860   45.7240 S   0  0  0  0  0  0  0  0  0  0  0  0
   57.3540   25.3510   45.0960 O   0  0  0  0  0  0  0  0  0  0  0  0
   55.6840   26.6170   46.3340 O   0  0  0  0  0  0  0  0  0  0  0  0
   57.0890   27.9280   44.4920 N   0  0  0  0  0  0  0  0  0  0  0  0
   56.1760   29.0450   44.8290 C   0  0  0  0  0  0  0  0  0  0  0  0
   56.6430   30.3850   44.2610 C   0  0  0  0  0  0  0  0  0  0  0  0
   57.9900   30.6610   44.7550 N   0  0  0  0  0  0  0  0  0  0  0  0
   58.3660   31.9960   45.1230 C   0  0  0  0  0  0  0  0  0  0  0  0
   58.6330   32.2870   46.4670 C   0  0  0  0  0  0  0  0  0  0  0  0
   59.0160   33.5760   46.8480 C   0  0  0  0  0  0  0  0  0  0  0  0
   59.3440   33.9310   48.5340 Cl  0  0  0  0  0  0  0  0  0  0  0  0
   59.1360   34.5830   45.8850 C   0  0  0  0  0  0  0  0  0  0  0  0
   58.8680   34.3040   44.5440 C   0  0  0  0  0  0  0  0  0  0  0  0
   58.4710   33.0150   44.1510 C   0  0  0  0  0  0  0  0  0  0  0  0
   58.1970   32.7290   42.7030 C   0  0  0  0  0  0  0  0  0  0  0  0
   58.9770   29.5830   44.8370 C   0  0  0  0  0  0  0  0  0  0  0  0
   58.4760   28.3120   44.1280 C   0  0  0  0  0  0  0  0  0  0  0  0
   58.2300   28.2520   47.6520 C   0  0  0  0  0  0  0  0  0  0  0  0
   59.2740   28.5980   48.5290 C   0  0  0  0  0  0  0  0  0  0  0  0
   59.3500   29.8720   49.1280 C   0  0  0  0  0  0  0  0  0  0  0  0
   58.4420   30.7250   48.9260 O   0  0  0  0  0  0  0  0  0  0  0  0
   60.1300   30.9810   52.9420 C   0  0  0  0  0  0  0  0  0  0  0  0
   58.7650   30.6430   53.5800 C   0  0  0  0  0  0  0  0  0  0  0  0
   55.0096   29.1966   54.6448 H   0  0  0  0  0  0  0  0  0  0  0  0
   54.3717   30.7031   53.9030 H   0  0  0  0  0  0  0  0  0  0  0  0
   53.3736   29.2097   53.9030 H   0  0  0  0  0  0  0  0  0  0  0  0
   55.0909   28.1077   52.4450 H   0  0  0  0  0  0  0  0  0  0  0  0
   54.3494   29.5514   51.6753 H   0  0  0  0  0  0  0  0  0  0  0  0
   57.3064   33.6470   52.8207 H   0  0  0  0  0  0  0  0  0  0  0  0
   58.6352   33.3405   53.9803 H   0  0  0  0  0  0  0  0  0  0  0  0
   58.6558   33.2930   50.9503 H   0  0  0  0  0  0  0  0  0  0  0  0
   59.8861   33.9312   52.1072 H   0  0  0  0  0  0  0  0  0  0  0  0
   62.3320   29.4758   50.7546 H   0  0  0  0  0  0  0  0  0  0  0  0
   61.0633   25.6704   48.3799 H   0  0  0  0  0  0  0  0  0  0  0  0
   59.2295   25.0951   46.7917 H   0  0  0  0  0  0  0  0  0  0  0  0
   55.1794   28.8191   44.4219 H   0  0  0  0  0  0  0  0  0  0  0  0
   56.1582   29.1385   45.9249 H   0  0  0  0  0  0  0  0  0  0  0  0
   56.6547   30.3370   43.1621 H   0  0  0  0  0  0  0  0  0  0  0  0
   55.9573   31.1848   44.5774 H   0  0  0  0  0  0  0  0  0  0  0  0
   58.5407   31.4968   47.2266 H   0  0  0  0  0  0  0  0  0  0  0  0
   59.4420   35.5962   46.1848 H   0  0  0  0  0  0  0  0  0  0  0  0
   58.9683   35.0986   43.7899 H   0  0  0  0  0  0  0  0  0  0  0  0
   57.4380   31.9368   42.6230 H   0  0  0  0  0  0  0  0  0  0  0  0
   57.8276   33.6416   42.2125 H   0  0  0  0  0  0  0  0  0  0  0  0
   59.1246   32.3990   42.2125 H   0  0  0  0  0  0  0  0  0  0  0  0
   59.9109   29.9150   44.3600 H   0  0  0  0  0  0  0  0  0  0  0  0
   59.1452   29.3458   45.8979 H   0  0  0  0  0  0  0  0  0  0  0  0
   58.5145   28.4830   43.0421 H   0  0  0  0  0  0  0  0  0  0  0  0
   59.1304   27.4881   44.4489 H   0  0  0  0  0  0  0  0  0  0  0  0
   57.4002   28.9546   47.4855 H   0  0  0  0  0  0  0  0  0  0  0  0
   60.6201   30.0486   52.6252 H   0  0  0  0  0  0  0  0  0  0  0  0
   60.7459   31.5051   53.6876 H   0  0  0  0  0  0  0  0  0  0  0  0
   58.4592   29.6345   53.2648 H   0  0  0  0  0  0  0  0  0  0  0  0
   58.8661   30.6873   54.6745 H   0  0  0  0  0  0  0  0  0  0  0  0
  1  2  1  0
  2  3  1  0
  3  4  1  0
  4  5  2  0
  4  6  1  0
  6  7  1  0
  7  8  1  0
  8  9  1  0
  9 10  1  0
 10 11  2  0
 10 12  1  0
 12 13  2  0
 13 14  1  0
 14 15  1  0
 15 16  2  0
 16 17  1  0
 17 18  2  0
 18 19  1  0
 19 20  2  0
 19 21  2  0
 19 22  1  0
 22 23  1  0
 23 24  1  0
 24 25  1  0
 25 26  1  0
 26 27  2  0
 27 28  1  0
 28 29  1  0
 28 30  2  0
 30 31  1  0
 31 32  2  0
 32 33  1  0
 25 34  1  0
 34 35  1  0
 18 36  1  0
 36 37  2  0
 37 38  1  0
 38 39  2  0
  9 40  1  0
 40 41  1  0
 41  6  1  0
 38 12  1  0
 37 15  1  0
 35 22  1  0
 32 26  1  0
  1 42  1  0
  1 43  1  0
  1 44  1  0
  2 45  1  0
  2 46  1  0
  7 47  1  0
  7 48  1  0
  8 49  1  0
  8 50  1  0
 13 51  1  0
 16 52  1  0
 17 53  1  0
 23 54  1  0
 23 55  1  0
 24 56  1  0
 24 57  1  0
 27 58  1  0
 30 59  1  0
 31 60  1  0
 33 61  1  0
 33 62  1  0
 33 63  1  0
 34 64  1  0
 34 65  1  0
 35 66  1  0
 35 67  1  0
 36 68  1  0
 40 69  1  0
 40 70  1  0
 41 71  1  0
 41 72  1  0
M  CHG  1  14  -1
M  END
>  <UniqueID>  (10) 
9

>  <SMILES>  (10) 
CCOC(=O)N1CCN(C(=O)c2c[n-]c3ccc(S(=O)(=O)N4CCN(c5cc(Cl)ccc5C)CC4)cc3c2=O)CC1

>  <Energy>  (10) 
94.2555772572457

>  <Genealogy>  (10) 
CCOC(=O)N1CCN(C(=O)c2c[n-]c3ccc(S(=O)(=O)N4CCN(c5cc(Cl)ccc5C)CC4)cc3c2=O)CC1 (protonated)
CCOC(=O)N1CCN(C(=O)c2c[n-]c3ccc(S(=O)(=O)N4CCN(c5cc(Cl)ccc5C)CC4)cc3c2=O)CC1 (3D coordinates assigned)
CCOC(=O)N1CCN(C(=O)c2c[n-]c3ccc(S(=O)(=O)N4CCN(c5cc(Cl)ccc5C)CC4)cc3c2=O)CC1 (nonaromatic ring conformer: 94.2555772572457 kcal/mol)

>  <smiles>  (10) 
CCOC(=O)N1CCN(C(=O)c2c[nH]c3ccc(S(=O)(=O)N4CCN(c5cc(Cl)ccc5C)CC4)cc3c2=O)CC1

>  <score_type>  (10) 
oracle

>  <origin>  (10) 
adg

>  <m_score__min__energy>  (10) 
-10.5

>  <m_primary>  (10) 
energy

$$$$
10:0
     RDKit          3D

 53 55  0  0  0  0  0  0  0  0999 V2000
   62.2630   34.1830   50.1050 C   0  0  0  0  0  0  0  0  0  0  0  0
   60.7990   33.7620   50.1290 C   0  0  0  0  0  0  0  0  0  0  0  0
   60.6600   32.4520   50.6750 O   0  0  0  0  0  0  0  0  0  0  0  0
   59.6060   31.5890   50.3470 C   0  0  0  0  0  0  0  0  0  0  0  0
   58.4090   31.9760   50.4490 O   0  0  0  0  0  0  0  0  0  0  0  0
   59.9080   30.2110   49.9040 C   0  0  0  0  0  0  0  0  0  0  0  0
   60.5710   29.3640   50.8030 C   0  0  0  0  0  0  0  0  0  0  0  0
   60.8350   28.0390   50.4690 C   0  0  0  0  0  0  0  0  0  0  0  0
   60.4210   27.5340   49.2400 C   0  0  0  0  0  0  0  0  0  0  0  0
   59.7660   28.3520   48.3090 C   0  0  0  0  0  0  0  0  0  0  0  0
   59.2120   27.5720   46.8120 S   0  0  0  0  0  0  0  0  0  0  0  0
   60.1320   27.9550   45.6880 O   0  0  0  0  0  0  0  0  0  0  0  0
   59.2440   26.0770   46.9480 O   0  0  0  0  0  0  0  0  0  0  0  0
   57.6090   28.1240   46.4430 N   0  0  0  0  0  0  0  0  0  0  0  0
   57.0940   28.3180   45.1220 C   0  0  0  0  0  0  0  0  0  0  0  0
   57.7720   27.9200   44.1380 O   0  0  0  0  0  0  0  0  0  0  0  0
   55.8350   28.9670   44.9030 N   0  0  0  0  0  0  0  0  0  0  0  0
   55.5750   29.7530   43.6990 C   0  0  0  0  0  0  0  0  0  0  0  0
   56.5950   30.8560   43.5710 C   0  0  0  0  0  0  0  0  0  0  0  0
   57.0890   31.2170   42.3070 C   0  0  0  0  0  0  0  0  0  0  0  0
   58.0060   32.2650   42.1810 C   0  0  0  0  0  0  0  0  0  0  0  0
   58.4330   32.9600   43.3150 C   0  0  0  0  0  0  0  0  0  0  0  0
   57.9410   32.6110   44.5760 C   0  0  0  0  0  0  0  0  0  0  0  0
   57.0210   31.5670   44.7060 C   0  0  0  0  0  0  0  0  0  0  0  0
   59.5530   29.7260   48.6160 C   0  0  0  0  0  0  0  0  0  0  0  0
   58.8960   30.8670   47.3710 S   0  0  0  0  0  0  0  0  0  0  0  0
   60.4340   31.7710   47.1740 C   0  0  0  0  0  0  0  0  0  0  0  0
   61.6570   31.1380   47.4320 C   0  0  0  0  0  0  0  0  0  0  0  0
   62.8560   31.8450   47.3030 C   0  0  0  0  0  0  0  0  0  0  0  0
   62.8360   33.1890   46.9140 C   0  0  0  0  0  0  0  0  0  0  0  0
   61.6180   33.8270   46.6690 C   0  0  0  0  0  0  0  0  0  0  0  0
   60.4200   33.1190   46.7970 C   0  0  0  0  0  0  0  0  0  0  0  0
   62.6310   34.2888   51.1362 H   0  0  0  0  0  0  0  0  0  0  0  0
   62.8557   33.4189   49.5807 H   0  0  0  0  0  0  0  0  0  0  0  0
   62.3593   35.1452   49.5807 H   0  0  0  0  0  0  0  0  0  0  0  0
   60.2290   34.4725   50.7457 H   0  0  0  0  0  0  0  0  0  0  0  0
   60.4153   33.7580   49.0981 H   0  0  0  0  0  0  0  0  0  0  0  0
   60.8861   29.7509   51.7833 H   0  0  0  0  0  0  0  0  0  0  0  0
   61.3714   27.3903   51.1771 H   0  0  0  0  0  0  0  0  0  0  0  0
   60.6104   26.4783   48.9958 H   0  0  0  0  0  0  0  0  0  0  0  0
   55.0860   28.8980   45.6270 H   0  0  0  0  0  0  0  0  0  0  0  0
   55.6343   29.0983   42.8171 H   0  0  0  0  0  0  0  0  0  0  0  0
   54.5709   30.1969   43.7683 H   0  0  0  0  0  0  0  0  0  0  0  0
   56.7530   30.6729   41.4120 H   0  0  0  0  0  0  0  0  0  0  0  0
   58.3913   32.5422   41.1887 H   0  0  0  0  0  0  0  0  0  0  0  0
   59.1568   33.7823   43.2156 H   0  0  0  0  0  0  0  0  0  0  0  0
   58.2787   33.1592   45.4679 H   0  0  0  0  0  0  0  0  0  0  0  0
   56.6294   31.3012   45.6990 H   0  0  0  0  0  0  0  0  0  0  0  0
   61.6738   30.0813   47.7371 H   0  0  0  0  0  0  0  0  0  0  0  0
   63.8144   31.3452   47.5071 H   0  0  0  0  0  0  0  0  0  0  0  0
   63.7796   33.7430   46.8012 H   0  0  0  0  0  0  0  0  0  0  0  0
   61.6017   34.8869   46.3752 H   0  0  0  0  0  0  0  0  0  0  0  0
   59.4622   33.6230   46.6007 H   0  0  0  0  0  0  0  0  0  0  0  0
  1  2  1  0
  2  3  1  0
  3  4  1  0
  4  5  2  0
  4  6  1  0
  6  7  2  0
  7  8  1  0
  8  9  2  0
  9 10  1  0
 10 11  1  0
 11 12  2  0
 11 13  2  0
 11 14  1  0
 14 15  1  0
 15 16  2  0
 15 17  1  0
 17 18  1  0
 18 19  1  0
 19 20  2  0
 20 21  1  0
 21 22  2  0
 22 23  1  0
 23 24  2  0
 10 25  2  0
 25 26  1  0
 26 27  1  0
 27 28  2  0
 28 29  1  0
 29 30  2  0
 30 31  1  0
 31 32  2  0
 25  6  1  0
 32 27  1  0
 24 19  1  0
  1 33  1  0
  1 34  1  0
  1 35  1  0
  2 36  1  0
  2 37  1  0
  7 38  1  0
  8 39  1  0
  9 40  1  0
 17 41  1  0
 18 42  1  0
 18 43  1  0
 20 44  1  0
 21 45  1  0
 22 46  1  0
 23 47  1  0
 24 48  1  0
 28 49  1  0
 29 50  1  0
 30 51  1  0
 31 52  1  0
 32 53  1  0
M  CHG  1  14  -1
M  END
>  <UniqueID>  (11) 
10

>  <SMILES>  (11) 
CCOC(=O)c1cccc(S(=O)(=O)[N-]C(=O)NCc2ccccc2)c1Sc1ccccc1

>  <Energy>  (11) 
53.50853626947114

>  <Genealogy>  (11) 
CCOC(=O)c1cccc(S(=O)(=O)[N-]C(=O)NCc2ccccc2)c1Sc1ccccc1 (protonated)
CCOC(=O)c1cccc(S(=O)(=O)[N-]C(=O)NCc2ccccc2)c1Sc1ccccc1 (3D coordinates assigned)
CCOC(=O)c1cccc(S(=O)(=O)[N-]C(=O)NCc2ccccc2)c1Sc1ccccc1 (optimized conformer: 53.50853626947114 kcal/mol)

>  <smiles>  (11) 
CCOC(=O)c1cccc(S(=O)(=O)NC(=O)NCc2ccccc2)c1Sc1ccccc1

>  <score_type>  (11) 
oracle

>  <origin>  (11) 
adg

>  <m_score__min__energy>  (11) 
-10.1

>  <m_primary>  (11) 
energy

$$$$
11:0
     RDKit          3D

 69 73  0  0  0  0  0  0  0  0999 V2000
   57.6062   27.9849   43.1370 H   0  0  0  0  0  0  0  0  0  0  0  0
   58.1100   27.9430   44.1140 C   0  0  0  0  0  0  0  0  0  0  0  0
   57.8650   26.8770   44.9800 C   0  0  0  0  0  0  0  0  0  0  0  0
   57.1720   26.0763   44.6823 H   0  0  0  0  0  0  0  0  0  0  0  0
   58.4990   26.8240   46.2270 C   0  0  0  0  0  0  0  0  0  0  0  0
   58.2774   25.9989   46.9199 H   0  0  0  0  0  0  0  0  0  0  0  0
   59.4210   27.8250   46.5980 C   0  0  0  0  0  0  0  0  0  0  0  0
   60.0840   27.8490   47.8770 N   0  0  0  0  0  0  0  0  0  0  0  0
   59.9290   28.6860   48.8640 C   0  0  0  0  0  0  0  0  0  0  0  0
   60.0110   28.2830   50.1580 N   0  0  0  0  0  0  0  0  0  0  0  0
   59.8400   29.1750   51.1730 C   0  0  0  0  0  0  0  0  0  0  0  0
   59.8520   28.7870   52.4140 N   0  0  0  0  0  0  0  0  0  0  0  0
   58.7850   28.1050   53.0900 C   0  0  0  0  0  0  0  0  0  0  0  0
   58.9940   26.8640   53.7180 C   0  0  0  0  0  0  0  0  0  0  0  0
   59.9726   26.3677   53.6407 H   0  0  0  0  0  0  0  0  0  0  0  0
   57.9610   26.2600   54.4400 C   0  0  0  0  0  0  0  0  0  0  0  0
   58.1276   25.2872   54.9256 H   0  0  0  0  0  0  0  0  0  0  0  0
   56.7170   26.8880   54.5470 C   0  0  0  0  0  0  0  0  0  0  0  0
   55.9077   26.4098   55.1183 H   0  0  0  0  0  0  0  0  0  0  0  0
   56.4990   28.1270   53.9270 C   0  0  0  0  0  0  0  0  0  0  0  0
   55.1630   28.7490   53.9560 C   0  0  0  0  0  0  0  0  0  0  0  0
   54.8340   29.3490   55.0170 O   0  0  0  0  0  0  0  0  0  0  0  0
   54.2290   28.7320   52.8360 N   0  0  2  0  0  0  0  0  0  0  0  0
   54.4120   27.8250   52.3420 H   0  0  0  0  0  0  0  0  0  0  0  0
   54.5380   29.8080   51.8640 C   0  0  0  0  0  0  0  0  0  0  0  0
   54.0109   29.5946   50.9224 H   0  0  0  0  0  0  0  0  0  0  0  0
   55.6287   29.8267   51.7223 H   0  0  0  0  0  0  0  0  0  0  0  0
   54.1090   31.1960   52.3650 C   0  0  0  0  0  0  0  0  0  0  0  0
   54.2767   31.9268   51.5601 H   0  0  0  0  0  0  0  0  0  0  0  0
   54.7097   31.4244   53.2577 H   0  0  0  0  0  0  0  0  0  0  0  0
   52.6270   31.2530   52.7790 C   0  0  1  0  0  0  0  0  0  0  0  0
   52.5065   32.1839   53.3525 H   0  0  0  0  0  0  0  0  0  0  0  0
   51.6790   31.3560   51.5950 C   0  0  0  0  0  0  0  0  0  0  0  0
   51.7510   30.5240   50.6540 O   0  0  0  0  0  0  0  0  0  0  0  0
   50.6460   32.3480   51.5370 N   0  0  0  0  0  0  0  0  0  0  0  0
   50.0920   33.0470   52.6880 C   0  0  0  0  0  0  0  0  0  0  0  0
   50.4617   32.5806   53.6131 H   0  0  0  0  0  0  0  0  0  0  0  0
   50.4018   34.1021   52.6602 H   0  0  0  0  0  0  0  0  0  0  0  0
   48.9940   32.9864   52.6602 H   0  0  0  0  0  0  0  0  0  0  0  0
   52.2520   30.0740   53.6940 C   0  0  0  0  0  0  0  0  0  0  0  0
   51.1555   30.0166   53.7598 H   0  0  0  0  0  0  0  0  0  0  0  0
   52.7136   30.2597   54.6750 H   0  0  0  0  0  0  0  0  0  0  0  0
   52.7850   28.7200   53.1830 C   0  0  0  0  0  0  0  0  0  0  0  0
   52.2155   28.4409   52.2843 H   0  0  0  0  0  0  0  0  0  0  0  0
   52.6607   27.9984   54.0039 H   0  0  0  0  0  0  0  0  0  0  0  0
   57.5320   28.7240   53.1880 C   0  0  0  0  0  0  0  0  0  0  0  0
   57.3566   29.6849   52.6821 H   0  0  0  0  0  0  0  0  0  0  0  0
   59.6030   30.4790   50.8880 N   0  0  0  0  0  0  0  0  0  0  0  0
   59.5520   30.8980   49.5970 C   0  0  0  0  0  0  0  0  0  0  0  0
   59.3550   32.1570   49.3410 N   0  0  0  0  0  0  0  0  0  0  0  0
   58.1280   32.6880   48.7570 C   0  0  0  0  0  0  0  0  0  0  0  0
   57.4159   31.8663   48.5905 H   0  0  0  0  0  0  0  0  0  0  0  0
   57.6847   33.4246   49.4432 H   0  0  0  0  0  0  0  0  0  0  0  0
   58.4420   33.3510   47.4470 C   0  0  0  0  0  0  0  0  0  0  0  0
   57.8610   32.8770   46.2580 C   0  0  0  0  0  0  0  0  0  0  0  0
   57.1702   32.0215   46.2886 H   0  0  0  0  0  0  0  0  0  0  0  0
   58.1580   33.4890   45.0370 C   0  0  0  0  0  0  0  0  0  0  0  0
   57.6949   33.1188   44.1105 H   0  0  0  0  0  0  0  0  0  0  0  0
   59.0420   34.5700   44.9910 C   0  0  0  0  0  0  0  0  0  0  0  0
   59.2704   35.0534   44.0297 H   0  0  0  0  0  0  0  0  0  0  0  0
   59.6360   35.0370   46.1670 C   0  0  0  0  0  0  0  0  0  0  0  0
   60.3333   35.8870   46.1300 H   0  0  0  0  0  0  0  0  0  0  0  0
   59.3450   34.4250   47.3910 C   0  0  0  0  0  0  0  0  0  0  0  0
   59.8251   34.7863   48.3124 H   0  0  0  0  0  0  0  0  0  0  0  0
   59.7120   29.9960   48.5890 N   0  0  0  0  0  0  0  0  0  0  0  0
   59.6420   28.8990   45.7240 C   0  0  0  0  0  0  0  0  0  0  0  0
   60.3322   29.7046   46.0148 H   0  0  0  0  0  0  0  0  0  0  0  0
   58.9940   28.9560   44.4870 C   0  0  0  0  0  0  0  0  0  0  0  0
   59.1811   29.8001   43.8070 H   0  0  0  0  0  0  0  0  0  0  0  0
  1  2  1  0
  2  3  2  0
  3  4  1  0
  3  5  1  0
  5  6  1  0
  5  7  2  0
  7  8  1  0
  8  9  2  3
  9 10  1  0
 10 11  1  0
 11 12  2  3
 12 13  1  0
 13 14  2  0
 14 15  1  0
 14 16  1  0
 16 17  1  0
 16 18  2  0
 18 19  1  0
 18 20  1  0
 20 21  1  0
 21 22  2  0
 21 23  1  0
 23 24  1  1
 23 25  1  0
 25 26  1  0
 25 27  1  0
 25 28  1  0
 28 29  1  0
 28 30  1  0
 28 31  1  0
 31 32  1  6
 31 33  1  0
 33 34  2  0
 33 35  1  0
 35 36  1  0
 36 37  1  0
 36 38  1  0
 36 39  1  0
 31 40  1  0
 40 41  1  0
 40 42  1  0
 40 43  1  0
 43 44  1  0
 43 45  1  0
 20 46  2  0
 46 47  1  0
 11 48  1  0
 48 49  1  0
 49 50  2  0
 50 51  1  0
 51 52  1  0
 51 53  1  0
 51 54  1  0
 54 55  2  0
 55 56  1  0
 55 57  1  0
 57 58  1  0
 57 59  2  0
 59 60  1  0
 59 61  1  0
 61 62  1  0
 61 63  2  0
 63 64  1  0
 49 65  1  0
  7 66  1  0
 66 67  1  0
 66 68  2  0
 68 69  1  0
 68  2  1  0
 65  9  1  0
 46 13  1  0
 63 54  1  0
 43 23  1  0
M  CHG  5  10  -1  23   1  35  -1  48  -1  65  -1
M  END
>  <UniqueID>  (12) 
11

>  <SMILES>  (12) 
C[N-]C(=O)C1CC[NH+](C(=O)c2cccc(N=c3[n-]c(=Nc4ccccc4)[n-]/c(=N\Cc4ccccc4)[n-]3)c2)CC1

>  <Energy>  (12) 
99.67372654027619

>  <Genealogy>  (12) 
C[N-]C(=O)C1CC[NH+](C(=O)c2cccc(N=c3[n-]c(=NCc4ccccc4)[n-]c(=Nc4ccccc4)[n-]3)c2)CC1 (protonated)
C[N-]C(=O)C1CC[NH+](C(=O)c2cccc(N=c3[n-]c(=Nc4ccccc4)[n-]/c(=N\Cc4ccccc4)[n-]3)c2)CC1 (cis-trans isomerization)
C[N-]C(=O)C1CC[NH+](C(=O)c2cccc(N=c3[n-]c(=Nc4ccccc4)[n-]/c(=N\Cc4ccccc4)[n-]3)c2)CC1 (3D coordinates assigned)
C[N-]C(=O)C1CC[NH+](C(=O)c2cccc(N=c3[n-]c(=Nc4ccccc4)[n-]/c(=N\Cc4ccccc4)[n-]3)c2)CC1 (nonaromatic ring conformer: 99.67372654027619 kcal/mol)

>  <smiles>  (12) 
CNC(=O)C1CCN(C(=O)c2cccc(N=c3[nH]c(=NCc4ccccc4)[nH]c(=Nc4ccccc4)[nH]3)c2)CC1

>  <score_type>  (12) 
oracle

>  <origin>  (12) 
adg

>  <m_score__min__energy>  (12) 
-14.49

>  <m_primary>  (12) 
energy

$$$$
12:0
     RDKit          3D

 55 58  0  0  0  0  0  0  0  0999 V2000
   57.4530   28.9080   50.9350 H   0  0  0  0  0  0  0  0  0  0  0  0
   57.4130   29.6940   51.5400 O   0  0  0  0  0  0  0  0  0  0  0  0
   58.2180   30.6240   50.9700 N   0  0  0  0  0  0  0  0  0  0  0  0
   58.3150   31.9180   51.5790 C   0  0  0  0  0  0  0  0  0  0  0  0
   59.3060   32.3338   51.8135 H   0  0  0  0  0  0  0  0  0  0  0  0
   57.2800   32.5870   51.8500 O   0  0  0  0  0  0  0  0  0  0  0  0
   58.8890   30.3160   49.7370 C   0  0  0  0  0  0  0  0  0  0  0  0
   59.2140   29.0940   49.4150 N   0  0  0  0  0  0  0  0  0  0  0  0
   59.2910   28.5160   48.1030 C   0  0  0  0  0  0  0  0  0  0  0  0
   60.4490   27.8620   47.6410 C   0  0  0  0  0  0  0  0  0  0  0  0
   61.3572   27.8511   48.2616 H   0  0  0  0  0  0  0  0  0  0  0  0
   60.4480   27.2270   46.3970 C   0  0  0  0  0  0  0  0  0  0  0  0
   61.3636   26.7409   46.0291 H   0  0  0  0  0  0  0  0  0  0  0  0
   59.2880   27.2070   45.6180 C   0  0  0  0  0  0  0  0  0  0  0  0
   59.2902   26.6974   44.6432 H   0  0  0  0  0  0  0  0  0  0  0  0
   58.1200   27.8360   46.0770 C   0  0  0  0  0  0  0  0  0  0  0  0
   56.8360   27.7080   45.3030 C   0  0  0  0  0  0  0  0  0  0  0  0
   57.0468   27.2792   44.3122 H   0  0  0  0  0  0  0  0  0  0  0  0
   56.1440   27.0499   45.8489 H   0  0  0  0  0  0  0  0  0  0  0  0
   56.2280   29.0260   45.1430 N   0  0  0  0  0  0  0  0  0  0  0  0
   55.3520   29.2340   45.6740 H   0  0  0  0  0  0  0  0  0  0  0  0
   56.9310   30.1170   44.5360 C   0  0  0  0  0  0  0  0  0  0  0  0
   57.8910   29.8930   43.7500 O   0  0  0  0  0  0  0  0  0  0  0  0
   56.5120   31.4610   44.8040 N   0  0  0  0  0  0  0  0  0  0  0  0
   57.3720   32.5500   45.1690 C   0  0  0  0  0  0  0  0  0  0  0  0
   58.2030   33.1090   44.1890 C   0  0  0  0  0  0  0  0  0  0  0  0
   58.2023   32.6955   43.1697 H   0  0  0  0  0  0  0  0  0  0  0  0
   59.0330   34.1900   44.5010 C   0  0  0  0  0  0  0  0  0  0  0  0
   59.6912   34.6165   43.7297 H   0  0  0  0  0  0  0  0  0  0  0  0
   59.0290   34.7300   45.7890 C   0  0  0  0  0  0  0  0  0  0  0  0
   59.6862   35.5778   46.0327 H   0  0  0  0  0  0  0  0  0  0  0  0
   58.1890   34.1920   46.7680 C   0  0  0  0  0  0  0  0  0  0  0  0
   58.1841   34.6181   47.7821 H   0  0  0  0  0  0  0  0  0  0  0  0
   57.3550   33.1130   46.4600 C   0  0  0  0  0  0  0  0  0  0  0  0
   56.6834   32.7024   47.2284 H   0  0  0  0  0  0  0  0  0  0  0  0
   58.1300   28.4820   47.3220 C   0  0  0  0  0  0  0  0  0  0  0  0
   57.2140   28.9679   47.6891 H   0  0  0  0  0  0  0  0  0  0  0  0
   59.3440   31.4360   48.8440 C   0  0  0  0  0  0  0  0  0  0  0  0
   59.1328   31.1716   47.7974 H   0  0  0  0  0  0  0  0  0  0  0  0
   58.8033   32.3523   49.1234 H   0  0  0  0  0  0  0  0  0  0  0  0
   60.8160   31.6780   49.0030 C   0  0  0  0  0  0  0  0  0  0  0  0
   61.6580   31.0720   49.9340 C   0  0  0  0  0  0  0  0  0  0  0  0
   61.3256   30.3899   50.7304 H   0  0  0  0  0  0  0  0  0  0  0  0
   62.9410   31.4410   49.7200 N   0  0  0  0  0  0  0  0  0  0  0  0
   63.7780   31.1350   50.2620 H   0  0  0  0  0  0  0  0  0  0  0  0
   62.9190   32.2610   48.6540 C   0  0  0  0  0  0  0  0  0  0  0  0
   64.0100   32.8730   48.0370 C   0  0  0  0  0  0  0  0  0  0  0  0
   65.0315   32.7333   48.4204 H   0  0  0  0  0  0  0  0  0  0  0  0
   63.7610   33.6750   46.9080 C   0  0  0  0  0  0  0  0  0  0  0  0
   64.5972   34.1779   46.4002 H   0  0  0  0  0  0  0  0  0  0  0  0
   62.4450   33.8390   46.4220 C   0  0  0  0  0  0  0  0  0  0  0  0
   62.2637   34.4663   45.5368 H   0  0  0  0  0  0  0  0  0  0  0  0
   61.3640   33.2050   47.0630 C   0  0  0  0  0  0  0  0  0  0  0  0
   60.3353   33.3223   46.6915 H   0  0  0  0  0  0  0  0  0  0  0  0
   61.6400   32.4230   48.1850 C   0  0  0  0  0  0  0  0  0  0  0  0
  1  2  1  0
  2  3  1  0
  3  4  1  0
  4  5  1  0
  4  6  2  0
  3  7  1  0
  7  8  2  0
  8  9  1  0
  9 10  2  0
 10 11  1  0
 10 12  1  0
 12 13  1  0
 12 14  2  0
 14 15  1  0
 14 16  1  0
 16 17  1  0
 17 18  1  0
 17 19  1  0
 17 20  1  0
 20 21  1  0
 20 22  1  0
 22 23  2  0
 22 24  1  0
 24 25  1  0
 25 26  2  0
 26 27  1  0
 26 28  1  0
 28 29  1  0
 28 30  2  0
 30 31  1  0
 30 32  1  0
 32 33  1  0
 32 34  2  0
 34 35  1  0
 16 36  2  0
 36 37  1  0
  7 38  1  0
 38 39  1  0
 38 40  1  0
 38 41  1  0
 41 42  2  0
 42 43  1  0
 42 44  1  0
 44 45  1  0
 44 46  1  0
 46 47  2  0
 47 48  1  0
 47 49  1  0
 49 50  1  0
 49 51  2  0
 51 52  1  0
 51 53  1  0
 53 54  1  0
 53 55  2  0
 36  9  1  0
 55 41  1  0
 34 25  1  0
 55 46  1  0
M  CHG  1  24  -1
M  END
>  <UniqueID>  (13) 
12

>  <SMILES>  (13) 
O=CN(O)/C(Cc1c[nH]c2ccccc12)=N\c1cccc(CNC(=O)[N-]c2ccccc2)c1

>  <Energy>  (13) 
100.04394411400703

>  <Genealogy>  (13) 
O=CN(O)C(Cc1c[nH]c2ccccc12)=Nc1cccc(CNC(=O)[N-]c2ccccc2)c1 (protonated)
O=CN(O)/C(Cc1c[nH]c2ccccc12)=N\c1cccc(CNC(=O)[N-]c2ccccc2)c1 (cis-trans isomerization)
O=CN(O)/C(Cc1c[nH]c2ccccc12)=N\c1cccc(CNC(=O)[N-]c2ccccc2)c1 (3D coordinates assigned)
O=CN(O)/C(Cc1c[nH]c2ccccc12)=N\c1cccc(CNC(=O)[N-]c2ccccc2)c1 (optimized conformer: 100.04394411400703 kcal/mol)

>  <smiles>  (13) 
O=CN(O)C(Cc1c[nH]c2ccccc12)=Nc1cccc(CNC(=O)Nc2ccccc2)c1

>  <score_type>  (13) 
oracle

>  <origin>  (13) 
adg

>  <m_score__min__energy>  (13) 
-10.83

>  <m_primary>  (13) 
energy

$$$$
13:0
     RDKit          3D

 61 65  0  0  0  0  0  0  0  0999 V2000
   62.6360   31.8560   55.0810 C   0  0  0  0  0  0  0  0  0  0  0  0
   62.3140   31.6810   53.6590 N   0  0  0  0  0  0  0  0  0  0  0  0
   63.0900   30.6220   52.9710 C   0  0  0  0  0  0  0  0  0  0  0  0
   62.3770   29.9750   51.8080 C   0  0  0  0  0  0  0  0  0  0  0  0
   62.5350   28.7470   51.5870 O   0  0  0  0  0  0  0  0  0  0  0  0
   61.5020   30.7580   50.9770 N   0  0  0  0  0  0  0  0  0  0  0  0
   60.8490   30.2690   49.7920 C   0  0  0  0  0  0  0  0  0  0  0  0
   59.5320   29.7930   49.8830 C   0  0  0  0  0  0  0  0  0  0  0  0
   58.8590   29.3430   48.7430 C   0  0  0  0  0  0  0  0  0  0  0  0
   59.4900   29.3660   47.4940 C   0  0  0  0  0  0  0  0  0  0  0  0
   58.6400   28.7920   46.0630 S   0  0  0  0  0  0  0  0  0  0  0  0
   57.3750   28.0900   46.4690 O   0  0  0  0  0  0  0  0  0  0  0  0
   59.4950   27.8070   45.3160 O   0  0  0  0  0  0  0  0  0  0  0  0
   58.2360   30.1370   45.0450 N   0  0  0  0  0  0  0  0  0  0  0  0
   57.7360   29.9910   43.6800 C   0  0  0  0  0  0  0  0  0  0  0  0
   57.3380   31.4130   43.2160 C   0  0  0  0  0  0  0  0  0  0  0  0
   57.5980   32.2530   44.4190 C   0  0  0  0  0  0  0  0  0  0  0  0
   57.3910   33.6250   44.5690 C   0  0  0  0  0  0  0  0  0  0  0  0
   57.7180   34.2210   45.7980 C   0  0  0  0  0  0  0  0  0  0  0  0
   58.2470   33.4430   46.8450 C   0  0  0  0  0  0  0  0  0  0  0  0
   58.4470   32.0640   46.6700 C   0  0  0  0  0  0  0  0  0  0  0  0
   58.1080   31.4930   45.4380 C   0  0  0  0  0  0  0  0  0  0  0  0
   60.8020   29.8490   47.3950 C   0  0  0  0  0  0  0  0  0  0  0  0
   61.4730   30.3120   48.5310 C   0  0  0  0  0  0  0  0  0  0  0  0
   62.3060   33.2040   52.7960 S   0  0  0  0  0  0  0  0  0  0  0  0
   62.8200   34.2910   53.6990 O   0  0  0  0  0  0  0  0  0  0  0  0
   60.8880   33.5490   52.4380 O   0  0  0  0  0  0  0  0  0  0  0  0
   63.2820   33.1700   51.3190 C   0  0  0  0  0  0  0  0  0  0  0  0
   64.6690   32.9610   51.4180 C   0  0  0  0  0  0  0  0  0  0  0  0
   65.4700   32.9440   50.2740 C   0  0  0  0  0  0  0  0  0  0  0  0
   66.8110   32.7700   50.3900 F   0  0  0  0  0  0  0  0  0  0  0  0
   64.8980   33.1150   49.0120 C   0  0  0  0  0  0  0  0  0  0  0  0
   63.5140   33.2970   48.8880 C   0  0  0  0  0  0  0  0  0  0  0  0
   62.9170   33.4530   47.6300 C   0  0  0  0  0  0  0  0  0  0  0  0
   61.5350   33.6200   47.5310 C   0  0  0  0  0  0  0  0  0  0  0  0
   60.7620   33.6340   48.6930 C   0  0  0  0  0  0  0  0  0  0  0  0
   61.3530   33.4860   49.9080 N   0  0  0  0  0  0  0  0  0  0  0  0
   62.6980   33.3220   50.0440 C   0  0  0  0  0  0  0  0  0  0  0  0
   61.8340   31.4201   55.6949 H   0  0  0  0  0  0  0  0  0  0  0  0
   63.5865   31.3503   55.3067 H   0  0  0  0  0  0  0  0  0  0  0  0
   62.7287   32.9286   55.3067 H   0  0  0  0  0  0  0  0  0  0  0  0
   64.0226   31.0688   52.5960 H   0  0  0  0  0  0  0  0  0  0  0  0
   63.2597   29.8280   53.7132 H   0  0  0  0  0  0  0  0  0  0  0  0
   61.2440   31.7130   51.3130 H   0  0  0  0  0  0  0  0  0  0  0  0
   59.0251   29.7738   50.8590 H   0  0  0  0  0  0  0  0  0  0  0  0
   57.8281   28.9689   48.8283 H   0  0  0  0  0  0  0  0  0  0  0  0
   58.5212   29.5819   43.0272 H   0  0  0  0  0  0  0  0  0  0  0  0
   56.8817   29.2994   43.6361 H   0  0  0  0  0  0  0  0  0  0  0  0
   57.9576   31.7381   42.3673 H   0  0  0  0  0  0  0  0  0  0  0  0
   56.2973   31.4751   42.8650 H   0  0  0  0  0  0  0  0  0  0  0  0
   56.9812   34.2258   43.7437 H   0  0  0  0  0  0  0  0  0  0  0  0
   57.5601   35.2999   45.9429 H   0  0  0  0  0  0  0  0  0  0  0  0
   58.5047   33.9168   47.8037 H   0  0  0  0  0  0  0  0  0  0  0  0
   58.8602   31.4474   47.4818 H   0  0  0  0  0  0  0  0  0  0  0  0
   61.3068   29.8639   46.4178 H   0  0  0  0  0  0  0  0  0  0  0  0
   62.4936   30.7118   48.4388 H   0  0  0  0  0  0  0  0  0  0  0  0
   65.1277   32.8094   52.4062 H   0  0  0  0  0  0  0  0  0  0  0  0
   65.5340   33.1069   48.1145 H   0  0  0  0  0  0  0  0  0  0  0  0
   63.5370   33.4438   46.7214 H   0  0  0  0  0  0  0  0  0  0  0  0
   61.0594   33.7395   46.5464 H   0  0  0  0  0  0  0  0  0  0  0  0
   59.6719   33.7651   48.6254 H   0  0  0  0  0  0  0  0  0  0  0  0
  1  2  1  0
  2  3  1  0
  3  4  1  0
  4  5  2  0
  4  6  1  0
  6  7  1  0
  7  8  2  0
  8  9  1  0
  9 10  2  0
 10 11  1  0
 11 12  2  0
 11 13  2  0
 11 14  1  0
 14 15  1  0
 15 16  1  0
 16 17  1  0
 17 18  2  0
 18 19  1  0
 19 20  2  0
 20 21  1  0
 21 22  2  0
 10 23  1  0
 23 24  2  0
  2 25  1  0
 25 26  2  0
 25 27  2  0
 25 28  1  0
 28 29  2  0
 29 30  1  0
 30 31  1  0
 30 32  2  0
 32 33  1  0
 33 34  2  0
 34 35  1  0
 35 36  2  0
 36 37  1  0
 37 38  2  0
 24  7  1  0
 38 28  1  0
 22 14  1  0
 38 33  1  0
 22 17  1  0
  1 39  1  0
  1 40  1  0
  1 41  1  0
  3 42  1  0
  3 43  1  0
  6 44  1  0
  8 45  1  0
  9 46  1  0
 15 47  1  0
 15 48  1  0
 16 49  1  0
 16 50  1  0
 18 51  1  0
 19 52  1  0
 20 53  1  0
 21 54  1  0
 23 55  1  0
 24 56  1  0
 29 57  1  0
 32 58  1  0
 34 59  1  0
 35 60  1  0
 36 61  1  0
M  END
>  <UniqueID>  (14) 
13

>  <SMILES>  (14) 
CN(CC(=O)Nc1ccc(S(=O)(=O)N2CCc3ccccc32)cc1)S(=O)(=O)c1cc(F)cc2cccnc12

>  <Energy>  (14) 
94.10781090409156

>  <Genealogy>  (14) 
CN(CC(=O)Nc1ccc(S(=O)(=O)N2CCc3ccccc32)cc1)S(=O)(=O)c1cc(F)cc2cccnc12 (3D coordinates assigned)
CN(CC(=O)Nc1ccc(S(=O)(=O)N2CCc3ccccc32)cc1)S(=O)(=O)c1cc(F)cc2cccnc12 (nonaromatic ring conformer: 94.10781090409156 kcal/mol)

>  <smiles>  (14) 
CN(CC(=O)Nc1ccc(S(=O)(=O)N2CCc3ccccc32)cc1)S(=O)(=O)c1cc(F)cc2cccnc12

>  <score_type>  (14) 
oracle

>  <origin>  (14) 
adg

>  <m_score__min__energy>  (14) 
-10.32

>  <m_primary>  (14) 
energy

$$$$
14:0
     RDKit          3D

 50 53  0  0  0  0  0  0  0  0999 V2000
   55.6220   23.3850   46.9680 N   0  0  0  0  0  0  0  0  0  0  0  0
   56.3400   24.4600   46.9680 C   0  0  0  0  0  0  0  0  0  0  0  0
   55.8830   25.5910   46.3680 N   0  0  0  0  0  0  0  0  0  0  0  0
   56.6240   26.7290   46.3600 C   0  0  0  0  0  0  0  0  0  0  0  0
   57.8820   26.7540   46.9790 C   0  0  0  0  0  0  0  0  0  0  0  0
   58.7170   27.9800   46.9790 C   0  0  0  0  0  0  0  0  0  0  0  0
   58.5020   28.9740   47.9500 C   0  0  0  0  0  0  0  0  0  0  0  0
   59.2820   30.1330   47.9640 C   0  0  0  0  0  0  0  0  0  0  0  0
   60.2820   30.3240   47.0010 C   0  0  0  0  0  0  0  0  0  0  0  0
   61.1090   31.5470   47.0150 C   0  0  0  0  0  0  0  0  0  0  0  0
   62.4270   31.4550   47.4950 C   0  0  0  0  0  0  0  0  0  0  0  0
   63.2360   32.5900   47.5670 C   0  0  0  0  0  0  0  0  0  0  0  0
   62.7400   33.8280   47.1620 C   0  0  0  0  0  0  0  0  0  0  0  0
   61.4370   33.9340   46.6680 C   0  0  0  0  0  0  0  0  0  0  0  0
   60.6150   32.7990   46.5720 C   0  0  0  0  0  0  0  0  0  0  0  0
   58.9970   32.9900   45.8720 S   0  0  0  0  0  0  0  0  0  0  0  0
   58.8250   34.4190   45.4380 O   0  0  0  0  0  0  0  0  0  0  0  0
   57.9430   32.6480   46.8900 O   0  0  0  0  0  0  0  0  0  0  0  0
   58.8150   31.9300   44.4930 N   0  0  0  0  0  0  0  0  0  0  0  0
   58.1540   30.6580   44.8800 C   0  0  0  0  0  0  0  0  0  0  0  0
   56.6660   30.6070   44.4960 C   0  0  0  0  0  0  0  0  0  0  0  0
   56.4650   30.8220   42.9780 C   0  0  0  0  0  0  0  0  0  0  0  0
   56.3580   29.5940   42.3020 O   0  0  0  0  0  0  0  0  0  0  0  0
   57.5770   31.6900   42.3480 C   0  0  0  0  0  0  0  0  0  0  0  0
   58.1560   32.6570   43.3850 C   0  0  0  0  0  0  0  0  0  0  0  0
   60.5090   29.3310   46.0360 C   0  0  0  0  0  0  0  0  0  0  0  0
   59.7300   28.1700   46.0190 C   0  0  0  0  0  0  0  0  0  0  0  0
   59.9430   27.2540   45.0400 F   0  0  0  0  0  0  0  0  0  0  0  0
   58.3340   25.5720   47.5840 C   0  0  0  0  0  0  0  0  0  0  0  0
   57.5570   24.4570   47.5700 N   0  0  0  0  0  0  0  0  0  0  0  0
   55.8610   22.5670   47.5730 H   0  0  0  0  0  0  0  0  0  0  0  0
   56.2367   27.6329   45.8670 H   0  0  0  0  0  0  0  0  0  0  0  0
   57.7133   28.8380   48.7047 H   0  0  0  0  0  0  0  0  0  0  0  0
   59.1104   30.8991   48.7345 H   0  0  0  0  0  0  0  0  0  0  0  0
   62.8239   30.4807   47.8164 H   0  0  0  0  0  0  0  0  0  0  0  0
   64.2662   32.5074   47.9438 H   0  0  0  0  0  0  0  0  0  0  0  0
   63.3753   34.7233   47.2313 H   0  0  0  0  0  0  0  0  0  0  0  0
   61.0518   34.9146   46.3517 H   0  0  0  0  0  0  0  0  0  0  0  0
   58.6730   29.8277   44.3787 H   0  0  0  0  0  0  0  0  0  0  0  0
   58.2115   30.5801   45.9757 H   0  0  0  0  0  0  0  0  0  0  0  0
   56.2583   29.6241   44.7749 H   0  0  0  0  0  0  0  0  0  0  0  0
   56.1436   31.4137   45.0311 H   0  0  0  0  0  0  0  0  0  0  0  0
   55.5196   31.3728   42.8643 H   0  0  0  0  0  0  0  0  0  0  0  0
   55.3920   29.4050   42.1740 H   0  0  0  0  0  0  0  0  0  0  0  0
   58.3792   31.0360   41.9755 H   0  0  0  0  0  0  0  0  0  0  0  0
   57.1469   32.2726   41.5199 H   0  0  0  0  0  0  0  0  0  0  0  0
   58.8950   33.3075   42.8943 H   0  0  0  0  0  0  0  0  0  0  0  0
   57.3300   33.2507   43.8036 H   0  0  0  0  0  0  0  0  0  0  0  0
   61.3045   29.4667   45.2885 H   0  0  0  0  0  0  0  0  0  0  0  0
   59.3200   25.5474   48.0711 H   0  0  0  0  0  0  0  0  0  0  0  0
  1  2  2  3
  2  3  1  0
  3  4  2  0
  4  5  1  0
  5  6  1  0
  6  7  2  0
  7  8  1  0
  8  9  2  0
  9 10  1  0
 10 11  2  0
 11 12  1  0
 12 13  2  0
 13 14  1  0
 14 15  2  0
 15 16  1  0
 16 17  2  0
 16 18  2  0
 16 19  1  0
 19 20  1  0
 20 21  1  0
 21 22  1  0
 22 23  1  0
 22 24  1  0
 24 25  1  0
  9 26  1  0
 26 27  2  0
 27 28  1  0
  5 29  2  0
 29 30  1  0
 30  2  1  0
 27  6  1  0
 15 10  1  0
 25 19  1  0
  1 31  1  0
  4 32  1  0
  7 33  1  0
  8 34  1  0
 11 35  1  0
 12 36  1  0
 13 37  1  0
 14 38  1  0
 20 39  1  0
 20 40  1  0
 21 41  1  0
 21 42  1  0
 22 43  1  0
 23 44  1  0
 24 45  1  0
 24 46  1  0
 25 47  1  0
 25 48  1  0
 26 49  1  0
 29 50  1  0
M  CHG  1  30  -1
M  END
>  <UniqueID>  (15) 
14

>  <SMILES>  (15) 
N=c1ncc(-c2ccc(-c3ccccc3S(=O)(=O)N3CCC(O)CC3)cc2F)c[n-]1

>  <Energy>  (15) 
75.59875586787493

>  <Genealogy>  (15) 
N=c1ncc(-c2ccc(-c3ccccc3S(=O)(=O)N3CCC(O)CC3)cc2F)c[n-]1 (protonated)
N=c1ncc(-c2ccc(-c3ccccc3S(=O)(=O)N3CCC(O)CC3)cc2F)c[n-]1 (3D coordinates assigned)
N=c1ncc(-c2ccc(-c3ccccc3S(=O)(=O)N3CCC(O)CC3)cc2F)c[n-]1 (nonaromatic ring conformer: 75.59875586787493 kcal/mol)

>  <smiles>  (15) 
N=c1ncc(-c2ccc(-c3ccccc3S(=O)(=O)N3CCC(O)CC3)cc2F)c[nH]1

>  <score_type>  (15) 
oracle

>  <origin>  (15) 
adg

>  <m_score__min__energy>  (15) 
-10.49

>  <m_primary>  (15) 
energy

$$$$
15:0
     RDKit          3D

 52 56  0  0  0  0  0  0  0  0999 V2000
   60.8884   33.8775   49.1803 H   0  0  0  0  0  0  0  0  0  0  0  0
   60.1480   33.8580   48.3670 C   0  0  0  0  0  0  0  0  0  0  0  0
   60.3880   34.5650   47.1860 C   0  0  0  0  0  0  0  0  0  0  0  0
   61.3211   35.1353   47.0676 H   0  0  0  0  0  0  0  0  0  0  0  0
   59.4440   34.5490   46.1540 C   0  0  0  0  0  0  0  0  0  0  0  0
   59.6410   35.1021   45.2238 H   0  0  0  0  0  0  0  0  0  0  0  0
   58.2450   33.8300   46.2990 C   0  0  0  0  0  0  0  0  0  0  0  0
   57.2530   33.8070   45.1970 C   0  0  0  0  0  0  0  0  0  0  0  0
   56.6170   34.8590   44.9200 O   0  0  0  0  0  0  0  0  0  0  0  0
   57.0290   32.6390   44.3900 N   0  0  0  0  0  0  0  0  0  0  0  0
   57.3430   31.4180   44.7100 C   0  0  0  0  0  0  0  0  0  0  0  0
   56.3810   30.4380   44.7940 N   0  0  0  0  0  0  0  0  0  0  0  0
   56.6780   29.1450   45.1190 C   0  0  0  0  0  0  0  0  0  0  0  0
   55.8907   28.3790   45.1774 H   0  0  0  0  0  0  0  0  0  0  0  0
   58.0100   28.8280   45.3740 C   0  0  0  0  0  0  0  0  0  0  0  0
   58.6780   27.6590   45.6820 C   0  0  0  0  0  0  0  0  0  0  0  0
   58.1100   26.3160   45.9140 C   0  0  0  0  0  0  0  0  0  0  0  0
   58.8830   25.1760   45.6360 C   0  0  0  0  0  0  0  0  0  0  0  0
   59.9057   25.2906   45.2474 H   0  0  0  0  0  0  0  0  0  0  0  0
   58.3610   23.8980   45.8500 C   0  0  0  0  0  0  0  0  0  0  0  0
   58.9752   23.0125   45.6294 H   0  0  0  0  0  0  0  0  0  0  0  0
   57.0570   23.7370   46.3450 C   0  0  0  0  0  0  0  0  0  0  0  0
   56.4910   22.3550   46.5740 C   0  0  0  0  0  0  0  0  0  0  0  0
   57.3255   21.6687   46.7803 H   0  0  0  0  0  0  0  0  0  0  0  0
   55.7899   22.4328   47.4181 H   0  0  0  0  0  0  0  0  0  0  0  0
   55.7240   21.8240   45.4260 N   0  0  0  0  0  0  0  0  0  0  0  0
   56.3250   20.6690   44.7280 C   0  0  0  0  0  0  0  0  0  0  0  0
   57.0309   20.1718   45.4095 H   0  0  0  0  0  0  0  0  0  0  0  0
   55.5095   19.9929   44.4317 H   0  0  0  0  0  0  0  0  0  0  0  0
   57.0770   21.0850   43.4550 C   0  0  0  0  0  0  0  0  0  0  0  0
   57.9672   21.6669   43.7360 H   0  0  0  0  0  0  0  0  0  0  0  0
   57.3700   20.1777   42.9063 H   0  0  0  0  0  0  0  0  0  0  0  0
   56.2540   21.8720   42.6210 O   0  0  0  0  0  0  0  0  0  0  0  0
   55.9560   23.0850   43.2770 C   0  0  0  0  0  0  0  0  0  0  0  0
   56.8954   23.5793   43.5655 H   0  0  0  0  0  0  0  0  0  0  0  0
   55.3817   23.7252   42.5911 H   0  0  0  0  0  0  0  0  0  0  0  0
   55.1130   22.8310   44.5360 C   0  0  0  0  0  0  0  0  0  0  0  0
   55.0101   23.7761   45.0893 H   0  0  0  0  0  0  0  0  0  0  0  0
   54.1345   22.4455   44.2135 H   0  0  0  0  0  0  0  0  0  0  0  0
   56.3030   24.8750   46.6680 C   0  0  0  0  0  0  0  0  0  0  0  0
   55.2954   24.7600   47.0940 H   0  0  0  0  0  0  0  0  0  0  0  0
   56.8240   26.1550   46.4520 C   0  0  0  0  0  0  0  0  0  0  0  0
   56.2223   27.0403   46.7053 H   0  0  0  0  0  0  0  0  0  0  0  0
   60.0040   27.9330   45.7290 N   0  0  0  0  0  0  0  0  0  0  0  0
   60.1950   29.2250   45.4770 N   0  0  0  0  0  0  0  0  0  0  0  0
   58.9860   29.7720   45.2620 C   0  0  0  0  0  0  0  0  0  0  0  0
   58.6960   31.0910   44.9310 C   0  0  0  0  0  0  0  0  0  0  0  0
   59.4896   31.8478   44.8452 H   0  0  0  0  0  0  0  0  0  0  0  0
   58.0210   33.1070   47.4850 C   0  0  0  0  0  0  0  0  0  0  0  0
   57.0964   32.5230   47.6035 H   0  0  0  0  0  0  0  0  0  0  0  0
   58.9680   33.1270   48.5140 C   0  0  0  0  0  0  0  0  0  0  0  0
   58.7825   32.5653   49.4414 H   0  0  0  0  0  0  0  0  0  0  0  0
  1  2  1  0
  2  3  2  0
  3  4  1  0
  3  5  1  0
  5  6  1  0
  5  7  2  0
  7  8  1  0
  8  9  2  0
  8 10  1  0
 10 11  2  0
 11 12  1  0
 12 13  1  0
 13 14  1  0
 13 15  2  0
 15 16  1  0
 16 17  1  0
 17 18  2  0
 18 19  1  0
 18 20  1  0
 20 21  1  0
 20 22  2  0
 22 23  1  0
 23 24  1  0
 23 25  1  0
 23 26  1  0
 26 27  1  0
 27 28  1  0
 27 29  1  0
 27 30  1  0
 30 31  1  0
 30 32  1  0
 30 33  1  0
 33 34  1  0
 34 35  1  0
 34 36  1  0
 34 37  1  0
 37 38  1  0
 37 39  1  0
 22 40  1  0
 40 41  1  0
 40 42  2  0
 42 43  1  0
 16 44  2  0
 44 45  1  0
 45 46  1  0
 46 47  2  0
 47 48  1  0
  7 49  1  0
 49 50  1  0
 49 51  2  0
 51 52  1  0
 51  2  1  0
 47 11  1  0
 46 15  1  0
 42 17  1  0
 37 26  1  0
M  CHG  2  12  -1  45  -1
M  END
>  <UniqueID>  (16) 
15

>  <SMILES>  (16) 
O=C(/N=c1/cc2[n-]nc(-c3ccc(CN4CCOCC4)cc3)c2c[n-]1)c1ccccc1

>  <Energy>  (16) 
118.46652651661744

>  <Genealogy>  (16) 
O=C(N=c1cc2[n-]nc(-c3ccc(CN4CCOCC4)cc3)c2c[n-]1)c1ccccc1 (protonated)
O=C(/N=c1/cc2[n-]nc(-c3ccc(CN4CCOCC4)cc3)c2c[n-]1)c1ccccc1 (cis-trans isomerization)
O=C(/N=c1/cc2[n-]nc(-c3ccc(CN4CCOCC4)cc3)c2c[n-]1)c1ccccc1 (3D coordinates assigned)
O=C(/N=c1/cc2[n-]nc(-c3ccc(CN4CCOCC4)cc3)c2c[n-]1)c1ccccc1 (nonaromatic ring conformer: 118.46652651661744 kcal/mol)

>  <smiles>  (16) 
O=C(N=c1cc2[nH]nc(-c3ccc(CN4CCOCC4)cc3)c2c[nH]1)c1ccccc1

>  <score_type>  (16) 
oracle

>  <origin>  (16) 
adg

>  <m_score__min__energy>  (16) 
-12.57

>  <m_primary>  (16) 
energy

$$$$
16:0
     RDKit          3D

 57 60  0  0  0  0  0  0  0  0999 V2000
   56.1580   30.0130   44.8630 O   0  0  0  0  0  0  0  0  0  0  0  0
   57.1760   29.8600   44.1380 C   0  0  0  0  0  0  0  0  0  0  0  0
   57.3890   28.5870   43.4160 C   0  0  0  0  0  0  0  0  0  0  0  0
   58.4220   27.7760   43.6850 C   0  0  0  0  0  0  0  0  0  0  0  0
   58.7470   27.2860   45.0460 C   0  0  0  0  0  0  0  0  0  0  0  0
   60.0370   27.5170   45.5570 C   0  0  0  0  0  0  0  0  0  0  0  0
   60.3820   27.0810   46.8390 C   0  0  0  0  0  0  0  0  0  0  0  0
   59.4420   26.4200   47.6320 C   0  0  0  0  0  0  0  0  0  0  0  0
   58.1520   26.1990   47.1450 C   0  0  0  0  0  0  0  0  0  0  0  0
   57.8010   26.6310   45.8620 C   0  0  0  0  0  0  0  0  0  0  0  0
   58.1510   30.9090   44.0890 N   0  0  0  0  0  0  0  0  0  0  0  0
   58.1510   32.1120   44.8730 C   0  0  0  0  0  0  0  0  0  0  0  0
   57.4750   33.2580   44.4230 C   0  0  0  0  0  0  0  0  0  0  0  0
   57.5240   34.4400   45.1570 C   0  0  0  0  0  0  0  0  0  0  0  0
   58.2390   34.4930   46.3520 C   0  0  0  0  0  0  0  0  0  0  0  0
   58.8900   33.3530   46.8450 C   0  0  0  0  0  0  0  0  0  0  0  0
   59.7610   33.4700   48.3890 S   0  0  0  0  0  0  0  0  0  0  0  0
   59.8900   34.9090   48.8050 O   0  0  0  0  0  0  0  0  0  0  0  0
   58.9660   32.7610   49.4500 O   0  0  0  0  0  0  0  0  0  0  0  0
   61.3540   32.7530   48.2940 N   0  0  0  0  0  0  0  0  0  0  0  0
   61.9110   32.8240   46.9240 C   0  0  0  0  0  0  0  0  0  0  0  0
   63.0730   33.8270   46.8180 C   0  0  0  0  0  0  0  0  0  0  0  0
   64.1410   33.5310   47.7070 O   0  0  0  0  0  0  0  0  0  0  0  0
   63.7140   33.0330   48.9730 C   0  0  0  0  0  0  0  0  0  0  0  0
   62.2470   33.3370   49.3110 C   0  0  0  0  0  0  0  0  0  0  0  0
   58.8210   32.1420   46.1170 C   0  0  0  0  0  0  0  0  0  0  0  0
   59.4990   30.9800   46.6120 N   0  0  0  0  0  0  0  0  0  0  0  0
   58.9300   30.0060   47.4980 C   0  0  0  0  0  0  0  0  0  0  0  0
   57.9470   29.3080   47.1240 O   0  0  0  0  0  0  0  0  0  0  0  0
   59.4510   29.8520   48.8670 C   0  0  0  0  0  0  0  0  0  0  0  0
   60.8230   29.6680   49.1090 C   0  0  0  0  0  0  0  0  0  0  0  0
   61.2760   29.5280   50.4230 C   0  0  0  0  0  0  0  0  0  0  0  0
   60.3670   29.5730   51.4800 C   0  0  0  0  0  0  0  0  0  0  0  0
   59.0100   29.7580   51.2060 C   0  0  0  0  0  0  0  0  0  0  0  0
   58.5870   29.8920   49.9210 N   0  0  0  0  0  0  0  0  0  0  0  0
   56.6753   28.2956   42.6313 H   0  0  0  0  0  0  0  0  0  0  0  0
   59.0635   27.4567   42.8504 H   0  0  0  0  0  0  0  0  0  0  0  0
   60.7805   28.0454   44.9422 H   0  0  0  0  0  0  0  0  0  0  0  0
   61.3968   27.2590   47.2244 H   0  0  0  0  0  0  0  0  0  0  0  0
   59.7172   26.0737   48.6392 H   0  0  0  0  0  0  0  0  0  0  0  0
   57.4098   25.6836   47.7723 H   0  0  0  0  0  0  0  0  0  0  0  0
   56.7813   26.4590   45.4870 H   0  0  0  0  0  0  0  0  0  0  0  0
   56.9029   33.2213   43.4842 H   0  0  0  0  0  0  0  0  0  0  0  0
   56.9971   35.3342   44.7928 H   0  0  0  0  0  0  0  0  0  0  0  0
   58.2932   35.4374   46.9135 H   0  0  0  0  0  0  0  0  0  0  0  0
   62.2772   31.8267   46.6388 H   0  0  0  0  0  0  0  0  0  0  0  0
   61.1096   33.1647   46.2519 H   0  0  0  0  0  0  0  0  0  0  0  0
   63.4586   33.8100   45.7880 H   0  0  0  0  0  0  0  0  0  0  0  0
   62.6804   34.8175   47.0915 H   0  0  0  0  0  0  0  0  0  0  0  0
   63.8491   31.9413   48.9769 H   0  0  0  0  0  0  0  0  0  0  0  0
   64.3240   33.5426   49.7334 H   0  0  0  0  0  0  0  0  0  0  0  0
   62.0053   32.9083   50.2948 H   0  0  0  0  0  0  0  0  0  0  0  0
   62.1033   34.4274   49.3284 H   0  0  0  0  0  0  0  0  0  0  0  0
   61.5344   29.6345   48.2707 H   0  0  0  0  0  0  0  0  0  0  0  0
   62.3477   29.3825   50.6238 H   0  0  0  0  0  0  0  0  0  0  0  0
   60.7150   29.4640   52.5178 H   0  0  0  0  0  0  0  0  0  0  0  0
   58.2829   29.7953   52.0306 H   0  0  0  0  0  0  0  0  0  0  0  0
  1  2  2  0
  2  3  1  0
  3  4  2  3
  4  5  1  0
  5  6  2  0
  6  7  1  0
  7  8  2  0
  8  9  1  0
  9 10  2  0
  2 11  1  0
 11 12  1  0
 12 13  2  0
 13 14  1  0
 14 15  2  0
 15 16  1  0
 16 17  1  0
 17 18  2  0
 17 19  2  0
 17 20  1  0
 20 21  1  0
 21 22  1  0
 22 23  1  0
 23 24  1  0
 24 25  1  0
 16 26  2  0
 26 27  1  0
 27 28  1  0
 28 29  2  0
 28 30  1  0
 30 31  2  0
 31 32  1  0
 32 33  2  0
 33 34  1  0
 34 35  2  0
 10  5  1  0
 26 12  1  0
 35 30  1  0
 25 20  1  0
  3 36  1  0
  4 37  1  0
  6 38  1  0
  7 39  1  0
  8 40  1  0
  9 41  1  0
 10 42  1  0
 13 43  1  0
 14 44  1  0
 15 45  1  0
 21 46  1  0
 21 47  1  0
 22 48  1  0
 22 49  1  0
 24 50  1  0
 24 51  1  0
 25 52  1  0
 25 53  1  0
 31 54  1  0
 32 55  1  0
 33 56  1  0
 34 57  1  0
M  CHG  2  11  -1  27  -1
M  END
>  <UniqueID>  (17) 
16

>  <SMILES>  (17) 
O=C(C=Cc1ccccc1)[N-]c1cccc(S(=O)(=O)N2CCOCC2)c1[N-]C(=O)c1ccccn1

>  <Energy>  (17) 
85.84897754886174

>  <Genealogy>  (17) 
O=C(C=Cc1ccccc1)[N-]c1cccc(S(=O)(=O)N2CCOCC2)c1[N-]C(=O)c1ccccn1 (protonated)
O=C(C=Cc1ccccc1)[N-]c1cccc(S(=O)(=O)N2CCOCC2)c1[N-]C(=O)c1ccccn1 (3D coordinates assigned)
O=C(C=Cc1ccccc1)[N-]c1cccc(S(=O)(=O)N2CCOCC2)c1[N-]C(=O)c1ccccn1 (nonaromatic ring conformer: 85.84897754886174 kcal/mol)

>  <smiles>  (17) 
O=C(C=Cc1ccccc1)Nc1cccc(S(=O)(=O)N2CCOCC2)c1NC(=O)c1ccccn1

>  <score_type>  (17) 
oracle

>  <origin>  (17) 
adg

>  <m_score__min__energy>  (17) 
-12.109999999999999

>  <m_primary>  (17) 
energy

$$$$
17:0
     RDKit          3D

 57 60  0  0  0  0  0  0  0  0999 V2000
   58.7902   31.1876   44.7354 H   0  0  0  0  0  0  0  0  0  0  0  0
   58.5010   30.1460   44.9390 C   0  0  0  0  0  0  0  0  0  0  0  0
   58.1348   29.5071   44.1218 H   0  0  0  0  0  0  0  0  0  0  0  0
   58.5950   29.6540   46.1860 C   0  0  0  0  0  0  0  0  0  0  0  0
   58.2660   28.3550   46.5980 C   0  0  0  0  0  0  0  0  0  0  0  0
   57.7930   27.3570   45.8210 C   0  0  0  0  0  0  0  0  0  0  0  0
   57.8673   27.4909   44.7317 H   0  0  0  0  0  0  0  0  0  0  0  0
   57.1830   26.0980   46.3070 C   0  0  0  0  0  0  0  0  0  0  0  0
   57.8470   25.0060   46.7280 N   0  0  0  0  0  0  0  0  0  0  0  0
   56.8630   24.1310   47.0240 C   0  0  0  0  0  0  0  0  0  0  0  0
   57.0950   22.9740   47.4620 O   0  0  0  0  0  0  0  0  0  0  0  0
   55.6130   24.5910   46.8100 N   0  0  0  0  0  0  0  0  0  0  0  0
   55.8340   25.8350   46.3540 C   0  0  0  0  0  0  0  0  0  0  0  0
   54.8210   26.7110   45.9860 O   0  0  0  0  0  0  0  0  0  0  0  0
   58.5060   28.3160   47.9680 C   0  0  0  0  0  0  0  0  0  0  0  0
   58.3509   27.4561   48.6362 H   0  0  0  0  0  0  0  0  0  0  0  0
   58.9760   29.5630   48.3280 C   0  0  0  0  0  0  0  0  0  0  0  0
   59.3550   29.9590   49.7230 C   0  0  0  0  0  0  0  0  0  0  0  0
   58.7803   29.3585   50.4435 H   0  0  0  0  0  0  0  0  0  0  0  0
   60.4303   29.7835   49.8746 H   0  0  0  0  0  0  0  0  0  0  0  0
   59.1326   31.0255   49.8746 H   0  0  0  0  0  0  0  0  0  0  0  0
   59.0180   30.3790   47.2530 N   0  0  0  0  0  0  0  0  0  0  0  0
   59.4750   31.7430   47.2490 C   0  0  0  0  0  0  0  0  0  0  0  0
   60.7050   32.0670   47.8370 C   0  0  0  0  0  0  0  0  0  0  0  0
   61.3020   31.2796   48.3204 H   0  0  0  0  0  0  0  0  0  0  0  0
   61.1830   33.3880   47.8150 C   0  0  0  0  0  0  0  0  0  0  0  0
   62.4790   33.7050   48.3570 N   0  0  0  0  0  0  0  0  0  0  0  0
   62.6280   34.6560   49.4630 C   0  0  0  0  0  0  0  0  0  0  0  0
   63.3712   35.4183   49.1864 H   0  0  0  0  0  0  0  0  0  0  0  0
   61.6535   35.1272   49.6586 H   0  0  0  0  0  0  0  0  0  0  0  0
   63.0960   33.9330   50.7430 C   0  0  0  0  0  0  0  0  0  0  0  0
   63.7570   34.6119   51.3017 H   0  0  0  0  0  0  0  0  0  0  0  0
   62.1900   33.6650   51.3064 H   0  0  0  0  0  0  0  0  0  0  0  0
   63.8730   32.6000   50.4740 C   0  0  0  0  0  0  0  0  0  0  0  0
   64.6045   32.4328   51.2783 H   0  0  0  0  0  0  0  0  0  0  0  0
   62.9880   31.3860   50.5330 N   0  0  0  0  0  0  0  0  0  0  0  0
   62.7640   31.0620   49.5640 H   0  0  0  0  0  0  0  0  0  0  0  0
   63.6370   30.2630   51.2460 C   0  0  0  0  0  0  0  0  0  0  0  0
   63.5478   30.4174   52.3315 H   0  0  0  0  0  0  0  0  0  0  0  0
   63.1451   29.3191   50.9682 H   0  0  0  0  0  0  0  0  0  0  0  0
   64.7004   30.2179   50.9682 H   0  0  0  0  0  0  0  0  0  0  0  0
   61.7050   31.6800   51.2150 C   0  0  0  0  0  0  0  0  0  0  0  0
   61.8527   31.6461   52.3045 H   0  0  0  0  0  0  0  0  0  0  0  0
   61.3557   32.6815   50.9233 H   0  0  0  0  0  0  0  0  0  0  0  0
   60.9545   30.9305   50.9233 H   0  0  0  0  0  0  0  0  0  0  0  0
   64.6310   32.7450   49.1210 C   0  0  0  0  0  0  0  0  0  0  0  0
   65.2936   33.6214   49.1749 H   0  0  0  0  0  0  0  0  0  0  0  0
   65.2100   31.8254   48.9501 H   0  0  0  0  0  0  0  0  0  0  0  0
   63.6560   32.9270   47.9430 C   0  0  0  0  0  0  0  0  0  0  0  0
   64.1701   33.4566   47.1274 H   0  0  0  0  0  0  0  0  0  0  0  0
   63.3225   31.9351   47.6039 H   0  0  0  0  0  0  0  0  0  0  0  0
   60.4080   34.3860   47.2020 C   0  0  0  0  0  0  0  0  0  0  0  0
   60.7733   35.4232   47.1751 H   0  0  0  0  0  0  0  0  0  0  0  0
   59.1750   34.0680   46.6260 C   0  0  0  0  0  0  0  0  0  0  0  0
   58.5693   34.8573   46.1568 H   0  0  0  0  0  0  0  0  0  0  0  0
   58.7090   32.7510   46.6440 C   0  0  0  0  0  0  0  0  0  0  0  0
   57.5290   32.4510   46.0460 F   0  0  0  0  0  0  0  0  0  0  0  0
  1  2  1  0
  2  3  1  0
  2  4  2  0
  4  5  1  0
  5  6  2  0
  6  7  1  0
  6  8  1  0
  8  9  1  0
  9 10  1  0
 10 11  2  0
 10 12  1  0
 12 13  1  0
 13 14  1  0
  5 15  1  0
 15 16  1  0
 15 17  2  0
 17 18  1  0
 18 19  1  0
 18 20  1  0
 18 21  1  0
 17 22  1  0
 22 23  1  0
 23 24  2  0
 24 25  1  0
 24 26  1  0
 26 27  1  0
 27 28  1  0
 28 29  1  0
 28 30  1  0
 28 31  1  0
 31 32  1  0
 31 33  1  0
 31 34  1  0
 34 35  1  0
 34 36  1  0
 36 37  1  0
 36 38  1  0
 38 39  1  0
 38 40  1  0
 38 41  1  0
 36 42  1  0
 42 43  1  0
 42 44  1  0
 42 45  1  0
 34 46  1  0
 46 47  1  0
 46 48  1  0
 46 49  1  0
 49 50  1  0
 49 51  1  0
 26 52  2  0
 52 53  1  0
 52 54  1  0
 54 55  1  0
 54 56  2  0
 56 57  1  0
 22  4  1  0
 56 23  1  0
 13  8  2  0
 49 27  1  0
M  CHG  4   9  -1  12  -1  14  -1  36   1
M  END
>  <UniqueID>  (18) 
17

>  <SMILES>  (18) 
C=c1/c(=C/c2[n-]c(=O)[n-]c2[O-])cc(C)n1-c1cc(N2CCC([NH+](C)C)CC2)ccc1F

>  <Energy>  (18) 
142.7963097036791

>  <Genealogy>  (18) 
C=c1c(=Cc2[n-]c(=O)[n-]c2[O-])cc(C)n1-c1cc(N2CCC([NH+](C)C)CC2)ccc1F (protonated)
C=c1/c(=C/c2[n-]c(=O)[n-]c2[O-])cc(C)n1-c1cc(N2CCC([NH+](C)C)CC2)ccc1F (cis-trans isomerization)
C=c1/c(=C/c2[n-]c(=O)[n-]c2[O-])cc(C)n1-c1cc(N2CCC([NH+](C)C)CC2)ccc1F (3D coordinates assigned)
C=c1/c(=C/c2[n-]c(=O)[n-]c2[O-])cc(C)n1-c1cc(N2CCC([NH+](C)C)CC2)ccc1F (nonaromatic ring conformer: 142.7963097036791 kcal/mol)

>  <smiles>  (18) 
C=c1c(=Cc2[nH]c(=O)[nH]c2O)cc(C)n1-c1cc(N2CCC(N(C)C)CC2)ccc1F

>  <score_type>  (18) 
oracle

>  <origin>  (18) 
adg

>  <m_score__min__energy>  (18) 
-15.6

>  <m_primary>  (18) 
energy

$$$$
18:0
     RDKit          3D

 31 32  0  0  0  0  0  0  0  0999 V2000
   56.8040   34.2310   45.6510 O   0  0  0  0  0  0  0  0  0  0  0  0
   57.3270   33.0850   45.6550 C   0  0  0  0  0  0  0  0  0  0  0  0
   57.1460   32.1840   44.4790 C   0  0  0  0  0  0  0  0  0  0  0  0
   56.9810   30.8140   44.9470 N   0  0  0  0  0  0  0  0  0  0  0  0
   56.0150   29.8940   44.4260 C   0  0  0  0  0  0  0  0  0  0  0  0
   55.5990   30.0460   43.2490 O   0  0  0  0  0  0  0  0  0  0  0  0
   55.5630   28.7670   45.1870 N   0  0  0  0  0  0  0  0  0  0  0  0
   56.3900   27.6790   45.6210 C   0  0  0  0  0  0  0  0  0  0  0  0
   57.7870   27.8150   45.7160 C   0  0  0  0  0  0  0  0  0  0  0  0
   58.5680   26.7480   46.1670 C   0  0  0  0  0  0  0  0  0  0  0  0
   57.9630   25.5460   46.5430 C   0  0  0  0  0  0  0  0  0  0  0  0
   56.5740   25.4100   46.4720 C   0  0  0  0  0  0  0  0  0  0  0  0
   55.7870   26.4760   46.0190 C   0  0  0  0  0  0  0  0  0  0  0  0
   54.4050   26.3310   45.9590 O   0  0  0  0  0  0  0  0  0  0  0  0
   58.0320   32.6060   46.8090 N   0  0  0  0  0  0  0  0  0  0  0  0
   59.1780   32.9990   47.2970 C   0  0  0  0  0  0  0  0  0  0  0  0
   60.1270   33.4180   46.4150 N   0  0  0  0  0  0  0  0  0  0  0  0
   61.3590   33.8380   46.8060 C   0  0  0  0  0  0  0  0  0  0  0  0
   61.6910   33.8590   48.1590 C   0  0  0  0  0  0  0  0  0  0  0  0
   60.7390   33.4680   49.0980 C   0  0  0  0  0  0  0  0  0  0  0  0
   59.4700   33.0510   48.6860 C   0  0  0  0  0  0  0  0  0  0  0  0
   58.5250   32.7560   49.6610 O   0  0  0  0  0  0  0  0  0  0  0  0
   56.2528   32.4903   43.9147 H   0  0  0  0  0  0  0  0  0  0  0  0
   58.0281   32.2478   43.8249 H   0  0  0  0  0  0  0  0  0  0  0  0
   58.2659   28.7644   45.4343 H   0  0  0  0  0  0  0  0  0  0  0  0
   59.6612   26.8544   46.2262 H   0  0  0  0  0  0  0  0  0  0  0  0
   58.5803   24.7064   46.8951 H   0  0  0  0  0  0  0  0  0  0  0  0
   56.0984   24.4647   46.7722 H   0  0  0  0  0  0  0  0  0  0  0  0
   62.0941   34.1614   46.0543 H   0  0  0  0  0  0  0  0  0  0  0  0
   62.6923   34.1803   48.4818 H   0  0  0  0  0  0  0  0  0  0  0  0
   60.9873   33.4875   50.1694 H   0  0  0  0  0  0  0  0  0  0  0  0
  1  2  2  0
  2  3  1  0
  3  4  1  0
  4  5  1  0
  5  6  2  0
  5  7  1  0
  7  8  1  0
  8  9  2  0
  9 10  1  0
 10 11  2  0
 11 12  1  0
 12 13  2  0
 13 14  1  0
  2 15  1  0
 15 16  2  3
 16 17  1  0
 17 18  1  0
 18 19  2  0
 19 20  1  0
 20 21  2  0
 21 22  1  0
 13  8  1  0
 21 16  1  0
  3 23  1  0
  3 24  1  0
  9 25  1  0
 10 26  1  0
 11 27  1  0
 12 28  1  0
 18 29  1  0
 19 30  1  0
 20 31  1  0
M  CHG  5   4  -1   7  -1  14  -1  17  -1  22  -1
M  END
>  <UniqueID>  (19) 
18

>  <SMILES>  (19) 
O=C(C[N-]C(=O)[N-]c1ccccc1[O-])N=c1[n-]cccc1[O-]

>  <Energy>  (19) 
48.3073429171652

>  <Genealogy>  (19) 
O=C(C[N-]C(=O)[N-]c1ccccc1[O-])N=c1[n-]cccc1[O-] (protonated)
O=C(C[N-]C(=O)[N-]c1ccccc1[O-])N=c1[n-]cccc1[O-] (3D coordinates assigned)
O=C(C[N-]C(=O)[N-]c1ccccc1[O-])N=c1[n-]cccc1[O-] (optimized conformer: 48.3073429171652 kcal/mol)

>  <smiles>  (19) 
O=C(CNC(=O)Nc1ccccc1O)N=c1[nH]cccc1O

>  <score_type>  (19) 
oracle

>  <origin>  (19) 
adg

>  <m_score__min__energy>  (19) 
-16.809999999999999

>  <m_primary>  (19) 
energy

$$$$
19:0
     RDKit          3D

 54 57  0  0  0  0  0  0  0  0999 V2000
   59.0985   29.1924   51.9878 H   0  0  0  0  0  0  0  0  0  0  0  0
   58.8410   30.2110   51.6620 C   0  0  0  0  0  0  0  0  0  0  0  0
   58.5170   30.5050   50.3740 N   0  0  0  0  0  0  0  0  0  0  0  0
   58.2340   31.8190   50.2240 C   0  0  0  0  0  0  0  0  0  0  0  0
   57.9090   32.3800   49.0960 N   0  0  0  0  0  0  0  0  0  0  0  0
   58.8000   32.9580   48.1280 C   0  0  0  0  0  0  0  0  0  0  0  0
   59.8570   33.5110   48.5310 O   0  0  0  0  0  0  0  0  0  0  0  0
   58.5180   32.9450   46.6790 C   0  0  0  0  0  0  0  0  0  0  0  0
   57.9530   31.7940   46.1140 C   0  0  0  0  0  0  0  0  0  0  0  0
   57.7167   30.9316   46.7547 H   0  0  0  0  0  0  0  0  0  0  0  0
   57.6860   31.7320   44.7380 C   0  0  0  0  0  0  0  0  0  0  0  0
   57.1100   30.5600   44.1480 N   0  0  0  0  0  0  0  0  0  0  0  0
   56.4730   29.5160   44.8950 C   0  0  0  0  0  0  0  0  0  0  0  0
   55.2150   29.4360   44.8840 O   0  0  0  0  0  0  0  0  0  0  0  0
   57.2610   28.5630   45.7050 C   0  0  0  0  0  0  0  0  0  0  0  0
   56.9960   27.1860   45.6310 C   0  0  0  0  0  0  0  0  0  0  0  0
   56.1799   26.8189   44.9913 H   0  0  0  0  0  0  0  0  0  0  0  0
   57.7640   26.2810   46.3660 C   0  0  0  0  0  0  0  0  0  0  0  0
   57.5628   25.2023   46.2890 H   0  0  0  0  0  0  0  0  0  0  0  0
   58.7860   26.7400   47.1980 C   0  0  0  0  0  0  0  0  0  0  0  0
   59.3854   26.0213   47.7761 H   0  0  0  0  0  0  0  0  0  0  0  0
   59.0530   28.1140   47.3010 C   0  0  0  0  0  0  0  0  0  0  0  0
   60.1190   28.6000   48.2090 C   0  0  0  0  0  0  0  0  0  0  0  0
   60.2290   28.1080   49.3630 O   0  0  0  0  0  0  0  0  0  0  0  0
   61.0840   29.5720   47.7800 N   0  0  0  0  0  0  0  0  0  0  0  0
   61.5010   30.6060   48.4590 C   0  0  0  0  0  0  0  0  0  0  0  0
   62.2550   31.5830   47.7960 C   0  0  0  0  0  0  0  0  0  0  0  0
   62.4829   31.4677   46.7261 H   0  0  0  0  0  0  0  0  0  0  0  0
   62.7180   32.7030   48.4900 C   0  0  0  0  0  0  0  0  0  0  0  0
   63.4610   33.6650   47.7900 O   0  0  0  0  0  0  0  0  0  0  0  0
   63.3370   33.9170   46.3940 C   0  0  0  0  0  0  0  0  0  0  0  0
   62.8562   34.8942   46.2391 H   0  0  0  0  0  0  0  0  0  0  0  0
   64.3354   33.9223   45.9323 H   0  0  0  0  0  0  0  0  0  0  0  0
   62.7236   33.1292   45.9323 H   0  0  0  0  0  0  0  0  0  0  0  0
   62.4290   32.8250   49.8590 C   0  0  0  0  0  0  0  0  0  0  0  0
   62.7767   33.7029   50.4233 H   0  0  0  0  0  0  0  0  0  0  0  0
   61.6970   31.8230   50.4970 C   0  0  0  0  0  0  0  0  0  0  0  0
   61.4784   31.9071   51.5718 H   0  0  0  0  0  0  0  0  0  0  0  0
   61.2520   30.7440   49.8010 N   0  0  0  0  0  0  0  0  0  0  0  0
   60.7410   30.0090   50.3370 H   0  0  0  0  0  0  0  0  0  0  0  0
   58.2980   29.0200   46.5340 C   0  0  0  0  0  0  0  0  0  0  0  0
   58.5220   30.0958   46.5842 H   0  0  0  0  0  0  0  0  0  0  0  0
   58.0240   32.8140   43.9210 C   0  0  0  0  0  0  0  0  0  0  0  0
   57.8517   32.7552   42.8362 H   0  0  0  0  0  0  0  0  0  0  0  0
   58.5800   33.9710   44.4750 C   0  0  0  0  0  0  0  0  0  0  0  0
   58.8205   34.8259   43.8259 H   0  0  0  0  0  0  0  0  0  0  0  0
   58.8340   34.0500   45.8550 C   0  0  0  0  0  0  0  0  0  0  0  0
   59.4450   35.3000   46.4290 C   0  0  0  0  0  0  0  0  0  0  0  0
   59.4202   35.2492   47.5275 H   0  0  0  0  0  0  0  0  0  0  0  0
   60.4876   35.3878   46.0895 H   0  0  0  0  0  0  0  0  0  0  0  0
   58.8738   36.1766   46.0895 H   0  0  0  0  0  0  0  0  0  0  0  0
   58.3830   32.6640   51.6650 S   0  0  0  0  0  0  0  0  0  0  0  0
   58.8230   31.2920   52.5370 C   0  0  0  0  0  0  0  0  0  0  0  0
   59.0557   31.2569   53.6115 H   0  0  0  0  0  0  0  0  0  0  0  0
  1  2  1  0
  2  3  1  0
  3  4  1  0
  4  5  2  3
  5  6  1  0
  6  7  2  0
  6  8  1  0
  8  9  2  0
  9 10  1  0
  9 11  1  0
 11 12  1  0
 12 13  1  0
 13 14  2  0
 13 15  1  0
 15 16  2  0
 16 17  1  0
 16 18  1  0
 18 19  1  0
 18 20  2  0
 20 21  1  0
 20 22  1  0
 22 23  1  0
 23 24  2  0
 23 25  1  0
 25 26  2  0
 26 27  1  0
 27 28  1  0
 27 29  2  0
 29 30  1  0
 30 31  1  0
 31 32  1  0
 31 33  1  0
 31 34  1  0
 29 35  1  0
 35 36  1  0
 35 37  2  0
 37 38  1  0
 37 39  1  0
 39 40  1  0
 22 41  2  0
 41 42  1  0
 11 43  2  0
 43 44  1  0
 43 45  1  0
 45 46  1  0
 45 47  2  0
 47 48  1  0
 48 49  1  0
 48 50  1  0
 48 51  1  0
  4 52  1  0
 52 53  1  0
 53 54  1  0
 53  2  2  0
 47  8  1  0
 41 15  1  0
 39 26  1  0
M  CHG  2   3  -1  12  -1
M  END
>  <UniqueID>  (20) 
19

>  <SMILES>  (20) 
COc1cc[nH]/c(=N\C(=O)c2cccc(C(=O)[N-]c3ccc(C)c(C(=O)N=c4[n-]ccs4)c3)c2)c1

>  <Energy>  (20) 
111.14717999448746

>  <Genealogy>  (20) 
COc1cc[nH]c(=NC(=O)c2cccc(C(=O)[N-]c3ccc(C)c(C(=O)N=c4[n-]ccs4)c3)c2)c1 (protonated)
COc1cc[nH]/c(=N\C(=O)c2cccc(C(=O)[N-]c3ccc(C)c(C(=O)N=c4[n-]ccs4)c3)c2)c1 (cis-trans isomerization)
COc1cc[nH]/c(=N\C(=O)c2cccc(C(=O)[N-]c3ccc(C)c(C(=O)N=c4[n-]ccs4)c3)c2)c1 (3D coordinates assigned)
COc1cc[nH]/c(=N\C(=O)c2cccc(C(=O)[N-]c3ccc(C)c(C(=O)N=c4[n-]ccs4)c3)c2)c1 (optimized conformer: 111.14717999448746 kcal/mol)

>  <smiles>  (20) 
COc1cc[nH]c(=NC(=O)c2cccc(C(=O)Nc3ccc(C)c(C(=O)N=c4[nH]ccs4)c3)c2)c1

>  <score_type>  (20) 
oracle

>  <origin>  (20) 
adg

>  <m_score__min__energy>  (20) 
-12.99

>  <m_primary>  (20) 
energy

$$$$
20:0
     RDKit          3D

 47 50  0  0  0  0  0  0  0  0999 V2000
   59.5350   26.1960   46.9840 H   0  0  0  0  0  0  0  0  0  0  0  0
   58.6750   25.6750   47.1070 O   0  0  0  0  0  0  0  0  0  0  0  0
   57.4620   26.1390   46.6010 C   0  0  0  0  0  0  0  0  0  0  0  0
   56.3340   25.4110   46.5970 N   0  0  0  0  0  0  0  0  0  0  0  0
   55.4430   26.2420   46.0120 C   0  0  0  0  0  0  0  0  0  0  0  0
   54.2430   25.9200   45.8160 O   0  0  0  0  0  0  0  0  0  0  0  0
   55.9420   27.4440   45.6470 N   0  0  0  0  0  0  0  0  0  0  0  0
   57.2280   27.3810   46.0470 C   0  0  0  0  0  0  0  0  0  0  0  0
   58.2380   28.4270   45.7900 C   0  0  0  0  0  0  0  0  0  0  0  0
   59.2921   28.1574   45.9517 H   0  0  0  0  0  0  0  0  0  0  0  0
   57.9790   29.6940   45.3710 C   0  0  0  0  0  0  0  0  0  0  0  0
   58.2280   30.7360   46.2900 C   0  0  0  0  0  0  0  0  0  0  0  0
   58.4597   30.4944   47.3378 H   0  0  0  0  0  0  0  0  0  0  0  0
   58.1830   32.0730   45.8810 C   0  0  0  0  0  0  0  0  0  0  0  0
   58.5010   33.1730   46.8120 C   0  0  0  0  0  0  0  0  0  0  0  0
   57.8210   34.2320   46.7420 O   0  0  0  0  0  0  0  0  0  0  0  0
   59.5490   33.0630   47.7970 N   0  0  0  0  0  0  0  0  0  0  0  0
   59.2850   32.4780   49.0820 C   0  0  0  0  0  0  0  0  0  0  0  0
   58.1580   32.6430   49.6330 O   0  0  0  0  0  0  0  0  0  0  0  0
   60.3140   31.7150   49.7400 N   0  0  0  0  0  0  0  0  0  0  0  0
   60.0780   31.1910   51.0910 C   0  0  0  0  0  0  0  0  0  0  0  0
   60.4110   31.9303   51.8344 H   0  0  0  0  0  0  0  0  0  0  0  0
   59.0042   30.9939   51.2254 H   0  0  0  0  0  0  0  0  0  0  0  0
   60.6420   30.2562   51.2254 H   0  0  0  0  0  0  0  0  0  0  0  0
   61.5850   31.5280   49.0780 C   0  0  0  0  0  0  0  0  0  0  0  0
   62.5030   30.8750   49.6500 O   0  0  0  0  0  0  0  0  0  0  0  0
   61.7940   32.0260   47.6590 C   0  0  2  0  0  0  0  0  0  0  0  0
   61.3440   31.0060   46.7940 O   0  0  0  0  0  0  0  0  0  0  0  0
   61.3590   30.1400   47.2860 H   0  0  0  0  0  0  0  0  0  0  0  0
   63.3060   32.3550   47.4560 C   0  0  0  0  0  0  0  0  0  0  0  0
   63.5516   31.3049   47.2393 H   0  0  0  0  0  0  0  0  0  0  0  0
   63.6880   33.6940   46.8330 C   0  0  0  0  0  0  0  0  0  0  0  0
   64.5518   33.7586   46.1550 H   0  0  0  0  0  0  0  0  0  0  0  0
   63.1612   34.4516   46.2342 H   0  0  0  0  0  0  0  0  0  0  0  0
   63.9040   33.4590   48.3170 C   0  0  0  0  0  0  0  0  0  0  0  0
   64.9246   33.3543   48.7138 H   0  0  0  0  0  0  0  0  0  0  0  0
   63.5982   33.9773   49.2378 H   0  0  0  0  0  0  0  0  0  0  0  0
   60.9570   33.3150   47.4620 C   0  0  0  0  0  0  0  0  0  0  0  0
   61.0285   33.6377   46.4128 H   0  0  0  0  0  0  0  0  0  0  0  0
   61.3480   34.1011   48.1247 H   0  0  0  0  0  0  0  0  0  0  0  0
   57.8850   32.3680   44.5930 N   0  0  0  0  0  0  0  0  0  0  0  0
   57.5510   31.4130   43.6900 C   0  0  0  0  0  0  0  0  0  0  0  0
   57.3139   31.7006   42.6551 H   0  0  0  0  0  0  0  0  0  0  0  0
   57.5050   30.0570   44.0650 C   0  0  0  0  0  0  0  0  0  0  0  0
   56.9040   29.1980   43.2210 C   0  0  0  0  0  0  0  0  0  0  0  0
   56.8451   28.1291   43.4738 H   0  0  0  0  0  0  0  0  0  0  0  0
   56.4717   29.5649   42.2784 H   0  0  0  0  0  0  0  0  0  0  0  0
  1  2  1  0
  2  3  1  0
  3  4  1  0
  4  5  1  0
  5  6  2  0
  5  7  1  0
  7  8  1  0
  8  9  1  0
  9 10  1  0
  9 11  2  0
 11 12  1  0
 12 13  1  0
 12 14  2  0
 14 15  1  0
 15 16  2  0
 15 17  1  0
 17 18  1  0
 18 19  2  0
 18 20  1  0
 20 21  1  0
 21 22  1  0
 21 23  1  0
 21 24  1  0
 20 25  1  0
 25 26  2  0
 25 27  1  0
 27 28  1  6
 28 29  1  0
 27 30  1  0
 30 31  1  0
 30 32  1  0
 32 33  1  0
 32 34  1  0
 32 35  1  0
 35 36  1  0
 35 37  1  0
 27 38  1  0
 38 39  1  0
 38 40  1  0
 14 41  1  0
 41 42  2  0
 42 43  1  0
 42 44  1  0
 44 45  2  0
 45 46  1  0
 45 47  1  0
  8  3  2  0
 44 11  1  0
 38 17  1  0
 35 30  1  0
M  CHG  2   4  -1   7  -1
M  END
>  <UniqueID>  (21) 
20

>  <SMILES>  (21) 
C=c1cnc(C(=O)N2C[C@@](O)(C3CC3)C(=O)N(C)C2=O)c/c1=C/c1[n-]c(=O)[n-]c1O

>  <Energy>  (21) 
375.38514713949127

>  <Genealogy>  (21) 
C=c1cnc(C(=O)N2CC(O)(C3CC3)C(=O)N(C)C2=O)cc1=Cc1[n-]c(=O)[n-]c1O (protonated)
C=c1cnc(C(=O)N2C[C@@](O)(C3CC3)C(=O)N(C)C2=O)cc1=Cc1[n-]c(=O)[n-]c1O (chirality)
C=c1cnc(C(=O)N2C[C@@](O)(C3CC3)C(=O)N(C)C2=O)c/c1=C/c1[n-]c(=O)[n-]c1O (cis-trans isomerization)
C=c1cnc(C(=O)N2C[C@@](O)(C3CC3)C(=O)N(C)C2=O)c/c1=C/c1[n-]c(=O)[n-]c1O (3D coordinates assigned)
C=c1cnc(C(=O)N2C[C@@](O)(C3CC3)C(=O)N(C)C2=O)c/c1=C/c1[n-]c(=O)[n-]c1O (nonaromatic ring conformer: 375.38514713949127 kcal/mol)

>  <smiles>  (21) 
C=c1cnc(C(=O)N2CC(O)(C3CC3)C(=O)N(C)C2=O)cc1=Cc1[nH]c(=O)[nH]c1O

>  <score_type>  (21) 
oracle

>  <origin>  (21) 
adg

>  <m_score__min__energy>  (21) 
-13.44

>  <m_primary>  (21) 
energy

$$$$
21:0
     RDKit          3D

 43 46  0  0  0  0  0  0  0  0999 V2000
   58.2730   32.3330   50.7560 C   0  0  0  0  0  0  0  0  0  0  0  0
   59.4330   32.8630   49.9780 C   0  0  0  0  0  0  0  0  0  0  0  0
   59.3140   33.9630   49.3740 O   0  0  0  0  0  0  0  0  0  0  0  0
   60.6880   32.1640   49.9830 N   0  0  0  0  0  0  0  0  0  0  0  0
   61.8050   32.5200   49.1470 C   0  0  0  0  0  0  0  0  0  0  0  0
   62.9750   33.0570   49.7150 C   0  0  0  0  0  0  0  0  0  0  0  0
   64.0350   33.4680   48.9020 C   0  0  0  0  0  0  0  0  0  0  0  0
   63.9350   33.3630   47.5150 C   0  0  0  0  0  0  0  0  0  0  0  0
   62.7750   32.8470   46.9340 C   0  0  0  0  0  0  0  0  0  0  0  0
   61.7060   32.4180   47.7380 C   0  0  0  0  0  0  0  0  0  0  0  0
   60.4990   31.8580   47.0850 C   0  0  0  0  0  0  0  0  0  0  0  0
   60.2900   30.4720   47.0970 C   0  0  0  0  0  0  0  0  0  0  0  0
   59.1630   29.9140   46.4730 C   0  0  0  0  0  0  0  0  0  0  0  0
   58.9470   28.4430   46.4650 C   0  0  0  0  0  0  0  0  0  0  0  0
   60.0350   27.5630   46.6060 C   0  0  0  0  0  0  0  0  0  0  0  0
   59.8370   26.1800   46.6080 C   0  0  0  0  0  0  0  0  0  0  0  0
   58.5500   25.6540   46.4710 C   0  0  0  0  0  0  0  0  0  0  0  0
   58.3590   24.3090   46.4770 N   0  0  0  0  0  0  0  0  0  0  0  0
   57.1170   23.7780   46.3460 C   0  0  0  0  0  0  0  0  0  0  0  0
   56.0380   24.5910   46.2050 N   0  0  0  0  0  0  0  0  0  0  0  0
   56.1700   25.9440   46.1920 C   0  0  0  0  0  0  0  0  0  0  0  0
   55.1440   26.6630   46.0600 O   0  0  0  0  0  0  0  0  0  0  0  0
   57.4450   26.5200   46.3280 C   0  0  0  0  0  0  0  0  0  0  0  0
   57.6500   27.9120   46.3230 C   0  0  0  0  0  0  0  0  0  0  0  0
   58.2490   30.7790   45.8500 C   0  0  0  0  0  0  0  0  0  0  0  0
   58.4590   32.1210   45.8580 N   0  0  0  0  0  0  0  0  0  0  0  0
   59.5480   32.6820   46.4510 C   0  0  0  0  0  0  0  0  0  0  0  0
   59.6900   33.9700   46.4430 N   0  0  0  0  0  0  0  0  0  0  0  0
   58.4795   32.4274   51.8323 H   0  0  0  0  0  0  0  0  0  0  0  0
   57.3694   32.9076   50.5043 H   0  0  0  0  0  0  0  0  0  0  0  0
   58.1159   31.2738   50.5043 H   0  0  0  0  0  0  0  0  0  0  0  0
   60.8120   31.3900   50.6750 H   0  0  0  0  0  0  0  0  0  0  0  0
   63.0561   33.1541   50.8077 H   0  0  0  0  0  0  0  0  0  0  0  0
   64.9500   33.8751   49.3571 H   0  0  0  0  0  0  0  0  0  0  0  0
   64.7711   33.6871   46.8779 H   0  0  0  0  0  0  0  0  0  0  0  0
   62.6977   32.7759   45.8390 H   0  0  0  0  0  0  0  0  0  0  0  0
   61.0155   29.8157   47.5998 H   0  0  0  0  0  0  0  0  0  0  0  0
   61.0520   27.9676   46.7158 H   0  0  0  0  0  0  0  0  0  0  0  0
   60.6971   25.5031   46.7178 H   0  0  0  0  0  0  0  0  0  0  0  0
   56.9837   22.6861   46.3540 H   0  0  0  0  0  0  0  0  0  0  0  0
   56.7917   28.5902   46.2074 H   0  0  0  0  0  0  0  0  0  0  0  0
   57.3582   30.3677   45.3528 H   0  0  0  0  0  0  0  0  0  0  0  0
   59.7280   34.5220   47.3280 H   0  0  0  0  0  0  0  0  0  0  0  0
  1  2  1  0
  2  3  2  0
  2  4  1  0
  4  5  1  0
  5  6  2  0
  6  7  1  0
  7  8  2  0
  8  9  1  0
  9 10  2  0
 10 11  1  0
 11 12  2  0
 12 13  1  0
 13 14  1  0
 14 15  2  0
 15 16  1  0
 16 17  2  0
 17 18  1  0
 18 19  2  0
 19 20  1  0
 20 21  1  0
 21 22  2  0
 21 23  1  0
 23 24  2  0
 13 25  2  0
 25 26  1  0
 26 27  1  0
 27 28  2  3
 10  5  1  0
 27 11  1  0
 24 14  1  0
 23 17  1  0
  1 29  1  0
  1 30  1  0
  1 31  1  0
  4 32  1  0
  6 33  1  0
  7 34  1  0
  8 35  1  0
  9 36  1  0
 12 37  1  0
 15 38  1  0
 16 39  1  0
 19 40  1  0
 24 41  1  0
 25 42  1  0
 28 43  1  0
M  CHG  2  20  -1  26  -1
M  END
>  <UniqueID>  (22) 
21

>  <SMILES>  (22) 
CC(=O)Nc1ccccc1-c1cc(-c2ccc3nc[n-]c(=O)c3c2)c[n-]c1=N

>  <Energy>  (22) 
68.76615323018227

>  <Genealogy>  (22) 
CC(=O)Nc1ccccc1-c1cc(-c2ccc3nc[n-]c(=O)c3c2)c[n-]c1=N (protonated)
CC(=O)Nc1ccccc1-c1cc(-c2ccc3nc[n-]c(=O)c3c2)c[n-]c1=N (3D coordinates assigned)
CC(=O)Nc1ccccc1-c1cc(-c2ccc3nc[n-]c(=O)c3c2)c[n-]c1=N (optimized conformer: 68.76615323018227 kcal/mol)

>  <smiles>  (22) 
CC(=O)Nc1ccccc1-c1cc(-c2ccc3nc[nH]c(=O)c3c2)c[nH]c1=N

>  <score_type>  (22) 
oracle

>  <origin>  (22) 
adg

>  <m_score__min__energy>  (22) 
-11.279999999999999

>  <m_primary>  (22) 
energy

$$$$
22:0
     RDKit          3D

 50 53  0  0  0  0  0  0  0  0999 V2000
   59.6860   32.1700   45.9260 O   0  0  0  0  0  0  0  0  0  0  0  0
   58.5540   32.4890   45.4690 C   0  0  0  0  0  0  0  0  0  0  0  0
   58.0800   33.9050   45.6710 C   0  0  0  0  0  0  0  0  0  0  0  0
   59.3940   35.1440   45.3820 S   0  0  0  0  0  0  0  0  0  0  0  0
   60.5070   34.5950   46.6790 C   0  0  0  0  0  0  0  0  0  0  0  0
   60.0610   34.5510   48.0020 C   0  0  0  0  0  0  0  0  0  0  0  0
   60.9030   34.0440   48.9920 C   0  0  0  0  0  0  0  0  0  0  0  0
   62.1960   33.6160   48.6610 C   0  0  0  0  0  0  0  0  0  0  0  0
   63.0730   33.0160   49.6870 C   0  0  0  0  0  0  0  0  0  0  0  0
   64.0040   33.6980   50.1890 O   0  0  0  0  0  0  0  0  0  0  0  0
   62.8550   31.6840   50.1610 N   0  0  0  0  0  0  0  0  0  0  0  0
   61.7440   30.8570   49.7850 C   0  0  0  0  0  0  0  0  0  0  0  0
   61.5100   30.6110   48.4270 C   0  0  0  0  0  0  0  0  0  0  0  0
   60.3880   29.8800   48.0250 C   0  0  0  0  0  0  0  0  0  0  0  0
   59.4820   29.4050   48.9780 C   0  0  0  0  0  0  0  0  0  0  0  0
   58.3880   28.7070   48.5860 F   0  0  0  0  0  0  0  0  0  0  0  0
   59.7030   29.6560   50.3350 C   0  0  0  0  0  0  0  0  0  0  0  0
   60.8330   30.3720   50.7420 C   0  0  0  0  0  0  0  0  0  0  0  0
   62.6160   33.7110   47.3250 C   0  0  0  0  0  0  0  0  0  0  0  0
   61.7620   34.1720   46.3710 N   0  0  0  0  0  0  0  0  0  0  0  0
   57.7710   31.4880   44.6970 C   0  0  0  0  0  0  0  0  0  0  0  0
   57.5680   31.6780   43.3180 C   0  0  0  0  0  0  0  0  0  0  0  0
   56.8070   30.7690   42.5800 C   0  0  0  0  0  0  0  0  0  0  0  0
   56.2340   29.6610   43.2060 C   0  0  0  0  0  0  0  0  0  0  0  0
   56.4240   29.4520   44.5810 C   0  0  0  0  0  0  0  0  0  0  0  0
   55.8900   28.3000   45.2480 N   0  0  0  0  0  0  0  0  0  0  0  0
   56.6450   27.2590   45.8830 C   0  0  0  0  0  0  0  0  0  0  0  0
   56.0290   26.2760   46.3740 O   0  0  0  0  0  0  0  0  0  0  0  0
   58.1170   27.2750   45.9100 C   0  0  0  0  0  0  0  0  0  0  0  0
   58.9170   26.5270   46.7520 C   0  0  0  0  0  0  0  0  0  0  0  0
   60.2150   26.8510   46.4180 C   0  0  0  0  0  0  0  0  0  0  0  0
   60.1280   27.7700   45.3920 C   0  0  0  0  0  0  0  0  0  0  0  0
   58.8660   28.0000   45.1100 O   0  0  0  0  0  0  0  0  0  0  0  0
   57.2160   30.3460   45.3100 C   0  0  0  0  0  0  0  0  0  0  0  0
   57.2530   34.1012   44.9727 H   0  0  0  0  0  0  0  0  0  0  0  0
   57.7619   34.0000   46.7197 H   0  0  0  0  0  0  0  0  0  0  0  0
   59.0550   34.9128   48.2609 H   0  0  0  0  0  0  0  0  0  0  0  0
   60.5521   33.9801   50.0326 H   0  0  0  0  0  0  0  0  0  0  0  0
   62.2123   30.9947   47.6724 H   0  0  0  0  0  0  0  0  0  0  0  0
   60.2178   29.6783   46.9571 H   0  0  0  0  0  0  0  0  0  0  0  0
   58.9863   29.2894   51.0846 H   0  0  0  0  0  0  0  0  0  0  0  0
   61.0102   30.5565   51.8118 H   0  0  0  0  0  0  0  0  0  0  0  0
   63.6379   33.4121   47.0485 H   0  0  0  0  0  0  0  0  0  0  0  0
   58.0126   32.5503   42.8166 H   0  0  0  0  0  0  0  0  0  0  0  0
   56.6586   30.9268   41.5015 H   0  0  0  0  0  0  0  0  0  0  0  0
   55.6323   28.9501   42.6207 H   0  0  0  0  0  0  0  0  0  0  0  0
   58.5872   25.8200   47.5275 H   0  0  0  0  0  0  0  0  0  0  0  0
   61.1339   26.4568   46.8765 H   0  0  0  0  0  0  0  0  0  0  0  0
   60.9855   28.2387   44.8870 H   0  0  0  0  0  0  0  0  0  0  0  0
   57.4083   30.1552   46.3761 H   0  0  0  0  0  0  0  0  0  0  0  0
  1  2  2  0
  2  3  1  0
  3  4  1  0
  4  5  1  0
  5  6  2  0
  6  7  1  0
  7  8  2  0
  8  9  1  0
  9 10  2  0
  9 11  1  0
 11 12  1  0
 12 13  2  0
 13 14  1  0
 14 15  2  0
 15 16  1  0
 15 17  1  0
 17 18  2  0
  8 19  1  0
 19 20  2  0
  2 21  1  0
 21 22  2  0
 22 23  1  0
 23 24  2  0
 24 25  1  0
 25 26  1  0
 26 27  1  0
 27 28  2  0
 27 29  1  0
 29 30  2  0
 30 31  1  0
 31 32  2  0
 32 33  1  0
 25 34  2  0
 20  5  1  0
 34 21  1  0
 18 12  1  0
 33 29  1  0
  3 35  1  0
  3 36  1  0
  6 37  1  0
  7 38  1  0
 13 39  1  0
 14 40  1  0
 17 41  1  0
 18 42  1  0
 19 43  1  0
 22 44  1  0
 23 45  1  0
 24 46  1  0
 30 47  1  0
 31 48  1  0
 32 49  1  0
 34 50  1  0
M  CHG  2  11  -1  26  -1
M  END
>  <UniqueID>  (23) 
22

>  <SMILES>  (23) 
O=C(CSc1ccc(C(=O)[N-]c2ccc(F)cc2)cn1)c1cccc([N-]C(=O)c2ccco2)c1

>  <Energy>  (23) 
89.60943756012114

>  <Genealogy>  (23) 
O=C(CSc1ccc(C(=O)[N-]c2ccc(F)cc2)cn1)c1cccc([N-]C(=O)c2ccco2)c1 (protonated)
O=C(CSc1ccc(C(=O)[N-]c2ccc(F)cc2)cn1)c1cccc([N-]C(=O)c2ccco2)c1 (3D coordinates assigned)
O=C(CSc1ccc(C(=O)[N-]c2ccc(F)cc2)cn1)c1cccc([N-]C(=O)c2ccco2)c1 (optimized conformer: 89.60943756012114 kcal/mol)

>  <smiles>  (23) 
O=C(CSc1ccc(C(=O)Nc2ccc(F)cc2)cn1)c1cccc(NC(=O)c2ccco2)c1

>  <score_type>  (23) 
oracle

>  <origin>  (23) 
adg

>  <m_score__min__energy>  (23) 
-12.93

>  <m_primary>  (23) 
energy

$$$$
23:0
     RDKit          3D

 31 32  0  0  0  0  0  0  0  0999 V2000
   58.3980   33.3260   44.4570 C   0  0  0  0  0  0  0  0  0  0  0  0
   57.2880   32.6850   45.2320 C   0  0  0  0  0  0  0  0  0  0  0  0
   56.9180   33.2120   46.3140 O   0  0  0  0  0  0  0  0  0  0  0  0
   56.6590   31.4710   44.8010 N   0  0  0  0  0  0  0  0  0  0  0  0
   57.1870   30.1440   44.9210 C   0  0  0  0  0  0  0  0  0  0  0  0
   57.7420   29.7450   46.1430 C   0  0  0  0  0  0  0  0  0  0  0  0
   58.2420   28.4490   46.3050 C   0  0  0  0  0  0  0  0  0  0  0  0
   58.1820   27.5280   45.2420 C   0  0  0  0  0  0  0  0  0  0  0  0
   58.6600   26.2150   45.3610 O   0  0  0  0  0  0  0  0  0  0  0  0
   57.9090   25.1170   45.7980 C   0  0  0  0  0  0  0  0  0  0  0  0
   57.8070   24.8440   47.0250 O   0  0  0  0  0  0  0  0  0  0  0  0
   57.2300   24.2500   44.7890 C   0  0  0  0  0  0  0  0  0  0  0  0
   55.7560   24.2390   45.0400 C   0  0  0  0  0  0  0  0  0  0  0  0
   54.9290   23.2560   44.6400 N   0  0  0  0  0  0  0  0  0  0  0  0
   53.7120   23.7040   45.0180 C   0  0  0  0  0  0  0  0  0  0  0  0
   52.6580   23.0460   44.8190 O   0  0  0  0  0  0  0  0  0  0  0  0
   53.7120   24.9120   45.6200 N   0  0  0  0  0  0  0  0  0  0  0  0
   55.0150   25.2400   45.6200 C   0  0  0  0  0  0  0  0  0  0  0  0
   55.5180   26.4310   46.1310 O   0  0  0  0  0  0  0  0  0  0  0  0
   57.5830   27.9150   44.0380 C   0  0  0  0  0  0  0  0  0  0  0  0
   57.0850   29.2110   43.8760 C   0  0  0  0  0  0  0  0  0  0  0  0
   59.1344   33.7513   45.1548 H   0  0  0  0  0  0  0  0  0  0  0  0
   58.8865   32.5710   43.8235 H   0  0  0  0  0  0  0  0  0  0  0  0
   57.9882   34.1265   43.8235 H   0  0  0  0  0  0  0  0  0  0  0  0
   57.7850   30.4558   46.9814 H   0  0  0  0  0  0  0  0  0  0  0  0
   58.6837   28.1482   47.2665 H   0  0  0  0  0  0  0  0  0  0  0  0
   57.4256   24.6421   43.7800 H   0  0  0  0  0  0  0  0  0  0  0  0
   57.6198   23.2246   44.8704 H   0  0  0  0  0  0  0  0  0  0  0  0
   56.4840   26.4980   46.4280 H   0  0  0  0  0  0  0  0  0  0  0  0
   57.5034   27.1931   43.2119 H   0  0  0  0  0  0  0  0  0  0  0  0
   56.6114   29.5013   42.9266 H   0  0  0  0  0  0  0  0  0  0  0  0
  1  2  1  0
  2  3  2  0
  2  4  1  0
  4  5  1  0
  5  6  2  0
  6  7  1  0
  7  8  2  0
  8  9  1  0
  9 10  1  0
 10 11  2  0
 10 12  1  0
 12 13  1  0
 13 14  1  0
 14 15  1  0
 15 16  2  0
 15 17  1  0
 17 18  1  0
 18 19  1  0
  8 20  1  0
 20 21  2  0
 21  5  1  0
 18 13  2  0
  1 22  1  0
  1 23  1  0
  1 24  1  0
  6 25  1  0
  7 26  1  0
 12 27  1  0
 12 28  1  0
 19 29  1  0
 20 30  1  0
 21 31  1  0
M  CHG  3   4  -1  14  -1  17  -1
M  END
>  <UniqueID>  (24) 
23

>  <SMILES>  (24) 
CC(=O)[N-]c1ccc(OC(=O)Cc2[n-]c(=O)[n-]c2O)cc1

>  <Energy>  (24) 
65.06210899594923

>  <Genealogy>  (24) 
CC(=O)[N-]c1ccc(OC(=O)Cc2[n-]c(=O)[n-]c2O)cc1 (protonated)
CC(=O)[N-]c1ccc(OC(=O)Cc2[n-]c(=O)[n-]c2O)cc1 (3D coordinates assigned)
CC(=O)[N-]c1ccc(OC(=O)Cc2[n-]c(=O)[n-]c2O)cc1 (optimized conformer: 65.06210899594923 kcal/mol)

>  <smiles>  (24) 
CC(=O)Nc1ccc(OC(=O)Cc2[nH]c(=O)[nH]c2O)cc1

>  <score_type>  (24) 
oracle

>  <origin>  (24) 
adg

>  <m_score__min__energy>  (24) 
-11.91

>  <m_primary>  (24) 
energy

$$$$
24:0
     RDKit          3D

 35 37  0  0  0  0  0  0  0  0999 V2000
   64.2081   33.8040   46.0138 H   0  0  0  0  0  0  0  0  0  0  0  0
   63.4160   33.7920   46.7770 C   0  0  0  0  0  0  0  0  0  0  0  0
   63.7610   33.8380   48.1440 C   0  0  0  0  0  0  0  0  0  0  0  0
   64.8194   33.8874   48.4397 H   0  0  0  0  0  0  0  0  0  0  0  0
   62.7600   33.8210   49.1300 C   0  0  0  0  0  0  0  0  0  0  0  0
   63.0179   33.8585   50.1987 H   0  0  0  0  0  0  0  0  0  0  0  0
   61.4270   33.7550   48.7140 C   0  0  0  0  0  0  0  0  0  0  0  0
   61.0900   33.7110   47.3810 C   0  0  0  0  0  0  0  0  0  0  0  0
   62.0680   33.7310   46.3820 C   0  0  0  0  0  0  0  0  0  0  0  0
   61.7909   33.6999   45.3179 H   0  0  0  0  0  0  0  0  0  0  0  0
   59.7030   33.6740   47.3140 C   0  0  0  0  0  0  0  0  0  0  0  0
   58.8460   33.6110   46.1110 C   0  0  0  0  0  0  0  0  0  0  0  0
   58.7900   34.6040   45.3370 O   0  0  0  0  0  0  0  0  0  0  0  0
   58.0500   32.4390   45.8510 N   0  0  0  0  0  0  0  0  0  0  0  0
   57.7860   31.8500   46.6730 H   0  0  0  0  0  0  0  0  0  0  0  0
   57.6410   32.0530   44.6730 C   0  0  0  0  0  0  0  0  0  0  0  0
   56.4310   30.7720   44.3800 S   0  0  0  0  0  0  0  0  0  0  0  0
   57.0070   30.7020   42.6470 C   0  0  0  0  0  0  0  0  0  0  0  0
   56.1561   30.4882   41.9834 H   0  0  0  0  0  0  0  0  0  0  0  0
   57.7586   29.9066   42.5359 H   0  0  0  0  0  0  0  0  0  0  0  0
   57.6230   32.0540   42.2740 C   0  0  0  0  0  0  0  0  0  0  0  0
   56.8551   32.7074   41.8342 H   0  0  0  0  0  0  0  0  0  0  0  0
   58.4271   31.9212   41.5352 H   0  0  0  0  0  0  0  0  0  0  0  0
   58.1420   32.6500   43.4890 N   0  0  0  0  0  0  0  0  0  0  0  0
   58.7500   33.4990   43.4840 H   0  0  0  0  0  0  0  0  0  0  0  0
   59.2650   33.6960   48.6370 C   0  0  0  0  0  0  0  0  0  0  0  0
   58.2102   33.6834   48.9487 H   0  0  0  0  0  0  0  0  0  0  0  0
   60.3190   33.7350   49.4840 N   0  0  0  0  0  0  0  0  0  0  0  0
   60.2400   33.8200   50.9430 C   0  0  0  0  0  0  0  0  0  0  0  0
   60.3082   34.8744   51.2491 H   0  0  0  0  0  0  0  0  0  0  0  0
   61.0703   33.2457   51.3799 H   0  0  0  0  0  0  0  0  0  0  0  0
   58.9220   33.2380   51.4370 C   0  0  0  0  0  0  0  0  0  0  0  0
   58.9124   33.2338   52.5370 H   0  0  0  0  0  0  0  0  0  0  0  0
   58.0881   33.8516   51.0654 H   0  0  0  0  0  0  0  0  0  0  0  0
   58.8137   32.2083   51.0654 H   0  0  0  0  0  0  0  0  0  0  0  0
  1  2  1  0
  2  3  2  0
  3  4  1  0
  3  5  1  0
  5  6  1  0
  5  7  2  0
  7  8  1  0
  8  9  2  0
  9 10  1  0
  8 11  1  0
 11 12  1  0
 12 13  2  0
 12 14  1  0
 14 15  1  0
 14 16  2  0
 16 17  1  0
 17 18  1  0
 18 19  1  0
 18 20  1  0
 18 21  1  0
 21 22  1  0
 21 23  1  0
 21 24  1  0
 24 25  1  0
 11 26  2  0
 26 27  1  0
 26 28  1  0
 28 29  1  0
 29 30  1  0
 29 31  1  0
 29 32  1  0
 32 33  1  0
 32 34  1  0
 32 35  1  0
  9  2  1  0
 24 16  1  0
 28  7  1  0
M  CHG  1  14   1
M  END
>  <UniqueID>  (25) 
24

>  <SMILES>  (25) 
CCn1cc(C(=O)/[NH+]=C2/NCCS2)c2ccccc21

>  <Energy>  (25) 
77.32106339644207

>  <Genealogy>  (25) 
CCn1cc(C(=O)[NH+]=C2NCCS2)c2ccccc21 (protonated)
CCn1cc(C(=O)/[NH+]=C2/NCCS2)c2ccccc21 (cis-trans isomerization)
CCn1cc(C(=O)/[NH+]=C2/NCCS2)c2ccccc21 (3D coordinates assigned)
CCn1cc(C(=O)/[NH+]=C2/NCCS2)c2ccccc21 (nonaromatic ring conformer: 77.32106339644207 kcal/mol)

>  <smiles>  (25) 
CCn1cc(C(=O)N=C2NCCS2)c2ccccc21

>  <score_type>  (25) 
oracle

>  <origin>  (25) 
adg

>  <m_score__min__energy>  (25) 
-6.0700000000000003

>  <m_primary>  (25) 
energy

$$$$
25:0
     RDKit          3D

 50 52  0  0  0  0  0  0  0  0999 V2000
   61.6900   32.8840   49.9150 C   0  0  0  0  0  0  0  0  0  0  0  0
   60.3070   32.5760   50.4230 C   0  0  0  0  0  0  0  0  0  0  0  0
   59.8650   33.1890   51.6090 C   0  0  0  0  0  0  0  0  0  0  0  0
   58.5910   32.9290   52.1140 C   0  0  0  0  0  0  0  0  0  0  0  0
   57.7430   32.0300   51.4610 C   0  0  0  0  0  0  0  0  0  0  0  0
   56.4240   31.7890   51.9720 N   0  0  0  0  0  0  0  0  0  0  0  0
   56.1660   30.7940   52.9670 C   0  0  0  0  0  0  0  0  0  0  0  0
   56.9070   30.7130   53.9840 O   0  0  0  0  0  0  0  0  0  0  0  0
   55.1020   29.7690   52.7420 C   0  0  0  0  0  0  0  0  0  0  0  0
   53.8090   30.4720   52.4360 C   0  0  0  0  0  0  0  0  0  0  0  0
   53.5350   30.9180   51.1310 C   0  0  0  0  0  0  0  0  0  0  0  0
   52.3770   31.6530   50.8660 C   0  0  0  0  0  0  0  0  0  0  0  0
   51.4900   31.9630   51.9020 C   0  0  0  0  0  0  0  0  0  0  0  0
   50.3430   32.7020   51.6370 O   0  0  0  0  0  0  0  0  0  0  0  0
   51.7620   31.5340   53.2060 C   0  0  0  0  0  0  0  0  0  0  0  0
   52.9180   30.7930   53.4740 C   0  0  0  0  0  0  0  0  0  0  0  0
   58.1710   31.4220   50.2710 C   0  0  0  0  0  0  0  0  0  0  0  0
   59.4460   31.6770   49.7460 C   0  0  0  0  0  0  0  0  0  0  0  0
   59.9080   30.9110   48.2140 S   0  0  0  0  0  0  0  0  0  0  0  0
   59.1040   29.6570   48.0070 O   0  0  0  0  0  0  0  0  0  0  0  0
   61.3700   30.5610   48.2830 O   0  0  0  0  0  0  0  0  0  0  0  0
   59.6370   31.9980   46.8680 N   0  0  0  0  0  0  0  0  0  0  0  0
   60.7570   32.9630   46.7210 C   0  0  0  0  0  0  0  0  0  0  0  0
   60.4240   34.3590   47.2670 C   0  0  0  0  0  0  0  0  0  0  0  0
   59.1930   34.9530   46.5620 C   0  0  0  0  0  0  0  0  0  0  0  0
   58.1850   33.8780   46.1210 C   0  0  0  0  0  0  0  0  0  0  0  0
   58.3010   32.6230   46.9890 C   0  0  0  0  0  0  0  0  0  0  0  0
   62.3685   33.0351   50.7675 H   0  0  0  0  0  0  0  0  0  0  0  0
   62.0513   32.0443   49.3031 H   0  0  0  0  0  0  0  0  0  0  0  0
   61.6608   33.7977   49.3031 H   0  0  0  0  0  0  0  0  0  0  0  0
   60.5314   33.8813   52.1444 H   0  0  0  0  0  0  0  0  0  0  0  0
   58.2520   33.4339   53.0306 H   0  0  0  0  0  0  0  0  0  0  0  0
   55.6160   32.3050   51.5560 H   0  0  0  0  0  0  0  0  0  0  0  0
   55.3821   29.1251   51.8953 H   0  0  0  0  0  0  0  0  0  0  0  0
   54.9855   29.1474   53.6421 H   0  0  0  0  0  0  0  0  0  0  0  0
   54.2357   30.6871   50.3151 H   0  0  0  0  0  0  0  0  0  0  0  0
   52.1624   31.9886   49.8407 H   0  0  0  0  0  0  0  0  0  0  0  0
   51.0659   31.7798   54.0215 H   0  0  0  0  0  0  0  0  0  0  0  0
   53.1301   30.4605   54.5009 H   0  0  0  0  0  0  0  0  0  0  0  0
   57.4954   30.7342   49.7414 H   0  0  0  0  0  0  0  0  0  0  0  0
   61.6293   32.5728   47.2658 H   0  0  0  0  0  0  0  0  0  0  0  0
   60.9584   33.0708   45.6450 H   0  0  0  0  0  0  0  0  0  0  0  0
   60.2182   34.2830   48.3449 H   0  0  0  0  0  0  0  0  0  0  0  0
   61.2839   35.0196   47.0819 H   0  0  0  0  0  0  0  0  0  0  0  0
   58.6901   35.6439   47.2546 H   0  0  0  0  0  0  0  0  0  0  0  0
   59.5455   35.4692   45.6568 H   0  0  0  0  0  0  0  0  0  0  0  0
   57.1662   34.2831   46.2099 H   0  0  0  0  0  0  0  0  0  0  0  0
   58.4026   33.6025   45.0785 H   0  0  0  0  0  0  0  0  0  0  0  0
   58.1299   32.8989   48.0400 H   0  0  0  0  0  0  0  0  0  0  0  0
   57.5493   31.8969   46.6459 H   0  0  0  0  0  0  0  0  0  0  0  0
  1  2  1  0
  2  3  2  0
  3  4  1  0
  4  5  2  0
  5  6  1  0
  6  7  1  0
  7  8  2  0
  7  9  1  0
  9 10  1  0
 10 11  2  0
 11 12  1  0
 12 13  2  0
 13 14  1  0
 13 15  1  0
 15 16  2  0
  5 17  1  0
 17 18  2  0
 18 19  1  0
 19 20  2  0
 19 21  2  0
 19 22  1  0
 22 23  1  0
 23 24  1  0
 24 25  1  0
 25 26  1  0
 26 27  1  0
 18  2  1  0
 27 22  1  0
 16 10  1  0
  1 28  1  0
  1 29  1  0
  1 30  1  0
  3 31  1  0
  4 32  1  0
  6 33  1  0
  9 34  1  0
  9 35  1  0
 11 36  1  0
 12 37  1  0
 15 38  1  0
 16 39  1  0
 17 40  1  0
 23 41  1  0
 23 42  1  0
 24 43  1  0
 24 44  1  0
 25 45  1  0
 25 46  1  0
 26 47  1  0
 26 48  1  0
 27 49  1  0
 27 50  1  0
M  CHG  1  14  -1
M  END
>  <UniqueID>  (26) 
25

>  <SMILES>  (26) 
Cc1ccc(NC(=O)Cc2ccc([O-])cc2)cc1S(=O)(=O)N1CCCCC1

>  <Energy>  (26) 
57.756932082165356

>  <Genealogy>  (26) 
Cc1ccc(NC(=O)Cc2ccc([O-])cc2)cc1S(=O)(=O)N1CCCCC1 (protonated)
Cc1ccc(NC(=O)Cc2ccc([O-])cc2)cc1S(=O)(=O)N1CCCCC1 (3D coordinates assigned)
Cc1ccc(NC(=O)Cc2ccc([O-])cc2)cc1S(=O)(=O)N1CCCCC1 (nonaromatic ring conformer: 57.756932082165356 kcal/mol)

>  <smiles>  (26) 
Cc1ccc(NC(=O)Cc2ccc(O)cc2)cc1S(=O)(=O)N1CCCCC1

>  <score_type>  (26) 
oracle

>  <origin>  (26) 
adg

>  <m_score__min__energy>  (26) 
-13.289999999999999

>  <m_primary>  (26) 
energy

$$$$
26:0
     RDKit          3D

 48 49  0  0  0  0  0  0  0  0999 V2000
   60.1150   26.3550   46.6830 C   0  0  0  0  0  0  0  0  0  0  0  0
   58.9080   25.8070   46.5380 C   0  0  0  0  0  0  0  0  0  0  0  0
   57.6930   26.4390   47.1610 C   0  0  0  0  0  0  0  0  0  0  0  0
   57.1220   27.5160   46.2790 C   0  0  0  0  0  0  0  0  0  0  0  0
   57.6260   28.7850   46.0280 C   0  0  0  0  0  0  0  0  0  0  0  0
   58.8710   29.3950   46.5400 C   0  0  0  0  0  0  0  0  0  0  0  0
   59.8860   29.7960   45.6630 C   0  0  0  0  0  0  0  0  0  0  0  0
   61.0520   30.3670   46.1690 C   0  0  0  0  0  0  0  0  0  0  0  0
   61.2040   30.5490   47.5540 C   0  0  0  0  0  0  0  0  0  0  0  0
   62.3580   31.1190   48.1230 O   0  0  0  0  0  0  0  0  0  0  0  0
   63.4210   31.7380   47.3980 C   0  0  0  0  0  0  0  0  0  0  0  0
   63.1790   33.2400   47.2660 C   0  0  0  0  0  0  0  0  0  0  0  0
   61.9920   33.5770   47.9480 O   0  0  0  0  0  0  0  0  0  0  0  0
   61.0460   34.0860   47.0310 C   0  0  0  0  0  0  0  0  0  0  0  0
   59.6440   33.6620   47.4610 C   0  0  0  0  0  0  0  0  0  0  0  0
   59.6850   33.0400   48.7330 O   0  0  0  0  0  0  0  0  0  0  0  0
   59.6670   34.0110   49.7610 C   0  0  0  0  0  0  0  0  0  0  0  0
   60.8290   33.7570   50.7180 C   0  0  0  0  0  0  0  0  0  0  0  0
   61.4540   32.5380   50.4220 O   0  0  0  0  0  0  0  0  0  0  0  0
   60.1570   30.1590   48.3980 C   0  0  0  0  0  0  0  0  0  0  0  0
   60.2620   30.3180   49.6440 O   0  0  0  0  0  0  0  0  0  0  0  0
   59.0260   29.6020   47.8810 N   0  0  0  0  0  0  0  0  0  0  0  0
   56.6820   29.4310   45.2480 C   0  0  0  0  0  0  0  0  0  0  0  0
   55.6320   28.6260   44.9920 N   0  0  0  0  0  0  0  0  0  0  0  0
   55.9070   27.4700   45.6230 C   0  0  0  0  0  0  0  0  0  0  0  0
   55.0480   26.3780   45.6120 O   0  0  0  0  0  0  0  0  0  0  0  0
   60.9935   25.8806   46.2212 H   0  0  0  0  0  0  0  0  0  0  0  0
   60.2322   27.2814   47.2644 H   0  0  0  0  0  0  0  0  0  0  0  0
   58.7992   24.8805   45.9551 H   0  0  0  0  0  0  0  0  0  0  0  0
   56.9286   25.6643   47.3207 H   0  0  0  0  0  0  0  0  0  0  0  0
   57.9912   26.8954   48.1164 H   0  0  0  0  0  0  0  0  0  0  0  0
   59.7634   29.6608   44.5782 H   0  0  0  0  0  0  0  0  0  0  0  0
   61.8547   30.6758   45.4832 H   0  0  0  0  0  0  0  0  0  0  0  0
   64.3682   31.5700   47.9316 H   0  0  0  0  0  0  0  0  0  0  0  0
   63.4675   31.2967   46.3915 H   0  0  0  0  0  0  0  0  0  0  0  0
   64.0248   33.7895   47.7049 H   0  0  0  0  0  0  0  0  0  0  0  0
   63.0853   33.5086   46.2034 H   0  0  0  0  0  0  0  0  0  0  0  0
   61.1076   35.1841   47.0117 H   0  0  0  0  0  0  0  0  0  0  0  0
   61.2578   33.6901   46.0268 H   0  0  0  0  0  0  0  0  0  0  0  0
   58.9965   34.5498   47.5123 H   0  0  0  0  0  0  0  0  0  0  0  0
   59.2464   32.9464   46.7263 H   0  0  0  0  0  0  0  0  0  0  0  0
   59.7668   35.0140   49.3204 H   0  0  0  0  0  0  0  0  0  0  0  0
   58.7167   33.9464   50.3112 H   0  0  0  0  0  0  0  0  0  0  0  0
   61.5617   34.5718   50.6214 H   0  0  0  0  0  0  0  0  0  0  0  0
   60.4395   33.7156   51.7459 H   0  0  0  0  0  0  0  0  0  0  0  0
   61.1970   32.3050   49.4920 H   0  0  0  0  0  0  0  0  0  0  0  0
   58.2660   29.3100   48.5380 H   0  0  0  0  0  0  0  0  0  0  0  0
   56.7766   30.4651   44.8851 H   0  0  0  0  0  0  0  0  0  0  0  0
  1  2  2  0
  2  3  1  0
  3  4  1  0
  4  5  1  0
  5  6  1  0
  6  7  2  0
  7  8  1  0
  8  9  2  0
  9 10  1  0
 10 11  1  0
 11 12  1  0
 12 13  1  0
 13 14  1  0
 14 15  1  0
 15 16  1  0
 16 17  1  0
 17 18  1  0
 18 19  1  0
  9 20  1  0
 20 21  2  0
 20 22  1  0
  5 23  2  0
 23 24  1  0
 24 25  1  0
 25 26  1  0
 25  4  2  0
 22  6  1  0
  1 27  1  0
  1 28  1  0
  2 29  1  0
  3 30  1  0
  3 31  1  0
  7 32  1  0
  8 33  1  0
 11 34  1  0
 11 35  1  0
 12 36  1  0
 12 37  1  0
 14 38  1  0
 14 39  1  0
 15 40  1  0
 15 41  1  0
 17 42  1  0
 17 43  1  0
 18 44  1  0
 18 45  1  0
 19 46  1  0
 22 47  1  0
 23 48  1  0
M  CHG  2  24  -1  26  -1
M  END
>  <UniqueID>  (27) 
26

>  <SMILES>  (27) 
C=CCc1c(-c2ccc(OCCOCCOCCO)c(=O)[nH]2)c[n-]c1[O-]

>  <Energy>  (27) 
72.53844440817201

>  <Genealogy>  (27) 
C=CCc1c(-c2ccc(OCCOCCOCCO)c(=O)[nH]2)c[n-]c1[O-] (protonated)
C=CCc1c(-c2ccc(OCCOCCOCCO)c(=O)[nH]2)c[n-]c1[O-] (3D coordinates assigned)
C=CCc1c(-c2ccc(OCCOCCOCCO)c(=O)[nH]2)c[n-]c1[O-] (optimized conformer: 72.53844440817201 kcal/mol)

>  <smiles>  (27) 
C=CCc1c(-c2ccc(OCCOCCOCCO)c(=O)[nH]2)c[nH]c1O

>  <score_type>  (27) 
oracle

>  <origin>  (27) 
adg

>  <m_score__min__energy>  (27) 
-11.44

>  <m_primary>  (27) 
energy

$$$$
27:0
     RDKit          3D

 49 52  0  0  0  0  0  0  0  0999 V2000
   57.0460   33.1970   47.4980 O   0  0  0  0  0  0  0  0  0  0  0  0
   58.1540   33.7060   47.1770 C   0  0  0  0  0  0  0  0  0  0  0  0
   58.4290   34.0550   45.7470 C   0  0  0  0  0  0  0  0  0  0  0  0
   57.4150   33.4050   44.7990 C   0  0  0  0  0  0  0  0  0  0  0  0
   57.4540   31.9020   44.8820 C   0  0  0  0  0  0  0  0  0  0  0  0
   58.6700   31.2210   44.9880 C   0  0  0  0  0  0  0  0  0  0  0  0
   58.6770   29.8230   45.0560 C   0  0  0  0  0  0  0  0  0  0  0  0
   59.8860   29.1220   45.1790 C   0  0  0  0  0  0  0  0  0  0  0  0
   59.8850   27.7270   45.2430 C   0  0  0  0  0  0  0  0  0  0  0  0
   58.6820   27.0220   45.1710 C   0  0  0  0  0  0  0  0  0  0  0  0
   57.4700   27.7070   45.0450 C   0  0  0  0  0  0  0  0  0  0  0  0
   57.4560   29.1130   44.9890 C   0  0  0  0  0  0  0  0  0  0  0  0
   56.2550   29.8410   44.8720 C   0  0  0  0  0  0  0  0  0  0  0  0
   55.1470   29.2510   44.7980 O   0  0  0  0  0  0  0  0  0  0  0  0
   56.2860   31.1990   44.8290 N   0  0  0  0  0  0  0  0  0  0  0  0
   59.1600   33.9440   48.1660 N   0  0  0  0  0  0  0  0  0  0  0  0
   59.2890   33.1700   49.3940 C   0  0  0  0  0  0  0  0  0  0  0  0
   59.5130   31.7130   49.0670 C   0  0  0  0  0  0  0  0  0  0  0  0
   58.5360   30.7900   49.4800 C   0  0  0  0  0  0  0  0  0  0  0  0
   58.6800   29.4290   49.2170 C   0  0  0  0  0  0  0  0  0  0  0  0
   59.8160   28.9620   48.5550 C   0  0  0  0  0  0  0  0  0  0  0  0
   60.8130   29.8550   48.1620 C   0  0  0  0  0  0  0  0  0  0  0  0
   60.6760   31.2320   48.4050 C   0  0  0  0  0  0  0  0  0  0  0  0
   61.7570   32.1260   47.9410 C   0  0  0  0  0  0  0  0  0  0  0  0
   62.9550   32.2320   48.6670 C   0  0  0  0  0  0  0  0  0  0  0  0
   63.9650   33.0970   48.2350 C   0  0  0  0  0  0  0  0  0  0  0  0
   63.7720   33.8830   47.0980 C   0  0  0  0  0  0  0  0  0  0  0  0
   62.5700   33.8060   46.3890 C   0  0  0  0  0  0  0  0  0  0  0  0
   61.5620   32.9340   46.8100 C   0  0  0  0  0  0  0  0  0  0  0  0
   58.3764   35.1475   45.6304 H   0  0  0  0  0  0  0  0  0  0  0  0
   59.4297   33.6784   45.4888 H   0  0  0  0  0  0  0  0  0  0  0  0
   56.4055   33.7501   45.0668 H   0  0  0  0  0  0  0  0  0  0  0  0
   57.6733   33.6970   43.7704 H   0  0  0  0  0  0  0  0  0  0  0  0
   59.6164   31.7808   45.0178 H   0  0  0  0  0  0  0  0  0  0  0  0
   60.8372   29.6726   45.2251 H   0  0  0  0  0  0  0  0  0  0  0  0
   60.8345   27.1821   45.3504 H   0  0  0  0  0  0  0  0  0  0  0  0
   58.6880   25.9228   45.2136 H   0  0  0  0  0  0  0  0  0  0  0  0
   56.5255   27.1459   44.9895 H   0  0  0  0  0  0  0  0  0  0  0  0
   60.1433   33.5482   49.9746 H   0  0  0  0  0  0  0  0  0  0  0  0
   58.3643   33.2694   49.9815 H   0  0  0  0  0  0  0  0  0  0  0  0
   57.6456   31.1471   50.0182 H   0  0  0  0  0  0  0  0  0  0  0  0
   57.8977   28.7226   49.5315 H   0  0  0  0  0  0  0  0  0  0  0  0
   59.9255   27.8882   48.3427 H   0  0  0  0  0  0  0  0  0  0  0  0
   61.7146   29.4777   47.6573 H   0  0  0  0  0  0  0  0  0  0  0  0
   63.0989   31.6327   49.5781 H   0  0  0  0  0  0  0  0  0  0  0  0
   64.9119   33.1580   48.7914 H   0  0  0  0  0  0  0  0  0  0  0  0
   64.5668   34.5639   46.7595 H   0  0  0  0  0  0  0  0  0  0  0  0
   62.4170   34.4328   45.4981 H   0  0  0  0  0  0  0  0  0  0  0  0
   60.6143   32.8809   46.2540 H   0  0  0  0  0  0  0  0  0  0  0  0
  1  2  2  0
  2  3  1  0
  3  4  1  0
  4  5  1  0
  5  6  2  0
  6  7  1  0
  7  8  2  0
  8  9  1  0
  9 10  2  0
 10 11  1  0
 11 12  2  0
 12 13  1  0
 13 14  2  0
 13 15  1  0
  2 16  1  0
 16 17  1  0
 17 18  1  0
 18 19  2  0
 19 20  1  0
 20 21  2  0
 21 22  1  0
 22 23  2  0
 23 24  1  0
 24 25  2  0
 25 26  1  0
 26 27  2  0
 27 28  1  0
 28 29  2  0
 15  5  1  0
 23 18  1  0
 29 24  1  0
 12  7  1  0
  3 30  1  0
  3 31  1  0
  4 32  1  0
  4 33  1  0
  6 34  1  0
  8 35  1  0
  9 36  1  0
 10 37  1  0
 11 38  1  0
 17 39  1  0
 17 40  1  0
 19 41  1  0
 20 42  1  0
 21 43  1  0
 22 44  1  0
 25 45  1  0
 26 46  1  0
 27 47  1  0
 28 48  1  0
 29 49  1  0
M  CHG  2  15  -1  16  -1
M  END
>  <UniqueID>  (28) 
27

>  <SMILES>  (28) 
O=C(CCc1cc2ccccc2c(=O)[n-]1)[N-]Cc1ccccc1-c1ccccc1

>  <Energy>  (28) 
55.05147475793591

>  <Genealogy>  (28) 
O=C(CCc1cc2ccccc2c(=O)[n-]1)[N-]Cc1ccccc1-c1ccccc1 (protonated)
O=C(CCc1cc2ccccc2c(=O)[n-]1)[N-]Cc1ccccc1-c1ccccc1 (3D coordinates assigned)
O=C(CCc1cc2ccccc2c(=O)[n-]1)[N-]Cc1ccccc1-c1ccccc1 (optimized conformer: 55.05147475793591 kcal/mol)

>  <smiles>  (28) 
O=C(CCc1cc2ccccc2c(=O)[nH]1)NCc1ccccc1-c1ccccc1

>  <score_type>  (28) 
oracle

>  <origin>  (28) 
adg

>  <m_score__min__energy>  (28) 
-13.539999999999999

>  <m_primary>  (28) 
energy

$$$$
28:0
     RDKit          3D

 50 52  0  0  0  0  0  0  0  0999 V2000
   61.6260   33.4450   51.6500 C   0  0  0  0  0  0  0  0  0  0  0  0
   60.4980   33.5550   52.3570 C   0  0  0  0  0  0  0  0  0  0  0  0
   59.1530   33.6800   51.6900 C   0  0  0  0  0  0  0  0  0  0  0  0
   58.9310   32.5690   50.7380 N   0  0  0  0  0  0  0  0  0  0  0  0
   59.0100   32.7770   49.3740 C   0  0  0  0  0  0  0  0  0  0  0  0
   59.2690   34.0870   48.8320 N   0  0  0  0  0  0  0  0  0  0  0  0
   58.8620   31.6850   48.4920 C   0  0  0  0  0  0  0  0  0  0  0  0
   59.0290   31.8400   47.0710 N   0  0  0  0  0  0  0  0  0  0  0  0
   60.2840   31.3690   46.4650 C   0  0  0  0  0  0  0  0  0  0  0  0
   61.4630   31.8770   47.2520 C   0  0  0  0  0  0  0  0  0  0  0  0
   61.9920   31.1110   48.3030 C   0  0  0  0  0  0  0  0  0  0  0  0
   63.0260   31.6170   49.0940 C   0  0  0  0  0  0  0  0  0  0  0  0
   63.5360   32.9020   48.8530 C   0  0  0  0  0  0  0  0  0  0  0  0
   64.6670   33.4320   49.6830 C   0  0  0  0  0  0  0  0  0  0  0  0
   63.0210   33.6610   47.7920 C   0  0  0  0  0  0  0  0  0  0  0  0
   61.9820   33.1570   47.0030 C   0  0  0  0  0  0  0  0  0  0  0  0
   58.0320   32.5250   46.2790 C   0  0  0  0  0  0  0  0  0  0  0  0
   57.3860   33.4840   46.7830 O   0  0  0  0  0  0  0  0  0  0  0  0
   57.6910   32.0630   44.8840 C   0  0  0  0  0  0  0  0  0  0  0  0
   57.1190   30.6790   44.8910 C   0  0  0  0  0  0  0  0  0  0  0  0
   57.7900   29.5280   45.2720 C   0  0  0  0  0  0  0  0  0  0  0  0
   56.8250   28.5550   45.1600 C   0  0  0  0  0  0  0  0  0  0  0  0
   56.9860   27.3310   45.4080 O   0  0  0  0  0  0  0  0  0  0  0  0
   55.6660   29.0920   44.7490 N   0  0  0  0  0  0  0  0  0  0  0  0
   55.8340   30.3940   44.5890 N   0  0  0  0  0  0  0  0  0  0  0  0
   58.6100   30.4210   49.0270 C   0  0  0  0  0  0  0  0  0  0  0  0
   58.4580   29.4240   48.2710 O   0  0  0  0  0  0  0  0  0  0  0  0
   58.5280   30.2610   50.3650 N   0  0  0  0  0  0  0  0  0  0  0  0
   58.6900   31.3020   51.2180 C   0  0  0  0  0  0  0  0  0  0  0  0
   58.6180   31.0790   52.4570 O   0  0  0  0  0  0  0  0  0  0  0  0
   62.5927   33.3553   52.1671 H   0  0  0  0  0  0  0  0  0  0  0  0
   61.5882   33.4441   50.5507 H   0  0  0  0  0  0  0  0  0  0  0  0
   60.5527   33.5543   53.4556 H   0  0  0  0  0  0  0  0  0  0  0  0
   58.3663   33.6585   52.4586 H   0  0  0  0  0  0  0  0  0  0  0  0
   59.1222   34.6296   51.1357 H   0  0  0  0  0  0  0  0  0  0  0  0
   59.0180   34.3320   47.8500 H   0  0  0  0  0  0  0  0  0  0  0  0
   59.7150   34.8530   49.3780 H   0  0  0  0  0  0  0  0  0  0  0  0
   60.2958   30.2691   46.4618 H   0  0  0  0  0  0  0  0  0  0  0  0
   60.3498   31.7478   45.4344 H   0  0  0  0  0  0  0  0  0  0  0  0
   61.5900   30.1071   48.5045 H   0  0  0  0  0  0  0  0  0  0  0  0
   63.4420   31.0061   49.9087 H   0  0  0  0  0  0  0  0  0  0  0  0
   64.4238   33.3180   50.7497 H   0  0  0  0  0  0  0  0  0  0  0  0
   65.5845   32.8701   49.4541 H   0  0  0  0  0  0  0  0  0  0  0  0
   64.8223   34.4966   49.4541 H   0  0  0  0  0  0  0  0  0  0  0  0
   63.4362   34.6572   47.5794 H   0  0  0  0  0  0  0  0  0  0  0  0
   61.5702   33.7658   46.1846 H   0  0  0  0  0  0  0  0  0  0  0  0
   56.9530   32.7530   44.4489 H   0  0  0  0  0  0  0  0  0  0  0  0
   58.6151   32.0525   44.2873 H   0  0  0  0  0  0  0  0  0  0  0  0
   58.8383   29.4193   45.5870 H   0  0  0  0  0  0  0  0  0  0  0  0
   54.7670   28.5870   44.5860 H   0  0  0  0  0  0  0  0  0  0  0  0
  1  2  2  0
  2  3  1  0
  3  4  1  0
  4  5  1  0
  5  6  1  0
  5  7  2  0
  7  8  1  0
  8  9  1  0
  9 10  1  0
 10 11  2  0
 11 12  1  0
 12 13  2  0
 13 14  1  0
 13 15  1  0
 15 16  2  0
  8 17  1  0
 17 18  2  0
 17 19  1  0
 19 20  1  0
 20 21  2  0
 21 22  1  0
 22 23  2  0
 22 24  1  0
 24 25  1  0
  7 26  1  0
 26 27  2  0
 26 28  1  0
 28 29  1  0
 29 30  2  0
 29  4  1  0
 16 10  1  0
 25 20  1  0
  1 31  1  0
  1 32  1  0
  2 33  1  0
  3 34  1  0
  3 35  1  0
  6 36  1  0
  6 37  1  0
  9 38  1  0
  9 39  1  0
 11 40  1  0
 12 41  1  0
 14 42  1  0
 14 43  1  0
 14 44  1  0
 15 45  1  0
 16 46  1  0
 19 47  1  0
 19 48  1  0
 21 49  1  0
 24 50  1  0
M  CHG  2  25  -1  28  -1
M  END
>  <UniqueID>  (29) 
28

>  <SMILES>  (29) 
C=CCn1c(N)c(N(Cc2ccc(C)cc2)C(=O)Cc2cc(=O)[nH][n-]2)c(=O)[n-]c1=O

>  <Energy>  (29) 
89.13681807228596

>  <Genealogy>  (29) 
C=CCn1c(N)c(N(Cc2ccc(C)cc2)C(=O)Cc2cc(=O)[nH][n-]2)c(=O)[n-]c1=O (protonated)
C=CCn1c(N)c(N(Cc2ccc(C)cc2)C(=O)Cc2cc(=O)[nH][n-]2)c(=O)[n-]c1=O (3D coordinates assigned)
C=CCn1c(N)c(N(Cc2ccc(C)cc2)C(=O)Cc2cc(=O)[nH][n-]2)c(=O)[n-]c1=O (optimized conformer: 89.13681807228596 kcal/mol)

>  <smiles>  (29) 
C=CCn1c(N)c(N(Cc2ccc(C)cc2)C(=O)Cc2cc(=O)[nH][nH]2)c(=O)[nH]c1=O

>  <score_type>  (29) 
oracle

>  <origin>  (29) 
adg

>  <m_score__min__energy>  (29) 
-10.41

>  <m_primary>  (29) 
energy

$$$$
29:0
     RDKit          3D

 66 69  0  0  0  0  0  0  0  0999 V2000
   59.2060   30.4690   45.4080 C   0  0  0  0  0  0  0  0  0  0  0  0
   59.2540   29.7390   46.5320 C   0  0  0  0  0  0  0  0  0  0  0  0
   58.9620   28.3730   46.6700 C   0  0  0  0  0  0  0  0  0  0  0  0
   58.3870   27.4980   45.8230 C   0  0  0  0  0  0  0  0  0  0  0  0
   57.1530   26.7370   46.0870 C   0  0  0  0  0  0  0  0  0  0  0  0
   57.1150   25.4510   46.4860 N   0  0  0  0  0  0  0  0  0  0  0  0
   55.8000   25.1390   46.4170 C   0  0  0  0  0  0  0  0  0  0  0  0
   55.3520   24.0110   46.7480 O   0  0  0  0  0  0  0  0  0  0  0  0
   55.0070   26.1340   45.9670 N   0  0  0  0  0  0  0  0  0  0  0  0
   55.8830   27.1310   45.7500 C   0  0  0  0  0  0  0  0  0  0  0  0
   55.5290   28.3750   45.2420 O   0  0  0  0  0  0  0  0  0  0  0  0
   59.3310   28.0290   47.9580 C   0  0  0  0  0  0  0  0  0  0  0  0
   59.7660   29.1810   48.5770 C   0  0  0  0  0  0  0  0  0  0  0  0
   60.1180   29.2510   50.0120 C   0  0  0  0  0  0  0  0  0  0  0  0
   60.7720   28.2940   50.5130 O   0  0  0  0  0  0  0  0  0  0  0  0
   59.8080   30.4100   50.8210 N   0  0  0  0  0  0  0  0  0  0  0  0
   58.3700   30.4220   51.1580 C   0  0  0  0  0  0  0  0  0  0  0  0
   58.0140   31.6570   51.9920 C   0  0  0  0  0  0  0  0  0  0  0  0
   58.9110   31.7570   53.1460 N   0  0  0  0  0  0  0  0  0  0  0  0
   58.3840   32.0840   54.4460 C   0  0  0  0  0  0  0  0  0  0  0  0
   57.2980   31.5640   54.8150 O   0  0  0  0  0  0  0  0  0  0  0  0
   59.1460   32.9740   55.4060 C   0  0  0  0  0  0  0  0  0  0  0  0
   59.5190   34.3840   54.8560 C   0  0  0  0  0  0  0  0  0  0  0  0
   58.8780   34.6430   53.4750 C   0  0  0  0  0  0  0  0  0  0  0  0
   61.0520   34.5380   54.7570 C   0  0  0  0  0  0  0  0  0  0  0  0
   58.9820   35.4430   55.8410 C   0  0  0  0  0  0  0  0  0  0  0  0
   60.3550   31.6250   52.9120 C   0  0  0  0  0  0  0  0  0  0  0  0
   60.6320   30.3900   52.0470 C   0  0  0  0  0  0  0  0  0  0  0  0
   59.7210   30.2200   47.7120 N   0  0  0  0  0  0  0  0  0  0  0  0
   59.9700   31.6010   48.0170 C   0  0  0  0  0  0  0  0  0  0  0  0
   59.0750   32.2710   48.6040 O   0  0  0  0  0  0  0  0  0  0  0  0
   61.2660   32.2300   47.6710 C   0  0  0  0  0  0  0  0  0  0  0  0
   61.3240   33.2760   46.7290 C   0  0  0  0  0  0  0  0  0  0  0  0
   62.5430   33.8930   46.4280 C   0  0  0  0  0  0  0  0  0  0  0  0
   63.7170   33.4770   47.0610 C   0  0  0  0  0  0  0  0  0  0  0  0
   63.6750   32.4270   47.9840 C   0  0  0  0  0  0  0  0  0  0  0  0
   62.4580   31.8050   48.2870 C   0  0  0  0  0  0  0  0  0  0  0  0
   59.4610   31.5387   45.4356 H   0  0  0  0  0  0  0  0  0  0  0  0
   58.9116   29.9981   44.4585 H   0  0  0  0  0  0  0  0  0  0  0  0
   58.8798   27.3379   44.8527 H   0  0  0  0  0  0  0  0  0  0  0  0
   59.2857   27.0246   48.4044 H   0  0  0  0  0  0  0  0  0  0  0  0
   60.0420   31.2810   50.2930 H   0  0  0  0  0  0  0  0  0  0  0  0
   57.7823   30.4337   50.2282 H   0  0  0  0  0  0  0  0  0  0  0  0
   58.1396   29.5220   51.7469 H   0  0  0  0  0  0  0  0  0  0  0  0
   58.1178   32.5587   51.3706 H   0  0  0  0  0  0  0  0  0  0  0  0
   56.9769   31.5665   52.3472 H   0  0  0  0  0  0  0  0  0  0  0  0
   58.5268   33.1129   56.3045 H   0  0  0  0  0  0  0  0  0  0  0  0
   60.0999   32.4625   55.6019 H   0  0  0  0  0  0  0  0  0  0  0  0
   57.8660   35.0519   53.6114 H   0  0  0  0  0  0  0  0  0  0  0  0
   59.4922   35.3635   52.9150 H   0  0  0  0  0  0  0  0  0  0  0  0
   58.8193   33.6980   52.9150 H   0  0  0  0  0  0  0  0  0  0  0  0
   61.4822   34.5812   55.7684 H   0  0  0  0  0  0  0  0  0  0  0  0
   61.4728   33.6776   54.2160 H   0  0  0  0  0  0  0  0  0  0  0  0
   61.2932   35.4649   54.2160 H   0  0  0  0  0  0  0  0  0  0  0  0
   59.1538   35.1041   56.8733 H   0  0  0  0  0  0  0  0  0  0  0  0
   59.5057   36.3962   55.6760 H   0  0  0  0  0  0  0  0  0  0  0  0
   57.9036   35.5838   55.6760 H   0  0  0  0  0  0  0  0  0  0  0  0
   60.7244   32.5229   52.3950 H   0  0  0  0  0  0  0  0  0  0  0  0
   60.8700   31.5140   53.8776 H   0  0  0  0  0  0  0  0  0  0  0  0
   61.6955   30.3781   51.7661 H   0  0  0  0  0  0  0  0  0  0  0  0
   60.3779   29.4904   52.6268 H   0  0  0  0  0  0  0  0  0  0  0  0
   60.4042   33.6100   46.2266 H   0  0  0  0  0  0  0  0  0  0  0  0
   62.5773   34.7084   45.6905 H   0  0  0  0  0  0  0  0  0  0  0  0
   64.6718   33.9739   46.8341 H   0  0  0  0  0  0  0  0  0  0  0  0
   64.6005   32.0891   48.4731 H   0  0  0  0  0  0  0  0  0  0  0  0
   62.4332   30.9780   49.0119 H   0  0  0  0  0  0  0  0  0  0  0  0
  1  2  2  0
  2  3  1  0
  3  4  2  3
  4  5  1  0
  5  6  1  0
  6  7  1  0
  7  8  2  0
  7  9  1  0
  9 10  1  0
 10 11  1  0
  3 12  1  0
 12 13  2  0
 13 14  1  0
 14 15  2  0
 14 16  1  0
 16 17  1  0
 17 18  1  0
 18 19  1  0
 19 20  1  0
 20 21  2  0
 20 22  1  0
 22 23  1  0
 23 24  1  0
 23 25  1  0
 23 26  1  0
 19 27  1  0
 27 28  1  0
 13 29  1  0
 29 30  1  0
 30 31  2  0
 30 32  1  0
 32 33  2  0
 33 34  1  0
 34 35  2  0
 35 36  1  0
 36 37  2  0
 29  2  1  0
 37 32  1  0
 10  5  2  0
 28 16  1  0
  1 38  1  0
  1 39  1  0
  4 40  1  0
 12 41  1  0
 16 42  1  0
 17 43  1  0
 17 44  1  0
 18 45  1  0
 18 46  1  0
 22 47  1  0
 22 48  1  0
 24 49  1  0
 24 50  1  0
 24 51  1  0
 25 52  1  0
 25 53  1  0
 25 54  1  0
 26 55  1  0
 26 56  1  0
 26 57  1  0
 27 58  1  0
 27 59  1  0
 28 60  1  0
 28 61  1  0
 33 62  1  0
 34 63  1  0
 35 64  1  0
 36 65  1  0
 37 66  1  0
M  CHG  4   6  -1   9  -1  11  -1  16   1
M  END
>  <UniqueID>  (30) 
29

>  <SMILES>  (30) 
C=c1c(=Cc2[n-]c(=O)[n-]c2[O-])cc(C(=O)[NH+]2CCN(C(=O)CC(C)(C)C)CC2)n1C(=O)c1ccccc1

>  <Energy>  (30) 
149.75419748180917

>  <Genealogy>  (30) 
C=c1c(=Cc2[n-]c(=O)[n-]c2[O-])cc(C(=O)[NH+]2CCN(C(=O)CC(C)(C)C)CC2)n1C(=O)c1ccccc1 (protonated)
C=c1c(=Cc2[n-]c(=O)[n-]c2[O-])cc(C(=O)[NH+]2CCN(C(=O)CC(C)(C)C)CC2)n1C(=O)c1ccccc1 (3D coordinates assigned)
C=c1c(=Cc2[n-]c(=O)[n-]c2[O-])cc(C(=O)[NH+]2CCN(C(=O)CC(C)(C)C)CC2)n1C(=O)c1ccccc1 (nonaromatic ring conformer: 149.75419748180917 kcal/mol)

>  <smiles>  (30) 
C=c1c(=Cc2[nH]c(=O)[nH]c2O)cc(C(=O)N2CCN(C(=O)CC(C)(C)C)CC2)n1C(=O)c1ccccc1

>  <score_type>  (30) 
oracle

>  <origin>  (30) 
adg

>  <m_score__min__energy>  (30) 
-16.989999999999998

>  <m_primary>  (30) 
energy

$$$$
30:0
     RDKit          3D

 53 56  0  0  0  0  0  0  0  0999 V2000
   53.2970   24.2300   45.9670 O   0  0  0  0  0  0  0  0  0  0  0  0
   54.4240   24.6110   45.5520 C   0  0  0  0  0  0  0  0  0  0  0  0
   54.8660   25.9370   45.8740 N   0  0  0  0  0  0  0  0  0  0  0  0
   56.2220   26.3540   46.0980 C   0  0  0  0  0  0  0  0  0  0  0  0
   57.1410   25.5450   46.7930 C   0  0  0  0  0  0  0  0  0  0  0  0
   58.4570   25.9770   46.9800 C   0  0  0  0  0  0  0  0  0  0  0  0
   58.8600   27.2240   46.4970 C   0  0  0  0  0  0  0  0  0  0  0  0
   57.9450   28.0530   45.8350 C   0  0  0  0  0  0  0  0  0  0  0  0
   58.3630   29.3370   45.3490 N   0  0  0  0  0  0  0  0  0  0  0  0
   57.4980   30.0930   44.4420 C   0  0  0  0  0  0  0  0  0  0  0  0
   58.0460   31.5110   44.2310 C   0  0  0  0  0  0  0  0  0  0  0  0
   58.4970   32.0870   45.5180 N   0  0  0  0  0  0  0  0  0  0  0  0
   58.8350   33.5240   45.3300 C   0  0  0  0  0  0  0  0  0  0  0  0
   59.0430   34.2900   46.6600 C   0  0  0  0  0  0  0  0  0  0  0  0
   60.4260   34.1170   47.2410 C   0  0  0  0  0  0  0  0  0  0  0  0
   61.5240   33.8670   46.3980 C   0  0  0  0  0  0  0  0  0  0  0  0
   62.8030   33.6920   46.9370 C   0  0  0  0  0  0  0  0  0  0  0  0
   62.9990   33.7800   48.3180 C   0  0  0  0  0  0  0  0  0  0  0  0
   61.9180   34.0540   49.1620 C   0  0  0  0  0  0  0  0  0  0  0  0
   60.6370   34.2290   48.6270 C   0  0  0  0  0  0  0  0  0  0  0  0
   59.6400   31.3220   46.0970 C   0  0  0  0  0  0  0  0  0  0  0  0
   59.6990   29.8420   45.6660 C   0  0  0  0  0  0  0  0  0  0  0  0
   56.6240   27.6190   45.6490 C   0  0  0  0  0  0  0  0  0  0  0  0
   55.2210   23.7030   44.7050 C   0  0  0  0  0  0  0  0  0  0  0  0
   56.3850   23.0420   45.0440 C   0  0  0  0  0  0  0  0  0  0  0  0
   56.7500   22.3330   43.9190 C   0  0  0  0  0  0  0  0  0  0  0  0
   55.8840   22.5510   42.9550 O   0  0  0  0  0  0  0  0  0  0  0  0
   54.9570   23.3730   43.3910 C   0  0  0  0  0  0  0  0  0  0  0  0
   56.8223   24.5699   47.1901 H   0  0  0  0  0  0  0  0  0  0  0  0
   59.1763   25.3340   47.5083 H   0  0  0  0  0  0  0  0  0  0  0  0
   59.8992   27.5563   46.6368 H   0  0  0  0  0  0  0  0  0  0  0  0
   57.4505   29.5756   43.4724 H   0  0  0  0  0  0  0  0  0  0  0  0
   56.4936   30.1628   44.8852 H   0  0  0  0  0  0  0  0  0  0  0  0
   58.8962   31.4710   43.5341 H   0  0  0  0  0  0  0  0  0  0  0  0
   57.2474   32.1442   43.8172 H   0  0  0  0  0  0  0  0  0  0  0  0
   57.6900   32.0320   46.1850 H   0  0  0  0  0  0  0  0  0  0  0  0
   59.7624   33.5893   44.7421 H   0  0  0  0  0  0  0  0  0  0  0  0
   57.9817   33.9922   44.8175 H   0  0  0  0  0  0  0  0  0  0  0  0
   58.8735   35.3611   46.4758 H   0  0  0  0  0  0  0  0  0  0  0  0
   58.3303   33.8759   47.3884 H   0  0  0  0  0  0  0  0  0  0  0  0
   61.3762   33.8088   45.3095 H   0  0  0  0  0  0  0  0  0  0  0  0
   63.6553   33.4849   46.2732 H   0  0  0  0  0  0  0  0  0  0  0  0
   64.0037   33.6337   48.7412 H   0  0  0  0  0  0  0  0  0  0  0  0
   62.0750   34.1320   50.2479 H   0  0  0  0  0  0  0  0  0  0  0  0
   59.7914   34.4551   49.2932 H   0  0  0  0  0  0  0  0  0  0  0  0
   60.5747   31.8095   45.7828 H   0  0  0  0  0  0  0  0  0  0  0  0
   59.5003   31.3262   47.1881 H   0  0  0  0  0  0  0  0  0  0  0  0
   60.3389   29.7513   44.7759 H   0  0  0  0  0  0  0  0  0  0  0  0
   60.1105   29.2501   46.4968 H   0  0  0  0  0  0  0  0  0  0  0  0
   55.8987   28.2763   45.1472 H   0  0  0  0  0  0  0  0  0  0  0  0
   56.9111   23.0743   46.0095 H   0  0  0  0  0  0  0  0  0  0  0  0
   57.6336   21.6825   43.8403 H   0  0  0  0  0  0  0  0  0  0  0  0
   54.1042   23.7407   42.8015 H   0  0  0  0  0  0  0  0  0  0  0  0
  1  2  2  0
  2  3  1  0
  3  4  1  0
  4  5  2  0
  5  6  1  0
  6  7  2  0
  7  8  1  0
  8  9  1  0
  9 10  1  0
 10 11  1  0
 11 12  1  0
 12 13  1  0
 13 14  1  0
 14 15  1  0
 15 16  2  0
 16 17  1  0
 17 18  2  0
 18 19  1  0
 19 20  2  0
 12 21  1  0
 21 22  1  0
  8 23  2  0
  2 24  1  0
 24 25  1  0
 25 26  2  0
 26 27  1  0
 27 28  1  0
 23  4  1  0
 28 24  2  0
 22  9  1  0
 20 15  1  0
  5 29  1  0
  6 30  1  0
  7 31  1  0
 10 32  1  0
 10 33  1  0
 11 34  1  0
 11 35  1  0
 12 36  1  0
 13 37  1  0
 13 38  1  0
 14 39  1  0
 14 40  1  0
 16 41  1  0
 17 42  1  0
 18 43  1  0
 19 44  1  0
 20 45  1  0
 21 46  1  0
 21 47  1  0
 22 48  1  0
 22 49  1  0
 23 50  1  0
 25 51  1  0
 26 52  1  0
 28 53  1  0
M  CHG  2   3  -1  12   1
M  END
>  <UniqueID>  (31) 
30

>  <SMILES>  (31) 
O=C([N-]c1cccc(N2CC[NH+](CCc3ccccc3)CC2)c1)c1ccoc1

>  <Energy>  (31) 
99.74725955660169

>  <Genealogy>  (31) 
O=C([N-]c1cccc(N2CC[NH+](CCc3ccccc3)CC2)c1)c1ccoc1 (protonated)
O=C([N-]c1cccc(N2CC[NH+](CCc3ccccc3)CC2)c1)c1ccoc1 (3D coordinates assigned)
O=C([N-]c1cccc(N2CC[NH+](CCc3ccccc3)CC2)c1)c1ccoc1 (nonaromatic ring conformer: 99.74725955660169 kcal/mol)

>  <smiles>  (31) 
O=C(Nc1cccc(N2CCN(CCc3ccccc3)CC2)c1)c1ccoc1

>  <score_type>  (31) 
oracle

>  <origin>  (31) 
adg

>  <m_score__min__energy>  (31) 
-9.4499999999999993

>  <m_primary>  (31) 
energy

$$$$
31:0
     RDKit          3D

 34 35  0  0  1  0  0  0  0  0999 V2000
   60.0180   26.7530   48.1940 C   0  0  0  0  0  0  0  0  0  0  0  0
   58.8490   26.9600   47.2800 C   0  0  0  0  0  0  0  0  0  0  0  0
   58.7350   28.0720   46.4700 C   0  0  0  0  0  0  0  0  0  0  0  0
   57.6290   28.1880   45.6580 C   0  0  0  0  0  0  0  0  0  0  0  0
   57.5370   29.2190   44.9140 N   0  0  0  0  0  0  0  0  0  0  0  0
   56.4240   29.4890   44.0510 C   0  0  0  0  0  0  0  0  0  0  0  0
   55.2890   29.4770   44.6160 O   0  0  0  0  0  0  0  0  0  0  0  0
   56.6350   29.7540   42.6260 C   0  0  0  0  0  0  0  0  0  0  0  0
   56.5950   31.1730   42.4350 O   0  0  0  0  0  0  0  0  0  0  0  0
   57.6790   31.9690   42.7090 C   0  0  0  0  0  0  0  0  0  0  0  0
   58.4950   32.2480   41.7900 O   0  0  0  0  0  0  0  0  0  0  0  0
   57.9600   32.5300   44.0330 C   0  0  0  0  0  0  0  0  0  0  0  0
   58.6960   33.6750   44.2310 C   0  0  0  0  0  0  0  0  0  0  0  0
   58.7550   33.9030   45.6060 C   0  0  0  0  0  0  0  0  0  0  0  0
   58.0350   32.8590   46.1670 C   0  0  0  0  0  0  0  0  0  0  0  0
   57.8460   32.7200   47.6460 C   0  0  0  0  0  0  0  0  0  0  0  0
   57.5900   32.0830   45.2070 O   0  0  0  0  0  0  0  0  0  0  0  0
   56.6490   27.2620   45.6210 N   0  0  0  0  0  0  0  0  0  0  0  0
   56.7870   26.1890   46.4230 C   0  0  0  0  0  0  0  0  0  0  0  0
   55.8750   25.3300   46.3870 O   0  0  0  0  0  0  0  0  0  0  0  0
   57.8680   26.0360   47.2420 N   0  0  0  0  0  0  0  0  0  0  0  0
   59.6811   26.8127   49.2394 H   0  0  0  0  0  0  0  0  0  0  0  0
   60.4590   25.7628   48.0068 H   0  0  0  0  0  0  0  0  0  0  0  0
   60.7722   27.5316   48.0068 H   0  0  0  0  0  0  0  0  0  0  0  0
   59.5125   28.8502   46.4732 H   0  0  0  0  0  0  0  0  0  0  0  0
   57.6138   29.3616   42.3131 H   0  0  0  0  0  0  0  0  0  0  0  0
   55.8564   29.2627   42.0239 H   0  0  0  0  0  0  0  0  0  0  0  0
   59.1543   34.2972   43.4482 H   0  0  0  0  0  0  0  0  0  0  0  0
   59.2606   34.7280   46.1292 H   0  0  0  0  0  0  0  0  0  0  0  0
   58.6249   33.2928   48.1706 H   0  0  0  0  0  0  0  0  0  0  0  0
   56.8550   33.1061   47.9269 H   0  0  0  0  0  0  0  0  0  0  0  0
   57.9193   31.6590   47.9269 H   0  0  0  0  0  0  0  0  0  0  0  0
   55.8270   27.3850   44.9940 H   0  0  0  0  0  0  0  0  0  0  0  0
   57.9600   25.1880   47.8650 H   0  0  0  0  0  0  0  0  0  0  0  0
  1  2  1  0
  2  3  2  0
  3  4  1  0
  4  5  2  0
  5  6  1  0
  6  7  2  0
  6  8  1  0
  8  9  1  0
  9 10  1  0
 10 11  2  0
 10 12  1  0
 12 13  2  0
 13 14  1  0
 14 15  2  0
 15 16  1  0
 15 17  1  0
  4 18  1  0
 18 19  1  0
 19 20  2  0
 19 21  1  0
 21  2  1  0
 17 12  1  0
  1 22  1  0
  1 23  1  0
  1 24  1  0
  3 25  1  0
  8 26  1  0
  8 27  1  0
 13 28  1  0
 14 29  1  0
 16 30  1  0
 16 31  1  0
 16 32  1  0
 18 33  1  0
 21 34  1  0
M  END
>  <smiles>  (32) 
Cc1cc(=NC(=O)COC(=O)c2ccc(C)o2)[nH]c(=O)[nH]1

>  <score_type>  (32) 
oracle

>  <origin>  (32) 
adg

>  <m_score__min__energy>  (32) 
-7.0700000000000003

>  <m_primary>  (32) 
energy

$$$$
32:0
     RDKit          3D

 48 51  0  0  0  0  0  0  0  0999 V2000
   58.4620   31.3260   49.5070 O   0  0  0  0  0  0  0  0  0  0  0  0
   58.8020   32.4930   49.8440 C   0  0  0  0  0  0  0  0  0  0  0  0
   59.5040   33.3380   48.9250 N   0  0  0  0  0  0  0  0  0  0  0  0
   59.1770   33.5510   47.5440 C   0  0  0  0  0  0  0  0  0  0  0  0
   59.6000   34.7330   46.9290 C   0  0  0  0  0  0  0  0  0  0  0  0
   59.3160   34.9700   45.5840 C   0  0  0  0  0  0  0  0  0  0  0  0
   58.6210   34.0190   44.8340 C   0  0  0  0  0  0  0  0  0  0  0  0
   58.2120   32.8060   45.4210 C   0  0  0  0  0  0  0  0  0  0  0  0
   57.4850   31.7710   44.6380 C   0  0  0  0  0  0  0  0  0  0  0  0
   57.5900   31.6110   43.2510 C   0  0  0  0  0  0  0  0  0  0  0  0
   56.6120   30.3220   42.7870 S   0  0  0  0  0  0  0  0  0  0  0  0
   56.1040   30.0260   44.3560 C   0  0  0  0  0  0  0  0  0  0  0  0
   55.3020   29.1140   44.6830 O   0  0  0  0  0  0  0  0  0  0  0  0
   56.6540   30.8770   45.2430 N   0  0  0  0  0  0  0  0  0  0  0  0
   58.4990   32.5810   46.7810 C   0  0  0  0  0  0  0  0  0  0  0  0
   58.4050   33.0230   51.1170 N   0  0  0  0  0  0  0  0  0  0  0  0
   57.8700   32.2330   52.1920 C   0  0  0  0  0  0  0  0  0  0  0  0
   58.3480   32.3630   53.5070 C   0  0  0  0  0  0  0  0  0  0  0  0
   57.7980   31.5960   54.5360 C   0  0  0  0  0  0  0  0  0  0  0  0
   56.7550   30.7060   54.2680 C   0  0  0  0  0  0  0  0  0  0  0  0
   56.2380   30.5880   52.9670 C   0  0  0  0  0  0  0  0  0  0  0  0
   55.1350   29.6430   52.6770 C   0  0  0  0  0  0  0  0  0  0  0  0
   55.3330   28.4020   52.7930 O   0  0  0  0  0  0  0  0  0  0  0  0
   53.8310   30.1140   52.2910 N   0  0  0  0  0  0  0  0  0  0  0  0
   52.6450   29.4450   52.8340 C   0  0  0  0  0  0  0  0  0  0  0  0
   51.3750   30.1750   52.3940 C   0  0  0  0  0  0  0  0  0  0  0  0
   51.6050   31.5680   52.4210 O   0  0  0  0  0  0  0  0  0  0  0  0
   52.4420   31.9480   51.3410 C   0  0  0  0  0  0  0  0  0  0  0  0
   53.6830   31.0410   51.1630 C   0  0  0  0  0  0  0  0  0  0  0  0
   56.8060   31.3540   51.9340 C   0  0  0  0  0  0  0  0  0  0  0  0
   60.1603   35.4809   47.5093 H   0  0  0  0  0  0  0  0  0  0  0  0
   59.6407   35.9093   45.1125 H   0  0  0  0  0  0  0  0  0  0  0  0
   58.3913   34.2188   43.7770 H   0  0  0  0  0  0  0  0  0  0  0  0
   58.2074   32.2242   42.5781 H   0  0  0  0  0  0  0  0  0  0  0  0
   58.1900   31.6366   47.2528 H   0  0  0  0  0  0  0  0  0  0  0  0
   58.4430   34.0610   51.2370 H   0  0  0  0  0  0  0  0  0  0  0  0
   59.1594   33.0724   53.7268 H   0  0  0  0  0  0  0  0  0  0  0  0
   58.1870   31.6928   55.5604 H   0  0  0  0  0  0  0  0  0  0  0  0
   56.3361   30.0940   55.0804 H   0  0  0  0  0  0  0  0  0  0  0  0
   52.6133   28.4085   52.4670 H   0  0  0  0  0  0  0  0  0  0  0  0
   52.7006   29.4546   53.9326 H   0  0  0  0  0  0  0  0  0  0  0  0
   51.1088   29.8662   51.3724 H   0  0  0  0  0  0  0  0  0  0  0  0
   50.5501   29.9242   53.0770 H   0  0  0  0  0  0  0  0  0  0  0  0
   51.8503   31.9118   50.4144 H   0  0  0  0  0  0  0  0  0  0  0  0
   52.8137   32.9590   51.5643 H   0  0  0  0  0  0  0  0  0  0  0  0
   53.5732   30.4613   50.2346 H   0  0  0  0  0  0  0  0  0  0  0  0
   54.5772   31.6801   51.1187 H   0  0  0  0  0  0  0  0  0  0  0  0
   56.4120   31.2636   50.9110 H   0  0  0  0  0  0  0  0  0  0  0  0
  1  2  2  0
  2  3  1  0
  3  4  1  0
  4  5  2  0
  5  6  1  0
  6  7  2  0
  7  8  1  0
  8  9  1  0
  9 10  2  0
 10 11  1  0
 11 12  1  0
 12 13  2  0
 12 14  1  0
  8 15  2  0
  2 16  1  0
 16 17  1  0
 17 18  2  0
 18 19  1  0
 19 20  2  0
 20 21  1  0
 21 22  1  0
 22 23  2  0
 22 24  1  0
 24 25  1  0
 25 26  1  0
 26 27  1  0
 27 28  1  0
 28 29  1  0
 21 30  2  0
 15  4  1  0
 30 17  1  0
 14  9  1  0
 29 24  1  0
  5 31  1  0
  6 32  1  0
  7 33  1  0
 10 34  1  0
 15 35  1  0
 16 36  1  0
 18 37  1  0
 19 38  1  0
 20 39  1  0
 25 40  1  0
 25 41  1  0
 26 42  1  0
 26 43  1  0
 28 44  1  0
 28 45  1  0
 29 46  1  0
 29 47  1  0
 30 48  1  0
M  CHG  2   3  -1  14  -1
M  END
>  <UniqueID>  (33) 
31

>  <SMILES>  (33) 
O=C([N-]c1cccc(-c2csc(=O)[n-]2)c1)Nc1cccc(C(=O)N2CCOCC2)c1

>  <Energy>  (33) 
102.01441689073269

>  <Genealogy>  (33) 
O=C([N-]c1cccc(-c2csc(=O)[n-]2)c1)Nc1cccc(C(=O)N2CCOCC2)c1 (protonated)
O=C([N-]c1cccc(-c2csc(=O)[n-]2)c1)Nc1cccc(C(=O)N2CCOCC2)c1 (3D coordinates assigned)
O=C([N-]c1cccc(-c2csc(=O)[n-]2)c1)Nc1cccc(C(=O)N2CCOCC2)c1 (nonaromatic ring conformer: 102.01441689073269 kcal/mol)

>  <smiles>  (33) 
O=C(Nc1cccc(C(=O)N2CCOCC2)c1)Nc1cccc(-c2csc(=O)[nH]2)c1

>  <score_type>  (33) 
oracle

>  <origin>  (33) 
adg

>  <m_score__min__energy>  (33) 
-13.109999999999999

>  <m_primary>  (33) 
energy

$$$$
33:0
     RDKit          3D

 74 78  0  0  0  0  0  0  0  0999 V2000
   56.1550   20.1710   44.3140 C   0  0  0  0  0  0  0  0  0  0  0  0
   56.4100   21.6160   44.4100 N   0  0  0  0  0  0  0  0  0  0  0  0
   56.6860   22.1830   43.0690 C   0  0  0  0  0  0  0  0  0  0  0  0
   56.4880   23.7120   43.0100 C   0  0  0  0  0  0  0  0  0  0  0  0
   56.5450   24.2970   44.3540 N   0  0  0  0  0  0  0  0  0  0  0  0
   57.3760   25.4410   44.6310 C   0  0  0  0  0  0  0  0  0  0  0  0
   57.8270   25.7010   45.9350 C   0  0  0  0  0  0  0  0  0  0  0  0
   58.6380   26.8090   46.1990 C   0  0  0  0  0  0  0  0  0  0  0  0
   59.0230   27.6730   45.1600 C   0  0  0  0  0  0  0  0  0  0  0  0
   59.8960   28.8410   45.4240 C   0  0  0  0  0  0  0  0  0  0  0  0
   60.9330   29.0070   44.7230 O   0  0  0  0  0  0  0  0  0  0  0  0
   59.5510   29.8090   46.4280 N   0  0  0  0  0  0  0  0  0  0  0  0
   60.4630   30.8140   46.9060 C   0  0  0  0  0  0  0  0  0  0  0  0
   60.3060   32.1450   46.4890 C   0  0  0  0  0  0  0  0  0  0  0  0
   61.2000   33.1300   46.9160 C   0  0  0  0  0  0  0  0  0  0  0  0
   62.2510   32.8040   47.7850 C   0  0  0  0  0  0  0  0  0  0  0  0
   63.2720   33.8490   48.1660 C   0  0  0  0  0  0  0  0  0  0  0  0
   63.4000   34.0020   49.6640 C   0  0  0  0  0  0  0  0  0  0  0  0
   62.7870   34.9390   50.2490 O   0  0  0  0  0  0  0  0  0  0  0  0
   64.2330   33.1090   50.4340 N   0  0  0  0  0  0  0  0  0  0  0  0
   64.1370   33.1110   51.9020 C   0  0  0  0  0  0  0  0  0  0  0  0
   64.3840   31.7080   52.4720 C   0  0  0  0  0  0  0  0  0  0  0  0
   65.5500   31.0590   51.8540 N   0  0  0  0  0  0  0  0  0  0  0  0
   66.0880   29.8650   52.4540 C   0  0  0  0  0  0  0  0  0  0  0  0
   66.1370   29.7750   53.7120 O   0  0  0  0  0  0  0  0  0  0  0  0
   66.5740   28.7360   51.6300 C   0  0  0  0  0  0  0  0  0  0  0  0
   65.9330   27.4850   51.6760 C   0  0  0  0  0  0  0  0  0  0  0  0
   66.4000   26.4230   50.8950 C   0  0  0  0  0  0  0  0  0  0  0  0
   67.5130   26.5950   50.0690 C   0  0  0  0  0  0  0  0  0  0  0  0
   68.1660   27.8300   50.0260 C   0  0  0  0  0  0  0  0  0  0  0  0
   67.7050   28.8940   50.8080 C   0  0  0  0  0  0  0  0  0  0  0  0
   66.2770   31.7380   50.7750 C   0  0  0  0  0  0  0  0  0  0  0  0
   65.2890   32.3290   49.7650 C   0  0  0  0  0  0  0  0  0  0  0  0
   62.3910   31.4810   48.2290 C   0  0  0  0  0  0  0  0  0  0  0  0
   61.4960   30.4950   47.8020 C   0  0  0  0  0  0  0  0  0  0  0  0
   58.5890   27.3990   43.8510 C   0  0  0  0  0  0  0  0  0  0  0  0
   57.7700   26.2980   43.5910 C   0  0  0  0  0  0  0  0  0  0  0  0
   55.6860   23.7350   45.4060 C   0  0  0  0  0  0  0  0  0  0  0  0
   55.2770   22.2980   45.0640 C   0  0  0  0  0  0  0  0  0  0  0  0
   56.0796   19.7440   45.3249 H   0  0  0  0  0  0  0  0  0  0  0  0
   55.2128   20.0001   43.7726 H   0  0  0  0  0  0  0  0  0  0  0  0
   56.9818   19.6879   43.7726 H   0  0  0  0  0  0  0  0  0  0  0  0
   57.7273   21.9534   42.7986 H   0  0  0  0  0  0  0  0  0  0  0  0
   55.9707   21.7307   42.3663 H   0  0  0  0  0  0  0  0  0  0  0  0
   57.2815   24.1547   42.3901 H   0  0  0  0  0  0  0  0  0  0  0  0
   55.4998   23.9230   42.5753 H   0  0  0  0  0  0  0  0  0  0  0  0
   57.5399   25.0273   46.7558 H   0  0  0  0  0  0  0  0  0  0  0  0
   58.9768   27.0056   47.2269 H   0  0  0  0  0  0  0  0  0  0  0  0
   58.5490   29.8850   46.7170 H   0  0  0  0  0  0  0  0  0  0  0  0
   59.4739   32.4142   45.8218 H   0  0  0  0  0  0  0  0  0  0  0  0
   61.0788   34.1667   46.5687 H   0  0  0  0  0  0  0  0  0  0  0  0
   64.2493   33.5559   47.7550 H   0  0  0  0  0  0  0  0  0  0  0  0
   62.9380   34.8132   47.7552 H   0  0  0  0  0  0  0  0  0  0  0  0
   64.8886   33.8025   52.3105 H   0  0  0  0  0  0  0  0  0  0  0  0
   63.1236   33.4309   52.1861 H   0  0  0  0  0  0  0  0  0  0  0  0
   64.5562   31.7902   53.5553 H   0  0  0  0  0  0  0  0  0  0  0  0
   63.4984   31.0927   52.2551 H   0  0  0  0  0  0  0  0  0  0  0  0
   65.0600   27.3411   52.3295 H   0  0  0  0  0  0  0  0  0  0  0  0
   65.8893   25.4494   50.9314 H   0  0  0  0  0  0  0  0  0  0  0  0
   67.8754   25.7590   49.4527 H   0  0  0  0  0  0  0  0  0  0  0  0
   69.0434   27.9653   49.3765 H   0  0  0  0  0  0  0  0  0  0  0  0
   68.2299   29.8603   50.7802 H   0  0  0  0  0  0  0  0  0  0  0  0
   66.8888   32.5467   51.2013 H   0  0  0  0  0  0  0  0  0  0  0  0
   66.9231   31.0100   50.2627 H   0  0  0  0  0  0  0  0  0  0  0  0
   65.8357   32.9872   49.0737 H   0  0  0  0  0  0  0  0  0  0  0  0
   64.8130   31.4990   49.2223 H   0  0  0  0  0  0  0  0  0  0  0  0
   63.2085   31.2178   48.9163 H   0  0  0  0  0  0  0  0  0  0  0  0
   61.6018   29.4638   48.1701 H   0  0  0  0  0  0  0  0  0  0  0  0
   58.8970   28.0571   43.0251 H   0  0  0  0  0  0  0  0  0  0  0  0
   57.4310   26.1007   42.5633 H   0  0  0  0  0  0  0  0  0  0  0  0
   56.2350   23.7366   46.3592 H   0  0  0  0  0  0  0  0  0  0  0  0
   54.7780   24.3506   45.4864 H   0  0  0  0  0  0  0  0  0  0  0  0
   55.0074   21.7624   45.9862 H   0  0  0  0  0  0  0  0  0  0  0  0
   54.4109   22.3107   44.3860 H   0  0  0  0  0  0  0  0  0  0  0  0
  1  2  1  0
  2  3  1  0
  3  4  1  0
  4  5  1  0
  5  6  1  0
  6  7  2  0
  7  8  1  0
  8  9  2  0
  9 10  1  0
 10 11  2  0
 10 12  1  0
 12 13  1  0
 13 14  2  0
 14 15  1  0
 15 16  2  0
 16 17  1  0
 17 18  1  0
 18 19  2  0
 18 20  1  0
 20 21  1  0
 21 22  1  0
 22 23  1  0
 23 24  1  0
 24 25  2  0
 24 26  1  0
 26 27  2  0
 27 28  1  0
 28 29  2  0
 29 30  1  0
 30 31  2  0
 23 32  1  0
 32 33  1  0
 16 34  1  0
 34 35  2  0
  9 36  1  0
 36 37  2  0
  5 38  1  0
 38 39  1  0
 39  2  1  0
 37  6  1  0
 35 13  1  0
 33 20  1  0
 31 26  1  0
  1 40  1  0
  1 41  1  0
  1 42  1  0
  3 43  1  0
  3 44  1  0
  4 45  1  0
  4 46  1  0
  7 47  1  0
  8 48  1  0
 12 49  1  0
 14 50  1  0
 15 51  1  0
 17 52  1  0
 17 53  1  0
 21 54  1  0
 21 55  1  0
 22 56  1  0
 22 57  1  0
 27 58  1  0
 28 59  1  0
 29 60  1  0
 30 61  1  0
 31 62  1  0
 32 63  1  0
 32 64  1  0
 33 65  1  0
 33 66  1  0
 34 67  1  0
 35 68  1  0
 36 69  1  0
 37 70  1  0
 38 71  1  0
 38 72  1  0
 39 73  1  0
 39 74  1  0
M  END
>  <UniqueID>  (34) 
32

>  <SMILES>  (34) 
CN1CCN(c2ccc(C(=O)Nc3ccc(CC(=O)N4CCN(C(=O)c5ccccc5)CC4)cc3)cc2)CC1

>  <Energy>  (34) 
98.89141977535593

>  <Genealogy>  (34) 
CN1CCN(c2ccc(C(=O)Nc3ccc(CC(=O)N4CCN(C(=O)c5ccccc5)CC4)cc3)cc2)CC1 (3D coordinates assigned)
CN1CCN(c2ccc(C(=O)Nc3ccc(CC(=O)N4CCN(C(=O)c5ccccc5)CC4)cc3)cc2)CC1 (nonaromatic ring conformer: 98.89141977535593 kcal/mol)

>  <smiles>  (34) 
CN1CCN(c2ccc(C(=O)Nc3ccc(CC(=O)N4CCN(C(=O)c5ccccc5)CC4)cc3)cc2)CC1

>  <score_type>  (34) 
oracle

>  <origin>  (34) 
adg

>  <m_score__min__energy>  (34) 
-8.5700000000000003

>  <m_primary>  (34) 
energy

$$$$
34:0
     RDKit          3D

 28 29  0  0  0  0  0  0  0  0999 V2000
   58.1310   31.8640   43.3400 C   0  0  0  0  0  0  0  0  0  0  0  0
   57.1060   31.8940   44.7950 S   0  0  0  0  0  0  0  0  0  0  0  0
   55.8780   31.0540   44.5890 O   0  0  0  0  0  0  0  0  0  0  0  0
   56.6830   33.3120   45.0560 O   0  0  0  0  0  0  0  0  0  0  0  0
   57.9980   31.3180   46.1670 N   0  0  0  0  0  0  0  0  0  0  0  0
   58.3930   29.9600   46.4020 C   0  0  0  0  0  0  0  0  0  0  0  0
   59.3040   29.6070   47.4140 C   0  0  0  0  0  0  0  0  0  0  0  0
   59.6650   28.2690   47.6000 C   0  0  0  0  0  0  0  0  0  0  0  0
   59.1210   27.2750   46.7840 C   0  0  0  0  0  0  0  0  0  0  0  0
   58.2020   27.6100   45.7790 C   0  0  0  0  0  0  0  0  0  0  0  0
   57.6460   26.5450   44.8750 C   0  0  0  0  0  0  0  0  0  0  0  0
   56.9140   25.5170   45.6810 C   0  0  0  0  0  0  0  0  0  0  0  0
   57.4060   24.3010   45.9770 N   0  0  0  0  0  0  0  0  0  0  0  0
   56.3920   23.7050   46.6420 C   0  0  0  0  0  0  0  0  0  0  0  0
   56.4940   22.1850   47.2270 S   0  0  0  0  0  0  0  0  0  0  0  0
   55.2830   24.4660   46.7730 N   0  0  0  0  0  0  0  0  0  0  0  0
   55.6290   25.6050   46.1550 C   0  0  0  0  0  0  0  0  0  0  0  0
   54.7850   26.7010   46.0210 O   0  0  0  0  0  0  0  0  0  0  0  0
   57.8520   28.9570   45.5870 C   0  0  0  0  0  0  0  0  0  0  0  0
   59.1895   31.8330   43.6377 H   0  0  0  0  0  0  0  0  0  0  0  0
   57.8922   30.9725   42.7416 H   0  0  0  0  0  0  0  0  0  0  0  0
   57.9447   32.7680   42.7416 H   0  0  0  0  0  0  0  0  0  0  0  0
   59.7337   30.3859   48.0610 H   0  0  0  0  0  0  0  0  0  0  0  0
   60.3796   27.9987   48.3914 H   0  0  0  0  0  0  0  0  0  0  0  0
   59.4145   26.2250   46.9301 H   0  0  0  0  0  0  0  0  0  0  0  0
   56.9526   27.0043   44.1551 H   0  0  0  0  0  0  0  0  0  0  0  0
   58.4745   26.0592   44.3387 H   0  0  0  0  0  0  0  0  0  0  0  0
   57.1456   29.2271   44.7882 H   0  0  0  0  0  0  0  0  0  0  0  0
  1  2  1  0
  2  3  2  0
  2  4  2  0
  2  5  1  0
  5  6  1  0
  6  7  2  0
  7  8  1  0
  8  9  2  0
  9 10  1  0
 10 11  1  0
 11 12  1  0
 12 13  1  0
 13 14  1  0
 14 15  2  0
 14 16  1  0
 16 17  1  0
 17 18  1  0
 10 19  2  0
 19  6  1  0
 17 12  2  0
  1 20  1  0
  1 21  1  0
  1 22  1  0
  7 23  1  0
  8 24  1  0
  9 25  1  0
 11 26  1  0
 11 27  1  0
 19 28  1  0
M  CHG  4   5  -1  13  -1  16  -1  18  -1
M  END
>  <UniqueID>  (35) 
33

>  <SMILES>  (35) 
CS(=O)(=O)[N-]c1cccc(Cc2[n-]c(=S)[n-]c2[O-])c1

>  <Energy>  (35) 
54.36457930699574

>  <Genealogy>  (35) 
CS(=O)(=O)[N-]c1cccc(Cc2[n-]c(=S)[n-]c2[O-])c1 (protonated)
CS(=O)(=O)[N-]c1cccc(Cc2[n-]c(=S)[n-]c2[O-])c1 (3D coordinates assigned)
CS(=O)(=O)[N-]c1cccc(Cc2[n-]c(=S)[n-]c2[O-])c1 (optimized conformer: 54.36457930699574 kcal/mol)

>  <smiles>  (35) 
CS(=O)(=O)Nc1cccc(Cc2[nH]c(=S)[nH]c2O)c1

>  <score_type>  (35) 
oracle

>  <origin>  (35) 
adg

>  <m_score__min__energy>  (35) 
-16.219999999999999

>  <m_primary>  (35) 
energy

$$$$
35:0
     RDKit          3D

 66 69  0  0  0  0  0  0  0  0999 V2000
   58.8200   32.9700   51.8540 C   0  0  0  0  0  0  0  0  0  0  0  0
   59.8530   33.4570   50.8810 C   0  0  0  0  0  0  0  0  0  0  0  0
   60.9400   33.9060   51.3370 O   0  0  0  0  0  0  0  0  0  0  0  0
   59.6340   33.3940   49.4530 N   0  0  0  0  0  0  0  0  0  0  0  0
   58.4530   32.6950   48.9150 C   0  0  0  0  0  0  0  0  0  0  0  0
   58.5360   32.5020   47.3950 C   0  0  0  0  0  0  0  0  0  0  0  0
   58.9320   33.7540   46.7320 N   0  0  0  0  0  0  0  0  0  0  0  0
   58.3730   34.1520   45.4580 C   0  0  0  0  0  0  0  0  0  0  0  0
   58.6240   35.3020   45.0050 O   0  0  0  0  0  0  0  0  0  0  0  0
   57.4320   33.2490   44.6940 C   0  0  0  0  0  0  0  0  0  0  0  0
   58.1500   32.2560   43.7690 C   0  0  0  0  0  0  0  0  0  0  0  0
   57.2080   31.3480   43.1190 N   0  0  0  0  0  0  0  0  0  0  0  0
   56.9670   29.9750   43.4640 C   0  0  0  0  0  0  0  0  0  0  0  0
   56.0720   29.3450   42.8380 O   0  0  0  0  0  0  0  0  0  0  0  0
   57.7330   29.2710   44.5120 C   0  0  0  0  0  0  0  0  0  0  0  0
   57.0800   28.5570   45.5290 C   0  0  0  0  0  0  0  0  0  0  0  0
   57.8170   27.9040   46.5210 C   0  0  0  0  0  0  0  0  0  0  0  0
   59.2240   27.9260   46.4880 C   0  0  0  0  0  0  0  0  0  0  0  0
   60.0090   27.2850   47.4580 O   0  0  0  0  0  0  0  0  0  0  0  0
   60.4220   27.8870   48.6830 C   0  0  0  0  0  0  0  0  0  0  0  0
   59.7560   29.2600   48.8280 C   0  0  1  0  0  0  0  0  0  0  0  0
   59.9130   29.8090   50.2580 C   0  0  0  0  0  0  0  0  0  0  0  0
   61.3150   30.1750   50.5080 N   0  0  0  0  0  0  0  0  0  0  0  0
   61.9720   29.7760   51.7560 C   0  0  0  0  0  0  0  0  0  0  0  0
   62.0280   30.8900   49.4730 C   0  0  0  0  0  0  0  0  0  0  0  0
   63.2220   31.5910   49.7330 C   0  0  0  0  0  0  0  0  0  0  0  0
   63.8570   32.2990   48.7080 C   0  0  0  0  0  0  0  0  0  0  0  0
   63.3130   32.3110   47.4200 C   0  0  0  0  0  0  0  0  0  0  0  0
   62.1350   31.6110   47.1510 C   0  0  0  0  0  0  0  0  0  0  0  0
   61.4980   30.8940   48.1680 C   0  0  0  0  0  0  0  0  0  0  0  0
   60.3250   30.1770   47.8900 O   0  0  0  0  0  0  0  0  0  0  0  0
   59.8720   28.6060   45.4510 C   0  0  0  0  0  0  0  0  0  0  0  0
   59.1350   29.2730   44.4680 C   0  0  0  0  0  0  0  0  0  0  0  0
   59.9850   34.5940   47.3270 C   0  0  0  0  0  0  0  0  0  0  0  0
   60.6520   33.9160   48.5290 C   0  0  0  0  0  0  0  0  0  0  0  0
   59.1759   33.1378   52.8812 H   0  0  0  0  0  0  0  0  0  0  0  0
   57.8804   33.5200   51.6971 H   0  0  0  0  0  0  0  0  0  0  0  0
   58.6464   31.8952   51.6971 H   0  0  0  0  0  0  0  0  0  0  0  0
   58.3772   31.7076   49.3938 H   0  0  0  0  0  0  0  0  0  0  0  0
   57.5684   33.3128   49.1291 H   0  0  0  0  0  0  0  0  0  0  0  0
   59.2799   31.7235   47.1701 H   0  0  0  0  0  0  0  0  0  0  0  0
   57.5453   32.2028   47.0222 H   0  0  0  0  0  0  0  0  0  0  0  0
   56.8324   32.6785   45.4185 H   0  0  0  0  0  0  0  0  0  0  0  0
   56.8119   33.8951   44.0552 H   0  0  0  0  0  0  0  0  0  0  0  0
   58.6949   32.8181   42.9962 H   0  0  0  0  0  0  0  0  0  0  0  0
   58.8409   31.6556   44.3791 H   0  0  0  0  0  0  0  0  0  0  0  0
   55.9811   28.5111   45.5454 H   0  0  0  0  0  0  0  0  0  0  0  0
   57.2958   27.3712   47.3300 H   0  0  0  0  0  0  0  0  0  0  0  0
   60.1253   27.2448   49.5254 H   0  0  0  0  0  0  0  0  0  0  0  0
   61.5153   28.0083   48.6815 H   0  0  0  0  0  0  0  0  0  0  0  0
   58.6816   29.1425   48.6232 H   0  0  0  0  0  0  0  0  0  0  0  0
   59.2778   30.6990   50.3777 H   0  0  0  0  0  0  0  0  0  0  0  0
   59.6099   29.0333   50.9766 H   0  0  0  0  0  0  0  0  0  0  0  0
   61.3816   30.1346   52.6121 H   0  0  0  0  0  0  0  0  0  0  0  0
   62.0475   28.6793   51.7963 H   0  0  0  0  0  0  0  0  0  0  0  0
   62.9799   30.2147   51.7963 H   0  0  0  0  0  0  0  0  0  0  0  0
   63.6554   31.5814   50.7440 H   0  0  0  0  0  0  0  0  0  0  0  0
   64.7872   32.8481   48.9155 H   0  0  0  0  0  0  0  0  0  0  0  0
   63.8136   32.8726   46.6175 H   0  0  0  0  0  0  0  0  0  0  0  0
   61.7077   31.6238   46.1375 H   0  0  0  0  0  0  0  0  0  0  0  0
   60.9711   28.6159   45.4088 H   0  0  0  0  0  0  0  0  0  0  0  0
   59.6567   29.8016   43.6566 H   0  0  0  0  0  0  0  0  0  0  0  0
   60.7508   34.7966   46.5638 H   0  0  0  0  0  0  0  0  0  0  0  0
   59.5172   35.5251   47.6794 H   0  0  0  0  0  0  0  0  0  0  0  0
   61.2797   33.0852   48.1743 H   0  0  0  0  0  0  0  0  0  0  0  0
   61.2692   34.6563   49.0592 H   0  0  0  0  0  0  0  0  0  0  0  0
  1  2  1  0
  2  3  2  0
  2  4  1  0
  4  5  1  0
  5  6  1  0
  6  7  1  0
  7  8  1  0
  8  9  2  0
  8 10  1  0
 10 11  1  0
 11 12  1  0
 12 13  1  0
 13 14  2  0
 13 15  1  0
 15 16  2  0
 16 17  1  0
 17 18  2  0
 18 19  1  0
 19 20  1  0
 20 21  1  0
 21 22  1  0
 22 23  1  0
 23 24  1  0
 23 25  1  0
 25 26  2  0
 26 27  1  0
 27 28  2  0
 28 29  1  0
 29 30  2  0
 30 31  1  0
 18 32  1  0
 32 33  2  0
  7 34  1  0
 34 35  1  0
 35  4  1  0
 33 15  1  0
 31 21  1  0
 30 25  1  0
  1 36  1  0
  1 37  1  0
  1 38  1  0
  5 39  1  0
  5 40  1  0
  6 41  1  0
  6 42  1  0
 10 43  1  0
 10 44  1  0
 11 45  1  0
 11 46  1  0
 16 47  1  0
 17 48  1  0
 20 49  1  0
 20 50  1  0
 21 51  1  6
 22 52  1  0
 22 53  1  0
 24 54  1  0
 24 55  1  0
 24 56  1  0
 26 57  1  0
 27 58  1  0
 28 59  1  0
 29 60  1  0
 32 61  1  0
 33 62  1  0
 34 63  1  0
 34 64  1  0
 35 65  1  0
 35 66  1  0
M  CHG  1  12  -1
M  END
>  <UniqueID>  (36) 
34

>  <SMILES>  (36) 
CC(=O)N1CCN(C(=O)CC[N-]C(=O)c2ccc(OC[C@H]3CN(C)c4ccccc4O3)cc2)CC1

>  <Energy>  (36) 
69.85603805011314

>  <Genealogy>  (36) 
CC(=O)N1CCN(C(=O)CC[N-]C(=O)c2ccc(OCC3CN(C)c4ccccc4O3)cc2)CC1 (protonated)
CC(=O)N1CCN(C(=O)CC[N-]C(=O)c2ccc(OC[C@H]3CN(C)c4ccccc4O3)cc2)CC1 (chirality)
CC(=O)N1CCN(C(=O)CC[N-]C(=O)c2ccc(OC[C@H]3CN(C)c4ccccc4O3)cc2)CC1 (3D coordinates assigned)
CC(=O)N1CCN(C(=O)CC[N-]C(=O)c2ccc(OC[C@H]3CN(C)c4ccccc4O3)cc2)CC1 (nonaromatic ring conformer: 69.85603805011314 kcal/mol)

>  <smiles>  (36) 
CC(=O)N1CCN(C(=O)CCNC(=O)c2ccc(OCC3CN(C)c4ccccc4O3)cc2)CC1

>  <score_type>  (36) 
oracle

>  <origin>  (36) 
adg

>  <m_score__min__energy>  (36) 
-9.8100000000000005

>  <m_primary>  (36) 
energy

$$$$
36:0
     RDKit          3D

 49 51  0  0  0  0  0  0  0  0999 V2000
   58.9520   32.1450   49.3520 N   0  0  0  0  0  0  0  0  0  0  0  0
   59.2420   33.4050   48.7390 C   0  0  0  0  0  0  0  0  0  0  0  0
   59.6770   34.3430   49.4580 O   0  0  0  0  0  0  0  0  0  0  0  0
   59.0590   33.6200   47.2820 C   0  0  0  0  0  0  0  0  0  0  0  0
   59.4510   34.8390   46.6990 C   0  0  0  0  0  0  0  0  0  0  0  0
   59.2860   35.0560   45.3300 C   0  0  0  0  0  0  0  0  0  0  0  0
   58.7270   34.0650   44.5240 C   0  0  0  0  0  0  0  0  0  0  0  0
   58.3140   32.8470   45.0840 C   0  0  0  0  0  0  0  0  0  0  0  0
   57.6810   31.7880   44.2120 C   0  0  0  0  0  0  0  0  0  0  0  0
   57.3790   30.4930   45.0000 C   0  0  1  0  0  0  0  0  0  0  0  0
   56.2420   29.7020   44.3360 C   0  0  0  0  0  0  0  0  0  0  0  0
   55.6550   28.7030   45.2290 N   0  0  0  0  0  0  0  0  0  0  0  0
   56.2820   27.5000   45.6940 C   0  0  0  0  0  0  0  0  0  0  0  0
   55.5950   26.6680   46.3430 O   0  0  0  0  0  0  0  0  0  0  0  0
   57.7620   27.2610   45.5300 C   0  0  0  0  0  0  0  0  0  0  0  0
   58.5560   28.4270   45.9510 N   0  0  0  0  0  0  0  0  0  0  0  0
   59.1080   28.4830   47.2850 C   0  0  0  0  0  0  0  0  0  0  0  0
   59.0130   27.4880   48.0540 O   0  0  0  0  0  0  0  0  0  0  0  0
   59.7430   29.6780   47.7570 N   0  0  0  0  0  0  0  0  0  0  0  0
   60.9030   29.6820   48.6400 C   0  0  0  0  0  0  0  0  0  0  0  0
   61.6510   30.9780   48.4920 C   0  0  0  0  0  0  0  0  0  0  0  0
   62.3230   31.5260   49.5960 C   0  0  0  0  0  0  0  0  0  0  0  0
   63.0570   32.7080   49.4590 C   0  0  0  0  0  0  0  0  0  0  0  0
   63.1280   33.3470   48.2180 C   0  0  0  0  0  0  0  0  0  0  0  0
   62.4660   32.8040   47.1130 C   0  0  0  0  0  0  0  0  0  0  0  0
   61.7320   31.6220   47.2460 C   0  0  0  0  0  0  0  0  0  0  0  0
   58.5920   29.5980   45.1130 C   0  0  0  0  0  0  0  0  0  0  0  0
   59.6040   29.8220   44.3920 O   0  0  0  0  0  0  0  0  0  0  0  0
   58.4740   32.6340   46.4640 C   0  0  0  0  0  0  0  0  0  0  0  0
   58.7530   31.2900   48.7890 H   0  0  0  0  0  0  0  0  0  0  0  0
   59.0280   32.0430   50.3880 H   0  0  0  0  0  0  0  0  0  0  0  0
   59.8911   35.6275   47.3272 H   0  0  0  0  0  0  0  0  0  0  0  0
   59.5982   36.0125   44.8853 H   0  0  0  0  0  0  0  0  0  0  0  0
   58.6094   34.2391   43.4443 H   0  0  0  0  0  0  0  0  0  0  0  0
   56.7393   32.1819   43.8020 H   0  0  0  0  0  0  0  0  0  0  0  0
   58.3914   31.5395   43.4098 H   0  0  0  0  0  0  0  0  0  0  0  0
   57.0789   30.8067   46.0107 H   0  0  0  0  0  0  0  0  0  0  0  0
   55.4548   30.4066   44.0298 H   0  0  0  0  0  0  0  0  0  0  0  0
   56.6672   29.1685   43.4732 H   0  0  0  0  0  0  0  0  0  0  0  0
   58.0521   26.3937   46.1412 H   0  0  0  0  0  0  0  0  0  0  0  0
   57.9620   27.0792   44.4637 H   0  0  0  0  0  0  0  0  0  0  0  0
   60.5691   29.5700   49.6821 H   0  0  0  0  0  0  0  0  0  0  0  0
   61.5667   28.8468   48.3717 H   0  0  0  0  0  0  0  0  0  0  0  0
   62.2718   31.0233   50.5731 H   0  0  0  0  0  0  0  0  0  0  0  0
   63.5787   33.1352   50.3281 H   0  0  0  0  0  0  0  0  0  0  0  0
   63.7049   34.2774   48.1108 H   0  0  0  0  0  0  0  0  0  0  0  0
   62.5229   33.3080   46.1369 H   0  0  0  0  0  0  0  0  0  0  0  0
   61.2166   31.1950   46.3731 H   0  0  0  0  0  0  0  0  0  0  0  0
   58.1384   31.6863   46.9103 H   0  0  0  0  0  0  0  0  0  0  0  0
  1  2  1  0
  2  3  2  0
  2  4  1  0
  4  5  2  0
  5  6  1  0
  6  7  2  0
  7  8  1  0
  8  9  1  0
  9 10  1  0
 10 11  1  0
 11 12  1  0
 12 13  1  0
 13 14  2  0
 13 15  1  0
 15 16  1  0
 16 17  1  0
 17 18  2  0
 17 19  1  0
 19 20  1  0
 20 21  1  0
 21 22  2  0
 22 23  1  0
 23 24  2  0
 24 25  1  0
 25 26  2  0
 16 27  1  0
 27 28  2  0
  8 29  2  0
 29  4  1  0
 27 10  1  0
 26 21  1  0
  1 30  1  0
  1 31  1  0
  5 32  1  0
  6 33  1  0
  7 34  1  0
  9 35  1  0
  9 36  1  0
 10 37  1  1
 11 38  1  0
 11 39  1  0
 15 40  1  0
 15 41  1  0
 20 42  1  0
 20 43  1  0
 22 44  1  0
 23 45  1  0
 24 46  1  0
 25 47  1  0
 26 48  1  0
 29 49  1  0
M  CHG  2  12  -1  19  -1
M  END
>  <UniqueID>  (37) 
35

>  <SMILES>  (37) 
NC(=O)c1cccc(C[C@H]2C[N-]C(=O)CN(C(=O)[N-]Cc3ccccc3)C2=O)c1

>  <Energy>  (37) 
55.927937599669136

>  <Genealogy>  (37) 
NC(=O)c1cccc(CC2C[N-]C(=O)CN(C(=O)[N-]Cc3ccccc3)C2=O)c1 (protonated)
NC(=O)c1cccc(C[C@H]2C[N-]C(=O)CN(C(=O)[N-]Cc3ccccc3)C2=O)c1 (chirality)
NC(=O)c1cccc(C[C@H]2C[N-]C(=O)CN(C(=O)[N-]Cc3ccccc3)C2=O)c1 (3D coordinates assigned)
NC(=O)c1cccc(C[C@H]2C[N-]C(=O)CN(C(=O)[N-]Cc3ccccc3)C2=O)c1 (nonaromatic ring conformer: 55.927937599669136 kcal/mol)

>  <smiles>  (37) 
NC(=O)c1cccc(CC2CNC(=O)CN(C(=O)NCc3ccccc3)C2=O)c1

>  <score_type>  (37) 
oracle

>  <origin>  (37) 
adg

>  <m_score__min__energy>  (37) 
-9.7300000000000004

>  <m_primary>  (37) 
energy

$$$$
37:0
     RDKit          3D

 57 60  0  0  0  0  0  0  0  0999 V2000
   51.9010   28.3480   53.5770 C   0  0  0  0  0  0  0  0  0  0  0  0
   53.1640   28.8030   53.5050 C   0  0  0  0  0  0  0  0  0  0  0  0
   53.5370   30.0970   53.1190 C   0  0  0  0  0  0  0  0  0  0  0  0
   52.7300   31.1160   52.7610 C   0  0  0  0  0  0  0  0  0  0  0  0
   52.1130   31.2520   51.4280 C   0  0  0  0  0  0  0  0  0  0  0  0
   52.1250   30.2700   50.5100 N   0  0  0  0  0  0  0  0  0  0  0  0
   51.3990   30.7800   49.4920 C   0  0  0  0  0  0  0  0  0  0  0  0
   51.1920   30.1470   48.4240 O   0  0  0  0  0  0  0  0  0  0  0  0
   50.9020   32.0150   49.7130 N   0  0  0  0  0  0  0  0  0  0  0  0
   51.3510   32.2970   50.9480 C   0  0  0  0  0  0  0  0  0  0  0  0
   51.0290   33.4610   51.6340 O   0  0  0  0  0  0  0  0  0  0  0  0
   54.9180   30.1110   53.1010 C   0  0  0  0  0  0  0  0  0  0  0  0
   55.3370   28.8580   53.4910 C   0  0  0  0  0  0  0  0  0  0  0  0
   56.7630   28.4820   53.4980 C   0  0  0  0  0  0  0  0  0  0  0  0
   57.0820   27.2630   53.4500 O   0  0  0  0  0  0  0  0  0  0  0  0
   57.7840   29.4930   53.4400 N   0  0  0  0  0  0  0  0  0  0  0  0
   57.6030   30.7670   54.1580 C   0  0  0  0  0  0  0  0  0  0  0  0
   58.7480   31.7360   53.8540 C   0  0  0  0  0  0  0  0  0  0  0  0
   59.0140   31.7250   52.4080 N   0  0  0  0  0  0  0  0  0  0  0  0
   58.6580   32.8660   51.5960 C   0  0  0  0  0  0  0  0  0  0  0  0
   57.8240   33.7090   52.0300 O   0  0  0  0  0  0  0  0  0  0  0  0
   59.2140   33.0520   50.2400 C   0  0  0  0  0  0  0  0  0  0  0  0
   58.6100   32.4420   49.1270 C   0  0  0  0  0  0  0  0  0  0  0  0
   59.1410   32.6320   47.8470 C   0  0  0  0  0  0  0  0  0  0  0  0
   60.2820   33.4210   47.6710 C   0  0  0  0  0  0  0  0  0  0  0  0
   60.8990   34.0160   48.7750 C   0  0  0  0  0  0  0  0  0  0  0  0
   60.3720   33.8280   50.0570 C   0  0  0  0  0  0  0  0  0  0  0  0
   59.3120   30.4330   51.7590 C   0  0  0  0  0  0  0  0  0  0  0  0
   59.0260   29.2470   52.6930 C   0  0  0  0  0  0  0  0  0  0  0  0
   54.2740   28.0540   53.7720 N   0  0  0  0  0  0  0  0  0  0  0  0
   54.2900   26.6560   54.2690 C   0  0  0  0  0  0  0  0  0  0  0  0
   53.7330   26.5820   55.6940 C   0  0  0  0  0  0  0  0  0  0  0  0
   53.5870   25.6700   53.3210 C   0  0  0  0  0  0  0  0  0  0  0  0
   51.7067   27.3121   53.8919 H   0  0  0  0  0  0  0  0  0  0  0  0
   51.0619   29.0116   53.3210 H   0  0  0  0  0  0  0  0  0  0  0  0
   52.5186   31.8941   53.5092 H   0  0  0  0  0  0  0  0  0  0  0  0
   55.5607   30.9607   52.8274 H   0  0  0  0  0  0  0  0  0  0  0  0
   56.6525   31.2241   53.8455 H   0  0  0  0  0  0  0  0  0  0  0  0
   57.5953   30.5619   55.2387 H   0  0  0  0  0  0  0  0  0  0  0  0
   58.4653   32.7513   54.1692 H   0  0  0  0  0  0  0  0  0  0  0  0
   59.6513   31.4266   54.4002 H   0  0  0  0  0  0  0  0  0  0  0  0
   57.7175   31.8136   49.2629 H   0  0  0  0  0  0  0  0  0  0  0  0
   58.6603   32.1600   46.9774 H   0  0  0  0  0  0  0  0  0  0  0  0
   60.6944   33.5735   46.6627 H   0  0  0  0  0  0  0  0  0  0  0  0
   61.7994   34.6324   48.6356 H   0  0  0  0  0  0  0  0  0  0  0  0
   60.8655   34.2891   50.9253 H   0  0  0  0  0  0  0  0  0  0  0  0
   58.6890   30.3350   50.8578 H   0  0  0  0  0  0  0  0  0  0  0  0
   60.3817   30.4171   51.5032 H   0  0  0  0  0  0  0  0  0  0  0  0
   58.9181   28.3293   52.0962 H   0  0  0  0  0  0  0  0  0  0  0  0
   59.8600   29.1313   53.4008 H   0  0  0  0  0  0  0  0  0  0  0  0
   55.3422   26.3362   54.2957 H   0  0  0  0  0  0  0  0  0  0  0  0
   54.5561   26.6913   56.4155 H   0  0  0  0  0  0  0  0  0  0  0  0
   53.0032   27.3911   55.8449 H   0  0  0  0  0  0  0  0  0  0  0  0
   53.2398   25.6104   55.8449 H   0  0  0  0  0  0  0  0  0  0  0  0
   53.0483   24.9144   53.9116 H   0  0  0  0  0  0  0  0  0  0  0  0
   52.8737   26.2166   52.6867 H   0  0  0  0  0  0  0  0  0  0  0  0
   54.3363   25.1738   52.6867 H   0  0  0  0  0  0  0  0  0  0  0  0
  1  2  2  0
  2  3  1  0
  3  4  2  3
  4  5  1  0
  5  6  1  0
  6  7  1  0
  7  8  2  0
  7  9  1  0
  9 10  1  0
 10 11  1  0
  3 12  1  0
 12 13  2  0
 13 14  1  0
 14 15  2  0
 14 16  1  0
 16 17  1  0
 17 18  1  0
 18 19  1  0
 19 20  1  0
 20 21  2  0
 20 22  1  0
 22 23  2  0
 23 24  1  0
 24 25  2  0
 25 26  1  0
 26 27  2  0
 19 28  1  0
 28 29  1  0
 13 30  1  0
 30 31  1  0
 31 32  1  0
 31 33  1  0
 30  2  1  0
 10  5  2  0
 29 16  1  0
 27 22  1  0
  1 34  1  0
  1 35  1  0
  4 36  1  0
 12 37  1  0
 17 38  1  0
 17 39  1  0
 18 40  1  0
 18 41  1  0
 23 42  1  0
 24 43  1  0
 25 44  1  0
 26 45  1  0
 27 46  1  0
 28 47  1  0
 28 48  1  0
 29 49  1  0
 29 50  1  0
 31 51  1  0
 32 52  1  0
 32 53  1  0
 32 54  1  0
 33 55  1  0
 33 56  1  0
 33 57  1  0
M  CHG  3   6  -1   9  -1  11  -1
M  END
>  <UniqueID>  (38) 
36

>  <SMILES>  (38) 
C=c1c(=Cc2[n-]c(=O)[n-]c2[O-])cc(C(=O)N2CCN(C(=O)c3ccccc3)CC2)n1C(C)C

>  <Energy>  (38) 
138.11048209885374

>  <Genealogy>  (38) 
C=c1c(=Cc2[n-]c(=O)[n-]c2[O-])cc(C(=O)N2CCN(C(=O)c3ccccc3)CC2)n1C(C)C (protonated)
C=c1c(=Cc2[n-]c(=O)[n-]c2[O-])cc(C(=O)N2CCN(C(=O)c3ccccc3)CC2)n1C(C)C (3D coordinates assigned)
C=c1c(=Cc2[n-]c(=O)[n-]c2[O-])cc(C(=O)N2CCN(C(=O)c3ccccc3)CC2)n1C(C)C (nonaromatic ring conformer: 138.11048209885374 kcal/mol)

>  <smiles>  (38) 
C=c1c(=Cc2[nH]c(=O)[nH]c2O)cc(C(=O)N2CCN(C(=O)c3ccccc3)CC2)n1C(C)C

>  <score_type>  (38) 
oracle

>  <origin>  (38) 
adg

>  <m_score__min__energy>  (38) 
-17.449999999999999

>  <m_primary>  (38) 
energy

$$$$
38:0
     RDKit          3D

 45 47  0  0  0  0  0  0  0  0999 V2000
   57.2500   31.2190   42.7950 O   0  0  0  0  0  0  0  0  0  0  0  0
   56.8570   31.1440   43.9920 C   0  0  0  0  0  0  0  0  0  0  0  0
   55.5490   30.4620   44.2870 C   0  0  0  0  0  0  0  0  0  0  0  0
   55.7820   29.1610   44.9120 N   0  0  0  0  0  0  0  0  0  0  0  0
   56.9030   28.3080   44.6350 C   0  0  0  0  0  0  0  0  0  0  0  0
   57.6020   28.5260   43.6090 O   0  0  0  0  0  0  0  0  0  0  0  0
   57.2890   27.2100   45.5440 C   0  0  0  0  0  0  0  0  0  0  0  0
   58.6480   26.9260   45.7430 C   0  0  0  0  0  0  0  0  0  0  0  0
   59.0330   25.9280   46.6430 C   0  0  0  0  0  0  0  0  0  0  0  0
   58.0650   25.1970   47.3370 C   0  0  0  0  0  0  0  0  0  0  0  0
   56.7090   25.4540   47.1240 C   0  0  0  0  0  0  0  0  0  0  0  0
   56.3160   26.4510   46.2240 C   0  0  0  0  0  0  0  0  0  0  0  0
   54.9610   26.6710   45.9960 O   0  0  0  0  0  0  0  0  0  0  0  0
   57.6970   31.7160   45.0710 C   0  0  0  0  0  0  0  0  0  0  0  0
   57.9010   33.1040   45.1390 C   0  0  0  0  0  0  0  0  0  0  0  0
   58.7020   33.6530   46.1440 C   0  0  0  0  0  0  0  0  0  0  0  0
   59.2940   32.8250   47.1070 C   0  0  0  0  0  0  0  0  0  0  0  0
   60.2490   33.5270   48.4160 S   0  0  0  0  0  0  0  0  0  0  0  0
   59.4150   33.5770   49.6680 O   0  0  0  0  0  0  0  0  0  0  0  0
   60.6210   34.9380   48.0530 O   0  0  0  0  0  0  0  0  0  0  0  0
   61.7070   32.6050   48.7300 N   0  0  0  0  0  0  0  0  0  0  0  0
   62.2280   32.0030   47.4980 C   0  0  0  0  0  0  0  0  0  0  0  0
   63.3270   32.9040   46.9520 C   0  0  0  0  0  0  0  0  0  0  0  0
   63.7260   33.8050   48.1040 C   0  0  0  0  0  0  0  0  0  0  0  0
   62.7770   33.4630   49.2480 C   0  0  0  0  0  0  0  0  0  0  0  0
   59.0850   31.4420   47.0490 C   0  0  0  0  0  0  0  0  0  0  0  0
   58.2890   30.8900   46.0410 C   0  0  0  0  0  0  0  0  0  0  0  0
   54.9580   31.0910   44.9689 H   0  0  0  0  0  0  0  0  0  0  0  0
   55.0041   30.3120   43.3433 H   0  0  0  0  0  0  0  0  0  0  0  0
   59.4130   27.4901   45.1894 H   0  0  0  0  0  0  0  0  0  0  0  0
   60.1004   25.7176   46.8053 H   0  0  0  0  0  0  0  0  0  0  0  0
   58.3714   24.4187   48.0515 H   0  0  0  0  0  0  0  0  0  0  0  0
   55.9484   24.8717   47.6647 H   0  0  0  0  0  0  0  0  0  0  0  0
   57.4273   33.7631   44.3965 H   0  0  0  0  0  0  0  0  0  0  0  0
   58.8684   34.7398   46.1792 H   0  0  0  0  0  0  0  0  0  0  0  0
   62.6387   31.0061   47.7162 H   0  0  0  0  0  0  0  0  0  0  0  0
   61.4215   31.8984   46.7574 H   0  0  0  0  0  0  0  0  0  0  0  0
   64.1862   32.3031   46.6193 H   0  0  0  0  0  0  0  0  0  0  0  0
   62.9835   33.4835   46.0824 H   0  0  0  0  0  0  0  0  0  0  0  0
   64.7676   33.6104   48.3993 H   0  0  0  0  0  0  0  0  0  0  0  0
   63.6604   34.8678   47.8279 H   0  0  0  0  0  0  0  0  0  0  0  0
   63.3269   32.9322   50.0391 H   0  0  0  0  0  0  0  0  0  0  0  0
   62.3483   34.3849   49.6679 H   0  0  0  0  0  0  0  0  0  0  0  0
   59.5494   30.7864   47.8003 H   0  0  0  0  0  0  0  0  0  0  0  0
   58.1253   29.8028   46.0072 H   0  0  0  0  0  0  0  0  0  0  0  0
  1  2  2  0
  2  3  1  0
  3  4  1  0
  4  5  1  0
  5  6  2  0
  5  7  1  0
  7  8  2  0
  8  9  1  0
  9 10  2  0
 10 11  1  0
 11 12  2  0
 12 13  1  0
  2 14  1  0
 14 15  2  0
 15 16  1  0
 16 17  2  0
 17 18  1  0
 18 19  2  0
 18 20  2  0
 18 21  1  0
 21 22  1  0
 22 23  1  0
 23 24  1  0
 24 25  1  0
 17 26  1  0
 26 27  2  0
 12  7  1  0
 27 14  1  0
 25 21  1  0
  3 28  1  0
  3 29  1  0
  8 30  1  0
  9 31  1  0
 10 32  1  0
 11 33  1  0
 15 34  1  0
 16 35  1  0
 22 36  1  0
 22 37  1  0
 23 38  1  0
 23 39  1  0
 24 40  1  0
 24 41  1  0
 25 42  1  0
 25 43  1  0
 26 44  1  0
 27 45  1  0
M  CHG  2   4  -1  13  -1
M  END
>  <UniqueID>  (39) 
37

>  <SMILES>  (39) 
O=C(C[N-]C(=O)c1ccccc1[O-])c1ccc(S(=O)(=O)N2CCCC2)cc1

>  <Energy>  (39) 
50.889542077572585

>  <Genealogy>  (39) 
O=C(C[N-]C(=O)c1ccccc1[O-])c1ccc(S(=O)(=O)N2CCCC2)cc1 (protonated)
O=C(C[N-]C(=O)c1ccccc1[O-])c1ccc(S(=O)(=O)N2CCCC2)cc1 (3D coordinates assigned)
O=C(C[N-]C(=O)c1ccccc1[O-])c1ccc(S(=O)(=O)N2CCCC2)cc1 (nonaromatic ring conformer: 50.889542077572585 kcal/mol)

>  <smiles>  (39) 
O=C(CNC(=O)c1ccccc1O)c1ccc(S(=O)(=O)N2CCCC2)cc1

>  <score_type>  (39) 
oracle

>  <origin>  (39) 
adg

>  <m_score__min__energy>  (39) 
-14.710000000000001

>  <m_primary>  (39) 
energy

$$$$
39:0
     RDKit          3D

 47 50  0  0  0  0  0  0  0  0999 V2000
   65.2000   32.0040   50.1200 C   0  0  0  0  0  0  0  0  0  0  0  0
   65.2310   33.4640   50.2850 N   0  0  0  0  0  0  0  0  0  0  0  0
   66.2720   33.8390   51.2480 C   0  0  0  0  0  0  0  0  0  0  0  0
   63.6800   34.0170   50.8680 S   0  0  0  0  0  0  0  0  0  0  0  0
   63.2870   33.2480   52.1000 O   0  0  0  0  0  0  0  0  0  0  0  0
   63.7590   35.4760   51.2180 O   0  0  0  0  0  0  0  0  0  0  0  0
   62.4610   33.8060   49.6130 C   0  0  0  0  0  0  0  0  0  0  0  0
   61.1040   33.8260   49.9560 C   0  0  0  0  0  0  0  0  0  0  0  0
   60.1250   33.6770   48.9680 C   0  0  0  0  0  0  0  0  0  0  0  0
   60.4920   33.5010   47.6240 C   0  0  0  0  0  0  0  0  0  0  0  0
   59.4530   33.3590   46.5760 C   0  0  0  0  0  0  0  0  0  0  0  0
   58.9040   34.3900   46.1000 O   0  0  0  0  0  0  0  0  0  0  0  0
   59.0770   32.0650   46.0780 N   0  0  0  0  0  0  0  0  0  0  0  0
   59.6600   30.8610   46.6880 C   0  0  0  0  0  0  0  0  0  0  0  0
   58.6140   29.7380   46.7600 C   0  0  0  0  0  0  0  0  0  0  0  0
   57.8460   29.6730   45.5150 N   0  0  0  0  0  0  0  0  0  0  0  0
   57.7450   30.6640   44.6110 C   0  0  0  0  0  0  0  0  0  0  0  0
   56.9670   30.3190   43.5670 N   0  0  0  0  0  0  0  0  0  0  0  0
   56.5450   29.0900   43.8240 N   0  0  0  0  0  0  0  0  0  0  0  0
   57.0580   28.7000   45.0080 C   0  0  0  0  0  0  0  0  0  0  0  0
   56.7710   27.3860   45.6190 C   0  0  0  0  0  0  0  0  0  0  0  0
   57.6750   26.4690   46.1160 C   0  0  0  0  0  0  0  0  0  0  0  0
   56.8890   25.4490   46.6050 C   0  0  0  0  0  0  0  0  0  0  0  0
   55.5920   25.7510   46.4140 N   0  0  0  0  0  0  0  0  0  0  0  0
   55.5190   26.9320   45.8200 N   0  0  0  0  0  0  0  0  0  0  0  0
   58.4800   31.9590   44.7380 C   0  0  0  0  0  0  0  0  0  0  0  0
   61.8560   33.4960   47.2830 C   0  0  0  0  0  0  0  0  0  0  0  0
   62.8320   33.6470   48.2720 C   0  0  0  0  0  0  0  0  0  0  0  0
   65.1898   31.5233   51.1094 H   0  0  0  0  0  0  0  0  0  0  0  0
   64.2956   31.7170   49.5636 H   0  0  0  0  0  0  0  0  0  0  0  0
   66.0914   31.6789   49.5636 H   0  0  0  0  0  0  0  0  0  0  0  0
   65.8917   33.7020   52.2710 H   0  0  0  0  0  0  0  0  0  0  0  0
   67.1569   33.2031   51.0976 H   0  0  0  0  0  0  0  0  0  0  0  0
   66.5481   34.8931   51.0976 H   0  0  0  0  0  0  0  0  0  0  0  0
   60.8063   33.9594   51.0065 H   0  0  0  0  0  0  0  0  0  0  0  0
   59.0608   33.6978   49.2456 H   0  0  0  0  0  0  0  0  0  0  0  0
   60.5130   30.5236   46.0809 H   0  0  0  0  0  0  0  0  0  0  0  0
   59.9946   31.1034   47.7075 H   0  0  0  0  0  0  0  0  0  0  0  0
   59.1247   28.7772   46.9210 H   0  0  0  0  0  0  0  0  0  0  0  0
   57.9257   29.9453   47.5926 H   0  0  0  0  0  0  0  0  0  0  0  0
   55.9080   28.5430   43.2030 H   0  0  0  0  0  0  0  0  0  0  0  0
   58.7729   26.5372   46.1205 H   0  0  0  0  0  0  0  0  0  0  0  0
   57.2639   24.5296   47.0785 H   0  0  0  0  0  0  0  0  0  0  0  0
   59.2755   32.0031   43.9795 H   0  0  0  0  0  0  0  0  0  0  0  0
   57.7769   32.7914   44.5873 H   0  0  0  0  0  0  0  0  0  0  0  0
   62.1567   33.3726   46.2321 H   0  0  0  0  0  0  0  0  0  0  0  0
   63.8967   33.6409   47.9957 H   0  0  0  0  0  0  0  0  0  0  0  0
  1  2  1  0
  2  3  1  0
  2  4  1  0
  4  5  2  0
  4  6  2  0
  4  7  1  0
  7  8  2  0
  8  9  1  0
  9 10  2  0
 10 11  1  0
 11 12  2  0
 11 13  1  0
 13 14  1  0
 14 15  1  0
 15 16  1  0
 16 17  1  0
 17 18  2  0
 18 19  1  0
 19 20  2  0
 20 21  1  0
 21 22  1  0
 22 23  2  0
 23 24  1  0
 24 25  1  0
 17 26  1  0
 10 27  1  0
 27 28  2  0
 28  7  1  0
 26 13  1  0
 20 16  1  0
 25 21  2  0
  1 29  1  0
  1 30  1  0
  1 31  1  0
  3 32  1  0
  3 33  1  0
  3 34  1  0
  8 35  1  0
  9 36  1  0
 14 37  1  0
 14 38  1  0
 15 39  1  0
 15 40  1  0
 19 41  1  0
 22 42  1  0
 23 43  1  0
 26 44  1  0
 26 45  1  0
 27 46  1  0
 28 47  1  0
M  CHG  2  19   1  24  -1
M  END
>  <UniqueID>  (40) 
38

>  <SMILES>  (40) 
CN(C)S(=O)(=O)c1ccc(C(=O)N2CCn3c(n[nH+]c3-c3cc[n-]n3)C2)cc1

>  <Energy>  (40) 
120.85205767403674

>  <Genealogy>  (40) 
CN(C)S(=O)(=O)c1ccc(C(=O)N2CCn3c(n[nH+]c3-c3cc[n-]n3)C2)cc1 (protonated)
CN(C)S(=O)(=O)c1ccc(C(=O)N2CCn3c(n[nH+]c3-c3cc[n-]n3)C2)cc1 (3D coordinates assigned)
CN(C)S(=O)(=O)c1ccc(C(=O)N2CCn3c(n[nH+]c3-c3cc[n-]n3)C2)cc1 (nonaromatic ring conformer: 120.85205767403674 kcal/mol)

>  <smiles>  (40) 
CN(C)S(=O)(=O)c1ccc(C(=O)N2CCn3c(nnc3-c3cc[nH]n3)C2)cc1

>  <score_type>  (40) 
oracle

>  <origin>  (40) 
adg

>  <m_score__min__energy>  (40) 
-8.8900000000000006

>  <m_primary>  (40) 
energy

$$$$
40:0
     RDKit          3D

 23 24  0  0  0  0  0  0  0  0999 V2000
   57.9880   33.0810   44.5960 C   0  0  0  0  0  0  0  0  0  0  0  0
   56.8710   32.2210   44.9630 N   0  0  0  0  0  0  0  0  0  0  0  0
   56.6200   30.9270   44.4000 C   0  0  0  0  0  0  0  0  0  0  0  0
   55.4600   30.4440   44.4860 O   0  0  0  0  0  0  0  0  0  0  0  0
   57.6800   30.1510   43.6730 C   0  0  0  0  0  0  0  0  0  0  0  0
   58.1330   28.9940   44.5020 C   0  0  0  0  0  0  0  0  0  0  0  0
   57.3160   27.9990   44.9080 N   0  0  0  0  0  0  0  0  0  0  0  0
   57.9630   27.0950   45.6930 C   0  0  0  0  0  0  0  0  0  0  0  0
   57.2770   25.9200   46.2580 C   0  0  0  0  0  0  0  0  0  0  0  0
   57.9100   24.8390   46.7480 N   0  0  0  0  0  0  0  0  0  0  0  0
   56.8980   24.0390   47.1470 C   0  0  0  0  0  0  0  0  0  0  0  0
   57.0920   22.9100   47.6700 O   0  0  0  0  0  0  0  0  0  0  0  0
   55.6620   24.5410   46.9420 N   0  0  0  0  0  0  0  0  0  0  0  0
   55.9190   25.7330   46.3790 C   0  0  0  0  0  0  0  0  0  0  0  0
   54.9310   26.6280   45.9860 O   0  0  0  0  0  0  0  0  0  0  0  0
   59.3080   27.3740   45.9250 C   0  0  0  0  0  0  0  0  0  0  0  0
   59.6860   28.8000   45.1190 S   0  0  0  0  0  0  0  0  0  0  0  0
   58.4762   33.4569   45.5073 H   0  0  0  0  0  0  0  0  0  0  0  0
   58.7136   32.5061   44.0018 H   0  0  0  0  0  0  0  0  0  0  0  0
   57.6177   33.9294   44.0018 H   0  0  0  0  0  0  0  0  0  0  0  0
   57.2700   29.7785   42.7227 H   0  0  0  0  0  0  0  0  0  0  0  0
   58.5383   30.8111   43.4790 H   0  0  0  0  0  0  0  0  0  0  0  0
   60.0001   26.7685   46.5286 H   0  0  0  0  0  0  0  0  0  0  0  0
  1  2  1  0
  2  3  1  0
  3  4  2  0
  3  5  1  0
  5  6  1  0
  6  7  2  0
  7  8  1  0
  8  9  1  0
  9 10  1  0
 10 11  1  0
 11 12  2  0
 11 13  1  0
 13 14  1  0
 14 15  1  0
  8 16  2  0
 16 17  1  0
 17  6  1  0
 14  9  2  0
  1 18  1  0
  1 19  1  0
  1 20  1  0
  5 21  1  0
  5 22  1  0
 16 23  1  0
M  CHG  4   2  -1  10  -1  13  -1  15  -1
M  END
>  <UniqueID>  (41) 
39

>  <SMILES>  (41) 
C[N-]C(=O)Cc1nc(-c2[n-]c(=O)[n-]c2[O-])cs1

>  <Energy>  (41) 
77.04714045803327

>  <Genealogy>  (41) 
C[N-]C(=O)Cc1nc(-c2[n-]c(=O)[n-]c2[O-])cs1 (protonated)
C[N-]C(=O)Cc1nc(-c2[n-]c(=O)[n-]c2[O-])cs1 (3D coordinates assigned)
C[N-]C(=O)Cc1nc(-c2[n-]c(=O)[n-]c2[O-])cs1 (optimized conformer: 77.04714045803327 kcal/mol)

>  <smiles>  (41) 
CNC(=O)Cc1nc(-c2[nH]c(=O)[nH]c2O)cs1

>  <score_type>  (41) 
oracle

>  <origin>  (41) 
adg

>  <m_score__min__energy>  (41) 
-15.699999999999999

>  <m_primary>  (41) 
energy

$$$$
41:0
     RDKit          3D

 57 59  0  0  0  0  0  0  0  0999 V2000
   52.5780   22.7800   45.3530 N   0  0  0  0  0  0  0  0  0  0  0  0
   53.7210   23.3740   45.2300 C   0  0  0  0  0  0  0  0  0  0  0  0
   53.8790   24.6510   45.6630 N   0  0  0  0  0  0  0  0  0  0  0  0
   55.0660   25.3020   45.5480 C   0  0  0  0  0  0  0  0  0  0  0  0
   55.1440   26.6570   46.0010 N   0  0  0  0  0  0  0  0  0  0  0  0
   56.1760   24.6300   44.9800 C   0  0  0  0  0  0  0  0  0  0  0  0
   57.5260   25.2960   44.8170 C   0  0  0  0  0  0  0  0  0  0  0  0
   58.3200   25.2370   46.1280 C   0  0  0  0  0  0  0  0  0  0  0  0
   59.3810   26.3040   46.1650 C   0  0  0  0  0  0  0  0  0  0  0  0
   60.5710   25.9460   46.3720 O   0  0  0  0  0  0  0  0  0  0  0  0
   59.0800   27.7480   45.9450 C   0  0  0  0  0  0  0  0  0  0  0  0
   57.7930   28.2780   46.1660 C   0  0  0  0  0  0  0  0  0  0  0  0
   57.5370   29.6350   45.9560 C   0  0  0  0  0  0  0  0  0  0  0  0
   58.5630   30.4980   45.5390 C   0  0  0  0  0  0  0  0  0  0  0  0
   58.2720   31.9490   45.2480 C   0  0  0  0  0  0  0  0  0  0  0  0
   58.6430   32.8440   46.4010 C   0  0  0  0  0  0  0  0  0  0  0  0
   59.1260   33.9800   46.1560 O   0  0  0  0  0  0  0  0  0  0  0  0
   58.4890   32.4430   47.7690 N   0  0  0  0  0  0  0  0  0  0  0  0
   59.2890   31.4510   48.4810 C   0  0  0  0  0  0  0  0  0  0  0  0
   60.7580   31.7540   48.3280 C   0  0  0  0  0  0  0  0  0  0  0  0
   61.5640   30.8640   48.5640 O   0  0  0  0  0  0  0  0  0  0  0  0
   61.2130   33.0980   48.0090 N   0  0  0  0  0  0  0  0  0  0  0  0
   61.9920   33.6820   49.1240 C   0  0  0  0  0  0  0  0  0  0  0  0
   63.4310   33.1590   49.1700 C   0  0  0  0  0  0  0  0  0  0  0  0
   64.0960   33.4240   47.8930 N   0  0  0  0  0  0  0  0  0  0  0  0
   63.4060   32.7180   46.8130 C   0  0  0  0  0  0  0  0  0  0  0  0
   61.9370   33.1700   46.7160 C   0  0  0  0  0  0  0  0  0  0  0  0
   59.8420   29.9730   45.3020 C   0  0  0  0  0  0  0  0  0  0  0  0
   60.0990   28.6150   45.5060 C   0  0  0  0  0  0  0  0  0  0  0  0
   55.9730   23.3130   44.5180 C   0  0  0  0  0  0  0  0  0  0  0  0
   56.9080   22.6700   43.9710 O   0  0  0  0  0  0  0  0  0  0  0  0
   54.7610   22.7200   44.6600 N   0  0  0  0  0  0  0  0  0  0  0  0
   52.0800   22.3840   44.5260 H   0  0  0  0  0  0  0  0  0  0  0  0
   55.1360   26.8580   47.0260 H   0  0  0  0  0  0  0  0  0  0  0  0
   55.1540   27.4760   45.3550 H   0  0  0  0  0  0  0  0  0  0  0  0
   58.0916   24.7781   44.0284 H   0  0  0  0  0  0  0  0  0  0  0  0
   57.3703   26.3502   44.5444 H   0  0  0  0  0  0  0  0  0  0  0  0
   57.6311   25.3854   46.9727 H   0  0  0  0  0  0  0  0  0  0  0  0
   58.8091   24.2542   46.1974 H   0  0  0  0  0  0  0  0  0  0  0  0
   56.9826   27.6170   46.5070 H   0  0  0  0  0  0  0  0  0  0  0  0
   56.5236   30.0307   46.1186 H   0  0  0  0  0  0  0  0  0  0  0  0
   58.8474   32.2553   44.3619 H   0  0  0  0  0  0  0  0  0  0  0  0
   57.1902   32.0494   45.0760 H   0  0  0  0  0  0  0  0  0  0  0  0
   59.0241   31.4699   49.5485 H   0  0  0  0  0  0  0  0  0  0  0  0
   59.0835   30.4563   48.0586 H   0  0  0  0  0  0  0  0  0  0  0  0
   60.3640   33.6990   47.9010 H   0  0  0  0  0  0  0  0  0  0  0  0
   62.0174   34.7750   49.0023 H   0  0  0  0  0  0  0  0  0  0  0  0
   61.5001   33.3915   50.0641 H   0  0  0  0  0  0  0  0  0  0  0  0
   63.9780   33.6657   49.9787 H   0  0  0  0  0  0  0  0  0  0  0  0
   63.4176   32.0746   49.3544 H   0  0  0  0  0  0  0  0  0  0  0  0
   65.0700   33.0490   47.9540 H   0  0  0  0  0  0  0  0  0  0  0  0
   63.9129   32.9320   45.8605 H   0  0  0  0  0  0  0  0  0  0  0  0
   63.4299   31.6389   47.0251 H   0  0  0  0  0  0  0  0  0  0  0  0
   61.9150   34.2110   46.3613 H   0  0  0  0  0  0  0  0  0  0  0  0
   61.4308   32.4838   46.0211 H   0  0  0  0  0  0  0  0  0  0  0  0
   60.6482   30.6351   44.9531 H   0  0  0  0  0  0  0  0  0  0  0  0
   61.1084   28.2187   45.3217 H   0  0  0  0  0  0  0  0  0  0  0  0
  1  2  2  3
  2  3  1  0
  3  4  1  0
  4  5  1  0
  4  6  2  0
  6  7  1  0
  7  8  1  0
  8  9  1  0
  9 10  2  0
  9 11  1  0
 11 12  2  0
 12 13  1  0
 13 14  2  0
 14 15  1  0
 15 16  1  0
 16 17  2  0
 16 18  1  0
 18 19  1  0
 19 20  1  0
 20 21  2  0
 20 22  1  0
 22 23  1  0
 23 24  1  0
 24 25  1  0
 25 26  1  0
 26 27  1  0
 14 28  1  0
 28 29  2  0
  6 30  1  0
 30 31  2  0
 30 32  1  0
 32  2  1  0
 29 11  1  0
 27 22  1  0
  1 33  1  0
  5 34  1  0
  5 35  1  0
  7 36  1  0
  7 37  1  0
  8 38  1  0
  8 39  1  0
 12 40  1  0
 13 41  1  0
 15 42  1  0
 15 43  1  0
 19 44  1  0
 19 45  1  0
 22 46  1  0
 23 47  1  0
 23 48  1  0
 24 49  1  0
 24 50  1  0
 25 51  1  0
 26 52  1  0
 26 53  1  0
 27 54  1  0
 27 55  1  0
 28 56  1  0
 29 57  1  0
M  CHG  4   3  -1  18  -1  22   1  32  -1
M  END
>  <UniqueID>  (42) 
40

>  <SMILES>  (42) 
N=c1[n-]c(N)c(CCC(=O)c2ccc(CC(=O)[N-]CC(=O)[NH+]3CCNCC3)cc2)c(=O)[n-]1

>  <Energy>  (42) 
58.4109780055361

>  <Genealogy>  (42) 
N=c1[n-]c(N)c(CCC(=O)c2ccc(CC(=O)[N-]CC(=O)[NH+]3CCNCC3)cc2)c(=O)[n-]1 (protonated)
N=c1[n-]c(N)c(CCC(=O)c2ccc(CC(=O)[N-]CC(=O)[NH+]3CCNCC3)cc2)c(=O)[n-]1 (3D coordinates assigned)
N=c1[n-]c(N)c(CCC(=O)c2ccc(CC(=O)[N-]CC(=O)[NH+]3CCNCC3)cc2)c(=O)[n-]1 (nonaromatic ring conformer: 58.4109780055361 kcal/mol)

>  <smiles>  (42) 
N=c1[nH]c(N)c(CCC(=O)c2ccc(CC(=O)NCC(=O)N3CCNCC3)cc2)c(=O)[nH]1

>  <score_type>  (42) 
oracle

>  <origin>  (42) 
adg

>  <m_score__min__energy>  (42) 
-12.73

>  <m_primary>  (42) 
energy

$$$$
42:0
     RDKit          3D

 48 49  0  0  0  0  0  0  0  0999 V2000
   57.4490   31.9360   42.1900 C   0  0  0  0  0  0  0  0  0  0  0  0
   57.5340   31.8930   43.9680 S   0  0  0  0  0  0  0  0  0  0  0  0
   56.2970   31.2210   44.4900 O   0  0  0  0  0  0  0  0  0  0  0  0
   58.7380   31.0960   44.3910 O   0  0  0  0  0  0  0  0  0  0  0  0
   57.6170   33.5480   44.6520 C   0  0  0  0  0  0  0  0  0  0  0  0
   57.5860   33.5620   46.1840 C   0  0  0  0  0  0  0  0  0  0  0  0
   58.9500   33.7690   46.7760 C   0  0  0  0  0  0  0  0  0  0  0  0
   59.1730   34.8060   47.4580 O   0  0  0  0  0  0  0  0  0  0  0  0
   59.9740   32.7770   46.6000 N   0  0  0  0  0  0  0  0  0  0  0  0
   61.3280   32.9410   47.0540 C   0  0  0  0  0  0  0  0  0  0  0  0
   62.1930   33.8420   46.4080 C   0  0  0  0  0  0  0  0  0  0  0  0
   63.5320   33.9390   46.7940 C   0  0  0  0  0  0  0  0  0  0  0  0
   64.0270   33.1300   47.8170 C   0  0  0  0  0  0  0  0  0  0  0  0
   63.1820   32.2250   48.4620 C   0  0  0  0  0  0  0  0  0  0  0  0
   61.8310   32.1250   48.0920 C   0  0  0  0  0  0  0  0  0  0  0  0
   60.9720   31.2200   48.8050 N   0  0  0  0  0  0  0  0  0  0  0  0
   61.2540   29.7810   48.7930 C   0  0  0  0  0  0  0  0  0  0  0  0
   60.0230   28.9820   49.2440 C   0  0  0  0  0  0  0  0  0  0  0  0
   58.7760   29.4970   48.6410 N   0  0  0  0  0  0  0  0  0  0  0  0
   58.6580   29.1230   46.9320 S   0  0  0  0  0  0  0  0  0  0  0  0
   58.5780   27.3660   46.6490 C   0  0  0  0  0  0  0  0  0  0  0  0
   59.8370   29.6880   46.1880 O   0  0  0  0  0  0  0  0  0  0  0  0
   57.4000   29.7410   46.3880 O   0  0  0  0  0  0  0  0  0  0  0  0
   58.5250   30.9390   48.8990 C   0  0  0  0  0  0  0  0  0  0  0  0
   59.7460   31.7070   49.4400 C   0  0  0  0  0  0  0  0  0  0  0  0
   56.5074   32.4124   41.8793 H   0  0  0  0  0  0  0  0  0  0  0  0
   58.2990   32.5125   41.7961 H   0  0  0  0  0  0  0  0  0  0  0  0
   57.4881   30.9097   41.7961 H   0  0  0  0  0  0  0  0  0  0  0  0
   58.5516   34.0205   44.3155 H   0  0  0  0  0  0  0  0  0  0  0  0
   56.7311   34.0961   44.2988 H   0  0  0  0  0  0  0  0  0  0  0  0
   56.9273   34.3773   46.5177 H   0  0  0  0  0  0  0  0  0  0  0  0
   57.2149   32.5838   46.5236 H   0  0  0  0  0  0  0  0  0  0  0  0
   59.7050   31.8600   46.1760 H   0  0  0  0  0  0  0  0  0  0  0  0
   61.8125   34.4750   45.5928 H   0  0  0  0  0  0  0  0  0  0  0  0
   64.1978   34.6551   46.2900 H   0  0  0  0  0  0  0  0  0  0  0  0
   65.0831   33.2051   48.1155 H   0  0  0  0  0  0  0  0  0  0  0  0
   63.5771   31.5860   49.2654 H   0  0  0  0  0  0  0  0  0  0  0  0
   61.5286   29.4755   47.7726 H   0  0  0  0  0  0  0  0  0  0  0  0
   62.0815   29.5774   49.4885 H   0  0  0  0  0  0  0  0  0  0  0  0
   60.1535   27.9311   48.9465 H   0  0  0  0  0  0  0  0  0  0  0  0
   59.9370   29.0792   50.3363 H   0  0  0  0  0  0  0  0  0  0  0  0
   58.5540   26.8398   47.6147 H   0  0  0  0  0  0  0  0  0  0  0  0
   57.6681   27.1275   46.0788 H   0  0  0  0  0  0  0  0  0  0  0  0
   59.4625   27.0458   46.0788 H   0  0  0  0  0  0  0  0  0  0  0  0
   58.2129   31.4089   47.9547 H   0  0  0  0  0  0  0  0  0  0  0  0
   57.7498   30.9899   49.6778 H   0  0  0  0  0  0  0  0  0  0  0  0
   59.6260   32.7789   49.2238 H   0  0  0  0  0  0  0  0  0  0  0  0
   59.8171   31.5485   50.5262 H   0  0  0  0  0  0  0  0  0  0  0  0
  1  2  1  0
  2  3  2  0
  2  4  2  0
  2  5  1  0
  5  6  1  0
  6  7  1  0
  7  8  2  0
  7  9  1  0
  9 10  1  0
 10 11  2  0
 11 12  1  0
 12 13  2  0
 13 14  1  0
 14 15  2  0
 15 16  1  0
 16 17  1  0
 17 18  1  0
 18 19  1  0
 19 20  1  0
 20 21  1  0
 20 22  2  0
 20 23  2  0
 19 24  1  0
 24 25  1  0
 15 10  1  0
 25 16  1  0
  1 26  1  0
  1 27  1  0
  1 28  1  0
  5 29  1  0
  5 30  1  0
  6 31  1  0
  6 32  1  0
  9 33  1  0
 11 34  1  0
 12 35  1  0
 13 36  1  0
 14 37  1  0
 17 38  1  0
 17 39  1  0
 18 40  1  0
 18 41  1  0
 21 42  1  0
 21 43  1  0
 21 44  1  0
 24 45  1  0
 24 46  1  0
 25 47  1  0
 25 48  1  0
M  END
>  <UniqueID>  (43) 
41

>  <SMILES>  (43) 
CS(=O)(=O)CCC(=O)Nc1ccccc1N1CCN(S(C)(=O)=O)CC1

>  <Energy>  (43) 
47.469143701053504

>  <Genealogy>  (43) 
CS(=O)(=O)CCC(=O)Nc1ccccc1N1CCN(S(C)(=O)=O)CC1 (3D coordinates assigned)
CS(=O)(=O)CCC(=O)Nc1ccccc1N1CCN(S(C)(=O)=O)CC1 (nonaromatic ring conformer: 47.469143701053504 kcal/mol)

>  <smiles>  (43) 
CS(=O)(=O)CCC(=O)Nc1ccccc1N1CCN(S(C)(=O)=O)CC1

>  <score_type>  (43) 
oracle

>  <origin>  (43) 
adg

>  <m_score__min__energy>  (43) 
-8.8200000000000003

>  <m_primary>  (43) 
energy

$$$$
43:0
     RDKit          3D

 68 72  0  0  0  0  0  0  0  0999 V2000
   57.2128   31.9846   46.0896 H   0  0  0  0  0  0  0  0  0  0  0  0
   57.9930   32.7600   46.0770 C   0  0  0  0  0  0  0  0  0  0  0  0
   58.6960   33.0540   47.2480 C   0  0  0  0  0  0  0  0  0  0  0  0
   58.4611   32.5143   48.1773 H   0  0  0  0  0  0  0  0  0  0  0  0
   59.7010   34.0350   47.2450 C   0  0  0  0  0  0  0  0  0  0  0  0
   60.4760   34.3260   48.5030 C   0  0  0  0  0  0  0  0  0  0  0  0
   61.1378   33.4755   48.7237 H   0  0  0  0  0  0  0  0  0  0  0  0
   61.0668   35.2411   48.3495 H   0  0  0  0  0  0  0  0  0  0  0  0
   59.5710   34.5360   49.6340 N   0  0  0  0  0  0  0  0  0  0  0  0
   59.4880   33.8290   50.7280 C   0  0  0  0  0  0  0  0  0  0  0  0
   59.8960   32.5360   50.6910 N   0  0  0  0  0  0  0  0  0  0  0  0
   59.8720   31.7690   51.8050 C   0  0  0  0  0  0  0  0  0  0  0  0
   60.2620   30.5310   51.7360 N   0  0  0  0  0  0  0  0  0  0  0  0
   60.6620   29.7810   50.5360 C   0  0  0  0  0  0  0  0  0  0  0  0
   61.6659   30.1377   50.2622 H   0  0  0  0  0  0  0  0  0  0  0  0
   60.7820   28.2740   50.8230 C   0  0  0  0  0  0  0  0  0  0  0  0
   61.6606   28.0880   51.4582 H   0  0  0  0  0  0  0  0  0  0  0  0
   59.8797   27.9212   51.3440 H   0  0  0  0  0  0  0  0  0  0  0  0
   60.9400   27.5260   49.4950 C   0  0  0  0  0  0  0  0  0  0  0  0
   61.8016   27.9443   48.9540 H   0  0  0  0  0  0  0  0  0  0  0  0
   61.0880   26.4606   49.7251 H   0  0  0  0  0  0  0  0  0  0  0  0
   59.7350   27.6410   48.6350 N   0  0  0  0  0  0  0  0  0  0  0  0
   60.0710   27.4370   47.2090 C   0  0  0  0  0  0  0  0  0  0  0  0
   61.0412   27.9082   46.9932 H   0  0  0  0  0  0  0  0  0  0  0  0
   60.1240   26.3577   47.0033 H   0  0  0  0  0  0  0  0  0  0  0  0
   59.0130   28.0530   46.3330 C   0  0  0  0  0  0  0  0  0  0  0  0
   59.2720   29.2520   45.6530 C   0  0  0  0  0  0  0  0  0  0  0  0
   60.2498   29.7432   45.7649 H   0  0  0  0  0  0  0  0  0  0  0  0
   58.2960   29.8270   44.8340 C   0  0  0  0  0  0  0  0  0  0  0  0
   58.5038   30.7788   44.3233 H   0  0  0  0  0  0  0  0  0  0  0  0
   57.0520   29.1990   44.6580 C   0  0  0  0  0  0  0  0  0  0  0  0
   56.0170   29.8460   43.7690 C   0  0  0  0  0  0  0  0  0  0  0  0
   55.9630   31.2000   44.0470 F   0  0  0  0  0  0  0  0  0  0  0  0
   56.3700   29.6720   42.4420 F   0  0  0  0  0  0  0  0  0  0  0  0
   54.7580   29.3000   43.9620 F   0  0  0  0  0  0  0  0  0  0  0  0
   56.7950   27.9950   45.3340 C   0  0  0  0  0  0  0  0  0  0  0  0
   55.8235   27.4943   45.2091 H   0  0  0  0  0  0  0  0  0  0  0  0
   57.7670   27.4290   46.1650 C   0  0  0  0  0  0  0  0  0  0  0  0
   57.5533   26.4870   46.6913 H   0  0  0  0  0  0  0  0  0  0  0  0
   58.9270   28.8680   48.8570 C   0  0  0  0  0  0  0  0  0  0  0  0
   58.4189   29.1253   47.9159 H   0  0  0  0  0  0  0  0  0  0  0  0
   58.2170   28.6456   49.6672 H   0  0  0  0  0  0  0  0  0  0  0  0
   59.7640   30.0830   49.3080 C   0  0  0  0  0  0  0  0  0  0  0  0
   60.4074   30.3947   48.4720 H   0  0  0  0  0  0  0  0  0  0  0  0
   59.0600   30.8749   49.6033 H   0  0  0  0  0  0  0  0  0  0  0  0
   59.4370   32.3080   52.9690 N   0  0  0  0  0  0  0  0  0  0  0  0
   59.0070   33.5920   53.0380 C   0  0  0  0  0  0  0  0  0  0  0  0
   58.5930   34.0210   54.2040 N   0  0  0  0  0  0  0  0  0  0  0  0
   59.1410   34.7200   55.3830 C   0  0  0  0  0  0  0  0  0  0  0  0
   58.6730   34.0159   56.0867 H   0  0  0  0  0  0  0  0  0  0  0  0
   59.2650   36.2290   55.2990 C   0  0  0  0  0  0  0  0  0  0  0  0
   58.9407   36.7590   54.3913 H   0  0  0  0  0  0  0  0  0  0  0  0
   58.9238   37.0754   55.9131 H   0  0  0  0  0  0  0  0  0  0  0  0
   60.5190   35.3420   55.2660 C   0  0  0  0  0  0  0  0  0  0  0  0
   61.0945   35.2356   54.3346 H   0  0  0  0  0  0  0  0  0  0  0  0
   61.4517   35.2874   55.8466 H   0  0  0  0  0  0  0  0  0  0  0  0
   59.0250   34.3560   51.9030 N   0  0  0  0  0  0  0  0  0  0  0  0
   58.7020   35.3350   51.9050 H   0  0  0  0  0  0  0  0  0  0  0  0
   59.9950   34.7120   46.0500 C   0  0  0  0  0  0  0  0  0  0  0  0
   60.7934   35.4684   46.0328 H   0  0  0  0  0  0  0  0  0  0  0  0
   59.2800   34.4310   44.8830 C   0  0  0  0  0  0  0  0  0  0  0  0
   59.5035   34.9819   43.9575 H   0  0  0  0  0  0  0  0  0  0  0  0
   58.2730   33.4440   44.8870 C   0  0  0  0  0  0  0  0  0  0  0  0
   57.5360   33.1150   43.7400 O   0  0  0  0  0  0  0  0  0  0  0  0
   58.0720   32.4320   42.6110 C   0  0  0  0  0  0  0  0  0  0  0  0
   58.7175   31.6094   42.9526 H   0  0  0  0  0  0  0  0  0  0  0  0
   57.2497   32.0250   42.0042 H   0  0  0  0  0  0  0  0  0  0  0  0
   58.6628   33.1340   42.0042 H   0  0  0  0  0  0  0  0  0  0  0  0
  1  2  1  0
  2  3  2  0
  3  4  1  0
  3  5  1  0
  5  6  1  0
  6  7  1  0
  6  8  1  0
  6  9  1  0
  9 10  2  0
 10 11  1  0
 11 12  1  0
 12 13  2  0
 13 14  1  0
 14 15  1  0
 14 16  1  0
 16 17  1  0
 16 18  1  0
 16 19  1  0
 19 20  1  0
 19 21  1  0
 19 22  1  0
 22 23  1  0
 23 24  1  0
 23 25  1  0
 23 26  1  0
 26 27  2  0
 27 28  1  0
 27 29  1  0
 29 30  1  0
 29 31  2  0
 31 32  1  0
 32 33  1  0
 32 34  1  0
 32 35  1  0
 31 36  1  0
 36 37  1  0
 36 38  2  0
 38 39  1  0
 22 40  1  0
 40 41  1  0
 40 42  1  0
 40 43  1  0
 43 44  1  0
 43 45  1  0
 12 46  1  0
 46 47  1  0
 47 48  2  3
 48 49  1  0
 49 50  1  0
 49 51  1  0
 51 52  1  0
 51 53  1  0
 51 54  1  0
 54 55  1  0
 54 56  1  0
 47 57  1  0
 57 58  1  0
  5 59  2  0
 59 60  1  0
 59 61  1  0
 61 62  1  0
 61 63  2  0
 63 64  1  0
 64 65  1  0
 65 66  1  0
 65 67  1  0
 65 68  1  0
 63  2  1  0
 57 10  1  0
 43 14  1  0
 54 49  1  0
 38 26  1  0
M  CHG  2  11  -1  46  -1
M  END
>  <UniqueID>  (44) 
42

>  <SMILES>  (44) 
COc1ccc(C/N=c2/[n-]/c(=N/C3CCN(Cc4ccc(C(F)(F)F)cc4)CC3)[n-]c(=NC3CC3)[nH]2)cc1

>  <Energy>  (44) 
366.6933903592224

>  <Genealogy>  (44) 
COc1ccc(CN=c2[n-]c(=NC3CCN(Cc4ccc(C(F)(F)F)cc4)CC3)[n-]c(=NC3CC3)[nH]2)cc1 (protonated)
COc1ccc(C/N=c2/[n-]/c(=N/C3CCN(Cc4ccc(C(F)(F)F)cc4)CC3)[n-]c(=NC3CC3)[nH]2)cc1 (cis-trans isomerization)
COc1ccc(C/N=c2/[n-]/c(=N/C3CCN(Cc4ccc(C(F)(F)F)cc4)CC3)[n-]c(=NC3CC3)[nH]2)cc1 (3D coordinates assigned)
COc1ccc(C/N=c2/[n-]/c(=N/C3CCN(Cc4ccc(C(F)(F)F)cc4)CC3)[n-]c(=NC3CC3)[nH]2)cc1 (nonaromatic ring conformer: 366.6933903592224 kcal/mol)

>  <smiles>  (44) 
COc1ccc(CN=c2[nH]c(=NC3CC3)[nH]c(=NC3CCN(Cc4ccc(C(F)(F)F)cc4)CC3)[nH]2)cc1

>  <score_type>  (44) 
oracle

>  <origin>  (44) 
adg

>  <m_score__min__energy>  (44) 
-12.130000000000001

>  <m_primary>  (44) 
energy

$$$$
44:0
     RDKit          3D

 42 44  0  0  0  0  0  0  0  0999 V2000
   53.8960   30.3560   54.9160 C   0  0  0  0  0  0  0  0  0  0  0  0
   54.4030   30.3100   53.6740 C   0  0  0  0  0  0  0  0  0  0  0  0
   53.6890   30.3000   52.4730 C   0  0  0  0  0  0  0  0  0  0  0  0
   52.3550   30.3860   52.3220 C   0  0  0  0  0  0  0  0  0  0  0  0
   51.6940   30.8190   51.0750 C   0  0  0  0  0  0  0  0  0  0  0  0
   51.6690   30.0610   49.9640 N   0  0  0  0  0  0  0  0  0  0  0  0
   51.0390   30.8440   49.0600 C   0  0  0  0  0  0  0  0  0  0  0  0
   50.8130   30.4700   47.8800 O   0  0  0  0  0  0  0  0  0  0  0  0
   50.6780   32.0600   49.5190 N   0  0  0  0  0  0  0  0  0  0  0  0
   51.1080   32.0360   50.7920 C   0  0  0  0  0  0  0  0  0  0  0  0
   51.0080   33.1230   51.6510 O   0  0  0  0  0  0  0  0  0  0  0  0
   54.5570   30.2400   51.4390 N   0  0  0  0  0  0  0  0  0  0  0  0
   55.7690   30.2090   52.0270 C   0  0  0  0  0  0  0  0  0  0  0  0
   56.8420   30.1340   51.3700 O   0  0  0  0  0  0  0  0  0  0  0  0
   55.7250   30.2590   53.3760 N   0  0  0  0  0  0  0  0  0  0  0  0
   56.8790   30.1680   54.2780 C   0  0  0  0  0  0  0  0  0  0  0  0
   57.8870   31.2230   53.9350 C   0  0  0  0  0  0  0  0  0  0  0  0
   59.0550   31.1370   54.4050 O   0  0  0  0  0  0  0  0  0  0  0  0
   57.5200   32.3380   53.1110 N   0  0  0  0  0  0  0  0  0  0  0  0
   58.4810   33.3570   52.6980 C   0  0  0  0  0  0  0  0  0  0  0  0
   58.8930   33.1310   51.2670 C   0  0  0  0  0  0  0  0  0  0  0  0
   60.0180   33.7940   50.7480 C   0  0  0  0  0  0  0  0  0  0  0  0
   60.3950   33.6090   49.4140 C   0  0  0  0  0  0  0  0  0  0  0  0
   59.6550   32.7520   48.5830 C   0  0  0  0  0  0  0  0  0  0  0  0
   60.0340   32.5880   47.1400 C   0  0  0  0  0  0  0  0  0  0  0  0
   58.5160   32.1090   49.0940 C   0  0  0  0  0  0  0  0  0  0  0  0
   58.1390   32.2950   50.4290 C   0  0  0  0  0  0  0  0  0  0  0  0
   54.5699   30.3587   55.7854 H   0  0  0  0  0  0  0  0  0  0  0  0
   52.8066   30.3910   55.0644 H   0  0  0  0  0  0  0  0  0  0  0  0
   51.7190   30.1178   53.1785 H   0  0  0  0  0  0  0  0  0  0  0  0
   56.5419   30.3108   55.3153 H   0  0  0  0  0  0  0  0  0  0  0  0
   57.3440   29.1772   54.1679 H   0  0  0  0  0  0  0  0  0  0  0  0
   56.5320   32.4260   52.7820 H   0  0  0  0  0  0  0  0  0  0  0  0
   58.0195   34.3512   52.7909 H   0  0  0  0  0  0  0  0  0  0  0  0
   59.3703   33.2951   53.3425 H   0  0  0  0  0  0  0  0  0  0  0  0
   60.6055   34.4623   51.3947 H   0  0  0  0  0  0  0  0  0  0  0  0
   61.2738   34.1363   49.0144 H   0  0  0  0  0  0  0  0  0  0  0  0
   61.0417   32.1520   47.0728 H   0  0  0  0  0  0  0  0  0  0  0  0
   59.3124   31.9216   46.6448 H   0  0  0  0  0  0  0  0  0  0  0  0
   60.0257   33.5702   46.6448 H   0  0  0  0  0  0  0  0  0  0  0  0
   57.9172   31.4560   48.4420 H   0  0  0  0  0  0  0  0  0  0  0  0
   57.2482   31.7839   50.8230 H   0  0  0  0  0  0  0  0  0  0  0  0
  1  2  2  0
  2  3  1  0
  3  4  2  3
  4  5  1  0
  5  6  1  0
  6  7  1  0
  7  8  2  0
  7  9  1  0
  9 10  1  0
 10 11  1  0
  3 12  1  0
 12 13  1  0
 13 14  2  0
 13 15  1  0
 15 16  1  0
 16 17  1  0
 17 18  2  0
 17 19  1  0
 19 20  1  0
 20 21  1  0
 21 22  2  0
 22 23  1  0
 23 24  2  0
 24 25  1  0
 24 26  1  0
 26 27  2  0
 15  2  1  0
 27 21  1  0
 10  5  2  0
  1 28  1  0
  1 29  1  0
  4 30  1  0
 16 31  1  0
 16 32  1  0
 19 33  1  0
 20 34  1  0
 20 35  1  0
 22 36  1  0
 23 37  1  0
 25 38  1  0
 25 39  1  0
 25 40  1  0
 26 41  1  0
 27 42  1  0
M  CHG  4   6  -1   9  -1  11  -1  12  -1
M  END
>  <UniqueID>  (45) 
43

>  <SMILES>  (45) 
C=c1c(=Cc2[n-]c(=O)[n-]c2[O-])[n-]c(=O)n1CC(=O)NCc1ccc(C)cc1

>  <Energy>  (45) 
107.44594615774254

>  <Genealogy>  (45) 
C=c1c(=Cc2[n-]c(=O)[n-]c2[O-])[n-]c(=O)n1CC(=O)NCc1ccc(C)cc1 (protonated)
C=c1c(=Cc2[n-]c(=O)[n-]c2[O-])[n-]c(=O)n1CC(=O)NCc1ccc(C)cc1 (3D coordinates assigned)
C=c1c(=Cc2[n-]c(=O)[n-]c2[O-])[n-]c(=O)n1CC(=O)NCc1ccc(C)cc1 (optimized conformer: 107.44594615774254 kcal/mol)

>  <smiles>  (45) 
C=c1c(=Cc2[nH]c(=O)[nH]c2O)[nH]c(=O)n1CC(=O)NCc1ccc(C)cc1

>  <score_type>  (45) 
oracle

>  <origin>  (45) 
adg

>  <m_score__min__energy>  (45) 
-17.870000000000001

>  <m_primary>  (45) 
energy

$$$$
45:0
     RDKit          3D

 49 52  0  0  0  0  0  0  0  0999 V2000
   57.4470   26.9460   47.4470 O   0  0  0  0  0  0  0  0  0  0  0  0
   58.5880   27.2650   47.0050 C   0  0  0  0  0  0  0  0  0  0  0  0
   58.9820   26.9070   45.6020 C   0  0  0  0  0  0  0  0  0  0  0  0
   57.7870   26.8690   44.6240 C   0  0  0  0  0  0  0  0  0  0  0  0
   57.8640   27.9730   43.5580 C   0  0  0  0  0  0  0  0  0  0  0  0
   57.5890   29.2850   44.1500 N   0  0  0  0  0  0  0  0  0  0  0  0
   58.4910   30.4330   44.1260 C   0  0  0  0  0  0  0  0  0  0  0  0
   57.6120   31.6630   44.4630 C   0  0  0  0  0  0  0  0  0  0  0  0
   56.2920   31.1460   44.8080 N   0  0  0  0  0  0  0  0  0  0  0  0
   56.3330   29.7510   44.6000 C   0  0  0  0  0  0  0  0  0  0  0  0
   55.3630   28.9930   44.8540 O   0  0  0  0  0  0  0  0  0  0  0  0
   59.5350   27.9170   47.8600 N   0  0  0  0  0  0  0  0  0  0  0  0
   60.4160   28.9820   47.3880 C   0  0  0  0  0  0  0  0  0  0  0  0
   60.2270   30.2310   48.1950 C   0  0  0  0  0  0  0  0  0  0  0  0
   59.4550   30.2310   49.1920 O   0  0  0  0  0  0  0  0  0  0  0  0
   60.9280   31.4360   47.8440 N   0  0  0  0  0  0  0  0  0  0  0  0
   62.1950   31.7390   48.4840 C   0  0  0  0  0  0  0  0  0  0  0  0
   62.5950   31.0880   49.6720 C   0  0  0  0  0  0  0  0  0  0  0  0
   63.6590   31.5850   50.4310 C   0  0  0  0  0  0  0  0  0  0  0  0
   64.3640   32.7060   49.9970 C   0  0  0  0  0  0  0  0  0  0  0  0
   64.0330   33.3160   48.7830 C   0  0  0  0  0  0  0  0  0  0  0  0
   62.9680   32.8200   48.0190 C   0  0  0  0  0  0  0  0  0  0  0  0
   62.6680   33.4700   46.3790 S   0  0  0  0  0  0  0  0  0  0  0  0
   60.9120   33.6320   46.6970 C   0  0  0  0  0  0  0  0  0  0  0  0
   60.2560   34.8250   46.3710 C   0  0  0  0  0  0  0  0  0  0  0  0
   58.8710   34.9300   46.5220 C   0  0  0  0  0  0  0  0  0  0  0  0
   58.1370   33.8320   46.9730 C   0  0  0  0  0  0  0  0  0  0  0  0
   58.7840   32.6360   47.3050 C   0  0  0  0  0  0  0  0  0  0  0  0
   60.1990   32.5380   47.2330 C   0  0  0  0  0  0  0  0  0  0  0  0
   59.7053   27.6530   45.2411 H   0  0  0  0  0  0  0  0  0  0  0  0
   59.4116   25.8948   45.6319 H   0  0  0  0  0  0  0  0  0  0  0  0
   57.7750   25.8916   44.1195 H   0  0  0  0  0  0  0  0  0  0  0  0
   56.8704   27.0330   45.2096 H   0  0  0  0  0  0  0  0  0  0  0  0
   58.8719   27.9798   43.1174 H   0  0  0  0  0  0  0  0  0  0  0  0
   57.1100   27.7696   42.7833 H   0  0  0  0  0  0  0  0  0  0  0  0
   59.2858   30.3122   44.8768 H   0  0  0  0  0  0  0  0  0  0  0  0
   58.9843   30.5417   43.1488 H   0  0  0  0  0  0  0  0  0  0  0  0
   58.0390   32.2136   45.3142 H   0  0  0  0  0  0  0  0  0  0  0  0
   57.5573   32.3583   43.6124 H   0  0  0  0  0  0  0  0  0  0  0  0
   61.4611   28.6506   47.4771 H   0  0  0  0  0  0  0  0  0  0  0  0
   60.1702   29.2016   46.3386 H   0  0  0  0  0  0  0  0  0  0  0  0
   62.0651   30.1826   50.0028 H   0  0  0  0  0  0  0  0  0  0  0  0
   63.9401   31.0902   51.3724 H   0  0  0  0  0  0  0  0  0  0  0  0
   65.1821   33.1116   50.6103 H   0  0  0  0  0  0  0  0  0  0  0  0
   64.6079   34.1841   48.4282 H   0  0  0  0  0  0  0  0  0  0  0  0
   60.8329   35.6826   45.9947 H   0  0  0  0  0  0  0  0  0  0  0  0
   58.3605   35.8754   46.2861 H   0  0  0  0  0  0  0  0  0  0  0  0
   57.0437   33.9069   47.0681 H   0  0  0  0  0  0  0  0  0  0  0  0
   58.1921   31.7655   47.6241 H   0  0  0  0  0  0  0  0  0  0  0  0
  1  2  2  0
  2  3  1  0
  3  4  1  0
  4  5  1  0
  5  6  1  0
  6  7  1  0
  7  8  1  0
  8  9  1  0
  9 10  1  0
 10 11  2  0
  2 12  1  0
 12 13  1  0
 13 14  1  0
 14 15  2  0
 14 16  1  0
 16 17  1  0
 17 18  2  0
 18 19  1  0
 19 20  2  0
 20 21  1  0
 21 22  2  0
 22 23  1  0
 23 24  1  0
 24 25  2  0
 25 26  1  0
 26 27  2  0
 27 28  1  0
 28 29  2  0
 10  6  1  0
 29 16  1  0
 22 17  1  0
 29 24  1  0
  3 30  1  0
  3 31  1  0
  4 32  1  0
  4 33  1  0
  5 34  1  0
  5 35  1  0
  7 36  1  0
  7 37  1  0
  8 38  1  0
  8 39  1  0
 13 40  1  0
 13 41  1  0
 18 42  1  0
 19 43  1  0
 20 44  1  0
 21 45  1  0
 25 46  1  0
 26 47  1  0
 27 48  1  0
 28 49  1  0
M  CHG  2   9  -1  12  -1
M  END
>  <UniqueID>  (46) 
44

>  <SMILES>  (46) 
O=C(CCCN1CC[N-]C1=O)[N-]CC(=O)N1c2ccccc2Sc2ccccc21

>  <Energy>  (46) 
90.38750675720799

>  <Genealogy>  (46) 
O=C(CCCN1CC[N-]C1=O)[N-]CC(=O)N1c2ccccc2Sc2ccccc21 (protonated)
O=C(CCCN1CC[N-]C1=O)[N-]CC(=O)N1c2ccccc2Sc2ccccc21 (3D coordinates assigned)
O=C(CCCN1CC[N-]C1=O)[N-]CC(=O)N1c2ccccc2Sc2ccccc21 (nonaromatic ring conformer: 90.38750675720799 kcal/mol)

>  <smiles>  (46) 
O=C(CCCN1CCNC1=O)NCC(=O)N1c2ccccc2Sc2ccccc21

>  <score_type>  (46) 
oracle

>  <origin>  (46) 
adg

>  <m_score__min__energy>  (46) 
-13.26

>  <m_primary>  (46) 
energy

$$$$
46:0
     RDKit          3D

 55 58  0  0  0  0  0  0  0  0999 V2000
   58.9370   28.9860   47.4390 C   0  0  0  0  0  0  0  0  0  0  0  0
   58.2580   28.4340   46.4340 C   0  0  0  0  0  0  0  0  0  0  0  0
   57.4640   29.2170   45.4570 C   0  0  0  0  0  0  0  0  0  0  0  0
   58.0240   30.3980   44.9400 C   0  0  0  0  0  0  0  0  0  0  0  0
   57.3270   31.1870   44.0090 C   0  0  0  0  0  0  0  0  0  0  0  0
   57.9560   32.4190   43.4640 C   0  0  0  0  0  0  0  0  0  0  0  0
   58.5020   32.3800   42.3260 O   0  0  0  0  0  0  0  0  0  0  0  0
   58.0070   33.6980   44.2620 C   0  0  0  0  0  0  0  0  0  0  0  0
   58.5160   33.4690   45.6610 C   0  0  0  0  0  0  0  0  0  0  0  0
   57.6320   33.0690   46.6750 C   0  0  0  0  0  0  0  0  0  0  0  0
   58.0980   32.8550   47.9750 C   0  0  0  0  0  0  0  0  0  0  0  0
   59.4520   33.0310   48.2800 C   0  0  0  0  0  0  0  0  0  0  0  0
   59.8790   32.7920   49.5950 O   0  0  0  0  0  0  0  0  0  0  0  0
   59.0550   32.7260   50.7270 C   0  0  0  0  0  0  0  0  0  0  0  0
   59.1290   33.7570   51.6670 C   0  0  0  0  0  0  0  0  0  0  0  0
   58.2930   33.7350   52.7860 C   0  0  0  0  0  0  0  0  0  0  0  0
   57.4060   32.7180   52.9520 N   0  0  0  0  0  0  0  0  0  0  0  0
   57.2950   31.6990   52.0550 C   0  0  0  0  0  0  0  0  0  0  0  0
   56.3390   30.6450   52.2840 N   0  0  0  0  0  0  0  0  0  0  0  0
   56.7310   29.4190   52.9900 C   0  0  0  0  0  0  0  0  0  0  0  0
   55.4960   28.6680   53.5080 C   0  0  0  0  0  0  0  0  0  0  0  0
   54.4990   29.6180   54.0230 N   0  0  0  0  0  0  0  0  0  0  0  0
   53.9590   30.4950   52.9650 C   0  0  0  0  0  0  0  0  0  0  0  0
   54.9520   30.7760   51.8180 C   0  0  0  0  0  0  0  0  0  0  0  0
   58.1170   31.6970   50.9140 C   0  0  0  0  0  0  0  0  0  0  0  0
   60.3290   33.4810   47.2780 C   0  0  0  0  0  0  0  0  0  0  0  0
   59.8650   33.6920   45.9770 C   0  0  0  0  0  0  0  0  0  0  0  0
   56.0350   30.7940   43.6200 C   0  0  0  0  0  0  0  0  0  0  0  0
   55.4560   29.6380   44.1490 C   0  0  0  0  0  0  0  0  0  0  0  0
   56.1550   28.8540   45.0700 C   0  0  0  0  0  0  0  0  0  0  0  0
   55.5240   27.7420   45.6150 O   0  0  0  0  0  0  0  0  0  0  0  0
   59.5081   28.3503   48.1316 H   0  0  0  0  0  0  0  0  0  0  0  0
   58.9264   30.0774   47.5760 H   0  0  0  0  0  0  0  0  0  0  0  0
   58.2882   27.3400   46.3235 H   0  0  0  0  0  0  0  0  0  0  0  0
   59.0258   30.7103   45.2700 H   0  0  0  0  0  0  0  0  0  0  0  0
   58.6749   34.4082   43.7527 H   0  0  0  0  0  0  0  0  0  0  0  0
   56.9839   34.0958   44.3330 H   0  0  0  0  0  0  0  0  0  0  0  0
   56.5662   32.9231   46.4452 H   0  0  0  0  0  0  0  0  0  0  0  0
   57.3958   32.5462   48.7634 H   0  0  0  0  0  0  0  0  0  0  0  0
   59.8424   34.5824   51.5266 H   0  0  0  0  0  0  0  0  0  0  0  0
   58.3523   34.5405   53.5328 H   0  0  0  0  0  0  0  0  0  0  0  0
   57.2858   28.7670   52.2992 H   0  0  0  0  0  0  0  0  0  0  0  0
   57.3618   29.6934   53.8484 H   0  0  0  0  0  0  0  0  0  0  0  0
   55.0529   28.0876   52.6853 H   0  0  0  0  0  0  0  0  0  0  0  0
   55.8024   27.9949   54.3223 H   0  0  0  0  0  0  0  0  0  0  0  0
   54.9540   30.2130   54.7570 H   0  0  0  0  0  0  0  0  0  0  0  0
   53.0655   30.0146   52.5396 H   0  0  0  0  0  0  0  0  0  0  0  0
   53.7342   31.4629   53.4368 H   0  0  0  0  0  0  0  0  0  0  0  0
   54.7757   30.0571   51.0043 H   0  0  0  0  0  0  0  0  0  0  0  0
   54.7960   31.8047   51.4611 H   0  0  0  0  0  0  0  0  0  0  0  0
   58.0258   30.8920   50.1700 H   0  0  0  0  0  0  0  0  0  0  0  0
   61.3858   33.6680   47.5192 H   0  0  0  0  0  0  0  0  0  0  0  0
   60.5605   34.0346   45.1967 H   0  0  0  0  0  0  0  0  0  0  0  0
   55.4754   31.4013   42.8934 H   0  0  0  0  0  0  0  0  0  0  0  0
   54.4429   29.3431   43.8382 H   0  0  0  0  0  0  0  0  0  0  0  0
  1  2  2  0
  2  3  1  0
  3  4  2  0
  4  5  1  0
  5  6  1  0
  6  7  2  0
  6  8  1  0
  8  9  1  0
  9 10  2  0
 10 11  1  0
 11 12  2  0
 12 13  1  0
 13 14  1  0
 14 15  2  0
 15 16  1  0
 16 17  2  0
 17 18  1  0
 18 19  1  0
 19 20  1  0
 20 21  1  0
 21 22  1  0
 22 23  1  0
 23 24  1  0
 18 25  2  0
 12 26  1  0
 26 27  2  0
  5 28  2  0
 28 29  1  0
 29 30  2  0
 30 31  1  0
 30  3  1  0
 27  9  1  0
 25 14  1  0
 24 19  1  0
  1 32  1  0
  1 33  1  0
  2 34  1  0
  4 35  1  0
  8 36  1  0
  8 37  1  0
 10 38  1  0
 11 39  1  0
 15 40  1  0
 16 41  1  0
 20 42  1  0
 20 43  1  0
 21 44  1  0
 21 45  1  0
 22 46  1  0
 23 47  1  0
 23 48  1  0
 24 49  1  0
 24 50  1  0
 25 51  1  0
 26 52  1  0
 27 53  1  0
 28 54  1  0
 29 55  1  0
M  CHG  1  31  -1
M  END
>  <UniqueID>  (47) 
45

>  <SMILES>  (47) 
C=Cc1cc(C(=O)Cc2ccc(Oc3ccnc(N4CCNCC4)c3)cc2)ccc1[O-]

>  <Energy>  (47) 
78.41525184710213

>  <Genealogy>  (47) 
C=Cc1cc(C(=O)Cc2ccc(Oc3ccnc(N4CCNCC4)c3)cc2)ccc1[O-] (protonated)
C=Cc1cc(C(=O)Cc2ccc(Oc3ccnc(N4CCNCC4)c3)cc2)ccc1[O-] (3D coordinates assigned)
C=Cc1cc(C(=O)Cc2ccc(Oc3ccnc(N4CCNCC4)c3)cc2)ccc1[O-] (nonaromatic ring conformer: 78.41525184710213 kcal/mol)

>  <smiles>  (47) 
C=Cc1cc(C(=O)Cc2ccc(Oc3ccnc(N4CCNCC4)c3)cc2)ccc1O

>  <score_type>  (47) 
oracle

>  <origin>  (47) 
adg

>  <m_score__min__energy>  (47) 
-13.82

>  <m_primary>  (47) 
energy

$$$$
47:0
     RDKit          3D

 53 57  0  0  0  0  0  0  0  0999 V2000
   67.2280   32.6170   49.0130 H   0  0  0  0  0  0  0  0  0  0  0  0
   67.0240   32.7710   50.0260 N   0  0  0  0  0  0  0  0  0  0  0  0
   65.9090   33.2960   50.4180 C   0  0  0  0  0  0  0  0  0  0  0  0
   64.8210   33.2560   49.6040 N   0  0  0  0  0  0  0  0  0  0  0  0
   63.6330   33.7980   49.9860 C   0  0  0  0  0  0  0  0  0  0  0  0
   62.4790   33.7300   49.0720 C   0  0  0  0  0  0  0  0  0  0  0  0
   62.3830   32.8270   48.0610 N   0  0  0  0  0  0  0  0  0  0  0  0
   61.1980   33.1290   47.5100 C   0  0  0  0  0  0  0  0  0  0  0  0
   60.5820   32.5140   46.4250 C   0  0  0  0  0  0  0  0  0  0  0  0
   61.0647   31.6785   45.8968 H   0  0  0  0  0  0  0  0  0  0  0  0
   59.3160   32.9970   46.0230 C   0  0  0  0  0  0  0  0  0  0  0  0
   58.6140   32.3740   44.8790 C   0  0  0  0  0  0  0  0  0  0  0  0
   58.4860   33.1200   43.6940 C   0  0  0  0  0  0  0  0  0  0  0  0
   58.9630   34.1083   43.6185 H   0  0  0  0  0  0  0  0  0  0  0  0
   57.7600   32.6190   42.6130 C   0  0  0  0  0  0  0  0  0  0  0  0
   57.6693   33.2114   41.6906 H   0  0  0  0  0  0  0  0  0  0  0  0
   57.1500   31.3700   42.7000 C   0  0  0  0  0  0  0  0  0  0  0  0
   56.5654   30.9844   41.8517 H   0  0  0  0  0  0  0  0  0  0  0  0
   57.2790   30.6060   43.8620 C   0  0  0  0  0  0  0  0  0  0  0  0
   56.7944   29.6203   43.9213 H   0  0  0  0  0  0  0  0  0  0  0  0
   58.0220   31.0830   44.9580 C   0  0  0  0  0  0  0  0  0  0  0  0
   58.1950   30.1960   46.1350 C   0  0  0  0  0  0  0  0  0  0  0  0
   58.3060   30.6980   47.2860 O   0  0  0  0  0  0  0  0  0  0  0  0
   58.2000   28.7720   45.9750 N   0  0  0  0  0  0  0  0  0  0  0  0
   57.0070   27.9400   46.0730 C   0  0  0  0  0  0  0  0  0  0  0  0
   56.2386   28.4749   46.6505 H   0  0  0  0  0  0  0  0  0  0  0  0
   56.6374   27.7256   45.0594 H   0  0  0  0  0  0  0  0  0  0  0  0
   57.3340   26.6180   46.7720 C   0  0  0  0  0  0  0  0  0  0  0  0
   58.4231   26.5390   46.9051 H   0  0  0  0  0  0  0  0  0  0  0  0
   56.8291   26.5989   47.7491 H   0  0  0  0  0  0  0  0  0  0  0  0
   56.8490   25.4500   45.9510 C   0  0  0  0  0  0  0  0  0  0  0  0
   57.7450   24.4300   45.5930 C   0  0  0  0  0  0  0  0  0  0  0  0
   58.8009   24.5005   45.8933 H   0  0  0  0  0  0  0  0  0  0  0  0
   57.3050   23.3260   44.8580 C   0  0  0  0  0  0  0  0  0  0  0  0
   58.0168   22.5364   44.5753 H   0  0  0  0  0  0  0  0  0  0  0  0
   55.9630   23.2220   44.4810 C   0  0  0  0  0  0  0  0  0  0  0  0
   55.5380   22.1170   43.7490 O   0  0  0  0  0  0  0  0  0  0  0  0
   55.0670   22.2210   42.8570 H   0  0  0  0  0  0  0  0  0  0  0  0
   55.0590   24.2290   44.8450 C   0  0  0  0  0  0  0  0  0  0  0  0
   54.0022   24.1485   44.5505 H   0  0  0  0  0  0  0  0  0  0  0  0
   55.4940   25.3360   45.5810 C   0  0  0  0  0  0  0  0  0  0  0  0
   54.5760   26.3160   45.9440 O   0  0  0  0  0  0  0  0  0  0  0  0
   58.7280   34.0920   46.7120 C   0  0  0  0  0  0  0  0  0  0  0  0
   57.7506   34.4790   46.3882 H   0  0  0  0  0  0  0  0  0  0  0  0
   59.3860   34.6850   47.8050 C   0  0  0  0  0  0  0  0  0  0  0  0
   58.9370   35.5285   48.3499 H   0  0  0  0  0  0  0  0  0  0  0  0
   60.6240   34.1680   48.1730 C   0  0  0  0  0  0  0  0  0  0  0  0
   61.4170   34.5740   49.1750 N   0  0  0  0  0  0  0  0  0  0  0  0
   63.5290   34.4090   51.2420 C   0  0  0  0  0  0  0  0  0  0  0  0
   62.5795   34.8547   51.5732 H   0  0  0  0  0  0  0  0  0  0  0  0
   64.6560   34.4400   52.0640 C   0  0  0  0  0  0  0  0  0  0  0  0
   64.6011   34.9138   53.0552 H   0  0  0  0  0  0  0  0  0  0  0  0
   65.8210   33.8850   51.6400 N   0  0  0  0  0  0  0  0  0  0  0  0
  1  2  1  0
  2  3  2  0
  3  4  1  0
  4  5  2  0
  5  6  1  0
  6  7  2  0
  7  8  1  0
  8  9  2  0
  9 10  1  0
  9 11  1  0
 11 12  1  0
 12 13  2  0
 13 14  1  0
 13 15  1  0
 15 16  1  0
 15 17  2  0
 17 18  1  0
 17 19  1  0
 19 20  1  0
 19 21  2  0
 21 22  1  0
 22 23  2  0
 22 24  1  0
 24 25  1  0
 25 26  1  0
 25 27  1  0
 25 28  1  0
 28 29  1  0
 28 30  1  0
 28 31  1  0
 31 32  2  0
 32 33  1  0
 32 34  1  0
 34 35  1  0
 34 36  2  0
 36 37  1  0
 37 38  1  0
 36 39  1  0
 39 40  1  0
 39 41  2  0
 41 42  1  0
 11 43  2  0
 43 44  1  0
 43 45  1  0
 45 46  1  0
 45 47  2  0
 47 48  1  0
  5 49  1  0
 49 50  1  0
 49 51  2  0
 51 52  1  0
 51 53  1  0
 53  3  1  0
 48  6  1  0
 47  8  1  0
 21 12  1  0
 41 31  1  0
M  CHG  4  24  -1  42  -1  48  -1  53  -1
M  END
>  <UniqueID>  (48) 
46

>  <SMILES>  (48) 
[H]/N=c1/nc(-c2nc3cc(-c4ccccc4C(=O)[N-]CCc4ccc(O)cc4[O-])ccc3[n-]2)cc[n-]1

>  <Energy>  (48) 
101.46452150130538

>  <Genealogy>  (48) 
N=c1nc(-c2nc3cc(-c4ccccc4C(=O)[N-]CCc4ccc(O)cc4[O-])ccc3[n-]2)cc[n-]1 (protonated)
[H]/N=c1/nc(-c2nc3cc(-c4ccccc4C(=O)[N-]CCc4ccc(O)cc4[O-])ccc3[n-]2)cc[n-]1 (cis-trans isomerization)
[H]/N=c1/nc(-c2nc3cc(-c4ccccc4C(=O)[N-]CCc4ccc(O)cc4[O-])ccc3[n-]2)cc[n-]1 (3D coordinates assigned)
[H]/N=c1/nc(-c2nc3cc(-c4ccccc4C(=O)[N-]CCc4ccc(O)cc4[O-])ccc3[n-]2)cc[n-]1 (optimized conformer: 101.46452150130538 kcal/mol)

>  <smiles>  (48) 
N=c1nc(-c2nc3cc(-c4ccccc4C(=O)NCCc4ccc(O)cc4O)ccc3[nH]2)cc[nH]1

>  <score_type>  (48) 
oracle

>  <origin>  (48) 
adg

>  <m_score__min__energy>  (48) 
-15.99

>  <m_primary>  (48) 
energy

$$$$
48:0
     RDKit          3D

 44 47  0  0  1  0  0  0  0  0999 V2000
   60.2990   34.5910   47.6020 C   0  0  0  0  0  0  0  0  0  0  0  0
   58.9850   34.5340   47.3370 C   0  0  0  0  0  0  0  0  0  0  0  0
   58.5020   33.8130   46.1230 C   0  0  0  0  0  0  0  0  0  0  0  0
   59.0490   34.1680   44.8860 C   0  0  0  0  0  0  0  0  0  0  0  0
   58.1600   33.0840   43.7220 S   0  0  0  0  0  0  0  0  0  0  0  0
   57.1860   32.3100   45.0260 C   0  0  0  0  0  0  0  0  0  0  0  0
   56.2940   31.4000   44.8630 N   0  0  0  0  0  0  0  0  0  0  0  0
   56.5910   30.0960   44.3870 C   0  0  0  0  0  0  0  0  0  0  0  0
   55.8270   29.5140   43.5370 O   0  0  0  0  0  0  0  0  0  0  0  0
   57.7510   29.3170   44.7960 C   0  0  0  0  0  0  0  0  0  0  0  0
   57.8210   27.9420   44.7230 C   0  0  0  0  0  0  0  0  0  0  0  0
   58.9070   27.2050   45.1180 C   0  0  0  0  0  0  0  0  0  0  0  0
   60.0340   27.8580   45.6330 C   0  0  0  0  0  0  0  0  0  0  0  0
   59.9750   29.2300   45.7090 C   0  0  0  0  0  0  0  0  0  0  0  0
   61.0680   29.9800   46.2060 N   0  0  0  0  0  0  0  0  0  0  0  0
   60.9810   30.9660   47.2130 C   0  0  0  0  0  0  0  0  0  0  0  0
   59.8990   31.2830   47.7870 O   0  0  0  0  0  0  0  0  0  0  0  0
   62.1720   31.6780   47.6350 C   0  0  0  0  0  0  0  0  0  0  0  0
   62.5110   32.1270   48.9200 C   0  0  0  0  0  0  0  0  0  0  0  0
   63.7240   32.7590   48.7720 C   0  0  0  0  0  0  0  0  0  0  0  0
   64.4790   33.3960   49.8650 C   0  0  0  0  0  0  0  0  0  0  0  0
   65.8640   32.7420   50.0820 C   0  0  0  0  0  0  0  0  0  0  0  0
   64.7980   32.6520   51.1240 C   0  0  0  0  0  0  0  0  0  0  0  0
   64.1210   32.7080   47.4860 N   0  0  0  0  0  0  0  0  0  0  0  0
   63.1850   32.0650   46.8460 N   0  0  0  0  0  0  0  0  0  0  0  0
   58.8600   29.9620   45.3030 C   0  0  0  0  0  0  0  0  0  0  0  0
   57.5870   32.8900   46.1320 N   0  0  0  0  0  0  0  0  0  0  0  0
   60.6572   35.1219   48.4963 H   0  0  0  0  0  0  0  0  0  0  0  0
   61.0181   34.1068   46.9250 H   0  0  0  0  0  0  0  0  0  0  0  0
   58.2650   35.0179   48.0134 H   0  0  0  0  0  0  0  0  0  0  0  0
   59.8248   34.9171   44.6691 H   0  0  0  0  0  0  0  0  0  0  0  0
   56.9502   27.4023   44.3224 H   0  0  0  0  0  0  0  0  0  0  0  0
   58.8936   26.1085   45.0312 H   0  0  0  0  0  0  0  0  0  0  0  0
   60.9236   27.3003   45.9609 H   0  0  0  0  0  0  0  0  0  0  0  0
   62.0130   29.7640   45.7720 H   0  0  0  0  0  0  0  0  0  0  0  0
   61.9317   32.0009   49.8465 H   0  0  0  0  0  0  0  0  0  0  0  0
   64.0411   34.3896   49.6890 H   0  0  0  0  0  0  0  0  0  0  0  0
   66.1506   31.8499   49.5057 H   0  0  0  0  0  0  0  0  0  0  0  0
   66.9075   33.0890   50.0560 H   0  0  0  0  0  0  0  0  0  0  0  0
   64.3118   31.6854   51.3221 H   0  0  0  0  0  0  0  0  0  0  0  0
   64.7518   32.9050   52.1935 H   0  0  0  0  0  0  0  0  0  0  0  0
   64.9860   33.1020   47.1050 H   0  0  0  0  0  0  0  0  0  0  0  0
   58.8646   31.0588   45.3873 H   0  0  0  0  0  0  0  0  0  0  0  0
   57.1230   32.5720   47.0710 H   0  0  0  0  0  0  0  0  0  0  0  0
  1  2  2  0
  2  3  1  0
  3  4  2  0
  4  5  1  0
  5  6  1  0
  6  7  2  0
  7  8  1  0
  8  9  2  0
  8 10  1  0
 10 11  2  0
 11 12  1  0
 12 13  2  0
 13 14  1  0
 14 15  1  0
 15 16  1  0
 16 17  2  0
 16 18  1  0
 18 19  1  0
 19 20  2  0
 20 21  1  0
 21 22  1  0
 22 23  1  0
 20 24  1  0
 24 25  1  0
 14 26  2  0
  6 27  1  0
 27  3  1  0
 26 10  1  0
 25 18  2  0
 23 21  1  0
  1 28  1  0
  1 29  1  0
  2 30  1  0
  4 31  1  0
 11 32  1  0
 12 33  1  0
 13 34  1  0
 15 35  1  0
 19 36  1  0
 21 37  1  0
 22 38  1  0
 22 39  1  0
 23 40  1  0
 23 41  1  0
 24 42  1  0
 26 43  1  0
 27 44  1  0
M  END
>  <smiles>  (49) 
C=Cc1csc(=NC(=O)c2cccc(NC(=O)c3cc(C4CC4)[nH]n3)c2)[nH]1

>  <score_type>  (49) 
oracle

>  <origin>  (49) 
adg

>  <m_score__min__energy>  (49) 
-8.8200000000000003

>  <m_primary>  (49) 
energy

$$$$
49:0
     RDKit          3D

 50 52  0  0  0  0  0  0  0  0999 V2000
   58.1580   28.4080   46.6240 C   0  0  0  0  0  0  0  0  0  0  0  0
   57.4780   29.2470   45.5800 C   0  0  0  0  0  0  0  0  0  0  0  0
   58.1040   30.4010   45.0810 C   0  0  0  0  0  0  0  0  0  0  0  0
   57.4670   31.2000   44.1170 C   0  0  0  0  0  0  0  0  0  0  0  0
   58.1610   32.4110   43.5470 C   0  0  0  0  0  0  0  0  0  0  0  0
   58.4480   33.3830   44.6100 N   0  0  0  0  0  0  0  0  0  0  0  0
   59.6570   34.2120   44.4900 C   0  0  0  0  0  0  0  0  0  0  0  0
   59.7890   35.2430   45.6230 C   0  0  0  0  0  0  0  0  0  0  0  0
   59.4100   34.6940   46.9420 N   0  0  0  0  0  0  0  0  0  0  0  0
   60.2720   33.5780   47.3970 C   0  0  0  0  0  0  0  0  0  0  0  0
   59.6660   32.8710   48.5820 C   0  0  0  0  0  0  0  0  0  0  0  0
   59.2690   31.5330   48.4830 C   0  0  0  0  0  0  0  0  0  0  0  0
   58.7200   30.8790   49.5850 C   0  0  0  0  0  0  0  0  0  0  0  0
   58.5600   31.5450   50.8130 C   0  0  0  0  0  0  0  0  0  0  0  0
   57.8720   30.8300   51.9120 C   0  0  0  0  0  0  0  0  0  0  0  0
   57.9500   31.3120   53.2560 N   0  0  0  0  0  0  0  0  0  0  0  0
   57.2370   29.7680   51.6730 O   0  0  0  0  0  0  0  0  0  0  0  0
   58.9900   32.8940   50.9310 C   0  0  0  0  0  0  0  0  0  0  0  0
   58.9580   33.6310   52.2180 C   0  0  0  0  0  0  0  0  0  0  0  0
   59.9960   33.7120   52.9280 O   0  0  0  0  0  0  0  0  0  0  0  0
   57.7780   34.1930   52.6860 O   0  0  0  0  0  0  0  0  0  0  0  0
   59.5250   33.5420   49.8030 C   0  0  0  0  0  0  0  0  0  0  0  0
   57.9850   34.3200   46.9470 C   0  0  0  0  0  0  0  0  0  0  0  0
   57.6370   33.4120   45.8030 C   0  0  0  0  0  0  0  0  0  0  0  0
   56.5890   32.7150   45.8770 O   0  0  0  0  0  0  0  0  0  0  0  0
   56.1900   30.8380   43.6600 C   0  0  0  0  0  0  0  0  0  0  0  0
   55.5590   29.6980   44.1600 C   0  0  0  0  0  0  0  0  0  0  0  0
   56.1940   28.9030   45.1180 C   0  0  0  0  0  0  0  0  0  0  0  0
   55.5460   27.7750   45.6080 O   0  0  0  0  0  0  0  0  0  0  0  0
   57.8701   28.7632   47.6245 H   0  0  0  0  0  0  0  0  0  0  0  0
   57.8532   27.3577   46.5060 H   0  0  0  0  0  0  0  0  0  0  0  0
   59.2487   28.4887   46.5060 H   0  0  0  0  0  0  0  0  0  0  0  0
   59.1021   30.6817   45.4484 H   0  0  0  0  0  0  0  0  0  0  0  0
   59.1049   32.0997   43.0757 H   0  0  0  0  0  0  0  0  0  0  0  0
   57.5037   32.8813   42.8008 H   0  0  0  0  0  0  0  0  0  0  0  0
   60.5378   33.5534   44.5101 H   0  0  0  0  0  0  0  0  0  0  0  0
   59.5839   34.7682   43.5438 H   0  0  0  0  0  0  0  0  0  0  0  0
   60.8345   35.5818   45.6702 H   0  0  0  0  0  0  0  0  0  0  0  0
   59.1019   36.0722   45.3988 H   0  0  0  0  0  0  0  0  0  0  0  0
   60.3931   32.8590   46.5733 H   0  0  0  0  0  0  0  0  0  0  0  0
   61.2465   33.9902   47.6976 H   0  0  0  0  0  0  0  0  0  0  0  0
   59.3906   30.9947   47.5314 H   0  0  0  0  0  0  0  0  0  0  0  0
   58.4079   29.8283   49.4926 H   0  0  0  0  0  0  0  0  0  0  0  0
   58.4240   32.2140   53.4770 H   0  0  0  0  0  0  0  0  0  0  0  0
   57.4920   30.7810   54.0300 H   0  0  0  0  0  0  0  0  0  0  0  0
   59.8379   34.5936   49.8813 H   0  0  0  0  0  0  0  0  0  0  0  0
   57.7566   33.8045   47.8915 H   0  0  0  0  0  0  0  0  0  0  0  0
   57.3921   35.2406   46.8422 H   0  0  0  0  0  0  0  0  0  0  0  0
   55.6840   31.4561   42.9038 H   0  0  0  0  0  0  0  0  0  0  0  0
   54.5570   29.4239   43.7983 H   0  0  0  0  0  0  0  0  0  0  0  0
  1  2  1  0
  2  3  2  0
  3  4  1  0
  4  5  1  0
  5  6  1  0
  6  7  1  0
  7  8  1  0
  8  9  1  0
  9 10  1  0
 10 11  1  0
 11 12  2  0
 12 13  1  0
 13 14  2  0
 14 15  1  0
 15 16  1  0
 15 17  2  0
 14 18  1  0
 18 19  1  0
 19 20  2  0
 19 21  1  0
 18 22  2  0
  9 23  1  0
 23 24  1  0
 24 25  2  0
  4 26  2  0
 26 27  1  0
 27 28  2  0
 28 29  1  0
 28  2  1  0
 24  6  1  0
 22 11  1  0
  1 30  1  0
  1 31  1  0
  1 32  1  0
  3 33  1  0
  5 34  1  0
  5 35  1  0
  7 36  1  0
  7 37  1  0
  8 38  1  0
  8 39  1  0
 10 40  1  0
 10 41  1  0
 12 42  1  0
 13 43  1  0
 16 44  1  0
 16 45  1  0
 22 46  1  0
 23 47  1  0
 23 48  1  0
 26 49  1  0
 27 50  1  0
M  CHG  2  21  -1  29  -1
M  END
>  <UniqueID>  (50) 
47

>  <SMILES>  (50) 
Cc1cc(CN2CCN(Cc3ccc(C(N)=O)c(C(=O)[O-])c3)CC2=O)ccc1[O-]

>  <Energy>  (50) 
61.944082530345206

>  <Genealogy>  (50) 
Cc1cc(CN2CCN(Cc3ccc(C(N)=O)c(C(=O)[O-])c3)CC2=O)ccc1[O-] (protonated)
Cc1cc(CN2CCN(Cc3ccc(C(N)=O)c(C(=O)[O-])c3)CC2=O)ccc1[O-] (3D coordinates assigned)
Cc1cc(CN2CCN(Cc3ccc(C(N)=O)c(C(=O)[O-])c3)CC2=O)ccc1[O-] (nonaromatic ring conformer: 61.944082530345206 kcal/mol)

>  <smiles>  (50) 
Cc1cc(CN2CCN(Cc3ccc(C(N)=O)c(C(=O)O)c3)CC2=O)ccc1O

>  <score_type>  (50) 
oracle

>  <origin>  (50) 
adg

>  <m_score__min__energy>  (50) 
-12.15

>  <m_primary>  (50) 
energy

$$$$
50:0
     RDKit          3D

 34 36  0  0  0  0  0  0  0  0999 V2000
   54.3860   29.0190   44.4480 H   0  0  0  0  0  0  0  0  0  0  0  0
   55.2870   29.2890   44.9060 N   0  0  0  0  0  0  0  0  0  0  0  0
   56.0840   30.1530   44.3680 C   0  0  0  0  0  0  0  0  0  0  0  0
   56.7900   31.0140   45.1490 N   0  0  0  0  0  0  0  0  0  0  0  0
   57.6400   31.9320   44.6100 C   0  0  0  0  0  0  0  0  0  0  0  0
   58.3860   32.8490   45.5110 C   0  0  0  0  0  0  0  0  0  0  0  0
   58.6650   34.1620   45.0950 C   0  0  0  0  0  0  0  0  0  0  0  0
   58.3252   34.5048   44.1066 H   0  0  0  0  0  0  0  0  0  0  0  0
   59.3700   35.0350   45.9260 C   0  0  0  0  0  0  0  0  0  0  0  0
   59.5988   36.0545   45.5822 H   0  0  0  0  0  0  0  0  0  0  0  0
   59.7850   34.6180   47.1910 C   0  0  0  0  0  0  0  0  0  0  0  0
   60.3555   35.3051   47.8332 H   0  0  0  0  0  0  0  0  0  0  0  0
   59.4800   33.3310   47.6480 C   0  0  0  0  0  0  0  0  0  0  0  0
   59.9310   32.9410   48.9570 N   0  0  0  0  0  0  0  0  0  0  0  0
   59.2280   32.9330   50.0520 C   0  0  0  0  0  0  0  0  0  0  0  0
   58.3340   31.9390   50.3120 N   0  0  0  0  0  0  0  0  0  0  0  0
   57.5800   31.9320   51.4440 C   0  0  0  0  0  0  0  0  0  0  0  0
   56.6370   30.8210   51.6870 C   0  0  0  0  0  0  0  0  0  0  0  0
   57.0710   29.6590   51.9120 O   0  0  0  0  0  0  0  0  0  0  0  0
   55.2250   31.0440   51.6670 N   0  0  0  0  0  0  0  0  0  0  0  0
   54.8240   31.9890   51.4740 H   0  0  0  0  0  0  0  0  0  0  0  0
   54.5670   30.2520   51.8420 H   0  0  0  0  0  0  0  0  0  0  0  0
   57.7190   32.9830   52.3600 C   0  0  0  0  0  0  0  0  0  0  0  0
   57.1231   33.0044   53.2843 H   0  0  0  0  0  0  0  0  0  0  0  0
   58.6280   34.0010   52.0760 C   0  0  0  0  0  0  0  0  0  0  0  0
   58.7524   34.8383   52.7785 H   0  0  0  0  0  0  0  0  0  0  0  0
   59.3600   33.9600   50.9330 N   0  0  0  0  0  0  0  0  0  0  0  0
   58.8050   32.4390   46.7930 C   0  0  0  0  0  0  0  0  0  0  0  0
   58.6025   31.4113   47.1289 H   0  0  0  0  0  0  0  0  0  0  0  0
   57.7740   31.9930   43.2130 C   0  0  0  0  0  0  0  0  0  0  0  0
   58.4436   32.7303   42.7460 H   0  0  0  0  0  0  0  0  0  0  0  0
   57.0420   31.1010   42.4290 C   0  0  0  0  0  0  0  0  0  0  0  0
   57.1353   31.1273   41.3333 H   0  0  0  0  0  0  0  0  0  0  0  0
   56.2150   30.2010   43.0180 N   0  0  0  0  0  0  0  0  0  0  0  0
  1  2  1  0
  2  3  2  0
  3  4  1  0
  4  5  2  0
  5  6  1  0
  6  7  2  0
  7  8  1  0
  7  9  1  0
  9 10  1  0
  9 11  2  0
 11 12  1  0
 11 13  1  0
 13 14  1  0
 14 15  2  0
 15 16  1  0
 16 17  2  0
 17 18  1  0
 18 19  2  0
 18 20  1  0
 20 21  1  0
 20 22  1  0
 17 23  1  0
 23 24  1  0
 23 25  2  0
 25 26  1  0
 25 27  1  0
 13 28  2  0
 28 29  1  0
  5 30  1  0
 30 31  1  0
 30 32  2  0
 32 33  1  0
 32 34  1  0
 34  3  1  0
 28  6  1  0
 27 15  1  0
M  CHG  2  27  -1  34  -1
M  END
>  <UniqueID>  (51) 
48

>  <SMILES>  (51) 
[H]/N=c1\nc(-c2cccc(/N=c3\nc(C(N)=O)cc[n-]3)c2)cc[n-]1

>  <Energy>  (51) 
46.905714710557326

>  <Genealogy>  (51) 
N=c1nc(-c2cccc(N=c3nc(C(N)=O)cc[n-]3)c2)cc[n-]1 (protonated)
[H]/N=c1\nc(-c2cccc(/N=c3\nc(C(N)=O)cc[n-]3)c2)cc[n-]1 (cis-trans isomerization)
[H]/N=c1\nc(-c2cccc(/N=c3\nc(C(N)=O)cc[n-]3)c2)cc[n-]1 (3D coordinates assigned)
[H]/N=c1\nc(-c2cccc(/N=c3\nc(C(N)=O)cc[n-]3)c2)cc[n-]1 (optimized conformer: 46.905714710557326 kcal/mol)

>  <smiles>  (51) 
N=c1nc(-c2cccc(N=c3nc(C(N)=O)cc[nH]3)c2)cc[nH]1

>  <score_type>  (51) 
oracle

>  <origin>  (51) 
adg

>  <m_score__min__energy>  (51) 
-11.69

>  <m_primary>  (51) 
energy

$$$$
51:0
     RDKit          3D

 59 63  0  0  0  0  0  0  0  0999 V2000
   59.3850   28.4020   48.8230 C   0  0  0  0  0  0  0  0  0  0  0  0
   58.9250   29.3930   48.0430 C   0  0  0  0  0  0  0  0  0  0  0  0
   58.5860   29.3030   46.6830 C   0  0  0  0  0  0  0  0  0  0  0  0
   58.4270   28.2340   45.8790 C   0  0  0  0  0  0  0  0  0  0  0  0
   57.3410   27.2460   45.9700 C   0  0  0  0  0  0  0  0  0  0  0  0
   57.4420   26.0490   46.5780 N   0  0  0  0  0  0  0  0  0  0  0  0
   56.1800   25.5700   46.5350 C   0  0  0  0  0  0  0  0  0  0  0  0
   55.8660   24.4430   46.9990 O   0  0  0  0  0  0  0  0  0  0  0  0
   55.2780   26.3980   45.9640 N   0  0  0  0  0  0  0  0  0  0  0  0
   56.0280   27.4590   45.6270 C   0  0  0  0  0  0  0  0  0  0  0  0
   55.5210   28.6020   45.0220 O   0  0  0  0  0  0  0  0  0  0  0  0
   58.3830   30.6000   46.2500 C   0  0  0  0  0  0  0  0  0  0  0  0
   58.5390   31.4190   47.3450 C   0  0  0  0  0  0  0  0  0  0  0  0
   58.3530   32.8830   47.2950 C   0  0  0  0  0  0  0  0  0  0  0  0
   57.3080   33.3330   46.7500 O   0  0  0  0  0  0  0  0  0  0  0  0
   59.4120   33.7810   47.7180 N   0  0  0  0  0  0  0  0  0  0  0  0
   59.2060   35.1550   47.2070 C   0  0  0  0  0  0  0  0  0  0  0  0
   59.5650   35.3010   45.7080 C   0  0  0  0  0  0  0  0  0  0  0  0
   60.2490   34.1780   45.1850 O   0  0  0  0  0  0  0  0  0  0  0  0
   61.3030   33.8200   46.0490 C   0  0  0  0  0  0  0  0  0  0  0  0
   60.7490   33.2390   47.3630 C   0  0  0  0  0  0  0  0  0  0  0  0
   58.8570   30.6920   48.4440 N   0  0  0  0  0  0  0  0  0  0  0  0
   58.9580   31.1940   49.8250 C   0  0  0  0  0  0  0  0  0  0  0  0
   60.3400   31.7350   50.0850 C   0  0  0  0  0  0  0  0  0  0  0  0
   61.4770   31.0260   49.6740 C   0  0  0  0  0  0  0  0  0  0  0  0
   62.7550   31.5260   49.9370 C   0  0  0  0  0  0  0  0  0  0  0  0
   62.9220   32.7490   50.6130 C   0  0  0  0  0  0  0  0  0  0  0  0
   64.2860   33.2720   50.8900 C   0  0  0  0  0  0  0  0  0  0  0  0
   65.4940   32.7490   50.4290 C   0  0  0  0  0  0  0  0  0  0  0  0
   66.6180   33.4650   50.8680 C   0  0  0  0  0  0  0  0  0  0  0  0
   68.0150   33.1170   50.4610 C   0  0  0  0  0  0  0  0  0  0  0  0
   66.3110   34.5660   51.6570 C   0  0  0  0  0  0  0  0  0  0  0  0
   64.6420   34.6290   51.8270 S   0  0  0  0  0  0  0  0  0  0  0  0
   61.7760   33.4570   51.0210 C   0  0  0  0  0  0  0  0  0  0  0  0
   60.4990   32.9540   50.7590 C   0  0  0  0  0  0  0  0  0  0  0  0
   59.6168   28.5969   49.8805 H   0  0  0  0  0  0  0  0  0  0  0  0
   59.5301   27.3951   48.4047 H   0  0  0  0  0  0  0  0  0  0  0  0
   59.1743   28.0871   45.0853 H   0  0  0  0  0  0  0  0  0  0  0  0
   58.1424   30.9173   45.2246 H   0  0  0  0  0  0  0  0  0  0  0  0
   59.3820   33.8380   48.7620 H   0  0  0  0  0  0  0  0  0  0  0  0
   58.1482   35.4248   47.3424 H   0  0  0  0  0  0  0  0  0  0  0  0
   59.8742   35.8210   47.7726 H   0  0  0  0  0  0  0  0  0  0  0  0
   58.6346   35.4399   45.1379 H   0  0  0  0  0  0  0  0  0  0  0  0
   60.2394   36.1652   45.6168 H   0  0  0  0  0  0  0  0  0  0  0  0
   61.9340   33.0652   45.5570 H   0  0  0  0  0  0  0  0  0  0  0  0
   61.8955   34.7179   46.2787 H   0  0  0  0  0  0  0  0  0  0  0  0
   60.6680   32.1471   47.2571 H   0  0  0  0  0  0  0  0  0  0  0  0
   61.4437   33.5225   48.1674 H   0  0  0  0  0  0  0  0  0  0  0  0
   58.2203   31.9961   49.9744 H   0  0  0  0  0  0  0  0  0  0  0  0
   58.7609   30.3661   50.5220 H   0  0  0  0  0  0  0  0  0  0  0  0
   61.3626   30.0704   49.1413 H   0  0  0  0  0  0  0  0  0  0  0  0
   63.6394   30.9580   49.6124 H   0  0  0  0  0  0  0  0  0  0  0  0
   65.5593   31.8608   49.7834 H   0  0  0  0  0  0  0  0  0  0  0  0
   68.6311   32.9635   51.3592 H   0  0  0  0  0  0  0  0  0  0  0  0
   68.0034   32.1943   49.8623 H   0  0  0  0  0  0  0  0  0  0  0  0
   68.4376   33.9373   49.8623 H   0  0  0  0  0  0  0  0  0  0  0  0
   67.0334   35.2716   52.0932 H   0  0  0  0  0  0  0  0  0  0  0  0
   61.8866   34.4147   51.5507 H   0  0  0  0  0  0  0  0  0  0  0  0
   59.6124   33.5183   51.0838 H   0  0  0  0  0  0  0  0  0  0  0  0
  1  2  2  0
  2  3  1  0
  3  4  2  3
  4  5  1  0
  5  6  1  0
  6  7  1  0
  7  8  2  0
  7  9  1  0
  9 10  1  0
 10 11  1  0
  3 12  1  0
 12 13  2  0
 13 14  1  0
 14 15  2  0
 14 16  1  0
 16 17  1  0
 17 18  1  0
 18 19  1  0
 19 20  1  0
 20 21  1  0
 13 22  1  0
 22 23  1  0
 23 24  1  0
 24 25  2  0
 25 26  1  0
 26 27  2  0
 27 28  1  0
 28 29  2  0
 29 30  1  0
 30 31  1  0
 30 32  2  0
 32 33  1  0
 27 34  1  0
 34 35  2  0
 22  2  1  0
 35 24  1  0
 10  5  2  0
 21 16  1  0
 33 28  1  0
  1 36  1  0
  1 37  1  0
  4 38  1  0
 12 39  1  0
 16 40  1  0
 17 41  1  0
 17 42  1  0
 18 43  1  0
 18 44  1  0
 20 45  1  0
 20 46  1  0
 21 47  1  0
 21 48  1  0
 23 49  1  0
 23 50  1  0
 25 51  1  0
 26 52  1  0
 29 53  1  0
 31 54  1  0
 31 55  1  0
 31 56  1  0
 32 57  1  0
 34 58  1  0
 35 59  1  0
M  CHG  4   6  -1   9  -1  11  -1  16   1
M  END
>  <UniqueID>  (52) 
49

>  <SMILES>  (52) 
C=c1c(=Cc2[n-]c(=O)[n-]c2[O-])cc(C(=O)[NH+]2CCOCC2)n1Cc1ccc(-c2cc(C)cs2)cc1

>  <Energy>  (52) 
179.3374609331022

>  <Genealogy>  (52) 
C=c1c(=Cc2[n-]c(=O)[n-]c2[O-])cc(C(=O)[NH+]2CCOCC2)n1Cc1ccc(-c2cc(C)cs2)cc1 (protonated)
C=c1c(=Cc2[n-]c(=O)[n-]c2[O-])cc(C(=O)[NH+]2CCOCC2)n1Cc1ccc(-c2cc(C)cs2)cc1 (3D coordinates assigned)
C=c1c(=Cc2[n-]c(=O)[n-]c2[O-])cc(C(=O)[NH+]2CCOCC2)n1Cc1ccc(-c2cc(C)cs2)cc1 (nonaromatic ring conformer: 179.3374609331022 kcal/mol)

>  <smiles>  (52) 
C=c1c(=Cc2[nH]c(=O)[nH]c2O)cc(C(=O)N2CCOCC2)n1Cc1ccc(-c2cc(C)cs2)cc1

>  <score_type>  (52) 
oracle

>  <origin>  (52) 
adg

>  <m_score__min__energy>  (52) 
-14.73

>  <m_primary>  (52) 
energy

$$$$
52:0
     RDKit          3D

 67 70  0  0  0  0  0  0  0  0999 V2000
   56.3060   21.9320   49.1650 C   0  0  0  0  0  0  0  0  0  0  0  0
   57.1540   22.5960   48.2340 O   0  0  0  0  0  0  0  0  0  0  0  0
   56.7390   23.6270   47.3780 C   0  0  0  0  0  0  0  0  0  0  0  0
   55.5000   23.5030   46.7380 C   0  0  0  0  0  0  0  0  0  0  0  0
   55.0470   24.5000   45.8740 C   0  0  0  0  0  0  0  0  0  0  0  0
   55.8260   25.6360   45.6410 C   0  0  0  0  0  0  0  0  0  0  0  0
   57.0650   25.7840   46.2790 C   0  0  0  0  0  0  0  0  0  0  0  0
   57.9270   26.9860   46.0050 C   0  0  0  0  0  0  0  0  0  0  0  0
   57.1360   28.1740   45.9690 O   0  0  0  0  0  0  0  0  0  0  0  0
   57.2520   29.2130   45.0270 C   0  0  0  0  0  0  0  0  0  0  0  0
   56.3310   29.3540   43.9680 C   0  0  0  0  0  0  0  0  0  0  0  0
   56.4380   30.4210   43.0740 C   0  0  0  0  0  0  0  0  0  0  0  0
   57.4610   31.3550   43.2170 C   0  0  0  0  0  0  0  0  0  0  0  0
   58.3860   31.2240   44.2520 C   0  0  0  0  0  0  0  0  0  0  0  0
   58.3050   30.1510   45.1580 C   0  0  0  0  0  0  0  0  0  0  0  0
   59.3010   30.0640   46.2570 C   0  0  0  0  0  0  0  0  0  0  0  0
   60.4620   30.5180   46.0710 O   0  0  0  0  0  0  0  0  0  0  0  0
   58.9600   29.4700   47.5240 N   0  0  0  0  0  0  0  0  0  0  0  0
   59.8510   29.5250   48.6830 C   0  0  0  0  0  0  0  0  0  0  0  0
   59.5250   30.7200   49.5310 C   0  0  0  0  0  0  0  0  0  0  0  0
   58.3410   30.8850   49.9320 O   0  0  0  0  0  0  0  0  0  0  0  0
   60.5430   31.6100   50.0020 N   0  0  0  0  0  0  0  0  0  0  0  0
   61.6080   32.1740   49.2230 C   0  0  0  0  0  0  0  0  0  0  0  0
   62.8870   31.5870   49.2300 C   0  0  0  0  0  0  0  0  0  0  0  0
   63.9220   32.1410   48.4720 C   0  0  0  0  0  0  0  0  0  0  0  0
   63.6900   33.2810   47.7010 C   0  0  0  0  0  0  0  0  0  0  0  0
   62.4190   33.8610   47.6690 C   0  0  0  0  0  0  0  0  0  0  0  0
   61.3630   33.3000   48.4070 C   0  0  0  0  0  0  0  0  0  0  0  0
   60.0220   33.9220   48.3370 C   0  0  0  0  0  0  0  0  0  0  0  0
   59.6060   34.5970   49.3170 O   0  0  0  0  0  0  0  0  0  0  0  0
   59.1960   33.7890   47.1650 N   0  0  0  0  0  0  0  0  0  0  0  0
   59.7970   33.7420   45.8230 C   0  0  0  0  0  0  0  0  0  0  0  0
   59.0240   34.6570   44.8670 C   0  0  0  0  0  0  0  0  0  0  0  0
   57.4930   34.4470   44.9200 C   0  0  0  0  0  0  0  0  0  0  0  0
   57.0450   33.4310   45.9840 C   0  0  0  0  0  0  0  0  0  0  0  0
   57.7390   33.6980   47.3260 C   0  0  0  0  0  0  0  0  0  0  0  0
   57.5240   24.7720   47.1400 C   0  0  0  0  0  0  0  0  0  0  0  0
   56.6216   22.1791   50.1894 H   0  0  0  0  0  0  0  0  0  0  0  0
   55.2669   22.2591   49.0125 H   0  0  0  0  0  0  0  0  0  0  0  0
   56.3743   20.8448   49.0125 H   0  0  0  0  0  0  0  0  0  0  0  0
   54.8792   22.6129   46.9178 H   0  0  0  0  0  0  0  0  0  0  0  0
   54.0730   24.3914   45.3744 H   0  0  0  0  0  0  0  0  0  0  0  0
   55.4658   26.4166   44.9548 H   0  0  0  0  0  0  0  0  0  0  0  0
   58.6819   27.0783   46.7998 H   0  0  0  0  0  0  0  0  0  0  0  0
   58.4165   26.8562   45.0285 H   0  0  0  0  0  0  0  0  0  0  0  0
   55.5227   28.6180   43.8456 H   0  0  0  0  0  0  0  0  0  0  0  0
   55.7120   30.5242   42.2541 H   0  0  0  0  0  0  0  0  0  0  0  0
   57.5393   32.1966   42.5130 H   0  0  0  0  0  0  0  0  0  0  0  0
   59.1885   31.9684   44.3613 H   0  0  0  0  0  0  0  0  0  0  0  0
   58.1240   28.8450   47.5870 H   0  0  0  0  0  0  0  0  0  0  0  0
   59.7263   28.6102   49.2810 H   0  0  0  0  0  0  0  0  0  0  0  0
   60.8907   29.6060   48.3330 H   0  0  0  0  0  0  0  0  0  0  0  0
   63.0729   30.6875   49.8352 H   0  0  0  0  0  0  0  0  0  0  0  0
   64.9200   31.6784   48.4830 H   0  0  0  0  0  0  0  0  0  0  0  0
   64.5100   33.7242   47.1169 H   0  0  0  0  0  0  0  0  0  0  0  0
   62.2442   34.7619   47.0626 H   0  0  0  0  0  0  0  0  0  0  0  0
   60.8431   34.0771   45.8810 H   0  0  0  0  0  0  0  0  0  0  0  0
   59.7549   32.7096   45.4458 H   0  0  0  0  0  0  0  0  0  0  0  0
   59.2420   35.7021   45.1320 H   0  0  0  0  0  0  0  0  0  0  0  0
   59.3506   34.4103   43.8460 H   0  0  0  0  0  0  0  0  0  0  0  0
   57.0173   35.4139   45.1410 H   0  0  0  0  0  0  0  0  0  0  0  0
   57.1897   34.0438   43.9425 H   0  0  0  0  0  0  0  0  0  0  0  0
   55.9563   33.5093   46.1202 H   0  0  0  0  0  0  0  0  0  0  0  0
   57.3191   32.4220   45.6424 H   0  0  0  0  0  0  0  0  0  0  0  0
   57.3645   34.6455   47.7407 H   0  0  0  0  0  0  0  0  0  0  0  0
   57.5164   32.8611   48.0043 H   0  0  0  0  0  0  0  0  0  0  0  0
   58.5028   24.8750   47.6312 H   0  0  0  0  0  0  0  0  0  0  0  0
  1  2  1  0
  2  3  1  0
  3  4  2  0
  4  5  1  0
  5  6  2  0
  6  7  1  0
  7  8  1  0
  8  9  1  0
  9 10  1  0
 10 11  2  0
 11 12  1  0
 12 13  2  0
 13 14  1  0
 14 15  2  0
 15 16  1  0
 16 17  2  0
 16 18  1  0
 18 19  1  0
 19 20  1  0
 20 21  2  0
 20 22  1  0
 22 23  1  0
 23 24  2  0
 24 25  1  0
 25 26  2  0
 26 27  1  0
 27 28  2  0
 28 29  1  0
 29 30  2  0
 29 31  1  0
 31 32  1  0
 32 33  1  0
 33 34  1  0
 34 35  1  0
 35 36  1  0
  7 37  2  0
 37  3  1  0
 15 10  1  0
 28 23  1  0
 36 31  1  0
  1 38  1  0
  1 39  1  0
  1 40  1  0
  4 41  1  0
  5 42  1  0
  6 43  1  0
  8 44  1  0
  8 45  1  0
 11 46  1  0
 12 47  1  0
 13 48  1  0
 14 49  1  0
 18 50  1  0
 19 51  1  0
 19 52  1  0
 24 53  1  0
 25 54  1  0
 26 55  1  0
 27 56  1  0
 32 57  1  0
 32 58  1  0
 33 59  1  0
 33 60  1  0
 34 61  1  0
 34 62  1  0
 35 63  1  0
 35 64  1  0
 36 65  1  0
 36 66  1  0
 37 67  1  0
M  CHG  1  22  -1
M  END
>  <UniqueID>  (53) 
50

>  <SMILES>  (53) 
COc1cccc(COc2ccccc2C(=O)NCC(=O)[N-]c2ccccc2C(=O)N2CCCCC2)c1

>  <Energy>  (53) 
83.97194119271937

>  <Genealogy>  (53) 
COc1cccc(COc2ccccc2C(=O)NCC(=O)[N-]c2ccccc2C(=O)N2CCCCC2)c1 (protonated)
COc1cccc(COc2ccccc2C(=O)NCC(=O)[N-]c2ccccc2C(=O)N2CCCCC2)c1 (3D coordinates assigned)
COc1cccc(COc2ccccc2C(=O)NCC(=O)[N-]c2ccccc2C(=O)N2CCCCC2)c1 (nonaromatic ring conformer: 83.97194119271937 kcal/mol)

>  <smiles>  (53) 
COc1cccc(COc2ccccc2C(=O)NCC(=O)Nc2ccccc2C(=O)N2CCCCC2)c1

>  <score_type>  (53) 
oracle

>  <origin>  (53) 
adg

>  <m_score__min__energy>  (53) 
-11.35

>  <m_primary>  (53) 
energy

$$$$
53:0
     RDKit          3D

 40 42  0  0  0  0  0  0  0  0999 V2000
   57.2720   23.7120   46.1690 C   0  0  0  0  0  0  0  0  0  0  0  0
   56.1640   24.4570   46.1210 C   0  0  0  0  0  0  0  0  0  0  0  0
   54.9950   23.9510   45.6850 N   0  0  0  0  0  0  0  0  0  0  0  0
   54.1860   25.0260   45.6200 C   0  0  0  0  0  0  0  0  0  0  0  0
   52.9890   24.9540   45.2390 O   0  0  0  0  0  0  0  0  0  0  0  0
   54.7630   26.1840   45.9900 N   0  0  0  0  0  0  0  0  0  0  0  0
   56.0170   25.8310   46.3380 C   0  0  0  0  0  0  0  0  0  0  0  0
   56.8870   26.7380   46.8160 C   0  0  0  0  0  0  0  0  0  0  0  0
   57.6890   27.6680   46.0050 C   0  0  0  0  0  0  0  0  0  0  0  0
   59.0340   27.7770   46.0710 N   0  0  0  0  0  0  0  0  0  0  0  0
   59.3090   28.8120   45.2490 C   0  0  0  0  0  0  0  0  0  0  0  0
   60.4840   29.2050   45.0190 O   0  0  0  0  0  0  0  0  0  0  0  0
   58.2140   29.3800   44.7010 N   0  0  0  0  0  0  0  0  0  0  0  0
   58.1720   30.4560   43.7100 C   0  0  0  0  0  0  0  0  0  0  0  0
   57.4320   31.9180   44.4180 S   0  0  0  0  0  0  0  0  0  0  0  0
   57.3900   33.0140   43.3890 O   0  0  0  0  0  0  0  0  0  0  0  0
   56.0250   31.6100   44.8470 O   0  0  0  0  0  0  0  0  0  0  0  0
   58.3710   32.4460   45.8110 C   0  0  0  0  0  0  0  0  0  0  0  0
   58.5300   31.5960   46.9130 C   0  0  0  0  0  0  0  0  0  0  0  0
   59.3110   31.9920   48.0020 C   0  0  0  0  0  0  0  0  0  0  0  0
   59.9490   33.2480   47.9990 C   0  0  0  0  0  0  0  0  0  0  0  0
   60.7460   33.6900   49.0640 O   0  0  0  0  0  0  0  0  0  0  0  0
   62.1600   33.8400   49.0010 C   0  0  0  0  0  0  0  0  0  0  0  0
   59.7890   34.0910   46.8920 C   0  0  0  0  0  0  0  0  0  0  0  0
   59.0100   33.6930   45.8030 C   0  0  0  0  0  0  0  0  0  0  0  0
   57.1890   28.6560   45.1880 C   0  0  0  0  0  0  0  0  0  0  0  0
   55.8410   28.8710   44.9050 O   0  0  0  0  0  0  0  0  0  0  0  0
   58.2143   24.1503   46.5295 H   0  0  0  0  0  0  0  0  0  0  0  0
   57.2420   22.6603   45.8480 H   0  0  0  0  0  0  0  0  0  0  0  0
   57.0099   26.7893   47.9079 H   0  0  0  0  0  0  0  0  0  0  0  0
   59.1961   30.6891   43.3832 H   0  0  0  0  0  0  0  0  0  0  0  0
   57.5686   30.1288   42.8504 H   0  0  0  0  0  0  0  0  0  0  0  0
   58.0378   30.6123   46.9212 H   0  0  0  0  0  0  0  0  0  0  0  0
   59.4281   31.3202   48.8651 H   0  0  0  0  0  0  0  0  0  0  0  0
   62.5699   33.8835   50.0208 H   0  0  0  0  0  0  0  0  0  0  0  0
   62.5962   32.9831   48.4667 H   0  0  0  0  0  0  0  0  0  0  0  0
   62.4067   34.7694   48.4667 H   0  0  0  0  0  0  0  0  0  0  0  0
   60.2810   35.0748   46.8801 H   0  0  0  0  0  0  0  0  0  0  0  0
   58.8978   34.3608   44.9362 H   0  0  0  0  0  0  0  0  0  0  0  0
   55.1590   28.1270   44.9670 H   0  0  0  0  0  0  0  0  0  0  0  0
  1  2  2  0
  2  3  1  0
  3  4  1  0
  4  5  2  0
  4  6  1  0
  6  7  1  0
  7  8  2  3
  8  9  1  0
  9 10  1  0
 10 11  1  0
 11 12  2  0
 11 13  1  0
 13 14  1  0
 14 15  1  0
 15 16  2  0
 15 17  2  0
 15 18  1  0
 18 19  2  0
 19 20  1  0
 20 21  2  0
 21 22  1  0
 22 23  1  0
 21 24  1  0
 24 25  2  0
 13 26  1  0
 26 27  1  0
  7  2  1  0
 26  9  2  0
 25 18  1  0
  1 28  1  0
  1 29  1  0
  8 30  1  0
 14 31  1  0
 14 32  1  0
 19 33  1  0
 20 34  1  0
 23 35  1  0
 23 36  1  0
 23 37  1  0
 24 38  1  0
 25 39  1  0
 27 40  1  0
M  CHG  3   3  -1   6  -1  10  -1
M  END
>  <UniqueID>  (54) 
51

>  <SMILES>  (54) 
C=c1[n-]c(=O)[n-]c1=Cc1[n-]c(=O)n(CS(=O)(=O)c2ccc(OC)cc2)c1O

>  <Energy>  (54) 
107.46787151067728

>  <Genealogy>  (54) 
C=c1[n-]c(=O)[n-]c1=Cc1[n-]c(=O)n(CS(=O)(=O)c2ccc(OC)cc2)c1O (protonated)
C=c1[n-]c(=O)[n-]c1=Cc1[n-]c(=O)n(CS(=O)(=O)c2ccc(OC)cc2)c1O (3D coordinates assigned)
C=c1[n-]c(=O)[n-]c1=Cc1[n-]c(=O)n(CS(=O)(=O)c2ccc(OC)cc2)c1O (optimized conformer: 107.46787151067728 kcal/mol)

>  <smiles>  (54) 
C=c1[nH]c(=O)[nH]c1=Cc1[nH]c(=O)n(CS(=O)(=O)c2ccc(OC)cc2)c1O

>  <score_type>  (54) 
oracle

>  <origin>  (54) 
adg

>  <m_score__min__energy>  (54) 
-13.470000000000001

>  <m_primary>  (54) 
energy

$$$$
54:0
     RDKit          3D

 31 32  0  0  0  0  0  0  0  0999 V2000
   57.6580   34.2000   45.7150 C   0  0  0  0  0  0  0  0  0  0  0  0
   57.9410   32.8410   45.1680 C   0  0  0  0  0  0  0  0  0  0  0  0
   57.7610   32.6080   43.8000 C   0  0  0  0  0  0  0  0  0  0  0  0
   58.0220   31.3530   43.2920 C   0  0  0  0  0  0  0  0  0  0  0  0
   58.4520   30.3580   44.1390 C   0  0  0  0  0  0  0  0  0  0  0  0
   58.6390   30.5710   45.5090 C   0  0  0  0  0  0  0  0  0  0  0  0
   59.1120   29.4180   46.2900 C   0  0  0  0  0  0  0  0  0  0  0  0
   58.2110   28.2550   46.3090 C   0  0  0  0  0  0  0  0  0  0  0  0
   58.5230   27.0240   46.8410 C   0  0  0  0  0  0  0  0  0  0  0  0
   57.6120   25.9900   46.8040 C   0  0  0  0  0  0  0  0  0  0  0  0
   57.8920   24.8540   47.2930 O   0  0  0  0  0  0  0  0  0  0  0  0
   56.3920   26.2560   46.2120 C   0  0  0  0  0  0  0  0  0  0  0  0
   55.5510   25.3070   46.1750 O   0  0  0  0  0  0  0  0  0  0  0  0
   56.0900   27.4510   45.6940 N   0  0  0  0  0  0  0  0  0  0  0  0
   56.9810   28.4360   45.7400 N   0  0  0  0  0  0  0  0  0  0  0  0
   58.3780   31.8220   46.0130 C   0  0  0  0  0  0  0  0  0  0  0  0
   58.5580   32.0780   47.4500 C   0  0  0  0  0  0  0  0  0  0  0  0
   57.6660   34.1617   46.8143 H   0  0  0  0  0  0  0  0  0  0  0  0
   58.4290   34.9032   45.3670 H   0  0  0  0  0  0  0  0  0  0  0  0
   56.6704   34.5370   45.3670 H   0  0  0  0  0  0  0  0  0  0  0  0
   57.4156   33.4159   43.1382 H   0  0  0  0  0  0  0  0  0  0  0  0
   57.8876   31.1493   42.2194 H   0  0  0  0  0  0  0  0  0  0  0  0
   58.6560   29.3597   43.7245 H   0  0  0  0  0  0  0  0  0  0  0  0
   60.0748   29.0943   45.8677 H   0  0  0  0  0  0  0  0  0  0  0  0
   59.1798   29.7653   47.3315 H   0  0  0  0  0  0  0  0  0  0  0  0
   59.5096   26.8639   47.3004 H   0  0  0  0  0  0  0  0  0  0  0  0
   55.1500   27.6260   45.2480 H   0  0  0  0  0  0  0  0  0  0  0  0
   56.7200   29.3750   45.3240 H   0  0  0  0  0  0  0  0  0  0  0  0
   58.0200   31.3129   48.0289 H   0  0  0  0  0  0  0  0  0  0  0  0
   59.6290   32.0397   47.6979 H   0  0  0  0  0  0  0  0  0  0  0  0
   58.1596   33.0729   47.6979 H   0  0  0  0  0  0  0  0  0  0  0  0
  1  2  1  0
  2  3  2  0
  3  4  1  0
  4  5  2  0
  5  6  1  0
  6  7  1  0
  7  8  1  0
  8  9  2  0
  9 10  1  0
 10 11  2  0
 10 12  1  0
 12 13  2  0
 12 14  1  0
 14 15  1  0
  6 16  2  0
 16 17  1  0
 16  2  1  0
 15  8  1  0
  1 18  1  0
  1 19  1  0
  1 20  1  0
  3 21  1  0
  4 22  1  0
  5 23  1  0
  7 24  1  0
  7 25  1  0
  9 26  1  0
 14 27  1  0
 15 28  1  0
 17 29  1  0
 17 30  1  0
 17 31  1  0
M  END
>  <smiles>  (55) 
Cc1cccc(Cc2cc(=O)c(=O)[nH][nH]2)c1C

>  <score_type>  (55) 
oracle

>  <origin>  (55) 
adg

>  <m_score__min__energy>  (55) 
-6.8300000000000001

>  <m_primary>  (55) 
energy

$$$$
55:0
     RDKit          3D

 53 56  0  0  0  0  0  0  0  0999 V2000
   60.7640   32.5730   49.9150 O   0  0  0  0  0  0  0  0  0  0  0  0
   61.1730   31.9460   48.8970 C   0  0  0  0  0  0  0  0  0  0  0  0
   61.4190   32.6440   47.6650 N   0  0  0  0  0  0  0  0  0  0  0  0
   60.9640   34.0130   47.4290 C   0  0  0  0  0  0  0  0  0  0  0  0
   59.6250   33.9890   46.7460 C   0  0  0  0  0  0  0  0  0  0  0  0
   58.5150   33.4140   47.3870 C   0  0  0  0  0  0  0  0  0  0  0  0
   57.2630   33.4200   46.7670 C   0  0  0  0  0  0  0  0  0  0  0  0
   57.1090   34.0110   45.5080 C   0  0  0  0  0  0  0  0  0  0  0  0
   58.2050   34.6030   44.8720 C   0  0  0  0  0  0  0  0  0  0  0  0
   59.4590   34.5970   45.4900 C   0  0  0  0  0  0  0  0  0  0  0  0
   61.4430   30.4620   48.9720 C   0  0  1  0  0  0  0  0  0  0  0  0
   61.6000   29.9930   50.4180 C   0  0  0  0  0  0  0  0  0  0  0  0
   60.9240   28.6290   50.4750 C   0  0  0  0  0  0  0  0  0  0  0  0
   59.9070   28.6340   49.3420 C   0  0  0  0  0  0  0  0  0  0  0  0
   60.3430   29.6760   48.4220 N   0  0  0  0  0  0  0  0  0  0  0  0
   59.9980   29.7020   47.0200 C   0  0  0  0  0  0  0  0  0  0  0  0
   60.7190   30.3600   46.2180 O   0  0  0  0  0  0  0  0  0  0  0  0
   58.8240   28.9870   46.4810 C   0  0  0  0  0  0  0  0  0  0  0  0
   57.5790   29.5150   46.1790 C   0  0  0  0  0  0  0  0  0  0  0  0
   56.8560   28.4740   45.6390 C   0  0  0  0  0  0  0  0  0  0  0  0
   55.5310   28.5690   45.2290 O   0  0  0  0  0  0  0  0  0  0  0  0
   57.5960   27.3450   45.5780 N   0  0  0  0  0  0  0  0  0  0  0  0
   57.1890   26.0540   45.0830 C   0  0  0  0  0  0  0  0  0  0  0  0
   56.3380   25.2400   45.8510 C   0  0  0  0  0  0  0  0  0  0  0  0
   55.9520   23.9780   45.3860 C   0  0  0  0  0  0  0  0  0  0  0  0
   56.4150   23.5020   44.1480 C   0  0  0  0  0  0  0  0  0  0  0  0
   56.0240   22.2010   43.6670 N   0  0  0  0  0  0  0  0  0  0  0  0
   55.8630   21.2500   44.4640 O   0  0  0  0  0  0  0  0  0  0  0  0
   55.8970   21.9630   42.3160 O   0  0  0  0  0  0  0  0  0  0  0  0
   57.2730   24.3140   43.3850 C   0  0  0  0  0  0  0  0  0  0  0  0
   57.6570   25.5760   43.8500 C   0  0  0  0  0  0  0  0  0  0  0  0
   58.8030   27.6560   46.0940 C   0  0  0  0  0  0  0  0  0  0  0  0
   61.8170   32.1110   46.8540 H   0  0  0  0  0  0  0  0  0  0  0  0
   60.8751   34.5400   48.3904 H   0  0  0  0  0  0  0  0  0  0  0  0
   61.6911   34.5343   46.7890 H   0  0  0  0  0  0  0  0  0  0  0  0
   58.6321   32.9573   48.3808 H   0  0  0  0  0  0  0  0  0  0  0  0
   56.3986   32.9603   47.2684 H   0  0  0  0  0  0  0  0  0  0  0  0
   56.1243   34.0100   45.0177 H   0  0  0  0  0  0  0  0  0  0  0  0
   58.0803   35.0733   43.8855 H   0  0  0  0  0  0  0  0  0  0  0  0
   60.3182   35.0696   44.9916 H   0  0  0  0  0  0  0  0  0  0  0  0
   62.3662   30.3093   48.3937 H   0  0  0  0  0  0  0  0  0  0  0  0
   62.6645   29.9066   50.6814 H   0  0  0  0  0  0  0  0  0  0  0  0
   61.1521   30.7022   51.1296 H   0  0  0  0  0  0  0  0  0  0  0  0
   61.6621   27.8271   50.3260 H   0  0  0  0  0  0  0  0  0  0  0  0
   60.4487   28.4485   51.4505 H   0  0  0  0  0  0  0  0  0  0  0  0
   59.8927   27.6575   48.8358 H   0  0  0  0  0  0  0  0  0  0  0  0
   58.8886   28.8216   49.7129 H   0  0  0  0  0  0  0  0  0  0  0  0
   57.2390   30.5491   46.3373 H   0  0  0  0  0  0  0  0  0  0  0  0
   55.9728   25.5980   46.8249 H   0  0  0  0  0  0  0  0  0  0  0  0
   55.2809   23.3539   45.9944 H   0  0  0  0  0  0  0  0  0  0  0  0
   57.6451   23.9537   42.4146 H   0  0  0  0  0  0  0  0  0  0  0  0
   58.3315   26.1987   43.2439 H   0  0  0  0  0  0  0  0  0  0  0  0
   59.6462   26.9566   46.1931 H   0  0  0  0  0  0  0  0  0  0  0  0
  1  2  2  0
  2  3  1  0
  3  4  1  0
  4  5  1  0
  5  6  2  0
  6  7  1  0
  7  8  2  0
  8  9  1  0
  9 10  2  0
  2 11  1  0
 11 12  1  0
 12 13  1  0
 13 14  1  0
 14 15  1  0
 15 16  1  0
 16 17  2  0
 16 18  1  0
 18 19  1  0
 19 20  2  0
 20 21  1  0
 20 22  1  0
 22 23  1  0
 23 24  2  0
 24 25  1  0
 25 26  2  0
 26 27  1  0
 27 28  2  0
 27 29  1  0
 26 30  1  0
 30 31  2  0
 22 32  1  0
 10  5  1  0
 15 11  1  0
 32 18  2  0
 31 23  1  0
  3 33  1  0
  4 34  1  0
  4 35  1  0
  6 36  1  0
  7 37  1  0
  8 38  1  0
  9 39  1  0
 10 40  1  0
 11 41  1  6
 12 42  1  0
 12 43  1  0
 13 44  1  0
 13 45  1  0
 14 46  1  0
 14 47  1  0
 19 48  1  0
 24 49  1  0
 25 50  1  0
 30 51  1  0
 31 52  1  0
 32 53  1  0
M  CHG  3  21  -1  27   1  29  -1
M  END
>  <UniqueID>  (56) 
52

>  <SMILES>  (56) 
O=C(NCc1ccccc1)[C@H]1CCCN1C(=O)c1cc([O-])n(-c2ccc([N+](=O)[O-])cc2)c1

>  <Energy>  (56) 
90.55701698248706

>  <Genealogy>  (56) 
O=C(NCc1ccccc1)C1CCCN1C(=O)c1cc([O-])n(-c2ccc([N+](=O)[O-])cc2)c1 (protonated)
O=C(NCc1ccccc1)[C@H]1CCCN1C(=O)c1cc([O-])n(-c2ccc([N+](=O)[O-])cc2)c1 (chirality)
O=C(NCc1ccccc1)[C@H]1CCCN1C(=O)c1cc([O-])n(-c2ccc([N+](=O)[O-])cc2)c1 (3D coordinates assigned)
O=C(NCc1ccccc1)[C@H]1CCCN1C(=O)c1cc([O-])n(-c2ccc([N+](=O)[O-])cc2)c1 (nonaromatic ring conformer: 90.55701698248706 kcal/mol)

>  <smiles>  (56) 
O=C(NCc1ccccc1)C1CCCN1C(=O)c1cc(O)n(-c2ccc([N+](=O)[O-])cc2)c1

>  <score_type>  (56) 
oracle

>  <origin>  (56) 
adg

>  <m_score__min__energy>  (56) 
-12.050000000000001

>  <m_primary>  (56) 
energy

$$$$
56:0
     RDKit          3D

 53 56  0  0  0  0  0  0  0  0999 V2000
   58.8900   35.8330   54.8760 C   0  0  0  0  0  0  0  0  0  0  0  0
   60.0020   34.9060   54.4850 C   0  0  0  0  0  0  0  0  0  0  0  0
   61.0620   34.9140   55.1680 O   0  0  0  0  0  0  0  0  0  0  0  0
   59.8660   33.9980   53.3700 N   0  0  0  0  0  0  0  0  0  0  0  0
   58.5350   33.7330   52.7970 C   0  0  0  0  0  0  0  0  0  0  0  0
   58.5680   32.5600   51.8170 C   0  0  0  0  0  0  0  0  0  0  0  0
   59.6750   32.7420   50.8720 N   0  0  0  0  0  0  0  0  0  0  0  0
   59.4490   32.6570   49.4520 C   0  0  0  0  0  0  0  0  0  0  0  0
   59.2480   33.8210   48.6920 C   0  0  0  0  0  0  0  0  0  0  0  0
   59.0110   33.7350   47.3170 C   0  0  0  0  0  0  0  0  0  0  0  0
   58.9520   32.4880   46.6860 C   0  0  0  0  0  0  0  0  0  0  0  0
   58.6280   32.4250   45.2920 N   0  0  0  0  0  0  0  0  0  0  0  0
   57.4010   31.8860   44.7880 C   0  0  0  0  0  0  0  0  0  0  0  0
   56.3020   32.3800   45.1730 O   0  0  0  0  0  0  0  0  0  0  0  0
   57.4070   30.6750   43.8900 C   0  0  0  0  0  0  0  0  0  0  0  0
   57.5110   29.4410   44.6730 N   0  0  0  0  0  0  0  0  0  0  0  0
   58.6430   28.7690   44.9810 C   0  0  0  0  0  0  0  0  0  0  0  0
   59.9240   29.2150   44.6770 O   0  0  0  0  0  0  0  0  0  0  0  0
   58.3400   27.5690   45.5890 C   0  0  0  0  0  0  0  0  0  0  0  0
   56.9710   27.4960   45.6540 C   0  0  0  0  0  0  0  0  0  0  0  0
   56.4880   28.6570   45.0820 C   0  0  0  0  0  0  0  0  0  0  0  0
   55.1440   28.9650   44.8970 O   0  0  0  0  0  0  0  0  0  0  0  0
   56.2140   26.2990   46.1280 C   0  0  0  0  0  0  0  0  0  0  0  0
   57.1430   25.1990   46.5980 C   0  0  0  0  0  0  0  0  0  0  0  0
   58.4920   25.2720   46.5390 C   0  0  0  0  0  0  0  0  0  0  0  0
   59.2590   26.4660   46.0020 C   0  0  0  0  0  0  0  0  0  0  0  0
   59.1880   31.3250   47.4360 C   0  0  0  0  0  0  0  0  0  0  0  0
   59.4230   31.4080   48.8100 C   0  0  0  0  0  0  0  0  0  0  0  0
   61.0150   33.0780   51.3780 C   0  0  0  0  0  0  0  0  0  0  0  0
   61.0310   33.2220   52.9060 C   0  0  0  0  0  0  0  0  0  0  0  0
   58.8258   35.8865   55.9728 H   0  0  0  0  0  0  0  0  0  0  0  0
   59.0894   36.8361   54.4710 H   0  0  0  0  0  0  0  0  0  0  0  0
   57.9391   35.4564   54.4710 H   0  0  0  0  0  0  0  0  0  0  0  0
   57.8356   33.4973   53.6127 H   0  0  0  0  0  0  0  0  0  0  0  0
   58.2112   34.6302   52.2492 H   0  0  0  0  0  0  0  0  0  0  0  0
   58.7114   31.6218   52.3731 H   0  0  0  0  0  0  0  0  0  0  0  0
   57.6179   32.5177   51.2643 H   0  0  0  0  0  0  0  0  0  0  0  0
   59.2772   34.8057   49.1815 H   0  0  0  0  0  0  0  0  0  0  0  0
   58.8701   34.6532   46.7279 H   0  0  0  0  0  0  0  0  0  0  0  0
   56.4738   30.6541   43.3080 H   0  0  0  0  0  0  0  0  0  0  0  0
   58.2774   30.7396   43.2205 H   0  0  0  0  0  0  0  0  0  0  0  0
   55.5627   26.5967   46.9630 H   0  0  0  0  0  0  0  0  0  0  0  0
   55.6223   25.9116   45.2855 H   0  0  0  0  0  0  0  0  0  0  0  0
   56.6929   24.2849   47.0126 H   0  0  0  0  0  0  0  0  0  0  0  0
   59.0705   24.4104   46.9038 H   0  0  0  0  0  0  0  0  0  0  0  0
   59.9343   26.8387   46.7863 H   0  0  0  0  0  0  0  0  0  0  0  0
   59.8262   26.1411   45.1173 H   0  0  0  0  0  0  0  0  0  0  0  0
   59.1878   30.3437   46.9390 H   0  0  0  0  0  0  0  0  0  0  0  0
   59.5887   30.4900   49.3929 H   0  0  0  0  0  0  0  0  0  0  0  0
   61.7146   32.2800   51.0888 H   0  0  0  0  0  0  0  0  0  0  0  0
   61.3117   34.0432   50.9418 H   0  0  0  0  0  0  0  0  0  0  0  0
   61.0035   32.2218   53.3630 H   0  0  0  0  0  0  0  0  0  0  0  0
   61.9485   33.7521   53.2011 H   0  0  0  0  0  0  0  0  0  0  0  0
  1  2  1  0
  2  3  2  0
  2  4  1  0
  4  5  1  0
  5  6  1  0
  6  7  1  0
  7  8  1  0
  8  9  2  0
  9 10  1  0
 10 11  2  0
 11 12  1  0
 12 13  1  0
 13 14  2  0
 13 15  1  0
 15 16  1  0
 16 17  1  0
 17 18  1  0
 17 19  2  0
 19 20  1  0
 20 21  2  0
 21 22  1  0
 20 23  1  0
 23 24  1  0
 24 25  2  0
 25 26  1  0
 11 27  1  0
 27 28  2  0
  7 29  1  0
 29 30  1  0
 30  4  1  0
 28  8  1  0
 21 16  1  0
 26 19  1  0
  1 31  1  0
  1 32  1  0
  1 33  1  0
  5 34  1  0
  5 35  1  0
  6 36  1  0
  6 37  1  0
  9 38  1  0
 10 39  1  0
 15 40  1  0
 15 41  1  0
 23 42  1  0
 23 43  1  0
 24 44  1  0
 25 45  1  0
 26 46  1  0
 26 47  1  0
 27 48  1  0
 28 49  1  0
 29 50  1  0
 29 51  1  0
 30 52  1  0
 30 53  1  0
M  CHG  3  12  -1  18  -1  22  -1
M  END
>  <UniqueID>  (57) 
53

>  <SMILES>  (57) 
CC(=O)N1CCN(c2ccc([N-]C(=O)Cn3c([O-])c4c(c3[O-])CC=CC4)cc2)CC1

>  <Energy>  (57) 
93.91967644378425

>  <Genealogy>  (57) 
CC(=O)N1CCN(c2ccc([N-]C(=O)Cn3c([O-])c4c(c3[O-])CC=CC4)cc2)CC1 (protonated)
CC(=O)N1CCN(c2ccc([N-]C(=O)Cn3c([O-])c4c(c3[O-])CC=CC4)cc2)CC1 (3D coordinates assigned)
CC(=O)N1CCN(c2ccc([N-]C(=O)Cn3c([O-])c4c(c3[O-])CC=CC4)cc2)CC1 (nonaromatic ring conformer: 93.91967644378425 kcal/mol)

>  <smiles>  (57) 
CC(=O)N1CCN(c2ccc(NC(=O)Cn3c(O)c4c(c3O)CC=CC4)cc2)CC1

>  <score_type>  (57) 
oracle

>  <origin>  (57) 
adg

>  <m_score__min__energy>  (57) 
-14.970000000000001

>  <m_primary>  (57) 
energy

$$$$
57:0
     RDKit          3D

 52 55  0  0  0  0  0  0  0  0999 V2000
   51.3150   33.4070   52.9670 H   0  0  0  0  0  0  0  0  0  0  0  0
   51.0100   33.3440   52.0030 O   0  0  0  0  0  0  0  0  0  0  0  0
   51.3230   32.2310   51.2310 C   0  0  0  0  0  0  0  0  0  0  0  0
   50.8870   32.0430   49.9740 N   0  0  0  0  0  0  0  0  0  0  0  0
   51.3930   30.8300   49.6640 C   0  0  0  0  0  0  0  0  0  0  0  0
   51.2000   30.2800   48.5490 O   0  0  0  0  0  0  0  0  0  0  0  0
   52.1130   30.2470   50.6480 N   0  0  0  0  0  0  0  0  0  0  0  0
   52.0890   31.1590   51.6340 C   0  0  0  0  0  0  0  0  0  0  0  0
   52.6440   30.9230   52.9740 C   0  0  0  0  0  0  0  0  0  0  0  0
   51.9616   31.0481   53.8276 H   0  0  0  0  0  0  0  0  0  0  0  0
   53.9140   30.5670   53.2510 C   0  0  0  0  0  0  0  0  0  0  0  0
   54.9190   30.5950   52.3020 C   0  0  0  0  0  0  0  0  0  0  0  0
   54.8300   30.9515   51.2652 H   0  0  0  0  0  0  0  0  0  0  0  0
   56.0550   30.0910   52.9020 C   0  0  0  0  0  0  0  0  0  0  0  0
   57.3300   29.8560   52.1910 C   0  0  0  0  0  0  0  0  0  0  0  0
   57.8980   28.7380   52.3100 O   0  0  0  0  0  0  0  0  0  0  0  0
   57.9110   30.8690   51.3450 N   0  0  0  0  0  0  0  0  0  0  0  0
   57.6970   32.2920   51.6550 C   0  0  0  0  0  0  0  0  0  0  0  0
   56.7101   32.5952   51.2755 H   0  0  0  0  0  0  0  0  0  0  0  0
   57.7550   32.4180   52.7462 H   0  0  0  0  0  0  0  0  0  0  0  0
   58.7690   33.1780   51.0140 C   0  0  0  0  0  0  0  0  0  0  0  0
   58.4758   34.2332   51.1168 H   0  0  0  0  0  0  0  0  0  0  0  0
   59.7284   33.0004   51.5219 H   0  0  0  0  0  0  0  0  0  0  0  0
   58.9180   32.8540   49.5890 N   0  0  0  0  0  0  0  0  0  0  0  0
   59.3850   33.8720   48.6820 C   0  0  0  0  0  0  0  0  0  0  0  0
   60.1160   34.8040   49.1180 O   0  0  0  0  0  0  0  0  0  0  0  0
   59.0250   33.8510   47.2470 C   0  0  0  0  0  0  0  0  0  0  0  0
   57.7180   33.5130   46.8520 C   0  0  0  0  0  0  0  0  0  0  0  0
   56.9674   33.2511   47.6122 H   0  0  0  0  0  0  0  0  0  0  0  0
   57.3680   33.5080   45.5000 C   0  0  0  0  0  0  0  0  0  0  0  0
   56.3457   33.2357   45.1990 H   0  0  0  0  0  0  0  0  0  0  0  0
   58.3130   33.8480   44.5290 C   0  0  0  0  0  0  0  0  0  0  0  0
   58.0365   33.8387   43.4643 H   0  0  0  0  0  0  0  0  0  0  0  0
   59.6100   34.2000   44.9120 C   0  0  0  0  0  0  0  0  0  0  0  0
   60.3523   34.4719   44.1471 H   0  0  0  0  0  0  0  0  0  0  0  0
   59.9680   34.2080   46.2640 C   0  0  0  0  0  0  0  0  0  0  0  0
   61.2380   34.5400   46.6090 F   0  0  0  0  0  0  0  0  0  0  0  0
   58.8450   31.4560   49.1380 C   0  0  0  0  0  0  0  0  0  0  0  0
   57.9055   31.3079   48.5853 H   0  0  0  0  0  0  0  0  0  0  0  0
   59.7150   31.2563   48.4951 H   0  0  0  0  0  0  0  0  0  0  0  0
   58.8870   30.4790   50.3180 C   0  0  0  0  0  0  0  0  0  0  0  0
   58.6492   29.4670   49.9585 H   0  0  0  0  0  0  0  0  0  0  0  0
   59.8943   30.4980   50.7595 H   0  0  0  0  0  0  0  0  0  0  0  0
   55.8080   29.7860   54.1980 N   0  0  0  0  0  0  0  0  0  0  0  0
   56.7830   29.3000   55.1840 C   0  0  0  0  0  0  0  0  0  0  0  0
   56.4035   29.4892   56.1990 H   0  0  0  0  0  0  0  0  0  0  0  0
   56.9371   28.2197   55.0456 H   0  0  0  0  0  0  0  0  0  0  0  0
   57.7384   29.8273   55.0456 H   0  0  0  0  0  0  0  0  0  0  0  0
   54.5040   30.0920   54.4340 C   0  0  0  0  0  0  0  0  0  0  0  0
   53.9470   30.0430   55.6540 C   0  0  0  0  0  0  0  0  0  0  0  0
   54.5199   29.6452   56.5046 H   0  0  0  0  0  0  0  0  0  0  0  0
   52.9175   30.4006   55.8034 H   0  0  0  0  0  0  0  0  0  0  0  0
  1  2  1  0
  2  3  1  0
  3  4  1  0
  4  5  1  0
  5  6  2  0
  5  7  1  0
  7  8  1  0
  8  9  1  0
  9 10  1  0
  9 11  2  0
 11 12  1  0
 12 13  1  0
 12 14  2  0
 14 15  1  0
 15 16  2  0
 15 17  1  0
 17 18  1  0
 18 19  1  0
 18 20  1  0
 18 21  1  0
 21 22  1  0
 21 23  1  0
 21 24  1  0
 24 25  1  0
 25 26  2  0
 25 27  1  0
 27 28  2  0
 28 29  1  0
 28 30  1  0
 30 31  1  0
 30 32  2  0
 32 33  1  0
 32 34  1  0
 34 35  1  0
 34 36  2  0
 36 37  1  0
 24 38  1  0
 38 39  1  0
 38 40  1  0
 38 41  1  0
 41 42  1  0
 41 43  1  0
 14 44  1  0
 44 45  1  0
 45 46  1  0
 45 47  1  0
 45 48  1  0
 44 49  1  0
 49 50  2  0
 50 51  1  0
 50 52  1  0
  8  3  2  0
 49 11  1  0
 41 17  1  0
 36 27  1  0
M  CHG  2   4  -1   7  -1
M  END
>  <UniqueID>  (58) 
54

>  <SMILES>  (58) 
C=c1/c(=C\c2[n-]c(=O)[n-]c2O)cc(C(=O)N2CCN(C(=O)c3ccccc3F)CC2)n1C

>  <Energy>  (58) 
135.47624234601903

>  <Genealogy>  (58) 
C=c1c(=Cc2[n-]c(=O)[n-]c2O)cc(C(=O)N2CCN(C(=O)c3ccccc3F)CC2)n1C (protonated)
C=c1/c(=C\c2[n-]c(=O)[n-]c2O)cc(C(=O)N2CCN(C(=O)c3ccccc3F)CC2)n1C (cis-trans isomerization)
C=c1/c(=C\c2[n-]c(=O)[n-]c2O)cc(C(=O)N2CCN(C(=O)c3ccccc3F)CC2)n1C (3D coordinates assigned)
C=c1/c(=C\c2[n-]c(=O)[n-]c2O)cc(C(=O)N2CCN(C(=O)c3ccccc3F)CC2)n1C (nonaromatic ring conformer: 135.47624234601903 kcal/mol)

>  <smiles>  (58) 
C=c1c(=Cc2[nH]c(=O)[nH]c2O)cc(C(=O)N2CCN(C(=O)c3ccccc3F)CC2)n1C

>  <score_type>  (58) 
oracle

>  <origin>  (58) 
adg

>  <m_score__min__energy>  (58) 
-14.35

>  <m_primary>  (58) 
energy

$$$$
58:0
     RDKit          3D

 53 57  0  0  0  0  0  0  0  0999 V2000
   65.1210   32.9400   46.7480 H   0  0  0  0  0  0  0  0  0  0  0  0
   64.5070   33.2660   47.4850 O   0  0  0  0  0  0  0  0  0  0  0  0
   63.6190   32.4050   48.1230 C   0  0  0  0  0  0  0  0  0  0  0  0
   63.7010   32.1900   49.5070 C   0  0  0  0  0  0  0  0  0  0  0  0
   64.4676   32.7104   50.0999 H   0  0  0  0  0  0  0  0  0  0  0  0
   62.8080   31.3140   50.1330 C   0  0  0  0  0  0  0  0  0  0  0  0
   62.8720   31.1492   51.2187 H   0  0  0  0  0  0  0  0  0  0  0  0
   61.8340   30.6470   49.3830 C   0  0  0  0  0  0  0  0  0  0  0  0
   61.1337   29.9597   49.8802 H   0  0  0  0  0  0  0  0  0  0  0  0
   61.7480   30.8530   47.9950 C   0  0  0  0  0  0  0  0  0  0  0  0
   60.7970   30.1550   47.1770 N   0  0  0  0  0  0  0  0  0  0  0  0
   59.6530   28.9800   47.7480 S   0  0  0  0  0  0  0  0  0  0  0  0
   60.3180   28.1180   48.7870 O   0  0  0  0  0  0  0  0  0  0  0  0
   58.4980   29.7100   48.3770 O   0  0  0  0  0  0  0  0  0  0  0  0
   59.0350   27.9990   46.4080 C   0  0  0  0  0  0  0  0  0  0  0  0
   59.0580   26.6040   46.5120 C   0  0  0  0  0  0  0  0  0  0  0  0
   59.4560   26.1335   47.4232 H   0  0  0  0  0  0  0  0  0  0  0  0
   58.5790   25.7970   45.4670 C   0  0  0  0  0  0  0  0  0  0  0  0
   58.5700   24.3970   45.5530 O   0  0  0  0  0  0  0  0  0  0  0  0
   57.6810   23.5650   44.8620 C   0  0  0  0  0  0  0  0  0  0  0  0
   58.1610   22.4610   44.1330 C   0  0  0  0  0  0  0  0  0  0  0  0
   59.2401   22.2506   44.0978 H   0  0  0  0  0  0  0  0  0  0  0  0
   57.2530   21.6230   43.4460 C   0  0  0  0  0  0  0  0  0  0  0  0
   57.6326   20.7734   42.8594 H   0  0  0  0  0  0  0  0  0  0  0  0
   55.9060   21.8590   43.5040 N   0  0  0  0  0  0  0  0  0  0  0  0
   55.4580   22.9190   44.2220 C   0  0  0  0  0  0  0  0  0  0  0  0
   54.1770   23.2740   44.4030 N   0  0  0  0  0  0  0  0  0  0  0  0
   54.3090   24.3620   45.2080 C   0  0  0  0  0  0  0  0  0  0  0  0
   53.3190   25.0200   45.6190 O   0  0  0  0  0  0  0  0  0  0  0  0
   55.5870   24.6930   45.5350 N   0  0  0  0  0  0  0  0  0  0  0  0
   56.2950   23.7560   44.8850 C   0  0  0  0  0  0  0  0  0  0  0  0
   58.0560   26.4010   44.3240 C   0  0  0  0  0  0  0  0  0  0  0  0
   57.6522   25.7779   43.5124 H   0  0  0  0  0  0  0  0  0  0  0  0
   58.0420   27.7890   44.2040 C   0  0  0  0  0  0  0  0  0  0  0  0
   57.6244   28.2539   43.2987 H   0  0  0  0  0  0  0  0  0  0  0  0
   58.5560   28.5990   45.2280 C   0  0  0  0  0  0  0  0  0  0  0  0
   58.5620   30.0290   45.0990 N   0  0  0  0  0  0  0  0  0  0  0  0
   57.4050   30.8770   45.1530 C   0  0  0  0  0  0  0  0  0  0  0  0
   56.3140   30.4450   44.7070 O   0  0  0  0  0  0  0  0  0  0  0  0
   57.4730   32.2310   45.6280 N   0  0  0  0  0  0  0  0  0  0  0  0
   58.3430   32.7570   46.4480 C   0  0  0  0  0  0  0  0  0  0  0  0
   59.3540   33.5030   45.9220 N   0  0  0  0  0  0  0  0  0  0  0  0
   60.3170   34.0750   46.6950 C   0  0  0  0  0  0  0  0  0  0  0  0
   61.1175   34.6682   46.2288 H   0  0  0  0  0  0  0  0  0  0  0  0
   60.2870   33.9070   48.0860 C   0  0  0  0  0  0  0  0  0  0  0  0
   61.3170   34.4830   48.9150 C   0  0  0  0  0  0  0  0  0  0  0  0
   62.1470   34.9400   49.5830 N   0  0  0  0  0  0  0  0  0  0  0  0
   59.2460   33.1770   48.6630 C   0  0  0  0  0  0  0  0  0  0  0  0
   59.2004   33.0505   49.7547 H   0  0  0  0  0  0  0  0  0  0  0  0
   58.2630   32.6080   47.8510 C   0  0  0  0  0  0  0  0  0  0  0  0
   57.4308   32.0468   48.3009 H   0  0  0  0  0  0  0  0  0  0  0  0
   62.6400   31.7400   47.3760 C   0  0  0  0  0  0  0  0  0  0  0  0
   62.5697   31.9150   46.2923 H   0  0  0  0  0  0  0  0  0  0  0  0
  1  2  1  0
  2  3  1  0
  3  4  2  0
  4  5  1  0
  4  6  1  0
  6  7  1  0
  6  8  2  0
  8  9  1  0
  8 10  1  0
 10 11  1  0
 11 12  1  0
 12 13  2  0
 12 14  2  0
 12 15  1  0
 15 16  2  0
 16 17  1  0
 16 18  1  0
 18 19  1  0
 19 20  1  0
 20 21  2  0
 21 22  1  0
 21 23  1  0
 23 24  1  0
 23 25  2  0
 25 26  1  0
 26 27  1  0
 27 28  1  0
 28 29  2  0
 28 30  1  0
 30 31  1  0
 18 32  2  0
 32 33  1  0
 32 34  1  0
 34 35  1  0
 34 36  2  0
 36 37  1  0
 37 38  1  0
 38 39  2  0
 38 40  1  0
 40 41  2  0
 41 42  1  0
 42 43  1  0
 43 44  1  0
 43 45  2  0
 45 46  1  0
 46 47  3  0
 45 48  1  0
 48 49  1  0
 48 50  2  0
 50 51  1  0
 10 52  2  0
 52 53  1  0
 52  3  1  0
 36 15  1  0
 50 41  1  0
 31 20  1  0
 31 26  2  0
M  CHG  5  11  -1  27  -1  30  -1  37  -1  42  -1
M  END
>  <UniqueID>  (59) 
55

>  <SMILES>  (59) 
N#Cc1cc/c(=N\C(=O)[N-]c2ccc(Oc3ccnc4[n-]c(=O)[n-]c34)cc2S(=O)(=O)[N-]c2cccc(O)c2)[n-]c1

>  <Energy>  (59) 
117.89320138828954

>  <Genealogy>  (59) 
N#Cc1ccc(=NC(=O)[N-]c2ccc(Oc3ccnc4[n-]c(=O)[n-]c34)cc2S(=O)(=O)[N-]c2cccc(O)c2)[n-]c1 (protonated)
N#Cc1cc/c(=N\C(=O)[N-]c2ccc(Oc3ccnc4[n-]c(=O)[n-]c34)cc2S(=O)(=O)[N-]c2cccc(O)c2)[n-]c1 (cis-trans isomerization)
N#Cc1cc/c(=N\C(=O)[N-]c2ccc(Oc3ccnc4[n-]c(=O)[n-]c34)cc2S(=O)(=O)[N-]c2cccc(O)c2)[n-]c1 (3D coordinates assigned)
N#Cc1cc/c(=N\C(=O)[N-]c2ccc(Oc3ccnc4[n-]c(=O)[n-]c34)cc2S(=O)(=O)[N-]c2cccc(O)c2)[n-]c1 (optimized conformer: 117.89320138828954 kcal/mol)

>  <smiles>  (59) 
N#Cc1ccc(=NC(=O)Nc2ccc(Oc3ccnc4[nH]c(=O)[nH]c34)cc2S(=O)(=O)Nc2cccc(O)c2)[nH]c1

>  <score_type>  (59) 
oracle

>  <origin>  (59) 
adg

>  <m_score__min__energy>  (59) 
-15.83

>  <m_primary>  (59) 
energy

$$$$
59:0
     RDKit          3D

 81 85  0  0  0  0  0  0  0  0999 V2000
   59.3970   22.6260   44.9670 C   0  0  0  0  0  0  0  0  0  0  0  0
   58.2830   22.9870   45.6060 C   0  0  0  0  0  0  0  0  0  0  0  0
   57.4840   22.0990   46.2370 N   0  0  0  0  0  0  0  0  0  0  0  0
   56.4740   22.7640   46.7760 N   0  0  0  0  0  0  0  0  0  0  0  0
   55.3930   22.1390   47.4900 C   0  0  0  0  0  0  0  0  0  0  0  0
   55.6430   21.3690   48.4570 O   0  0  0  0  0  0  0  0  0  0  0  0
   53.9810   22.4250   47.1470 C   0  0  0  0  0  0  0  0  0  0  0  0
   52.9850   22.2370   48.1220 C   0  0  0  0  0  0  0  0  0  0  0  0
   51.6480   22.5200   47.8310 C   0  0  0  0  0  0  0  0  0  0  0  0
   50.3090   22.2820   49.1700 Br  0  0  0  0  0  0  0  0  0  0  0  0
   51.2910   22.9850   46.5620 C   0  0  0  0  0  0  0  0  0  0  0  0
   52.2670   23.1570   45.5760 C   0  0  0  0  0  0  0  0  0  0  0  0
   51.7450   23.7840   43.8420 Br  0  0  0  0  0  0  0  0  0  0  0  0
   53.6100   22.8650   45.8590 C   0  0  0  0  0  0  0  0  0  0  0  0
   54.5630   22.9920   44.8520 O   0  0  0  0  0  0  0  0  0  0  0  0
   56.6030   24.0740   46.4830 C   0  0  0  0  0  0  0  0  0  0  0  0
   55.7900   24.9660   46.8480 O   0  0  0  0  0  0  0  0  0  0  0  0
   57.7540   24.2720   45.7340 C   0  0  0  0  0  0  0  0  0  0  0  0
   58.2410   25.4200   45.2320 C   0  0  0  0  0  0  0  0  0  0  0  0
   58.9660   26.4080   46.0560 C   0  0  0  0  0  0  0  0  0  0  0  0
   59.1310   26.1290   47.4190 C   0  0  0  0  0  0  0  0  0  0  0  0
   59.7880   27.0440   48.2370 C   0  0  0  0  0  0  0  0  0  0  0  0
   60.2680   28.2320   47.6960 C   0  0  0  0  0  0  0  0  0  0  0  0
   60.0840   28.4890   46.3370 C   0  0  0  0  0  0  0  0  0  0  0  0
   59.4480   27.5860   45.5290 N   0  0  0  0  0  0  0  0  0  0  0  0
   59.2300   27.9510   44.1160 C   0  0  0  0  0  0  0  0  0  0  0  0
   57.7380   27.8480   43.7680 C   0  0  0  0  0  0  0  0  0  0  0  0
   56.8220   28.2080   44.9500 C   0  0  0  0  0  0  0  0  0  0  0  0
   56.6120   29.7290   45.0820 C   0  0  0  0  0  0  0  0  0  0  0  0
   56.5320   30.4340   43.7180 C   0  0  0  0  0  0  0  0  0  0  0  0
   57.8710   31.1100   43.3310 C   0  0  0  0  0  0  0  0  0  0  0  0
   58.3990   32.0750   44.3280 N   0  0  0  0  0  0  0  0  0  0  0  0
   59.0160   31.4030   45.4970 C   0  0  0  0  0  0  0  0  0  0  0  0
   59.2950   32.3890   46.6540 C   0  0  0  0  0  0  0  0  0  0  0  0
   59.3790   33.7700   46.1430 N   0  0  0  0  0  0  0  0  0  0  0  0
   59.8360   34.6920   47.2030 C   0  0  0  0  0  0  0  0  0  0  0  0
   61.1340   34.2110   47.7970 C   0  0  0  0  0  0  0  0  0  0  0  0
   62.1830   33.7780   46.9710 C   0  0  0  0  0  0  0  0  0  0  0  0
   63.3740   33.3080   47.5350 C   0  0  0  0  0  0  0  0  0  0  0  0
   63.5190   33.2560   48.9250 C   0  0  0  0  0  0  0  0  0  0  0  0
   65.0100   32.6600   49.6300 Cl  0  0  0  0  0  0  0  0  0  0  0  0
   62.4730   33.6760   49.7530 C   0  0  0  0  0  0  0  0  0  0  0  0
   61.2830   34.1500   49.1910 C   0  0  0  0  0  0  0  0  0  0  0  0
   58.0710   34.1970   45.5850 C   0  0  0  0  0  0  0  0  0  0  0  0
   57.4030   33.0800   44.7530 C   0  0  0  0  0  0  0  0  0  0  0  0
   60.0155   23.3863   44.4676 H   0  0  0  0  0  0  0  0  0  0  0  0
   59.6970   21.5681   44.9395 H   0  0  0  0  0  0  0  0  0  0  0  0
   53.2603   21.8649   49.1199 H   0  0  0  0  0  0  0  0  0  0  0  0
   50.2390   23.2163   46.3386 H   0  0  0  0  0  0  0  0  0  0  0  0
   58.0933   25.6323   44.1628 H   0  0  0  0  0  0  0  0  0  0  0  0
   58.7428   25.1904   47.8413 H   0  0  0  0  0  0  0  0  0  0  0  0
   59.9269   26.8283   49.3067 H   0  0  0  0  0  0  0  0  0  0  0  0
   60.7879   28.9622   48.3336 H   0  0  0  0  0  0  0  0  0  0  0  0
   60.4557   29.4315   45.9087 H   0  0  0  0  0  0  0  0  0  0  0  0
   59.5718   28.9833   43.9501 H   0  0  0  0  0  0  0  0  0  0  0  0
   59.7976   27.2609   43.4744 H   0  0  0  0  0  0  0  0  0  0  0  0
   57.5234   28.5345   42.9357 H   0  0  0  0  0  0  0  0  0  0  0  0
   57.5332   26.8014   43.4982 H   0  0  0  0  0  0  0  0  0  0  0  0
   55.8442   27.7272   44.7995 H   0  0  0  0  0  0  0  0  0  0  0  0
   57.3054   27.8527   45.8720 H   0  0  0  0  0  0  0  0  0  0  0  0
   55.6740   29.9094   45.6276 H   0  0  0  0  0  0  0  0  0  0  0  0
   57.4790   30.1402   45.6199 H   0  0  0  0  0  0  0  0  0  0  0  0
   56.2750   29.6905   42.9492 H   0  0  0  0  0  0  0  0  0  0  0  0
   55.7644   31.2188   43.7873 H   0  0  0  0  0  0  0  0  0  0  0  0
   58.6233   30.3201   43.1893 H   0  0  0  0  0  0  0  0  0  0  0  0
   57.6693   31.6906   42.4188 H   0  0  0  0  0  0  0  0  0  0  0  0
   59.1670   32.5930   43.8330 H   0  0  0  0  0  0  0  0  0  0  0  0
   58.3336   30.6186   45.8562 H   0  0  0  0  0  0  0  0  0  0  0  0
   59.9780   30.9781   45.1746 H   0  0  0  0  0  0  0  0  0  0  0  0
   58.4804   32.3238   47.3903 H   0  0  0  0  0  0  0  0  0  0  0  0
   60.2527   32.1240   47.1258 H   0  0  0  0  0  0  0  0  0  0  0  0
   59.9840   35.6935   46.7727 H   0  0  0  0  0  0  0  0  0  0  0  0
   59.0740   34.7286   47.9955 H   0  0  0  0  0  0  0  0  0  0  0  0
   62.0684   33.8083   45.8774 H   0  0  0  0  0  0  0  0  0  0  0  0
   64.1975   32.9789   46.8842 H   0  0  0  0  0  0  0  0  0  0  0  0
   62.5861   33.6336   50.8463 H   0  0  0  0  0  0  0  0  0  0  0  0
   60.4605   34.4763   49.8445 H   0  0  0  0  0  0  0  0  0  0  0  0
   57.4027   34.4690   46.4153 H   0  0  0  0  0  0  0  0  0  0  0  0
   58.2497   35.0547   44.9199 H   0  0  0  0  0  0  0  0  0  0  0  0
   56.6319   32.5876   45.3637 H   0  0  0  0  0  0  0  0  0  0  0  0
   56.9519   33.5302   43.8564 H   0  0  0  0  0  0  0  0  0  0  0  0
  1  2  2  0
  2  3  1  0
  3  4  1  0
  4  5  1  0
  5  6  2  0
  5  7  1  0
  7  8  2  0
  8  9  1  0
  9 10  1  0
  9 11  2  0
 11 12  1  0
 12 13  1  0
 12 14  2  0
 14 15  1  0
  4 16  1  0
 16 17  2  0
 16 18  1  0
 18 19  2  3
 19 20  1  0
 20 21  2  0
 21 22  1  0
 22 23  2  0
 23 24  1  0
 24 25  2  0
 25 26  1  0
 26 27  1  0
 27 28  1  0
 28 29  1  0
 29 30  1  0
 30 31  1  0
 31 32  1  0
 32 33  1  0
 33 34  1  0
 34 35  1  0
 35 36  1  0
 36 37  1  0
 37 38  2  0
 38 39  1  0
 39 40  2  0
 40 41  1  0
 40 42  1  0
 42 43  2  0
 35 44  1  0
 44 45  1  0
 18  2  1  0
 25 20  1  0
 45 32  1  0
 14  7  1  0
 43 37  1  0
  1 46  1  0
  1 47  1  0
  8 48  1  0
 11 49  1  0
 19 50  1  0
 21 51  1  0
 22 52  1  0
 23 53  1  0
 24 54  1  0
 26 55  1  0
 26 56  1  0
 27 57  1  0
 27 58  1  0
 28 59  1  0
 28 60  1  0
 29 61  1  0
 29 62  1  0
 30 63  1  0
 30 64  1  0
 31 65  1  0
 31 66  1  0
 32 67  1  0
 33 68  1  0
 33 69  1  0
 34 70  1  0
 34 71  1  0
 36 72  1  0
 36 73  1  0
 38 74  1  0
 39 75  1  0
 42 76  1  0
 43 77  1  0
 44 78  1  0
 44 79  1  0
 45 80  1  0
 45 81  1  0
M  CHG  4   3  -1  15  -1  25   1  32   1
M  END
>  <UniqueID>  (60) 
56

>  <SMILES>  (60) 
C=c1[n-]n(C(=O)c2cc(Br)cc(Br)c2[O-])c(=O)c1=Cc1cccc[n+]1CCCCCC[NH+]1CCN(Cc2ccc(Cl)cc2)CC1

>  <Energy>  (60) 
143.26188062418552

>  <Genealogy>  (60) 
C=c1[n-]n(C(=O)c2cc(Br)cc(Br)c2[O-])c(=O)c1=Cc1cccc[n+]1CCCCCC[NH+]1CCN(Cc2ccc(Cl)cc2)CC1 (protonated)
C=c1[n-]n(C(=O)c2cc(Br)cc(Br)c2[O-])c(=O)c1=Cc1cccc[n+]1CCCCCC[NH+]1CCN(Cc2ccc(Cl)cc2)CC1 (3D coordinates assigned)
C=c1[n-]n(C(=O)c2cc(Br)cc(Br)c2[O-])c(=O)c1=Cc1cccc[n+]1CCCCCC[NH+]1CCN(Cc2ccc(Cl)cc2)CC1 (nonaromatic ring conformer: 143.26188062418552 kcal/mol)

>  <smiles>  (60) 
C=c1[nH]n(C(=O)c2cc(Br)cc(Br)c2O)c(=O)c1=Cc1cccc[n+]1CCCCCCN1CCN(Cc2ccc(Cl)cc2)CC1

>  <score_type>  (60) 
oracle

>  <origin>  (60) 
adg

>  <m_score__min__energy>  (60) 
-13.289999999999999

>  <m_primary>  (60) 
energy

$$$$
60:0
     RDKit          3D

 41 42  0  0  0  0  0  0  0  0999 V2000
   59.6510   35.3500   46.3860 C   0  0  0  0  0  0  0  0  0  0  0  0
   59.3730   33.8720   46.2950 C   0  0  0  0  0  0  0  0  0  0  0  0
   60.2890   32.9750   46.8680 C   0  0  0  0  0  0  0  0  0  0  0  0
   60.0750   31.6000   46.8000 C   0  0  0  0  0  0  0  0  0  0  0  0
   58.9330   31.1010   46.1750 C   0  0  0  0  0  0  0  0  0  0  0  0
   57.9950   31.9700   45.6100 C   0  0  0  0  0  0  0  0  0  0  0  0
   56.8220   31.4020   45.0140 N   0  0  0  0  0  0  0  0  0  0  0  0
   56.7630   30.1250   44.3650 C   0  0  0  0  0  0  0  0  0  0  0  0
   57.5000   29.9170   43.3660 O   0  0  0  0  0  0  0  0  0  0  0  0
   55.9000   29.0080   44.8760 C   0  0  0  0  0  0  0  0  0  0  0  0
   56.7410   27.8730   45.2350 N   0  0  0  0  0  0  0  0  0  0  0  0
   56.2860   26.7430   45.9890 C   0  0  0  0  0  0  0  0  0  0  0  0
   55.0610   26.4510   45.9720 O   0  0  0  0  0  0  0  0  0  0  0  0
   57.2240   25.9190   46.8200 C   0  0  0  0  0  0  0  0  0  0  0  0
   56.5240   24.7410   47.3140 N   0  0  0  0  0  0  0  0  0  0  0  0
   56.7750   23.3820   46.9280 C   0  0  0  0  0  0  0  0  0  0  0  0
   57.0950   22.5590   47.8260 O   0  0  0  0  0  0  0  0  0  0  0  0
   56.6770   22.9070   45.5290 C   0  0  0  0  0  0  0  0  0  0  0  0
   56.7860   23.7220   44.4140 C   0  0  0  0  0  0  0  0  0  0  0  0
   56.6400   22.9030   43.3160 C   0  0  0  0  0  0  0  0  0  0  0  0
   56.4530   21.6370   43.8220 C   0  0  0  0  0  0  0  0  0  0  0  0
   56.2620   20.5000   43.0460 O   0  0  0  0  0  0  0  0  0  0  0  0
   56.4730   21.6240   45.1680 N   0  0  0  0  0  0  0  0  0  0  0  0
   58.2340   33.3690   45.6130 C   0  0  0  0  0  0  0  0  0  0  0  0
   57.2790   34.3130   44.9190 C   0  0  0  0  0  0  0  0  0  0  0  0
   59.7071   35.6481   47.4433 H   0  0  0  0  0  0  0  0  0  0  0  0
   60.6071   35.5744   45.8905 H   0  0  0  0  0  0  0  0  0  0  0  0
   58.8418   35.9065   45.8905 H   0  0  0  0  0  0  0  0  0  0  0  0
   61.1848   33.3620   47.3758 H   0  0  0  0  0  0  0  0  0  0  0  0
   60.8077   30.9074   47.2398 H   0  0  0  0  0  0  0  0  0  0  0  0
   58.7687   30.0144   46.1261 H   0  0  0  0  0  0  0  0  0  0  0  0
   55.3452   29.3488   45.7626 H   0  0  0  0  0  0  0  0  0  0  0  0
   55.1884   28.7056   44.0936 H   0  0  0  0  0  0  0  0  0  0  0  0
   58.0808   25.6060   46.2052 H   0  0  0  0  0  0  0  0  0  0  0  0
   57.5835   26.5167   47.6706 H   0  0  0  0  0  0  0  0  0  0  0  0
   56.9557   24.8088   44.4069 H   0  0  0  0  0  0  0  0  0  0  0  0
   56.6672   23.1989   42.2569 H   0  0  0  0  0  0  0  0  0  0  0  0
   56.8620   19.6910   43.1600 H   0  0  0  0  0  0  0  0  0  0  0  0
   56.7087   34.8767   45.6720 H   0  0  0  0  0  0  0  0  0  0  0  0
   57.8481   35.0134   44.2900 H   0  0  0  0  0  0  0  0  0  0  0  0
   56.5853   33.7359   44.2900 H   0  0  0  0  0  0  0  0  0  0  0  0
  1  2  1  0
  2  3  2  0
  3  4  1  0
  4  5  2  0
  5  6  1  0
  6  7  1  0
  7  8  1  0
  8  9  2  0
  8 10  1  0
 10 11  1  0
 11 12  1  0
 12 13  2  0
 12 14  1  0
 14 15  1  0
 15 16  1  0
 16 17  2  0
 16 18  1  0
 18 19  2  0
 19 20  1  0
 20 21  2  0
 21 22  1  0
 21 23  1  0
  6 24  2  0
 24 25  1  0
 24  2  1  0
 23 18  1  0
  1 26  1  0
  1 27  1  0
  1 28  1  0
  3 29  1  0
  4 30  1  0
  5 31  1  0
 10 32  1  0
 10 33  1  0
 14 34  1  0
 14 35  1  0
 19 36  1  0
 20 37  1  0
 22 38  1  0
 25 39  1  0
 25 40  1  0
 25 41  1  0
M  CHG  4   7  -1  11  -1  15  -1  23  -1
M  END
>  <UniqueID>  (61) 
57

>  <SMILES>  (61) 
Cc1cccc([N-]C(=O)C[N-]C(=O)C[N-]C(=O)c2ccc(O)[n-]2)c1C

>  <Energy>  (61) 
68.83950731037528

>  <Genealogy>  (61) 
Cc1cccc([N-]C(=O)C[N-]C(=O)C[N-]C(=O)c2ccc(O)[n-]2)c1C (protonated)
Cc1cccc([N-]C(=O)C[N-]C(=O)C[N-]C(=O)c2ccc(O)[n-]2)c1C (3D coordinates assigned)
Cc1cccc([N-]C(=O)C[N-]C(=O)C[N-]C(=O)c2ccc(O)[n-]2)c1C (optimized conformer: 68.83950731037528 kcal/mol)

>  <smiles>  (61) 
Cc1cccc(NC(=O)CNC(=O)CNC(=O)c2ccc(O)[nH]2)c1C

>  <score_type>  (61) 
oracle

>  <origin>  (61) 
adg

>  <m_score__min__energy>  (61) 
-16.050000000000001

>  <m_primary>  (61) 
energy

$$$$
61:0
     RDKit          3D

 65 68  0  0  0  0  0  0  0  0999 V2000
   61.0604   28.3984   46.4335 H   0  0  0  0  0  0  0  0  0  0  0  0
   60.2660   27.7670   46.0090 C   0  0  0  0  0  0  0  0  0  0  0  0
   60.3392   26.6715   46.0764 H   0  0  0  0  0  0  0  0  0  0  0  0
   59.2060   28.3340   45.4080 C   0  0  0  0  0  0  0  0  0  0  0  0
   58.1320   27.6460   44.8300 C   0  0  0  0  0  0  0  0  0  0  0  0
   57.9460   26.3120   44.7760 C   0  0  0  0  0  0  0  0  0  0  0  0
   58.3058   25.7754   43.8857 H   0  0  0  0  0  0  0  0  0  0  0  0
   57.2890   25.5290   45.8390 C   0  0  0  0  0  0  0  0  0  0  0  0
   57.8230   24.4180   46.3740 N   0  0  0  0  0  0  0  0  0  0  0  0
   56.8690   23.9910   47.2290 C   0  0  0  0  0  0  0  0  0  0  0  0
   57.0080   22.9620   47.9400 O   0  0  0  0  0  0  0  0  0  0  0  0
   55.7520   24.7480   47.2560 N   0  0  0  0  0  0  0  0  0  0  0  0
   56.0260   25.7100   46.3610 C   0  0  0  0  0  0  0  0  0  0  0  0
   55.1230   26.7020   45.9990 O   0  0  0  0  0  0  0  0  0  0  0  0
   57.2450   28.6130   44.3840 C   0  0  0  0  0  0  0  0  0  0  0  0
   56.2760   28.4388   43.8935 H   0  0  0  0  0  0  0  0  0  0  0  0
   57.8120   29.8350   44.6740 C   0  0  0  0  0  0  0  0  0  0  0  0
   57.1460   31.1230   44.4270 C   0  0  0  0  0  0  0  0  0  0  0  0
   55.8920   31.1850   44.5220 O   0  0  0  0  0  0  0  0  0  0  0  0
   57.9030   32.2500   43.9540 N   0  0  0  0  0  0  0  0  0  0  0  0
   58.7920   32.0300   43.4510 H   0  0  0  0  0  0  0  0  0  0  0  0
   57.7680   33.6430   44.4040 C   0  0  0  0  0  0  0  0  0  0  0  0
   58.7761   34.0783   44.4695 H   0  0  0  0  0  0  0  0  0  0  0  0
   57.1209   34.1400   43.6663 H   0  0  0  0  0  0  0  0  0  0  0  0
   57.0800   33.8290   45.7680 C   0  0  0  0  0  0  0  0  0  0  0  0
   56.7727   34.8809   45.8630 H   0  0  0  0  0  0  0  0  0  0  0  0
   56.2220   33.1412   45.7955 H   0  0  0  0  0  0  0  0  0  0  0  0
   57.9670   33.4820   46.9390 C   0  0  0  0  0  0  0  0  0  0  0  0
   57.4620   32.9630   47.9700 O   0  0  0  0  0  0  0  0  0  0  0  0
   59.3710   33.7810   46.9420 N   0  0  0  0  0  0  0  0  0  0  0  0
   60.0270   34.8630   47.6750 C   0  0  0  0  0  0  0  0  0  0  0  0
   60.7777   35.3331   47.0228 H   0  0  0  0  0  0  0  0  0  0  0  0
   59.2598   35.5915   47.9761 H   0  0  0  0  0  0  0  0  0  0  0  0
   60.7220   34.3420   48.9420 C   0  0  0  0  0  0  0  0  0  0  0  0
   61.0283   35.1990   49.5598 H   0  0  0  0  0  0  0  0  0  0  0  0
   60.0127   33.7009   49.4859 H   0  0  0  0  0  0  0  0  0  0  0  0
   61.9170   33.5360   48.6120 N   0  0  0  0  0  0  0  0  0  0  0  0
   63.0190   33.8420   49.5410 C   0  0  0  0  0  0  0  0  0  0  0  0
   63.2932   34.9027   49.4424 H   0  0  0  0  0  0  0  0  0  0  0  0
   62.6896   33.6329   50.5695 H   0  0  0  0  0  0  0  0  0  0  0  0
   64.2490   32.9650   49.2180 C   0  0  0  0  0  0  0  0  0  0  0  0
   65.1372   33.6111   49.1577 H   0  0  0  0  0  0  0  0  0  0  0  0
   64.3470   32.2176   50.0192 H   0  0  0  0  0  0  0  0  0  0  0  0
   64.1100   32.2680   47.9930 O   0  0  0  0  0  0  0  0  0  0  0  0
   63.7580   33.1730   46.9680 C   0  0  0  0  0  0  0  0  0  0  0  0
   64.4909   33.9929   46.9432 H   0  0  0  0  0  0  0  0  0  0  0  0
   63.7533   32.6351   46.0085 H   0  0  0  0  0  0  0  0  0  0  0  0
   62.3530   33.7580   47.2140 C   0  0  0  0  0  0  0  0  0  0  0  0
   62.3742   34.8391   47.0123 H   0  0  0  0  0  0  0  0  0  0  0  0
   61.6429   33.2519   46.5434 H   0  0  0  0  0  0  0  0  0  0  0  0
   59.0050   29.6780   45.2980 N   0  0  0  0  0  0  0  0  0  0  0  0
   59.7960   30.7690   45.8950 C   0  0  0  0  0  0  0  0  0  0  0  0
   60.7761   30.8162   45.3978 H   0  0  0  0  0  0  0  0  0  0  0  0
   59.2485   31.7133   45.7590 H   0  0  0  0  0  0  0  0  0  0  0  0
   60.0030   30.5420   47.3740 C   0  0  0  0  0  0  0  0  0  0  0  0
   61.2910   30.5920   47.9390 C   0  0  0  0  0  0  0  0  0  0  0  0
   62.1607   30.8053   47.3002 H   0  0  0  0  0  0  0  0  0  0  0  0
   61.4710   30.3720   49.3080 C   0  0  0  0  0  0  0  0  0  0  0  0
   62.4822   30.3997   49.7402 H   0  0  0  0  0  0  0  0  0  0  0  0
   60.3690   30.1170   50.1280 C   0  0  0  0  0  0  0  0  0  0  0  0
   60.5139   29.9336   51.2029 H   0  0  0  0  0  0  0  0  0  0  0  0
   59.0840   30.0950   49.5830 C   0  0  0  0  0  0  0  0  0  0  0  0
   58.2161   29.8997   50.2300 H   0  0  0  0  0  0  0  0  0  0  0  0
   58.8990   30.3210   48.2150 C   0  0  0  0  0  0  0  0  0  0  0  0
   57.8825   30.3258   47.7947 H   0  0  0  0  0  0  0  0  0  0  0  0
  1  2  1  0
  2  3  1  0
  2  4  2  0
  4  5  1  0
  5  6  2  0
  6  7  1  0
  6  8  1  0
  8  9  1  0
  9 10  1  0
 10 11  2  0
 10 12  1  0
 12 13  1  0
 13 14  1  0
  5 15  1  0
 15 16  1  0
 15 17  2  0
 17 18  1  0
 18 19  2  0
 18 20  1  0
 20 21  1  0
 20 22  1  0
 22 23  1  0
 22 24  1  0
 22 25  1  0
 25 26  1  0
 25 27  1  0
 25 28  1  0
 28 29  2  0
 28 30  1  0
 30 31  1  0
 31 32  1  0
 31 33  1  0
 31 34  1  0
 34 35  1  0
 34 36  1  0
 34 37  1  0
 37 38  1  0
 38 39  1  0
 38 40  1  0
 38 41  1  0
 41 42  1  0
 41 43  1  0
 41 44  1  0
 44 45  1  0
 45 46  1  0
 45 47  1  0
 45 48  1  0
 48 49  1  0
 48 50  1  0
 17 51  1  0
 51 52  1  0
 52 53  1  0
 52 54  1  0
 52 55  1  0
 55 56  2  0
 56 57  1  0
 56 58  1  0
 58 59  1  0
 58 60  2  0
 60 61  1  0
 60 62  1  0
 62 63  1  0
 62 64  2  0
 64 65  1  0
 51  4  1  0
 64 55  1  0
 13  8  2  0
 48 37  1  0
M  CHG  4   9  -1  12  -1  14  -1  30  -1
M  END
>  <UniqueID>  (62) 
58

>  <SMILES>  (62) 
C=c1/c(=C/c2[n-]c(=O)[n-]c2[O-])cc(C(=O)NCCC(=O)[N-]CCN2CCOCC2)n1Cc1ccccc1

>  <Energy>  (62) 
147.87292039694373

>  <Genealogy>  (62) 
C=c1c(=Cc2[n-]c(=O)[n-]c2[O-])cc(C(=O)NCCC(=O)[N-]CCN2CCOCC2)n1Cc1ccccc1 (protonated)
C=c1/c(=C/c2[n-]c(=O)[n-]c2[O-])cc(C(=O)NCCC(=O)[N-]CCN2CCOCC2)n1Cc1ccccc1 (cis-trans isomerization)
C=c1/c(=C/c2[n-]c(=O)[n-]c2[O-])cc(C(=O)NCCC(=O)[N-]CCN2CCOCC2)n1Cc1ccccc1 (3D coordinates assigned)
C=c1/c(=C/c2[n-]c(=O)[n-]c2[O-])cc(C(=O)NCCC(=O)[N-]CCN2CCOCC2)n1Cc1ccccc1 (nonaromatic ring conformer: 147.87292039694373 kcal/mol)

>  <smiles>  (62) 
C=c1c(=Cc2[nH]c(=O)[nH]c2O)cc(C(=O)NCCC(=O)NCCN2CCOCC2)n1Cc1ccccc1

>  <score_type>  (62) 
oracle

>  <origin>  (62) 
adg

>  <m_score__min__energy>  (62) 
-19.239999999999998

>  <m_primary>  (62) 
energy

$$$$
62:0
     RDKit          3D

 74 77  0  0  0  0  0  0  0  0999 V2000
   59.5220   35.7010   49.6010 H   0  0  0  0  0  0  0  0  0  0  0  0
   60.0170   34.9440   49.1440 O   0  0  0  0  0  0  0  0  0  0  0  0
   59.5430   34.3690   47.9680 C   0  0  0  0  0  0  0  0  0  0  0  0
   58.5570   33.3730   48.0060 C   0  0  0  0  0  0  0  0  0  0  0  0
   58.1491   33.0417   48.9724 H   0  0  0  0  0  0  0  0  0  0  0  0
   58.0910   32.8000   46.8200 C   0  0  0  0  0  0  0  0  0  0  0  0
   57.3225   32.0138   46.8564 H   0  0  0  0  0  0  0  0  0  0  0  0
   58.6000   33.2240   45.5810 C   0  0  0  0  0  0  0  0  0  0  0  0
   58.1300   32.5800   44.3020 C   0  0  0  0  0  0  0  0  0  0  0  0
   58.9027   31.8817   43.9480 H   0  0  0  0  0  0  0  0  0  0  0  0
   57.9511   33.3728   43.5608 H   0  0  0  0  0  0  0  0  0  0  0  0
   56.8210   31.8110   44.5110 C   0  0  0  0  0  0  0  0  0  0  0  0
   55.9776   32.4483   44.2067 H   0  0  0  0  0  0  0  0  0  0  0  0
   56.7395   31.5432   45.5748 H   0  0  0  0  0  0  0  0  0  0  0  0
   56.8000   30.5830   43.7210 N   0  0  0  0  0  0  0  0  0  0  0  0
   56.6550   29.2790   44.2880 C   0  0  0  0  0  0  0  0  0  0  0  0
   55.6380   29.0000   44.9780 O   0  0  0  0  0  0  0  0  0  0  0  0
   57.6760   28.2560   43.9880 C   0  0  0  0  0  0  0  0  0  0  0  0
   57.4077   27.4755   43.2608 H   0  0  0  0  0  0  0  0  0  0  0  0
   58.9040   28.1970   44.5270 C   0  0  0  0  0  0  0  0  0  0  0  0
   59.7278   27.8708   43.8751 H   0  0  0  0  0  0  0  0  0  0  0  0
   59.2370   28.5350   45.9250 C   0  0  0  0  0  0  0  0  0  0  0  0
   60.0160   27.6720   46.7140 C   0  0  0  0  0  0  0  0  0  0  0  0
   60.4165   26.7442   46.2795 H   0  0  0  0  0  0  0  0  0  0  0  0
   60.2840   27.9880   48.0490 C   0  0  0  0  0  0  0  0  0  0  0  0
   60.8960   27.3074   48.6591 H   0  0  0  0  0  0  0  0  0  0  0  0
   59.7770   29.1690   48.6170 C   0  0  0  0  0  0  0  0  0  0  0  0
   60.0640   29.5140   50.0660 C   0  0  0  0  0  0  0  0  0  0  0  0
   60.5482   28.6468   50.5387 H   0  0  0  0  0  0  0  0  0  0  0  0
   59.0991   29.7656   50.5303 H   0  0  0  0  0  0  0  0  0  0  0  0
   60.9450   30.6930   50.2420 N   0  0  0  0  0  0  0  0  0  0  0  0
   60.9830   31.2040   51.6300 C   0  0  0  0  0  0  0  0  0  0  0  0
   61.9040   31.7853   51.7849 H   0  0  0  0  0  0  0  0  0  0  0  0
   60.9664   30.3627   52.3385 H   0  0  0  0  0  0  0  0  0  0  0  0
   59.7910   32.0810   51.8540 C   0  0  0  0  0  0  0  0  0  0  0  0
   58.5490   31.5240   51.8410 N   0  0  0  0  0  0  0  0  0  0  0  0
   57.4250   32.2520   52.0800 C   0  0  0  0  0  0  0  0  0  0  0  0
   56.0920   31.5670   52.1060 C   0  0  0  0  0  0  0  0  0  0  0  0
   55.6836   31.5260   51.0854 H   0  0  0  0  0  0  0  0  0  0  0  0
   55.4094   32.1306   52.7589 H   0  0  0  0  0  0  0  0  0  0  0  0
   56.2420   30.1680   52.6390 C   0  0  0  0  0  0  0  0  0  0  0  0
   56.9400   29.3660   52.0340 O   0  0  0  0  0  0  0  0  0  0  0  0
   55.5700   29.7390   53.9090 C   0  0  0  0  0  0  0  0  0  0  0  0
   56.1460   30.1067   54.7709 H   0  0  0  0  0  0  0  0  0  0  0  0
   54.5522   30.1548   53.9438 H   0  0  0  0  0  0  0  0  0  0  0  0
   55.5188   28.6407   53.9438 H   0  0  0  0  0  0  0  0  0  0  0  0
   57.5360   33.6200   52.3740 C   0  0  0  0  0  0  0  0  0  0  0  0
   56.6366   34.2186   52.5810 H   0  0  0  0  0  0  0  0  0  0  0  0
   58.7990   34.2130   52.4010 C   0  0  0  0  0  0  0  0  0  0  0  0
   58.8985   35.2854   52.6248 H   0  0  0  0  0  0  0  0  0  0  0  0
   59.9360   33.4450   52.1440 C   0  0  0  0  0  0  0  0  0  0  0  0
   60.9349   33.9050   52.1687 H   0  0  0  0  0  0  0  0  0  0  0  0
   62.2830   30.5350   49.6360 C   0  0  0  0  0  0  0  0  0  0  0  0
   63.0256   30.3747   50.4315 H   0  0  0  0  0  0  0  0  0  0  0  0
   62.2693   29.6708   48.9556 H   0  0  0  0  0  0  0  0  0  0  0  0
   62.6490   31.7700   48.8550 C   0  0  0  0  0  0  0  0  0  0  0  0
   63.0070   31.6810   47.4990 C   0  0  0  0  0  0  0  0  0  0  0  0
   62.9900   30.7054   46.9911 H   0  0  0  0  0  0  0  0  0  0  0  0
   63.3850   32.8280   46.7920 C   0  0  0  0  0  0  0  0  0  0  0  0
   63.6674   32.7516   45.7316 H   0  0  0  0  0  0  0  0  0  0  0  0
   63.4040   34.0690   47.4310 C   0  0  0  0  0  0  0  0  0  0  0  0
   63.7003   34.9697   46.8734 H   0  0  0  0  0  0  0  0  0  0  0  0
   63.0470   34.1680   48.7780 C   0  0  0  0  0  0  0  0  0  0  0  0
   63.0608   35.1470   49.2794 H   0  0  0  0  0  0  0  0  0  0  0  0
   62.6720   33.0240   49.4900 C   0  0  0  0  0  0  0  0  0  0  0  0
   62.3940   33.1058   50.5511 H   0  0  0  0  0  0  0  0  0  0  0  0
   58.9560   30.0020   47.8390 C   0  0  0  0  0  0  0  0  0  0  0  0
   58.5233   30.9109   48.2826 H   0  0  0  0  0  0  0  0  0  0  0  0
   58.6850   29.6840   46.5050 C   0  0  0  0  0  0  0  0  0  0  0  0
   58.0346   30.3398   45.9076 H   0  0  0  0  0  0  0  0  0  0  0  0
   59.5930   34.2160   45.5480 C   0  0  0  0  0  0  0  0  0  0  0  0
   60.0067   34.5451   44.5834 H   0  0  0  0  0  0  0  0  0  0  0  0
   60.0580   34.7870   46.7360 C   0  0  0  0  0  0  0  0  0  0  0  0
   60.8318   35.5680   46.7023 H   0  0  0  0  0  0  0  0  0  0  0  0
  1  2  1  0
  2  3  1  0
  3  4  2  0
  4  5  1  0
  4  6  1  0
  6  7  1  0
  6  8  2  0
  8  9  1  0
  9 10  1  0
  9 11  1  0
  9 12  1  0
 12 13  1  0
 12 14  1  0
 12 15  1  0
 15 16  1  0
 16 17  2  0
 16 18  1  0
 18 19  1  0
 18 20  2  0
 20 21  1  0
 20 22  1  0
 22 23  2  0
 23 24  1  0
 23 25  1  0
 25 26  1  0
 25 27  2  0
 27 28  1  0
 28 29  1  0
 28 30  1  0
 28 31  1  0
 31 32  1  0
 32 33  1  0
 32 34  1  0
 32 35  1  0
 35 36  2  0
 36 37  1  0
 37 38  1  0
 38 39  1  0
 38 40  1  0
 38 41  1  0
 41 42  2  0
 41 43  1  0
 43 44  1  0
 43 45  1  0
 43 46  1  0
 37 47  2  0
 47 48  1  0
 47 49  1  0
 49 50  1  0
 49 51  2  0
 51 52  1  0
 31 53  1  0
 53 54  1  0
 53 55  1  0
 53 56  1  0
 56 57  2  0
 57 58  1  0
 57 59  1  0
 59 60  1  0
 59 61  2  0
 61 62  1  0
 61 63  1  0
 63 64  1  0
 63 65  2  0
 65 66  1  0
 27 67  1  0
 67 68  1  0
 67 69  2  0
 69 70  1  0
  8 71  1  0
 71 72  1  0
 71 73  2  0
 73 74  1  0
 73  3  1  0
 69 22  1  0
 51 35  1  0
 65 56  1  0
M  CHG  1  15  -1
M  END
>  <UniqueID>  (63) 
59

>  <SMILES>  (63) 
CC(=O)Cc1cccc(CN(Cc2ccccc2)Cc2ccc(/C=C\C(=O)[N-]CCc3ccc(O)cc3)cc2)n1

>  <Energy>  (63) 
78.1818575711552

>  <Genealogy>  (63) 
CC(=O)Cc1cccc(CN(Cc2ccccc2)Cc2ccc(C=CC(=O)[N-]CCc3ccc(O)cc3)cc2)n1 (protonated)
CC(=O)Cc1cccc(CN(Cc2ccccc2)Cc2ccc(/C=C\C(=O)[N-]CCc3ccc(O)cc3)cc2)n1 (cis-trans isomerization)
CC(=O)Cc1cccc(CN(Cc2ccccc2)Cc2ccc(/C=C\C(=O)[N-]CCc3ccc(O)cc3)cc2)n1 (3D coordinates assigned)
CC(=O)Cc1cccc(CN(Cc2ccccc2)Cc2ccc(/C=C\C(=O)[N-]CCc3ccc(O)cc3)cc2)n1 (optimized conformer: 78.1818575711552 kcal/mol)

>  <smiles>  (63) 
CC(=O)Cc1cccc(CN(Cc2ccccc2)Cc2ccc(C=CC(=O)NCCc3ccc(O)cc3)cc2)n1

>  <score_type>  (63) 
oracle

>  <origin>  (63) 
adg

>  <m_score__min__energy>  (63) 
-12.76

>  <m_primary>  (63) 
energy

$$$$
63:0
     RDKit          3D

 48 51  0  0  0  0  0  0  0  0999 V2000
   56.6010   22.0770   42.6120 C   0  0  0  0  0  0  0  0  0  0  0  0
   57.4690   21.4900   43.4410 C   0  0  0  0  0  0  0  0  0  0  0  0
   57.9600   22.1760   44.6850 C   0  0  0  0  0  0  0  0  0  0  0  0
   57.1150   23.3830   44.9970 C   0  0  0  0  0  0  0  0  0  0  0  0
   55.7660   23.2340   45.3460 C   0  0  0  0  0  0  0  0  0  0  0  0
   54.9970   24.3530   45.6660 C   0  0  0  0  0  0  0  0  0  0  0  0
   55.5610   25.6320   45.6450 C   0  0  0  0  0  0  0  0  0  0  0  0
   54.7700   26.7150   46.0140 O   0  0  0  0  0  0  0  0  0  0  0  0
   56.9160   25.8020   45.2850 C   0  0  0  0  0  0  0  0  0  0  0  0
   57.5660   27.1340   45.2360 C   0  0  0  0  0  0  0  0  0  0  0  0
   58.9260   27.4040   45.1920 C   0  0  0  0  0  0  0  0  0  0  0  0
   59.0400   28.7780   45.1830 C   0  0  0  0  0  0  0  0  0  0  0  0
   57.7470   29.2610   45.2250 C   0  0  0  0  0  0  0  0  0  0  0  0
   57.3530   30.6730   45.2350 C   0  0  0  0  0  0  0  0  0  0  0  0
   56.6710   31.1320   44.2800 O   0  0  0  0  0  0  0  0  0  0  0  0
   57.6980   31.5020   46.3530 N   0  0  0  0  0  0  0  0  0  0  0  0
   58.6280   32.5980   46.3480 C   0  0  0  0  0  0  0  0  0  0  0  0
   59.8370   32.5280   47.0650 C   0  0  0  0  0  0  0  0  0  0  0  0
   60.7360   33.6100   47.0760 C   0  0  0  0  0  0  0  0  0  0  0  0
   62.0150   33.5170   47.8280 C   0  0  0  0  0  0  0  0  0  0  0  0
   62.2750   34.0170   49.1050 C   0  0  0  0  0  0  0  0  0  0  0  0
   63.5820   33.7730   49.5470 C   0  0  0  0  0  0  0  0  0  0  0  0
   64.3640   33.0810   48.6340 C   0  0  0  0  0  0  0  0  0  0  0  0
   63.4260   32.7740   47.2760 S   0  0  0  0  0  0  0  0  0  0  0  0
   60.4010   34.7740   46.3630 C   0  0  0  0  0  0  0  0  0  0  0  0
   59.1910   34.8600   45.6740 C   0  0  0  0  0  0  0  0  0  0  0  0
   58.2960   33.7840   45.6680 C   0  0  0  0  0  0  0  0  0  0  0  0
   57.0590   33.9010   44.9530 N   0  0  0  0  0  0  0  0  0  0  0  0
   56.8950   28.2640   45.2590 O   0  0  0  0  0  0  0  0  0  0  0  0
   57.6860   24.6660   44.9810 C   0  0  0  0  0  0  0  0  0  0  0  0
   56.2600   21.5494   41.7090 H   0  0  0  0  0  0  0  0  0  0  0  0
   56.2274   23.0879   42.8325 H   0  0  0  0  0  0  0  0  0  0  0  0
   57.8336   20.4789   43.2071 H   0  0  0  0  0  0  0  0  0  0  0  0
   57.9098   21.4723   45.5290 H   0  0  0  0  0  0  0  0  0  0  0  0
   58.9974   22.5035   44.5219 H   0  0  0  0  0  0  0  0  0  0  0  0
   55.3124   22.2321   45.3677 H   0  0  0  0  0  0  0  0  0  0  0  0
   53.9383   24.2280   45.9371 H   0  0  0  0  0  0  0  0  0  0  0  0
   59.7462   26.6713   45.1690 H   0  0  0  0  0  0  0  0  0  0  0  0
   59.9683   29.3672   45.1493 H   0  0  0  0  0  0  0  0  0  0  0  0
   60.0827   31.6137   47.6251 H   0  0  0  0  0  0  0  0  0  0  0  0
   61.5254   34.5516   49.7069 H   0  0  0  0  0  0  0  0  0  0  0  0
   63.9542   34.1005   50.5290 H   0  0  0  0  0  0  0  0  0  0  0  0
   65.4141   32.7854   48.7750 H   0  0  0  0  0  0  0  0  0  0  0  0
   61.0987   35.6243   46.3481 H   0  0  0  0  0  0  0  0  0  0  0  0
   58.9380   35.7822   45.1303 H   0  0  0  0  0  0  0  0  0  0  0  0
   56.7890   34.7850   44.4650 H   0  0  0  0  0  0  0  0  0  0  0  0
   56.3950   33.0970   44.9040 H   0  0  0  0  0  0  0  0  0  0  0  0
   58.7499   24.7835   44.7272 H   0  0  0  0  0  0  0  0  0  0  0  0
  1  2  2  0
  2  3  1  0
  3  4  1  0
  4  5  2  0
  5  6  1  0
  6  7  2  0
  7  8  1  0
  7  9  1  0
  9 10  1  0
 10 11  2  0
 11 12  1  0
 12 13  2  0
 13 14  1  0
 14 15  2  0
 14 16  1  0
 16 17  1  0
 17 18  2  0
 18 19  1  0
 19 20  1  0
 20 21  2  0
 21 22  1  0
 22 23  2  0
 23 24  1  0
 19 25  2  0
 25 26  1  0
 26 27  2  0
 27 28  1  0
 13 29  1  0
  9 30  2  0
 30  4  1  0
 29 10  1  0
 27 17  1  0
 24 20  1  0
  1 31  1  0
  1 32  1  0
  2 33  1  0
  3 34  1  0
  3 35  1  0
  5 36  1  0
  6 37  1  0
 11 38  1  0
 12 39  1  0
 18 40  1  0
 21 41  1  0
 22 42  1  0
 23 43  1  0
 25 44  1  0
 26 45  1  0
 28 46  1  0
 28 47  1  0
 30 48  1  0
M  CHG  2   8  -1  16  -1
M  END
>  <UniqueID>  (64) 
60

>  <SMILES>  (64) 
C=CCc1ccc([O-])c(-c2ccc(C(=O)[N-]c3cc(-c4cccs4)ccc3N)o2)c1

>  <Energy>  (64) 
109.52498891623395

>  <Genealogy>  (64) 
C=CCc1ccc([O-])c(-c2ccc(C(=O)[N-]c3cc(-c4cccs4)ccc3N)o2)c1 (protonated)
C=CCc1ccc([O-])c(-c2ccc(C(=O)[N-]c3cc(-c4cccs4)ccc3N)o2)c1 (3D coordinates assigned)
C=CCc1ccc([O-])c(-c2ccc(C(=O)[N-]c3cc(-c4cccs4)ccc3N)o2)c1 (optimized conformer: 109.52498891623395 kcal/mol)

>  <smiles>  (64) 
C=CCc1ccc(O)c(-c2ccc(C(=O)Nc3cc(-c4cccs4)ccc3N)o2)c1

>  <score_type>  (64) 
oracle

>  <origin>  (64) 
adg

>  <m_score__min__energy>  (64) 
-14.59

>  <m_primary>  (64) 
energy

$$$$
64:0
     RDKit          3D

 36 38  0  0  0  0  0  0  0  0999 V2000
   59.5029   33.9379   46.0124 H   0  0  0  0  0  0  0  0  0  0  0  0
   59.9670   33.1270   46.5930 C   0  0  0  0  0  0  0  0  0  0  0  0
   60.9450   33.4500   47.4510 C   0  0  0  0  0  0  0  0  0  0  0  0
   62.6620   33.0670   47.0860 S   0  0  0  0  0  0  0  0  0  0  0  0
   63.0820   33.7610   48.6880 C   0  0  0  0  0  0  0  0  0  0  0  0
   64.2600   33.7540   49.1290 O   0  0  0  0  0  0  0  0  0  0  0  0
   62.0140   34.3180   49.4410 N   0  0  0  0  0  0  0  0  0  0  0  0
   60.8000   34.1550   48.7300 C   0  0  0  0  0  0  0  0  0  0  0  0
   59.7160   34.6220   49.1670 O   0  0  0  0  0  0  0  0  0  0  0  0
   59.4720   31.7500   46.3770 C   0  0  0  0  0  0  0  0  0  0  0  0
   58.6470   31.4340   45.2800 C   0  0  0  0  0  0  0  0  0  0  0  0
   58.1960   32.4850   44.2890 C   0  0  0  0  0  0  0  0  0  0  0  0
   57.3515   33.0449   44.7171 H   0  0  0  0  0  0  0  0  0  0  0  0
   59.0399   33.1601   44.0840 H   0  0  0  0  0  0  0  0  0  0  0  0
   57.7560   31.8430   42.9780 C   0  0  0  0  0  0  0  0  0  0  0  0
   57.1460   30.9530   43.1921 H   0  0  0  0  0  0  0  0  0  0  0  0
   57.1614   32.5641   42.3980 H   0  0  0  0  0  0  0  0  0  0  0  0
   58.6431   31.5487   42.3980 H   0  0  0  0  0  0  0  0  0  0  0  0
   58.2770   30.0990   45.0630 C   0  0  0  0  0  0  0  0  0  0  0  0
   57.6262   29.8566   44.2100 H   0  0  0  0  0  0  0  0  0  0  0  0
   58.7160   29.0580   45.9080 C   0  0  0  0  0  0  0  0  0  0  0  0
   58.4510   27.7890   45.5030 C   0  0  0  0  0  0  0  0  0  0  0  0
   59.1932   27.3086   44.8485 H   0  0  0  0  0  0  0  0  0  0  0  0
   57.2590   26.9950   45.8600 C   0  0  0  0  0  0  0  0  0  0  0  0
   57.2850   25.7290   46.3190 N   0  0  0  0  0  0  0  0  0  0  0  0
   55.9780   25.3950   46.3880 C   0  0  0  0  0  0  0  0  0  0  0  0
   55.5860   24.2710   46.7940 O   0  0  0  0  0  0  0  0  0  0  0  0
   55.1240   26.3590   45.9800 N   0  0  0  0  0  0  0  0  0  0  0  0
   55.9530   27.3580   45.6370 C   0  0  0  0  0  0  0  0  0  0  0  0
   55.5240   28.5780   45.1280 O   0  0  0  0  0  0  0  0  0  0  0  0
   59.4260   29.4110   47.0990 C   0  0  0  0  0  0  0  0  0  0  0  0
   59.5940   28.5730   48.1370 C   0  0  0  0  0  0  0  0  0  0  0  0
   59.2731   27.5241   48.0546 H   0  0  0  0  0  0  0  0  0  0  0  0
   60.0523   28.9364   49.0686 H   0  0  0  0  0  0  0  0  0  0  0  0
   59.8570   30.7400   47.2670 C   0  0  0  0  0  0  0  0  0  0  0  0
   60.5103   30.9907   48.1157 H   0  0  0  0  0  0  0  0  0  0  0  0
  1  2  1  0
  2  3  2  3
  3  4  1  0
  4  5  1  0
  5  6  2  0
  5  7  1  0
  7  8  1  0
  8  9  2  0
  2 10  1  0
 10 11  1  0
 11 12  1  0
 12 13  1  0
 12 14  1  0
 12 15  1  0
 15 16  1  0
 15 17  1  0
 15 18  1  0
 11 19  2  0
 19 20  1  0
 19 21  1  0
 21 22  2  0
 22 23  1  0
 22 24  1  0
 24 25  1  0
 25 26  1  0
 26 27  2  0
 26 28  1  0
 28 29  1  0
 29 30  1  0
 21 31  1  0
 31 32  2  0
 32 33  1  0
 32 34  1  0
 31 35  1  0
 35 36  1  0
  8  3  1  0
 35 10  2  0
 29 24  2  0
M  CHG  4   7  -1  25  -1  28  -1  30  -1
M  END
>  <UniqueID>  (65) 
61

>  <SMILES>  (65) 
C=c1cc(C=C2SC(=O)[N-]C2=O)c(CC)c/c1=C/c1[n-]c(=O)[n-]c1[O-]

>  <Energy>  (65) 
112.37462694046773

>  <Genealogy>  (65) 
C=c1cc(C=C2SC(=O)[N-]C2=O)c(CC)cc1=Cc1[n-]c(=O)[n-]c1[O-] (protonated)
C=c1cc(C=C2SC(=O)[N-]C2=O)c(CC)c/c1=C/c1[n-]c(=O)[n-]c1[O-] (cis-trans isomerization)
C=c1cc(C=C2SC(=O)[N-]C2=O)c(CC)c/c1=C/c1[n-]c(=O)[n-]c1[O-] (3D coordinates assigned)
C=c1cc(C=C2SC(=O)[N-]C2=O)c(CC)c/c1=C/c1[n-]c(=O)[n-]c1[O-] (nonaromatic ring conformer: 112.37462694046773 kcal/mol)

>  <smiles>  (65) 
C=c1cc(C=C2SC(=O)NC2=O)c(CC)cc1=Cc1[nH]c(=O)[nH]c1O

>  <score_type>  (65) 
oracle

>  <origin>  (65) 
adg

>  <m_score__min__energy>  (65) 
-16.879999999999999

>  <m_primary>  (65) 
energy

$$$$
65:0
     RDKit          3D

 43 45  0  0  0  0  0  0  0  0999 V2000
   56.6780   34.9290   44.8560 O   0  0  0  0  0  0  0  0  0  0  0  0
   57.6110   34.1330   45.1500 C   0  0  0  0  0  0  0  0  0  0  0  0
   57.3030   32.6790   45.3380 C   0  0  0  0  0  0  0  0  0  0  0  0
   57.4600   31.8920   44.0280 C   0  0  0  0  0  0  0  0  0  0  0  0
   57.0640   30.4390   44.1820 C   0  0  0  0  0  0  0  0  0  0  0  0
   55.9110   30.1780   44.5010 O   0  0  0  0  0  0  0  0  0  0  0  0
   58.0320   29.3720   43.9680 N   0  0  2  0  0  0  0  0  0  0  0  0
   57.5490   28.0600   44.4570 C   0  0  0  0  0  0  0  0  0  0  0  0
   57.4340   27.9800   45.9920 C   0  0  0  0  0  0  0  0  0  0  0  0
   58.5460   28.6960   46.7060 C   0  0  0  0  0  0  0  0  0  0  0  0
   58.6610   28.5560   48.0540 N   0  0  0  0  0  0  0  0  0  0  0  0
   59.6160   29.2240   48.7520 C   0  0  0  0  0  0  0  0  0  0  0  0
   59.7040   29.0700   49.9970 O   0  0  0  0  0  0  0  0  0  0  0  0
   60.4770   30.0520   48.1060 N   0  0  0  0  0  0  0  0  0  0  0  0
   60.3970   30.2310   46.7630 C   0  0  0  0  0  0  0  0  0  0  0  0
   59.4130   29.5670   46.0250 C   0  0  0  0  0  0  0  0  0  0  0  0
   59.3590   29.7050   44.5260 C   0  0  0  0  0  0  0  0  0  0  0  0
   58.9780   34.5700   45.2040 N   0  0  0  0  0  0  0  0  0  0  0  0
   59.6480   34.9990   46.2360 C   0  0  0  0  0  0  0  0  0  0  0  0
   60.6410   34.1950   46.9760 C   0  0  0  0  0  0  0  0  0  0  0  0
   61.8620   33.8430   46.3780 C   0  0  0  0  0  0  0  0  0  0  0  0
   62.8200   33.1270   47.1030 C   0  0  0  0  0  0  0  0  0  0  0  0
   62.5740   32.7790   48.4330 C   0  0  0  0  0  0  0  0  0  0  0  0
   61.3780   33.1590   49.0460 C   0  0  0  0  0  0  0  0  0  0  0  0
   60.4140   33.8710   48.3220 C   0  0  0  0  0  0  0  0  0  0  0  0
   59.2580   34.2320   48.9330 F   0  0  0  0  0  0  0  0  0  0  0  0
   57.9909   32.2629   46.0887 H   0  0  0  0  0  0  0  0  0  0  0  0
   56.2579   32.5894   45.6692 H   0  0  0  0  0  0  0  0  0  0  0  0
   56.8225   32.3532   43.2593 H   0  0  0  0  0  0  0  0  0  0  0  0
   58.5213   31.9238   43.7404 H   0  0  0  0  0  0  0  0  0  0  0  0
   58.1730   29.2610   42.9360 H   0  0  0  0  0  0  0  0  0  0  0  0
   56.5560   27.8709   44.0232 H   0  0  0  0  0  0  0  0  0  0  0  0
   58.2895   27.3073   44.1485 H   0  0  0  0  0  0  0  0  0  0  0  0
   56.4770   28.4298   46.2950 H   0  0  0  0  0  0  0  0  0  0  0  0
   57.4970   26.9176   46.2701 H   0  0  0  0  0  0  0  0  0  0  0  0
   61.1074   30.8995   46.2547 H   0  0  0  0  0  0  0  0  0  0  0  0
   59.6015   30.7444   44.2597 H   0  0  0  0  0  0  0  0  0  0  0  0
   60.0844   28.9953   44.1016 H   0  0  0  0  0  0  0  0  0  0  0  0
   59.4616   36.0276   46.5783 H   0  0  0  0  0  0  0  0  0  0  0  0
   62.0655   34.1313   45.3361 H   0  0  0  0  0  0  0  0  0  0  0  0
   63.7678   32.8378   46.6254 H   0  0  0  0  0  0  0  0  0  0  0  0
   63.3230   32.2050   48.9983 H   0  0  0  0  0  0  0  0  0  0  0  0
   61.1932   32.8987   50.0986 H   0  0  0  0  0  0  0  0  0  0  0  0
  1  2  2  0
  2  3  1  0
  3  4  1  0
  4  5  1  0
  5  6  2  0
  5  7  1  0
  7  8  1  0
  8  9  1  0
  9 10  1  0
 10 11  1  0
 11 12  1  0
 12 13  2  0
 12 14  1  0
 14 15  2  0
 15 16  1  0
 16 17  1  0
  2 18  1  0
 18 19  2  3
 19 20  1  0
 20 21  2  0
 21 22  1  0
 22 23  2  0
 23 24  1  0
 24 25  2  0
 25 26  1  0
 17  7  1  0
 25 20  1  0
 16 10  2  0
  3 27  1  0
  3 28  1  0
  4 29  1  0
  4 30  1  0
  7 31  1  6
  8 32  1  0
  8 33  1  0
  9 34  1  0
  9 35  1  0
 15 36  1  0
 17 37  1  0
 17 38  1  0
 19 39  1  0
 21 40  1  0
 22 41  1  0
 23 42  1  0
 24 43  1  0
M  CHG  2   7   1  11  -1
M  END
>  <UniqueID>  (66) 
62

>  <SMILES>  (66) 
O=C(CCC(=O)[N@@H+]1CCc2[n-]c(=O)ncc2C1)N=Cc1ccccc1F

>  <Energy>  (66) 
56.70814785773022

>  <Genealogy>  (66) 
O=C(CCC(=O)[NH+]1CCc2[n-]c(=O)ncc2C1)N=Cc1ccccc1F (protonated)
O=C(CCC(=O)[N@@H+]1CCc2[n-]c(=O)ncc2C1)N=Cc1ccccc1F (chirality)
O=C(CCC(=O)[N@@H+]1CCc2[n-]c(=O)ncc2C1)N=Cc1ccccc1F (3D coordinates assigned)
O=C(CCC(=O)[N@@H+]1CCc2[n-]c(=O)ncc2C1)N=Cc1ccccc1F (nonaromatic ring conformer: 56.70814785773022 kcal/mol)

>  <smiles>  (66) 
O=C(CCC(=O)N1CCc2[nH]c(=O)ncc2C1)N=Cc1ccccc1F

>  <score_type>  (66) 
oracle

>  <origin>  (66) 
adg

>  <m_score__min__energy>  (66) 
-8.3000000000000007

>  <m_primary>  (66) 
energy

$$$$
66:0
     RDKit          3D

 53 56  0  0  0  0  0  0  0  0999 V2000
   55.9000   21.1660   43.4030 O   0  0  0  0  0  0  0  0  0  0  0  0
   56.8870   21.8070   43.8520 C   0  0  0  0  0  0  0  0  0  0  0  0
   58.2950   21.3080   43.8530 C   0  0  0  0  0  0  0  0  0  0  0  0
   59.1040   22.4550   44.5040 C   0  0  0  0  0  0  0  0  0  0  0  0
   58.0820   23.5040   44.8130 C   0  0  0  0  0  0  0  0  0  0  0  0
   58.3010   24.7370   45.4270 C   0  0  0  0  0  0  0  0  0  0  0  0
   57.2010   25.5830   45.6750 C   0  0  0  0  0  0  0  0  0  0  0  0
   57.3930   26.8810   46.4220 C   0  0  0  0  0  0  0  0  0  0  0  0
   57.5030   28.1000   45.4790 C   0  0  1  0  0  0  0  0  0  0  0  0
   56.2980   28.9250   45.5530 N   0  0  0  0  0  0  0  0  0  0  0  0
   55.7880   29.7160   44.4740 C   0  0  0  0  0  0  0  0  0  0  0  0
   54.7750   29.3340   43.8270 O   0  0  0  0  0  0  0  0  0  0  0  0
   56.4460   31.0250   44.1500 C   0  0  2  0  0  0  0  0  0  0  0  0
   57.4060   30.8490   42.9590 C   0  0  0  0  0  0  0  0  0  0  0  0
   58.0520   32.1880   42.5640 C   0  0  0  0  0  0  0  0  0  0  0  0
   58.1940   33.1530   43.7530 C   0  0  0  0  0  0  0  0  0  0  0  0
   58.3190   32.3850   45.0740 C   0  0  0  0  0  0  0  0  0  0  0  0
   57.1350   31.5490   45.3520 N   0  0  0  0  0  0  0  0  0  0  0  0
   58.7490   28.9130   45.7810 C   0  0  0  0  0  0  0  0  0  0  0  0
   59.4280   29.3420   44.8100 O   0  0  0  0  0  0  0  0  0  0  0  0
   59.2620   29.1390   47.1530 C   0  0  0  0  0  0  0  0  0  0  0  0
   58.9140   30.3100   47.8430 C   0  0  0  0  0  0  0  0  0  0  0  0
   59.3970   30.5340   49.1340 C   0  0  0  0  0  0  0  0  0  0  0  0
   60.2030   29.5680   49.7380 C   0  0  0  0  0  0  0  0  0  0  0  0
   60.4970   28.4170   49.0770 N   0  0  0  0  0  0  0  0  0  0  0  0
   60.0460   28.1800   47.8170 C   0  0  0  0  0  0  0  0  0  0  0  0
   55.9080   25.1810   45.2660 C   0  0  0  0  0  0  0  0  0  0  0  0
   55.7110   23.9400   44.6450 C   0  0  0  0  0  0  0  0  0  0  0  0
   56.8210   23.1210   44.4380 C   0  0  0  0  0  0  0  0  0  0  0  0
   58.3813   20.3849   44.4450 H   0  0  0  0  0  0  0  0  0  0  0  0
   58.6544   21.0592   42.8436 H   0  0  0  0  0  0  0  0  0  0  0  0
   59.5974   22.1094   45.4244 H   0  0  0  0  0  0  0  0  0  0  0  0
   59.9030   22.8293   43.8471 H   0  0  0  0  0  0  0  0  0  0  0  0
   59.3174   25.0449   45.7136 H   0  0  0  0  0  0  0  0  0  0  0  0
   56.5345   27.0313   47.0931 H   0  0  0  0  0  0  0  0  0  0  0  0
   58.3375   26.8065   46.9809 H   0  0  0  0  0  0  0  0  0  0  0  0
   57.5924   27.7273   44.4479 H   0  0  0  0  0  0  0  0  0  0  0  0
   55.6870   31.7640   43.8535 H   0  0  0  0  0  0  0  0  0  0  0  0
   58.1970   30.1372   43.2376 H   0  0  0  0  0  0  0  0  0  0  0  0
   56.8309   30.4724   42.1002 H   0  0  0  0  0  0  0  0  0  0  0  0
   59.0521   31.9880   42.1519 H   0  0  0  0  0  0  0  0  0  0  0  0
   57.3950   32.6679   41.8237 H   0  0  0  0  0  0  0  0  0  0  0  0
   59.0932   33.7702   43.6096 H   0  0  0  0  0  0  0  0  0  0  0  0
   57.2951   33.7853   43.7997 H   0  0  0  0  0  0  0  0  0  0  0  0
   59.2057   31.7361   45.0230 H   0  0  0  0  0  0  0  0  0  0  0  0
   58.4065   33.1234   45.8847 H   0  0  0  0  0  0  0  0  0  0  0  0
   56.4470   32.1210   45.8990 H   0  0  0  0  0  0  0  0  0  0  0  0
   58.2589   31.0537   47.3657 H   0  0  0  0  0  0  0  0  0  0  0  0
   59.1450   31.4616   49.6689 H   0  0  0  0  0  0  0  0  0  0  0  0
   60.6006   29.7380   50.7494 H   0  0  0  0  0  0  0  0  0  0  0  0
   60.2956   27.2337   47.3148 H   0  0  0  0  0  0  0  0  0  0  0  0
   55.0500   25.8478   45.4367 H   0  0  0  0  0  0  0  0  0  0  0  0
   54.7071   23.6202   44.3291 H   0  0  0  0  0  0  0  0  0  0  0  0
  1  2  2  0
  2  3  1  0
  3  4  1  0
  4  5  1  0
  5  6  2  0
  6  7  1  0
  7  8  1  0
  8  9  1  0
  9 10  1  0
 10 11  1  0
 11 12  2  0
 11 13  1  0
 13 14  1  0
 14 15  1  0
 15 16  1  0
 16 17  1  0
 17 18  1  0
  9 19  1  0
 19 20  2  0
 19 21  1  0
 21 22  2  0
 22 23  1  0
 23 24  2  0
 24 25  1  0
 25 26  2  0
  7 27  2  0
 27 28  1  0
 28 29  2  0
 29  2  1  0
 29  5  1  0
 18 13  1  0
 26 21  1  0
  3 30  1  0
  3 31  1  0
  4 32  1  0
  4 33  1  0
  6 34  1  0
  8 35  1  0
  8 36  1  0
  9 37  1  6
 13 38  1  6
 14 39  1  0
 14 40  1  0
 15 41  1  0
 15 42  1  0
 16 43  1  0
 16 44  1  0
 17 45  1  0
 17 46  1  0
 18 47  1  0
 22 48  1  0
 23 49  1  0
 24 50  1  0
 26 51  1  0
 27 52  1  0
 28 53  1  0
M  CHG  1  10  -1
M  END
>  <UniqueID>  (67) 
63

>  <SMILES>  (67) 
O=C1CCc2cc(C[C@@H]([N-]C(=O)[C@@H]3CCCCN3)C(=O)c3cccnc3)ccc21

>  <Energy>  (67) 
73.69269140083969

>  <Genealogy>  (67) 
O=C1CCc2cc(CC([N-]C(=O)C3CCCCN3)C(=O)c3cccnc3)ccc21 (protonated)
O=C1CCc2cc(C[C@@H]([N-]C(=O)[C@@H]3CCCCN3)C(=O)c3cccnc3)ccc21 (chirality)
O=C1CCc2cc(C[C@@H]([N-]C(=O)[C@@H]3CCCCN3)C(=O)c3cccnc3)ccc21 (3D coordinates assigned)
O=C1CCc2cc(C[C@@H]([N-]C(=O)[C@@H]3CCCCN3)C(=O)c3cccnc3)ccc21 (nonaromatic ring conformer: 73.69269140083969 kcal/mol)

>  <smiles>  (67) 
O=C1CCc2cc(CC(NC(=O)C3CCCCN3)C(=O)c3cccnc3)ccc21

>  <score_type>  (67) 
oracle

>  <origin>  (67) 
adg

>  <m_score__min__energy>  (67) 
-11.220000000000001

>  <m_primary>  (67) 
energy

$$$$
67:0
     RDKit          3D

 49 51  0  0  0  0  0  0  0  0999 V2000
   57.0330   31.4800   42.9680 O   0  0  0  0  0  0  0  0  0  0  0  0
   56.6830   30.7820   43.9570 C   0  0  0  0  0  0  0  0  0  0  0  0
   55.6650   29.6980   43.7690 C   0  0  0  0  0  0  0  0  0  0  0  0
   55.5380   28.9040   44.9870 N   0  0  0  0  0  0  0  0  0  0  0  0
   56.5090   27.9380   45.4060 C   0  0  0  0  0  0  0  0  0  0  0  0
   57.7400   28.1950   45.3060 O   0  0  0  0  0  0  0  0  0  0  0  0
   56.0650   26.6520   45.9680 C   0  0  0  0  0  0  0  0  0  0  0  0
   54.8340   26.3850   46.0020 O   0  0  0  0  0  0  0  0  0  0  0  0
   56.9910   25.7160   46.5400 N   0  0  0  0  0  0  0  0  0  0  0  0
   57.6380   24.6440   45.8400 C   0  0  0  0  0  0  0  0  0  0  0  0
   58.9860   24.3690   46.1090 C   0  0  0  0  0  0  0  0  0  0  0  0
   59.6390   23.3220   45.4520 C   0  0  0  0  0  0  0  0  0  0  0  0
   58.9420   22.5270   44.5370 C   0  0  0  0  0  0  0  0  0  0  0  0
   57.5880   22.7730   44.2850 C   0  0  0  0  0  0  0  0  0  0  0  0
   56.6260   21.6650   43.0600 Br  0  0  0  0  0  0  0  0  0  0  0  0
   56.9350   23.8260   44.9360 C   0  0  0  0  0  0  0  0  0  0  0  0
   57.2900   30.9840   45.2430 N   0  0  0  0  0  0  0  0  0  0  0  0
   58.0470   32.1590   45.5980 C   0  0  0  0  0  0  0  0  0  0  0  0
   57.8800   33.3580   44.8790 C   0  0  0  0  0  0  0  0  0  0  0  0
   58.5580   34.5160   45.2620 C   0  0  0  0  0  0  0  0  0  0  0  0
   59.4050   34.4990   46.3700 C   0  0  0  0  0  0  0  0  0  0  0  0
   59.5710   33.3230   47.1030 C   0  0  0  0  0  0  0  0  0  0  0  0
   58.8920   32.1510   46.7340 C   0  0  0  0  0  0  0  0  0  0  0  0
   59.1000   30.9220   47.5260 C   0  0  0  0  0  0  0  0  0  0  0  0
   58.8690   30.9450   48.7660 O   0  0  0  0  0  0  0  0  0  0  0  0
   59.5770   29.7120   46.9130 N   0  0  0  0  0  0  0  0  0  0  0  0
   59.6270   28.4410   47.6120 C   0  0  0  0  0  0  0  0  0  0  0  0
   60.1700   27.4370   46.6030 C   0  0  0  0  0  0  0  0  0  0  0  0
   60.7920   28.2620   45.4790 C   0  0  0  0  0  0  0  0  0  0  0  0
   60.1800   29.6530   45.5920 C   0  0  0  0  0  0  0  0  0  0  0  0
   54.6922   30.1518   43.5288 H   0  0  0  0  0  0  0  0  0  0  0  0
   55.9888   29.0424   42.9472 H   0  0  0  0  0  0  0  0  0  0  0  0
   59.5332   24.9807   46.8414 H   0  0  0  0  0  0  0  0  0  0  0  0
   60.7017   23.1235   45.6550 H   0  0  0  0  0  0  0  0  0  0  0  0
   59.4584   21.7079   44.0151 H   0  0  0  0  0  0  0  0  0  0  0  0
   55.8691   24.0148   44.7404 H   0  0  0  0  0  0  0  0  0  0  0  0
   57.1970   30.2200   45.9470 H   0  0  0  0  0  0  0  0  0  0  0  0
   57.2091   33.3821   44.0076 H   0  0  0  0  0  0  0  0  0  0  0  0
   58.4240   35.4450   44.6884 H   0  0  0  0  0  0  0  0  0  0  0  0
   59.9420   35.4122   46.6660 H   0  0  0  0  0  0  0  0  0  0  0  0
   60.2392   33.3144   47.9768 H   0  0  0  0  0  0  0  0  0  0  0  0
   60.2949   28.5085   48.4834 H   0  0  0  0  0  0  0  0  0  0  0  0
   58.6363   28.1445   47.9870 H   0  0  0  0  0  0  0  0  0  0  0  0
   60.9310   26.7967   47.0730 H   0  0  0  0  0  0  0  0  0  0  0  0
   59.3755   26.7767   46.2251 H   0  0  0  0  0  0  0  0  0  0  0  0
   61.8839   28.3136   45.6017 H   0  0  0  0  0  0  0  0  0  0  0  0
   60.5958   27.8139   44.4938 H   0  0  0  0  0  0  0  0  0  0  0  0
   60.9584   30.4237   45.4911 H   0  0  0  0  0  0  0  0  0  0  0  0
   59.4395   29.8360   44.7995 H   0  0  0  0  0  0  0  0  0  0  0  0
  1  2  2  0
  2  3  1  0
  3  4  1  0
  4  5  1  0
  5  6  2  0
  5  7  1  0
  7  8  2  0
  7  9  1  0
  9 10  1  0
 10 11  2  0
 11 12  1  0
 12 13  2  0
 13 14  1  0
 14 15  1  0
 14 16  2  0
  2 17  1  0
 17 18  1  0
 18 19  2  0
 19 20  1  0
 20 21  2  0
 21 22  1  0
 22 23  2  0
 23 24  1  0
 24 25  2  0
 24 26  1  0
 26 27  1  0
 27 28  1  0
 28 29  1  0
 29 30  1  0
 16 10  1  0
 23 18  1  0
 30 26  1  0
  3 31  1  0
  3 32  1  0
 11 33  1  0
 12 34  1  0
 13 35  1  0
 16 36  1  0
 17 37  1  0
 19 38  1  0
 20 39  1  0
 21 40  1  0
 22 41  1  0
 27 42  1  0
 27 43  1  0
 28 44  1  0
 28 45  1  0
 29 46  1  0
 29 47  1  0
 30 48  1  0
 30 49  1  0
M  CHG  2   4  -1   9  -1
M  END
>  <UniqueID>  (68) 
64

>  <SMILES>  (68) 
O=C(C[N-]C(=O)C(=O)[N-]c1cccc(Br)c1)Nc1ccccc1C(=O)N1CCCC1

>  <Energy>  (68) 
61.2561276701488

>  <Genealogy>  (68) 
O=C(C[N-]C(=O)C(=O)[N-]c1cccc(Br)c1)Nc1ccccc1C(=O)N1CCCC1 (protonated)
O=C(C[N-]C(=O)C(=O)[N-]c1cccc(Br)c1)Nc1ccccc1C(=O)N1CCCC1 (3D coordinates assigned)
O=C(C[N-]C(=O)C(=O)[N-]c1cccc(Br)c1)Nc1ccccc1C(=O)N1CCCC1 (nonaromatic ring conformer: 61.2561276701488 kcal/mol)

>  <smiles>  (68) 
O=C(CNC(=O)C(=O)Nc1cccc(Br)c1)Nc1ccccc1C(=O)N1CCCC1

>  <score_type>  (68) 
oracle

>  <origin>  (68) 
adg

>  <m_score__min__energy>  (68) 
-12.720000000000001

>  <m_primary>  (68) 
energy

$$$$
68:0
     RDKit          3D

 58 61  0  0  0  0  0  0  0  0999 V2000
   54.1200   28.0090   53.1090 C   0  0  0  0  0  0  0  0  0  0  0  0
   54.7150   29.1330   52.6740 C   0  0  0  0  0  0  0  0  0  0  0  0
   54.0920   30.2030   52.0160 C   0  0  0  0  0  0  0  0  0  0  0  0
   52.8630   30.3100   51.4710 C   0  0  0  0  0  0  0  0  0  0  0  0
   51.7800   31.1740   51.9710 C   0  0  0  0  0  0  0  0  0  0  0  0
   51.4860   31.3120   53.2760 N   0  0  0  0  0  0  0  0  0  0  0  0
   50.5240   32.2570   53.2800 C   0  0  0  0  0  0  0  0  0  0  0  0
   49.9740   32.6580   54.3370 O   0  0  0  0  0  0  0  0  0  0  0  0
   50.2050   32.7490   52.0640 N   0  0  0  0  0  0  0  0  0  0  0  0
   51.0190   32.0660   51.2430 C   0  0  0  0  0  0  0  0  0  0  0  0
   51.0780   32.2890   49.8700 O   0  0  0  0  0  0  0  0  0  0  0  0
   55.0220   31.2230   51.9660 C   0  0  0  0  0  0  0  0  0  0  0  0
   56.1900   30.7380   52.5220 C   0  0  0  0  0  0  0  0  0  0  0  0
   57.4310   31.5380   52.6280 C   0  0  0  0  0  0  0  0  0  0  0  0
   57.3850   32.7950   52.6860 O   0  0  0  0  0  0  0  0  0  0  0  0
   58.7010   30.8680   52.6420 N   0  0  0  0  0  0  0  0  0  0  0  0
   59.5620   30.6500   51.4750 C   0  0  0  0  0  0  0  0  0  0  0  0
   59.7980   31.9750   50.7300 C   0  0  0  0  0  0  0  0  0  0  0  0
   60.5980   31.7630   49.4320 C   0  0  0  0  0  0  0  0  0  0  0  0
   60.2060   30.5470   48.6600 N   0  0  0  0  0  0  0  0  0  0  0  0
   60.1830   30.8080   47.2050 C   0  0  0  0  0  0  0  0  0  0  0  0
   59.7490   32.2230   46.9190 C   0  0  0  0  0  0  0  0  0  0  0  0
   60.7100   33.2160   46.6550 C   0  0  0  0  0  0  0  0  0  0  0  0
   60.3110   34.5300   46.3850 C   0  0  0  0  0  0  0  0  0  0  0  0
   58.9540   34.8620   46.3810 C   0  0  0  0  0  0  0  0  0  0  0  0
   57.9920   33.8800   46.6440 C   0  0  0  0  0  0  0  0  0  0  0  0
   58.3860   32.5650   46.9150 C   0  0  0  0  0  0  0  0  0  0  0  0
   58.9190   29.9700   49.0920 C   0  0  0  0  0  0  0  0  0  0  0  0
   59.0020   29.5360   50.5590 C   0  0  0  0  0  0  0  0  0  0  0  0
   56.0150   29.4520   52.9330 N   0  0  0  0  0  0  0  0  0  0  0  0
   57.0170   28.5860   53.5760 C   0  0  0  0  0  0  0  0  0  0  0  0
   57.2040   28.9750   55.0410 C   0  0  0  0  0  0  0  0  0  0  0  0
   54.7132   27.2332   53.6151 H   0  0  0  0  0  0  0  0  0  0  0  0
   53.0398   27.8650   52.9589 H   0  0  0  0  0  0  0  0  0  0  0  0
   52.6519   29.7016   50.5792 H   0  0  0  0  0  0  0  0  0  0  0  0
   51.7680   31.8330   49.2870 H   0  0  0  0  0  0  0  0  0  0  0  0
   54.8625   32.2326   51.5595 H   0  0  0  0  0  0  0  0  0  0  0  0
   60.5430   30.2925   51.8210 H   0  0  0  0  0  0  0  0  0  0  0  0
   58.8244   32.4218   50.4799 H   0  0  0  0  0  0  0  0  0  0  0  0
   60.3791   32.6391   51.3867 H   0  0  0  0  0  0  0  0  0  0  0  0
   60.4493   32.6425   48.7882 H   0  0  0  0  0  0  0  0  0  0  0  0
   61.6479   31.6227   49.7286 H   0  0  0  0  0  0  0  0  0  0  0  0
   61.1915   30.6508   46.7949 H   0  0  0  0  0  0  0  0  0  0  0  0
   59.4656   30.1187   46.7357 H   0  0  0  0  0  0  0  0  0  0  0  0
   61.7794   32.9586   46.6608 H   0  0  0  0  0  0  0  0  0  0  0  0
   61.0663   35.3018   46.1758 H   0  0  0  0  0  0  0  0  0  0  0  0
   58.6415   35.8956   46.1711 H   0  0  0  0  0  0  0  0  0  0  0  0
   56.9238   34.1426   46.6376 H   0  0  0  0  0  0  0  0  0  0  0  0
   57.6270   31.7971   47.1254 H   0  0  0  0  0  0  0  0  0  0  0  0
   58.1263   30.7244   48.9802 H   0  0  0  0  0  0  0  0  0  0  0  0
   58.6911   29.0922   48.4694 H   0  0  0  0  0  0  0  0  0  0  0  0
   57.9929   29.2683   50.9054 H   0  0  0  0  0  0  0  0  0  0  0  0
   59.6894   28.6791   50.6159 H   0  0  0  0  0  0  0  0  0  0  0  0
   56.6802   27.5403   53.5199 H   0  0  0  0  0  0  0  0  0  0  0  0
   57.9769   28.7056   53.0524 H   0  0  0  0  0  0  0  0  0  0  0  0
   56.8179   28.1718   55.6858 H   0  0  0  0  0  0  0  0  0  0  0  0
   58.2739   29.1276   55.2462 H   0  0  0  0  0  0  0  0  0  0  0  0
   56.6549   29.9058   55.2462 H   0  0  0  0  0  0  0  0  0  0  0  0
  1  2  2  0
  2  3  1  0
  3  4  2  3
  4  5  1  0
  5  6  1  0
  6  7  1  0
  7  8  2  0
  7  9  1  0
  9 10  1  0
 10 11  1  0
  3 12  1  0
 12 13  2  0
 13 14  1  0
 14 15  2  0
 14 16  1  0
 16 17  1  0
 17 18  1  0
 18 19  1  0
 19 20  1  0
 20 21  1  0
 21 22  1  0
 22 23  2  0
 23 24  1  0
 24 25  2  0
 25 26  1  0
 26 27  2  0
 20 28  1  0
 28 29  1  0
 13 30  1  0
 30 31  1  0
 31 32  1  0
 30  2  1  0
 10  5  2  0
 29 17  1  0
 27 22  1  0
  1 33  1  0
  1 34  1  0
  4 35  1  0
 11 36  1  0
 12 37  1  0
 17 38  1  0
 18 39  1  0
 18 40  1  0
 19 41  1  0
 19 42  1  0
 21 43  1  0
 21 44  1  0
 23 45  1  0
 24 46  1  0
 25 47  1  0
 26 48  1  0
 27 49  1  0
 28 50  1  0
 28 51  1  0
 29 52  1  0
 29 53  1  0
 31 54  1  0
 31 55  1  0
 32 56  1  0
 32 57  1  0
 32 58  1  0
M  CHG  3   6  -1   9  -1  16  -1
M  END
>  <UniqueID>  (69) 
65

>  <SMILES>  (69) 
C=c1c(=Cc2[n-]c(=O)[n-]c2O)cc(C(=O)[N-]C2CCN(Cc3ccccc3)CC2)n1CC

>  <Energy>  (69) 
137.60236874057296

>  <Genealogy>  (69) 
C=c1c(=Cc2[n-]c(=O)[n-]c2O)cc(C(=O)[N-]C2CCN(Cc3ccccc3)CC2)n1CC (protonated)
C=c1c(=Cc2[n-]c(=O)[n-]c2O)cc(C(=O)[N-]C2CCN(Cc3ccccc3)CC2)n1CC (3D coordinates assigned)
C=c1c(=Cc2[n-]c(=O)[n-]c2O)cc(C(=O)[N-]C2CCN(Cc3ccccc3)CC2)n1CC (nonaromatic ring conformer: 137.60236874057296 kcal/mol)

>  <smiles>  (69) 
C=c1c(=Cc2[nH]c(=O)[nH]c2O)cc(C(=O)NC2CCN(Cc3ccccc3)CC2)n1CC

>  <score_type>  (69) 
oracle

>  <origin>  (69) 
adg

>  <m_score__min__energy>  (69) 
-15.24

>  <m_primary>  (69) 
energy

$$$$
69:0
     RDKit          3D

 43 46  0  0  0  0  0  0  0  0999 V2000
   54.9940   29.6460   43.5860 N   0  0  0  0  0  0  0  0  0  0  0  0
   55.9810   29.7110   44.4200 C   0  0  0  0  0  0  0  0  0  0  0  0
   56.6520   30.8790   44.6000 N   0  0  0  0  0  0  0  0  0  0  0  0
   57.6890   30.9630   45.4730 C   0  0  0  0  0  0  0  0  0  0  0  0
   58.0960   29.8360   46.2020 C   0  0  0  0  0  0  0  0  0  0  0  0
   59.2250   29.9300   47.1660 C   0  0  0  0  0  0  0  0  0  0  0  0
   59.3650   29.0350   48.2370 C   0  0  0  0  0  0  0  0  0  0  0  0
   60.4480   29.1860   49.1150 C   0  0  0  0  0  0  0  0  0  0  0  0
   60.6120   28.3000   50.2390 N   0  0  0  0  0  0  0  0  0  0  0  0
   60.8030   26.8610   50.0390 C   0  0  0  0  0  0  0  0  0  0  0  0
   61.5880   26.2690   51.2160 C   0  0  0  0  0  0  0  0  0  0  0  0
   61.0090   26.6350   52.4560 O   0  0  0  0  0  0  0  0  0  0  0  0
   61.0810   28.0370   52.6240 C   0  0  0  0  0  0  0  0  0  0  0  0
   60.2210   28.7480   51.5780 C   0  0  0  0  0  0  0  0  0  0  0  0
   61.3480   30.1860   48.8980 N   0  0  0  0  0  0  0  0  0  0  0  0
   61.2050   31.0430   47.8520 C   0  0  0  0  0  0  0  0  0  0  0  0
   62.1630   32.0780   47.6370 N   0  0  0  0  0  0  0  0  0  0  0  0
   62.2380   33.5420   47.8100 C   0  0  0  0  0  0  0  0  0  0  0  0
   63.6430   33.6820   47.3030 C   0  0  0  0  0  0  0  0  0  0  0  0
   63.7430   34.3810   46.0840 O   0  0  0  0  0  0  0  0  0  0  0  0
   63.5510   32.1960   47.1470 C   0  0  0  0  0  0  0  0  0  0  0  0
   60.1570   30.9070   47.0020 N   0  0  0  0  0  0  0  0  0  0  0  0
   57.3790   28.6430   46.0010 C   0  0  0  0  0  0  0  0  0  0  0  0
   56.3460   28.6070   45.1210 N   0  0  0  0  0  0  0  0  0  0  0  0
   55.1300   29.3200   42.6040 H   0  0  0  0  0  0  0  0  0  0  0  0
   58.2128   31.9206   45.6091 H   0  0  0  0  0  0  0  0  0  0  0  0
   58.6351   28.2256   48.3861 H   0  0  0  0  0  0  0  0  0  0  0  0
   59.8215   26.3690   49.9711 H   0  0  0  0  0  0  0  0  0  0  0  0
   61.3670   26.6968   49.1090 H   0  0  0  0  0  0  0  0  0  0  0  0
   61.5891   25.1723   51.1307 H   0  0  0  0  0  0  0  0  0  0  0  0
   62.6146   26.6627   51.1821 H   0  0  0  0  0  0  0  0  0  0  0  0
   60.7194   28.3000   53.6290 H   0  0  0  0  0  0  0  0  0  0  0  0
   62.1264   28.3563   52.5009 H   0  0  0  0  0  0  0  0  0  0  0  0
   59.1613   28.5084   51.7501 H   0  0  0  0  0  0  0  0  0  0  0  0
   60.3686   29.8350   51.6589 H   0  0  0  0  0  0  0  0  0  0  0  0
   62.1710   30.2890   49.5290 H   0  0  0  0  0  0  0  0  0  0  0  0
   61.5062   34.0820   47.1913 H   0  0  0  0  0  0  0  0  0  0  0  0
   62.0212   33.9430   48.8111 H   0  0  0  0  0  0  0  0  0  0  0  0
   64.4476   34.1939   47.8512 H   0  0  0  0  0  0  0  0  0  0  0  0
   63.3970   33.8090   45.3520 H   0  0  0  0  0  0  0  0  0  0  0  0
   63.6625   31.8702   46.1023 H   0  0  0  0  0  0  0  0  0  0  0  0
   64.3162   31.5889   47.6528 H   0  0  0  0  0  0  0  0  0  0  0  0
   57.6561   27.7362   46.5586 H   0  0  0  0  0  0  0  0  0  0  0  0
  1  2  2  3
  2  3  1  0
  3  4  2  0
  4  5  1  0
  5  6  1  0
  6  7  2  0
  7  8  1  0
  8  9  1  0
  9 10  1  0
 10 11  1  0
 11 12  1  0
 12 13  1  0
 13 14  1  0
  8 15  2  0
 15 16  1  0
 16 17  1  0
 17 18  1  0
 18 19  1  0
 19 20  1  0
 19 21  1  0
 16 22  2  0
  5 23  2  0
 23 24  1  0
 24  2  1  0
 22  6  1  0
 14  9  1  0
 21 17  1  0
  1 25  1  0
  4 26  1  0
  7 27  1  0
 10 28  1  0
 10 29  1  0
 11 30  1  0
 11 31  1  0
 13 32  1  0
 13 33  1  0
 14 34  1  0
 14 35  1  0
 15 36  1  0
 18 37  1  0
 18 38  1  0
 19 39  1  0
 20 40  1  0
 21 41  1  0
 21 42  1  0
 23 43  1  0
M  CHG  2  15   1  24  -1
M  END
>  <UniqueID>  (70) 
66

>  <SMILES>  (70) 
N=c1ncc(-c2cc(N3CCOCC3)[nH+]c(N3CC(O)C3)n2)c[n-]1

>  <Energy>  (70) 
101.63957014052096

>  <Genealogy>  (70) 
N=c1ncc(-c2cc(N3CCOCC3)[nH+]c(N3CC(O)C3)n2)c[n-]1 (protonated)
N=c1ncc(-c2cc(N3CCOCC3)[nH+]c(N3CC(O)C3)n2)c[n-]1 (3D coordinates assigned)
N=c1ncc(-c2cc(N3CCOCC3)[nH+]c(N3CC(O)C3)n2)c[n-]1 (nonaromatic ring conformer: 101.63957014052096 kcal/mol)

>  <smiles>  (70) 
N=c1ncc(-c2cc(N3CCOCC3)nc(N3CC(O)C3)n2)c[nH]1

>  <score_type>  (70) 
oracle

>  <origin>  (70) 
adg

>  <m_score__min__energy>  (70) 
-7.0199999999999996

>  <m_primary>  (70) 
energy

$$$$
70:0
     RDKit          3D

 42 45  0  0  0  0  0  0  0  0999 V2000
   55.6040   26.7580   45.9570 N   0  0  0  0  0  0  0  0  0  0  0  0
   56.8570   27.4250   46.0910 C   0  0  0  0  0  0  0  0  0  0  0  0
   57.7600   26.9080   46.8000 O   0  0  0  0  0  0  0  0  0  0  0  0
   57.0760   28.7170   45.4100 C   0  0  0  0  0  0  0  0  0  0  0  0
   56.6450   28.9640   44.1530 N   0  0  0  0  0  0  0  0  0  0  0  0
   57.0470   30.2100   43.8570 C   0  0  0  0  0  0  0  0  0  0  0  0
   56.8850   30.8610   42.6360 C   0  0  0  0  0  0  0  0  0  0  0  0
   57.4330   32.1440   42.4950 C   0  0  0  0  0  0  0  0  0  0  0  0
   58.1120   32.7520   43.5690 C   0  0  0  0  0  0  0  0  0  0  0  0
   58.2500   32.0890   44.8080 C   0  0  0  0  0  0  0  0  0  0  0  0
   58.8660   32.8050   45.9340 C   0  0  0  0  0  0  0  0  0  0  0  0
   58.1900   33.0030   46.9780 O   0  0  0  0  0  0  0  0  0  0  0  0
   60.2380   33.2210   45.8330 N   0  0  0  0  0  0  0  0  0  0  0  0
   61.1390   33.3280   46.7690 C   0  0  0  0  0  0  0  0  0  0  0  0
   62.4770   33.4590   46.5770 N   0  0  0  0  0  0  0  0  0  0  0  0
   63.1520   33.5670   47.7520 C   0  0  0  0  0  0  0  0  0  0  0  0
   62.3500   33.5110   48.8870 C   0  0  0  0  0  0  0  0  0  0  0  0
   62.8150   33.6850   50.2980 C   0  0  0  0  0  0  0  0  0  0  0  0
   64.0580   32.8690   50.5380 C   0  0  0  0  0  0  0  0  0  0  0  0
   65.3230   33.4700   50.4180 C   0  0  0  0  0  0  0  0  0  0  0  0
   66.4830   32.7300   50.6780 C   0  0  0  0  0  0  0  0  0  0  0  0
   68.0590   33.4870   50.5250 Cl  0  0  0  0  0  0  0  0  0  0  0  0
   66.3860   31.3890   51.0630 C   0  0  0  0  0  0  0  0  0  0  0  0
   65.1320   30.7890   51.1940 C   0  0  0  0  0  0  0  0  0  0  0  0
   63.9700   31.5230   50.9370 C   0  0  0  0  0  0  0  0  0  0  0  0
   62.7620   30.9240   51.0870 F   0  0  0  0  0  0  0  0  0  0  0  0
   60.7450   33.3520   48.4020 S   0  0  0  0  0  0  0  0  0  0  0  0
   57.7170   30.7880   44.9130 C   0  0  0  0  0  0  0  0  0  0  0  0
   57.7610   29.8270   45.9200 C   0  0  0  0  0  0  0  0  0  0  0  0
   58.7370   29.8920   47.5720 Br  0  0  0  0  0  0  0  0  0  0  0  0
   54.7700   27.0660   46.5030 H   0  0  0  0  0  0  0  0  0  0  0  0
   56.1290   28.3090   43.5220 H   0  0  0  0  0  0  0  0  0  0  0  0
   56.3431   30.3826   41.8069 H   0  0  0  0  0  0  0  0  0  0  0  0
   57.3320   32.6792   41.5393 H   0  0  0  0  0  0  0  0  0  0  0  0
   58.5405   33.7569   43.4407 H   0  0  0  0  0  0  0  0  0  0  0  0
   62.9700   33.5040   45.6610 H   0  0  0  0  0  0  0  0  0  0  0  0
   64.2441   33.6888   47.8012 H   0  0  0  0  0  0  0  0  0  0  0  0
   63.0364   34.7471   50.4797 H   0  0  0  0  0  0  0  0  0  0  0  0
   62.0236   33.3451   50.9822 H   0  0  0  0  0  0  0  0  0  0  0  0
   65.4020   34.5256   50.1187 H   0  0  0  0  0  0  0  0  0  0  0  0
   67.2977   30.8068   51.2626 H   0  0  0  0  0  0  0  0  0  0  0  0
   65.0580   29.7351   51.5005 H   0  0  0  0  0  0  0  0  0  0  0  0
  1  2  1  0
  2  3  2  0
  2  4  1  0
  4  5  1  0
  5  6  1  0
  6  7  2  0
  7  8  1  0
  8  9  2  0
  9 10  1  0
 10 11  1  0
 11 12  2  0
 11 13  1  0
 13 14  2  3
 14 15  1  0
 15 16  1  0
 16 17  2  0
 17 18  1  0
 18 19  1  0
 19 20  2  0
 20 21  1  0
 21 22  1  0
 21 23  2  0
 23 24  1  0
 24 25  2  0
 25 26  1  0
 17 27  1  0
 10 28  2  0
 28 29  1  0
 29 30  1  0
 29  4  2  0
 28  6  1  0
 27 14  1  0
 25 19  1  0
  1 31  1  0
  5 32  1  0
  7 33  1  0
  8 34  1  0
  9 35  1  0
 15 36  1  0
 16 37  1  0
 18 38  1  0
 18 39  1  0
 20 40  1  0
 23 41  1  0
 24 42  1  0
M  CHG  1   1  -1
M  END
>  <UniqueID>  (71) 
67

>  <SMILES>  (71) 
[NH-]C(=O)c1[nH]c2cccc(C(=O)N=c3[nH]cc(Cc4cc(Cl)ccc4F)s3)c2c1Br

>  <Energy>  (71) 
120.22911804865095

>  <Genealogy>  (71) 
[NH-]C(=O)c1[nH]c2cccc(C(=O)N=c3[nH]cc(Cc4cc(Cl)ccc4F)s3)c2c1Br (protonated)
[NH-]C(=O)c1[nH]c2cccc(C(=O)N=c3[nH]cc(Cc4cc(Cl)ccc4F)s3)c2c1Br (3D coordinates assigned)
[NH-]C(=O)c1[nH]c2cccc(C(=O)N=c3[nH]cc(Cc4cc(Cl)ccc4F)s3)c2c1Br (optimized conformer: 120.22911804865095 kcal/mol)

>  <smiles>  (71) 
NC(=O)c1[nH]c2cccc(C(=O)N=c3[nH]cc(Cc4cc(Cl)ccc4F)s3)c2c1Br

>  <score_type>  (71) 
oracle

>  <origin>  (71) 
adg

>  <m_score__min__energy>  (71) 
-12.02

>  <m_primary>  (71) 
energy

$$$$
71:0
     RDKit          3D

 36 38  0  0  0  0  0  0  0  0999 V2000
   56.4390   29.9830   42.9490 C   0  0  0  0  0  0  0  0  0  0  0  0
   56.2540   29.8440   44.4210 C   0  0  0  0  0  0  0  0  0  0  0  0
   55.1560   29.4190   44.8720 O   0  0  0  0  0  0  0  0  0  0  0  0
   57.2640   30.2910   45.2820 O   0  0  0  0  0  0  0  0  0  0  0  0
   57.6720   31.6260   45.4330 C   0  0  0  0  0  0  0  0  0  0  0  0
   57.0180   32.6630   44.7430 C   0  0  0  0  0  0  0  0  0  0  0  0
   57.4190   33.9870   44.9060 C   0  0  0  0  0  0  0  0  0  0  0  0
   58.4700   34.3020   45.7650 C   0  0  0  0  0  0  0  0  0  0  0  0
   59.1270   33.2890   46.4820 C   0  0  0  0  0  0  0  0  0  0  0  0
   58.7270   31.9430   46.3230 C   0  0  0  0  0  0  0  0  0  0  0  0
   59.4460   30.8950   47.0980 C   0  0  0  0  0  0  0  0  0  0  0  0
   59.1320   29.6790   46.9980 O   0  0  0  0  0  0  0  0  0  0  0  0
   60.5500   31.2680   47.9980 C   0  0  0  0  0  0  0  0  0  0  0  0
   60.9270   32.5450   48.1570 C   0  0  0  0  0  0  0  0  0  0  0  0
   62.0580   32.8720   49.0580 C   0  0  0  0  0  0  0  0  0  0  0  0
   61.7910   33.0590   50.4250 C   0  0  0  0  0  0  0  0  0  0  0  0
   62.8060   33.4480   51.3010 C   0  0  0  0  0  0  0  0  0  0  0  0
   64.0970   33.6600   50.8230 C   0  0  0  0  0  0  0  0  0  0  0  0
   64.3830   33.4710   49.4700 C   0  0  0  0  0  0  0  0  0  0  0  0
   63.3790   33.0630   48.5730 C   0  0  0  0  0  0  0  0  0  0  0  0
   63.7190   32.8170   47.1950 N   0  0  0  0  0  0  0  0  0  0  0  0
   63.8380   31.6460   46.7770 O   0  0  0  0  0  0  0  0  0  0  0  0
   63.7560   33.8500   46.2880 O   0  0  0  0  0  0  0  0  0  0  0  0
   60.2370   33.6220   47.4080 C   0  0  0  0  0  0  0  0  0  0  0  0
   60.5850   34.8220   47.5740 O   0  0  0  0  0  0  0  0  0  0  0  0
   57.3036   30.6326   42.7478 H   0  0  0  0  0  0  0  0  0  0  0  0
   56.6145   28.9914   42.5063 H   0  0  0  0  0  0  0  0  0  0  0  0
   55.5355   30.4275   42.5063 H   0  0  0  0  0  0  0  0  0  0  0  0
   56.1821   32.4260   44.0684 H   0  0  0  0  0  0  0  0  0  0  0  0
   56.9039   34.7872   44.3543 H   0  0  0  0  0  0  0  0  0  0  0  0
   58.7865   35.3490   45.8820 H   0  0  0  0  0  0  0  0  0  0  0  0
   61.0786   30.4795   48.5537 H   0  0  0  0  0  0  0  0  0  0  0  0
   60.7727   32.8973   50.8084 H   0  0  0  0  0  0  0  0  0  0  0  0
   62.5860   33.5872   52.3697 H   0  0  0  0  0  0  0  0  0  0  0  0
   64.8927   33.9770   51.5132 H   0  0  0  0  0  0  0  0  0  0  0  0
   65.4049   33.6430   49.1009 H   0  0  0  0  0  0  0  0  0  0  0  0
  1  2  1  0
  2  3  2  0
  2  4  1  0
  4  5  1  0
  5  6  2  0
  6  7  1  0
  7  8  2  0
  8  9  1  0
  9 10  2  0
 10 11  1  0
 11 12  2  0
 11 13  1  0
 13 14  2  0
 14 15  1  0
 15 16  2  0
 16 17  1  0
 17 18  2  0
 18 19  1  0
 19 20  2  0
 20 21  1  0
 21 22  2  0
 21 23  1  0
 14 24  1  0
 24 25  2  0
 10  5  1  0
 20 15  1  0
 24  9  1  0
  1 26  1  0
  1 27  1  0
  1 28  1  0
  6 29  1  0
  7 30  1  0
  8 31  1  0
 13 32  1  0
 16 33  1  0
 17 34  1  0
 18 35  1  0
 19 36  1  0
M  CHG  2  21   1  23  -1
M  END
>  <UniqueID>  (72) 
68

>  <SMILES>  (72) 
CC(=O)Oc1cccc2c1C(=O)C=C(c1ccccc1[N+](=O)[O-])C2=O

>  <Energy>  (72) 
55.82208800266232

>  <Genealogy>  (72) 
CC(=O)Oc1cccc2c1C(=O)C=C(c1ccccc1[N+](=O)[O-])C2=O (3D coordinates assigned)
CC(=O)Oc1cccc2c1C(=O)C=C(c1ccccc1[N+](=O)[O-])C2=O (nonaromatic ring conformer: 55.82208800266232 kcal/mol)

>  <smiles>  (72) 
CC(=O)Oc1cccc2c1C(=O)C=C(c1ccccc1[N+](=O)[O-])C2=O

>  <score_type>  (72) 
oracle

>  <origin>  (72) 
adg

>  <m_score__min__energy>  (72) 
-8.8900000000000006

>  <m_primary>  (72) 
energy

$$$$
72:0
     RDKit          3D

 66 69  0  0  0  0  0  0  0  0999 V2000
   64.4790   32.6250   47.7050 H   0  0  0  0  0  0  0  0  0  0  0  0
   63.9340   32.5820   48.5600 O   0  0  0  0  0  0  0  0  0  0  0  0
   62.6100   33.0160   48.6150 C   0  0  0  0  0  0  0  0  0  0  0  0
   61.8650   32.7940   49.7800 C   0  0  0  0  0  0  0  0  0  0  0  0
   62.3272   32.2752   50.6328 H   0  0  0  0  0  0  0  0  0  0  0  0
   60.5310   33.2290   49.8680 C   0  0  0  0  0  0  0  0  0  0  0  0
   59.7330   33.0220   51.1320 C   0  0  0  0  0  0  0  0  0  0  0  0
   59.7327   33.9593   51.7077 H   0  0  0  0  0  0  0  0  0  0  0  0
   60.2035   32.2038   51.6970 H   0  0  0  0  0  0  0  0  0  0  0  0
   58.2760   32.6180   50.8430 C   0  0  0  0  0  0  0  0  0  0  0  0
   58.2825   31.6490   50.3224 H   0  0  0  0  0  0  0  0  0  0  0  0
   57.8373   33.4227   50.2348 H   0  0  0  0  0  0  0  0  0  0  0  0
   57.4230   32.4880   52.0720 C   0  0  0  0  0  0  0  0  0  0  0  0
   57.6870   33.1630   53.1060 O   0  0  0  0  0  0  0  0  0  0  0  0
   56.2600   31.6470   52.0080 N   0  0  0  0  0  0  0  0  0  0  0  0
   56.0810   30.4570   52.5110 C   0  0  0  0  0  0  0  0  0  0  0  0
   56.9340   29.9170   53.5960 C   0  0  0  0  0  0  0  0  0  0  0  0
   56.4890   29.8900   54.7720 O   0  0  0  0  0  0  0  0  0  0  0  0
   58.3030   29.5590   53.3640 N   0  0  0  0  0  0  0  0  0  0  0  0
   58.9740   29.5860   52.0960 C   0  0  0  0  0  0  0  0  0  0  0  0
   60.3720   29.6250   52.0630 C   0  0  0  0  0  0  0  0  0  0  0  0
   60.9409   29.6155   53.0044 H   0  0  0  0  0  0  0  0  0  0  0  0
   61.0520   29.6760   50.8410 C   0  0  0  0  0  0  0  0  0  0  0  0
   62.1501   29.7389   50.8265 H   0  0  0  0  0  0  0  0  0  0  0  0
   60.3350   29.6470   49.6310 C   0  0  0  0  0  0  0  0  0  0  0  0
   60.9800   29.7200   48.3510 N   0  0  0  0  0  0  0  0  0  0  0  0
   60.3740   29.9930   47.0800 C   0  0  0  0  0  0  0  0  0  0  0  0
   60.0050   31.1600   46.7740 O   0  0  0  0  0  0  0  0  0  0  0  0
   60.2840   28.8990   46.0650 C   0  0  0  0  0  0  0  0  0  0  0  0
   60.5250   29.3046   45.0713 H   0  0  0  0  0  0  0  0  0  0  0  0
   60.9973   28.1045   46.3295 H   0  0  0  0  0  0  0  0  0  0  0  0
   58.8930   28.3230   46.0430 C   0  0  0  0  0  0  0  0  0  0  0  0
   57.8760   28.9400   45.2920 C   0  0  0  0  0  0  0  0  0  0  0  0
   58.0919   29.8576   44.7250 H   0  0  0  0  0  0  0  0  0  0  0  0
   56.5890   28.3880   45.2650 C   0  0  0  0  0  0  0  0  0  0  0  0
   55.7955   28.8744   44.6786 H   0  0  0  0  0  0  0  0  0  0  0  0
   56.3100   27.2180   45.9830 C   0  0  0  0  0  0  0  0  0  0  0  0
   55.0290   26.6810   45.9670 O   0  0  0  0  0  0  0  0  0  0  0  0
   57.3200   26.5930   46.7210 C   0  0  0  0  0  0  0  0  0  0  0  0
   57.1022   25.6697   47.2779 H   0  0  0  0  0  0  0  0  0  0  0  0
   58.6060   27.1400   46.7520 C   0  0  0  0  0  0  0  0  0  0  0  0
   59.3978   26.6443   47.3329 H   0  0  0  0  0  0  0  0  0  0  0  0
   58.9370   29.5930   49.6660 C   0  0  0  0  0  0  0  0  0  0  0  0
   58.3673   29.5859   48.7251 H   0  0  0  0  0  0  0  0  0  0  0  0
   58.2590   29.5480   50.8880 C   0  0  0  0  0  0  0  0  0  0  0  0
   57.1611   29.4826   50.9032 H   0  0  0  0  0  0  0  0  0  0  0  0
   54.8590   29.6870   52.0850 C   0  0  0  0  0  0  0  0  0  0  0  0
   55.0294   29.2772   51.0785 H   0  0  0  0  0  0  0  0  0  0  0  0
   54.6897   28.8827   52.8161 H   0  0  0  0  0  0  0  0  0  0  0  0
   53.6300   30.5590   52.0550 C   0  0  0  0  0  0  0  0  0  0  0  0
   53.2480   31.2130   50.8690 C   0  0  0  0  0  0  0  0  0  0  0  0
   53.8363   31.0697   49.9507 H   0  0  0  0  0  0  0  0  0  0  0  0
   52.1240   32.0440   50.8530 C   0  0  0  0  0  0  0  0  0  0  0  0
   51.8272   32.5485   49.9217 H   0  0  0  0  0  0  0  0  0  0  0  0
   51.3760   32.2350   52.0200 C   0  0  0  0  0  0  0  0  0  0  0  0
   50.2580   33.0590   52.0020 O   0  0  0  0  0  0  0  0  0  0  0  0
   51.7550   31.5930   53.2040 C   0  0  0  0  0  0  0  0  0  0  0  0
   51.1682   31.7439   54.1221 H   0  0  0  0  0  0  0  0  0  0  0  0
   52.8780   30.7600   53.2230 C   0  0  0  0  0  0  0  0  0  0  0  0
   53.1733   30.2601   54.1573 H   0  0  0  0  0  0  0  0  0  0  0  0
   59.9430   33.8670   48.7630 C   0  0  0  0  0  0  0  0  0  0  0  0
   58.8936   34.1928   48.8138 H   0  0  0  0  0  0  0  0  0  0  0  0
   60.6850   34.0900   47.5990 C   0  0  0  0  0  0  0  0  0  0  0  0
   60.2189   34.5951   46.7402 H   0  0  0  0  0  0  0  0  0  0  0  0
   62.0180   33.6730   47.5230 C   0  0  0  0  0  0  0  0  0  0  0  0
   62.7500   33.9220   46.3640 O   0  0  0  0  0  0  0  0  0  0  0  0
  1  2  1  0
  2  3  1  0
  3  4  2  0
  4  5  1  0
  4  6  1  0
  6  7  1  0
  7  8  1  0
  7  9  1  0
  7 10  1  0
 10 11  1  0
 10 12  1  0
 10 13  1  0
 13 14  2  0
 13 15  1  0
 15 16  2  0
 16 17  1  0
 17 18  2  0
 17 19  1  0
 19 20  1  0
 20 21  2  0
 21 22  1  0
 21 23  1  0
 23 24  1  0
 23 25  2  0
 25 26  1  0
 26 27  1  0
 27 28  2  0
 27 29  1  0
 29 30  1  0
 29 31  1  0
 29 32  1  0
 32 33  2  0
 33 34  1  0
 33 35  1  0
 35 36  1  0
 35 37  2  0
 37 38  1  0
 37 39  1  0
 39 40  1  0
 39 41  2  0
 41 42  1  0
 25 43  1  0
 43 44  1  0
 43 45  2  0
 45 46  1  0
 16 47  1  0
 47 48  1  0
 47 49  1  0
 47 50  1  0
 50 51  2  0
 51 52  1  0
 51 53  1  0
 53 54  1  0
 53 55  2  0
 55 56  1  0
 55 57  1  0
 57 58  1  0
 57 59  2  0
 59 60  1  0
  6 61  2  0
 61 62  1  0
 61 63  1  0
 63 64  1  0
 63 65  2  0
 65 66  1  0
 65  3  1  0
 45 20  1  0
 59 50  1  0
 41 32  1  0
M  CHG  5  19  -1  26  -1  38  -1  56  -1  66  -1
M  END
>  <UniqueID>  (73) 
69

>  <SMILES>  (73) 
O=C(CCc1ccc([O-])c(O)c1)/N=C(/Cc1ccc([O-])cc1)C(=O)[N-]c1ccc([N-]C(=O)Cc2ccc([O-])cc2)cc1

>  <Energy>  (73) 
82.16584225773857

>  <Genealogy>  (73) 
O=C(CCc1ccc([O-])c(O)c1)N=C(Cc1ccc([O-])cc1)C(=O)[N-]c1ccc([N-]C(=O)Cc2ccc([O-])cc2)cc1 (protonated)
O=C(CCc1ccc([O-])c(O)c1)/N=C(/Cc1ccc([O-])cc1)C(=O)[N-]c1ccc([N-]C(=O)Cc2ccc([O-])cc2)cc1 (cis-trans isomerization)
O=C(CCc1ccc([O-])c(O)c1)/N=C(/Cc1ccc([O-])cc1)C(=O)[N-]c1ccc([N-]C(=O)Cc2ccc([O-])cc2)cc1 (3D coordinates assigned)
O=C(CCc1ccc([O-])c(O)c1)/N=C(/Cc1ccc([O-])cc1)C(=O)[N-]c1ccc([N-]C(=O)Cc2ccc([O-])cc2)cc1 (optimized conformer: 82.16584225773857 kcal/mol)

>  <smiles>  (73) 
O=C(CCc1ccc(O)c(O)c1)N=C(Cc1ccc(O)cc1)C(=O)Nc1ccc(NC(=O)Cc2ccc(O)cc2)cc1

>  <score_type>  (73) 
oracle

>  <origin>  (73) 
adg

>  <m_score__min__energy>  (73) 
-20.75

>  <m_primary>  (73) 
energy

$$$$
73:0
     RDKit          3D

 54 57  0  0  0  0  0  0  0  0999 V2000
   58.9470   33.2980   53.6800 C   0  0  0  0  0  0  0  0  0  0  0  0
   58.5390   32.4050   52.5950 N   0  0  0  0  0  0  0  0  0  0  0  0
   57.8200   31.2600   52.6860 C   0  0  0  0  0  0  0  0  0  0  0  0
   57.2340   30.7210   53.9240 C   0  0  0  0  0  0  0  0  0  0  0  0
   57.9990   30.3790   54.8660 O   0  0  0  0  0  0  0  0  0  0  0  0
   55.8230   30.5320   54.0670 N   0  0  0  0  0  0  0  0  0  0  0  0
   55.0320   29.6440   53.2240 C   0  0  0  0  0  0  0  0  0  0  0  0
   53.7720   30.3430   52.8060 C   0  0  0  0  0  0  0  0  0  0  0  0
   53.6580   30.9000   51.5220 C   0  0  0  0  0  0  0  0  0  0  0  0
   52.4890   31.5670   51.1450 C   0  0  0  0  0  0  0  0  0  0  0  0
   51.4330   31.6990   52.0540 C   0  0  0  0  0  0  0  0  0  0  0  0
   50.2990   32.3450   51.6850 F   0  0  0  0  0  0  0  0  0  0  0  0
   51.5480   31.1660   53.3420 C   0  0  0  0  0  0  0  0  0  0  0  0
   52.7140   30.4940   53.7190 C   0  0  0  0  0  0  0  0  0  0  0  0
   57.7430   30.6320   51.4520 C   0  0  0  0  0  0  0  0  0  0  0  0
   58.4380   31.4450   50.5810 C   0  0  0  0  0  0  0  0  0  0  0  0
   58.8930   32.5250   51.2980 C   0  0  0  0  0  0  0  0  0  0  0  0
   59.7910   33.5740   50.7120 C   0  0  0  0  0  0  0  0  0  0  0  0
   59.6590   33.5990   49.1800 C   0  0  0  0  0  0  0  0  0  0  0  0
   59.6590   32.2300   48.6300 N   0  0  0  0  0  0  0  0  0  0  0  0
   60.3170   31.9810   47.3770 C   0  0  0  0  0  0  0  0  0  0  0  0
   61.3140   32.6810   47.0510 O   0  0  0  0  0  0  0  0  0  0  0  0
   59.8550   30.9030   46.4690 C   0  0  0  0  0  0  0  0  0  0  0  0
   60.6900   29.8130   46.1680 C   0  0  0  0  0  0  0  0  0  0  0  0
   60.2580   28.8080   45.2990 C   0  0  0  0  0  0  0  0  0  0  0  0
   58.9900   28.8820   44.7180 C   0  0  0  0  0  0  0  0  0  0  0  0
   58.1470   29.9630   45.0030 C   0  0  0  0  0  0  0  0  0  0  0  0
   56.5520   30.0700   44.2620 S   0  0  0  0  0  0  0  0  0  0  0  0
   55.5210   28.8570   44.9310 N   0  0  0  0  0  0  0  0  0  0  0  0
   55.9580   31.4260   44.5180 O   0  0  0  0  0  0  0  0  0  0  0  0
   56.6720   29.8690   42.7770 O   0  0  0  0  0  0  0  0  0  0  0  0
   58.5840   30.9740   45.8710 C   0  0  0  0  0  0  0  0  0  0  0  0
   58.6530   31.2670   49.1120 C   0  0  0  0  0  0  0  0  0  0  0  0
   58.7297   32.8223   54.6477 H   0  0  0  0  0  0  0  0  0  0  0  0
   60.0259   33.4983   53.6040 H   0  0  0  0  0  0  0  0  0  0  0  0
   58.3921   34.2447   53.6040 H   0  0  0  0  0  0  0  0  0  0  0  0
   55.6137   29.3715   52.3311 H   0  0  0  0  0  0  0  0  0  0  0  0
   54.7772   28.7341   53.7872 H   0  0  0  0  0  0  0  0  0  0  0  0
   54.4919   30.8110   50.8102 H   0  0  0  0  0  0  0  0  0  0  0  0
   52.3989   31.9886   50.1330 H   0  0  0  0  0  0  0  0  0  0  0  0
   50.7205   31.2757   54.0584 H   0  0  0  0  0  0  0  0  0  0  0  0
   52.8042   30.0814   54.7347 H   0  0  0  0  0  0  0  0  0  0  0  0
   57.2348   29.6851   51.2172 H   0  0  0  0  0  0  0  0  0  0  0  0
   59.5104   34.5579   51.1159 H   0  0  0  0  0  0  0  0  0  0  0  0
   60.8327   33.3396   50.9763 H   0  0  0  0  0  0  0  0  0  0  0  0
   58.7166   34.0967   48.9076 H   0  0  0  0  0  0  0  0  0  0  0  0
   60.5168   34.1461   48.7619 H   0  0  0  0  0  0  0  0  0  0  0  0
   61.6909   29.7509   46.6200 H   0  0  0  0  0  0  0  0  0  0  0  0
   60.9174   27.9573   45.0720 H   0  0  0  0  0  0  0  0  0  0  0  0
   58.6527   28.0888   44.0346 H   0  0  0  0  0  0  0  0  0  0  0  0
   54.6490   29.3360   45.2450 H   0  0  0  0  0  0  0  0  0  0  0  0
   57.9272   31.8298   46.0860 H   0  0  0  0  0  0  0  0  0  0  0  0
   57.7040   31.4354   48.5818 H   0  0  0  0  0  0  0  0  0  0  0  0
   59.0107   30.2446   48.9205 H   0  0  0  0  0  0  0  0  0  0  0  0
  1  2  1  0
  2  3  1  0
  3  4  1  0
  4  5  2  0
  4  6  1  0
  6  7  1  0
  7  8  1  0
  8  9  2  0
  9 10  1  0
 10 11  2  0
 11 12  1  0
 11 13  1  0
 13 14  2  0
  3 15  2  0
 15 16  1  0
 16 17  2  0
 17 18  1  0
 18 19  1  0
 19 20  1  0
 20 21  1  0
 21 22  2  0
 21 23  1  0
 23 24  2  0
 24 25  1  0
 25 26  2  0
 26 27  1  0
 27 28  1  0
 28 29  1  0
 28 30  2  0
 28 31  2  0
 27 32  2  0
 20 33  1  0
 17  2  1  0
 32 23  1  0
 14  8  1  0
 33 16  1  0
  1 34  1  0
  1 35  1  0
  1 36  1  0
  7 37  1  0
  7 38  1  0
  9 39  1  0
 10 40  1  0
 13 41  1  0
 14 42  1  0
 15 43  1  0
 18 44  1  0
 18 45  1  0
 19 46  1  0
 19 47  1  0
 24 48  1  0
 25 49  1  0
 26 50  1  0
 29 51  1  0
 32 52  1  0
 33 53  1  0
 33 54  1  0
M  CHG  2   6  -1  29  -1
M  END
>  <UniqueID>  (74) 
70

>  <SMILES>  (74) 
Cn1c(C(=O)[N-]Cc2ccc(F)cc2)cc2c1CCN(C(=O)c1cccc(S([NH-])(=O)=O)c1)C2

>  <Energy>  (74) 
94.2609535374985

>  <Genealogy>  (74) 
Cn1c(C(=O)[N-]Cc2ccc(F)cc2)cc2c1CCN(C(=O)c1cccc(S([NH-])(=O)=O)c1)C2 (protonated)
Cn1c(C(=O)[N-]Cc2ccc(F)cc2)cc2c1CCN(C(=O)c1cccc(S([NH-])(=O)=O)c1)C2 (3D coordinates assigned)
Cn1c(C(=O)[N-]Cc2ccc(F)cc2)cc2c1CCN(C(=O)c1cccc(S([NH-])(=O)=O)c1)C2 (nonaromatic ring conformer: 94.2609535374985 kcal/mol)

>  <smiles>  (74) 
Cn1c(C(=O)NCc2ccc(F)cc2)cc2c1CCN(C(=O)c1cccc(S(N)(=O)=O)c1)C2

>  <score_type>  (74) 
oracle

>  <origin>  (74) 
adg

>  <m_score__min__energy>  (74) 
-12.85

>  <m_primary>  (74) 
energy

$$$$
74:0
     RDKit          3D

 34 36  0  0  0  0  0  0  0  0999 V2000
   59.6530   35.0780   45.5910 C   0  0  0  0  0  0  0  0  0  0  0  0
   59.7300   33.6180   45.9100 C   0  0  0  0  0  0  0  0  0  0  0  0
   58.7240   32.7460   45.6900 N   0  0  0  0  0  0  0  0  0  0  0  0
   59.1130   31.5350   46.0590 N   0  0  0  0  0  0  0  0  0  0  0  0
   58.2700   30.3700   45.9740 C   0  0  0  0  0  0  0  0  0  0  0  0
   58.6330   29.1520   46.5780 C   0  0  0  0  0  0  0  0  0  0  0  0
   57.7870   28.0470   46.4570 C   0  0  0  0  0  0  0  0  0  0  0  0
   56.5990   28.1540   45.7340 C   0  0  0  0  0  0  0  0  0  0  0  0
   55.7550   27.0550   45.6120 O   0  0  0  0  0  0  0  0  0  0  0  0
   56.2730   29.3740   45.1320 C   0  0  0  0  0  0  0  0  0  0  0  0
   55.2110   29.4940   44.4680 O   0  0  0  0  0  0  0  0  0  0  0  0
   57.1100   30.4380   45.2630 N   0  0  0  0  0  0  0  0  0  0  0  0
   60.3740   31.6260   46.5350 C   0  0  0  0  0  0  0  0  0  0  0  0
   61.0400   30.6580   46.9890 O   0  0  0  0  0  0  0  0  0  0  0  0
   60.8120   32.9400   46.4580 C   0  0  0  0  0  0  0  0  0  0  0  0
   62.1330   33.4890   46.8400 C   0  0  0  0  0  0  0  0  0  0  0  0
   62.7830   34.1690   46.0030 O   0  0  0  0  0  0  0  0  0  0  0  0
   62.7010   33.2760   48.1900 C   0  0  0  0  0  0  0  0  0  0  0  0
   64.0060   32.7670   48.3160 C   0  0  0  0  0  0  0  0  0  0  0  0
   64.5570   32.5330   49.5780 C   0  0  0  0  0  0  0  0  0  0  0  0
   63.8110   32.8000   50.7280 C   0  0  0  0  0  0  0  0  0  0  0  0
   62.5120   33.3010   50.6180 C   0  0  0  0  0  0  0  0  0  0  0  0
   61.9490   33.5380   49.3570 C   0  0  0  0  0  0  0  0  0  0  0  0
   60.3240   34.2130   49.2850 Cl  0  0  0  0  0  0  0  0  0  0  0  0
   59.6225   35.6565   46.5261 H   0  0  0  0  0  0  0  0  0  0  0  0
   60.5369   35.3727   45.0062 H   0  0  0  0  0  0  0  0  0  0  0  0
   58.7431   35.2781   45.0062 H   0  0  0  0  0  0  0  0  0  0  0  0
   57.7890   32.9760   45.2830 H   0  0  0  0  0  0  0  0  0  0  0  0
   59.5748   29.0707   47.1406 H   0  0  0  0  0  0  0  0  0  0  0  0
   58.0577   27.0925   46.9319 H   0  0  0  0  0  0  0  0  0  0  0  0
   64.5973   32.5515   47.4138 H   0  0  0  0  0  0  0  0  0  0  0  0
   65.5798   32.1379   49.6661 H   0  0  0  0  0  0  0  0  0  0  0  0
   64.2468   32.6156   51.7210 H   0  0  0  0  0  0  0  0  0  0  0  0
   61.9278   33.5107   51.5261 H   0  0  0  0  0  0  0  0  0  0  0  0
  1  2  1  0
  2  3  1  0
  3  4  1  0
  4  5  1  0
  5  6  2  0
  6  7  1  0
  7  8  2  0
  8  9  1  0
  8 10  1  0
 10 11  2  0
 10 12  1  0
  4 13  1  0
 13 14  2  0
 13 15  1  0
 15 16  1  0
 16 17  2  0
 16 18  1  0
 18 19  2  0
 19 20  1  0
 20 21  2  0
 21 22  1  0
 22 23  2  0
 23 24  1  0
 15  2  2  0
 23 18  1  0
 12  5  1  0
  1 25  1  0
  1 26  1  0
  1 27  1  0
  3 28  1  0
  6 29  1  0
  7 30  1  0
 19 31  1  0
 20 32  1  0
 21 33  1  0
 22 34  1  0
M  CHG  2   9  -1  12  -1
M  END
>  <UniqueID>  (75) 
71

>  <SMILES>  (75) 
Cc1[nH]n(-c2ccc([O-])c(=O)[n-]2)c(=O)c1C(=O)c1ccccc1Cl

>  <Energy>  (75) 
81.58626561329368

>  <Genealogy>  (75) 
Cc1[nH]n(-c2ccc([O-])c(=O)[n-]2)c(=O)c1C(=O)c1ccccc1Cl (protonated)
Cc1[nH]n(-c2ccc([O-])c(=O)[n-]2)c(=O)c1C(=O)c1ccccc1Cl (3D coordinates assigned)
Cc1[nH]n(-c2ccc([O-])c(=O)[n-]2)c(=O)c1C(=O)c1ccccc1Cl (optimized conformer: 81.58626561329368 kcal/mol)

>  <smiles>  (75) 
Cc1[nH]n(-c2ccc(O)c(=O)[nH]2)c(=O)c1C(=O)c1ccccc1Cl

>  <score_type>  (75) 
oracle

>  <origin>  (75) 
adg

>  <m_score__min__energy>  (75) 
-11.59

>  <m_primary>  (75) 
energy

$$$$
75:0
     RDKit          3D

 50 53  0  0  0  0  0  0  0  0999 V2000
   54.5270   30.0040   45.2370 H   0  0  0  0  0  0  0  0  0  0  0  0
   55.1630   29.3500   44.7240 N   0  0  0  0  0  0  0  0  0  0  0  0
   56.2810   28.9310   45.2260 C   0  0  0  0  0  0  0  0  0  0  0  0
   56.3890   27.6350   45.6250 N   0  0  0  0  0  0  0  0  0  0  0  0
   57.5390   27.1420   46.1540 C   0  0  0  0  0  0  0  0  0  0  0  0
   57.5916   26.0882   46.4652 H   0  0  0  0  0  0  0  0  0  0  0  0
   58.6540   27.9680   46.3040 C   0  0  0  0  0  0  0  0  0  0  0  0
   59.5873   27.5682   46.7273 H   0  0  0  0  0  0  0  0  0  0  0  0
   58.5750   29.3110   45.9110 C   0  0  0  0  0  0  0  0  0  0  0  0
   59.7730   30.2160   46.0220 C   0  0  0  0  0  0  0  0  0  0  0  0
   60.6821   29.6490   45.7729 H   0  0  0  0  0  0  0  0  0  0  0  0
   59.6553   31.0579   45.3239 H   0  0  0  0  0  0  0  0  0  0  0  0
   59.8840   30.7350   47.3860 N   0  0  0  0  0  0  0  0  0  0  0  0
   59.6770   30.0080   48.5030 C   0  0  0  0  0  0  0  0  0  0  0  0
   59.5250   28.9188   48.5281 H   0  0  0  0  0  0  0  0  0  0  0  0
   59.6840   30.8340   49.6120 C   0  0  0  0  0  0  0  0  0  0  0  0
   59.5160   30.4020   51.0140 C   0  0  0  0  0  0  0  0  0  0  0  0
   60.5300   30.0220   51.6580 O   0  0  0  0  0  0  0  0  0  0  0  0
   58.1960   30.4090   51.6850 C   0  0  0  0  0  0  0  0  0  0  0  0
   57.7550   29.2850   52.4080 C   0  0  0  0  0  0  0  0  0  0  0  0
   58.3893   28.3880   52.4640 H   0  0  0  0  0  0  0  0  0  0  0  0
   56.5170   29.3010   53.0550 C   0  0  0  0  0  0  0  0  0  0  0  0
   56.1759   28.4140   53.6091 H   0  0  0  0  0  0  0  0  0  0  0  0
   55.7110   30.4410   53.0000 C   0  0  0  0  0  0  0  0  0  0  0  0
   54.5110   30.4540   53.6310 F   0  0  0  0  0  0  0  0  0  0  0  0
   56.1440   31.5690   52.2990 C   0  0  0  0  0  0  0  0  0  0  0  0
   55.5096   32.4667   52.2585 H   0  0  0  0  0  0  0  0  0  0  0  0
   57.3830   31.5600   51.6480 C   0  0  0  0  0  0  0  0  0  0  0  0
   57.7750   32.6640   50.9630 F   0  0  0  0  0  0  0  0  0  0  0  0
   59.9080   32.1200   49.1520 C   0  0  0  0  0  0  0  0  0  0  0  0
   59.9780   33.0352   49.7583 H   0  0  0  0  0  0  0  0  0  0  0  0
   60.0260   32.0240   47.7790 C   0  0  0  0  0  0  0  0  0  0  0  0
   60.2440   33.1860   46.8910 C   0  0  0  0  0  0  0  0  0  0  0  0
   61.3940   33.3070   46.3850 O   0  0  0  0  0  0  0  0  0  0  0  0
   59.2240   34.2030   46.6490 N   0  0  0  0  0  0  0  0  0  0  0  0
   59.4350   35.0410   47.2380 H   0  0  0  0  0  0  0  0  0  0  0  0
   59.1760   34.6080   45.2320 C   0  0  0  0  0  0  0  0  0  0  0  0
   58.8088   35.6415   45.1476 H   0  0  0  0  0  0  0  0  0  0  0  0
   60.1777   34.5653   44.7795 H   0  0  0  0  0  0  0  0  0  0  0  0
   58.2220   33.6560   44.5240 C   0  0  0  0  0  0  0  0  0  0  0  0
   57.6025   34.2005   43.7962 H   0  0  0  0  0  0  0  0  0  0  0  0
   58.7583   32.8770   43.9622 H   0  0  0  0  0  0  0  0  0  0  0  0
   57.3570   33.0690   45.6280 C   0  0  0  0  0  0  0  0  0  0  0  0
   56.2969   33.3078   45.4571 H   0  0  0  0  0  0  0  0  0  0  0  0
   57.4293   31.9722   45.6711 H   0  0  0  0  0  0  0  0  0  0  0  0
   57.8540   33.7260   46.9080 C   0  0  0  0  0  0  0  0  0  0  0  0
   57.2041   34.5727   47.1740 H   0  0  0  0  0  0  0  0  0  0  0  0
   57.8407   33.0116   47.7444 H   0  0  0  0  0  0  0  0  0  0  0  0
   57.3790   29.7940   45.3610 C   0  0  0  0  0  0  0  0  0  0  0  0
   57.3021   30.8425   45.0375 H   0  0  0  0  0  0  0  0  0  0  0  0
  1  2  1  0
  2  3  2  0
  3  4  1  0
  4  5  1  0
  5  6  1  0
  5  7  2  0
  7  8  1  0
  7  9  1  0
  9 10  1  0
 10 11  1  0
 10 12  1  0
 10 13  1  0
 13 14  1  0
 14 15  1  0
 14 16  2  0
 16 17  1  0
 17 18  2  0
 17 19  1  0
 19 20  2  0
 20 21  1  0
 20 22  1  0
 22 23  1  0
 22 24  2  0
 24 25  1  0
 24 26  1  0
 26 27  1  0
 26 28  2  0
 28 29  1  0
 16 30  1  0
 30 31  1  0
 30 32  2  0
 32 33  1  0
 33 34  2  0
 33 35  1  0
 35 36  1  0
 35 37  1  0
 37 38  1  0
 37 39  1  0
 37 40  1  0
 40 41  1  0
 40 42  1  0
 40 43  1  0
 43 44  1  0
 43 45  1  0
 43 46  1  0
 46 47  1  0
 46 48  1  0
  9 49  2  0
 49 50  1  0
 49  3  1  0
 32 13  1  0
 46 35  1  0
 28 19  1  0
M  CHG  2   4  -1  35   1
M  END
>  <UniqueID>  (76) 
72

>  <SMILES>  (76) 
[H]/N=c1\cc(Cn2cc(C(=O)c3ccc(F)cc3F)cc2C(=O)[NH+]2CCCC2)cc[n-]1

>  <Energy>  (76) 
98.21059676950298

>  <Genealogy>  (76) 
N=c1cc(Cn2cc(C(=O)c3ccc(F)cc3F)cc2C(=O)[NH+]2CCCC2)cc[n-]1 (protonated)
[H]/N=c1\cc(Cn2cc(C(=O)c3ccc(F)cc3F)cc2C(=O)[NH+]2CCCC2)cc[n-]1 (cis-trans isomerization)
[H]/N=c1\cc(Cn2cc(C(=O)c3ccc(F)cc3F)cc2C(=O)[NH+]2CCCC2)cc[n-]1 (3D coordinates assigned)
[H]/N=c1\cc(Cn2cc(C(=O)c3ccc(F)cc3F)cc2C(=O)[NH+]2CCCC2)cc[n-]1 (nonaromatic ring conformer: 98.21059676950298 kcal/mol)

>  <smiles>  (76) 
N=c1cc(Cn2cc(C(=O)c3ccc(F)cc3F)cc2C(=O)N2CCCC2)cc[nH]1

>  <score_type>  (76) 
oracle

>  <origin>  (76) 
adg

>  <m_score__min__energy>  (76) 
-9.3900000000000006

>  <m_primary>  (76) 
energy

$$$$
76:0
     RDKit          3D

 60 63  0  0  0  0  0  0  0  0999 V2000
   55.4940   26.6470   46.3480 O   0  0  0  0  0  0  0  0  0  0  0  0
   56.6740   26.7530   45.9180 C   0  0  0  0  0  0  0  0  0  0  0  0
   57.4580   25.5710   45.6820 N   0  0  0  0  0  0  0  0  0  0  0  0
   56.9140   24.2910   45.3110 C   0  0  0  0  0  0  0  0  0  0  0  0
   57.6320   23.3830   44.5070 C   0  0  0  0  0  0  0  0  0  0  0  0
   57.0900   22.1310   44.2000 C   0  0  0  0  0  0  0  0  0  0  0  0
   55.8410   21.7620   44.7020 C   0  0  0  0  0  0  0  0  0  0  0  0
   55.1260   22.6470   45.5170 C   0  0  0  0  0  0  0  0  0  0  0  0
   53.8130   22.2600   46.0590 C   0  0  0  0  0  0  0  0  0  0  0  0
   52.8100   22.3280   45.2990 O   0  0  0  0  0  0  0  0  0  0  0  0
   53.6640   21.8160   47.4260 N   0  0  0  0  0  0  0  0  0  0  0  0
   52.4020   21.1910   47.8460 C   0  0  0  0  0  0  0  0  0  0  0  0
   52.2120   21.3370   49.3580 C   0  0  0  0  0  0  0  0  0  0  0  0
   53.3570   20.8850   50.0530 O   0  0  0  0  0  0  0  0  0  0  0  0
   54.4500   21.7340   49.7620 C   0  0  0  0  0  0  0  0  0  0  0  0
   54.8430   21.6320   48.2860 C   0  0  0  0  0  0  0  0  0  0  0  0
   55.6660   23.9040   45.8230 C   0  0  0  0  0  0  0  0  0  0  0  0
   57.2630   28.1030   45.6980 C   0  0  0  0  0  0  0  0  0  0  0  0
   56.4880   29.1510   45.1790 C   0  0  0  0  0  0  0  0  0  0  0  0
   55.1450   28.9680   44.8720 O   0  0  0  0  0  0  0  0  0  0  0  0
   57.0440   30.3700   44.9830 N   0  0  0  0  0  0  0  0  0  0  0  0
   58.3430   30.6200   45.2760 C   0  0  0  0  0  0  0  0  0  0  0  0
   58.7960   31.7800   45.0840 O   0  0  0  0  0  0  0  0  0  0  0  0
   59.1400   29.6250   45.7820 N   0  0  0  0  0  0  0  0  0  0  0  0
   60.5430   29.9060   46.1590 C   0  0  0  0  0  0  0  0  0  0  0  0
   60.6410   30.4790   47.5810 C   0  0  0  0  0  0  0  0  0  0  0  0
   61.5140   31.7110   47.6350 C   0  0  0  0  0  0  0  0  0  0  0  0
   62.8530   31.6050   47.7220 C   0  0  0  0  0  0  0  0  0  0  0  0
   63.6970   32.8520   47.7140 C   0  0  0  0  0  0  0  0  0  0  0  0
   63.2330   33.8220   46.6090 C   0  0  0  0  0  0  0  0  0  0  0  0
   61.6910   33.9000   46.4390 C   0  0  0  0  0  0  0  0  0  0  0  0
   60.9150   33.0930   47.4940 C   0  0  0  0  0  0  0  0  0  0  0  0
   58.6200   28.3700   45.9790 C   0  0  0  0  0  0  0  0  0  0  0  0
   59.3630   27.4400   46.3990 O   0  0  0  0  0  0  0  0  0  0  0  0
   58.4890   25.6390   45.8390 H   0  0  0  0  0  0  0  0  0  0  0  0
   58.6233   23.6604   44.1192 H   0  0  0  0  0  0  0  0  0  0  0  0
   57.6506   21.4338   43.5600 H   0  0  0  0  0  0  0  0  0  0  0  0
   55.4189   20.7762   44.4572 H   0  0  0  0  0  0  0  0  0  0  0  0
   51.5648   21.6800   47.3265 H   0  0  0  0  0  0  0  0  0  0  0  0
   52.4314   20.1212   47.5915 H   0  0  0  0  0  0  0  0  0  0  0  0
   52.0383   22.3961   49.5992 H   0  0  0  0  0  0  0  0  0  0  0  0
   51.3491   20.7281   49.6657 H   0  0  0  0  0  0  0  0  0  0  0  0
   54.1693   22.7731   49.9890 H   0  0  0  0  0  0  0  0  0  0  0  0
   55.3084   21.4249   50.3765 H   0  0  0  0  0  0  0  0  0  0  0  0
   55.5853   22.4100   48.0543 H   0  0  0  0  0  0  0  0  0  0  0  0
   55.2683   20.6350   48.0988 H   0  0  0  0  0  0  0  0  0  0  0  0
   55.1058   24.5940   46.4711 H   0  0  0  0  0  0  0  0  0  0  0  0
   61.1202   28.9709   46.1101 H   0  0  0  0  0  0  0  0  0  0  0  0
   60.9454   30.6523   45.4582 H   0  0  0  0  0  0  0  0  0  0  0  0
   59.6312   30.7436   47.9278 H   0  0  0  0  0  0  0  0  0  0  0  0
   61.0946   29.7122   48.2262 H   0  0  0  0  0  0  0  0  0  0  0  0
   63.3270   30.6153   47.7983 H   0  0  0  0  0  0  0  0  0  0  0  0
   63.6119   33.3510   48.6906 H   0  0  0  0  0  0  0  0  0  0  0  0
   64.7416   32.5687   47.5177 H   0  0  0  0  0  0  0  0  0  0  0  0
   63.6047   34.8279   46.8541 H   0  0  0  0  0  0  0  0  0  0  0  0
   63.6374   33.4386   45.6606 H   0  0  0  0  0  0  0  0  0  0  0  0
   61.3856   34.9541   46.5132 H   0  0  0  0  0  0  0  0  0  0  0  0
   61.4515   33.4639   45.4579 H   0  0  0  0  0  0  0  0  0  0  0  0
   60.9684   33.6132   48.4618 H   0  0  0  0  0  0  0  0  0  0  0  0
   59.8659   33.0002   47.1765 H   0  0  0  0  0  0  0  0  0  0  0  0
  1  2  2  0
  2  3  1  0
  3  4  1  0
  4  5  2  0
  5  6  1  0
  6  7  2  0
  7  8  1  0
  8  9  1  0
  9 10  2  0
  9 11  1  0
 11 12  1  0
 12 13  1  0
 13 14  1  0
 14 15  1  0
 15 16  1  0
  8 17  2  0
  2 18  1  0
 18 19  2  0
 19 20  1  0
 19 21  1  0
 21 22  1  0
 22 23  2  0
 22 24  1  0
 24 25  1  0
 25 26  1  0
 26 27  1  0
 27 28  2  0
 28 29  1  0
 29 30  1  0
 30 31  1  0
 31 32  1  0
 24 33  1  0
 33 34  2  0
 17  4  1  0
 33 18  1  0
 16 11  1  0
 32 27  1  0
  3 35  1  0
  5 36  1  0
  6 37  1  0
  7 38  1  0
 12 39  1  0
 12 40  1  0
 13 41  1  0
 13 42  1  0
 15 43  1  0
 15 44  1  0
 16 45  1  0
 16 46  1  0
 17 47  1  0
 25 48  1  0
 25 49  1  0
 26 50  1  0
 26 51  1  0
 28 52  1  0
 29 53  1  0
 29 54  1  0
 30 55  1  0
 30 56  1  0
 31 57  1  0
 31 58  1  0
 32 59  1  0
 32 60  1  0
M  CHG  2  20  -1  21  -1
M  END
>  <UniqueID>  (77) 
73

>  <SMILES>  (77) 
O=C(Nc1cccc(C(=O)N2CCOCC2)c1)c1c([O-])[n-]c(=O)n(CCC2=CCCCC2)c1=O

>  <Energy>  (77) 
82.57520262224911

>  <Genealogy>  (77) 
O=C(Nc1cccc(C(=O)N2CCOCC2)c1)c1c([O-])[n-]c(=O)n(CCC2=CCCCC2)c1=O (protonated)
O=C(Nc1cccc(C(=O)N2CCOCC2)c1)c1c([O-])[n-]c(=O)n(CCC2=CCCCC2)c1=O (3D coordinates assigned)
O=C(Nc1cccc(C(=O)N2CCOCC2)c1)c1c([O-])[n-]c(=O)n(CCC2=CCCCC2)c1=O (nonaromatic ring conformer: 82.57520262224911 kcal/mol)

>  <smiles>  (77) 
O=C(Nc1cccc(C(=O)N2CCOCC2)c1)c1c(O)[nH]c(=O)n(CCC2=CCCCC2)c1=O

>  <score_type>  (77) 
oracle

>  <origin>  (77) 
adg

>  <m_score__min__energy>  (77) 
-14.31

>  <m_primary>  (77) 
energy

$$$$
77:0
     RDKit          3D

 49 51  0  0  0  0  0  0  0  0999 V2000
   59.1590   28.4590   44.9150 C   0  0  0  0  0  0  0  0  0  0  0  0
   57.7200   29.1370   45.7230 S   0  0  0  0  0  0  0  0  0  0  0  0
   56.6970   28.0470   45.8870 O   0  0  0  0  0  0  0  0  0  0  0  0
   58.1200   29.6290   47.0860 O   0  0  0  0  0  0  0  0  0  0  0  0
   57.0250   30.4630   44.8180 N   0  0  0  0  0  0  0  0  0  0  0  0
   57.2800   30.2890   43.3710 C   0  0  0  0  0  0  0  0  0  0  0  0
   57.0530   31.5950   42.6010 C   0  0  0  0  0  0  0  0  0  0  0  0
   58.0040   32.7080   43.0800 C   0  0  0  0  0  0  0  0  0  0  0  0
   58.5210   32.4660   44.5150 C   0  0  1  0  0  0  0  0  0  0  0  0
   58.9790   33.7560   45.1550 C   0  0  0  0  0  0  0  0  0  0  0  0
   58.7830   34.8480   44.5530 O   0  0  0  0  0  0  0  0  0  0  0  0
   59.5890   33.7680   46.4580 N   0  0  0  0  0  0  0  0  0  0  0  0
   60.5570   32.7410   46.8680 C   0  0  0  0  0  0  0  0  0  0  0  0
   60.1250   32.1340   48.2070 C   0  0  0  0  0  0  0  0  0  0  0  0
   59.6690   33.1750   49.1430 N   0  0  0  0  0  0  0  0  0  0  0  0
   59.0080   32.7910   50.3640 C   0  0  0  0  0  0  0  0  0  0  0  0
   59.1490   33.5710   51.5260 C   0  0  0  0  0  0  0  0  0  0  0  0
   58.4980   33.2030   52.7080 C   0  0  0  0  0  0  0  0  0  0  0  0
   57.7010   32.0570   52.7400 C   0  0  0  0  0  0  0  0  0  0  0  0
   57.0710   31.7020   53.8870 F   0  0  0  0  0  0  0  0  0  0  0  0
   57.5500   31.2780   51.5890 C   0  0  0  0  0  0  0  0  0  0  0  0
   58.1980   31.6440   50.4050 C   0  0  0  0  0  0  0  0  0  0  0  0
   59.8250   34.5930   48.7880 C   0  0  0  0  0  0  0  0  0  0  0  0
   59.2340   34.8450   47.3950 C   0  0  0  0  0  0  0  0  0  0  0  0
   57.4400   31.7760   45.3710 C   0  0  0  0  0  0  0  0  0  0  0  0
   59.8796   28.1195   45.6736 H   0  0  0  0  0  0  0  0  0  0  0  0
   58.8595   27.6073   44.2866 H   0  0  0  0  0  0  0  0  0  0  0  0
   59.6251   29.2322   44.2866 H   0  0  0  0  0  0  0  0  0  0  0  0
   58.3216   29.9657   43.2277 H   0  0  0  0  0  0  0  0  0  0  0  0
   56.5796   29.5338   42.9849 H   0  0  0  0  0  0  0  0  0  0  0  0
   57.2271   31.4130   41.5302 H   0  0  0  0  0  0  0  0  0  0  0  0
   56.0191   31.9250   42.7803 H   0  0  0  0  0  0  0  0  0  0  0  0
   58.8655   32.7540   42.3976 H   0  0  0  0  0  0  0  0  0  0  0  0
   57.4397   33.6522   43.0825 H   0  0  0  0  0  0  0  0  0  0  0  0
   59.3921   31.7969   44.4561 H   0  0  0  0  0  0  0  0  0  0  0  0
   60.5982   31.9507   46.1039 H   0  0  0  0  0  0  0  0  0  0  0  0
   61.5512   33.1987   46.9778 H   0  0  0  0  0  0  0  0  0  0  0  0
   59.3024   31.4253   48.0306 H   0  0  0  0  0  0  0  0  0  0  0  0
   60.9908   31.6217   48.6519 H   0  0  0  0  0  0  0  0  0  0  0  0
   59.7747   34.4754   51.5050 H   0  0  0  0  0  0  0  0  0  0  0  0
   58.6140   33.8170   53.6133 H   0  0  0  0  0  0  0  0  0  0  0  0
   56.9208   30.3761   51.6147 H   0  0  0  0  0  0  0  0  0  0  0  0
   58.0727   31.0303   49.5007 H   0  0  0  0  0  0  0  0  0  0  0  0
   59.2983   35.2150   49.5267 H   0  0  0  0  0  0  0  0  0  0  0  0
   60.8941   34.8518   48.7825 H   0  0  0  0  0  0  0  0  0  0  0  0
   58.1385   34.9021   47.4761 H   0  0  0  0  0  0  0  0  0  0  0  0
   59.6468   35.7890   47.0096 H   0  0  0  0  0  0  0  0  0  0  0  0
   57.8390   31.6211   46.3843 H   0  0  0  0  0  0  0  0  0  0  0  0
   56.5546   32.4288   45.3785 H   0  0  0  0  0  0  0  0  0  0  0  0
  1  2  1  0
  2  3  2  0
  2  4  2  0
  2  5  1  0
  5  6  1  0
  6  7  1  0
  7  8  1  0
  8  9  1  0
  9 10  1  0
 10 11  2  0
 10 12  1  0
 12 13  1  0
 13 14  1  0
 14 15  1  0
 15 16  1  0
 16 17  2  0
 17 18  1  0
 18 19  2  0
 19 20  1  0
 19 21  1  0
 21 22  2  0
 15 23  1  0
 23 24  1  0
  9 25  1  0
 25  5  1  0
 24 12  1  0
 22 16  1  0
  1 26  1  0
  1 27  1  0
  1 28  1  0
  6 29  1  0
  6 30  1  0
  7 31  1  0
  7 32  1  0
  8 33  1  0
  8 34  1  0
  9 35  1  6
 13 36  1  0
 13 37  1  0
 14 38  1  0
 14 39  1  0
 17 40  1  0
 18 41  1  0
 21 42  1  0
 22 43  1  0
 23 44  1  0
 23 45  1  0
 24 46  1  0
 24 47  1  0
 25 48  1  0
 25 49  1  0
M  END
>  <UniqueID>  (78) 
74

>  <SMILES>  (78) 
CS(=O)(=O)N1CCC[C@@H](C(=O)N2CCN(c3ccc(F)cc3)CC2)C1

>  <Energy>  (78) 
56.661716313961236

>  <Genealogy>  (78) 
CS(=O)(=O)N1CCC[C@@H](C(=O)N2CCN(c3ccc(F)cc3)CC2)C1 (chirality)
CS(=O)(=O)N1CCC[C@@H](C(=O)N2CCN(c3ccc(F)cc3)CC2)C1 (3D coordinates assigned)
CS(=O)(=O)N1CCC[C@@H](C(=O)N2CCN(c3ccc(F)cc3)CC2)C1 (nonaromatic ring conformer: 56.661716313961236 kcal/mol)

>  <smiles>  (78) 
CS(=O)(=O)N1CCCC(C(=O)N2CCN(c3ccc(F)cc3)CC2)C1

>  <score_type>  (78) 
oracle

>  <origin>  (78) 
adg

>  <m_score__min__energy>  (78) 
-8.0199999999999996

>  <m_primary>  (78) 
energy

$$$$
78:0
     RDKit          3D

 46 48  0  0  1  0  0  0  0  0999 V2000
   64.1460   33.7980   47.5720 N   0  0  0  0  0  0  0  0  0  0  0  0
   63.0740   33.1020   47.7430 C   0  0  0  0  0  0  0  0  0  0  0  0
   63.0600   31.7850   47.4610 N   0  0  0  0  0  0  0  0  0  0  0  0
   61.9690   31.0200   47.6230 C   0  0  0  0  0  0  0  0  0  0  0  0
   60.7990   31.5690   48.0930 C   0  0  0  0  0  0  0  0  0  0  0  0
   59.6350   30.6820   48.2510 C   0  0  0  0  0  0  0  0  0  0  0  0
   58.9460   30.4130   46.9630 C   0  0  0  0  0  0  0  0  0  0  0  0
   58.5850   31.4730   46.1140 C   0  0  0  0  0  0  0  0  0  0  0  0
   57.9490   31.2880   44.9180 C   0  0  0  0  0  0  0  0  0  0  0  0
   57.5350   32.2810   43.9750 C   0  0  0  0  0  0  0  0  0  0  0  0
   58.1220   32.6590   42.8670 C   0  0  0  0  0  0  0  0  0  0  0  0
   57.4540   32.2890   41.1420 Br  0  0  0  0  0  0  0  0  0  0  0  0
   57.6780   29.9560   44.5880 C   0  0  0  0  0  0  0  0  0  0  0  0
   57.0340   29.6140   43.3980 O   0  0  0  0  0  0  0  0  0  0  0  0
   58.0300   28.9180   45.4170 C   0  0  0  0  0  0  0  0  0  0  0  0
   57.7210   27.5560   45.0210 C   0  0  0  0  0  0  0  0  0  0  0  0
   57.0610   26.7210   45.9170 C   0  0  0  0  0  0  0  0  0  0  0  0
   56.7460   25.4150   45.5860 C   0  0  0  0  0  0  0  0  0  0  0  0
   57.1090   24.9660   44.3310 C   0  0  0  0  0  0  0  0  0  0  0  0
   56.8040   23.5900   43.9140 C   0  0  0  0  0  0  0  0  0  0  0  0
   56.3530   23.2990   42.6030 N   0  0  0  0  0  0  0  0  0  0  0  0
   56.9290   22.6180   44.7060 O   0  0  0  0  0  0  0  0  0  0  0  0
   57.7620   25.7900   43.4420 C   0  0  0  0  0  0  0  0  0  0  0  0
   58.0730   27.0880   43.7770 C   0  0  0  0  0  0  0  0  0  0  0  0
   58.6650   29.1100   46.6130 C   0  0  0  0  0  0  0  0  0  0  0  0
   60.8040   32.9120   48.3840 C   0  0  0  0  0  0  0  0  0  0  0  0
   59.7310   33.4550   48.8250 N   0  0  0  0  0  0  0  0  0  0  0  0
   61.9380   33.6460   48.2020 N   0  0  0  0  0  0  0  0  0  0  0  0
   64.9580   33.2560   47.1630 H   0  0  0  0  0  0  0  0  0  0  0  0
   63.9200   31.2830   47.0940 H   0  0  0  0  0  0  0  0  0  0  0  0
   62.0110   29.9483   47.3785 H   0  0  0  0  0  0  0  0  0  0  0  0
   59.9751   29.7259   48.6756 H   0  0  0  0  0  0  0  0  0  0  0  0
   58.9177   31.1869   48.9147 H   0  0  0  0  0  0  0  0  0  0  0  0
   58.8254   32.4999   46.4264 H   0  0  0  0  0  0  0  0  0  0  0  0
   56.5940   32.7983   44.2134 H   0  0  0  0  0  0  0  0  0  0  0  0
   59.0610   33.2263   42.9470 H   0  0  0  0  0  0  0  0  0  0  0  0
   57.5600   29.4520   42.5530 H   0  0  0  0  0  0  0  0  0  0  0  0
   56.7839   27.1071   46.9090 H   0  0  0  0  0  0  0  0  0  0  0  0
   56.2248   24.7573   46.2972 H   0  0  0  0  0  0  0  0  0  0  0  0
   55.4870   22.7590   42.3820 H   0  0  0  0  0  0  0  0  0  0  0  0
   56.9660   23.6700   41.8180 H   0  0  0  0  0  0  0  0  0  0  0  0
   58.0392   25.4052   42.4495 H   0  0  0  0  0  0  0  0  0  0  0  0
   58.5946   27.7404   43.0613 H   0  0  0  0  0  0  0  0  0  0  0  0
   58.9380   28.2660   47.2635 H   0  0  0  0  0  0  0  0  0  0  0  0
   59.0550   32.9780   49.4730 H   0  0  0  0  0  0  0  0  0  0  0  0
   61.9510   34.6640   48.4190 H   0  0  0  0  0  0  0  0  0  0  0  0
  1  2  2  3
  2  3  1  0
  3  4  1  0
  4  5  2  0
  5  6  1  0
  6  7  1  0
  7  8  2  0
  8  9  1  0
  9 10  1  0
 10 11  2  0
 11 12  1  0
  9 13  2  0
 13 14  1  0
 13 15  1  0
 15 16  1  0
 16 17  2  0
 17 18  1  0
 18 19  2  0
 19 20  1  0
 20 21  1  0
 20 22  2  0
 19 23  1  0
 23 24  2  0
 15 25  2  0
  5 26  1  0
 26 27  2  3
 26 28  1  0
 28  2  1  0
 25  7  1  0
 24 16  1  0
  1 29  1  0
  3 30  1  0
  4 31  1  0
  6 32  1  0
  6 33  1  0
  8 34  1  0
 10 35  1  0
 11 36  1  0
 14 37  1  0
 17 38  1  0
 18 39  1  0
 21 40  1  0
 21 41  1  0
 23 42  1  0
 24 43  1  0
 25 44  1  0
 27 45  1  0
 28 46  1  0
M  END
>  <smiles>  (79) 
N=c1[nH]cc(Cc2cc(C=CBr)c(O)c(-c3ccc(C(N)=O)cc3)c2)c(=N)[nH]1

>  <score_type>  (79) 
oracle

>  <origin>  (79) 
adg

>  <m_score__min__energy>  (79) 
-8.3100000000000005

>  <m_primary>  (79) 
energy

$$$$
79:0
     RDKit          3D

 51 53  0  0  0  0  0  0  0  0999 V2000
   60.4970   29.4110   47.2110 C   0  0  0  0  0  0  0  0  0  0  0  0
   59.7500   28.1500   47.3030 N   0  0  0  0  0  0  0  0  0  0  0  0
   58.5390   28.3210   48.1120 C   0  0  0  0  0  0  0  0  0  0  0  0
   59.3640   27.5280   45.7090 S   0  0  0  0  0  0  0  0  0  0  0  0
   60.1380   28.2690   44.6560 O   0  0  0  0  0  0  0  0  0  0  0  0
   59.8300   26.1010   45.6560 O   0  0  0  0  0  0  0  0  0  0  0  0
   57.6120   27.5760   45.3320 C   0  0  0  0  0  0  0  0  0  0  0  0
   57.0510   28.5630   44.6000 C   0  0  0  0  0  0  0  0  0  0  0  0
   57.4280   29.9810   44.6710 C   0  0  0  0  0  0  0  0  0  0  0  0
   57.4620   30.7450   43.4950 C   0  0  0  0  0  0  0  0  0  0  0  0
   57.7790   32.1050   43.5520 C   0  0  0  0  0  0  0  0  0  0  0  0
   58.0870   32.7010   44.7810 C   0  0  0  0  0  0  0  0  0  0  0  0
   58.3290   34.4720   44.8800 S   0  0  0  0  0  0  0  0  0  0  0  0
   59.4860   34.2970   46.2410 C   0  0  0  0  0  0  0  0  0  0  0  0
   59.0700   34.5550   47.5540 C   0  0  0  0  0  0  0  0  0  0  0  0
   59.9590   34.3720   48.6180 C   0  0  0  0  0  0  0  0  0  0  0  0
   61.2640   33.9330   48.3740 C   0  0  0  0  0  0  0  0  0  0  0  0
   61.6820   33.6800   47.0630 C   0  0  0  0  0  0  0  0  0  0  0  0
   60.7960   33.8630   45.9980 C   0  0  0  0  0  0  0  0  0  0  0  0
   58.1450   31.9190   45.9400 C   0  0  0  0  0  0  0  0  0  0  0  0
   57.8350   30.5580   45.8830 C   0  0  0  0  0  0  0  0  0  0  0  0
   56.7250   26.5370   45.9200 C   0  0  0  0  0  0  0  0  0  0  0  0
   55.4800   26.7360   45.9980 O   0  0  0  0  0  0  0  0  0  0  0  0
   57.2620   25.2780   46.3460 N   0  0  0  0  0  0  0  0  0  0  0  0
   57.4500   24.1880   45.6530 C   0  0  0  0  0  0  0  0  0  0  0  0
   58.5440   23.4380   45.9570 N   0  0  0  0  0  0  0  0  0  0  0  0
   58.9090   22.3450   45.2370 C   0  0  0  0  0  0  0  0  0  0  0  0
   58.1610   21.9620   44.1270 C   0  0  0  0  0  0  0  0  0  0  0  0
   57.0060   22.6720   43.8080 C   0  0  0  0  0  0  0  0  0  0  0  0
   56.5990   23.7540   44.5950 C   0  0  0  0  0  0  0  0  0  0  0  0
   55.3310   24.2840   44.3500 O   0  0  0  0  0  0  0  0  0  0  0  0
   60.7166   29.7817   48.2231 H   0  0  0  0  0  0  0  0  0  0  0  0
   61.4397   29.2401   46.6705 H   0  0  0  0  0  0  0  0  0  0  0  0
   59.8942   30.1557   46.6705 H   0  0  0  0  0  0  0  0  0  0  0  0
   58.8027   28.2838   49.1793 H   0  0  0  0  0  0  0  0  0  0  0  0
   58.0785   29.2931   47.8818 H   0  0  0  0  0  0  0  0  0  0  0  0
   57.8273   27.5144   47.8818 H   0  0  0  0  0  0  0  0  0  0  0  0
   56.2516   28.2839   43.8978 H   0  0  0  0  0  0  0  0  0  0  0  0
   57.2389   30.2731   42.5267 H   0  0  0  0  0  0  0  0  0  0  0  0
   57.7865   32.7071   42.6314 H   0  0  0  0  0  0  0  0  0  0  0  0
   58.0441   34.9015   47.7478 H   0  0  0  0  0  0  0  0  0  0  0  0
   59.6311   34.5737   49.6484 H   0  0  0  0  0  0  0  0  0  0  0  0
   61.9613   33.7867   49.2121 H   0  0  0  0  0  0  0  0  0  0  0  0
   62.7091   33.3367   46.8704 H   0  0  0  0  0  0  0  0  0  0  0  0
   61.1273   33.6661   44.9677 H   0  0  0  0  0  0  0  0  0  0  0  0
   58.4351   32.3766   46.8973 H   0  0  0  0  0  0  0  0  0  0  0  0
   57.9101   29.9386   46.7889 H   0  0  0  0  0  0  0  0  0  0  0  0
   59.7950   21.7631   45.5310 H   0  0  0  0  0  0  0  0  0  0  0  0
   58.4784   21.1089   43.5093 H   0  0  0  0  0  0  0  0  0  0  0  0
   56.4098   22.3797   42.9310 H   0  0  0  0  0  0  0  0  0  0  0  0
   55.1080   25.2600   44.4870 H   0  0  0  0  0  0  0  0  0  0  0  0
  1  2  1  0
  2  3  1  0
  2  4  1  0
  4  5  2  0
  4  6  2  0
  4  7  1  0
  7  8  2  3
  8  9  1  0
  9 10  2  0
 10 11  1  0
 11 12  2  0
 12 13  1  0
 13 14  1  0
 14 15  2  0
 15 16  1  0
 16 17  2  0
 17 18  1  0
 18 19  2  0
 12 20  1  0
 20 21  2  0
  7 22  1  0
 22 23  2  0
 22 24  1  0
 24 25  2  3
 25 26  1  0
 26 27  1  0
 27 28  2  0
 28 29  1  0
 29 30  2  0
 30 31  1  0
 21  9  1  0
 30 25  1  0
 19 14  1  0
  1 32  1  0
  1 33  1  0
  1 34  1  0
  3 35  1  0
  3 36  1  0
  3 37  1  0
  8 38  1  0
 10 39  1  0
 11 40  1  0
 15 41  1  0
 16 42  1  0
 17 43  1  0
 18 44  1  0
 19 45  1  0
 20 46  1  0
 21 47  1  0
 27 48  1  0
 28 49  1  0
 29 50  1  0
 31 51  1  0
M  CHG  1  26  -1
M  END
>  <UniqueID>  (80) 
75

>  <SMILES>  (80) 
CN(C)S(=O)(=O)C(=Cc1ccc(Sc2ccccc2)cc1)C(=O)N=c1[n-]cccc1O

>  <Energy>  (80) 
73.89232381504858

>  <Genealogy>  (80) 
CN(C)S(=O)(=O)C(=Cc1ccc(Sc2ccccc2)cc1)C(=O)N=c1[n-]cccc1O (protonated)
CN(C)S(=O)(=O)C(=Cc1ccc(Sc2ccccc2)cc1)C(=O)N=c1[n-]cccc1O (3D coordinates assigned)
CN(C)S(=O)(=O)C(=Cc1ccc(Sc2ccccc2)cc1)C(=O)N=c1[n-]cccc1O (optimized conformer: 73.89232381504858 kcal/mol)

>  <smiles>  (80) 
CN(C)S(=O)(=O)C(=Cc1ccc(Sc2ccccc2)cc1)C(=O)N=c1[nH]cccc1O

>  <score_type>  (80) 
oracle

>  <origin>  (80) 
adg

>  <m_score__min__energy>  (80) 
-11.07

>  <m_primary>  (80) 
energy

$$$$
80:0
     RDKit          3D

 49 51  0  0  0  0  0  0  0  0999 V2000
   58.5072   27.6861   46.0357 H   0  0  0  0  0  0  0  0  0  0  0  0
   58.0960   28.5550   45.5010 C   0  0  0  0  0  0  0  0  0  0  0  0
   56.6270   28.6220   45.3420 C   0  0  0  0  0  0  0  0  0  0  0  0
   56.1190   29.6680   44.8580 O   0  0  0  0  0  0  0  0  0  0  0  0
   55.8060   27.4790   45.6190 N   0  0  0  0  0  0  0  0  0  0  0  0
   56.2100   26.2160   46.1640 C   0  0  0  0  0  0  0  0  0  0  0  0
   57.2520   26.1000   47.0990 C   0  0  0  0  0  0  0  0  0  0  0  0
   57.7790   27.0003   47.4480 H   0  0  0  0  0  0  0  0  0  0  0  0
   57.6200   24.8450   47.5860 C   0  0  0  0  0  0  0  0  0  0  0  0
   58.4288   24.7622   48.3270 H   0  0  0  0  0  0  0  0  0  0  0  0
   56.9670   23.6910   47.1380 C   0  0  0  0  0  0  0  0  0  0  0  0
   57.3540   22.4550   47.6440 O   0  0  0  0  0  0  0  0  0  0  0  0
   55.9370   23.7920   46.1830 C   0  0  0  0  0  0  0  0  0  0  0  0
   55.2250   22.5720   45.6580 C   0  0  0  0  0  0  0  0  0  0  0  0
   54.1521   22.6526   45.8867 H   0  0  0  0  0  0  0  0  0  0  0  0
   55.6491   21.6782   46.1388 H   0  0  0  0  0  0  0  0  0  0  0  0
   55.3970   22.4620   44.2470 O   0  0  0  0  0  0  0  0  0  0  0  0
   56.4950   21.8300   43.6540 C   0  0  0  0  0  0  0  0  0  0  0  0
   56.3420   21.0700   42.6600 O   0  0  0  0  0  0  0  0  0  0  0  0
   57.8520   22.0170   44.2410 C   0  0  0  0  0  0  0  0  0  0  0  0
   57.7812   22.0072   45.3387 H   0  0  0  0  0  0  0  0  0  0  0  0
   58.5108   21.2012   43.9088 H   0  0  0  0  0  0  0  0  0  0  0  0
   58.2656   22.9806   43.9088 H   0  0  0  0  0  0  0  0  0  0  0  0
   55.5770   25.0590   45.6940 C   0  0  0  0  0  0  0  0  0  0  0  0
   54.7879   25.1430   44.9323 H   0  0  0  0  0  0  0  0  0  0  0  0
   58.9680   29.4680   45.0460 C   0  0  0  0  0  0  0  0  0  0  0  0
   59.9731   29.1221   44.7627 H   0  0  0  0  0  0  0  0  0  0  0  0
   58.6680   30.9020   44.9010 C   0  0  0  0  0  0  0  0  0  0  0  0
   58.1150   31.3960   43.7080 C   0  0  0  0  0  0  0  0  0  0  0  0
   57.9204   30.7126   42.8683 H   0  0  0  0  0  0  0  0  0  0  0  0
   57.8120   32.7540   43.5870 C   0  0  0  0  0  0  0  0  0  0  0  0
   57.3754   33.1377   42.6531 H   0  0  0  0  0  0  0  0  0  0  0  0
   58.0620   33.6260   44.6490 C   0  0  0  0  0  0  0  0  0  0  0  0
   57.8144   34.6933   44.5507 H   0  0  0  0  0  0  0  0  0  0  0  0
   58.6280   33.1470   45.8420 C   0  0  0  0  0  0  0  0  0  0  0  0
   58.8650   34.0840   46.9960 C   0  0  0  0  0  0  0  0  0  0  0  0
   58.6623   35.1153   46.6715 H   0  0  0  0  0  0  0  0  0  0  0  0
   58.1939   33.8054   47.8219 H   0  0  0  0  0  0  0  0  0  0  0  0
   60.2920   33.9870   47.4760 C   0  0  0  0  0  0  0  0  0  0  0  0
   61.3390   33.8370   46.5560 C   0  0  0  0  0  0  0  0  0  0  0  0
   61.1203   33.7913   45.4789 H   0  0  0  0  0  0  0  0  0  0  0  0
   62.6210   33.7480   46.9900 N   0  0  0  0  0  0  0  0  0  0  0  0
   62.9180   33.8110   48.3140 C   0  0  0  0  0  0  0  0  0  0  0  0
   64.1130   33.7150   48.6950 O   0  0  0  0  0  0  0  0  0  0  0  0
   61.9250   33.9780   49.2250 N   0  0  0  0  0  0  0  0  0  0  0  0
   60.6260   34.0710   48.8390 C   0  0  0  0  0  0  0  0  0  0  0  0
   59.7320   34.2280   49.7130 O   0  0  0  0  0  0  0  0  0  0  0  0
   58.9370   31.7820   45.9580 C   0  0  0  0  0  0  0  0  0  0  0  0
   59.3928   31.4013   46.8839 H   0  0  0  0  0  0  0  0  0  0  0  0
  1  2  1  0
  2  3  1  0
  3  4  2  0
  3  5  1  0
  5  6  1  0
  6  7  2  0
  7  8  1  0
  7  9  1  0
  9 10  1  0
  9 11  2  0
 11 12  1  0
 11 13  1  0
 13 14  1  0
 14 15  1  0
 14 16  1  0
 14 17  1  0
 17 18  1  0
 18 19  2  0
 18 20  1  0
 20 21  1  0
 20 22  1  0
 20 23  1  0
 13 24  2  0
 24 25  1  0
  2 26  2  0
 26 27  1  0
 26 28  1  0
 28 29  2  0
 29 30  1  0
 29 31  1  0
 31 32  1  0
 31 33  2  0
 33 34  1  0
 33 35  1  0
 35 36  1  0
 36 37  1  0
 36 38  1  0
 36 39  1  0
 39 40  2  0
 40 41  1  0
 40 42  1  0
 42 43  1  0
 43 44  2  0
 43 45  1  0
 45 46  1  0
 46 47  2  0
 35 48  2  0
 48 49  1  0
 24  6  1  0
 48 28  1  0
 46 39  1  0
M  CHG  4   5  -1  12  -1  42  -1  45  -1
M  END
>  <UniqueID>  (81) 
76

>  <SMILES>  (81) 
CC(=O)OCc1cc([N-]C(=O)/C=C\c2cccc(Cc3c[n-]c(=O)[n-]c3=O)c2)ccc1[O-]

>  <Energy>  (81) 
57.10774291562899

>  <Genealogy>  (81) 
CC(=O)OCc1cc([N-]C(=O)C=Cc2cccc(Cc3c[n-]c(=O)[n-]c3=O)c2)ccc1[O-] (protonated)
CC(=O)OCc1cc([N-]C(=O)/C=C\c2cccc(Cc3c[n-]c(=O)[n-]c3=O)c2)ccc1[O-] (cis-trans isomerization)
CC(=O)OCc1cc([N-]C(=O)/C=C\c2cccc(Cc3c[n-]c(=O)[n-]c3=O)c2)ccc1[O-] (3D coordinates assigned)
CC(=O)OCc1cc([N-]C(=O)/C=C\c2cccc(Cc3c[n-]c(=O)[n-]c3=O)c2)ccc1[O-] (optimized conformer: 57.10774291562899 kcal/mol)

>  <smiles>  (81) 
CC(=O)OCc1cc(NC(=O)C=Cc2cccc(Cc3c[nH]c(=O)[nH]c3=O)c2)ccc1O

>  <score_type>  (81) 
oracle

>  <origin>  (81) 
adg

>  <m_score__min__energy>  (81) 
-16.699999999999999

>  <m_primary>  (81) 
energy

$$$$
81:0
     RDKit          3D

 47 49  0  0  0  0  0  0  0  0999 V2000
   54.5374   28.8016   55.3946 H   0  0  0  0  0  0  0  0  0  0  0  0
   53.9140   29.2430   54.6030 C   0  0  0  0  0  0  0  0  0  0  0  0
   52.8176   29.2162   54.6872 H   0  0  0  0  0  0  0  0  0  0  0  0
   54.4920   29.8150   53.5330 C   0  0  0  0  0  0  0  0  0  0  0  0
   53.8230   30.4130   52.4550 C   0  0  0  0  0  0  0  0  0  0  0  0
   52.4870   30.5370   52.2980 C   0  0  0  0  0  0  0  0  0  0  0  0
   51.8595   30.3826   53.1882 H   0  0  0  0  0  0  0  0  0  0  0  0
   51.7950   30.8630   51.0300 C   0  0  0  0  0  0  0  0  0  0  0  0
   51.7350   30.0800   49.9370 N   0  0  0  0  0  0  0  0  0  0  0  0
   51.0470   30.8290   49.0480 C   0  0  0  0  0  0  0  0  0  0  0  0
   50.7790   30.4260   47.8870 O   0  0  0  0  0  0  0  0  0  0  0  0
   50.6720   32.0430   49.5020 N   0  0  0  0  0  0  0  0  0  0  0  0
   51.1570   32.0510   50.7530 C   0  0  0  0  0  0  0  0  0  0  0  0
   51.0190   33.1220   51.6270 O   0  0  0  0  0  0  0  0  0  0  0  0
   54.8110   30.8160   51.5670 C   0  0  0  0  0  0  0  0  0  0  0  0
   54.6585   31.3106   50.5963 H   0  0  0  0  0  0  0  0  0  0  0  0
   56.0200   30.4770   52.1360 C   0  0  0  0  0  0  0  0  0  0  0  0
   57.3190   30.7110   51.4770 C   0  0  0  0  0  0  0  0  0  0  0  0
   58.0430   29.7150   51.1960 O   0  0  0  0  0  0  0  0  0  0  0  0
   57.6870   32.0330   51.0160 N   0  0  1  0  0  0  0  0  0  0  0  0
   56.9660   32.3690   50.3350 H   0  0  0  0  0  0  0  0  0  0  0  0
   57.7270   32.9740   52.1520 C   0  0  0  0  0  0  0  0  0  0  0  0
   57.7030   32.4102   53.0962 H   0  0  0  0  0  0  0  0  0  0  0  0
   58.6512   33.5685   52.1033 H   0  0  0  0  0  0  0  0  0  0  0  0
   56.8566   33.6448   52.1033 H   0  0  0  0  0  0  0  0  0  0  0  0
   58.9930   31.9590   50.3230 C   0  0  0  0  0  0  0  0  0  0  0  0
   59.7803   32.3041   51.0094 H   0  0  0  0  0  0  0  0  0  0  0  0
   59.1612   30.9146   50.0213 H   0  0  0  0  0  0  0  0  0  0  0  0
   59.0180   32.8170   49.0790 C   0  0  0  0  0  0  0  0  0  0  0  0
   59.9720   33.8380   48.9370 C   0  0  0  0  0  0  0  0  0  0  0  0
   60.7182   34.0044   49.7279 H   0  0  0  0  0  0  0  0  0  0  0  0
   59.9770   34.6440   47.7940 C   0  0  0  0  0  0  0  0  0  0  0  0
   60.7280   35.4405   47.6864 H   0  0  0  0  0  0  0  0  0  0  0  0
   59.0280   34.4380   46.7880 C   0  0  0  0  0  0  0  0  0  0  0  0
   59.0336   35.0714   45.8887 H   0  0  0  0  0  0  0  0  0  0  0  0
   58.0720   33.4270   46.9250 C   0  0  0  0  0  0  0  0  0  0  0  0
   57.3246   33.2668   46.1340 H   0  0  0  0  0  0  0  0  0  0  0  0
   58.0650   32.6190   48.0670 C   0  0  0  0  0  0  0  0  0  0  0  0
   57.3103   31.8258   48.1725 H   0  0  0  0  0  0  0  0  0  0  0  0
   55.8370   29.8740   53.3340 N   0  0  0  0  0  0  0  0  0  0  0  0
   56.8820   29.2360   54.1510 C   0  0  0  0  0  0  0  0  0  0  0  0
   57.8579   29.6771   53.9000 H   0  0  0  0  0  0  0  0  0  0  0  0
   56.6542   29.4019   55.2143 H   0  0  0  0  0  0  0  0  0  0  0  0
   56.9250   27.7360   53.8830 C   0  0  0  0  0  0  0  0  0  0  0  0
   56.9406   27.1929   54.8395 H   0  0  0  0  0  0  0  0  0  0  0  0
   56.0350   27.4406   53.3081 H   0  0  0  0  0  0  0  0  0  0  0  0
   57.8305   27.4921   53.3081 H   0  0  0  0  0  0  0  0  0  0  0  0
  1  2  1  0
  2  3  1  0
  2  4  2  0
  4  5  1  0
  5  6  2  0
  6  7  1  0
  6  8  1  0
  8  9  1  0
  9 10  1  0
 10 11  2  0
 10 12  1  0
 12 13  1  0
 13 14  1  0
  5 15  1  0
 15 16  1  0
 15 17  2  0
 17 18  1  0
 18 19  2  0
 18 20  1  0
 20 21  1  6
 20 22  1  0
 22 23  1  0
 22 24  1  0
 22 25  1  0
 20 26  1  0
 26 27  1  0
 26 28  1  0
 26 29  1  0
 29 30  2  0
 30 31  1  0
 30 32  1  0
 32 33  1  0
 32 34  2  0
 34 35  1  0
 34 36  1  0
 36 37  1  0
 36 38  2  0
 38 39  1  0
 17 40  1  0
 40 41  1  0
 41 42  1  0
 41 43  1  0
 41 44  1  0
 44 45  1  0
 44 46  1  0
 44 47  1  0
 40  4  1  0
 13  8  2  0
 38 29  1  0
M  CHG  4   9  -1  12  -1  14  -1  20   1
M  END
>  <UniqueID>  (82) 
77

>  <SMILES>  (82) 
C=c1/c(=C/c2[n-]c(=O)[n-]c2[O-])cc(C(=O)[N@@H+](C)Cc2ccccc2)n1CC

>  <Energy>  (82) 
116.96311214770506

>  <Genealogy>  (82) 
C=c1c(=Cc2[n-]c(=O)[n-]c2[O-])cc(C(=O)[NH+](C)Cc2ccccc2)n1CC (protonated)
C=c1c(=Cc2[n-]c(=O)[n-]c2[O-])cc(C(=O)[N@@H+](C)Cc2ccccc2)n1CC (chirality)
C=c1/c(=C/c2[n-]c(=O)[n-]c2[O-])cc(C(=O)[N@@H+](C)Cc2ccccc2)n1CC (cis-trans isomerization)
C=c1/c(=C/c2[n-]c(=O)[n-]c2[O-])cc(C(=O)[N@@H+](C)Cc2ccccc2)n1CC (3D coordinates assigned)
C=c1/c(=C/c2[n-]c(=O)[n-]c2[O-])cc(C(=O)[N@@H+](C)Cc2ccccc2)n1CC (optimized conformer: 116.96311214770506 kcal/mol)

>  <smiles>  (82) 
C=c1c(=Cc2[nH]c(=O)[nH]c2O)cc(C(=O)N(C)Cc2ccccc2)n1CC

>  <score_type>  (82) 
oracle

>  <origin>  (82) 
adg

>  <m_score__min__energy>  (82) 
-16.550000000000001

>  <m_primary>  (82) 
energy

$$$$
82:0
     RDKit          3D

 43 46  0  0  0  0  0  0  0  0999 V2000
   58.6890   23.0160   45.7670 N   0  0  0  0  0  0  0  0  0  0  0  0
   58.0340   23.9700   45.7780 C   0  0  0  0  0  0  0  0  0  0  0  0
   57.2210   25.1550   45.7920 C   0  0  0  0  0  0  0  0  0  0  0  0
   55.8900   25.2120   46.1210 C   0  0  0  0  0  0  0  0  0  0  0  0
   55.4740   26.4860   46.0130 N   0  0  0  0  0  0  0  0  0  0  0  0
   56.5790   27.1600   45.6220 C   0  0  0  0  0  0  0  0  0  0  0  0
   56.5860   28.6100   45.3750 C   0  0  0  0  0  0  0  0  0  0  0  0
   55.5130   29.1820   45.0400 O   0  0  0  0  0  0  0  0  0  0  0  0
   57.7920   29.3700   45.5510 N   0  0  0  0  0  0  0  0  0  0  0  0
   57.9570   30.7270   45.1030 C   0  0  0  0  0  0  0  0  0  0  0  0
   58.0370   30.9920   43.7280 C   0  0  0  0  0  0  0  0  0  0  0  0
   58.1600   32.3050   43.2660 C   0  0  0  0  0  0  0  0  0  0  0  0
   58.2010   33.3660   44.1730 C   0  0  0  0  0  0  0  0  0  0  0  0
   58.1300   33.1180   45.5530 C   0  0  0  0  0  0  0  0  0  0  0  0
   58.0920   34.2320   46.5210 C   0  0  0  0  0  0  0  0  0  0  0  0
   59.1540   34.7350   47.1720 C   0  0  0  0  0  0  0  0  0  0  0  0
   60.5260   34.1640   47.1750 C   0  0  0  0  0  0  0  0  0  0  0  0
   61.3890   34.5570   46.3470 O   0  0  0  0  0  0  0  0  0  0  0  0
   60.9080   33.1710   48.1340 N   0  0  0  0  0  0  0  0  0  0  0  0
   60.4680   31.8070   48.1620 C   0  0  0  0  0  0  0  0  0  0  0  0
   59.5330   31.3490   49.1290 C   0  0  0  0  0  0  0  0  0  0  0  0
   59.0900   30.0140   49.1180 C   0  0  0  0  0  0  0  0  0  0  0  0
   59.5820   29.1760   48.1230 C   0  0  0  0  0  0  0  0  0  0  0  0
   60.4550   29.6140   47.1820 C   0  0  0  0  0  0  0  0  0  0  0  0
   60.9170   30.9260   47.1590 C   0  0  0  0  0  0  0  0  0  0  0  0
   60.7640   28.5770   46.3230 O   0  0  0  0  0  0  0  0  0  0  0  0
   60.0440   27.4130   46.7540 C   0  0  0  0  0  0  0  0  0  0  0  0
   59.2990   27.8410   47.9040 O   0  0  0  0  0  0  0  0  0  0  0  0
   57.9760   31.8010   46.0110 C   0  0  0  0  0  0  0  0  0  0  0  0
   57.6710   26.3790   45.4740 N   0  0  0  0  0  0  0  0  0  0  0  0
   55.2669   24.3573   46.4230 H   0  0  0  0  0  0  0  0  0  0  0  0
   58.5610   28.9480   46.1180 H   0  0  0  0  0  0  0  0  0  0  0  0
   58.0027   30.1606   43.0085 H   0  0  0  0  0  0  0  0  0  0  0  0
   58.2246   32.5032   42.1859 H   0  0  0  0  0  0  0  0  0  0  0  0
   58.2892   34.3989   43.8052 H   0  0  0  0  0  0  0  0  0  0  0  0
   57.1124   34.6882   46.7263 H   0  0  0  0  0  0  0  0  0  0  0  0
   58.9934   35.6532   47.7561 H   0  0  0  0  0  0  0  0  0  0  0  0
   59.1526   32.0439   49.8922 H   0  0  0  0  0  0  0  0  0  0  0  0
   58.3782   29.6451   49.8712 H   0  0  0  0  0  0  0  0  0  0  0  0
   61.6139   31.2661   46.3788 H   0  0  0  0  0  0  0  0  0  0  0  0
   59.3654   27.0630   45.9621 H   0  0  0  0  0  0  0  0  0  0  0  0
   60.7164   26.5740   46.9864 H   0  0  0  0  0  0  0  0  0  0  0  0
   57.8693   31.6068   47.0884 H   0  0  0  0  0  0  0  0  0  0  0  0
  1  2  3  0
  2  3  1  0
  3  4  2  0
  4  5  1  0
  5  6  1  0
  6  7  1  0
  7  8  2  0
  7  9  1  0
  9 10  1  0
 10 11  2  0
 11 12  1  0
 12 13  2  0
 13 14  1  0
 14 15  1  0
 15 16  2  3
 16 17  1  0
 17 18  2  0
 17 19  1  0
 19 20  1  0
 20 21  2  0
 21 22  1  0
 22 23  2  0
 23 24  1  0
 24 25  2  0
 24 26  1  0
 26 27  1  0
 27 28  1  0
 14 29  2  0
  6 30  2  0
 30  3  1  0
 29 10  1  0
 25 20  1  0
 28 23  1  0
  4 31  1  0
  9 32  1  0
 11 33  1  0
 12 34  1  0
 13 35  1  0
 15 36  1  0
 16 37  1  0
 21 38  1  0
 22 39  1  0
 25 40  1  0
 27 41  1  0
 27 42  1  0
 29 43  1  0
M  CHG  2   5  -1  19  -1
M  END
>  <UniqueID>  (83) 
78

>  <SMILES>  (83) 
N#Cc1c[n-]c(C(=O)Nc2cccc(C=CC(=O)[N-]c3ccc4c(c3)OCO4)c2)n1

>  <Energy>  (83) 
117.80975488096988

>  <Genealogy>  (83) 
N#Cc1c[n-]c(C(=O)Nc2cccc(C=CC(=O)[N-]c3ccc4c(c3)OCO4)c2)n1 (protonated)
N#Cc1c[n-]c(C(=O)Nc2cccc(C=CC(=O)[N-]c3ccc4c(c3)OCO4)c2)n1 (3D coordinates assigned)
N#Cc1c[n-]c(C(=O)Nc2cccc(C=CC(=O)[N-]c3ccc4c(c3)OCO4)c2)n1 (nonaromatic ring conformer: 117.80975488096988 kcal/mol)

>  <smiles>  (83) 
N#Cc1c[nH]c(C(=O)Nc2cccc(C=CC(=O)Nc3ccc4c(c3)OCO4)c2)n1

>  <score_type>  (83) 
oracle

>  <origin>  (83) 
adg

>  <m_score__min__energy>  (83) 
-11.15

>  <m_primary>  (83) 
energy

$$$$
83:0
     RDKit          3D

 40 42  0  0  0  0  0  0  0  0999 V2000
   54.5590   26.2180   45.9310 N   0  0  0  0  0  0  0  0  0  0  0  0
   55.8140   25.0530   46.1600 S   0  0  0  0  0  0  0  0  0  0  0  0
   55.7480   24.0200   45.0700 O   0  0  0  0  0  0  0  0  0  0  0  0
   55.6250   24.3690   47.4850 O   0  0  0  0  0  0  0  0  0  0  0  0
   57.3780   25.8600   46.1220 C   0  0  0  0  0  0  0  0  0  0  0  0
   58.5580   25.1110   46.0090 C   0  0  0  0  0  0  0  0  0  0  0  0
   59.7990   25.7540   45.9910 C   0  0  0  0  0  0  0  0  0  0  0  0
   59.8710   27.1460   46.0920 C   0  0  0  0  0  0  0  0  0  0  0  0
   58.6960   27.9000   46.2140 C   0  0  0  0  0  0  0  0  0  0  0  0
   58.7690   29.3330   46.3230 C   0  0  0  0  0  0  0  0  0  0  0  0
   58.8280   30.5340   46.4140 C   0  0  0  0  0  0  0  0  0  0  0  0
   58.8970   31.9680   46.5230 C   0  0  0  0  0  0  0  0  0  0  0  0
   58.5930   32.7700   45.4150 C   0  0  0  0  0  0  0  0  0  0  0  0
   58.6570   34.1610   45.5220 C   0  0  0  0  0  0  0  0  0  0  0  0
   59.0240   34.7570   46.7320 C   0  0  0  0  0  0  0  0  0  0  0  0
   59.3330   33.9610   47.8470 C   0  0  0  0  0  0  0  0  0  0  0  0
   59.7100   34.5940   49.1610 C   0  0  0  0  0  0  0  0  0  0  0  0
   61.0920   34.2700   49.5100 N   0  0  0  0  0  0  0  0  0  0  0  0
   61.9250   33.6360   48.7390 C   0  0  0  0  0  0  0  0  0  0  0  0
   62.3960   32.4030   49.0800 N   0  0  0  0  0  0  0  0  0  0  0  0
   63.2650   31.7380   48.2750 C   0  0  0  0  0  0  0  0  0  0  0  0
   63.6880   32.3180   47.0810 C   0  0  0  0  0  0  0  0  0  0  0  0
   63.1990   33.5800   46.7470 C   0  0  0  0  0  0  0  0  0  0  0  0
   62.3310   34.2140   47.5780 N   0  0  0  0  0  0  0  0  0  0  0  0
   59.2660   32.5630   47.7370 C   0  0  0  0  0  0  0  0  0  0  0  0
   57.4520   27.2560   46.2310 C   0  0  0  0  0  0  0  0  0  0  0  0
   54.8580   27.0900   46.4220 H   0  0  0  0  0  0  0  0  0  0  0  0
   58.5070   24.0147   45.9343 H   0  0  0  0  0  0  0  0  0  0  0  0
   60.7217   25.1626   45.8971 H   0  0  0  0  0  0  0  0  0  0  0  0
   60.8490   27.6493   46.0758 H   0  0  0  0  0  0  0  0  0  0  0  0
   58.3041   32.3042   44.4613 H   0  0  0  0  0  0  0  0  0  0  0  0
   58.4179   34.7895   44.6515 H   0  0  0  0  0  0  0  0  0  0  0  0
   59.0709   35.8531   46.8111 H   0  0  0  0  0  0  0  0  0  0  0  0
   59.6040   35.6859   49.0799 H   0  0  0  0  0  0  0  0  0  0  0  0
   59.0452   34.2046   49.9461 H   0  0  0  0  0  0  0  0  0  0  0  0
   63.6341   30.7433   48.5654 H   0  0  0  0  0  0  0  0  0  0  0  0
   64.3910   31.7927   46.4177 H   0  0  0  0  0  0  0  0  0  0  0  0
   63.5159   34.0625   45.8107 H   0  0  0  0  0  0  0  0  0  0  0  0
   59.5039   31.9326   48.6065 H   0  0  0  0  0  0  0  0  0  0  0  0
   56.5299   27.8476   46.3302 H   0  0  0  0  0  0  0  0  0  0  0  0
  1  2  1  0
  2  3  2  0
  2  4  2  0
  2  5  1  0
  5  6  2  0
  6  7  1  0
  7  8  2  0
  8  9  1  0
  9 10  1  0
 10 11  3  0
 11 12  1  0
 12 13  2  0
 13 14  1  0
 14 15  2  0
 15 16  1  0
 16 17  1  0
 17 18  1  0
 18 19  2  3
 19 20  1  0
 20 21  2  0
 21 22  1  0
 22 23  2  0
 23 24  1  0
 16 25  2  0
  9 26  2  0
 26  5  1  0
 25 12  1  0
 24 19  1  0
  1 27  1  0
  6 28  1  0
  7 29  1  0
  8 30  1  0
 13 31  1  0
 14 32  1  0
 15 33  1  0
 17 34  1  0
 17 35  1  0
 21 36  1  0
 22 37  1  0
 23 38  1  0
 25 39  1  0
 26 40  1  0
M  CHG  2   1  -1  24  -1
M  END
>  <UniqueID>  (84) 
79

>  <SMILES>  (84) 
[NH-]S(=O)(=O)c1cccc(C#Cc2cccc(CN=c3nccc[n-]3)c2)c1

>  <Energy>  (84) 
38.79626233843637

>  <Genealogy>  (84) 
[NH-]S(=O)(=O)c1cccc(C#Cc2cccc(CN=c3nccc[n-]3)c2)c1 (protonated)
[NH-]S(=O)(=O)c1cccc(C#Cc2cccc(CN=c3nccc[n-]3)c2)c1 (3D coordinates assigned)
[NH-]S(=O)(=O)c1cccc(C#Cc2cccc(CN=c3nccc[n-]3)c2)c1 (optimized conformer: 38.79626233843637 kcal/mol)

>  <smiles>  (84) 
NS(=O)(=O)c1cccc(C#Cc2cccc(CN=c3nccc[nH]3)c2)c1

>  <score_type>  (84) 
oracle

>  <origin>  (84) 
adg

>  <m_score__min__energy>  (84) 
-12.380000000000001

>  <m_primary>  (84) 
energy

$$$$
84:0
     RDKit          3D

 67 71  0  0  0  0  0  0  0  0999 V2000
   59.4270   29.6680   46.6550 C   0  0  0  0  0  0  0  0  0  0  0  0
   58.7060   30.5390   45.9320 C   0  0  0  0  0  0  0  0  0  0  0  0
   57.4850   30.2920   45.2850 C   0  0  0  0  0  0  0  0  0  0  0  0
   56.7890   29.1520   45.1160 C   0  0  0  0  0  0  0  0  0  0  0  0
   57.2830   27.8070   45.4360 C   0  0  0  0  0  0  0  0  0  0  0  0
   58.5760   27.4350   45.3320 N   0  0  0  0  0  0  0  0  0  0  0  0
   58.5520   26.1160   45.6250 C   0  0  0  0  0  0  0  0  0  0  0  0
   59.5920   25.4100   45.6630 O   0  0  0  0  0  0  0  0  0  0  0  0
   57.3160   25.6350   45.8810 N   0  0  0  0  0  0  0  0  0  0  0  0
   56.9750   24.2800   46.3450 C   0  0  0  0  0  0  0  0  0  0  0  0
   55.8550   23.6340   45.4890 C   0  0  0  0  0  0  0  0  0  0  0  0
   54.5920   23.3400   46.3100 C   0  0  0  0  0  0  0  0  0  0  0  0
   54.9130   22.4810   47.4670 N   0  0  0  0  0  0  0  0  0  0  0  0
   53.7110   22.2580   48.2820 C   0  0  0  0  0  0  0  0  0  0  0  0
   56.0490   22.9660   48.3010 C   0  0  0  0  0  0  0  0  0  0  0  0
   56.6290   24.3160   47.8430 C   0  0  0  0  0  0  0  0  0  0  0  0
   56.5160   26.7130   45.7700 C   0  0  0  0  0  0  0  0  0  0  0  0
   55.1410   26.7070   45.9880 O   0  0  0  0  0  0  0  0  0  0  0  0
   57.0590   31.5060   44.7830 C   0  0  0  0  0  0  0  0  0  0  0  0
   58.0370   32.4310   45.0850 C   0  0  0  0  0  0  0  0  0  0  0  0
   58.0040   33.8640   44.6380 C   0  0  0  0  0  0  0  0  0  0  0  0
   59.0330   31.8550   45.7990 N   0  0  0  0  0  0  0  0  0  0  0  0
   60.1900   32.5500   46.3900 C   0  0  0  0  0  0  0  0  0  0  0  0
   59.9850   32.7840   47.8680 C   0  0  0  0  0  0  0  0  0  0  0  0
   60.8840   33.5830   48.5920 C   0  0  0  0  0  0  0  0  0  0  0  0
   60.7040   33.7970   49.9590 C   0  0  0  0  0  0  0  0  0  0  0  0
   59.6100   33.2270   50.6280 C   0  0  0  0  0  0  0  0  0  0  0  0
   59.3960   33.4810   52.0270 N   0  0  0  0  0  0  0  0  0  0  0  0
   58.5820   34.5740   52.5490 C   0  0  0  0  0  0  0  0  0  0  0  0
   58.8940   34.6520   54.0550 C   0  0  0  0  0  0  0  0  0  0  0  0
   59.7150   33.4020   54.4130 C   0  0  0  0  0  0  0  0  0  0  0  0
   60.0080   32.7920   53.1010 C   0  0  0  0  0  0  0  0  0  0  0  0
   60.6620   31.7250   52.9570 O   0  0  0  0  0  0  0  0  0  0  0  0
   58.7060   32.4310   49.9060 C   0  0  0  0  0  0  0  0  0  0  0  0
   58.9010   32.1980   48.5410 C   0  0  0  0  0  0  0  0  0  0  0  0
   60.3744   29.9862   47.1146 H   0  0  0  0  0  0  0  0  0  0  0  0
   59.0706   28.6359   46.7880 H   0  0  0  0  0  0  0  0  0  0  0  0
   55.7714   29.2347   44.7065 H   0  0  0  0  0  0  0  0  0  0  0  0
   57.8543   23.6323   46.2137 H   0  0  0  0  0  0  0  0  0  0  0  0
   55.5934   24.3216   44.6712 H   0  0  0  0  0  0  0  0  0  0  0  0
   56.2359   22.6772   45.1024 H   0  0  0  0  0  0  0  0  0  0  0  0
   54.1663   24.2880   46.6706 H   0  0  0  0  0  0  0  0  0  0  0  0
   53.8666   22.8165   45.6699 H   0  0  0  0  0  0  0  0  0  0  0  0
   53.9767   22.3073   49.3483 H   0  0  0  0  0  0  0  0  0  0  0  0
   52.9644   23.0330   48.0539 H   0  0  0  0  0  0  0  0  0  0  0  0
   53.2921   21.2668   48.0539 H   0  0  0  0  0  0  0  0  0  0  0  0
   55.6959   23.0747   49.3371 H   0  0  0  0  0  0  0  0  0  0  0  0
   56.8550   22.2237   48.2043 H   0  0  0  0  0  0  0  0  0  0  0  0
   55.8866   25.1075   48.0230 H   0  0  0  0  0  0  0  0  0  0  0  0
   57.5480   24.5172   48.4130 H   0  0  0  0  0  0  0  0  0  0  0  0
   54.6760   25.9100   46.4040 H   0  0  0  0  0  0  0  0  0  0  0  0
   56.1191   31.6987   44.2450 H   0  0  0  0  0  0  0  0  0  0  0  0
   57.9888   34.5226   45.5189 H   0  0  0  0  0  0  0  0  0  0  0  0
   58.8974   34.0803   44.0338 H   0  0  0  0  0  0  0  0  0  0  0  0
   57.1016   34.0389   44.0338 H   0  0  0  0  0  0  0  0  0  0  0  0
   61.0910   31.9358   46.2448 H   0  0  0  0  0  0  0  0  0  0  0  0
   60.3036   33.5251   45.8937 H   0  0  0  0  0  0  0  0  0  0  0  0
   61.7389   34.0450   48.0765 H   0  0  0  0  0  0  0  0  0  0  0  0
   61.4235   34.4158   50.5153 H   0  0  0  0  0  0  0  0  0  0  0  0
   58.8483   35.5194   52.0538 H   0  0  0  0  0  0  0  0  0  0  0  0
   57.5109   34.4018   52.3673 H   0  0  0  0  0  0  0  0  0  0  0  0
   59.4751   35.5601   54.2732 H   0  0  0  0  0  0  0  0  0  0  0  0
   57.9665   34.6929   54.6450 H   0  0  0  0  0  0  0  0  0  0  0  0
   60.6436   33.6779   54.9341 H   0  0  0  0  0  0  0  0  0  0  0  0
   59.1818   32.7203   55.0919 H   0  0  0  0  0  0  0  0  0  0  0  0
   57.8388   31.9879   50.4175 H   0  0  0  0  0  0  0  0  0  0  0  0
   58.2009   31.5517   47.9912 H   0  0  0  0  0  0  0  0  0  0  0  0
  1  2  2  0
  2  3  1  0
  3  4  2  3
  4  5  1  0
  5  6  1  0
  6  7  1  0
  7  8  2  0
  7  9  1  0
  9 10  1  0
 10 11  1  0
 11 12  1  0
 12 13  1  0
 13 14  1  0
 13 15  1  0
 15 16  1  0
  9 17  1  0
 17 18  1  0
  3 19  1  0
 19 20  2  0
 20 21  1  0
 20 22  1  0
 22 23  1  0
 23 24  1  0
 24 25  2  0
 25 26  1  0
 26 27  2  0
 27 28  1  0
 28 29  1  0
 29 30  1  0
 30 31  1  0
 31 32  1  0
 32 33  2  0
 27 34  1  0
 34 35  2  0
 22  2  1  0
 35 24  1  0
 17  5  2  0
 32 28  1  0
 16 10  1  0
  1 36  1  0
  1 37  1  0
  4 38  1  0
 10 39  1  0
 11 40  1  0
 11 41  1  0
 12 42  1  0
 12 43  1  0
 14 44  1  0
 14 45  1  0
 14 46  1  0
 15 47  1  0
 15 48  1  0
 16 49  1  0
 16 50  1  0
 18 51  1  0
 19 52  1  0
 21 53  1  0
 21 54  1  0
 21 55  1  0
 23 56  1  0
 23 57  1  0
 25 58  1  0
 26 59  1  0
 29 60  1  0
 29 61  1  0
 30 62  1  0
 30 63  1  0
 31 64  1  0
 31 65  1  0
 34 66  1  0
 35 67  1  0
M  CHG  1   6  -1
M  END
>  <UniqueID>  (85) 
80

>  <SMILES>  (85) 
C=c1c(=Cc2[n-]c(=O)n(C3CCN(C)CC3)c2O)cc(C)n1Cc1ccc(N2CCCC2=O)cc1

>  <Energy>  (85) 
160.79541773237293

>  <Genealogy>  (85) 
C=c1c(=Cc2[n-]c(=O)n(C3CCN(C)CC3)c2O)cc(C)n1Cc1ccc(N2CCCC2=O)cc1 (protonated)
C=c1c(=Cc2[n-]c(=O)n(C3CCN(C)CC3)c2O)cc(C)n1Cc1ccc(N2CCCC2=O)cc1 (3D coordinates assigned)
C=c1c(=Cc2[n-]c(=O)n(C3CCN(C)CC3)c2O)cc(C)n1Cc1ccc(N2CCCC2=O)cc1 (nonaromatic ring conformer: 160.79541773237293 kcal/mol)

>  <smiles>  (85) 
C=c1c(=Cc2[nH]c(=O)n(C3CCN(C)CC3)c2O)cc(C)n1Cc1ccc(N2CCCC2=O)cc1

>  <score_type>  (85) 
oracle

>  <origin>  (85) 
adg

>  <m_score__min__energy>  (85) 
-11.67

>  <m_primary>  (85) 
energy

$$$$
85:0
     RDKit          3D

 27 28  0  0  0  0  0  0  0  0999 V2000
   60.5805   31.5805   46.7458 H   0  0  0  0  0  0  0  0  0  0  0  0
   60.7200   30.4980   46.8830 C   0  0  0  0  0  0  0  0  0  0  0  0
   61.6590   30.1140   47.3083 H   0  0  0  0  0  0  0  0  0  0  0  0
   59.7460   29.6470   46.5320 C   0  0  0  0  0  0  0  0  0  0  0  0
   59.9650   28.3550   46.7180 O   0  0  0  0  0  0  0  0  0  0  0  0
   59.0930   27.4180   46.3840 C   0  0  0  0  0  0  0  0  0  0  0  0
   59.3980   26.2120   46.5980 O   0  0  0  0  0  0  0  0  0  0  0  0
   57.8630   27.7620   45.7840 C   0  0  0  0  0  0  0  0  0  0  0  0
   56.9960   26.7810   45.4170 C   0  0  0  0  0  0  0  0  0  0  0  0
   57.0750   26.4113   44.3840 H   0  0  0  0  0  0  0  0  0  0  0  0
   55.9600   26.1630   46.2660 C   0  0  0  0  0  0  0  0  0  0  0  0
   56.3040   25.3810   47.1890 O   0  0  0  0  0  0  0  0  0  0  0  0
   54.6100   26.3330   45.9850 O   0  0  0  0  0  0  0  0  0  0  0  0
   57.6020   29.1470   45.6410 C   0  0  0  0  0  0  0  0  0  0  0  0
   56.4740   29.5500   45.2400 O   0  0  0  0  0  0  0  0  0  0  0  0
   58.5530   30.0700   45.9930 N   0  0  0  0  0  0  0  0  0  0  0  0
   58.2590   31.4720   45.8170 C   0  0  0  0  0  0  0  0  0  0  0  0
   58.1430   32.3120   46.9360 C   0  0  0  0  0  0  0  0  0  0  0  0
   58.2805   31.9017   47.9473 H   0  0  0  0  0  0  0  0  0  0  0  0
   57.8530   33.6690   46.7670 C   0  0  0  0  0  0  0  0  0  0  0  0
   57.7657   34.3257   47.6451 H   0  0  0  0  0  0  0  0  0  0  0  0
   57.6740   34.1920   45.4840 C   0  0  0  0  0  0  0  0  0  0  0  0
   57.4446   35.2598   45.3532 H   0  0  0  0  0  0  0  0  0  0  0  0
   57.7860   33.3600   44.3660 C   0  0  0  0  0  0  0  0  0  0  0  0
   57.6458   33.7744   43.3567 H   0  0  0  0  0  0  0  0  0  0  0  0
   58.0760   32.0020   44.5290 C   0  0  0  0  0  0  0  0  0  0  0  0
   58.1840   31.2010   43.4390 F   0  0  0  0  0  0  0  0  0  0  0  0
  1  2  1  0
  2  3  1  0
  2  4  2  0
  4  5  1  0
  5  6  1  0
  6  7  2  0
  6  8  1  0
  8  9  2  0
  9 10  1  0
  9 11  1  0
 11 12  2  0
 11 13  1  0
  8 14  1  0
 14 15  2  0
 14 16  1  0
 16 17  1  0
 17 18  2  0
 18 19  1  0
 18 20  1  0
 20 21  1  0
 20 22  2  0
 22 23  1  0
 22 24  1  0
 24 25  1  0
 24 26  2  0
 26 27  1  0
 16  4  1  0
 26 17  1  0
M  CHG  1  13  -1
M  END
>  <UniqueID>  (86) 
81

>  <SMILES>  (86) 
C=c1oc(=O)/c(=C/C(=O)[O-])c(=O)n1-c1ccccc1F

>  <Energy>  (86) 
54.804475926486

>  <Genealogy>  (86) 
C=c1oc(=O)c(=CC(=O)[O-])c(=O)n1-c1ccccc1F (protonated)
C=c1oc(=O)/c(=C/C(=O)[O-])c(=O)n1-c1ccccc1F (cis-trans isomerization)
C=c1oc(=O)/c(=C/C(=O)[O-])c(=O)n1-c1ccccc1F (3D coordinates assigned)
C=c1oc(=O)/c(=C/C(=O)[O-])c(=O)n1-c1ccccc1F (optimized conformer: 54.804475926486 kcal/mol)

>  <smiles>  (86) 
C=c1oc(=O)c(=CC(=O)O)c(=O)n1-c1ccccc1F

>  <score_type>  (86) 
oracle

>  <origin>  (86) 
adg

>  <m_score__min__energy>  (86) 
-9.6300000000000008

>  <m_primary>  (86) 
energy

$$$$
86:0
     RDKit          3D

 38 38  0  0  0  0  0  0  0  0999 V2000
   62.7579   34.5184   45.9446 H   0  0  0  0  0  0  0  0  0  0  0  0
   62.5960   33.7880   46.7510 C   0  0  0  0  0  0  0  0  0  0  0  0
   61.3500   33.3150   46.9430 C   0  0  0  0  0  0  0  0  0  0  0  0
   60.2070   34.2630   46.9430 C   0  0  0  0  0  0  0  0  0  0  0  0
   59.8030   34.7400   48.0370 O   0  0  0  0  0  0  0  0  0  0  0  0
   59.4760   34.6350   45.7120 C   0  0  0  0  0  0  0  0  0  0  0  0
   59.9870   35.3066   45.0064 H   0  0  0  0  0  0  0  0  0  0  0  0
   58.2410   34.2220   45.3830 C   0  0  0  0  0  0  0  0  0  0  0  0
   57.3937   34.8152   45.7573 H   0  0  0  0  0  0  0  0  0  0  0  0
   57.9270   33.0340   44.5580 C   0  0  0  0  0  0  0  0  0  0  0  0
   58.1580   33.0840   43.1760 C   0  0  0  0  0  0  0  0  0  0  0  0
   58.5798   33.9938   42.7239 H   0  0  0  0  0  0  0  0  0  0  0  0
   57.8550   31.9840   42.3710 C   0  0  0  0  0  0  0  0  0  0  0  0
   58.0220   32.0367   41.2850 H   0  0  0  0  0  0  0  0  0  0  0  0
   57.3410   30.8180   42.9400 C   0  0  0  0  0  0  0  0  0  0  0  0
   57.0790   29.9644   42.2976 H   0  0  0  0  0  0  0  0  0  0  0  0
   57.1570   30.7300   44.3290 C   0  0  0  0  0  0  0  0  0  0  0  0
   56.5990   29.5050   44.9400 C   0  0  0  0  0  0  0  0  0  0  0  0
   55.3490   29.3340   44.9230 O   0  0  0  0  0  0  0  0  0  0  0  0
   57.4430   28.5130   45.5580 N   0  0  0  0  0  0  0  0  0  0  0  0
   58.6860   28.9080   46.2300 C   0  0  0  0  0  0  0  0  0  0  0  0
   58.5439   28.8629   47.3199 H   0  0  0  0  0  0  0  0  0  0  0  0
   59.4950   28.2227   45.9370 H   0  0  0  0  0  0  0  0  0  0  0  0
   58.9510   29.9346   45.9370 H   0  0  0  0  0  0  0  0  0  0  0  0
   56.9670   27.1300   45.6470 C   0  0  0  0  0  0  0  0  0  0  0  0
   56.8684   26.8435   46.7044 H   0  0  0  0  0  0  0  0  0  0  0  0
   55.9884   27.0464   45.1517 H   0  0  0  0  0  0  0  0  0  0  0  0
   57.6869   26.4619   45.1517 H   0  0  0  0  0  0  0  0  0  0  0  0
   57.4540   31.8420   45.1320 C   0  0  0  0  0  0  0  0  0  0  0  0
   57.3151   31.7798   46.2214 H   0  0  0  0  0  0  0  0  0  0  0  0
   61.1040   31.8400   47.1550 C   0  0  0  0  0  0  0  0  0  0  0  0
   61.0682   31.6255   48.2333 H   0  0  0  0  0  0  0  0  0  0  0  0
   60.1464   31.5579   46.6931 H   0  0  0  0  0  0  0  0  0  0  0  0
   61.9182   31.2624   46.6931 H   0  0  0  0  0  0  0  0  0  0  0  0
   63.7740   33.3710   47.5790 C   0  0  0  0  0  0  0  0  0  0  0  0
   63.5221   33.4602   48.6461 H   0  0  0  0  0  0  0  0  0  0  0  0
   64.0324   32.3268   47.3493 H   0  0  0  0  0  0  0  0  0  0  0  0
   64.6318   34.0201   47.3493 H   0  0  0  0  0  0  0  0  0  0  0  0
  1  2  1  0
  2  3  2  3
  3  4  1  0
  4  5  2  0
  4  6  1  0
  6  7  1  0
  6  8  2  0
  8  9  1  0
  8 10  1  0
 10 11  2  0
 11 12  1  0
 11 13  1  0
 13 14  1  0
 13 15  2  0
 15 16  1  0
 15 17  1  0
 17 18  1  0
 18 19  2  0
 18 20  1  0
 20 21  1  0
 21 22  1  0
 21 23  1  0
 21 24  1  0
 20 25  1  0
 25 26  1  0
 25 27  1  0
 25 28  1  0
 17 29  2  0
 29 30  1  0
  3 31  1  0
 31 32  1  0
 31 33  1  0
 31 34  1  0
  2 35  1  0
 35 36  1  0
 35 37  1  0
 35 38  1  0
 29 10  1  0
M  END
>  <UniqueID>  (87) 
82

>  <SMILES>  (87) 
CC=C(C)C(=O)/C=C\c1cccc(C(=O)N(C)C)c1

>  <Energy>  (87) 
45.517317873897305

>  <Genealogy>  (87) 
CC=C(C)C(=O)/C=C\c1cccc(C(=O)N(C)C)c1 (cis-trans isomerization)
CC=C(C)C(=O)/C=C\c1cccc(C(=O)N(C)C)c1 (3D coordinates assigned)
CC=C(C)C(=O)/C=C\c1cccc(C(=O)N(C)C)c1 (optimized conformer: 45.517317873897305 kcal/mol)

>  <smiles>  (87) 
CC=C(C)C(=O)C=Cc1cccc(C(=O)N(C)C)c1

>  <score_type>  (87) 
oracle

>  <origin>  (87) 
adg

>  <m_score__min__energy>  (87) 
-7.3700000000000001

>  <m_primary>  (87) 
energy

$$$$
87:0
     RDKit          3D

 39 41  0  0  0  0  0  0  0  0999 V2000
   62.7480   32.3270   47.5180 C   0  0  0  0  0  0  0  0  0  0  0  0
   61.5450   31.8360   48.1010 O   0  0  0  0  0  0  0  0  0  0  0  0
   60.7800   30.7870   47.5690 C   0  0  0  0  0  0  0  0  0  0  0  0
   60.0290   30.9270   46.3710 C   0  0  0  0  0  0  0  0  0  0  0  0
   59.2730   29.8530   45.8690 C   0  0  0  0  0  0  0  0  0  0  0  0
   59.2840   28.6560   46.5810 C   0  0  0  0  0  0  0  0  0  0  0  0
   58.6410   27.4530   46.3500 C   0  0  0  0  0  0  0  0  0  0  0  0
   57.6900   27.1250   45.2370 C   0  0  0  0  0  0  0  0  0  0  0  0
   56.2830   27.4960   45.6190 C   0  0  0  0  0  0  0  0  0  0  0  0
   55.5880   26.6680   46.2660 O   0  0  0  0  0  0  0  0  0  0  0  0
   55.6930   28.7470   45.2440 N   0  0  0  0  0  0  0  0  0  0  0  0
   55.8470   29.3840   43.9440 C   0  0  0  0  0  0  0  0  0  0  0  0
   56.6250   30.6470   44.1070 C   0  0  0  0  0  0  0  0  0  0  0  0
   57.3830   31.2620   43.1320 C   0  0  0  0  0  0  0  0  0  0  0  0
   57.8820   32.4050   43.7170 C   0  0  0  0  0  0  0  0  0  0  0  0
   57.3940   32.4180   45.0100 C   0  0  0  0  0  0  0  0  0  0  0  0
   56.6470   31.3580   45.2110 O   0  0  0  0  0  0  0  0  0  0  0  0
   59.0130   26.6170   47.3990 C   0  0  0  0  0  0  0  0  0  0  0  0
   59.8570   27.2650   48.2360 N   0  0  0  0  0  0  0  0  0  0  0  0
   60.4200   26.7340   49.4730 C   0  0  0  0  0  0  0  0  0  0  0  0
   60.0090   28.5090   47.7360 C   0  0  0  0  0  0  0  0  0  0  0  0
   60.7670   29.5590   48.2600 C   0  0  0  0  0  0  0  0  0  0  0  0
   63.4508   32.6138   48.3141 H   0  0  0  0  0  0  0  0  0  0  0  0
   63.2006   31.5416   46.8948 H   0  0  0  0  0  0  0  0  0  0  0  0
   62.5218   33.2048   46.8948 H   0  0  0  0  0  0  0  0  0  0  0  0
   60.0391   31.8852   45.8308 H   0  0  0  0  0  0  0  0  0  0  0  0
   58.6903   29.9551   44.9416 H   0  0  0  0  0  0  0  0  0  0  0  0
   57.9801   27.6855   44.3361 H   0  0  0  0  0  0  0  0  0  0  0  0
   57.7317   26.0434   45.0409 H   0  0  0  0  0  0  0  0  0  0  0  0
   56.3833   28.7065   43.2633 H   0  0  0  0  0  0  0  0  0  0  0  0
   54.8563   29.6112   43.5235 H   0  0  0  0  0  0  0  0  0  0  0  0
   57.5533   30.9127   42.1029 H   0  0  0  0  0  0  0  0  0  0  0  0
   58.5364   33.1555   43.2496 H   0  0  0  0  0  0  0  0  0  0  0  0
   57.6004   33.1984   45.7572 H   0  0  0  0  0  0  0  0  0  0  0  0
   58.6707   25.5797   47.5291 H   0  0  0  0  0  0  0  0  0  0  0  0
   59.9219   27.2038   50.3339 H   0  0  0  0  0  0  0  0  0  0  0  0
   60.2650   25.6456   49.5088 H   0  0  0  0  0  0  0  0  0  0  0  0
   61.4975   26.9523   49.5088 H   0  0  0  0  0  0  0  0  0  0  0  0
   61.3401   29.4302   49.1900 H   0  0  0  0  0  0  0  0  0  0  0  0
  1  2  1  0
  2  3  1  0
  3  4  2  0
  4  5  1  0
  5  6  2  0
  6  7  1  0
  7  8  1  0
  8  9  1  0
  9 10  2  0
  9 11  1  0
 11 12  1  0
 12 13  1  0
 13 14  2  0
 14 15  1  0
 15 16  2  0
 16 17  1  0
  7 18  2  0
 18 19  1  0
 19 20  1  0
 19 21  1  0
 21 22  2  0
 22  3  1  0
 21  6  1  0
 17 13  1  0
  1 23  1  0
  1 24  1  0
  1 25  1  0
  4 26  1  0
  5 27  1  0
  8 28  1  0
  8 29  1  0
 12 30  1  0
 12 31  1  0
 14 32  1  0
 15 33  1  0
 16 34  1  0
 18 35  1  0
 20 36  1  0
 20 37  1  0
 20 38  1  0
 22 39  1  0
M  CHG  1  11  -1
M  END
>  <UniqueID>  (88) 
83

>  <SMILES>  (88) 
COc1ccc2c(CC(=O)[N-]Cc3ccco3)cn(C)c2c1

>  <Energy>  (88) 
93.88794120792485

>  <Genealogy>  (88) 
COc1ccc2c(CC(=O)[N-]Cc3ccco3)cn(C)c2c1 (protonated)
COc1ccc2c(CC(=O)[N-]Cc3ccco3)cn(C)c2c1 (3D coordinates assigned)
COc1ccc2c(CC(=O)[N-]Cc3ccco3)cn(C)c2c1 (optimized conformer: 93.88794120792485 kcal/mol)

>  <smiles>  (88) 
COc1ccc2c(CC(=O)NCc3ccco3)cn(C)c2c1

>  <score_type>  (88) 
oracle

>  <origin>  (88) 
adg

>  <m_score__min__energy>  (88) 
-9.3599999999999994

>  <m_primary>  (88) 
energy

$$$$
88:0
     RDKit          3D

 52 54  0  0  0  0  0  0  0  0999 V2000
   59.9967   36.0553   47.1968 H   0  0  0  0  0  0  0  0  0  0  0  0
   59.9840   34.9750   46.9900 C   0  0  0  0  0  0  0  0  0  0  0  0
   58.9370   34.4810   46.3180 C   0  0  0  0  0  0  0  0  0  0  0  0
   57.9562   34.4732   46.8160 H   0  0  0  0  0  0  0  0  0  0  0  0
   59.0290   33.9320   44.9090 C   0  0  0  0  0  0  0  0  0  0  0  0
   60.0556   34.0851   44.5447 H   0  0  0  0  0  0  0  0  0  0  0  0
   58.2811   34.4707   44.3086 H   0  0  0  0  0  0  0  0  0  0  0  0
   58.7070   32.4910   44.8010 N   0  0  0  0  0  0  0  0  0  0  0  0
   57.3990   32.2420   44.1680 C   0  0  0  0  0  0  0  0  0  0  0  0
   57.3305   32.8161   43.2322 H   0  0  0  0  0  0  0  0  0  0  0  0
   56.5973   32.5551   44.8530 H   0  0  0  0  0  0  0  0  0  0  0  0
   57.2500   30.7520   43.8620 C   0  0  0  0  0  0  0  0  0  0  0  0
   57.9617   30.4714   43.0716 H   0  0  0  0  0  0  0  0  0  0  0  0
   56.2197   30.5573   43.5295 H   0  0  0  0  0  0  0  0  0  0  0  0
   57.5220   29.9520   45.0650 N   0  0  0  0  0  0  0  0  0  0  0  0
   56.8150   28.7090   45.2590 C   0  0  0  0  0  0  0  0  0  0  0  0
   55.6010   28.6270   44.9240 O   0  0  0  0  0  0  0  0  0  0  0  0
   57.4770   27.5180   45.9060 C   0  0  0  0  0  0  0  0  0  0  0  0
   57.2063   27.4931   46.9719 H   0  0  0  0  0  0  0  0  0  0  0  0
   58.5655   27.6170   45.7824 H   0  0  0  0  0  0  0  0  0  0  0  0
   57.0410   26.2290   45.2590 C   0  0  0  0  0  0  0  0  0  0  0  0
   57.7150   25.7340   44.1320 C   0  0  0  0  0  0  0  0  0  0  0  0
   58.5561   26.2995   43.7045 H   0  0  0  0  0  0  0  0  0  0  0  0
   57.3220   24.5260   43.5510 C   0  0  0  0  0  0  0  0  0  0  0  0
   57.8516   24.1511   42.6627 H   0  0  0  0  0  0  0  0  0  0  0  0
   56.2610   23.7880   44.0880 C   0  0  0  0  0  0  0  0  0  0  0  0
   55.9050   22.5820   43.4670 O   0  0  0  0  0  0  0  0  0  0  0  0
   56.8330   21.5780   43.0680 C   0  0  0  0  0  0  0  0  0  0  0  0
   57.2691   21.1062   43.9608 H   0  0  0  0  0  0  0  0  0  0  0  0
   56.3138   20.8166   42.4675 H   0  0  0  0  0  0  0  0  0  0  0  0
   57.6329   22.0358   42.4675 H   0  0  0  0  0  0  0  0  0  0  0  0
   55.5920   24.2780   45.2270 C   0  0  0  0  0  0  0  0  0  0  0  0
   54.7585   23.7061   45.6610 H   0  0  0  0  0  0  0  0  0  0  0  0
   55.9830   25.4880   45.8080 C   0  0  0  0  0  0  0  0  0  0  0  0
   55.4587   25.8612   46.7001 H   0  0  0  0  0  0  0  0  0  0  0  0
   58.7210   30.2690   45.8540 C   0  0  0  0  0  0  0  0  0  0  0  0
   59.6138   29.9259   45.3107 H   0  0  0  0  0  0  0  0  0  0  0  0
   58.6531   29.7608   46.8272 H   0  0  0  0  0  0  0  0  0  0  0  0
   58.8210   31.7780   46.0870 C   0  0  0  0  0  0  0  0  0  0  0  0
   59.7910   32.0125   46.5498 H   0  0  0  0  0  0  0  0  0  0  0  0
   58.0057   32.0974   46.7527 H   0  0  0  0  0  0  0  0  0  0  0  0
   61.1240   34.1680   47.4730 C   0  0  0  0  0  0  0  0  0  0  0  0
   61.0990   33.6610   48.7810 C   0  0  0  0  0  0  0  0  0  0  0  0
   60.2456   33.8828   49.4387 H   0  0  0  0  0  0  0  0  0  0  0  0
   62.1550   32.8750   49.2510 C   0  0  0  0  0  0  0  0  0  0  0  0
   62.1378   32.4919   50.2820 H   0  0  0  0  0  0  0  0  0  0  0  0
   63.2330   32.5750   48.4130 C   0  0  0  0  0  0  0  0  0  0  0  0
   64.0674   31.9637   48.7872 H   0  0  0  0  0  0  0  0  0  0  0  0
   63.2500   33.0520   47.1000 C   0  0  0  0  0  0  0  0  0  0  0  0
   64.0944   32.8090   46.4382 H   0  0  0  0  0  0  0  0  0  0  0  0
   62.1950   33.8380   46.6260 C   0  0  0  0  0  0  0  0  0  0  0  0
   62.2038   34.1989   45.5869 H   0  0  0  0  0  0  0  0  0  0  0  0
  1  2  1  0
  2  3  2  0
  3  4  1  0
  3  5  1  0
  5  6  1  0
  5  7  1  0
  5  8  1  0
  8  9  1  0
  9 10  1  0
  9 11  1  0
  9 12  1  0
 12 13  1  0
 12 14  1  0
 12 15  1  0
 15 16  1  0
 16 17  2  0
 16 18  1  0
 18 19  1  0
 18 20  1  0
 18 21  1  0
 21 22  2  0
 22 23  1  0
 22 24  1  0
 24 25  1  0
 24 26  2  0
 26 27  1  0
 27 28  1  0
 28 29  1  0
 28 30  1  0
 28 31  1  0
 26 32  1  0
 32 33  1  0
 32 34  2  0
 34 35  1  0
 15 36  1  0
 36 37  1  0
 36 38  1  0
 36 39  1  0
 39 40  1  0
 39 41  1  0
  2 42  1  0
 42 43  2  0
 43 44  1  0
 43 45  1  0
 45 46  1  0
 45 47  2  0
 47 48  1  0
 47 49  1  0
 49 50  1  0
 49 51  2  0
 51 52  1  0
 39  8  1  0
 51 42  1  0
 34 21  1  0
M  END
>  <UniqueID>  (89) 
84

>  <SMILES>  (89) 
COc1ccc(CC(=O)N2CCN(C/C=C\c3ccccc3)CC2)cc1

>  <Energy>  (89) 
61.60964178699846

>  <Genealogy>  (89) 
COc1ccc(CC(=O)N2CCN(C/C=C\c3ccccc3)CC2)cc1 (cis-trans isomerization)
COc1ccc(CC(=O)N2CCN(C/C=C\c3ccccc3)CC2)cc1 (3D coordinates assigned)
COc1ccc(CC(=O)N2CCN(C/C=C\c3ccccc3)CC2)cc1 (nonaromatic ring conformer: 61.60964178699846 kcal/mol)

>  <smiles>  (89) 
COc1ccc(CC(=O)N2CCN(CC=Cc3ccccc3)CC2)cc1

>  <score_type>  (89) 
oracle

>  <origin>  (89) 
adg

>  <m_score__min__energy>  (89) 
-8.6699999999999999

>  <m_primary>  (89) 
energy

$$$$
89:0
     RDKit          3D

 35 36  0  0  0  0  0  0  0  0999 V2000
   60.8130   28.6150   44.8480 C   0  0  0  0  0  0  0  0  0  0  0  0
   60.6630   28.0400   46.0430 C   0  0  0  0  0  0  0  0  0  0  0  0
   60.2380   26.6050   46.1620 C   0  0  0  0  0  0  0  0  0  0  0  0
   59.1530   26.4710   47.1330 N   0  0  0  0  0  0  0  0  0  0  0  0
   57.7810   26.2790   46.7440 C   0  0  0  0  0  0  0  0  0  0  0  0
   57.0400   27.3280   46.1600 C   0  0  0  0  0  0  0  0  0  0  0  0
   57.6570   28.6680   45.8420 C   0  0  0  0  0  0  0  0  0  0  0  0
   56.8830   29.4180   44.7470 C   0  0  0  0  0  0  0  0  0  0  0  0
   57.4220   30.8090   44.5310 C   0  0  0  0  0  0  0  0  0  0  0  0
   57.5300   31.3340   43.2320 C   0  0  0  0  0  0  0  0  0  0  0  0
   57.9880   32.6410   43.0370 C   0  0  0  0  0  0  0  0  0  0  0  0
   58.3350   33.4330   44.1350 C   0  0  0  0  0  0  0  0  0  0  0  0
   58.2210   32.9200   45.4310 C   0  0  0  0  0  0  0  0  0  0  0  0
   57.7630   31.6150   45.6300 C   0  0  0  0  0  0  0  0  0  0  0  0
   55.7510   27.1080   45.7850 N   0  0  0  0  0  0  0  0  0  0  0  0
   55.1510   25.9080   45.9810 C   0  0  0  0  0  0  0  0  0  0  0  0
   53.9560   25.7370   45.6260 O   0  0  0  0  0  0  0  0  0  0  0  0
   55.8370   24.8910   46.5580 N   0  0  0  0  0  0  0  0  0  0  0  0
   57.1290   25.0480   46.9460 C   0  0  0  0  0  0  0  0  0  0  0  0
   57.7230   24.0860   47.5020 O   0  0  0  0  0  0  0  0  0  0  0  0
   61.1251   29.6676   44.7794 H   0  0  0  0  0  0  0  0  0  0  0  0
   60.6246   28.0364   43.9317 H   0  0  0  0  0  0  0  0  0  0  0  0
   60.8536   28.6261   46.9541 H   0  0  0  0  0  0  0  0  0  0  0  0
   59.8920   26.2474   45.1810 H   0  0  0  0  0  0  0  0  0  0  0  0
   61.0961   26.0069   46.5026 H   0  0  0  0  0  0  0  0  0  0  0  0
   59.3900   26.4840   48.1510 H   0  0  0  0  0  0  0  0  0  0  0  0
   57.6625   29.2812   46.7552 H   0  0  0  0  0  0  0  0  0  0  0  0
   58.6779   28.4907   45.4728 H   0  0  0  0  0  0  0  0  0  0  0  0
   56.9635   28.8551   43.8054 H   0  0  0  0  0  0  0  0  0  0  0  0
   55.8346   29.5045   45.0685 H   0  0  0  0  0  0  0  0  0  0  0  0
   57.2534   30.7150   42.3658 H   0  0  0  0  0  0  0  0  0  0  0  0
   58.0752   33.0462   42.0181 H   0  0  0  0  0  0  0  0  0  0  0  0
   58.6978   34.4598   43.9798 H   0  0  0  0  0  0  0  0  0  0  0  0
   58.4922   33.5447   46.2948 H   0  0  0  0  0  0  0  0  0  0  0  0
   57.6691   31.2171   46.6512 H   0  0  0  0  0  0  0  0  0  0  0  0
  1  2  2  0
  2  3  1  0
  3  4  1  0
  4  5  1  0
  5  6  2  0
  6  7  1  0
  7  8  1  0
  8  9  1  0
  9 10  2  0
 10 11  1  0
 11 12  2  0
 12 13  1  0
 13 14  2  0
  6 15  1  0
 15 16  1  0
 16 17  2  0
 16 18  1  0
 18 19  1  0
 19 20  2  0
 19  5  1  0
 14  9  1  0
  1 21  1  0
  1 22  1  0
  2 23  1  0
  3 24  1  0
  3 25  1  0
  4 26  1  0
  7 27  1  0
  7 28  1  0
  8 29  1  0
  8 30  1  0
 10 31  1  0
 11 32  1  0
 12 33  1  0
 13 34  1  0
 14 35  1  0
M  CHG  2  15  -1  18  -1
M  END
>  <UniqueID>  (90) 
85

>  <SMILES>  (90) 
C=CCNc1c(CCc2ccccc2)[n-]c(=O)[n-]c1=O

>  <Energy>  (90) 
34.0119549230038

>  <Genealogy>  (90) 
C=CCNc1c(CCc2ccccc2)[n-]c(=O)[n-]c1=O (protonated)
C=CCNc1c(CCc2ccccc2)[n-]c(=O)[n-]c1=O (3D coordinates assigned)
C=CCNc1c(CCc2ccccc2)[n-]c(=O)[n-]c1=O (optimized conformer: 34.0119549230038 kcal/mol)

>  <smiles>  (90) 
C=CCNc1c(CCc2ccccc2)[nH]c(=O)[nH]c1=O

>  <score_type>  (90) 
oracle

>  <origin>  (90) 
adg

>  <m_score__min__energy>  (90) 
-10.58

>  <m_primary>  (90) 
energy

$$$$
