0:0
     RDKit          3D

 22 22  0  0  0  0  0  0  0  0999 V2000
   57.7451   32.3385   43.3312 H   0  0  0  0  0  0  0  0  0  0  0  0
   57.3860   32.1360   44.3510 C   0  0  0  0  0  0  0  0  0  0  0  0
   56.3710   31.3400   44.4990 N   0  0  0  0  0  0  0  0  0  0  0  0
   56.5010   30.0200   44.8690 O   0  0  0  0  0  0  0  0  0  0  0  0
   57.0310   29.0700   43.9600 C   0  0  0  0  0  0  0  0  0  0  0  0
   57.4921   28.2436   44.5207 H   0  0  0  0  0  0  0  0  0  0  0  0
   56.2217   28.6771   43.3270 H   0  0  0  0  0  0  0  0  0  0  0  0
   57.7904   29.5522   43.3270 H   0  0  0  0  0  0  0  0  0  0  0  0
   58.0850   32.7850   45.4820 C   0  0  0  0  0  0  0  0  0  0  0  0
   58.1630   32.1140   46.7080 C   0  0  0  0  0  0  0  0  0  0  0  0
   57.7254   31.1107   46.8165 H   0  0  0  0  0  0  0  0  0  0  0  0
   58.7980   32.7220   47.7930 C   0  0  0  0  0  0  0  0  0  0  0  0
   58.8816   32.1825   48.7480 H   0  0  0  0  0  0  0  0  0  0  0  0
   59.3160   33.9800   47.6790 N   0  0  0  0  0  0  0  0  0  0  0  0
   60.0110   34.5860   48.8180 C   0  0  0  0  0  0  0  0  0  0  0  0
   59.5774   34.2079   49.7555 H   0  0  0  0  0  0  0  0  0  0  0  0
   61.0789   34.3255   48.7767 H   0  0  0  0  0  0  0  0  0  0  0  0
   59.8984   35.6794   48.7767 H   0  0  0  0  0  0  0  0  0  0  0  0
   59.2430   34.6550   46.4940 C   0  0  0  0  0  0  0  0  0  0  0  0
   59.6811   35.6607   46.4118 H   0  0  0  0  0  0  0  0  0  0  0  0
   58.6170   34.0800   45.3850 C   0  0  0  0  0  0  0  0  0  0  0  0
   58.5416   34.6394   44.4409 H   0  0  0  0  0  0  0  0  0  0  0  0
  1  2  1  0
  2  3  2  0
  3  4  1  0
  4  5  1  0
  5  6  1  0
  5  7  1  0
  5  8  1  0
  2  9  1  0
  9 10  2  0
 10 11  1  0
 10 12  1  0
 12 13  1  0
 12 14  2  0
 14 15  1  0
 15 16  1  0
 15 17  1  0
 15 18  1  0
 14 19  1  0
 19 20  1  0
 19 21  2  0
 21 22  1  0
 21  9  1  0
M  CHG  1  14   1
M  END
>  <UniqueID>  (1) 
1

>  <SMILES>  (1) 
CO/N=C\c1cc[n+](C)cc1

>  <Energy>  (1) 
21.196622897181083

>  <Genealogy>  (1) 
CO/N=C\c1cc[n+](C)cc1 (cis-trans isomerization)
CO/N=C\c1cc[n+](C)cc1 (3D coordinates assigned)
CO/N=C\c1cc[n+](C)cc1 (optimized conformer: 21.196622897181083 kcal/mol)

>  <smiles>  (1) 
CON=Cc1cc[n+](C)cc1

>  <score_type>  (1) 
oracle

>  <origin>  (1) 
adg

>  <m_score__min__energy>  (1) 
-3.4900000000000002

>  <m_primary>  (1) 
energy

$$$$
1:0
     RDKit          3D

 31 32  0  0  0  0  0  0  0  0999 V2000
   58.5379   33.4480   41.8797 H   0  0  0  0  0  0  0  0  0  0  0  0
   58.1280   32.6970   42.5710 C   0  0  0  0  0  0  0  0  0  0  0  0
   58.2660   32.8710   43.9480 C   0  0  0  0  0  0  0  0  0  0  0  0
   58.7934   33.7542   44.3375 H   0  0  0  0  0  0  0  0  0  0  0  0
   57.7360   31.9260   44.8390 C   0  0  0  0  0  0  0  0  0  0  0  0
   57.8680   32.1380   46.3220 C   0  0  0  0  0  0  0  0  0  0  0  0
   57.3596   31.3215   46.8558 H   0  0  0  0  0  0  0  0  0  0  0  0
   58.9329   32.1490   46.5975 H   0  0  0  0  0  0  0  0  0  0  0  0
   57.4080   33.0985   46.5975 H   0  0  0  0  0  0  0  0  0  0  0  0
   57.0440   30.8040   44.3360 C   0  0  0  0  0  0  0  0  0  0  0  0
   56.4830   29.8530   45.2570 N   0  0  0  0  0  0  0  0  0  0  0  0
   56.9970   28.6840   45.5070 C   0  0  0  0  0  0  0  0  0  0  0  0
   58.3420   28.5310   45.6530 N   0  0  0  0  0  0  0  0  0  0  0  0
   58.8940   27.3160   45.9110 C   0  0  0  0  0  0  0  0  0  0  0  0
   60.3760   27.1870   46.0610 C   0  0  0  0  0  0  0  0  0  0  0  0
   60.6358   27.1644   47.1296 H   0  0  0  0  0  0  0  0  0  0  0  0
   60.7134   26.2561   45.5819 H   0  0  0  0  0  0  0  0  0  0  0  0
   60.8692   28.0456   45.5819 H   0  0  0  0  0  0  0  0  0  0  0  0
   58.0690   26.1940   46.0150 C   0  0  0  0  0  0  0  0  0  0  0  0
   58.4952   25.2003   46.2172 H   0  0  0  0  0  0  0  0  0  0  0  0
   56.6930   26.3600   45.8570 C   0  0  0  0  0  0  0  0  0  0  0  0
   55.9260   25.3660   45.9450 O   0  0  0  0  0  0  0  0  0  0  0  0
   56.1810   27.5970   45.6050 N   0  0  0  0  0  0  0  0  0  0  0  0
   55.1480   27.7110   45.4860 H   0  0  0  0  0  0  0  0  0  0  0  0
   56.9450   30.6070   42.9380 C   0  0  0  0  0  0  0  0  0  0  0  0
   56.2580   29.4000   42.3570 C   0  0  0  0  0  0  0  0  0  0  0  0
   55.8927   28.7582   43.1722 H   0  0  0  0  0  0  0  0  0  0  0  0
   55.4091   29.7242   41.7371 H   0  0  0  0  0  0  0  0  0  0  0  0
   56.9702   28.8357   41.7371 H   0  0  0  0  0  0  0  0  0  0  0  0
   57.4720   31.5740   42.0680 C   0  0  0  0  0  0  0  0  0  0  0  0
   57.3667   31.4450   40.9807 H   0  0  0  0  0  0  0  0  0  0  0  0
  1  2  1  0
  2  3  2  0
  3  4  1  0
  3  5  1  0
  5  6  1  0
  6  7  1  0
  6  8  1  0
  6  9  1  0
  5 10  2  0
 10 11  1  0
 11 12  2  0
 12 13  1  0
 13 14  1  0
 14 15  1  0
 15 16  1  0
 15 17  1  0
 15 18  1  0
 14 19  2  0
 19 20  1  0
 19 21  1  0
 21 22  2  0
 21 23  1  0
 23 24  1  0
 10 25  1  0
 25 26  1  0
 26 27  1  0
 26 28  1  0
 26 29  1  0
 25 30  2  0
 30 31  1  0
 30  2  1  0
 23 12  1  0
M  CHG  1  13  -1
M  END
>  <UniqueID>  (2) 
2

>  <SMILES>  (2) 
Cc1cc(=O)[nH]/c(=N/c2c(C)cccc2C)[n-]1

>  <Energy>  (2) 
39.01000531978668

>  <Genealogy>  (2) 
Cc1cc(=O)[nH]c(=Nc2c(C)cccc2C)[n-]1 (protonated)
Cc1cc(=O)[nH]/c(=N/c2c(C)cccc2C)[n-]1 (cis-trans isomerization)
Cc1cc(=O)[nH]/c(=N/c2c(C)cccc2C)[n-]1 (3D coordinates assigned)
Cc1cc(=O)[nH]/c(=N/c2c(C)cccc2C)[n-]1 (optimized conformer: 39.01000531978668 kcal/mol)

>  <smiles>  (2) 
Cc1cc(=O)[nH]c(=Nc2c(C)cccc2C)[nH]1

>  <score_type>  (2) 
oracle

>  <origin>  (2) 
adg

>  <m_score__min__energy>  (2) 
-8.6600000000000001

>  <m_primary>  (2) 
energy

$$$$
2:0
     RDKit          3D

 45 49  0  0  0  0  0  0  0  0999 V2000
   55.8628   21.3508   42.0227 H   0  0  0  0  0  0  0  0  0  0  0  0
   56.5080   21.8390   42.7680 C   0  0  0  0  0  0  0  0  0  0  0  0
   57.4390   21.0850   43.4840 C   0  0  0  0  0  0  0  0  0  0  0  0
   57.5271   20.0038   43.3014 H   0  0  0  0  0  0  0  0  0  0  0  0
   58.2590   21.7010   44.4320 C   0  0  0  0  0  0  0  0  0  0  0  0
   59.0005   21.1062   44.9856 H   0  0  0  0  0  0  0  0  0  0  0  0
   58.1390   23.0780   44.6800 C   0  0  0  0  0  0  0  0  0  0  0  0
   57.2050   23.8420   43.9560 C   0  0  0  0  0  0  0  0  0  0  0  0
   56.3940   23.2120   42.9960 C   0  0  0  0  0  0  0  0  0  0  0  0
   55.6659   23.8035   42.4215 H   0  0  0  0  0  0  0  0  0  0  0  0
   57.1000   25.3370   44.1480 C   0  0  0  0  0  0  0  0  0  0  0  0
   57.5882   25.8317   43.2954 H   0  0  0  0  0  0  0  0  0  0  0  0
   56.0288   25.5777   44.2161 H   0  0  0  0  0  0  0  0  0  0  0  0
   57.7310   25.8220   45.3920 N   0  0  0  0  0  0  0  0  0  0  0  0
   57.6310   27.2260   45.7110 C   0  0  0  0  0  0  0  0  0  0  0  0
   58.2910   27.7330   46.7880 N   0  0  0  0  0  0  0  0  0  0  0  0
   58.2030   29.0510   47.0990 C   0  0  0  0  0  0  0  0  0  0  0  0
   58.8650   29.5060   48.1210 N   0  0  0  0  0  0  0  0  0  0  0  0
   59.6350   30.7200   48.1820 C   0  0  0  0  0  0  0  0  0  0  0  0
   59.1500   31.8760   48.8200 C   0  0  0  0  0  0  0  0  0  0  0  0
   58.1444   31.8730   49.2659 H   0  0  0  0  0  0  0  0  0  0  0  0
   59.9380   33.0290   48.8910 C   0  0  0  0  0  0  0  0  0  0  0  0
   59.5439   33.9330   49.3784 H   0  0  0  0  0  0  0  0  0  0  0  0
   61.2290   33.0370   48.3430 C   0  0  0  0  0  0  0  0  0  0  0  0
   62.0280   34.1890   48.4080 C   0  0  0  0  0  0  0  0  0  0  0  0
   61.6393   35.1006   48.8855 H   0  0  0  0  0  0  0  0  0  0  0  0
   63.3170   34.1800   47.8670 C   0  0  0  0  0  0  0  0  0  0  0  0
   63.9403   35.0848   47.9201 H   0  0  0  0  0  0  0  0  0  0  0  0
   63.8160   33.0250   47.2590 C   0  0  0  0  0  0  0  0  0  0  0  0
   64.8308   33.0240   46.8346 H   0  0  0  0  0  0  0  0  0  0  0  0
   63.0300   31.8700   47.1880 C   0  0  0  0  0  0  0  0  0  0  0  0
   63.4284   30.9630   46.7098 H   0  0  0  0  0  0  0  0  0  0  0  0
   61.7340   31.8670   47.7260 C   0  0  0  0  0  0  0  0  0  0  0  0
   60.9350   30.7140   47.6620 C   0  0  0  0  0  0  0  0  0  0  0  0
   61.3336   29.7989   47.1997 H   0  0  0  0  0  0  0  0  0  0  0  0
   57.4610   29.8740   46.3110 N   0  0  0  0  0  0  0  0  0  0  0  0
   56.8010   29.3800   45.2360 C   0  0  0  0  0  0  0  0  0  0  0  0
   56.1110   30.1450   44.5130 O   0  0  0  0  0  0  0  0  0  0  0  0
   56.8860   28.0600   44.9380 N   0  0  0  0  0  0  0  0  0  0  0  0
   58.2970   24.8820   46.3730 C   0  0  0  0  0  0  0  0  0  0  0  0
   58.9964   25.4219   47.0282 H   0  0  0  0  0  0  0  0  0  0  0  0
   57.4752   24.4508   46.9636 H   0  0  0  0  0  0  0  0  0  0  0  0
   59.0410   23.7510   45.6710 C   0  0  0  0  0  0  0  0  0  0  0  0
   59.9160   24.1619   45.1461 H   0  0  0  0  0  0  0  0  0  0  0  0
   59.3660   23.0142   46.4204 H   0  0  0  0  0  0  0  0  0  0  0  0
  1  2  1  0
  2  3  2  0
  3  4  1  0
  3  5  1  0
  5  6  1  0
  5  7  2  0
  7  8  1  0
  8  9  2  0
  9 10  1  0
  8 11  1  0
 11 12  1  0
 11 13  1  0
 11 14  1  0
 14 15  1  0
 15 16  2  0
 16 17  1  0
 17 18  2  0
 18 19  1  0
 19 20  2  0
 20 21  1  0
 20 22  1  0
 22 23  1  0
 22 24  2  0
 24 25  1  0
 25 26  1  0
 25 27  2  0
 27 28  1  0
 27 29  1  0
 29 30  1  0
 29 31  2  0
 31 32  1  0
 31 33  1  0
 33 34  2  0
 34 35  1  0
 17 36  1  0
 36 37  1  0
 37 38  2  0
 37 39  1  0
 14 40  1  0
 40 41  1  0
 40 42  1  0
 40 43  1  0
 43 44  1  0
 43 45  1  0
  9  2  1  0
 39 15  1  0
 43  7  1  0
 34 19  1  0
 33 24  1  0
M  CHG  2  36  -1  39  -1
M  END
>  <UniqueID>  (3) 
3

>  <SMILES>  (3) 
O=c1[n-]c(N2CCc3ccccc3C2)n/c(=N/c2ccc3ccccc3c2)[n-]1

>  <Energy>  (3) 
63.882459375488274

>  <Genealogy>  (3) 
O=c1[n-]c(N2CCc3ccccc3C2)nc(=Nc2ccc3ccccc3c2)[n-]1 (protonated)
O=c1[n-]c(N2CCc3ccccc3C2)n/c(=N/c2ccc3ccccc3c2)[n-]1 (cis-trans isomerization)
O=c1[n-]c(N2CCc3ccccc3C2)n/c(=N/c2ccc3ccccc3c2)[n-]1 (3D coordinates assigned)
O=c1[n-]c(N2CCc3ccccc3C2)n/c(=N/c2ccc3ccccc3c2)[n-]1 (nonaromatic ring conformer: 63.882459375488274 kcal/mol)

>  <smiles>  (3) 
O=c1[nH]c(N2CCc3ccccc3C2)nc(=Nc2ccc3ccccc3c2)[nH]1

>  <score_type>  (3) 
oracle

>  <origin>  (3) 
adg

>  <m_score__min__energy>  (3) 
-12.15

>  <m_primary>  (3) 
energy

$$$$
3:0
     RDKit          3D

 38 41  0  0  0  0  0  0  0  0999 V2000
   55.3010   30.4690   45.2410 H   0  0  0  0  0  0  0  0  0  0  0  0
   56.1870   30.4950   44.6960 N   0  0  0  0  0  0  0  0  0  0  0  0
   57.3890   30.6040   45.1810 C   0  0  0  0  0  0  0  0  0  0  0  0
   58.2020   29.4510   45.2320 C   0  0  0  0  0  0  0  0  0  0  0  0
   59.5110   29.5510   45.7130 C   0  0  0  0  0  0  0  0  0  0  0  0
   59.9970   30.7420   46.1350 N   0  0  0  0  0  0  0  0  0  0  0  0
   59.2540   31.8830   46.1280 C   0  0  0  0  0  0  0  0  0  0  0  0
   57.9160   31.8430   45.6540 C   0  0  0  0  0  0  0  0  0  0  0  0
   57.1730   33.0400   45.6800 C   0  0  0  0  0  0  0  0  0  0  0  0
   56.1321   33.0458   45.3243 H   0  0  0  0  0  0  0  0  0  0  0  0
   57.7490   34.2140   46.1530 C   0  0  0  0  0  0  0  0  0  0  0  0
   57.1627   35.1445   46.1725 H   0  0  0  0  0  0  0  0  0  0  0  0
   59.0670   34.2130   46.6020 C   0  0  0  0  0  0  0  0  0  0  0  0
   59.5730   35.2930   47.0130 O   0  0  0  0  0  0  0  0  0  0  0  0
   59.8030   33.0560   46.5850 N   0  0  0  0  0  0  0  0  0  0  0  0
   61.1670   33.0780   47.0550 C   0  0  0  0  0  0  0  0  0  0  0  0
   62.1430   33.8150   46.3640 C   0  0  0  0  0  0  0  0  0  0  0  0
   61.8660   34.3808   45.4623 H   0  0  0  0  0  0  0  0  0  0  0  0
   63.4650   33.8320   46.8180 C   0  0  0  0  0  0  0  0  0  0  0  0
   64.2258   34.4105   46.2735 H   0  0  0  0  0  0  0  0  0  0  0  0
   63.8210   33.1140   47.9640 C   0  0  0  0  0  0  0  0  0  0  0  0
   64.8616   33.1274   48.3203 H   0  0  0  0  0  0  0  0  0  0  0  0
   62.8540   32.3790   48.6570 C   0  0  0  0  0  0  0  0  0  0  0  0
   63.1345   31.8151   49.5588 H   0  0  0  0  0  0  0  0  0  0  0  0
   61.5310   32.3600   48.2050 C   0  0  0  0  0  0  0  0  0  0  0  0
   60.7729   31.7805   48.7523 H   0  0  0  0  0  0  0  0  0  0  0  0
   60.3910   28.3370   45.7050 C   0  0  0  0  0  0  0  0  0  0  0  0
   60.7275   28.1418   44.6761 H   0  0  0  0  0  0  0  0  0  0  0  0
   61.2548   28.5221   46.3605 H   0  0  0  0  0  0  0  0  0  0  0  0
   59.6280   27.1090   46.2280 C   0  0  0  0  0  0  0  0  0  0  0  0
   60.1875   26.2075   45.9379 H   0  0  0  0  0  0  0  0  0  0  0  0
   59.5463   27.2319   47.3181 H   0  0  0  0  0  0  0  0  0  0  0  0
   58.1800   26.9750   45.6890 C   0  0  0  0  0  0  0  0  0  0  0  0
   58.1001   26.0164   45.1554 H   0  0  0  0  0  0  0  0  0  0  0  0
   57.5152   27.0396   46.5630 H   0  0  0  0  0  0  0  0  0  0  0  0
   57.7460   28.0980   44.7270 C   0  0  0  0  0  0  0  0  0  0  0  0
   58.1896   27.9152   43.7371 H   0  0  0  0  0  0  0  0  0  0  0  0
   56.6479   28.0996   44.6626 H   0  0  0  0  0  0  0  0  0  0  0  0
  1  2  1  0
  2  3  2  0
  3  4  1  0
  4  5  2  0
  5  6  1  0
  6  7  1  0
  7  8  2  0
  8  9  1  0
  9 10  1  0
  9 11  2  0
 11 12  1  0
 11 13  1  0
 13 14  2  0
 13 15  1  0
 15 16  1  0
 16 17  2  0
 17 18  1  0
 17 19  1  0
 19 20  1  0
 19 21  2  0
 21 22  1  0
 21 23  1  0
 23 24  1  0
 23 25  2  0
 25 26  1  0
  5 27  1  0
 27 28  1  0
 27 29  1  0
 27 30  1  0
 30 31  1  0
 30 32  1  0
 30 33  1  0
 33 34  1  0
 33 35  1  0
 33 36  1  0
 36 37  1  0
 36 38  1  0
  8  3  1  0
 25 16  1  0
 36  4  1  0
 15  7  1  0
M  CHG  1   6  -1
M  END
>  <UniqueID>  (4) 
4

>  <SMILES>  (4) 
[H]/N=c1/c2c([n-]c3c1ccc(=O)n3-c1ccccc1)CCCC2

>  <Energy>  (4) 
65.85944703572184

>  <Genealogy>  (4) 
N=c1c2c([n-]c3c1ccc(=O)n3-c1ccccc1)CCCC2 (protonated)
[H]/N=c1/c2c([n-]c3c1ccc(=O)n3-c1ccccc1)CCCC2 (cis-trans isomerization)
[H]/N=c1/c2c([n-]c3c1ccc(=O)n3-c1ccccc1)CCCC2 (3D coordinates assigned)
[H]/N=c1/c2c([n-]c3c1ccc(=O)n3-c1ccccc1)CCCC2 (nonaromatic ring conformer: 65.85944703572184 kcal/mol)

>  <smiles>  (4) 
N=c1c2c([nH]c3c1ccc(=O)n3-c1ccccc1)CCCC2

>  <score_type>  (4) 
oracle

>  <origin>  (4) 
adg

>  <m_score__min__energy>  (4) 
-9.4900000000000002

>  <m_primary>  (4) 
energy

$$$$
4:0
     RDKit          3D

 28 29  0  0  0  0  0  0  0  0999 V2000
   64.6330   33.0970   49.3500 C   0  0  0  0  0  0  0  0  0  0  0  0
   63.3990   33.3720   48.5440 C   0  0  0  0  0  0  0  0  0  0  0  0
   62.1630   33.5500   49.1820 C   0  0  0  0  0  0  0  0  0  0  0  0
   61.0180   33.8420   48.4340 C   0  0  0  0  0  0  0  0  0  0  0  0
   61.0920   33.9630   47.0350 C   0  0  0  0  0  0  0  0  0  0  0  0
   59.8910   34.2890   46.2290 C   0  0  0  0  0  0  0  0  0  0  0  0
   59.6400   35.5000   45.9740 O   0  0  0  0  0  0  0  0  0  0  0  0
   58.9950   33.2380   45.6930 C   0  0  0  0  0  0  0  0  0  0  0  0
   58.2300   33.4670   44.5380 C   0  0  0  0  0  0  0  0  0  0  0  0
   57.4100   32.4520   44.0410 C   0  0  0  0  0  0  0  0  0  0  0  0
   57.3570   31.2100   44.6910 C   0  0  0  0  0  0  0  0  0  0  0  0
   56.5010   30.1170   44.1930 C   0  0  0  0  0  0  0  0  0  0  0  0
   55.5210   29.7010   44.8670 O   0  0  0  0  0  0  0  0  0  0  0  0
   58.1410   31.0170   45.8350 C   0  0  0  0  0  0  0  0  0  0  0  0
   58.9320   32.0210   46.3000 N   0  0  0  0  0  0  0  0  0  0  0  0
   62.3400   33.8190   46.4040 C   0  0  0  0  0  0  0  0  0  0  0  0
   63.4840   33.5260   47.1520 C   0  0  0  0  0  0  0  0  0  0  0  0
   64.3906   33.1510   50.4216 H   0  0  0  0  0  0  0  0  0  0  0  0
   65.0115   32.0925   49.1099 H   0  0  0  0  0  0  0  0  0  0  0  0
   65.4022   33.8458   49.1099 H   0  0  0  0  0  0  0  0  0  0  0  0
   62.0937   33.4595   50.2761 H   0  0  0  0  0  0  0  0  0  0  0  0
   60.0527   33.9780   48.9436 H   0  0  0  0  0  0  0  0  0  0  0  0
   58.2764   34.4404   44.0277 H   0  0  0  0  0  0  0  0  0  0  0  0
   56.8050   32.6264   43.1390 H   0  0  0  0  0  0  0  0  0  0  0  0
   56.7215   29.6579   43.2180 H   0  0  0  0  0  0  0  0  0  0  0  0
   58.1171   30.0503   46.3593 H   0  0  0  0  0  0  0  0  0  0  0  0
   62.4169   33.9378   45.3131 H   0  0  0  0  0  0  0  0  0  0  0  0
   64.4550   33.4157   46.6471 H   0  0  0  0  0  0  0  0  0  0  0  0
  1  2  1  0
  2  3  2  0
  3  4  1  0
  4  5  2  0
  5  6  1  0
  6  7  2  0
  6  8  1  0
  8  9  2  0
  9 10  1  0
 10 11  2  0
 11 12  1  0
 12 13  2  0
 11 14  1  0
 14 15  2  0
  5 16  1  0
 16 17  2  0
 17  2  1  0
 15  8  1  0
  1 18  1  0
  1 19  1  0
  1 20  1  0
  3 21  1  0
  4 22  1  0
  9 23  1  0
 10 24  1  0
 12 25  1  0
 14 26  1  0
 16 27  1  0
 17 28  1  0
M  END
>  <UniqueID>  (5) 
5

>  <SMILES>  (5) 
Cc1ccc(C(=O)c2ccc(C=O)cn2)cc1

>  <Energy>  (5) 
33.29921903311433

>  <Genealogy>  (5) 
Cc1ccc(C(=O)c2ccc(C=O)cn2)cc1 (3D coordinates assigned)
Cc1ccc(C(=O)c2ccc(C=O)cn2)cc1 (optimized conformer: 33.29921903311433 kcal/mol)

>  <smiles>  (5) 
Cc1ccc(C(=O)c2ccc(C=O)cn2)cc1

>  <score_type>  (5) 
oracle

>  <origin>  (5) 
adg

>  <m_score__min__energy>  (5) 
-7.0300000000000002

>  <m_primary>  (5) 
energy

$$$$
5:0
     RDKit          3D

 60 63  0  0  0  0  0  0  0  0999 V2000
   64.7435   33.0467   47.8354 H   0  0  0  0  0  0  0  0  0  0  0  0
   63.7000   33.3090   48.0640 C   0  0  0  0  0  0  0  0  0  0  0  0
   62.8670   33.7020   47.0690 N   0  0  0  0  0  0  0  0  0  0  0  0
   61.5720   34.0340   47.3270 C   0  0  0  0  0  0  0  0  0  0  0  0
   60.7600   34.3890   46.3740 N   0  0  0  0  0  0  0  0  0  0  0  0
   59.4960   33.7880   46.0380 C   0  0  0  0  0  0  0  0  0  0  0  0
   58.4870   34.6000   45.5030 C   0  0  0  0  0  0  0  0  0  0  0  0
   58.6617   35.6791   45.3800 H   0  0  0  0  0  0  0  0  0  0  0  0
   57.2610   34.0480   45.1250 C   0  0  0  0  0  0  0  0  0  0  0  0
   56.4710   34.6953   44.7164 H   0  0  0  0  0  0  0  0  0  0  0  0
   57.0350   32.6780   45.2640 C   0  0  0  0  0  0  0  0  0  0  0  0
   56.0652   32.2497   44.9705 H   0  0  0  0  0  0  0  0  0  0  0  0
   58.0410   31.8450   45.7770 C   0  0  0  0  0  0  0  0  0  0  0  0
   57.8180   30.3630   45.8810 C   0  0  0  0  0  0  0  0  0  0  0  0
   58.7913   29.8566   45.9608 H   0  0  0  0  0  0  0  0  0  0  0  0
   57.2065   30.1603   46.7726 H   0  0  0  0  0  0  0  0  0  0  0  0
   56.9550   29.7490   44.4440 S   0  0  0  0  0  0  0  0  0  0  0  0
   57.0650   30.7630   43.3430 O   0  0  0  0  0  0  0  0  0  0  0  0
   55.5050   29.5390   44.7740 O   0  0  0  0  0  0  0  0  0  0  0  0
   57.6640   28.2130   43.8950 C   0  0  0  0  0  0  0  0  0  0  0  0
   57.9443   27.6057   44.7683 H   0  0  0  0  0  0  0  0  0  0  0  0
   56.9276   27.6653   43.2886 H   0  0  0  0  0  0  0  0  0  0  0  0
   58.5586   28.4181   43.2886 H   0  0  0  0  0  0  0  0  0  0  0  0
   59.2780   32.4000   46.1430 C   0  0  0  0  0  0  0  0  0  0  0  0
   60.0817   31.7470   46.5140 H   0  0  0  0  0  0  0  0  0  0  0  0
   61.1000   33.9490   48.5980 N   0  0  0  0  0  0  0  0  0  0  0  0
   61.8950   33.5710   49.6390 C   0  0  0  0  0  0  0  0  0  0  0  0
   61.3360   33.4860   50.9730 N   0  0  0  0  0  0  0  0  0  0  0  0
   60.0220   32.9340   51.1640 C   0  0  0  0  0  0  0  0  0  0  0  0
   59.1560   33.4700   52.1300 C   0  0  0  0  0  0  0  0  0  0  0  0
   59.4896   34.3081   52.7595 H   0  0  0  0  0  0  0  0  0  0  0  0
   57.8700   32.9430   52.2960 C   0  0  0  0  0  0  0  0  0  0  0  0
   57.1939   33.3757   53.0481 H   0  0  0  0  0  0  0  0  0  0  0  0
   57.4380   31.8620   51.5050 C   0  0  0  0  0  0  0  0  0  0  0  0
   56.1070   31.3300   51.6190 N   0  0  0  0  0  0  0  0  0  0  0  0
   55.3200   31.8880   51.2270 H   0  0  0  0  0  0  0  0  0  0  0  0
   55.7890   30.0340   52.1390 C   0  0  0  0  0  0  0  0  0  0  0  0
   56.6980   29.1790   52.3180 O   0  0  0  0  0  0  0  0  0  0  0  0
   54.4150   29.6950   52.3650 N   0  0  0  0  0  0  0  0  0  0  0  0
   53.2850   30.5710   52.2260 C   0  0  0  0  0  0  0  0  0  0  0  0
   52.4920   30.8280   53.3510 C   0  0  0  0  0  0  0  0  0  0  0  0
   52.7525   30.3736   54.3183 H   0  0  0  0  0  0  0  0  0  0  0  0
   51.3690   31.6600   53.2530 C   0  0  0  0  0  0  0  0  0  0  0  0
   50.7572   31.8642   54.1441 H   0  0  0  0  0  0  0  0  0  0  0  0
   51.0250   32.2310   52.0240 C   0  0  0  0  0  0  0  0  0  0  0  0
   50.1483   32.8912   51.9496 H   0  0  0  0  0  0  0  0  0  0  0  0
   51.7960   31.9620   50.8910 C   0  0  0  0  0  0  0  0  0  0  0  0
   51.5218   32.4059   49.9226 H   0  0  0  0  0  0  0  0  0  0  0  0
   52.9180   31.1280   50.9850 C   0  0  0  0  0  0  0  0  0  0  0  0
   53.5141   30.9075   50.0872 H   0  0  0  0  0  0  0  0  0  0  0  0
   58.3050   31.3340   50.5360 C   0  0  0  0  0  0  0  0  0  0  0  0
   57.9706   30.5011   49.9001 H   0  0  0  0  0  0  0  0  0  0  0  0
   59.5890   31.8580   50.3730 C   0  0  0  0  0  0  0  0  0  0  0  0
   60.2649   31.4253   49.6207 H   0  0  0  0  0  0  0  0  0  0  0  0
   62.1440   33.7910   52.1590 C   0  0  0  0  0  0  0  0  0  0  0  0
   61.5616   33.5712   53.0659 H   0  0  0  0  0  0  0  0  0  0  0  0
   63.0553   33.1750   52.1502 H   0  0  0  0  0  0  0  0  0  0  0  0
   62.4209   34.8555   52.1502 H   0  0  0  0  0  0  0  0  0  0  0  0
   63.2360   33.2370   49.3750 C   0  0  0  0  0  0  0  0  0  0  0  0
   63.9059   32.9246   50.1896 H   0  0  0  0  0  0  0  0  0  0  0  0
  1  2  1  0
  2  3  1  0
  3  4  1  0
  4  5  2  0
  5  6  1  0
  6  7  2  0
  7  8  1  0
  7  9  1  0
  9 10  1  0
  9 11  2  0
 11 12  1  0
 11 13  1  0
 13 14  1  0
 14 15  1  0
 14 16  1  0
 14 17  1  0
 17 18  2  0
 17 19  2  0
 17 20  1  0
 20 21  1  0
 20 22  1  0
 20 23  1  0
 13 24  2  0
 24 25  1  0
  4 26  1  0
 26 27  2  0
 27 28  1  0
 28 29  1  0
 29 30  2  0
 30 31  1  0
 30 32  1  0
 32 33  1  0
 32 34  2  0
 34 35  1  0
 35 36  1  0
 35 37  1  0
 37 38  2  0
 37 39  1  0
 39 40  1  0
 40 41  2  0
 41 42  1  0
 41 43  1  0
 43 44  1  0
 43 45  2  0
 45 46  1  0
 45 47  1  0
 47 48  1  0
 47 49  2  0
 49 50  1  0
 34 51  1  0
 51 52  1  0
 51 53  2  0
 53 54  1  0
 28 55  1  0
 55 56  1  0
 55 57  1  0
 55 58  1  0
 27 59  1  0
 59 60  1  0
 59  2  2  0
 24  6  1  0
 53 29  1  0
 49 40  1  0
M  CHG  2   3  -1  39  -1
M  END
>  <UniqueID>  (6) 
6

>  <SMILES>  (6) 
CN(c1ccc(NC(=O)[N-]c2ccccc2)cc1)c1cc[n-]/c(=N\c2cccc(CS(C)(=O)=O)c2)n1

>  <Energy>  (6) 
77.5154429048825

>  <Genealogy>  (6) 
CN(c1ccc(NC(=O)[N-]c2ccccc2)cc1)c1cc[n-]c(=Nc2cccc(CS(C)(=O)=O)c2)n1 (protonated)
CN(c1ccc(NC(=O)[N-]c2ccccc2)cc1)c1cc[n-]/c(=N\c2cccc(CS(C)(=O)=O)c2)n1 (cis-trans isomerization)
CN(c1ccc(NC(=O)[N-]c2ccccc2)cc1)c1cc[n-]/c(=N\c2cccc(CS(C)(=O)=O)c2)n1 (3D coordinates assigned)
CN(c1ccc(NC(=O)[N-]c2ccccc2)cc1)c1cc[n-]/c(=N\c2cccc(CS(C)(=O)=O)c2)n1 (optimized conformer: 77.5154429048825 kcal/mol)

>  <smiles>  (6) 
CN(c1ccc(NC(=O)Nc2ccccc2)cc1)c1cc[nH]c(=Nc2cccc(CS(C)(=O)=O)c2)n1

>  <score_type>  (6) 
oracle

>  <origin>  (6) 
adg

>  <m_score__min__energy>  (6) 
-12.779999999999999

>  <m_primary>  (6) 
energy

$$$$
6:0
     RDKit          3D

 40 42  0  0  0  0  0  0  0  0999 V2000
   57.4050   33.3720   44.0180 O   0  0  0  0  0  0  0  0  0  0  0  0
   57.7320   32.5550   44.9260 C   0  0  0  0  0  0  0  0  0  0  0  0
   56.9840   31.3880   45.1370 O   0  0  0  0  0  0  0  0  0  0  0  0
   57.4520   30.0810   44.9410 C   0  0  0  0  0  0  0  0  0  0  0  0
   57.3050   29.5030   43.6740 C   0  0  0  0  0  0  0  0  0  0  0  0
   57.7470   28.1980   43.4340 C   0  0  0  0  0  0  0  0  0  0  0  0
   58.3280   27.4550   44.4650 C   0  0  0  0  0  0  0  0  0  0  0  0
   58.4620   28.0150   45.7390 C   0  0  0  0  0  0  0  0  0  0  0  0
   58.0210   29.3200   45.9820 C   0  0  0  0  0  0  0  0  0  0  0  0
   58.8250   32.8620   45.8170 N   0  0  0  0  0  0  0  0  0  0  0  0
   58.5750   32.2720   47.1570 C   0  0  0  0  0  0  0  0  0  0  0  0
   59.3750   32.9640   48.2820 C   0  0  0  0  0  0  0  0  0  0  0  0
   60.5450   33.6640   47.7390 N   0  0  0  0  0  0  0  0  0  0  0  0
   61.8530   33.4770   48.3140 C   0  0  0  0  0  0  0  0  0  0  0  0
   62.8190   32.7030   47.6510 C   0  0  0  0  0  0  0  0  0  0  0  0
   64.0820   32.5120   48.2160 C   0  0  0  0  0  0  0  0  0  0  0  0
   64.3970   33.0860   49.4530 C   0  0  0  0  0  0  0  0  0  0  0  0
   65.9970   32.8240   50.1320 Cl  0  0  0  0  0  0  0  0  0  0  0  0
   63.4340   33.8530   50.1290 C   0  0  0  0  0  0  0  0  0  0  0  0
   63.7830   34.5810   51.6920 Cl  0  0  0  0  0  0  0  0  0  0  0  0
   62.1690   34.0440   49.5610 C   0  0  0  0  0  0  0  0  0  0  0  0
   60.3520   34.6190   46.6400 C   0  0  0  0  0  0  0  0  0  0  0  0
   59.0480   34.3210   45.8840 C   0  0  0  0  0  0  0  0  0  0  0  0
   56.8385   30.0796   42.8616 H   0  0  0  0  0  0  0  0  0  0  0  0
   57.6372   27.7561   42.4327 H   0  0  0  0  0  0  0  0  0  0  0  0
   58.6797   26.4303   44.2744 H   0  0  0  0  0  0  0  0  0  0  0  0
   58.9150   27.4283   46.5517 H   0  0  0  0  0  0  0  0  0  0  0  0
   58.1185   29.7535   46.9883 H   0  0  0  0  0  0  0  0  0  0  0  0
   59.6880   32.4200   45.4180 H   0  0  0  0  0  0  0  0  0  0  0  0
   57.5024   32.3611   47.3843 H   0  0  0  0  0  0  0  0  0  0  0  0
   58.9021   31.2224   47.1196 H   0  0  0  0  0  0  0  0  0  0  0  0
   58.7250   33.6907   48.7914 H   0  0  0  0  0  0  0  0  0  0  0  0
   59.7220   32.1965   48.9894 H   0  0  0  0  0  0  0  0  0  0  0  0
   62.5795   32.2441   46.6804 H   0  0  0  0  0  0  0  0  0  0  0  0
   64.8328   31.9074   47.6861 H   0  0  0  0  0  0  0  0  0  0  0  0
   61.4161   34.6426   50.0947 H   0  0  0  0  0  0  0  0  0  0  0  0
   60.3061   35.6382   47.0512 H   0  0  0  0  0  0  0  0  0  0  0  0
   61.1954   34.5275   45.9398 H   0  0  0  0  0  0  0  0  0  0  0  0
   58.2057   34.7945   46.4097 H   0  0  0  0  0  0  0  0  0  0  0  0
   59.1230   34.7221   44.8625 H   0  0  0  0  0  0  0  0  0  0  0  0
  1  2  2  0
  2  3  1  0
  3  4  1  0
  4  5  2  0
  5  6  1  0
  6  7  2  0
  7  8  1  0
  8  9  2  0
  2 10  1  0
 10 11  1  0
 11 12  1  0
 12 13  1  0
 13 14  1  0
 14 15  2  0
 15 16  1  0
 16 17  2  0
 17 18  1  0
 17 19  1  0
 19 20  1  0
 19 21  2  0
 13 22  1  0
 22 23  1  0
  9  4  1  0
 23 10  1  0
 21 14  1  0
  5 24  1  0
  6 25  1  0
  7 26  1  0
  8 27  1  0
  9 28  1  0
 10 29  1  0
 11 30  1  0
 11 31  1  0
 12 32  1  0
 12 33  1  0
 15 34  1  0
 16 35  1  0
 21 36  1  0
 22 37  1  0
 22 38  1  0
 23 39  1  0
 23 40  1  0
M  CHG  1  10   1
M  END
>  <UniqueID>  (7) 
7

>  <SMILES>  (7) 
O=C(Oc1ccccc1)[NH+]1CCN(c2ccc(Cl)c(Cl)c2)CC1

>  <Energy>  (7) 
58.27674493220725

>  <Genealogy>  (7) 
O=C(Oc1ccccc1)[NH+]1CCN(c2ccc(Cl)c(Cl)c2)CC1 (protonated)
O=C(Oc1ccccc1)[NH+]1CCN(c2ccc(Cl)c(Cl)c2)CC1 (3D coordinates assigned)
O=C(Oc1ccccc1)[NH+]1CCN(c2ccc(Cl)c(Cl)c2)CC1 (nonaromatic ring conformer: 58.27674493220725 kcal/mol)

>  <smiles>  (7) 
O=C(Oc1ccccc1)N1CCN(c2ccc(Cl)c(Cl)c2)CC1

>  <score_type>  (7) 
oracle

>  <origin>  (7) 
adg

>  <m_score__min__energy>  (7) 
-6.3899999999999997

>  <m_primary>  (7) 
energy

$$$$
7:0
     RDKit          3D

 33 34  0  0  0  0  0  0  0  0999 V2000
   54.8448   22.6813   45.5708 H   0  0  0  0  0  0  0  0  0  0  0  0
   55.5630   23.3890   45.1310 C   0  0  0  0  0  0  0  0  0  0  0  0
   55.8190   24.6050   45.7720 C   0  0  0  0  0  0  0  0  0  0  0  0
   55.3042   24.8439   46.7143 H   0  0  0  0  0  0  0  0  0  0  0  0
   56.7290   25.5250   45.2220 C   0  0  0  0  0  0  0  0  0  0  0  0
   56.9970   26.8090   45.9150 C   0  0  0  0  0  0  0  0  0  0  0  0
   57.2910   26.7980   47.1410 O   0  0  0  0  0  0  0  0  0  0  0  0
   56.8930   28.0620   45.2150 N   0  0  0  0  0  0  0  0  0  0  0  0
   56.3880   28.0930   44.3010 H   0  0  0  0  0  0  0  0  0  0  0  0
   57.3860   29.3060   45.7320 C   0  0  0  0  0  0  0  0  0  0  0  0
   58.1020   29.3230   46.7700 O   0  0  0  0  0  0  0  0  0  0  0  0
   57.1420   30.5110   44.9880 N   0  0  0  0  0  0  0  0  0  0  0  0
   57.5690   31.7250   45.2190 C   0  0  0  0  0  0  0  0  0  0  0  0
   57.7600   32.6770   44.1930 C   0  0  0  0  0  0  0  0  0  0  0  0
   57.5447   32.4148   43.1466 H   0  0  0  0  0  0  0  0  0  0  0  0
   58.2240   33.9530   44.5170 C   0  0  0  0  0  0  0  0  0  0  0  0
   58.3663   34.7034   43.7254 H   0  0  0  0  0  0  0  0  0  0  0  0
   58.5070   34.2770   45.8420 C   0  0  0  0  0  0  0  0  0  0  0  0
   58.8665   35.2829   46.1046 H   0  0  0  0  0  0  0  0  0  0  0  0
   58.3290   33.3110   46.8310 C   0  0  0  0  0  0  0  0  0  0  0  0
   58.5556   33.5527   47.8799 H   0  0  0  0  0  0  0  0  0  0  0  0
   57.8760   32.0700   46.5040 N   0  0  0  0  0  0  0  0  0  0  0  0
   57.7550   31.3700   47.2710 H   0  0  0  0  0  0  0  0  0  0  0  0
   57.3890   25.1930   44.0260 C   0  0  0  0  0  0  0  0  0  0  0  0
   58.1132   25.8966   43.5896 H   0  0  0  0  0  0  0  0  0  0  0  0
   57.1330   23.9760   43.3860 C   0  0  0  0  0  0  0  0  0  0  0  0
   57.6537   23.7299   42.4488 H   0  0  0  0  0  0  0  0  0  0  0  0
   56.2120   23.0650   43.9360 C   0  0  0  0  0  0  0  0  0  0  0  0
   55.9200   21.8330   43.3310 O   0  0  0  0  0  0  0  0  0  0  0  0
   56.8910   20.8370   43.0260 C   0  0  0  0  0  0  0  0  0  0  0  0
   57.2961   20.4215   43.9605 H   0  0  0  0  0  0  0  0  0  0  0  0
   56.4204   20.0331   42.4410 H   0  0  0  0  0  0  0  0  0  0  0  0
   57.7066   21.2870   42.4410 H   0  0  0  0  0  0  0  0  0  0  0  0
  1  2  1  0
  2  3  2  0
  3  4  1  0
  3  5  1  0
  5  6  1  0
  6  7  2  0
  6  8  1  0
  8  9  1  0
  8 10  1  0
 10 11  2  0
 10 12  1  0
 12 13  2  0
 13 14  1  0
 14 15  1  0
 14 16  2  0
 16 17  1  0
 16 18  1  0
 18 19  1  0
 18 20  2  0
 20 21  1  0
 20 22  1  0
 22 23  1  0
  5 24  2  0
 24 25  1  0
 24 26  1  0
 26 27  1  0
 26 28  2  0
 28 29  1  0
 29 30  1  0
 30 31  1  0
 30 32  1  0
 30 33  1  0
 28  2  1  0
 22 13  1  0
M  END
>  <UniqueID>  (8) 
8

>  <SMILES>  (8) 
COc1ccc(C(=O)NC(=O)/N=c2\cccc[nH]2)cc1

>  <Energy>  (8) 
43.49105445601202

>  <Genealogy>  (8) 
COc1ccc(C(=O)NC(=O)/N=c2\cccc[nH]2)cc1 (cis-trans isomerization)
COc1ccc(C(=O)NC(=O)/N=c2\cccc[nH]2)cc1 (3D coordinates assigned)
COc1ccc(C(=O)NC(=O)/N=c2\cccc[nH]2)cc1 (optimized conformer: 43.49105445601202 kcal/mol)

>  <smiles>  (8) 
COc1ccc(C(=O)NC(=O)N=c2cccc[nH]2)cc1

>  <score_type>  (8) 
oracle

>  <origin>  (8) 
adg

>  <m_score__min__energy>  (8) 
-6.8200000000000003

>  <m_primary>  (8) 
energy

$$$$
8:0
     RDKit          3D

 59 63  0  0  1  0  0  0  0  0999 V2000
   63.5080   34.5750   50.0710 O   0  0  0  0  0  0  0  0  0  0  0  0
   63.3720   33.4710   49.4830 C   0  0  0  0  0  0  0  0  0  0  0  0
   63.8210   33.2120   48.0970 C   0  0  0  0  0  0  0  0  0  0  0  0
   62.7350   32.6340   47.2150 C   0  0  0  0  0  0  0  0  0  0  0  0
   62.1060   31.5120   47.9520 C   0  0  0  0  0  0  0  0  0  0  0  0
   61.4770   30.5360   47.2040 C   0  0  0  0  0  0  0  0  0  0  0  0
   60.8540   29.4400   47.8090 C   0  0  0  0  0  0  0  0  0  0  0  0
   60.2280   28.4780   46.9620 N   0  0  0  0  0  0  0  0  0  0  0  0
   59.3600   28.8280   46.0750 C   0  0  0  0  0  0  0  0  0  0  0  0
   59.1290   28.0620   44.9920 N   0  0  0  0  0  0  0  0  0  0  0  0
   58.2160   28.4460   44.0740 C   0  0  0  0  0  0  0  0  0  0  0  0
   57.5180   29.6150   44.2330 C   0  0  0  0  0  0  0  0  0  0  0  0
   56.3320   30.1120   43.0390 Cl  0  0  0  0  0  0  0  0  0  0  0  0
   57.7530   30.4080   45.3490 C   0  0  0  0  0  0  0  0  0  0  0  0
   57.1150   31.5250   45.5440 N   0  0  0  0  0  0  0  0  0  0  0  0
   57.9140   32.7020   45.4950 C   0  0  0  0  0  0  0  0  0  0  0  0
   58.4820   33.0680   44.2940 C   0  0  0  0  0  0  0  0  0  0  0  0
   59.2500   34.2000   44.2500 C   0  0  0  0  0  0  0  0  0  0  0  0
   59.4850   34.9990   45.3570 C   0  0  0  0  0  0  0  0  0  0  0  0
   58.8970   34.6010   46.5550 C   0  0  0  0  0  0  0  0  0  0  0  0
   58.1150   33.4630   46.6350 C   0  0  0  0  0  0  0  0  0  0  0  0
   57.5260   33.0910   47.8980 N   0  0  0  0  0  0  0  0  0  0  0  0
   58.3420   32.3750   48.8120 C   0  0  0  0  0  0  0  0  0  0  0  0
   59.5450   32.0770   48.5170 O   0  0  0  0  0  0  0  0  0  0  0  0
   57.7770   31.9750   50.1190 C   0  0  0  0  0  0  0  0  0  0  0  0
   58.7570   32.2080   51.2040 C   0  0  0  0  0  0  0  0  0  0  0  0
   59.1510   31.2500   52.0990 C   0  0  0  0  0  0  0  0  0  0  0  0
   60.0780   31.5620   53.0850 C   0  0  0  0  0  0  0  0  0  0  0  0
   60.6340   32.8130   53.2090 C   0  0  0  0  0  0  0  0  0  0  0  0
   60.2350   33.7850   52.3000 C   0  0  0  0  0  0  0  0  0  0  0  0
   59.3080   33.4760   51.3150 C   0  0  0  0  0  0  0  0  0  0  0  0
   58.6770   29.9560   46.2170 N   0  0  0  0  0  0  0  0  0  0  0  0
   60.8690   29.3300   49.1870 C   0  0  0  0  0  0  0  0  0  0  0  0
   61.4970   30.3060   49.9380 C   0  0  0  0  0  0  0  0  0  0  0  0
   62.1180   31.4000   49.3270 C   0  0  0  0  0  0  0  0  0  0  0  0
   62.7460   32.3640   50.1630 N   0  0  0  0  0  0  0  0  0  0  0  0
   64.1604   34.1611   47.6566 H   0  0  0  0  0  0  0  0  0  0  0  0
   64.6292   32.4676   48.1496 H   0  0  0  0  0  0  0  0  0  0  0  0
   61.9826   33.4051   46.9930 H   0  0  0  0  0  0  0  0  0  0  0  0
   63.1587   32.2807   46.2633 H   0  0  0  0  0  0  0  0  0  0  0  0
   61.4659   30.6228   46.1075 H   0  0  0  0  0  0  0  0  0  0  0  0
   59.6840   27.1840   44.9150 H   0  0  0  0  0  0  0  0  0  0  0  0
   58.0310   27.8157   43.1917 H   0  0  0  0  0  0  0  0  0  0  0  0
   58.3215   32.4629   43.3895 H   0  0  0  0  0  0  0  0  0  0  0  0
   59.7022   34.4891   43.2898 H   0  0  0  0  0  0  0  0  0  0  0  0
   60.1063   35.9045   45.2928 H   0  0  0  0  0  0  0  0  0  0  0  0
   59.0583   35.2062   47.4593 H   0  0  0  0  0  0  0  0  0  0  0  0
   56.5310   33.3510   48.1150 H   0  0  0  0  0  0  0  0  0  0  0  0
   56.8709   32.5663   50.3173 H   0  0  0  0  0  0  0  0  0  0  0  0
   57.5325   30.9030   50.0864 H   0  0  0  0  0  0  0  0  0  0  0  0
   58.7338   30.2341   52.0373 H   0  0  0  0  0  0  0  0  0  0  0  0
   60.3791   30.7772   53.7946 H   0  0  0  0  0  0  0  0  0  0  0  0
   61.3671   33.0361   53.9981 H   0  0  0  0  0  0  0  0  0  0  0  0
   60.6543   34.8001   52.3613 H   0  0  0  0  0  0  0  0  0  0  0  0
   59.0020   34.2571   50.6035 H   0  0  0  0  0  0  0  0  0  0  0  0
   58.8800   30.5380   47.0790 H   0  0  0  0  0  0  0  0  0  0  0  0
   60.3859   28.4741   49.6811 H   0  0  0  0  0  0  0  0  0  0  0  0
   61.5085   30.2207   51.0346 H   0  0  0  0  0  0  0  0  0  0  0  0
   62.7700   32.3050   51.2050 H   0  0  0  0  0  0  0  0  0  0  0  0
  1  2  2  0
  2  3  1  0
  3  4  1  0
  4  5  1  0
  5  6  2  0
  6  7  1  0
  7  8  1  0
  8  9  2  0
  9 10  1  0
 10 11  1  0
 11 12  2  0
 12 13  1  0
 12 14  1  0
 14 15  2  0
 15 16  1  0
 16 17  2  0
 17 18  1  0
 18 19  2  0
 19 20  1  0
 20 21  2  0
 21 22  1  0
 22 23  1  0
 23 24  2  0
 23 25  1  0
 25 26  1  0
 26 27  2  0
 27 28  1  0
 28 29  2  0
 29 30  1  0
 30 31  2  0
 14 32  1  0
  7 33  2  0
 33 34  1  0
 34 35  2  0
 35 36  1  0
 36  2  1  0
 35  5  1  0
 32  9  1  0
 21 16  1  0
 31 26  1  0
  3 37  1  0
  3 38  1  0
  4 39  1  0
  4 40  1  0
  6 41  1  0
 10 42  1  0
 11 43  1  0
 17 44  1  0
 18 45  1  0
 19 46  1  0
 20 47  1  0
 22 48  1  0
 25 49  1  0
 25 50  1  0
 27 51  1  0
 28 52  1  0
 29 53  1  0
 30 54  1  0
 31 55  1  0
 32 56  1  0
 33 57  1  0
 34 58  1  0
 36 59  1  0
M  END
>  <smiles>  (9) 
O=C1CCc2cc(N=c3[nH]cc(Cl)c(=Nc4ccccc4NC(=O)Cc4ccccc4)[nH]3)ccc2N1

>  <score_type>  (9) 
oracle

>  <origin>  (9) 
adg

>  <m_score__min__energy>  (9) 
-10.92

>  <m_primary>  (9) 
energy

$$$$
9:0
     RDKit          3D

 73 77  0  0  0  0  0  0  0  0999 V2000
   54.9930   26.3430   45.9910 O   0  0  0  0  0  0  0  0  0  0  0  0
   56.2510   26.4000   46.0330 C   0  0  0  0  0  0  0  0  0  0  0  0
   56.9590   25.3600   46.7200 N   0  0  0  0  0  0  0  0  0  0  0  0
   58.0940   25.5460   47.6170 C   0  0  0  0  0  0  0  0  0  0  0  0
   59.2820   26.1160   46.8410 C   0  0  0  0  0  0  0  0  0  0  0  0
   59.7260   27.7310   47.4650 S   0  0  0  0  0  0  0  0  0  0  0  0
   60.3190   28.5370   46.3390 O   0  0  0  0  0  0  0  0  0  0  0  0
   58.4980   28.4300   47.9760 O   0  0  0  0  0  0  0  0  0  0  0  0
   60.8710   27.5490   48.7620 N   0  0  0  0  0  0  0  0  0  0  0  0
   60.4690   28.3060   49.9460 C   0  0  0  0  0  0  0  0  0  0  0  0
   61.4460   29.4560   50.2090 C   0  0  0  0  0  0  0  0  0  0  0  0
   60.9120   30.7750   49.6430 C   0  0  0  0  0  0  0  0  0  0  0  0
   60.1830   30.5440   48.4640 O   0  0  0  0  0  0  0  0  0  0  0  0
   56.9370   27.4960   45.3260 C   0  0  0  0  0  0  0  0  0  0  0  0
   57.7730   27.3440   44.2360 C   0  0  0  0  0  0  0  0  0  0  0  0
   58.2630   28.5410   43.8670 N   0  0  0  0  0  0  0  0  0  0  0  0
   57.7220   29.4580   44.6950 C   0  0  0  0  0  0  0  0  0  0  0  0
   58.0250   30.8990   44.6550 C   0  0  0  0  0  0  0  0  0  0  0  0
   58.5310   31.5580   45.7820 C   0  0  0  0  0  0  0  0  0  0  0  0
   58.7440   32.9450   45.7410 C   0  0  0  0  0  0  0  0  0  0  0  0
   59.1940   33.6460   46.8670 O   0  0  0  0  0  0  0  0  0  0  0  0
   60.4940   33.5490   47.3880 C   0  0  0  0  0  0  0  0  0  0  0  0
   60.8830   34.2680   48.5320 C   0  0  0  0  0  0  0  0  0  0  0  0
   62.1840   34.1580   49.0240 C   0  0  0  0  0  0  0  0  0  0  0  0
   63.1160   33.3220   48.3970 C   0  0  0  0  0  0  0  0  0  0  0  0
   64.4650   33.2880   48.8970 N   0  0  0  0  0  0  0  0  0  0  0  0
   64.8300   33.4300   50.2760 C   0  0  0  0  0  0  0  0  0  0  0  0
   64.2390   34.2750   51.0010 O   0  0  0  0  0  0  0  0  0  0  0  0
   65.9240   32.6730   50.8150 N   0  0  0  0  0  0  0  0  0  0  0  0
   67.2680   33.2100   51.0270 C   0  0  0  0  0  0  0  0  0  0  0  0
   68.1310   32.0220   51.5170 C   0  0  0  0  0  0  0  0  0  0  0  0
   67.1570   30.8980   51.6040 C   0  0  0  0  0  0  0  0  0  0  0  0
   67.3800   29.5980   52.0630 C   0  0  0  0  0  0  0  0  0  0  0  0
   68.6170   29.2030   52.4570 F   0  0  0  0  0  0  0  0  0  0  0  0
   66.2940   28.7090   52.1200 C   0  0  0  0  0  0  0  0  0  0  0  0
   65.0100   29.1360   51.7330 C   0  0  0  0  0  0  0  0  0  0  0  0
   64.8070   30.4480   51.2780 C   0  0  0  0  0  0  0  0  0  0  0  0
   65.9130   31.3050   51.1990 C   0  0  0  0  0  0  0  0  0  0  0  0
   62.7320   32.6280   47.2320 C   0  0  0  0  0  0  0  0  0  0  0  0
   61.4330   32.7480   46.7310 C   0  0  0  0  0  0  0  0  0  0  0  0
   58.5130   33.6350   44.5490 C   0  0  0  0  0  0  0  0  0  0  0  0
   58.0140   32.9450   43.4400 C   0  0  0  0  0  0  0  0  0  0  0  0
   57.7710   31.6110   43.5220 N   0  0  0  0  0  0  0  0  0  0  0  0
   56.8790   28.8480   45.6070 C   0  0  0  0  0  0  0  0  0  0  0  0
   57.8140   26.2439   48.4199 H   0  0  0  0  0  0  0  0  0  0  0  0
   58.3764   24.5752   48.0503 H   0  0  0  0  0  0  0  0  0  0  0  0
   60.1419   25.4384   46.9478 H   0  0  0  0  0  0  0  0  0  0  0  0
   59.0007   26.2106   45.7818 H   0  0  0  0  0  0  0  0  0  0  0  0
   59.4612   28.7172   49.7870 H   0  0  0  0  0  0  0  0  0  0  0  0
   60.4727   27.6322   50.8154 H   0  0  0  0  0  0  0  0  0  0  0  0
   61.5905   29.5633   51.2942 H   0  0  0  0  0  0  0  0  0  0  0  0
   62.3997   29.2240   49.7125 H   0  0  0  0  0  0  0  0  0  0  0  0
   60.2558   31.2494   50.3875 H   0  0  0  0  0  0  0  0  0  0  0  0
   61.7621   31.4341   49.4129 H   0  0  0  0  0  0  0  0  0  0  0  0
   60.3520   29.6000   48.2060 H   0  0  0  0  0  0  0  0  0  0  0  0
   58.0031   26.3875   43.7440 H   0  0  0  0  0  0  0  0  0  0  0  0
   58.9250   28.7100   43.0780 H   0  0  0  0  0  0  0  0  0  0  0  0
   58.7608   30.9910   46.6962 H   0  0  0  0  0  0  0  0  0  0  0  0
   60.1583   34.9202   49.0414 H   0  0  0  0  0  0  0  0  0  0  0  0
   62.4804   34.7337   49.9132 H   0  0  0  0  0  0  0  0  0  0  0  0
   65.2390   33.0870   48.2230 H   0  0  0  0  0  0  0  0  0  0  0  0
   67.6713   33.6127   50.0861 H   0  0  0  0  0  0  0  0  0  0  0  0
   67.2623   34.0318   51.7581 H   0  0  0  0  0  0  0  0  0  0  0  0
   68.9313   31.7941   50.7975 H   0  0  0  0  0  0  0  0  0  0  0  0
   68.6375   32.2253   52.4721 H   0  0  0  0  0  0  0  0  0  0  0  0
   66.4474   27.6768   52.4679 H   0  0  0  0  0  0  0  0  0  0  0  0
   64.1615   28.4381   51.7874 H   0  0  0  0  0  0  0  0  0  0  0  0
   63.8037   30.7954   50.9903 H   0  0  0  0  0  0  0  0  0  0  0  0
   63.4602   31.9872   46.7133 H   0  0  0  0  0  0  0  0  0  0  0  0
   61.1478   32.2096   45.8152 H   0  0  0  0  0  0  0  0  0  0  0  0
   58.7220   34.7129   44.4831 H   0  0  0  0  0  0  0  0  0  0  0  0
   57.8181   33.4827   42.5006 H   0  0  0  0  0  0  0  0  0  0  0  0
   56.2855   29.3378   46.3930 H   0  0  0  0  0  0  0  0  0  0  0  0
  1  2  2  0
  2  3  1  0
  3  4  1  0
  4  5  1  0
  5  6  1  0
  6  7  2  0
  6  8  2  0
  6  9  1  0
  9 10  1  0
 10 11  1  0
 11 12  1  0
 12 13  1  0
  2 14  1  0
 14 15  2  0
 15 16  1  0
 16 17  1  0
 17 18  1  0
 18 19  2  0
 19 20  1  0
 20 21  1  0
 21 22  1  0
 22 23  2  0
 23 24  1  0
 24 25  2  0
 25 26  1  0
 26 27  1  0
 27 28  2  0
 27 29  1  0
 29 30  1  0
 30 31  1  0
 31 32  1  0
 32 33  2  0
 33 34  1  0
 33 35  1  0
 35 36  2  0
 36 37  1  0
 37 38  2  0
 25 39  1  0
 39 40  2  0
 20 41  2  0
 41 42  1  0
 42 43  2  0
 17 44  2  0
 44 14  1  0
 43 18  1  0
 40 22  1  0
 38 29  1  0
 38 32  1  0
  4 45  1  0
  4 46  1  0
  5 47  1  0
  5 48  1  0
 10 49  1  0
 10 50  1  0
 11 51  1  0
 11 52  1  0
 12 53  1  0
 12 54  1  0
 13 55  1  0
 15 56  1  0
 16 57  1  0
 19 58  1  0
 23 59  1  0
 24 60  1  0
 26 61  1  0
 30 62  1  0
 30 63  1  0
 31 64  1  0
 31 65  1  0
 35 66  1  0
 36 67  1  0
 37 68  1  0
 39 69  1  0
 40 70  1  0
 41 71  1  0
 42 72  1  0
 44 73  1  0
M  CHG  2   3  -1   9  -1
M  END
>  <UniqueID>  (10) 
9

>  <SMILES>  (10) 
O=C([N-]CCS(=O)(=O)[N-]CCCO)c1c[nH]c(-c2cc(Oc3ccc(NC(=O)N4CCc5c(F)cccc54)cc3)ccn2)c1

>  <Energy>  (10) 
125.52181013940503

>  <Genealogy>  (10) 
O=C([N-]CCS(=O)(=O)[N-]CCCO)c1c[nH]c(-c2cc(Oc3ccc(NC(=O)N4CCc5c(F)cccc54)cc3)ccn2)c1 (protonated)
O=C([N-]CCS(=O)(=O)[N-]CCCO)c1c[nH]c(-c2cc(Oc3ccc(NC(=O)N4CCc5c(F)cccc54)cc3)ccn2)c1 (3D coordinates assigned)
O=C([N-]CCS(=O)(=O)[N-]CCCO)c1c[nH]c(-c2cc(Oc3ccc(NC(=O)N4CCc5c(F)cccc54)cc3)ccn2)c1 (nonaromatic ring conformer: 125.52181013940503 kcal/mol)

>  <smiles>  (10) 
O=C(NCCS(=O)(=O)NCCCO)c1c[nH]c(-c2cc(Oc3ccc(NC(=O)N4CCc5c(F)cccc54)cc3)ccn2)c1

>  <score_type>  (10) 
oracle

>  <origin>  (10) 
adg

>  <m_score__min__energy>  (10) 
-13.140000000000001

>  <m_primary>  (10) 
energy

$$$$
10:0
     RDKit          3D

 42 44  0  0  0  0  0  0  0  0999 V2000
   57.7750   27.3470   42.7360 C   0  0  0  0  0  0  0  0  0  0  0  0
   57.6980   28.2360   43.8970 N   0  0  0  0  0  0  0  0  0  0  0  0
   58.3900   27.9040   45.1200 C   0  0  0  0  0  0  0  0  0  0  0  0
   59.7630   28.1830   45.2660 C   0  0  0  0  0  0  0  0  0  0  0  0
   60.4310   27.8650   46.4520 C   0  0  0  0  0  0  0  0  0  0  0  0
   59.7380   27.2750   47.5110 C   0  0  0  0  0  0  0  0  0  0  0  0
   60.6530   26.8450   49.1310 Br  0  0  0  0  0  0  0  0  0  0  0  0
   58.3740   27.0000   47.3840 C   0  0  0  0  0  0  0  0  0  0  0  0
   57.7030   27.3120   46.1980 C   0  0  0  0  0  0  0  0  0  0  0  0
   56.7560   29.6990   43.7740 S   0  0  0  0  0  0  0  0  0  0  0  0
   56.5740   30.0680   42.3280 O   0  0  0  0  0  0  0  0  0  0  0  0
   55.4010   29.4570   44.3790 O   0  0  0  0  0  0  0  0  0  0  0  0
   57.5610   31.0200   44.6150 C   0  0  0  0  0  0  0  0  0  0  0  0
   57.7450   32.2420   43.9740 C   0  0  0  0  0  0  0  0  0  0  0  0
   58.3680   33.2970   44.6350 C   0  0  0  0  0  0  0  0  0  0  0  0
   58.8280   33.1580   45.9670 C   0  0  0  0  0  0  0  0  0  0  0  0
   58.6470   31.9070   46.6260 C   0  0  0  0  0  0  0  0  0  0  0  0
   58.0150   30.8520   45.9260 C   0  0  0  0  0  0  0  0  0  0  0  0
   59.0850   31.7500   47.9240 N   0  0  0  0  0  0  0  0  0  0  0  0
   58.8970   30.4670   48.6340 C   0  0  0  0  0  0  0  0  0  0  0  0
   59.7000   32.7940   48.5640 C   0  0  0  0  0  0  0  0  0  0  0  0
   60.1190   32.6690   49.7500 O   0  0  0  0  0  0  0  0  0  0  0  0
   59.8780   34.0200   47.9180 C   0  0  0  0  0  0  0  0  0  0  0  0
   60.4470   34.9590   48.5420 O   0  0  0  0  0  0  0  0  0  0  0  0
   59.4430   34.1980   46.6300 N   0  0  0  0  0  0  0  0  0  0  0  0
   59.6370   35.5050   45.9660 C   0  0  0  0  0  0  0  0  0  0  0  0
   57.8652   26.3052   43.0773 H   0  0  0  0  0  0  0  0  0  0  0  0
   56.8640   27.4565   42.1293 H   0  0  0  0  0  0  0  0  0  0  0  0
   58.6536   27.6115   42.1293 H   0  0  0  0  0  0  0  0  0  0  0  0
   60.3143   28.6552   44.4395 H   0  0  0  0  0  0  0  0  0  0  0  0
   61.5052   28.0801   46.5513 H   0  0  0  0  0  0  0  0  0  0  0  0
   57.8272   26.5372   48.2187 H   0  0  0  0  0  0  0  0  0  0  0  0
   56.6289   27.0933   46.1057 H   0  0  0  0  0  0  0  0  0  0  0  0
   57.3961   32.3747   42.9393 H   0  0  0  0  0  0  0  0  0  0  0  0
   58.5054   34.2556   44.1133 H   0  0  0  0  0  0  0  0  0  0  0  0
   57.8784   29.8805   46.4236 H   0  0  0  0  0  0  0  0  0  0  0  0
   58.9226   30.6416   49.7198 H   0  0  0  0  0  0  0  0  0  0  0  0
   57.9256   30.0326   48.3553 H   0  0  0  0  0  0  0  0  0  0  0  0
   59.7029   29.7722   48.3553 H   0  0  0  0  0  0  0  0  0  0  0  0
   59.7535   36.2897   46.7280 H   0  0  0  0  0  0  0  0  0  0  0  0
   60.5393   35.4669   45.3380 H   0  0  0  0  0  0  0  0  0  0  0  0
   58.7625   35.7306   45.3380 H   0  0  0  0  0  0  0  0  0  0  0  0
  1  2  1  0
  2  3  1  0
  3  4  2  0
  4  5  1  0
  5  6  2  0
  6  7  1  0
  6  8  1  0
  8  9  2  0
  2 10  1  0
 10 11  2  0
 10 12  2  0
 10 13  1  0
 13 14  2  0
 14 15  1  0
 15 16  2  0
 16 17  1  0
 17 18  2  0
 17 19  1  0
 19 20  1  0
 19 21  1  0
 21 22  2  0
 21 23  1  0
 23 24  2  0
 23 25  1  0
 25 26  1  0
  9  3  1  0
 18 13  1  0
 25 16  1  0
  1 27  1  0
  1 28  1  0
  1 29  1  0
  4 30  1  0
  5 31  1  0
  8 32  1  0
  9 33  1  0
 14 34  1  0
 15 35  1  0
 18 36  1  0
 20 37  1  0
 20 38  1  0
 20 39  1  0
 26 40  1  0
 26 41  1  0
 26 42  1  0
M  END
>  <UniqueID>  (11) 
10

>  <SMILES>  (11) 
CN(c1ccc(Br)cc1)S(=O)(=O)c1ccc2c(c1)n(C)c(=O)c(=O)n2C

>  <Energy>  (11) 
65.43948367780571

>  <Genealogy>  (11) 
CN(c1ccc(Br)cc1)S(=O)(=O)c1ccc2c(c1)n(C)c(=O)c(=O)n2C (3D coordinates assigned)
CN(c1ccc(Br)cc1)S(=O)(=O)c1ccc2c(c1)n(C)c(=O)c(=O)n2C (optimized conformer: 65.43948367780571 kcal/mol)

>  <smiles>  (11) 
CN(c1ccc(Br)cc1)S(=O)(=O)c1ccc2c(c1)n(C)c(=O)c(=O)n2C

>  <score_type>  (11) 
oracle

>  <origin>  (11) 
adg

>  <m_score__min__energy>  (11) 
-8.3000000000000007

>  <m_primary>  (11) 
energy

$$$$
11:0
     RDKit          3D

 36 37  0  0  0  0  0  0  0  0999 V2000
   60.0030   34.8650   45.4110 O   0  0  0  0  0  0  0  0  0  0  0  0
   59.3620   33.8820   46.3520 S   0  0  0  0  0  0  0  0  0  0  0  0
   58.4020   34.6400   47.2280 O   0  0  0  0  0  0  0  0  0  0  0  0
   58.5030   32.7350   45.3270 C   0  0  0  0  0  0  0  0  0  0  0  0
   58.2080   33.0510   43.9910 C   0  0  0  0  0  0  0  0  0  0  0  0
   57.5330   32.1290   43.1850 C   0  0  0  0  0  0  0  0  0  0  0  0
   57.1580   30.8860   43.7040 C   0  0  0  0  0  0  0  0  0  0  0  0
   56.3090   29.7320   42.6910 Cl  0  0  0  0  0  0  0  0  0  0  0  0
   57.4640   30.5610   45.0300 C   0  0  0  0  0  0  0  0  0  0  0  0
   58.1390   31.4810   45.8380 C   0  0  0  0  0  0  0  0  0  0  0  0
   60.6070   33.1210   47.3480 N   0  0  1  0  0  0  0  0  0  0  0  0
   61.9270   33.4880   46.7530 C   0  0  0  0  0  0  0  0  0  0  0  0
   63.1200   32.6940   47.3060 C   0  0  0  0  0  0  0  0  0  0  0  0
   64.0820   33.5190   48.1570 C   0  0  0  0  0  0  0  0  0  0  0  0
   63.3000   33.9080   49.7500 S   0  0  0  0  0  0  0  0  0  0  0  0
   61.8120   32.8560   49.5910 C   0  0  0  0  0  0  0  0  0  0  0  0
   60.5860   33.4460   48.8280 C   0  0  2  0  0  0  0  0  0  0  0  0
   59.3040   33.0810   49.6290 C   0  0  0  0  0  0  0  0  0  0  0  0
   58.4160   32.3090   48.8690 O   0  0  0  0  0  0  0  0  0  0  0  0
   58.5083   34.0252   43.5779 H   0  0  0  0  0  0  0  0  0  0  0  0
   57.2966   32.3820   42.1409 H   0  0  0  0  0  0  0  0  0  0  0  0
   57.1734   29.5813   45.4370 H   0  0  0  0  0  0  0  0  0  0  0  0
   58.3853   31.2202   46.8779 H   0  0  0  0  0  0  0  0  0  0  0  0
   60.4580   32.0960   47.2130 H   0  0  0  0  0  0  0  0  0  0  0  0
   61.8739   33.3163   45.6678 H   0  0  0  0  0  0  0  0  0  0  0  0
   62.1051   34.5415   47.0147 H   0  0  0  0  0  0  0  0  0  0  0  0
   62.7302   31.8724   47.9249 H   0  0  0  0  0  0  0  0  0  0  0  0
   63.6929   32.3389   46.4367 H   0  0  0  0  0  0  0  0  0  0  0  0
   65.0030   32.9435   48.3315 H   0  0  0  0  0  0  0  0  0  0  0  0
   64.3276   34.4534   47.6312 H   0  0  0  0  0  0  0  0  0  0  0  0
   62.1137   31.9369   49.0674 H   0  0  0  0  0  0  0  0  0  0  0  0
   61.4573   32.7176   50.6230 H   0  0  0  0  0  0  0  0  0  0  0  0
   60.6187   34.5449   48.7914 H   0  0  0  0  0  0  0  0  0  0  0  0
   59.5940   32.5115   50.5243 H   0  0  0  0  0  0  0  0  0  0  0  0
   58.7946   34.0168   49.9024 H   0  0  0  0  0  0  0  0  0  0  0  0
   57.7940   32.9480   48.4330 H   0  0  0  0  0  0  0  0  0  0  0  0
  1  2  2  0
  2  3  2  0
  2  4  1  0
  4  5  2  0
  5  6  1  0
  6  7  2  0
  7  8  1  0
  7  9  1  0
  9 10  2  0
  2 11  1  0
 11 12  1  0
 12 13  1  0
 13 14  1  0
 14 15  1  0
 15 16  1  0
 16 17  1  0
 17 18  1  0
 18 19  1  0
 10  4  1  0
 17 11  1  0
  5 20  1  0
  6 21  1  0
  9 22  1  0
 10 23  1  0
 11 24  1  1
 12 25  1  0
 12 26  1  0
 13 27  1  0
 13 28  1  0
 14 29  1  0
 14 30  1  0
 16 31  1  0
 16 32  1  0
 17 33  1  6
 18 34  1  0
 18 35  1  0
 19 36  1  0
M  CHG  1  11   1
M  END
>  <UniqueID>  (12) 
11

>  <SMILES>  (12) 
O=S(=O)(c1ccc(Cl)cc1)[N@H+]1CCCSC[C@@H]1CO

>  <Energy>  (12) 
55.67090888839041

>  <Genealogy>  (12) 
O=S(=O)(c1ccc(Cl)cc1)[NH+]1CCCSCC1CO (protonated)
O=S(=O)(c1ccc(Cl)cc1)[N@H+]1CCCSC[C@@H]1CO (chirality)
O=S(=O)(c1ccc(Cl)cc1)[N@H+]1CCCSC[C@@H]1CO (3D coordinates assigned)
O=S(=O)(c1ccc(Cl)cc1)[N@H+]1CCCSC[C@@H]1CO (nonaromatic ring conformer: 55.67090888839041 kcal/mol)

>  <smiles>  (12) 
O=S(=O)(c1ccc(Cl)cc1)N1CCCSCC1CO

>  <score_type>  (12) 
oracle

>  <origin>  (12) 
adg

>  <m_score__min__energy>  (12) 
-5.1299999999999999

>  <m_primary>  (12) 
energy

$$$$
12:0
     RDKit          3D

 36 38  0  0  0  0  0  0  0  0999 V2000
   54.1289   24.5889   45.8074 H   0  0  0  0  0  0  0  0  0  0  0  0
   55.0890   25.0980   45.6370 C   0  0  0  0  0  0  0  0  0  0  0  0
   55.3030   26.3910   46.0000 N   0  0  0  0  0  0  0  0  0  0  0  0
   56.5520   26.7950   45.6900 C   0  0  0  0  0  0  0  0  0  0  0  0
   56.9760   27.9940   45.9470 N   0  0  0  0  0  0  0  0  0  0  0  0
   56.8000   29.3420   44.8710 S   0  0  0  0  0  0  0  0  0  0  0  0
   57.3170   28.9810   43.5060 O   0  0  0  0  0  0  0  0  0  0  0  0
   55.3500   29.7250   44.7640 O   0  0  0  0  0  0  0  0  0  0  0  0
   57.7230   30.7000   45.5040 C   0  0  0  0  0  0  0  0  0  0  0  0
   58.7000   30.4910   46.4820 C   0  0  0  0  0  0  0  0  0  0  0  0
   58.8818   29.4770   46.8678 H   0  0  0  0  0  0  0  0  0  0  0  0
   59.4450   31.5650   46.9700 C   0  0  0  0  0  0  0  0  0  0  0  0
   60.2184   31.3896   47.7323 H   0  0  0  0  0  0  0  0  0  0  0  0
   59.2170   32.8690   46.4970 C   0  0  0  0  0  0  0  0  0  0  0  0
   60.0600   33.9420   46.9470 N   0  0  0  0  0  0  0  0  0  0  0  0
   59.7420   34.9210   46.7640 H   0  0  0  0  0  0  0  0  0  0  0  0
   61.3410   33.7490   47.5740 C   0  0  0  0  0  0  0  0  0  0  0  0
   61.5070   33.8980   48.9640 C   0  0  0  0  0  0  0  0  0  0  0  0
   60.6421   34.1517   49.5945 H   0  0  0  0  0  0  0  0  0  0  0  0
   62.7660   33.7250   49.5470 C   0  0  0  0  0  0  0  0  0  0  0  0
   62.8871   33.8346   50.6348 H   0  0  0  0  0  0  0  0  0  0  0  0
   63.8710   33.4130   48.7500 C   0  0  0  0  0  0  0  0  0  0  0  0
   65.0910   33.2480   49.3180 F   0  0  0  0  0  0  0  0  0  0  0  0
   63.7190   33.2810   47.3670 C   0  0  0  0  0  0  0  0  0  0  0  0
   64.5896   33.0407   46.7390 H   0  0  0  0  0  0  0  0  0  0  0  0
   62.4620   33.4540   46.7810 C   0  0  0  0  0  0  0  0  0  0  0  0
   62.3499   33.3584   45.6909 H   0  0  0  0  0  0  0  0  0  0  0  0
   58.2310   33.0870   45.5040 C   0  0  0  0  0  0  0  0  0  0  0  0
   57.9430   34.4060   45.0060 N   0  0  0  0  0  0  0  0  0  0  0  0
   58.8570   35.2400   44.8370 O   0  0  0  0  0  0  0  0  0  0  0  0
   56.6380   34.8180   44.8540 O   0  0  0  0  0  0  0  0  0  0  0  0
   57.5010   31.9910   45.0120 C   0  0  0  0  0  0  0  0  0  0  0  0
   56.7447   32.1505   44.2293 H   0  0  0  0  0  0  0  0  0  0  0  0
   57.4430   25.5660   44.9550 S   0  0  0  0  0  0  0  0  0  0  0  0
   56.1730   24.4650   45.0340 C   0  0  0  0  0  0  0  0  0  0  0  0
   56.1951   23.4264   44.6724 H   0  0  0  0  0  0  0  0  0  0  0  0
  1  2  1  0
  2  3  1  0
  3  4  1  0
  4  5  2  0
  5  6  1  0
  6  7  2  0
  6  8  2  0
  6  9  1  0
  9 10  2  0
 10 11  1  0
 10 12  1  0
 12 13  1  0
 12 14  2  0
 14 15  1  0
 15 16  1  0
 15 17  1  0
 17 18  2  0
 18 19  1  0
 18 20  1  0
 20 21  1  0
 20 22  2  0
 22 23  1  0
 22 24  1  0
 24 25  1  0
 24 26  2  0
 26 27  1  0
 14 28  1  0
 28 29  1  0
 29 30  2  0
 29 31  1  0
 28 32  2  0
 32 33  1  0
  4 34  1  0
 34 35  1  0
 35 36  1  0
 35  2  2  0
 32  9  1  0
 26 17  1  0
M  CHG  3   3  -1  29   1  31  -1
M  END
>  <UniqueID>  (13) 
12

>  <SMILES>  (13) 
O=[N+]([O-])c1cc(S(=O)(=O)/N=c2/[n-]ccs2)ccc1Nc1ccc(F)cc1

>  <Energy>  (13) 
82.97009288503608

>  <Genealogy>  (13) 
O=[N+]([O-])c1cc(S(=O)(=O)N=c2[n-]ccs2)ccc1Nc1ccc(F)cc1 (protonated)
O=[N+]([O-])c1cc(S(=O)(=O)/N=c2/[n-]ccs2)ccc1Nc1ccc(F)cc1 (cis-trans isomerization)
O=[N+]([O-])c1cc(S(=O)(=O)/N=c2/[n-]ccs2)ccc1Nc1ccc(F)cc1 (3D coordinates assigned)
O=[N+]([O-])c1cc(S(=O)(=O)/N=c2/[n-]ccs2)ccc1Nc1ccc(F)cc1 (optimized conformer: 82.97009288503608 kcal/mol)

>  <smiles>  (13) 
O=[N+]([O-])c1cc(S(=O)(=O)N=c2[nH]ccs2)ccc1Nc1ccc(F)cc1

>  <score_type>  (13) 
oracle

>  <origin>  (13) 
adg

>  <m_score__min__energy>  (13) 
-10.699999999999999

>  <m_primary>  (13) 
energy

$$$$
13:0
     RDKit          3D

 47 49  0  0  0  0  0  0  0  0999 V2000
   54.2567   29.5586   44.1749 H   0  0  0  0  0  0  0  0  0  0  0  0
   55.3280   29.6370   44.4120 C   0  0  0  0  0  0  0  0  0  0  0  0
   55.9020   28.7330   45.2450 N   0  0  0  0  0  0  0  0  0  0  0  0
   57.2180   28.7970   45.5740 C   0  0  0  0  0  0  0  0  0  0  0  0
   57.7580   27.8480   46.4470 C   0  0  0  0  0  0  0  0  0  0  0  0
   57.1208   27.0455   46.8470 H   0  0  0  0  0  0  0  0  0  0  0  0
   59.1050   27.9160   46.8130 C   0  0  0  0  0  0  0  0  0  0  0  0
   59.7760   26.7320   47.9200 Cl  0  0  0  0  0  0  0  0  0  0  0  0
   59.9180   28.9300   46.3010 C   0  0  0  0  0  0  0  0  0  0  0  0
   60.9756   28.9864   46.5983 H   0  0  0  0  0  0  0  0  0  0  0  0
   59.3940   29.8730   45.4130 C   0  0  0  0  0  0  0  0  0  0  0  0
   60.0452   30.6588   45.0026 H   0  0  0  0  0  0  0  0  0  0  0  0
   58.0350   29.8230   45.0400 C   0  0  0  0  0  0  0  0  0  0  0  0
   57.4640   30.7610   44.1470 C   0  0  0  0  0  0  0  0  0  0  0  0
   58.2230   31.6860   43.6190 N   0  0  0  0  0  0  0  0  0  0  0  0
   58.5320   33.0230   44.1360 C   0  0  0  0  0  0  0  0  0  0  0  0
   58.9874   33.6234   43.3347 H   0  0  0  0  0  0  0  0  0  0  0  0
   59.2286   32.9224   44.9813 H   0  0  0  0  0  0  0  0  0  0  0  0
   57.2610   33.7220   44.6270 C   0  0  0  0  0  0  0  0  0  0  0  0
   56.4291   33.0023   44.6277 H   0  0  0  0  0  0  0  0  0  0  0  0
   57.0344   34.5624   43.9544 H   0  0  0  0  0  0  0  0  0  0  0  0
   57.4530   34.2410   45.9890 N   0  0  0  0  0  0  0  0  0  0  0  0
   56.6910   34.9310   46.1870 H   0  0  0  0  0  0  0  0  0  0  0  0
   57.3980   33.1830   47.0050 C   0  0  0  0  0  0  0  0  0  0  0  0
   56.9541   32.2768   46.5671 H   0  0  0  0  0  0  0  0  0  0  0  0
   56.7828   33.5200   47.8523 H   0  0  0  0  0  0  0  0  0  0  0  0
   58.7860   32.8780   47.4850 C   0  0  0  0  0  0  0  0  0  0  0  0
   58.9430   31.9880   48.3630 O   0  0  0  0  0  0  0  0  0  0  0  0
   59.9010   33.6560   47.0180 N   0  0  0  0  0  0  0  0  0  0  0  0
   59.7010   34.4420   46.3590 H   0  0  0  0  0  0  0  0  0  0  0  0
   61.2300   33.5690   47.5610 C   0  0  0  0  0  0  0  0  0  0  0  0
   61.4440   33.9070   48.9030 C   0  0  0  0  0  0  0  0  0  0  0  0
   60.5980   34.2348   49.5249 H   0  0  0  0  0  0  0  0  0  0  0  0
   62.7240   33.8310   49.4580 C   0  0  0  0  0  0  0  0  0  0  0  0
   62.8767   34.0980   50.5141 H   0  0  0  0  0  0  0  0  0  0  0  0
   63.8120   33.4190   48.6840 C   0  0  0  0  0  0  0  0  0  0  0  0
   65.0700   33.3280   49.3010 O   0  0  0  0  0  0  0  0  0  0  0  0
   65.4220   32.3920   50.3150 C   0  0  0  0  0  0  0  0  0  0  0  0
   64.6020   31.2800   50.2440 F   0  0  0  0  0  0  0  0  0  0  0  0
   65.3120   32.9770   51.5630 F   0  0  0  0  0  0  0  0  0  0  0  0
   66.7300   31.9960   50.1220 F   0  0  0  0  0  0  0  0  0  0  0  0
   63.6080   33.1110   47.3280 C   0  0  0  0  0  0  0  0  0  0  0  0
   64.4586   32.8006   46.7034 H   0  0  0  0  0  0  0  0  0  0  0  0
   62.3300   33.1970   46.7690 C   0  0  0  0  0  0  0  0  0  0  0  0
   62.1840   32.9721   45.7022 H   0  0  0  0  0  0  0  0  0  0  0  0
   56.0870   30.6640   43.8550 C   0  0  0  0  0  0  0  0  0  0  0  0
   55.6129   31.3989   43.1878 H   0  0  0  0  0  0  0  0  0  0  0  0
  1  2  1  0
  2  3  1  0
  3  4  1  0
  4  5  2  0
  5  6  1  0
  5  7  1  0
  7  8  1  0
  7  9  2  0
  9 10  1  0
  9 11  1  0
 11 12  1  0
 11 13  2  0
 13 14  1  0
 14 15  2  0
 15 16  1  0
 16 17  1  0
 16 18  1  0
 16 19  1  0
 19 20  1  0
 19 21  1  0
 19 22  1  0
 22 23  1  0
 22 24  1  0
 24 25  1  0
 24 26  1  0
 24 27  1  0
 27 28  2  0
 27 29  1  0
 29 30  1  0
 29 31  1  0
 31 32  2  0
 32 33  1  0
 32 34  1  0
 34 35  1  0
 34 36  2  0
 36 37  1  0
 37 38  1  0
 38 39  1  0
 38 40  1  0
 38 41  1  0
 36 42  1  0
 42 43  1  0
 42 44  2  0
 44 45  1  0
 14 46  1  0
 46 47  1  0
 46  2  2  0
 13  4  1  0
 44 31  1  0
M  CHG  1   3  -1
M  END
>  <UniqueID>  (14) 
13

>  <SMILES>  (14) 
O=C(CNCC/N=c1\cc[n-]c2cc(Cl)ccc12)Nc1ccc(OC(F)(F)F)cc1

>  <Energy>  (14) 
51.64449353908282

>  <Genealogy>  (14) 
O=C(CNCCN=c1cc[n-]c2cc(Cl)ccc12)Nc1ccc(OC(F)(F)F)cc1 (protonated)
O=C(CNCC/N=c1\cc[n-]c2cc(Cl)ccc12)Nc1ccc(OC(F)(F)F)cc1 (cis-trans isomerization)
O=C(CNCC/N=c1\cc[n-]c2cc(Cl)ccc12)Nc1ccc(OC(F)(F)F)cc1 (3D coordinates assigned)
O=C(CNCC/N=c1\cc[n-]c2cc(Cl)ccc12)Nc1ccc(OC(F)(F)F)cc1 (optimized conformer: 51.64449353908282 kcal/mol)

>  <smiles>  (14) 
O=C(CNCCN=c1cc[nH]c2cc(Cl)ccc12)Nc1ccc(OC(F)(F)F)cc1

>  <score_type>  (14) 
oracle

>  <origin>  (14) 
adg

>  <m_score__min__energy>  (14) 
-9.1500000000000004

>  <m_primary>  (14) 
energy

$$$$
14:0
     RDKit          3D

 35 36  0  0  0  0  0  0  0  0999 V2000
   60.4230   29.5760   47.2490 C   0  0  0  0  0  0  0  0  0  0  0  0
   59.9540   28.3550   46.6120 N   0  0  0  0  0  0  0  0  0  0  0  0
   60.3770   27.0380   47.0100 C   0  0  0  0  0  0  0  0  0  0  0  0
   59.0380   28.4810   45.5510 C   0  0  0  0  0  0  0  0  0  0  0  0
   58.9150   27.4430   44.6830 N   0  0  0  0  0  0  0  0  0  0  0  0
   58.0390   27.5250   43.6440 C   0  0  0  0  0  0  0  0  0  0  0  0
   57.9390   26.5260   42.8320 N   0  0  0  0  0  0  0  0  0  0  0  0
   57.2880   28.6200   43.4580 N   0  0  0  0  0  0  0  0  0  0  0  0
   57.4160   29.6360   44.3180 C   0  0  0  0  0  0  0  0  0  0  0  0
   56.5710   30.8470   44.0960 C   0  0  0  0  0  0  0  0  0  0  0  0
   57.4600   31.9570   43.8500 N   0  0  0  0  0  0  0  0  0  0  0  0
   57.8330   32.1730   42.5080 C   0  0  0  0  0  0  0  0  0  0  0  0
   58.1350   32.3470   41.4040 N   0  0  0  0  0  0  0  0  0  0  0  0
   57.9680   32.8220   44.8480 C   0  0  0  0  0  0  0  0  0  0  0  0
   57.6580   32.7290   46.1850 C   0  0  0  0  0  0  0  0  0  0  0  0
   58.1740   33.5940   47.1420 C   0  0  0  0  0  0  0  0  0  0  0  0
   59.0370   34.5990   46.7570 C   0  0  0  0  0  0  0  0  0  0  0  0
   59.3680   34.7170   45.4220 C   0  0  0  0  0  0  0  0  0  0  0  0
   58.8410   33.8460   44.4930 C   0  0  0  0  0  0  0  0  0  0  0  0
   58.2830   29.5930   45.3720 N   0  0  0  0  0  0  0  0  0  0  0  0
   60.3784   29.4598   48.3419 H   0  0  0  0  0  0  0  0  0  0  0  0
   61.4610   29.7736   46.9433 H   0  0  0  0  0  0  0  0  0  0  0  0
   59.7842   30.4177   46.9433 H   0  0  0  0  0  0  0  0  0  0  0  0
   60.3971   26.9755   48.1080 H   0  0  0  0  0  0  0  0  0  0  0  0
   59.6735   26.2913   46.6131 H   0  0  0  0  0  0  0  0  0  0  0  0
   61.3837   26.8406   46.6131 H   0  0  0  0  0  0  0  0  0  0  0  0
   57.0170   26.1150   42.6110 H   0  0  0  0  0  0  0  0  0  0  0  0
   55.9139   30.6924   43.2275 H   0  0  0  0  0  0  0  0  0  0  0  0
   55.9385   31.0444   44.9740 H   0  0  0  0  0  0  0  0  0  0  0  0
   56.9709   31.9343   46.5110 H   0  0  0  0  0  0  0  0  0  0  0  0
   57.8961   33.4782   48.2000 H   0  0  0  0  0  0  0  0  0  0  0  0
   59.4540   35.2941   47.5006 H   0  0  0  0  0  0  0  0  0  0  0  0
   60.0566   35.5111   45.0977 H   0  0  0  0  0  0  0  0  0  0  0  0
   59.1198   33.9642   43.4355 H   0  0  0  0  0  0  0  0  0  0  0  0
   58.3650   30.3910   46.0240 H   0  0  0  0  0  0  0  0  0  0  0  0
  1  2  1  0
  2  3  1  0
  2  4  1  0
  4  5  2  0
  5  6  1  0
  6  7  2  3
  6  8  1  0
  8  9  2  0
  9 10  1  0
 10 11  1  0
 11 12  1  0
 12 13  3  0
 11 14  1  0
 14 15  2  0
 15 16  1  0
 16 17  2  0
 17 18  1  0
 18 19  2  0
  9 20  1  0
 20  4  1  0
 19 14  1  0
  1 21  1  0
  1 22  1  0
  1 23  1  0
  3 24  1  0
  3 25  1  0
  3 26  1  0
  7 27  1  0
 10 28  1  0
 10 29  1  0
 15 30  1  0
 16 31  1  0
 17 32  1  0
 18 33  1  0
 19 34  1  0
 20 35  1  0
M  END
>  <smiles>  (15) 
CN(C)c1nc(=N)nc(CN(C#N)c2ccccc2)[nH]1

>  <score_type>  (15) 
oracle

>  <origin>  (15) 
adg

>  <m_score__min__energy>  (15) 
-6.04

>  <m_primary>  (15) 
energy

$$$$
15:0
     RDKit          3D

 47 50  0  0  0  0  0  0  0  0999 V2000
   61.0180   26.4770   47.3059 H   0  0  0  0  0  0  0  0  0  0  0  0
   60.2950   26.9640   46.6350 C   0  0  0  0  0  0  0  0  0  0  0  0
   58.9270   26.7070   46.7750 C   0  0  0  0  0  0  0  0  0  0  0  0
   58.5746   26.0181   47.5568 H   0  0  0  0  0  0  0  0  0  0  0  0
   58.0070   27.3250   45.9220 C   0  0  0  0  0  0  0  0  0  0  0  0
   56.9314   27.1243   46.0352 H   0  0  0  0  0  0  0  0  0  0  0  0
   58.4550   28.2000   44.9230 C   0  0  0  0  0  0  0  0  0  0  0  0
   57.2780   28.9830   43.8210 S   0  0  0  0  0  0  0  0  0  0  0  0
   57.5830   30.6110   44.5060 C   0  0  0  0  0  0  0  0  0  0  0  0
   57.9440   30.7570   45.8440 C   0  0  0  0  0  0  0  0  0  0  0  0
   58.0567   29.8676   46.4814 H   0  0  0  0  0  0  0  0  0  0  0  0
   58.1630   32.0270   46.3780 C   0  0  0  0  0  0  0  0  0  0  0  0
   58.5260   32.1130   47.6810 F   0  0  0  0  0  0  0  0  0  0  0  0
   58.0160   33.1650   45.5470 C   0  0  0  0  0  0  0  0  0  0  0  0
   58.1820   34.3900   45.9720 N   0  0  0  0  0  0  0  0  0  0  0  0
   59.4120   35.1810   46.0550 C   0  0  0  0  0  0  0  0  0  0  0  0
   59.8173   35.3208   45.0420 H   0  0  0  0  0  0  0  0  0  0  0  0
   59.1711   36.1509   46.5147 H   0  0  0  0  0  0  0  0  0  0  0  0
   60.4490   34.4930   46.9090 C   0  0  0  0  0  0  0  0  0  0  0  0
   61.5540   33.8660   46.3140 C   0  0  0  0  0  0  0  0  0  0  0  0
   61.6564   33.8634   45.2188 H   0  0  0  0  0  0  0  0  0  0  0  0
   62.5250   33.2450   47.1030 C   0  0  0  0  0  0  0  0  0  0  0  0
   63.3791   32.7446   46.6233 H   0  0  0  0  0  0  0  0  0  0  0  0
   62.4200   33.2540   48.5050 C   0  0  0  0  0  0  0  0  0  0  0  0
   63.4490   32.5880   49.3450 C   0  0  0  0  0  0  0  0  0  0  0  0
   64.7760   33.0560   49.3570 C   0  0  0  0  0  0  0  0  0  0  0  0
   65.0555   33.9216   48.7385 H   0  0  0  0  0  0  0  0  0  0  0  0
   65.7420   32.4280   50.1500 C   0  0  0  0  0  0  0  0  0  0  0  0
   66.7767   32.8013   50.1537 H   0  0  0  0  0  0  0  0  0  0  0  0
   65.3950   31.3280   50.9370 C   0  0  0  0  0  0  0  0  0  0  0  0
   66.1563   30.8348   51.5593 H   0  0  0  0  0  0  0  0  0  0  0  0
   64.0810   30.8540   50.9340 C   0  0  0  0  0  0  0  0  0  0  0  0
   63.8080   29.9885   51.5556 H   0  0  0  0  0  0  0  0  0  0  0  0
   63.1120   31.4780   50.1420 C   0  0  0  0  0  0  0  0  0  0  0  0
   62.0794   31.0987   50.1419 H   0  0  0  0  0  0  0  0  0  0  0  0
   61.3240   33.9060   49.1000 C   0  0  0  0  0  0  0  0  0  0  0  0
   61.2308   33.9273   50.1958 H   0  0  0  0  0  0  0  0  0  0  0  0
   60.3540   34.5260   48.3100 C   0  0  0  0  0  0  0  0  0  0  0  0
   59.5095   35.0439   48.7881 H   0  0  0  0  0  0  0  0  0  0  0  0
   57.6800   32.9820   44.2360 N   0  0  0  0  0  0  0  0  0  0  0  0
   57.5740   33.8120   43.6090 H   0  0  0  0  0  0  0  0  0  0  0  0
   57.4630   31.7480   43.7070 C   0  0  0  0  0  0  0  0  0  0  0  0
   57.1920   31.6463   42.6458 H   0  0  0  0  0  0  0  0  0  0  0  0
   59.8250   28.4600   44.7870 C   0  0  0  0  0  0  0  0  0  0  0  0
   60.1786   29.1514   44.0080 H   0  0  0  0  0  0  0  0  0  0  0  0
   60.7430   27.8410   45.6410 C   0  0  0  0  0  0  0  0  0  0  0  0
   61.8186   28.0437   45.5313 H   0  0  0  0  0  0  0  0  0  0  0  0
  1  2  1  0
  2  3  2  0
  3  4  1  0
  3  5  1  0
  5  6  1  0
  5  7  2  0
  7  8  1  0
  8  9  1  0
  9 10  1  0
 10 11  1  0
 10 12  2  0
 12 13  1  0
 12 14  1  0
 14 15  2  0
 15 16  1  0
 16 17  1  0
 16 18  1  0
 16 19  1  0
 19 20  2  0
 20 21  1  0
 20 22  1  0
 22 23  1  0
 22 24  2  0
 24 25  1  0
 25 26  2  0
 26 27  1  0
 26 28  1  0
 28 29  1  0
 28 30  2  0
 30 31  1  0
 30 32  1  0
 32 33  1  0
 32 34  2  0
 34 35  1  0
 24 36  1  0
 36 37  1  0
 36 38  2  0
 38 39  1  0
 14 40  1  0
 40 41  1  0
 40 42  1  0
 42 43  1  0
  7 44  1  0
 44 45  1  0
 44 46  2  0
 46 47  1  0
 46  2  1  0
 42  9  2  0
 38 19  1  0
 34 25  1  0
M  END
>  <UniqueID>  (16) 
14

>  <SMILES>  (16) 
Fc1cc(Sc2ccccc2)c[nH]/c1=N/Cc1ccc(-c2ccccc2)cc1

>  <Energy>  (16) 
57.36299538883477

>  <Genealogy>  (16) 
Fc1cc(Sc2ccccc2)c[nH]/c1=N/Cc1ccc(-c2ccccc2)cc1 (cis-trans isomerization)
Fc1cc(Sc2ccccc2)c[nH]/c1=N/Cc1ccc(-c2ccccc2)cc1 (3D coordinates assigned)
Fc1cc(Sc2ccccc2)c[nH]/c1=N/Cc1ccc(-c2ccccc2)cc1 (optimized conformer: 57.36299538883477 kcal/mol)

>  <smiles>  (16) 
Fc1cc(Sc2ccccc2)c[nH]c1=NCc1ccc(-c2ccccc2)cc1

>  <score_type>  (16) 
oracle

>  <origin>  (16) 
adg

>  <m_score__min__energy>  (16) 
-8.6400000000000006

>  <m_primary>  (16) 
energy

$$$$
16:0
     RDKit          3D

 36 38  0  0  0  0  0  0  0  0999 V2000
   58.9207   35.4231   47.0519 H   0  0  0  0  0  0  0  0  0  0  0  0
   58.6850   34.5760   46.3910 C   0  0  0  0  0  0  0  0  0  0  0  0
   58.4380   32.9860   46.8760 S   0  0  0  0  0  0  0  0  0  0  0  0
   58.1410   32.3620   45.3410 C   0  0  0  0  0  0  0  0  0  0  0  0
   57.8540   30.9470   45.0470 C   0  0  0  0  0  0  0  0  0  0  0  0
   56.6560   30.5840   44.8920 O   0  0  0  0  0  0  0  0  0  0  0  0
   58.9200   29.9950   44.8940 N   0  0  0  0  0  0  0  0  0  0  0  0
   59.8650   30.3510   44.6240 H   0  0  0  0  0  0  0  0  0  0  0  0
   58.7350   28.5700   44.9500 C   0  0  0  0  0  0  0  0  0  0  0  0
   59.1950   27.8590   46.0690 C   0  0  0  0  0  0  0  0  0  0  0  0
   59.7057   28.3936   46.8835 H   0  0  0  0  0  0  0  0  0  0  0  0
   59.0090   26.4770   46.1560 C   0  0  0  0  0  0  0  0  0  0  0  0
   59.3881   25.9272   47.0301 H   0  0  0  0  0  0  0  0  0  0  0  0
   58.3420   25.7890   45.1350 C   0  0  0  0  0  0  0  0  0  0  0  0
   58.1170   24.0470   45.2450 S   0  0  0  0  0  0  0  0  0  0  0  0
   59.3030   23.4420   45.9440 O   0  0  0  0  0  0  0  0  0  0  0  0
   57.9880   23.4670   43.8630 O   0  0  0  0  0  0  0  0  0  0  0  0
   56.6680   23.7120   46.1390 N   0  0  0  0  0  0  0  0  0  0  0  0
   55.5090   24.2380   45.8790 C   0  0  0  0  0  0  0  0  0  0  0  0
   55.2600   25.5530   46.0120 N   0  0  0  0  0  0  0  0  0  0  0  0
   54.0150   25.7270   45.6740 O   0  0  0  0  0  0  0  0  0  0  0  0
   53.4530   24.5910   45.3290 C   0  0  0  0  0  0  0  0  0  0  0  0
   52.0310   24.4420   44.9090 C   0  0  0  0  0  0  0  0  0  0  0  0
   51.3904   24.3749   45.8007 H   0  0  0  0  0  0  0  0  0  0  0  0
   51.7329   25.3138   44.3081 H   0  0  0  0  0  0  0  0  0  0  0  0
   51.9201   23.5273   44.3081 H   0  0  0  0  0  0  0  0  0  0  0  0
   54.3780   23.5740   45.4440 C   0  0  0  0  0  0  0  0  0  0  0  0
   54.2476   22.5010   45.2401 H   0  0  0  0  0  0  0  0  0  0  0  0
   57.8670   26.4950   44.0220 C   0  0  0  0  0  0  0  0  0  0  0  0
   57.3450   25.9595   43.2153 H   0  0  0  0  0  0  0  0  0  0  0  0
   58.0540   27.8770   43.9330 C   0  0  0  0  0  0  0  0  0  0  0  0
   57.6663   28.4262   43.0623 H   0  0  0  0  0  0  0  0  0  0  0  0
   58.2380   33.4010   44.4210 C   0  0  0  0  0  0  0  0  0  0  0  0
   58.0922   33.2670   43.3390 H   0  0  0  0  0  0  0  0  0  0  0  0
   58.5400   34.6350   45.0110 C   0  0  0  0  0  0  0  0  0  0  0  0
   58.6520   35.5651   44.4345 H   0  0  0  0  0  0  0  0  0  0  0  0
  1  2  1  0
  2  3  1  0
  3  4  1  0
  4  5  1  0
  5  6  2  0
  5  7  1  0
  7  8  1  0
  7  9  1  0
  9 10  2  0
 10 11  1  0
 10 12  1  0
 12 13  1  0
 12 14  2  0
 14 15  1  0
 15 16  2  0
 15 17  2  0
 15 18  1  0
 18 19  2  0
 19 20  1  0
 20 21  1  0
 21 22  1  0
 22 23  1  0
 23 24  1  0
 23 25  1  0
 23 26  1  0
 22 27  2  0
 27 28  1  0
 14 29  1  0
 29 30  1  0
 29 31  2  0
 31 32  1  0
  4 33  2  0
 33 34  1  0
 33 35  1  0
 35 36  1  0
 35  2  2  0
 31  9  1  0
 27 19  1  0
M  CHG  1  20  -1
M  END
>  <UniqueID>  (17) 
15

>  <SMILES>  (17) 
Cc1c/c(=N\S(=O)(=O)c2ccc(NC(=O)c3cccs3)cc2)[n-]o1

>  <Energy>  (17) 
101.64478955171873

>  <Genealogy>  (17) 
Cc1cc(=NS(=O)(=O)c2ccc(NC(=O)c3cccs3)cc2)[n-]o1 (protonated)
Cc1c/c(=N\S(=O)(=O)c2ccc(NC(=O)c3cccs3)cc2)[n-]o1 (cis-trans isomerization)
Cc1c/c(=N\S(=O)(=O)c2ccc(NC(=O)c3cccs3)cc2)[n-]o1 (3D coordinates assigned)
Cc1c/c(=N\S(=O)(=O)c2ccc(NC(=O)c3cccs3)cc2)[n-]o1 (optimized conformer: 101.64478955171873 kcal/mol)

>  <smiles>  (17) 
Cc1cc(=NS(=O)(=O)c2ccc(NC(=O)c3cccs3)cc2)[nH]o1

>  <score_type>  (17) 
oracle

>  <origin>  (17) 
adg

>  <m_score__min__energy>  (17) 
-10.369999999999999

>  <m_primary>  (17) 
energy

$$$$
17:0
     RDKit          3D

 62 65  0  0  0  0  0  0  0  0999 V2000
   59.4530   31.4640   47.1620 C   0  0  0  0  0  0  0  0  0  0  0  0
   59.3610   32.7930   46.4470 C   0  0  0  0  0  0  0  0  0  0  0  0
   58.2770   33.0710   45.5680 C   0  0  0  0  0  0  0  0  0  0  0  0
   57.2090   32.0500   45.2440 C   0  0  0  0  0  0  0  0  0  0  0  0
   57.5010   31.3760   43.9040 C   0  0  0  0  0  0  0  0  0  0  0  0
   56.2860   30.7530   43.3910 N   0  0  0  0  0  0  0  0  0  0  0  0
   55.5770   29.6950   44.0480 C   0  0  0  0  0  0  0  0  0  0  0  0
   54.4580   29.3390   43.5980 O   0  0  0  0  0  0  0  0  0  0  0  0
   56.0680   29.0890   45.2500 N   0  0  0  0  0  0  0  0  0  0  0  0
   57.4090   28.6270   45.4560 C   0  0  0  0  0  0  0  0  0  0  0  0
   58.1830   28.2610   44.3470 C   0  0  0  0  0  0  0  0  0  0  0  0
   59.4980   27.8170   44.5210 C   0  0  0  0  0  0  0  0  0  0  0  0
   60.0520   27.7530   45.8020 C   0  0  0  0  0  0  0  0  0  0  0  0
   59.2960   28.1410   46.9130 C   0  0  0  0  0  0  0  0  0  0  0  0
   59.9970   28.0710   48.5190 Cl  0  0  0  0  0  0  0  0  0  0  0  0
   57.9800   28.5870   46.7410 C   0  0  0  0  0  0  0  0  0  0  0  0
   58.2180   34.3160   44.9180 C   0  0  0  0  0  0  0  0  0  0  0  0
   59.1900   35.2880   45.1490 C   0  0  0  0  0  0  0  0  0  0  0  0
   60.2380   35.0310   46.0270 C   0  0  0  0  0  0  0  0  0  0  0  0
   60.3310   33.7970   46.6820 C   0  0  0  0  0  0  0  0  0  0  0  0
   61.4240   33.5790   47.5830 N   0  0  0  0  0  0  0  0  0  0  0  0
   62.6050   32.8440   47.1230 C   0  0  0  0  0  0  0  0  0  0  0  0
   63.7930   33.1210   48.0550 C   0  0  0  0  0  0  0  0  0  0  0  0
   63.4790   32.8540   49.4800 N   0  0  0  0  0  0  0  0  0  0  0  0
   64.1390   31.6540   50.0430 C   0  0  0  0  0  0  0  0  0  0  0  0
   65.5540   31.9050   50.5290 C   0  0  0  0  0  0  0  0  0  0  0  0
   66.2120   30.9520   51.3260 C   0  0  0  0  0  0  0  0  0  0  0  0
   67.5180   31.1790   51.7690 C   0  0  0  0  0  0  0  0  0  0  0  0
   68.1740   32.3670   51.4360 C   0  0  0  0  0  0  0  0  0  0  0  0
   67.5190   33.3330   50.6690 C   0  0  0  0  0  0  0  0  0  0  0  0
   66.2140   33.1100   50.2240 C   0  0  0  0  0  0  0  0  0  0  0  0
   62.0550   32.9870   49.8690 C   0  0  0  0  0  0  0  0  0  0  0  0
   61.3090   33.9880   48.9840 C   0  0  0  0  0  0  0  0  0  0  0  0
   59.4414   31.6310   48.2492 H   0  0  0  0  0  0  0  0  0  0  0  0
   58.5962   30.8350   46.8785 H   0  0  0  0  0  0  0  0  0  0  0  0
   60.3882   30.9591   46.8785 H   0  0  0  0  0  0  0  0  0  0  0  0
   57.1861   31.2866   46.0357 H   0  0  0  0  0  0  0  0  0  0  0  0
   56.2367   32.5605   45.1808 H   0  0  0  0  0  0  0  0  0  0  0  0
   57.8567   32.1294   43.1858 H   0  0  0  0  0  0  0  0  0  0  0  0
   58.2734   30.6056   44.0448 H   0  0  0  0  0  0  0  0  0  0  0  0
   57.7550   28.3230   43.3356 H   0  0  0  0  0  0  0  0  0  0  0  0
   60.0967   27.5178   43.6481 H   0  0  0  0  0  0  0  0  0  0  0  0
   61.0840   27.3970   45.9370 H   0  0  0  0  0  0  0  0  0  0  0  0
   57.3909   28.9070   47.6131 H   0  0  0  0  0  0  0  0  0  0  0  0
   57.3951   34.5257   44.2188 H   0  0  0  0  0  0  0  0  0  0  0  0
   59.1283   36.2593   44.6365 H   0  0  0  0  0  0  0  0  0  0  0  0
   60.9998   35.8035   46.2081 H   0  0  0  0  0  0  0  0  0  0  0  0
   62.3858   31.7661   47.1230 H   0  0  0  0  0  0  0  0  0  0  0  0
   62.8608   33.1732   46.1051 H   0  0  0  0  0  0  0  0  0  0  0  0
   64.6335   32.4785   47.7538 H   0  0  0  0  0  0  0  0  0  0  0  0
   64.0432   34.1884   47.9650 H   0  0  0  0  0  0  0  0  0  0  0  0
   63.5392   31.2945   50.8922 H   0  0  0  0  0  0  0  0  0  0  0  0
   64.2053   30.9143   49.2315 H   0  0  0  0  0  0  0  0  0  0  0  0
   65.6954   30.0212   51.6029 H   0  0  0  0  0  0  0  0  0  0  0  0
   68.0301   30.4215   52.3806 H   0  0  0  0  0  0  0  0  0  0  0  0
   69.2050   32.5411   51.7775 H   0  0  0  0  0  0  0  0  0  0  0  0
   68.0323   34.2721   50.4147 H   0  0  0  0  0  0  0  0  0  0  0  0
   65.6991   33.8807   49.6317 H   0  0  0  0  0  0  0  0  0  0  0  0
   61.5695   32.0040   49.7801 H   0  0  0  0  0  0  0  0  0  0  0  0
   62.0192   33.3569   50.9043 H   0  0  0  0  0  0  0  0  0  0  0  0
   60.2479   34.0135   49.2729 H   0  0  0  0  0  0  0  0  0  0  0  0
   61.7472   34.9888   49.1116 H   0  0  0  0  0  0  0  0  0  0  0  0
  1  2  1  0
  2  3  2  0
  3  4  1  0
  4  5  1  0
  5  6  1  0
  6  7  1  0
  7  8  2  0
  7  9  1  0
  9 10  1  0
 10 11  2  0
 11 12  1  0
 12 13  2  0
 13 14  1  0
 14 15  1  0
 14 16  2  0
  3 17  1  0
 17 18  2  0
 18 19  1  0
 19 20  2  0
 20 21  1  0
 21 22  1  0
 22 23  1  0
 23 24  1  0
 24 25  1  0
 25 26  1  0
 26 27  2  0
 27 28  1  0
 28 29  2  0
 29 30  1  0
 30 31  2  0
 24 32  1  0
 32 33  1  0
 20  2  1  0
 33 21  1  0
 16 10  1  0
 31 26  1  0
  1 34  1  0
  1 35  1  0
  1 36  1  0
  4 37  1  0
  4 38  1  0
  5 39  1  0
  5 40  1  0
 11 41  1  0
 12 42  1  0
 13 43  1  0
 16 44  1  0
 17 45  1  0
 18 46  1  0
 19 47  1  0
 22 48  1  0
 22 49  1  0
 23 50  1  0
 23 51  1  0
 25 52  1  0
 25 53  1  0
 27 54  1  0
 28 55  1  0
 29 56  1  0
 30 57  1  0
 31 58  1  0
 32 59  1  0
 32 60  1  0
 33 61  1  0
 33 62  1  0
M  CHG  2   6  -1   9  -1
M  END
>  <UniqueID>  (18) 
16

>  <SMILES>  (18) 
Cc1c(CC[N-]C(=O)[N-]c2cccc(Cl)c2)cccc1N1CCN(Cc2ccccc2)CC1

>  <Energy>  (18) 
84.1759841791876

>  <Genealogy>  (18) 
Cc1c(CC[N-]C(=O)[N-]c2cccc(Cl)c2)cccc1N1CCN(Cc2ccccc2)CC1 (protonated)
Cc1c(CC[N-]C(=O)[N-]c2cccc(Cl)c2)cccc1N1CCN(Cc2ccccc2)CC1 (3D coordinates assigned)
Cc1c(CC[N-]C(=O)[N-]c2cccc(Cl)c2)cccc1N1CCN(Cc2ccccc2)CC1 (nonaromatic ring conformer: 84.1759841791876 kcal/mol)

>  <smiles>  (18) 
Cc1c(CCNC(=O)Nc2cccc(Cl)c2)cccc1N1CCN(Cc2ccccc2)CC1

>  <score_type>  (18) 
oracle

>  <origin>  (18) 
adg

>  <m_score__min__energy>  (18) 
-13.91

>  <m_primary>  (18) 
energy

$$$$
18:0
     RDKit          3D

 28 29  0  0  0  0  0  0  0  0999 V2000
   58.1790   26.7060   45.4970 O   0  0  0  0  0  0  0  0  0  0  0  0
   56.9200   26.6570   45.4580 C   0  0  0  0  0  0  0  0  0  0  0  0
   56.1520   27.8730   45.4730 N   0  0  0  0  0  0  0  0  0  0  0  0
   56.7070   29.1740   45.2130 C   0  0  0  0  0  0  0  0  0  0  0  0
   57.7180   29.6720   46.0510 C   0  0  0  0  0  0  0  0  0  0  0  0
   58.2580   30.9430   45.8330 C   0  0  0  0  0  0  0  0  0  0  0  0
   57.7820   31.7360   44.7840 C   0  0  0  0  0  0  0  0  0  0  0  0
   58.5190   33.4730   44.4890 Br  0  0  0  0  0  0  0  0  0  0  0  0
   56.7600   31.2590   43.9580 C   0  0  0  0  0  0  0  0  0  0  0  0
   56.2190   29.9880   44.1740 C   0  0  0  0  0  0  0  0  0  0  0  0
   56.2360   25.3440   45.4730 C   0  0  0  0  0  0  0  0  0  0  0  0
   55.0960   25.2560   46.0070 O   0  0  0  0  0  0  0  0  0  0  0  0
   56.8540   24.1240   44.9000 C   0  0  0  0  0  0  0  0  0  0  0  0
   58.0710   23.6470   45.4190 C   0  0  0  0  0  0  0  0  0  0  0  0
   58.6580   22.4890   44.8990 C   0  0  0  0  0  0  0  0  0  0  0  0
   58.0310   21.7900   43.8650 C   0  0  0  0  0  0  0  0  0  0  0  0
   56.8130   22.2430   43.3530 C   0  0  0  0  0  0  0  0  0  0  0  0
   56.2230   23.4020   43.8690 C   0  0  0  0  0  0  0  0  0  0  0  0
   55.1490   27.8230   45.7610 H   0  0  0  0  0  0  0  0  0  0  0  0
   58.0877   29.0575   46.8851 H   0  0  0  0  0  0  0  0  0  0  0  0
   59.0581   31.3197   46.4872 H   0  0  0  0  0  0  0  0  0  0  0  0
   56.3808   31.8848   43.1366 H   0  0  0  0  0  0  0  0  0  0  0  0
   55.4072   29.6222   43.5281 H   0  0  0  0  0  0  0  0  0  0  0  0
   58.5645   24.1884   46.2395 H   0  0  0  0  0  0  0  0  0  0  0  0
   59.6146   22.1283   45.3048 H   0  0  0  0  0  0  0  0  0  0  0  0
   58.4967   20.8823   43.4537 H   0  0  0  0  0  0  0  0  0  0  0  0
   56.3170   21.6879   42.5431 H   0  0  0  0  0  0  0  0  0  0  0  0
   55.2605   23.7512   43.4668 H   0  0  0  0  0  0  0  0  0  0  0  0
  1  2  2  0
  2  3  1  0
  3  4  1  0
  4  5  2  0
  5  6  1  0
  6  7  2  0
  7  8  1  0
  7  9  1  0
  9 10  2  0
  2 11  1  0
 11 12  2  0
 11 13  1  0
 13 14  2  0
 14 15  1  0
 15 16  2  0
 16 17  1  0
 17 18  2  0
 10  4  1  0
 18 13  1  0
  3 19  1  0
  5 20  1  0
  6 21  1  0
  9 22  1  0
 10 23  1  0
 14 24  1  0
 15 25  1  0
 16 26  1  0
 17 27  1  0
 18 28  1  0
M  END
>  <UniqueID>  (19) 
17

>  <SMILES>  (19) 
O=C(Nc1ccc(Br)cc1)C(=O)c1ccccc1

>  <Energy>  (19) 
36.04901161371076

>  <Genealogy>  (19) 
O=C(Nc1ccc(Br)cc1)C(=O)c1ccccc1 (3D coordinates assigned)
O=C(Nc1ccc(Br)cc1)C(=O)c1ccccc1 (optimized conformer: 36.04901161371076 kcal/mol)

>  <smiles>  (19) 
O=C(Nc1ccc(Br)cc1)C(=O)c1ccccc1

>  <score_type>  (19) 
oracle

>  <origin>  (19) 
adg

>  <m_score__min__energy>  (19) 
-7.5199999999999996

>  <m_primary>  (19) 
energy

$$$$
19:0
     RDKit          3D

 31 32  0  0  0  0  0  0  0  0999 V2000
   58.8210   34.4410   46.8790 N   0  0  0  0  0  0  0  0  0  0  0  0
   58.3920   33.9980   45.2650 S   0  0  0  0  0  0  0  0  0  0  0  0
   57.2260   34.8320   44.8120 O   0  0  0  0  0  0  0  0  0  0  0  0
   59.5550   34.2560   44.3470 O   0  0  0  0  0  0  0  0  0  0  0  0
   57.9610   32.2920   45.2170 C   0  0  0  0  0  0  0  0  0  0  0  0
   57.1840   31.7880   44.1670 C   0  0  0  0  0  0  0  0  0  0  0  0
   56.8310   30.4370   44.1390 C   0  0  0  0  0  0  0  0  0  0  0  0
   57.2430   29.5690   45.1630 C   0  0  0  0  0  0  0  0  0  0  0  0
   56.8560   28.1810   45.1050 N   0  0  0  0  0  0  0  0  0  0  0  0
   57.6430   27.0790   45.6620 C   0  0  0  0  0  0  0  0  0  0  0  0
   56.9470   25.7560   45.4430 C   0  0  0  0  0  0  0  0  0  0  0  0
   57.7050   24.6250   45.0880 C   0  0  0  0  0  0  0  0  0  0  0  0
   57.0830   23.3890   44.8900 C   0  0  0  0  0  0  0  0  0  0  0  0
   58.0380   21.9900   44.4340 Cl  0  0  0  0  0  0  0  0  0  0  0  0
   55.7010   23.2660   45.0560 C   0  0  0  0  0  0  0  0  0  0  0  0
   54.9410   24.3780   45.4270 C   0  0  0  0  0  0  0  0  0  0  0  0
   55.5560   25.6180   45.6270 C   0  0  0  0  0  0  0  0  0  0  0  0
   54.7750   26.7040   46.0100 O   0  0  0  0  0  0  0  0  0  0  0  0
   58.0230   30.0810   46.2170 C   0  0  0  0  0  0  0  0  0  0  0  0
   58.3740   31.4340   46.2440 C   0  0  0  0  0  0  0  0  0  0  0  0
   58.3910   33.7300   47.5150 H   0  0  0  0  0  0  0  0  0  0  0  0
   56.8504   32.4584   43.3613 H   0  0  0  0  0  0  0  0  0  0  0  0
   56.2246   30.0493   43.3071 H   0  0  0  0  0  0  0  0  0  0  0  0
   55.9360   27.9380   44.6720 H   0  0  0  0  0  0  0  0  0  0  0  0
   58.6267   27.0543   45.1704 H   0  0  0  0  0  0  0  0  0  0  0  0
   57.7586   27.2409   46.7439 H   0  0  0  0  0  0  0  0  0  0  0  0
   58.7945   24.7141   44.9655 H   0  0  0  0  0  0  0  0  0  0  0  0
   55.2117   22.2941   44.8946 H   0  0  0  0  0  0  0  0  0  0  0  0
   53.8540   24.2778   45.5624 H   0  0  0  0  0  0  0  0  0  0  0  0
   58.3582   29.4128   47.0239 H   0  0  0  0  0  0  0  0  0  0  0  0
   58.9774   31.8265   47.0758 H   0  0  0  0  0  0  0  0  0  0  0  0
  1  2  1  0
  2  3  2  0
  2  4  2  0
  2  5  1  0
  5  6  2  0
  6  7  1  0
  7  8  2  0
  8  9  1  0
  9 10  1  0
 10 11  1  0
 11 12  2  0
 12 13  1  0
 13 14  1  0
 13 15  2  0
 15 16  1  0
 16 17  2  0
 17 18  1  0
  8 19  1  0
 19 20  2  0
 20  5  1  0
 17 11  1  0
  1 21  1  0
  6 22  1  0
  7 23  1  0
  9 24  1  0
 10 25  1  0
 10 26  1  0
 12 27  1  0
 15 28  1  0
 16 29  1  0
 19 30  1  0
 20 31  1  0
M  CHG  2   1  -1  18  -1
M  END
>  <UniqueID>  (20) 
18

>  <SMILES>  (20) 
[NH-]S(=O)(=O)c1ccc(NCc2cc(Cl)ccc2[O-])cc1

>  <Energy>  (20) 
31.445652688398255

>  <Genealogy>  (20) 
[NH-]S(=O)(=O)c1ccc(NCc2cc(Cl)ccc2[O-])cc1 (protonated)
[NH-]S(=O)(=O)c1ccc(NCc2cc(Cl)ccc2[O-])cc1 (3D coordinates assigned)
[NH-]S(=O)(=O)c1ccc(NCc2cc(Cl)ccc2[O-])cc1 (optimized conformer: 31.445652688398255 kcal/mol)

>  <smiles>  (20) 
NS(=O)(=O)c1ccc(NCc2cc(Cl)ccc2O)cc1

>  <score_type>  (20) 
oracle

>  <origin>  (20) 
adg

>  <m_score__min__energy>  (20) 
-11.74

>  <m_primary>  (20) 
energy

$$$$
20:0
     RDKit          3D

 52 56  0  0  0  0  0  0  0  0999 V2000
   55.3319   30.2144   43.2002 H   0  0  0  0  0  0  0  0  0  0  0  0
   55.9890   29.9150   44.0300 C   0  0  0  0  0  0  0  0  0  0  0  0
   55.8640   28.6820   44.5850 N   0  0  0  0  0  0  0  0  0  0  0  0
   56.6590   28.2910   45.6180 C   0  0  0  0  0  0  0  0  0  0  0  0
   56.5660   27.0990   46.1320 N   0  0  0  0  0  0  0  0  0  0  0  0
   56.4380   25.8580   45.4180 C   0  0  0  0  0  0  0  0  0  0  0  0
   55.2990   25.0740   45.6340 C   0  0  0  0  0  0  0  0  0  0  0  0
   54.5399   25.4037   46.3586 H   0  0  0  0  0  0  0  0  0  0  0  0
   55.1170   23.8750   44.9370 C   0  0  0  0  0  0  0  0  0  0  0  0
   54.2258   23.2592   45.1281 H   0  0  0  0  0  0  0  0  0  0  0  0
   56.0720   23.4540   43.9910 C   0  0  0  0  0  0  0  0  0  0  0  0
   55.9380   22.2600   43.2660 O   0  0  0  0  0  0  0  0  0  0  0  0
   57.0010   21.3450   43.0210 C   0  0  0  0  0  0  0  0  0  0  0  0
   57.4100   20.9929   43.9795 H   0  0  0  0  0  0  0  0  0  0  0  0
   56.6212   20.4869   42.4471 H   0  0  0  0  0  0  0  0  0  0  0  0
   57.7931   21.8483   42.4471 H   0  0  0  0  0  0  0  0  0  0  0  0
   57.1940   24.2550   43.7520 C   0  0  0  0  0  0  0  0  0  0  0  0
   57.9405   23.9394   43.0082 H   0  0  0  0  0  0  0  0  0  0  0  0
   57.3750   25.4530   44.4500 C   0  0  0  0  0  0  0  0  0  0  0  0
   58.2535   26.0812   44.2414 H   0  0  0  0  0  0  0  0  0  0  0  0
   57.6050   29.1420   46.0930 N   0  0  0  0  0  0  0  0  0  0  0  0
   57.7650   30.3900   45.5740 C   0  0  0  0  0  0  0  0  0  0  0  0
   58.8280   31.2660   46.1030 C   0  0  0  0  0  0  0  0  0  0  0  0
   59.8100   30.9210   47.0340 C   0  0  0  0  0  0  0  0  0  0  0  0
   60.0790   29.5840   47.6100 C   0  0  0  0  0  0  0  0  0  0  0  0
   60.1500   29.3990   49.0010 C   0  0  0  0  0  0  0  0  0  0  0  0
   59.9986   30.2547   49.6754 H   0  0  0  0  0  0  0  0  0  0  0  0
   60.4120   28.1330   49.5320 C   0  0  0  0  0  0  0  0  0  0  0  0
   60.4789   27.9983   50.6217 H   0  0  0  0  0  0  0  0  0  0  0  0
   60.5890   27.0390   48.6830 C   0  0  0  0  0  0  0  0  0  0  0  0
   60.8107   26.0477   49.1051 H   0  0  0  0  0  0  0  0  0  0  0  0
   60.4850   27.2000   47.2930 C   0  0  0  0  0  0  0  0  0  0  0  0
   60.7090   26.0320   46.3780 C   0  0  0  0  0  0  0  0  0  0  0  0
   60.8828   25.1255   46.9764 H   0  0  0  0  0  0  0  0  0  0  0  0
   59.8221   25.8880   45.7434 H   0  0  0  0  0  0  0  0  0  0  0  0
   61.5863   26.2263   45.7434 H   0  0  0  0  0  0  0  0  0  0  0  0
   60.2410   28.4760   46.7610 C   0  0  0  0  0  0  0  0  0  0  0  0
   60.1761   28.6096   45.6711 H   0  0  0  0  0  0  0  0  0  0  0  0
   60.5320   32.0250   47.3410 N   0  0  0  0  0  0  0  0  0  0  0  0
   61.3400   32.0980   47.9990 H   0  0  0  0  0  0  0  0  0  0  0  0
   59.9870   33.0100   46.6060 C   0  0  0  0  0  0  0  0  0  0  0  0
   60.3820   34.3480   46.6050 C   0  0  0  0  0  0  0  0  0  0  0  0
   61.2326   34.6910   47.2123 H   0  0  0  0  0  0  0  0  0  0  0  0
   59.6560   35.2410   45.8020 C   0  0  0  0  0  0  0  0  0  0  0  0
   59.9429   36.3023   45.7659 H   0  0  0  0  0  0  0  0  0  0  0  0
   58.5630   34.7850   45.0430 C   0  0  0  0  0  0  0  0  0  0  0  0
   57.9893   35.4880   44.4211 H   0  0  0  0  0  0  0  0  0  0  0  0
   58.2090   33.4280   45.0840 C   0  0  0  0  0  0  0  0  0  0  0  0
   57.3498   33.0524   44.5090 H   0  0  0  0  0  0  0  0  0  0  0  0
   58.9540   32.5880   45.8520 N   0  0  0  0  0  0  0  0  0  0  0  0
   56.9510   30.8010   44.5130 C   0  0  0  0  0  0  0  0  0  0  0  0
   57.0674   31.8010   44.0697 H   0  0  0  0  0  0  0  0  0  0  0  0
  1  2  1  0
  2  3  1  0
  3  4  1  0
  4  5  2  0
  5  6  1  0
  6  7  2  0
  7  8  1  0
  7  9  1  0
  9 10  1  0
  9 11  2  0
 11 12  1  0
 12 13  1  0
 13 14  1  0
 13 15  1  0
 13 16  1  0
 11 17  1  0
 17 18  1  0
 17 19  2  0
 19 20  1  0
  4 21  1  0
 21 22  2  0
 22 23  1  0
 23 24  2  0
 24 25  1  0
 25 26  2  0
 26 27  1  0
 26 28  1  0
 28 29  1  0
 28 30  2  0
 30 31  1  0
 30 32  1  0
 32 33  1  0
 33 34  1  0
 33 35  1  0
 33 36  1  0
 32 37  2  0
 37 38  1  0
 24 39  1  0
 39 40  1  0
 39 41  2  0
 41 42  1  0
 42 43  1  0
 42 44  2  0
 44 45  1  0
 44 46  1  0
 46 47  1  0
 46 48  2  0
 48 49  1  0
 48 50  1  0
 22 51  1  0
 51 52  1  0
 51  2  2  0
 19  6  1  0
 50 23  1  0
 37 25  1  0
 50 41  1  0
M  CHG  2   3  -1  39   1
M  END
>  <UniqueID>  (21) 
19

>  <SMILES>  (21) 
COc1ccc(/N=c2/nc(-c3c(-c4cccc(C)c4)[nH+]c4ccccn34)cc[n-]2)cc1

>  <Energy>  (21) 
109.36077562211003

>  <Genealogy>  (21) 
COc1ccc(N=c2nc(-c3c(-c4cccc(C)c4)[nH+]c4ccccn34)cc[n-]2)cc1 (protonated)
COc1ccc(/N=c2/nc(-c3c(-c4cccc(C)c4)[nH+]c4ccccn34)cc[n-]2)cc1 (cis-trans isomerization)
COc1ccc(/N=c2/nc(-c3c(-c4cccc(C)c4)[nH+]c4ccccn34)cc[n-]2)cc1 (3D coordinates assigned)
COc1ccc(/N=c2/nc(-c3c(-c4cccc(C)c4)[nH+]c4ccccn34)cc[n-]2)cc1 (optimized conformer: 109.36077562211003 kcal/mol)

>  <smiles>  (21) 
COc1ccc(N=c2nc(-c3c(-c4cccc(C)c4)nc4ccccn34)cc[nH]2)cc1

>  <score_type>  (21) 
oracle

>  <origin>  (21) 
adg

>  <m_score__min__energy>  (21) 
-9.4600000000000009

>  <m_primary>  (21) 
energy

$$$$
21:0
     RDKit          3D

 37 39  0  0  0  0  0  0  0  0999 V2000
   55.6320   30.0810   43.7510 C   0  0  0  0  0  0  0  0  0  0  0  0
   55.5580   29.2260   44.8860 O   0  0  0  0  0  0  0  0  0  0  0  0
   56.6470   28.5190   45.4190 C   0  0  0  0  0  0  0  0  0  0  0  0
   57.9540   29.0410   45.4200 C   0  0  0  0  0  0  0  0  0  0  0  0
   59.0160   28.3050   45.9700 C   0  0  0  0  0  0  0  0  0  0  0  0
   60.3960   28.9010   46.0430 C   0  0  0  0  0  0  0  0  0  0  0  0
   60.5030   29.7710   47.2130 N   0  0  0  0  0  0  0  0  0  0  0  0
   61.0260   31.1070   47.1290 C   0  0  0  0  0  0  0  0  0  0  0  0
   62.3790   31.3400   47.4210 C   0  0  0  0  0  0  0  0  0  0  0  0
   62.9110   32.6280   47.3600 C   0  0  0  0  0  0  0  0  0  0  0  0
   62.1020   33.7070   47.0060 C   0  0  0  0  0  0  0  0  0  0  0  0
   60.7490   33.5030   46.7000 C   0  0  0  0  0  0  0  0  0  0  0  0
   59.9410   34.5890   46.3280 C   0  0  0  0  0  0  0  0  0  0  0  0
   58.6000   34.3860   45.9980 C   0  0  0  0  0  0  0  0  0  0  0  0
   58.0560   33.1030   46.0300 C   0  0  0  0  0  0  0  0  0  0  0  0
   58.8460   32.0110   46.4010 C   0  0  0  0  0  0  0  0  0  0  0  0
   60.1990   32.1950   46.7550 C   0  0  0  0  0  0  0  0  0  0  0  0
   58.7630   27.0480   46.5370 C   0  0  0  0  0  0  0  0  0  0  0  0
   57.4700   26.5210   46.5300 C   0  0  0  0  0  0  0  0  0  0  0  0
   56.4150   27.2510   45.9740 C   0  0  0  0  0  0  0  0  0  0  0  0
   55.1330   26.7160   45.9780 O   0  0  0  0  0  0  0  0  0  0  0  0
   55.7224   31.1255   44.0840 H   0  0  0  0  0  0  0  0  0  0  0  0
   56.5102   29.8118   43.1458 H   0  0  0  0  0  0  0  0  0  0  0  0
   54.7206   29.9667   43.1458 H   0  0  0  0  0  0  0  0  0  0  0  0
   58.1452   30.0337   44.9864 H   0  0  0  0  0  0  0  0  0  0  0  0
   61.1383   28.0929   46.1207 H   0  0  0  0  0  0  0  0  0  0  0  0
   60.5826   29.4925   45.1346 H   0  0  0  0  0  0  0  0  0  0  0  0
   60.0840   29.4410   48.1110 H   0  0  0  0  0  0  0  0  0  0  0  0
   63.0275   30.4969   47.7013 H   0  0  0  0  0  0  0  0  0  0  0  0
   63.9734   32.7932   47.5922 H   0  0  0  0  0  0  0  0  0  0  0  0
   62.5264   34.7211   46.9667 H   0  0  0  0  0  0  0  0  0  0  0  0
   60.3660   35.6031   46.2965 H   0  0  0  0  0  0  0  0  0  0  0  0
   57.9704   35.2414   45.7117 H   0  0  0  0  0  0  0  0  0  0  0  0
   57.0003   32.9491   45.7621 H   0  0  0  0  0  0  0  0  0  0  0  0
   58.4096   31.0014   46.4170 H   0  0  0  0  0  0  0  0  0  0  0  0
   59.5860   26.4749   46.9890 H   0  0  0  0  0  0  0  0  0  0  0  0
   57.2807   25.5279   46.9635 H   0  0  0  0  0  0  0  0  0  0  0  0
  1  2  1  0
  2  3  1  0
  3  4  2  0
  4  5  1  0
  5  6  1  0
  6  7  1  0
  7  8  1  0
  8  9  2  0
  9 10  1  0
 10 11  2  0
 11 12  1  0
 12 13  2  0
 13 14  1  0
 14 15  2  0
 15 16  1  0
 16 17  2  0
  5 18  2  0
 18 19  1  0
 19 20  2  0
 20 21  1  0
 20  3  1  0
 17  8  1  0
 17 12  1  0
  1 22  1  0
  1 23  1  0
  1 24  1  0
  4 25  1  0
  6 26  1  0
  6 27  1  0
  7 28  1  0
  9 29  1  0
 10 30  1  0
 11 31  1  0
 13 32  1  0
 14 33  1  0
 15 34  1  0
 16 35  1  0
 18 36  1  0
 19 37  1  0
M  CHG  1  21  -1
M  END
>  <UniqueID>  (22) 
20

>  <SMILES>  (22) 
COc1cc(CNc2cccc3ccccc23)ccc1[O-]

>  <Energy>  (22) 
44.41751828382715

>  <Genealogy>  (22) 
COc1cc(CNc2cccc3ccccc23)ccc1[O-] (protonated)
COc1cc(CNc2cccc3ccccc23)ccc1[O-] (3D coordinates assigned)
COc1cc(CNc2cccc3ccccc23)ccc1[O-] (optimized conformer: 44.41751828382715 kcal/mol)

>  <smiles>  (22) 
COc1cc(CNc2cccc3ccccc23)ccc1O

>  <score_type>  (22) 
oracle

>  <origin>  (22) 
adg

>  <m_score__min__energy>  (22) 
-11.85

>  <m_primary>  (22) 
energy

$$$$
22:0
     RDKit          3D

 26 28  0  0  0  0  0  0  0  0999 V2000
   50.1600   33.0890   52.3400 O   0  0  0  0  0  0  0  0  0  0  0  0
   51.0580   32.4200   51.7640 C   0  0  0  0  0  0  0  0  0  0  0  0
   51.4040   32.7180   50.4520 O   0  0  0  0  0  0  0  0  0  0  0  0
   51.7690   31.3270   52.4950 C   0  0  0  0  0  0  0  0  0  0  0  0
   52.2440   29.9920   51.3440 S   0  0  0  0  0  0  0  0  0  0  0  0
   53.5850   29.3820   52.3660 C   0  0  0  0  0  0  0  0  0  0  0  0
   53.4530   28.2120   53.0610 N   0  0  0  0  0  0  0  0  0  0  0  0
   54.4650   27.7280   53.8500 C   0  0  0  0  0  0  0  0  0  0  0  0
   55.6460   28.4090   53.9620 N   0  0  0  0  0  0  0  0  0  0  0  0
   55.7800   29.5660   53.2690 C   0  0  0  0  0  0  0  0  0  0  0  0
   54.7860   30.0680   52.4750 C   0  0  0  0  0  0  0  0  0  0  0  0
   55.1550   31.2010   51.9090 O   0  0  0  0  0  0  0  0  0  0  0  0
   56.3830   31.4420   52.3310 C   0  0  0  0  0  0  0  0  0  0  0  0
   57.1940   32.5270   52.0080 C   0  0  0  0  0  0  0  0  0  0  0  0
   58.4800   32.5820   52.5800 C   0  0  0  0  0  0  0  0  0  0  0  0
   58.9240   31.5630   53.4540 C   0  0  0  0  0  0  0  0  0  0  0  0
   58.0900   30.4740   53.7670 C   0  0  0  0  0  0  0  0  0  0  0  0
   56.8240   30.4490   53.1860 C   0  0  0  0  0  0  0  0  0  0  0  0
   52.6739   31.7366   52.9675 H   0  0  0  0  0  0  0  0  0  0  0  0
   51.0954   30.9140   53.2603 H   0  0  0  0  0  0  0  0  0  0  0  0
   54.3258   26.7841   54.3974 H   0  0  0  0  0  0  0  0  0  0  0  0
   56.4180   28.0450   54.5620 H   0  0  0  0  0  0  0  0  0  0  0  0
   56.8414   33.3162   51.3276 H   0  0  0  0  0  0  0  0  0  0  0  0
   59.1453   33.4258   52.3445 H   0  0  0  0  0  0  0  0  0  0  0  0
   59.9308   31.6223   53.8932 H   0  0  0  0  0  0  0  0  0  0  0  0
   58.4243   29.6739   54.4438 H   0  0  0  0  0  0  0  0  0  0  0  0
  1  2  2  0
  2  3  1  0
  2  4  1  0
  4  5  1  0
  5  6  1  0
  6  7  2  0
  7  8  1  0
  8  9  2  0
  9 10  1  0
 10 11  2  0
 11 12  1  0
 12 13  1  0
 13 14  2  0
 14 15  1  0
 15 16  2  0
 16 17  1  0
 17 18  2  0
 11  6  1  0
 18 13  1  0
 18 10  1  0
  4 19  1  0
  4 20  1  0
  8 21  1  0
  9 22  1  0
 14 23  1  0
 15 24  1  0
 16 25  1  0
 17 26  1  0
M  CHG  2   3  -1   9   1
M  END
>  <UniqueID>  (23) 
21

>  <SMILES>  (23) 
O=C([O-])CSc1nc[nH+]c2c1oc1ccccc12

>  <Energy>  (23) 
68.56069143214083

>  <Genealogy>  (23) 
O=C([O-])CSc1nc[nH+]c2c1oc1ccccc12 (protonated)
O=C([O-])CSc1nc[nH+]c2c1oc1ccccc12 (3D coordinates assigned)
O=C([O-])CSc1nc[nH+]c2c1oc1ccccc12 (optimized conformer: 68.56069143214083 kcal/mol)

>  <smiles>  (23) 
O=C(O)CSc1ncnc2c1oc1ccccc12

>  <score_type>  (23) 
oracle

>  <origin>  (23) 
adg

>  <m_score__min__energy>  (23) 
-8.3200000000000003

>  <m_primary>  (23) 
energy

$$$$
23:0
     RDKit          3D

 55 57  0  0  0  0  0  0  0  0999 V2000
   56.0070   30.3900   43.8150 C   0  0  0  0  0  0  0  0  0  0  0  0
   56.2840   31.5990   44.5160 O   0  0  0  0  0  0  0  0  0  0  0  0
   57.4920   31.8710   45.1770 C   0  0  0  0  0  0  0  0  0  0  0  0
   57.7990   33.1420   45.6930 C   0  0  0  0  0  0  0  0  0  0  0  0
   59.0200   33.3650   46.3320 C   0  0  0  0  0  0  0  0  0  0  0  0
   59.9540   32.3270   46.4740 C   0  0  0  0  0  0  0  0  0  0  0  0
   61.2070   32.5810   47.1380 N   0  0  0  0  0  0  0  0  0  0  0  0
   62.1710   33.5140   46.5470 C   0  0  0  0  0  0  0  0  0  0  0  0
   63.2360   33.9030   47.5780 C   0  0  0  0  0  0  0  0  0  0  0  0
   63.9250   32.7130   48.1390 N   0  0  0  0  0  0  0  0  0  0  0  0
   64.6760   33.0970   49.3460 C   0  0  0  0  0  0  0  0  0  0  0  0
   63.0260   31.5520   48.4160 C   0  0  0  0  0  0  0  0  0  0  0  0
   61.5350   31.9150   48.4020 C   0  0  0  0  0  0  0  0  0  0  0  0
   59.6370   31.0410   45.9880 C   0  0  0  0  0  0  0  0  0  0  0  0
   60.5710   29.9640   46.1640 N   0  0  0  0  0  0  0  0  0  0  0  0
   60.4770   28.6560   45.5830 C   0  0  0  0  0  0  0  0  0  0  0  0
   61.4620   28.2130   44.9340 O   0  0  0  0  0  0  0  0  0  0  0  0
   59.2870   27.7930   45.7870 C   0  0  0  0  0  0  0  0  0  0  0  0
   58.4850   27.4480   44.6880 C   0  0  0  0  0  0  0  0  0  0  0  0
   57.3620   26.6380   44.8520 C   0  0  0  0  0  0  0  0  0  0  0  0
   57.0130   26.1620   46.1270 C   0  0  0  0  0  0  0  0  0  0  0  0
   55.8940   25.3420   46.3430 O   0  0  0  0  0  0  0  0  0  0  0  0
   55.4150   24.3740   45.4160 C   0  0  0  0  0  0  0  0  0  0  0  0
   57.8020   26.5120   47.2270 C   0  0  0  0  0  0  0  0  0  0  0  0
   58.9430   27.3260   47.0730 C   0  0  0  0  0  0  0  0  0  0  0  0
   59.7540   27.6700   48.1670 O   0  0  0  0  0  0  0  0  0  0  0  0
   59.6280   28.8690   48.9250 C   0  0  0  0  0  0  0  0  0  0  0  0
   58.4160   30.8330   45.3210 C   0  0  0  0  0  0  0  0  0  0  0  0
   55.8218   29.5815   44.5375 H   0  0  0  0  0  0  0  0  0  0  0  0
   55.1172   30.5281   43.1832 H   0  0  0  0  0  0  0  0  0  0  0  0
   56.8682   30.1270   43.1832 H   0  0  0  0  0  0  0  0  0  0  0  0
   57.0746   33.9637   45.5929 H   0  0  0  0  0  0  0  0  0  0  0  0
   59.2525   34.3645   46.7283 H   0  0  0  0  0  0  0  0  0  0  0  0
   62.6583   33.0346   45.6852 H   0  0  0  0  0  0  0  0  0  0  0  0
   61.6389   34.4206   46.2230 H   0  0  0  0  0  0  0  0  0  0  0  0
   63.9817   34.5495   47.0923 H   0  0  0  0  0  0  0  0  0  0  0  0
   62.7345   34.4275   48.4046 H   0  0  0  0  0  0  0  0  0  0  0  0
   64.6330   32.4040   47.4290 H   0  0  0  0  0  0  0  0  0  0  0  0
   64.1061   32.8056   50.2406 H   0  0  0  0  0  0  0  0  0  0  0  0
   65.6503   32.5864   49.3495 H   0  0  0  0  0  0  0  0  0  0  0  0
   64.8326   34.1858   49.3495 H   0  0  0  0  0  0  0  0  0  0  0  0
   63.2043   30.7831   47.6499 H   0  0  0  0  0  0  0  0  0  0  0  0
   63.2623   31.1944   49.4291 H   0  0  0  0  0  0  0  0  0  0  0  0
   60.9336   30.9993   48.5010 H   0  0  0  0  0  0  0  0  0  0  0  0
   61.3139   32.5909   49.2412 H   0  0  0  0  0  0  0  0  0  0  0  0
   58.7453   27.8207   43.6863 H   0  0  0  0  0  0  0  0  0  0  0  0
   56.7471   26.3707   43.9800 H   0  0  0  0  0  0  0  0  0  0  0  0
   54.9920   23.5192   45.9642 H   0  0  0  0  0  0  0  0  0  0  0  0
   54.6364   24.8257   44.7837 H   0  0  0  0  0  0  0  0  0  0  0  0
   56.2464   24.0290   44.7837 H   0  0  0  0  0  0  0  0  0  0  0  0
   57.5284   26.1467   48.2279 H   0  0  0  0  0  0  0  0  0  0  0  0
   59.6532   28.6287   49.9981 H   0  0  0  0  0  0  0  0  0  0  0  0
   60.4599   29.5461   48.6812 H   0  0  0  0  0  0  0  0  0  0  0  0
   58.6735   29.3583   48.6812 H   0  0  0  0  0  0  0  0  0  0  0  0
   58.1857   29.8401   44.9074 H   0  0  0  0  0  0  0  0  0  0  0  0
  1  2  1  0
  2  3  1  0
  3  4  2  0
  4  5  1  0
  5  6  2  0
  6  7  1  0
  7  8  1  0
  8  9  1  0
  9 10  1  0
 10 11  1  0
 10 12  1  0
 12 13  1  0
  6 14  1  0
 14 15  1  0
 15 16  1  0
 16 17  2  0
 16 18  1  0
 18 19  2  0
 19 20  1  0
 20 21  2  0
 21 22  1  0
 22 23  1  0
 21 24  1  0
 24 25  2  0
 25 26  1  0
 26 27  1  0
 14 28  2  0
 28  3  1  0
 13  7  1  0
 25 18  1  0
  1 29  1  0
  1 30  1  0
  1 31  1  0
  4 32  1  0
  5 33  1  0
  8 34  1  0
  8 35  1  0
  9 36  1  0
  9 37  1  0
 10 38  1  0
 11 39  1  0
 11 40  1  0
 11 41  1  0
 12 42  1  0
 12 43  1  0
 13 44  1  0
 13 45  1  0
 19 46  1  0
 20 47  1  0
 23 48  1  0
 23 49  1  0
 23 50  1  0
 24 51  1  0
 27 52  1  0
 27 53  1  0
 27 54  1  0
 28 55  1  0
M  CHG  2  10   1  15  -1
M  END
>  <UniqueID>  (24) 
22

>  <SMILES>  (24) 
COc1ccc(N2CC[NH+](C)CC2)c([N-]C(=O)c2ccc(OC)cc2OC)c1

>  <Energy>  (24) 
73.07593530583564

>  <Genealogy>  (24) 
COc1ccc(N2CC[NH+](C)CC2)c([N-]C(=O)c2ccc(OC)cc2OC)c1 (protonated)
COc1ccc(N2CC[NH+](C)CC2)c([N-]C(=O)c2ccc(OC)cc2OC)c1 (3D coordinates assigned)
COc1ccc(N2CC[NH+](C)CC2)c([N-]C(=O)c2ccc(OC)cc2OC)c1 (nonaromatic ring conformer: 73.07593530583564 kcal/mol)

>  <smiles>  (24) 
COc1ccc(N2CCN(C)CC2)c(NC(=O)c2ccc(OC)cc2OC)c1

>  <score_type>  (24) 
oracle

>  <origin>  (24) 
adg

>  <m_score__min__energy>  (24) 
-7.4299999999999997

>  <m_primary>  (24) 
energy

$$$$
24:0
     RDKit          3D

 37 38  0  0  0  0  0  0  0  0999 V2000
   57.7310   22.8650   44.9420 C   0  0  0  0  0  0  0  0  0  0  0  0
   57.2370   24.0580   45.2780 C   0  0  0  0  0  0  0  0  0  0  0  0
   58.0270   25.1450   45.4220 N   0  0  0  0  0  0  0  0  0  0  0  0
   57.2170   26.1470   45.8240 C   0  0  0  0  0  0  0  0  0  0  0  0
   57.6250   27.4010   46.0780 C   0  0  0  0  0  0  0  0  0  0  0  0
   56.9840   28.6070   45.4980 C   0  0  0  0  0  0  0  0  0  0  0  0
   55.7660   28.5840   44.9220 N   0  0  0  0  0  0  0  0  0  0  0  0
   55.5450   29.8520   44.5350 C   0  0  0  0  0  0  0  0  0  0  0  0
   56.5580   30.6850   44.8330 N   0  0  0  0  0  0  0  0  0  0  0  0
   57.4800   29.9120   45.4450 C   0  0  0  0  0  0  0  0  0  0  0  0
   58.8120   30.4700   45.9540 C   0  0  0  0  0  0  0  0  0  0  0  0
   58.9030   30.2890   47.4890 C   0  0  0  0  0  0  0  0  0  0  0  0
   58.9160   31.9800   45.6570 C   0  0  0  0  0  0  0  0  0  0  0  0
   59.9940   29.7060   45.3240 C   0  0  0  0  0  0  0  0  0  0  0  0
   55.9150   25.6970   45.9320 C   0  0  0  0  0  0  0  0  0  0  0  0
   54.8170   26.4720   46.3040 O   0  0  0  0  0  0  0  0  0  0  0  0
   55.9090   24.3600   45.5790 C   0  0  0  0  0  0  0  0  0  0  0  0
   54.7230   23.4750   45.5440 C   0  0  0  0  0  0  0  0  0  0  0  0
   54.4320   22.5010   46.6420 C   0  0  0  0  0  0  0  0  0  0  0  0
   53.9370   23.5340   44.5620 O   0  0  0  0  0  0  0  0  0  0  0  0
   57.0579   22.0017   44.8336 H   0  0  0  0  0  0  0  0  0  0  0  0
   58.8113   22.7447   44.7734 H   0  0  0  0  0  0  0  0  0  0  0  0
   58.4818   27.5419   46.7534 H   0  0  0  0  0  0  0  0  0  0  0  0
   54.6261   30.1765   44.0248 H   0  0  0  0  0  0  0  0  0  0  0  0
   58.4627   31.1647   47.9882 H   0  0  0  0  0  0  0  0  0  0  0  0
   58.3530   29.3834   47.7847 H   0  0  0  0  0  0  0  0  0  0  0  0
   59.9579   30.1903   47.7847 H   0  0  0  0  0  0  0  0  0  0  0  0
   58.9544   32.5382   46.6041 H   0  0  0  0  0  0  0  0  0  0  0  0
   59.8299   32.1776   45.0776 H   0  0  0  0  0  0  0  0  0  0  0  0
   58.0378   32.3011   45.0776 H   0  0  0  0  0  0  0  0  0  0  0  0
   60.6309   29.2943   46.1208 H   0  0  0  0  0  0  0  0  0  0  0  0
   59.6096   28.8850   44.7009 H   0  0  0  0  0  0  0  0  0  0  0  0
   60.5847   30.3936   44.7009 H   0  0  0  0  0  0  0  0  0  0  0  0
   54.7790   27.4670   46.1220 H   0  0  0  0  0  0  0  0  0  0  0  0
   54.5785   22.9915   47.6156 H   0  0  0  0  0  0  0  0  0  0  0  0
   53.3912   22.1548   46.5588 H   0  0  0  0  0  0  0  0  0  0  0  0
   55.1123   21.6406   46.5588 H   0  0  0  0  0  0  0  0  0  0  0  0
  1  2  2  0
  2  3  1  0
  3  4  1  0
  4  5  2  3
  5  6  1  0
  6  7  1  0
  7  8  1  0
  8  9  2  0
  9 10  1  0
 10 11  1  0
 11 12  1  0
 11 13  1  0
 11 14  1  0
  4 15  1  0
 15 16  1  0
 15 17  2  0
 17 18  1  0
 18 19  1  0
 18 20  2  0
 17  2  1  0
 10  6  2  0
  1 21  1  0
  1 22  1  0
  5 23  1  0
  8 24  1  0
 12 25  1  0
 12 26  1  0
 12 27  1  0
 13 28  1  0
 13 29  1  0
 13 30  1  0
 14 31  1  0
 14 32  1  0
 14 33  1  0
 16 34  1  0
 19 35  1  0
 19 36  1  0
 19 37  1  0
M  CHG  2   3  -1   7  -1
M  END
>  <UniqueID>  (25) 
23

>  <SMILES>  (25) 
C=c1[n-]c(=Cc2[n-]cnc2C(C)(C)C)c(O)c1C(C)=O

>  <Energy>  (25) 
95.2074220329073

>  <Genealogy>  (25) 
C=c1[n-]c(=Cc2[n-]cnc2C(C)(C)C)c(O)c1C(C)=O (protonated)
C=c1[n-]c(=Cc2[n-]cnc2C(C)(C)C)c(O)c1C(C)=O (3D coordinates assigned)
C=c1[n-]c(=Cc2[n-]cnc2C(C)(C)C)c(O)c1C(C)=O (optimized conformer: 95.2074220329073 kcal/mol)

>  <smiles>  (25) 
C=c1[nH]c(=Cc2[nH]cnc2C(C)(C)C)c(O)c1C(C)=O

>  <score_type>  (25) 
oracle

>  <origin>  (25) 
adg

>  <m_score__min__energy>  (25) 
-10.67

>  <m_primary>  (25) 
energy

$$$$
25:0
     RDKit          3D

 52 55  0  0  0  0  0  0  0  0999 V2000
   58.1000   26.7160   43.1030 C   0  0  0  0  0  0  0  0  0  0  0  0
   58.2520   25.9930   44.3210 O   0  0  0  0  0  0  0  0  0  0  0  0
   58.6760   26.5590   45.5370 C   0  0  0  0  0  0  0  0  0  0  0  0
   59.9980   26.4110   46.0060 C   0  0  0  0  0  0  0  0  0  0  0  0
   60.3870   26.9910   47.2170 C   0  0  0  0  0  0  0  0  0  0  0  0
   59.4670   27.7160   47.9760 C   0  0  0  0  0  0  0  0  0  0  0  0
   58.1550   27.8710   47.5220 C   0  0  0  0  0  0  0  0  0  0  0  0
   57.7540   27.3040   46.3010 C   0  0  0  0  0  0  0  0  0  0  0  0
   56.3560   27.4570   45.8450 C   0  0  0  0  0  0  0  0  0  0  0  0
   55.5630   26.4830   45.9550 O   0  0  0  0  0  0  0  0  0  0  0  0
   55.8830   28.6670   45.2470 N   0  0  0  0  0  0  0  0  0  0  0  0
   56.6050   29.4440   44.2440 C   0  0  0  0  0  0  0  0  0  0  0  0
   57.8820   30.0340   44.8520 C   0  0  0  0  0  0  0  0  0  0  0  0
   57.7300   31.4850   45.2200 C   0  0  0  0  0  0  0  0  0  0  0  0
   56.6520   32.2390   44.8970 N   0  0  0  0  0  0  0  0  0  0  0  0
   56.8950   33.4890   45.2950 N   0  0  0  0  0  0  0  0  0  0  0  0
   58.1200   33.4700   45.8530 C   0  0  0  0  0  0  0  0  0  0  0  0
   58.8300   34.5370   46.3890 C   0  0  0  0  0  0  0  0  0  0  0  0
   60.1150   34.2610   46.8900 C   0  0  0  0  0  0  0  0  0  0  0  0
   60.6210   32.9440   46.8350 C   0  0  0  0  0  0  0  0  0  0  0  0
   62.2560   32.5600   47.4650 S   0  0  0  0  0  0  0  0  0  0  0  0
   61.9420   33.2210   49.1410 C   0  0  0  0  0  0  0  0  0  0  0  0
   60.7850   32.5070   49.7910 C   0  0  0  0  0  0  0  0  0  0  0  0
   60.5340   31.1560   49.5110 C   0  0  0  0  0  0  0  0  0  0  0  0
   59.4110   30.5200   50.0470 C   0  0  0  0  0  0  0  0  0  0  0  0
   58.5190   31.2260   50.8740 C   0  0  0  0  0  0  0  0  0  0  0  0
   57.3430   30.5850   51.4010 N   0  0  0  0  0  0  0  0  0  0  0  0
   56.2310   31.1520   51.3480 O   0  0  0  0  0  0  0  0  0  0  0  0
   57.4260   29.3460   51.9900 O   0  0  0  0  0  0  0  0  0  0  0  0
   58.7850   32.5740   51.1670 C   0  0  0  0  0  0  0  0  0  0  0  0
   59.9110   33.2080   50.6340 C   0  0  0  0  0  0  0  0  0  0  0  0
   59.8610   31.9500   46.2910 N   0  0  0  0  0  0  0  0  0  0  0  0
   58.6530   32.2490   45.8210 N   0  0  0  0  0  0  0  0  0  0  0  0
   57.8784   27.7698   43.3274 H   0  0  0  0  0  0  0  0  0  0  0  0
   59.0310   26.6530   42.5206 H   0  0  0  0  0  0  0  0  0  0  0  0
   57.2732   26.2834   42.5206 H   0  0  0  0  0  0  0  0  0  0  0  0
   60.7268   25.8361   45.4157 H   0  0  0  0  0  0  0  0  0  0  0  0
   61.4214   26.8756   47.5729 H   0  0  0  0  0  0  0  0  0  0  0  0
   59.7750   28.1653   48.9316 H   0  0  0  0  0  0  0  0  0  0  0  0
   57.4317   28.4404   48.1242 H   0  0  0  0  0  0  0  0  0  0  0  0
   56.8722   28.7902   43.4007 H   0  0  0  0  0  0  0  0  0  0  0  0
   55.9616   30.2643   43.8931 H   0  0  0  0  0  0  0  0  0  0  0  0
   58.1361   29.4652   45.7586 H   0  0  0  0  0  0  0  0  0  0  0  0
   58.6757   29.9637   44.0936 H   0  0  0  0  0  0  0  0  0  0  0  0
   58.4065   35.5517   46.4202 H   0  0  0  0  0  0  0  0  0  0  0  0
   60.7236   35.0684   47.3232 H   0  0  0  0  0  0  0  0  0  0  0  0
   62.8427   33.0833   49.7573 H   0  0  0  0  0  0  0  0  0  0  0  0
   61.6942   34.2895   49.0574 H   0  0  0  0  0  0  0  0  0  0  0  0
   61.2250   30.5937   48.8658 H   0  0  0  0  0  0  0  0  0  0  0  0
   59.2234   29.4600   49.8206 H   0  0  0  0  0  0  0  0  0  0  0  0
   58.1016   33.1352   51.8212 H   0  0  0  0  0  0  0  0  0  0  0  0
   60.1123   34.2618   50.8770 H   0  0  0  0  0  0  0  0  0  0  0  0
  1  2  1  0
  2  3  1  0
  3  4  2  0
  4  5  1  0
  5  6  2  0
  6  7  1  0
  7  8  2  0
  8  9  1  0
  9 10  2  0
  9 11  1  0
 11 12  1  0
 12 13  1  0
 13 14  1  0
 14 15  2  0
 15 16  1  0
 16 17  2  0
 17 18  1  0
 18 19  2  0
 19 20  1  0
 20 21  1  0
 21 22  1  0
 22 23  1  0
 23 24  2  0
 24 25  1  0
 25 26  2  0
 26 27  1  0
 27 28  2  0
 27 29  1  0
 26 30  1  0
 30 31  2  0
 20 32  2  0
 32 33  1  0
  8  3  1  0
 33 14  1  0
 33 17  1  0
 31 23  1  0
  1 34  1  0
  1 35  1  0
  1 36  1  0
  4 37  1  0
  5 38  1  0
  6 39  1  0
  7 40  1  0
 12 41  1  0
 12 42  1  0
 13 43  1  0
 13 44  1  0
 18 45  1  0
 19 46  1  0
 22 47  1  0
 22 48  1  0
 24 49  1  0
 25 50  1  0
 30 51  1  0
 31 52  1  0
M  CHG  3  11  -1  27   1  29  -1
M  END
>  <UniqueID>  (26) 
24

>  <SMILES>  (26) 
COc1ccccc1C(=O)[N-]CCc1nnc2ccc(SCc3ccc([N+](=O)[O-])cc3)nn12

>  <Energy>  (26) 
94.6049033895933

>  <Genealogy>  (26) 
COc1ccccc1C(=O)[N-]CCc1nnc2ccc(SCc3ccc([N+](=O)[O-])cc3)nn12 (protonated)
COc1ccccc1C(=O)[N-]CCc1nnc2ccc(SCc3ccc([N+](=O)[O-])cc3)nn12 (3D coordinates assigned)
COc1ccccc1C(=O)[N-]CCc1nnc2ccc(SCc3ccc([N+](=O)[O-])cc3)nn12 (optimized conformer: 94.6049033895933 kcal/mol)

>  <smiles>  (26) 
COc1ccccc1C(=O)NCCc1nnc2ccc(SCc3ccc([N+](=O)[O-])cc3)nn12

>  <score_type>  (26) 
oracle

>  <origin>  (26) 
adg

>  <m_score__min__energy>  (26) 
-11.550000000000001

>  <m_primary>  (26) 
energy

$$$$
26:0
     RDKit          3D

 33 34  0  0  0  0  0  0  0  0999 V2000
   55.6112   24.4377   45.4006 H   0  0  0  0  0  0  0  0  0  0  0  0
   55.9750   25.3810   45.8340 C   0  0  0  0  0  0  0  0  0  0  0  0
   55.2020   26.3130   45.9940 O   0  0  0  0  0  0  0  0  0  0  0  0
   57.4150   25.5140   46.2240 C   0  0  0  0  0  0  0  0  0  0  0  0
   57.4901   25.5755   47.3197 H   0  0  0  0  0  0  0  0  0  0  0  0
   57.9678   24.6365   45.8574 H   0  0  0  0  0  0  0  0  0  0  0  0
   58.0050   26.7500   45.6180 C   0  0  0  0  0  0  0  0  0  0  0  0
   59.2690   27.0670   45.8860 O   0  0  0  0  0  0  0  0  0  0  0  0
   59.8530   28.1360   45.3580 C   0  0  0  0  0  0  0  0  0  0  0  0
   61.0530   28.3930   45.6390 O   0  0  0  0  0  0  0  0  0  0  0  0
   59.1430   28.9680   44.4960 C   0  0  0  0  0  0  0  0  0  0  0  0
   59.6187   29.8519   44.0461 H   0  0  0  0  0  0  0  0  0  0  0  0
   57.8100   28.6510   44.2170 C   0  0  0  0  0  0  0  0  0  0  0  0
   57.0450   29.5220   43.2930 C   0  0  0  0  0  0  0  0  0  0  0  0
   56.8066   29.1381   42.2901 H   0  0  0  0  0  0  0  0  0  0  0  0
   56.6290   30.7550   43.6190 C   0  0  0  0  0  0  0  0  0  0  0  0
   55.6314   31.0720   43.2809 H   0  0  0  0  0  0  0  0  0  0  0  0
   57.4380   31.7160   44.4100 C   0  0  0  0  0  0  0  0  0  0  0  0
   57.7790   31.4940   45.7590 C   0  0  0  0  0  0  0  0  0  0  0  0
   57.4500   30.5724   46.2614 H   0  0  0  0  0  0  0  0  0  0  0  0
   58.5330   32.4380   46.4630 C   0  0  0  0  0  0  0  0  0  0  0  0
   58.8091   32.2431   47.5098 H   0  0  0  0  0  0  0  0  0  0  0  0
   58.9410   33.6310   45.8480 C   0  0  0  0  0  0  0  0  0  0  0  0
   59.7970   34.6230   46.5930 C   0  0  0  0  0  0  0  0  0  0  0  0
   59.3450   34.7830   47.8920 F   0  0  0  0  0  0  0  0  0  0  0  0
   61.1120   34.1930   46.6440 F   0  0  0  0  0  0  0  0  0  0  0  0
   59.7470   35.8440   45.9460 F   0  0  0  0  0  0  0  0  0  0  0  0
   58.6110   33.8480   44.4990 C   0  0  0  0  0  0  0  0  0  0  0  0
   58.9501   34.7646   43.9942 H   0  0  0  0  0  0  0  0  0  0  0  0
   57.8550   32.9070   43.7950 C   0  0  0  0  0  0  0  0  0  0  0  0
   57.5835   33.1017   42.7470 H   0  0  0  0  0  0  0  0  0  0  0  0
   57.2680   27.5300   44.7770 N   0  0  0  0  0  0  0  0  0  0  0  0
   56.2930   27.2330   44.5460 H   0  0  0  0  0  0  0  0  0  0  0  0
  1  2  1  0
  2  3  2  0
  2  4  1  0
  4  5  1  0
  4  6  1  0
  4  7  1  0
  7  8  1  0
  8  9  1  0
  9 10  2  0
  9 11  1  0
 11 12  1  0
 11 13  2  0
 13 14  1  0
 14 15  1  0
 14 16  2  0
 16 17  1  0
 16 18  1  0
 18 19  2  0
 19 20  1  0
 19 21  1  0
 21 22  1  0
 21 23  2  0
 23 24  1  0
 24 25  1  0
 24 26  1  0
 24 27  1  0
 23 28  1  0
 28 29  1  0
 28 30  2  0
 30 31  1  0
 13 32  1  0
 32 33  1  0
 32  7  2  0
 30 18  1  0
M  CHG  1  32   1
M  END
>  <UniqueID>  (27) 
25

>  <SMILES>  (27) 
O=CCc1[nH+]c(/C=C/c2ccc(C(F)(F)F)cc2)cc(=O)o1

>  <Energy>  (27) 
37.01169330576578

>  <Genealogy>  (27) 
O=CCc1[nH+]c(C=Cc2ccc(C(F)(F)F)cc2)cc(=O)o1 (protonated)
O=CCc1[nH+]c(/C=C/c2ccc(C(F)(F)F)cc2)cc(=O)o1 (cis-trans isomerization)
O=CCc1[nH+]c(/C=C/c2ccc(C(F)(F)F)cc2)cc(=O)o1 (3D coordinates assigned)
O=CCc1[nH+]c(/C=C/c2ccc(C(F)(F)F)cc2)cc(=O)o1 (optimized conformer: 37.01169330576578 kcal/mol)

>  <smiles>  (27) 
O=CCc1nc(C=Cc2ccc(C(F)(F)F)cc2)cc(=O)o1

>  <score_type>  (27) 
oracle

>  <origin>  (27) 
adg

>  <m_score__min__energy>  (27) 
-5.2800000000000002

>  <m_primary>  (27) 
energy

$$$$
27:0
     RDKit          3D

 55 58  0  0  0  0  0  0  0  0999 V2000
   55.1880   29.3710   44.8730 O   0  0  0  0  0  0  0  0  0  0  0  0
   56.0730   30.1150   44.3720 C   0  0  0  0  0  0  0  0  0  0  0  0
   56.9380   29.5960   43.2650 C   0  0  0  0  0  0  0  0  0  0  0  0
   57.3650   28.2240   43.5380 N   0  0  0  0  0  0  0  0  0  0  0  0
   58.3340   27.8550   44.5380 C   0  0  0  0  0  0  0  0  0  0  0  0
   57.9820   26.9130   45.5190 C   0  0  0  0  0  0  0  0  0  0  0  0
   58.8990   26.5350   46.5050 C   0  0  0  0  0  0  0  0  0  0  0  0
   60.1790   27.0910   46.5180 C   0  0  0  0  0  0  0  0  0  0  0  0
   60.5440   28.0250   45.5460 C   0  0  0  0  0  0  0  0  0  0  0  0
   59.6310   28.4080   44.5590 C   0  0  0  0  0  0  0  0  0  0  0  0
   56.2790   31.4470   44.8600 N   0  0  0  0  0  0  0  0  0  0  0  0
   57.4550   31.9510   45.5090 C   0  0  0  0  0  0  0  0  0  0  0  0
   57.6250   33.3180   45.7930 C   0  0  0  0  0  0  0  0  0  0  0  0
   58.7940   33.7690   46.4130 C   0  0  0  0  0  0  0  0  0  0  0  0
   59.8130   32.8620   46.7530 C   0  0  0  0  0  0  0  0  0  0  0  0
   61.0320   33.2910   47.3740 N   0  0  0  0  0  0  0  0  0  0  0  0
   61.1760   33.7390   48.7290 C   0  0  0  0  0  0  0  0  0  0  0  0
   61.3430   34.9650   48.9740 O   0  0  0  0  0  0  0  0  0  0  0  0
   61.0840   32.7940   49.8160 N   0  0  0  0  0  0  0  0  0  0  0  0
   61.5760   33.1490   51.1260 C   0  0  0  0  0  0  0  0  0  0  0  0
   62.9250   33.4990   51.3050 C   0  0  0  0  0  0  0  0  0  0  0  0
   63.4020   33.8530   52.5710 C   0  0  0  0  0  0  0  0  0  0  0  0
   62.5360   33.8590   53.6680 C   0  0  0  0  0  0  0  0  0  0  0  0
   61.1910   33.5160   53.5010 C   0  0  0  0  0  0  0  0  0  0  0  0
   60.7120   33.1620   52.2360 C   0  0  0  0  0  0  0  0  0  0  0  0
   60.4950   31.4940   49.6070 C   0  0  0  0  0  0  0  0  0  0  0  0
   59.1150   31.3030   49.7930 C   0  0  0  0  0  0  0  0  0  0  0  0
   58.5380   30.0490   49.5690 C   0  0  0  0  0  0  0  0  0  0  0  0
   59.3300   28.9790   49.1470 C   0  0  0  0  0  0  0  0  0  0  0  0
   60.7020   29.1590   48.9480 C   0  0  0  0  0  0  0  0  0  0  0  0
   61.2840   30.4110   49.1780 C   0  0  0  0  0  0  0  0  0  0  0  0
   59.6630   31.5120   46.4210 C   0  0  0  0  0  0  0  0  0  0  0  0
   58.4920   31.0590   45.8040 C   0  0  0  0  0  0  0  0  0  0  0  0
   56.3693   29.6160   42.3236 H   0  0  0  0  0  0  0  0  0  0  0  0
   57.8308   30.2338   43.1871 H   0  0  0  0  0  0  0  0  0  0  0  0
   56.9290   27.4670   42.9630 H   0  0  0  0  0  0  0  0  0  0  0  0
   56.9758   26.4686   45.5115 H   0  0  0  0  0  0  0  0  0  0  0  0
   58.6113   25.7993   47.2705 H   0  0  0  0  0  0  0  0  0  0  0  0
   60.9002   26.7937   47.2936 H   0  0  0  0  0  0  0  0  0  0  0  0
   61.5538   28.4610   45.5571 H   0  0  0  0  0  0  0  0  0  0  0  0
   59.9255   29.1435   43.7959 H   0  0  0  0  0  0  0  0  0  0  0  0
   56.8348   34.0352   45.5262 H   0  0  0  0  0  0  0  0  0  0  0  0
   58.9172   34.8391   46.6360 H   0  0  0  0  0  0  0  0  0  0  0  0
   63.6099   33.4945   50.4442 H   0  0  0  0  0  0  0  0  0  0  0  0
   64.4591   34.1268   52.7035 H   0  0  0  0  0  0  0  0  0  0  0  0
   62.9132   34.1340   54.6641 H   0  0  0  0  0  0  0  0  0  0  0  0
   60.5097   33.5246   54.3646 H   0  0  0  0  0  0  0  0  0  0  0  0
   59.6533   32.8921   52.1080 H   0  0  0  0  0  0  0  0  0  0  0  0
   58.4852   32.1448   50.1166 H   0  0  0  0  0  0  0  0  0  0  0  0
   57.4587   29.9052   49.7254 H   0  0  0  0  0  0  0  0  0  0  0  0
   58.8739   27.9936   48.9710 H   0  0  0  0  0  0  0  0  0  0  0  0
   61.3241   28.3168   48.6107 H   0  0  0  0  0  0  0  0  0  0  0  0
   62.3642   30.5489   49.0225 H   0  0  0  0  0  0  0  0  0  0  0  0
   60.4715   30.8011   46.6466 H   0  0  0  0  0  0  0  0  0  0  0  0
   58.3857   29.9943   45.5490 H   0  0  0  0  0  0  0  0  0  0  0  0
  1  2  2  0
  2  3  1  0
  3  4  1  0
  4  5  1  0
  5  6  2  0
  6  7  1  0
  7  8  2  0
  8  9  1  0
  9 10  2  0
  2 11  1  0
 11 12  1  0
 12 13  2  0
 13 14  1  0
 14 15  2  0
 15 16  1  0
 16 17  1  0
 17 18  2  0
 17 19  1  0
 19 20  1  0
 20 21  2  0
 21 22  1  0
 22 23  2  0
 23 24  1  0
 24 25  2  0
 19 26  1  0
 26 27  2  0
 27 28  1  0
 28 29  2  0
 29 30  1  0
 30 31  2  0
 15 32  1  0
 32 33  2  0
 10  5  1  0
 33 12  1  0
 25 20  1  0
 31 26  1  0
  3 34  1  0
  3 35  1  0
  4 36  1  0
  6 37  1  0
  7 38  1  0
  8 39  1  0
  9 40  1  0
 10 41  1  0
 13 42  1  0
 14 43  1  0
 21 44  1  0
 22 45  1  0
 23 46  1  0
 24 47  1  0
 25 48  1  0
 27 49  1  0
 28 50  1  0
 29 51  1  0
 30 52  1  0
 31 53  1  0
 32 54  1  0
 33 55  1  0
M  CHG  2  11  -1  16  -1
M  END
>  <UniqueID>  (28) 
26

>  <SMILES>  (28) 
O=C(CNc1ccccc1)[N-]c1ccc([N-]C(=O)N(c2ccccc2)c2ccccc2)cc1

>  <Energy>  (28) 
75.83999637058588

>  <Genealogy>  (28) 
O=C(CNc1ccccc1)[N-]c1ccc([N-]C(=O)N(c2ccccc2)c2ccccc2)cc1 (protonated)
O=C(CNc1ccccc1)[N-]c1ccc([N-]C(=O)N(c2ccccc2)c2ccccc2)cc1 (3D coordinates assigned)
O=C(CNc1ccccc1)[N-]c1ccc([N-]C(=O)N(c2ccccc2)c2ccccc2)cc1 (optimized conformer: 75.83999637058588 kcal/mol)

>  <smiles>  (28) 
O=C(CNc1ccccc1)Nc1ccc(NC(=O)N(c2ccccc2)c2ccccc2)cc1

>  <score_type>  (28) 
oracle

>  <origin>  (28) 
adg

>  <m_score__min__energy>  (28) 
-11.25

>  <m_primary>  (28) 
energy

$$$$
28:0
     RDKit          3D

 28 31  0  0  0  0  0  0  0  0999 V2000
   55.1520   28.1870   44.8710 H   0  0  0  0  0  0  0  0  0  0  0  0
   55.6390   29.1110   44.8710 N   0  0  0  0  0  0  0  0  0  0  0  0
   56.7890   29.3180   45.4380 C   0  0  0  0  0  0  0  0  0  0  0  0
   57.4900   28.2650   46.0960 C   0  0  0  0  0  0  0  0  0  0  0  0
   56.9840   26.9460   46.1710 C   0  0  0  0  0  0  0  0  0  0  0  0
   55.7920   26.6090   45.6160 F   0  0  0  0  0  0  0  0  0  0  0  0
   57.7120   25.9490   46.8300 C   0  0  0  0  0  0  0  0  0  0  0  0
   57.3099   24.9266   46.8848 H   0  0  0  0  0  0  0  0  0  0  0  0
   58.9430   26.2400   47.4180 C   0  0  0  0  0  0  0  0  0  0  0  0
   59.5055   25.4463   47.9315 H   0  0  0  0  0  0  0  0  0  0  0  0
   59.4640   27.5320   47.3580 C   0  0  0  0  0  0  0  0  0  0  0  0
   60.4348   27.7531   47.8257 H   0  0  0  0  0  0  0  0  0  0  0  0
   58.7580   28.5480   46.7060 C   0  0  0  0  0  0  0  0  0  0  0  0
   59.2890   29.8040   46.6610 N   0  0  0  0  0  0  0  0  0  0  0  0
   58.6070   30.7860   46.0310 C   0  0  0  0  0  0  0  0  0  0  0  0
   58.9350   32.1060   45.8600 C   0  0  0  0  0  0  0  0  0  0  0  0
   60.0390   32.8550   46.2580 C   0  0  0  0  0  0  0  0  0  0  0  0
   60.8641   32.3983   46.8242 H   0  0  0  0  0  0  0  0  0  0  0  0
   60.0600   34.2180   45.9090 C   0  0  0  0  0  0  0  0  0  0  0  0
   60.9141   34.8444   46.2060 H   0  0  0  0  0  0  0  0  0  0  0  0
   58.9910   34.7890   45.1790 C   0  0  0  0  0  0  0  0  0  0  0  0
   59.0215   35.8556   44.9117 H   0  0  0  0  0  0  0  0  0  0  0  0
   57.8890   34.0040   44.7920 C   0  0  0  0  0  0  0  0  0  0  0  0
   57.0530   34.4407   44.2259 H   0  0  0  0  0  0  0  0  0  0  0  0
   57.8890   32.6560   45.1480 C   0  0  0  0  0  0  0  0  0  0  0  0
   56.9340   31.7370   44.8750 N   0  0  0  0  0  0  0  0  0  0  0  0
   56.0450   31.8990   44.3520 H   0  0  0  0  0  0  0  0  0  0  0  0
   57.3900   30.5850   45.4270 C   0  0  0  0  0  0  0  0  0  0  0  0
  1  2  1  0
  2  3  2  0
  3  4  1  0
  4  5  2  0
  5  6  1  0
  5  7  1  0
  7  8  1  0
  7  9  2  0
  9 10  1  0
  9 11  1  0
 11 12  1  0
 11 13  2  0
 13 14  1  0
 14 15  1  0
 15 16  1  0
 16 17  2  0
 17 18  1  0
 17 19  1  0
 19 20  1  0
 19 21  2  0
 21 22  1  0
 21 23  1  0
 23 24  1  0
 23 25  2  0
 25 26  1  0
 26 27  1  0
 26 28  1  0
 28  3  1  0
 13  4  1  0
 28 15  2  0
 25 16  1  0
M  CHG  1  14  -1
M  END
>  <UniqueID>  (29) 
27

>  <SMILES>  (29) 
[H]/N=c1\c2[nH]c3ccccc3c2[n-]c2cccc(F)c12

>  <Energy>  (29) 
82.333179146981

>  <Genealogy>  (29) 
N=c1c2[nH]c3ccccc3c2[n-]c2cccc(F)c12 (protonated)
[H]/N=c1\c2[nH]c3ccccc3c2[n-]c2cccc(F)c12 (cis-trans isomerization)
[H]/N=c1\c2[nH]c3ccccc3c2[n-]c2cccc(F)c12 (3D coordinates assigned)
[H]/N=c1\c2[nH]c3ccccc3c2[n-]c2cccc(F)c12 (optimized conformer: 82.333179146981 kcal/mol)

>  <smiles>  (29) 
N=c1c2[nH]c3ccccc3c2[nH]c2cccc(F)c12

>  <score_type>  (29) 
oracle

>  <origin>  (29) 
adg

>  <m_score__min__energy>  (29) 
-8.0199999999999996

>  <m_primary>  (29) 
energy

$$$$
29:0
     RDKit          3D

 51 55  0  0  0  0  0  0  0  0999 V2000
   61.9033   34.2063   46.3293 H   0  0  0  0  0  0  0  0  0  0  0  0
   61.0830   34.1900   47.0620 C   0  0  0  0  0  0  0  0  0  0  0  0
   61.3970   34.2680   48.3630 C   0  0  0  0  0  0  0  0  0  0  0  0
   60.6905   34.7454   49.0579 H   0  0  0  0  0  0  0  0  0  0  0  0
   62.6910   33.7190   48.8950 C   0  0  0  0  0  0  0  0  0  0  0  0
   63.4947   33.9139   48.1697 H   0  0  0  0  0  0  0  0  0  0  0  0
   62.9242   34.2090   49.8518 H   0  0  0  0  0  0  0  0  0  0  0  0
   62.5720   32.2640   49.1130 N   0  0  0  0  0  0  0  0  0  0  0  0
   61.2340   31.9280   49.6590 C   0  0  0  0  0  0  0  0  0  0  0  0
   61.2312   32.1296   50.7404 H   0  0  0  0  0  0  0  0  0  0  0  0
   60.4895   32.5463   49.1361 H   0  0  0  0  0  0  0  0  0  0  0  0
   60.8720   30.4600   49.4300 C   0  0  0  0  0  0  0  0  0  0  0  0
   61.6134   29.8174   49.9275 H   0  0  0  0  0  0  0  0  0  0  0  0
   59.8743   30.2586   49.8471 H   0  0  0  0  0  0  0  0  0  0  0  0
   60.8670   30.1770   47.9890 N   0  0  0  0  0  0  0  0  0  0  0  0
   59.8390   29.3630   47.3950 C   0  0  0  0  0  0  0  0  0  0  0  0
   59.4780   28.1810   47.9820 N   0  0  0  0  0  0  0  0  0  0  0  0
   58.5140   27.3670   47.4480 C   0  0  0  0  0  0  0  0  0  0  0  0
   58.2593   26.4217   47.9496 H   0  0  0  0  0  0  0  0  0  0  0  0
   57.8670   27.7190   46.2990 N   0  0  0  0  0  0  0  0  0  0  0  0
   58.2100   28.8870   45.7090 C   0  0  0  0  0  0  0  0  0  0  0  0
   57.6870   29.4970   44.5990 C   0  0  0  0  0  0  0  0  0  0  0  0
   56.6860   29.1210   43.7080 C   0  0  0  0  0  0  0  0  0  0  0  0
   56.1589   28.1614   43.8142 H   0  0  0  0  0  0  0  0  0  0  0  0
   56.3730   30.0140   42.6660 C   0  0  0  0  0  0  0  0  0  0  0  0
   55.5921   29.7507   41.9374 H   0  0  0  0  0  0  0  0  0  0  0  0
   57.0550   31.2470   42.5490 C   0  0  0  0  0  0  0  0  0  0  0  0
   56.8000   31.9349   41.7294 H   0  0  0  0  0  0  0  0  0  0  0  0
   58.0580   31.6030   43.4720 C   0  0  0  0  0  0  0  0  0  0  0  0
   58.5885   32.5632   43.3911 H   0  0  0  0  0  0  0  0  0  0  0  0
   58.3570   30.7000   44.4910 C   0  0  0  0  0  0  0  0  0  0  0  0
   59.2630   30.8580   45.4830 N   0  0  0  0  0  0  0  0  0  0  0  0
   59.8660   31.6930   45.6490 H   0  0  0  0  0  0  0  0  0  0  0  0
   59.1670   29.7270   46.2210 C   0  0  0  0  0  0  0  0  0  0  0  0
   61.7580   30.9480   47.1150 C   0  0  0  0  0  0  0  0  0  0  0  0
   62.1193   30.2990   46.3037 H   0  0  0  0  0  0  0  0  0  0  0  0
   61.1988   31.7995   46.7000 H   0  0  0  0  0  0  0  0  0  0  0  0
   62.9600   31.4830   47.9070 C   0  0  0  0  0  0  0  0  0  0  0  0
   63.5747   30.6289   48.2274 H   0  0  0  0  0  0  0  0  0  0  0  0
   63.5104   32.1645   47.2416 H   0  0  0  0  0  0  0  0  0  0  0  0
   59.6940   34.0830   46.5530 C   0  0  0  0  0  0  0  0  0  0  0  0
   58.7470   33.3870   47.3250 C   0  0  0  0  0  0  0  0  0  0  0  0
   59.0461   32.9450   48.2869 H   0  0  0  0  0  0  0  0  0  0  0  0
   57.4280   33.2520   46.8800 C   0  0  0  0  0  0  0  0  0  0  0  0
   56.6939   32.7111   47.4953 H   0  0  0  0  0  0  0  0  0  0  0  0
   57.0410   33.8020   45.6570 C   0  0  0  0  0  0  0  0  0  0  0  0
   56.0020   33.6984   45.3110 H   0  0  0  0  0  0  0  0  0  0  0  0
   57.9740   34.4840   44.8730 C   0  0  0  0  0  0  0  0  0  0  0  0
   57.6694   34.9138   43.9074 H   0  0  0  0  0  0  0  0  0  0  0  0
   59.2940   34.6220   45.3120 C   0  0  0  0  0  0  0  0  0  0  0  0
   60.0254   35.1541   44.6860 H   0  0  0  0  0  0  0  0  0  0  0  0
  1  2  1  0
  2  3  2  0
  3  4  1  0
  3  5  1  0
  5  6  1  0
  5  7  1  0
  5  8  1  0
  8  9  1  0
  9 10  1  0
  9 11  1  0
  9 12  1  0
 12 13  1  0
 12 14  1  0
 12 15  1  0
 15 16  1  0
 16 17  2  0
 17 18  1  0
 18 19  1  0
 18 20  2  0
 20 21  1  0
 21 22  1  0
 22 23  2  0
 23 24  1  0
 23 25  1  0
 25 26  1  0
 25 27  2  0
 27 28  1  0
 27 29  1  0
 29 30  1  0
 29 31  2  0
 31 32  1  0
 32 33  1  0
 32 34  1  0
 15 35  1  0
 35 36  1  0
 35 37  1  0
 35 38  1  0
 38 39  1  0
 38 40  1  0
  2 41  1  0
 41 42  2  0
 42 43  1  0
 42 44  1  0
 44 45  1  0
 44 46  2  0
 46 47  1  0
 46 48  1  0
 48 49  1  0
 48 50  2  0
 50 51  1  0
 38  8  1  0
 50 41  1  0
 34 16  1  0
 34 21  2  0
 31 22  1  0
M  END
>  <UniqueID>  (30) 
28

>  <SMILES>  (30) 
C(=C/c1ccccc1)\CN1CCN(c2ncnc3c2[nH]c2ccccc23)CC1

>  <Energy>  (30) 
113.56696177409368

>  <Genealogy>  (30) 
C(=C/c1ccccc1)\CN1CCN(c2ncnc3c2[nH]c2ccccc23)CC1 (cis-trans isomerization)
C(=C/c1ccccc1)\CN1CCN(c2ncnc3c2[nH]c2ccccc23)CC1 (3D coordinates assigned)
C(=C/c1ccccc1)\CN1CCN(c2ncnc3c2[nH]c2ccccc23)CC1 (nonaromatic ring conformer: 113.56696177409368 kcal/mol)

>  <smiles>  (30) 
C(=Cc1ccccc1)CN1CCN(c2ncnc3c2[nH]c2ccccc23)CC1

>  <score_type>  (30) 
oracle

>  <origin>  (30) 
adg

>  <m_score__min__energy>  (30) 
-8.7400000000000002

>  <m_primary>  (30) 
energy

$$$$
30:0
     RDKit          3D

 30 32  0  0  0  0  0  0  0  0999 V2000
   55.2730   29.3030   44.8600 N   0  0  0  0  0  0  0  0  0  0  0  0
   56.5790   29.6460   44.4030 C   0  0  0  0  0  0  0  0  0  0  0  0
   56.7180   30.2560   43.3090 O   0  0  0  0  0  0  0  0  0  0  0  0
   57.7520   29.3650   45.2460 C   0  0  0  0  0  0  0  0  0  0  0  0
   58.1470   28.0240   45.4310 C   0  0  0  0  0  0  0  0  0  0  0  0
   59.1550   27.6940   46.3500 C   0  0  0  0  0  0  0  0  0  0  0  0
   59.7890   28.6930   47.0970 C   0  0  0  0  0  0  0  0  0  0  0  0
   59.4330   30.0270   46.8810 C   0  0  0  0  0  0  0  0  0  0  0  0
   58.4480   30.3640   45.9600 C   0  0  0  0  0  0  0  0  0  0  0  0
   58.3320   31.8240   45.9530 C   0  0  0  0  0  0  0  0  0  0  0  0
   57.6000   32.6770   45.1180 C   0  0  0  0  0  0  0  0  0  0  0  0
   57.6800   34.0620   45.3320 C   0  0  0  0  0  0  0  0  0  0  0  0
   58.5000   34.5780   46.3510 C   0  0  0  0  0  0  0  0  0  0  0  0
   59.2710   33.7150   47.1430 C   0  0  0  0  0  0  0  0  0  0  0  0
   59.1930   32.3370   46.9120 C   0  0  0  0  0  0  0  0  0  0  0  0
   59.9990   31.2460   47.5760 C   0  0  1  0  0  0  0  0  0  0  0  0
   59.7580   31.2030   48.9630 O   0  0  0  0  0  0  0  0  0  0  0  0
   61.5090   31.4080   47.3040 C   0  0  0  0  0  0  0  0  0  0  0  0
   61.9400   30.4470   46.4070 F   0  0  0  0  0  0  0  0  0  0  0  0
   61.7670   32.6530   46.7580 F   0  0  0  0  0  0  0  0  0  0  0  0
   62.2320   31.2780   48.4790 F   0  0  0  0  0  0  0  0  0  0  0  0
   55.1390   28.6110   45.6300 H   0  0  0  0  0  0  0  0  0  0  0  0
   57.6598   27.2280   44.8487 H   0  0  0  0  0  0  0  0  0  0  0  0
   59.4488   26.6425   46.4840 H   0  0  0  0  0  0  0  0  0  0  0  0
   60.5551   28.4325   47.8421 H   0  0  0  0  0  0  0  0  0  0  0  0
   56.9744   32.2697   44.3101 H   0  0  0  0  0  0  0  0  0  0  0  0
   57.0978   34.7476   44.6988 H   0  0  0  0  0  0  0  0  0  0  0  0
   58.5369   35.6631   46.5277 H   0  0  0  0  0  0  0  0  0  0  0  0
   59.9255   34.1141   47.9319 H   0  0  0  0  0  0  0  0  0  0  0  0
   60.6330   31.0940   49.4240 H   0  0  0  0  0  0  0  0  0  0  0  0
  1  2  1  0
  2  3  2  0
  2  4  1  0
  4  5  2  0
  5  6  1  0
  6  7  2  0
  7  8  1  0
  8  9  2  0
  9 10  1  0
 10 11  2  0
 11 12  1  0
 12 13  2  0
 13 14  1  0
 14 15  2  0
 15 16  1  0
 16 17  1  1
 16 18  1  0
 18 19  1  0
 18 20  1  0
 18 21  1  0
  9  4  1  0
 15 10  1  0
 16  8  1  0
  1 22  1  0
  5 23  1  0
  6 24  1  0
  7 25  1  0
 11 26  1  0
 12 27  1  0
 13 28  1  0
 14 29  1  0
 17 30  1  0
M  CHG  1   1  -1
M  END
>  <UniqueID>  (31) 
29

>  <SMILES>  (31) 
[NH-]C(=O)c1cccc2c1-c1ccccc1[C@]2(O)C(F)(F)F

>  <Energy>  (31) 
63.035903230943596

>  <Genealogy>  (31) 
[NH-]C(=O)c1cccc2c1-c1ccccc1C2(O)C(F)(F)F (protonated)
[NH-]C(=O)c1cccc2c1-c1ccccc1[C@]2(O)C(F)(F)F (chirality)
[NH-]C(=O)c1cccc2c1-c1ccccc1[C@]2(O)C(F)(F)F (3D coordinates assigned)
[NH-]C(=O)c1cccc2c1-c1ccccc1[C@]2(O)C(F)(F)F (nonaromatic ring conformer: 63.035903230943596 kcal/mol)

>  <smiles>  (31) 
NC(=O)c1cccc2c1-c1ccccc1C2(O)C(F)(F)F

>  <score_type>  (31) 
oracle

>  <origin>  (31) 
adg

>  <m_score__min__energy>  (31) 
-9.6099999999999994

>  <m_primary>  (31) 
energy

$$$$
31:0
     RDKit          3D

 54 56  0  0  0  0  0  0  0  0999 V2000
   64.9970   33.8870   51.5680 C   0  0  0  0  0  0  0  0  0  0  0  0
   64.3980   32.7460   50.3330 S   0  0  0  0  0  0  0  0  0  0  0  0
   64.9200   31.3750   50.6640 O   0  0  0  0  0  0  0  0  0  0  0  0
   64.9440   33.1560   48.9930 O   0  0  0  0  0  0  0  0  0  0  0  0
   62.6520   32.6900   50.2590 N   0  0  1  0  0  0  0  0  0  0  0  0
   62.0770   32.6750   51.6210 C   0  0  0  0  0  0  0  0  0  0  0  0
   60.5740   32.5300   51.5840 C   0  0  0  0  0  0  0  0  0  0  0  0
   59.9840   31.4800   50.8600 C   0  0  0  0  0  0  0  0  0  0  0  0
   58.5930   31.3810   50.7720 C   0  0  0  0  0  0  0  0  0  0  0  0
   57.7820   32.3310   51.3990 C   0  0  0  0  0  0  0  0  0  0  0  0
   58.3600   33.3790   52.1190 C   0  0  0  0  0  0  0  0  0  0  0  0
   59.7520   33.4820   52.2090 C   0  0  0  0  0  0  0  0  0  0  0  0
   62.1600   33.8150   49.4900 C   0  0  0  0  0  0  0  0  0  0  0  0
   62.6390   34.9660   49.6970 O   0  0  0  0  0  0  0  0  0  0  0  0
   61.0990   33.6640   48.4550 C   0  0  0  0  0  0  0  0  0  0  0  0
   61.3520   32.8800   47.3140 C   0  0  0  0  0  0  0  0  0  0  0  0
   60.3810   32.7340   46.3210 C   0  0  0  0  0  0  0  0  0  0  0  0
   59.1400   33.3690   46.4470 C   0  0  0  0  0  0  0  0  0  0  0  0
   57.9060   33.1680   45.2000 S   0  0  0  0  0  0  0  0  0  0  0  0
   58.5130   33.4470   43.8530 O   0  0  0  0  0  0  0  0  0  0  0  0
   56.8040   34.1640   45.4290 O   0  0  0  0  0  0  0  0  0  0  0  0
   57.2330   31.5530   45.2180 N   0  0  0  0  0  0  0  0  0  0  0  0
   58.0740   30.6200   46.0100 C   0  0  0  0  0  0  0  0  0  0  0  0
   58.9160   29.6810   45.1340 C   0  0  0  0  0  0  0  0  0  0  0  0
   58.0280   28.8490   44.1910 C   0  0  0  0  0  0  0  0  0  0  0  0
   56.7400   29.5850   43.7830 C   0  0  0  0  0  0  0  0  0  0  0  0
   56.9350   31.1040   43.8420 C   0  0  0  0  0  0  0  0  0  0  0  0
   58.8860   34.1660   47.5690 C   0  0  0  0  0  0  0  0  0  0  0  0
   59.8550   34.3140   48.5650 C   0  0  0  0  0  0  0  0  0  0  0  0
   64.7865   33.4860   52.5705 H   0  0  0  0  0  0  0  0  0  0  0  0
   66.0820   34.0216   51.4473 H   0  0  0  0  0  0  0  0  0  0  0  0
   64.4916   34.8565   51.4473 H   0  0  0  0  0  0  0  0  0  0  0  0
   62.4280   31.7880   49.7830 H   0  0  0  0  0  0  0  0  0  0  0  0
   62.5043   31.8297   52.1804 H   0  0  0  0  0  0  0  0  0  0  0  0
   62.3204   33.6300   52.1097 H   0  0  0  0  0  0  0  0  0  0  0  0
   60.6193   30.7335   50.3609 H   0  0  0  0  0  0  0  0  0  0  0  0
   58.1357   30.5543   50.2085 H   0  0  0  0  0  0  0  0  0  0  0  0
   56.6872   32.2532   51.3253 H   0  0  0  0  0  0  0  0  0  0  0  0
   57.7203   34.1236   52.6154 H   0  0  0  0  0  0  0  0  0  0  0  0
   60.2047   34.3119   52.7715 H   0  0  0  0  0  0  0  0  0  0  0  0
   62.3241   32.3773   47.2032 H   0  0  0  0  0  0  0  0  0  0  0  0
   60.5925   32.1169   45.4353 H   0  0  0  0  0  0  0  0  0  0  0  0
   58.7522   31.2108   46.6432 H   0  0  0  0  0  0  0  0  0  0  0  0
   57.3964   29.9929   46.6080 H   0  0  0  0  0  0  0  0  0  0  0  0
   59.6133   30.2821   44.5319 H   0  0  0  0  0  0  0  0  0  0  0  0
   59.4647   28.9914   45.7923 H   0  0  0  0  0  0  0  0  0  0  0  0
   58.6023   28.6152   43.2824 H   0  0  0  0  0  0  0  0  0  0  0  0
   57.7323   27.9379   44.7319 H   0  0  0  0  0  0  0  0  0  0  0  0
   56.4702   29.2963   42.7564 H   0  0  0  0  0  0  0  0  0  0  0  0
   55.9394   29.3063   44.4839 H   0  0  0  0  0  0  0  0  0  0  0  0
   57.7713   31.3839   43.1845 H   0  0  0  0  0  0  0  0  0  0  0  0
   56.0033   31.5872   43.5128 H   0  0  0  0  0  0  0  0  0  0  0  0
   57.9179   34.6790   47.6675 H   0  0  0  0  0  0  0  0  0  0  0  0
   59.6441   34.9435   49.4421 H   0  0  0  0  0  0  0  0  0  0  0  0
  1  2  1  0
  2  3  2  0
  2  4  2  0
  2  5  1  0
  5  6  1  0
  6  7  1  0
  7  8  2  0
  8  9  1  0
  9 10  2  0
 10 11  1  0
 11 12  2  0
  5 13  1  0
 13 14  2  0
 13 15  1  0
 15 16  2  0
 16 17  1  0
 17 18  2  0
 18 19  1  0
 19 20  2  0
 19 21  2  0
 19 22  1  0
 22 23  1  0
 23 24  1  0
 24 25  1  0
 25 26  1  0
 26 27  1  0
 18 28  1  0
 28 29  2  0
 12  7  1  0
 29 15  1  0
 27 22  1  0
  1 30  1  0
  1 31  1  0
  1 32  1  0
  5 33  1  6
  6 34  1  0
  6 35  1  0
  8 36  1  0
  9 37  1  0
 10 38  1  0
 11 39  1  0
 12 40  1  0
 16 41  1  0
 17 42  1  0
 23 43  1  0
 23 44  1  0
 24 45  1  0
 24 46  1  0
 25 47  1  0
 25 48  1  0
 26 49  1  0
 26 50  1  0
 27 51  1  0
 27 52  1  0
 28 53  1  0
 29 54  1  0
M  CHG  1   5   1
M  END
>  <UniqueID>  (32) 
30

>  <SMILES>  (32) 
CS(=O)(=O)[N@@H+](Cc1ccccc1)C(=O)c1ccc(S(=O)(=O)N2CCCCC2)cc1

>  <Energy>  (32) 
57.63671910484212

>  <Genealogy>  (32) 
CS(=O)(=O)[NH+](Cc1ccccc1)C(=O)c1ccc(S(=O)(=O)N2CCCCC2)cc1 (protonated)
CS(=O)(=O)[N@@H+](Cc1ccccc1)C(=O)c1ccc(S(=O)(=O)N2CCCCC2)cc1 (chirality)
CS(=O)(=O)[N@@H+](Cc1ccccc1)C(=O)c1ccc(S(=O)(=O)N2CCCCC2)cc1 (3D coordinates assigned)
CS(=O)(=O)[N@@H+](Cc1ccccc1)C(=O)c1ccc(S(=O)(=O)N2CCCCC2)cc1 (nonaromatic ring conformer: 57.63671910484212 kcal/mol)

>  <smiles>  (32) 
CS(=O)(=O)N(Cc1ccccc1)C(=O)c1ccc(S(=O)(=O)N2CCCCC2)cc1

>  <score_type>  (32) 
oracle

>  <origin>  (32) 
adg

>  <m_score__min__energy>  (32) 
-8.3699999999999992

>  <m_primary>  (32) 
energy

$$$$
32:0
     RDKit          3D

 34 36  0  0  0  0  0  0  0  0999 V2000
   58.3481   26.1464   47.3664 H   0  0  0  0  0  0  0  0  0  0  0  0
   58.0260   26.1770   46.3150 C   0  0  0  0  0  0  0  0  0  0  0  0
   58.5090   27.0910   45.5290 N   0  0  0  0  0  0  0  0  0  0  0  0
   57.8990   28.3630   45.2750 C   0  0  0  0  0  0  0  0  0  0  0  0
   58.5250   29.5300   45.5250 N   0  0  0  0  0  0  0  0  0  0  0  0
   57.6620   30.4680   45.1700 N   0  0  0  0  0  0  0  0  0  0  0  0
   57.9110   31.8500   45.2670 N   0  0  0  0  0  0  0  0  0  0  0  0
   58.0350   32.5590   46.5270 C   0  0  0  0  0  0  0  0  0  0  0  0
   57.1455   32.3917   47.1521 H   0  0  0  0  0  0  0  0  0  0  0  0
   58.9027   32.2130   47.1079 H   0  0  0  0  0  0  0  0  0  0  0  0
   58.1540   34.0300   46.1520 C   0  0  0  0  0  0  0  0  0  0  0  0
   57.2041   34.5507   46.3430 H   0  0  0  0  0  0  0  0  0  0  0  0
   58.9294   34.5348   46.7469 H   0  0  0  0  0  0  0  0  0  0  0  0
   58.4860   34.0620   44.6590 C   0  0  0  0  0  0  0  0  0  0  0  0
   57.9227   34.8640   44.1595 H   0  0  0  0  0  0  0  0  0  0  0  0
   59.5548   34.2586   44.4884 H   0  0  0  0  0  0  0  0  0  0  0  0
   58.0740   32.7030   44.1070 C   0  0  0  0  0  0  0  0  0  0  0  0
   57.1274   32.7837   43.5525 H   0  0  0  0  0  0  0  0  0  0  0  0
   58.8213   32.3024   43.4063 H   0  0  0  0  0  0  0  0  0  0  0  0
   56.5380   29.8820   44.7160 C   0  0  0  0  0  0  0  0  0  0  0  0
   55.6501   30.4205   44.3531 H   0  0  0  0  0  0  0  0  0  0  0  0
   56.6570   28.5450   44.7700 N   0  0  0  0  0  0  0  0  0  0  0  0
   55.9450   27.8390   44.4850 H   0  0  0  0  0  0  0  0  0  0  0  0
   57.0500   25.1740   45.8260 C   0  0  0  0  0  0  0  0  0  0  0  0
   57.5220   23.8920   45.4920 C   0  0  0  0  0  0  0  0  0  0  0  0
   58.5922   23.6608   45.5977 H   0  0  0  0  0  0  0  0  0  0  0  0
   56.6440   22.9090   45.0270 C   0  0  0  0  0  0  0  0  0  0  0  0
   57.0254   21.9099   44.7694 H   0  0  0  0  0  0  0  0  0  0  0  0
   55.2860   23.1920   44.8890 C   0  0  0  0  0  0  0  0  0  0  0  0
   54.5973   22.4169   44.5216 H   0  0  0  0  0  0  0  0  0  0  0  0
   54.8000   24.4590   45.2170 C   0  0  0  0  0  0  0  0  0  0  0  0
   53.7276   24.6783   45.1078 H   0  0  0  0  0  0  0  0  0  0  0  0
   55.6690   25.4520   45.6840 C   0  0  0  0  0  0  0  0  0  0  0  0
   55.1470   26.7010   45.9990 O   0  0  0  0  0  0  0  0  0  0  0  0
  1  2  1  0
  2  3  2  0
  3  4  1  0
  4  5  2  0
  5  6  1  0
  6  7  1  0
  7  8  1  0
  8  9  1  0
  8 10  1  0
  8 11  1  0
 11 12  1  0
 11 13  1  0
 11 14  1  0
 14 15  1  0
 14 16  1  0
 14 17  1  0
 17 18  1  0
 17 19  1  0
  6 20  1  0
 20 21  1  0
 20 22  2  0
 22 23  1  0
  2 24  1  0
 24 25  2  0
 25 26  1  0
 25 27  1  0
 27 28  1  0
 27 29  2  0
 29 30  1  0
 29 31  1  0
 31 32  1  0
 31 33  2  0
 33 34  1  0
 22  4  1  0
 33 24  1  0
 17  7  1  0
M  CHG  2  22   1  34  -1
M  END
>  <UniqueID>  (33) 
31

>  <SMILES>  (33) 
[O-]c1ccccc1/C=N/c1nn(N2CCCC2)c[nH+]1

>  <Energy>  (33) 
72.19361850925183

>  <Genealogy>  (33) 
[O-]c1ccccc1C=Nc1nn(N2CCCC2)c[nH+]1 (protonated)
[O-]c1ccccc1/C=N/c1nn(N2CCCC2)c[nH+]1 (cis-trans isomerization)
[O-]c1ccccc1/C=N/c1nn(N2CCCC2)c[nH+]1 (3D coordinates assigned)
[O-]c1ccccc1/C=N/c1nn(N2CCCC2)c[nH+]1 (nonaromatic ring conformer: 72.19361850925183 kcal/mol)

>  <smiles>  (33) 
Oc1ccccc1C=Nc1ncn(N2CCCC2)n1

>  <score_type>  (33) 
oracle

>  <origin>  (33) 
adg

>  <m_score__min__energy>  (33) 
-9.6099999999999994

>  <m_primary>  (33) 
energy

$$$$
33:0
     RDKit          3D

 42 44  0  0  0  0  0  0  0  0999 V2000
   54.9370   27.0880   46.4760 H   0  0  0  0  0  0  0  0  0  0  0  0
   55.5540   27.1030   45.6340 N   0  0  0  0  0  0  0  0  0  0  0  0
   56.8910   27.5950   45.7120 C   0  0  0  0  0  0  0  0  0  0  0  0
   57.8340   26.7800   45.9070 O   0  0  0  0  0  0  0  0  0  0  0  0
   57.1710   29.0420   45.5660 C   0  0  0  0  0  0  0  0  0  0  0  0
   56.5050   29.8080   44.5910 C   0  0  0  0  0  0  0  0  0  0  0  0
   55.7692   29.3285   43.9287 H   0  0  0  0  0  0  0  0  0  0  0  0
   56.7720   31.1750   44.4580 C   0  0  0  0  0  0  0  0  0  0  0  0
   56.2481   31.7630   43.6900 H   0  0  0  0  0  0  0  0  0  0  0  0
   57.7030   31.7980   45.2980 C   0  0  0  0  0  0  0  0  0  0  0  0
   58.0490   33.5140   45.1170 S   0  0  0  0  0  0  0  0  0  0  0  0
   56.8730   34.1990   44.4790 O   0  0  0  0  0  0  0  0  0  0  0  0
   59.2580   33.6930   44.2420 O   0  0  0  0  0  0  0  0  0  0  0  0
   58.3500   34.1940   46.6840 N   0  0  0  0  0  0  0  0  0  0  0  0
   59.4510   34.0120   47.3460 C   0  0  0  0  0  0  0  0  0  0  0  0
   59.4360   33.8390   48.6870 N   0  0  0  0  0  0  0  0  0  0  0  0
   60.5750   33.6490   49.4000 C   0  0  0  0  0  0  0  0  0  0  0  0
   60.4720   33.4740   50.7910 C   0  0  0  0  0  0  0  0  0  0  0  0
   59.1280   33.4920   51.4720 C   0  0  0  0  0  0  0  0  0  0  0  0
   59.2696   33.4901   52.5628 H   0  0  0  0  0  0  0  0  0  0  0  0
   58.5786   34.3976   51.1752 H   0  0  0  0  0  0  0  0  0  0  0  0
   58.5546   32.6015   51.1752 H   0  0  0  0  0  0  0  0  0  0  0  0
   61.6250   33.2780   51.5480 C   0  0  0  0  0  0  0  0  0  0  0  0
   61.5461   33.1341   52.6357 H   0  0  0  0  0  0  0  0  0  0  0  0
   62.8720   33.2630   50.9400 C   0  0  0  0  0  0  0  0  0  0  0  0
   63.7690   33.1084   51.5577 H   0  0  0  0  0  0  0  0  0  0  0  0
   63.0160   33.4410   49.5510 C   0  0  0  0  0  0  0  0  0  0  0  0
   64.4330   33.4270   49.0280 C   0  0  0  0  0  0  0  0  0  0  0  0
   65.1360   33.4201   49.8740 H   0  0  0  0  0  0  0  0  0  0  0  0
   64.5886   32.5273   48.4146 H   0  0  0  0  0  0  0  0  0  0  0  0
   64.6063   34.3235   48.4146 H   0  0  0  0  0  0  0  0  0  0  0  0
   61.8430   33.6310   48.7410 C   0  0  0  0  0  0  0  0  0  0  0  0
   61.8200   33.8060   47.3170 C   0  0  0  0  0  0  0  0  0  0  0  0
   63.0210   33.7910   46.4160 C   0  0  0  0  0  0  0  0  0  0  0  0
   63.9366   33.7796   47.0256 H   0  0  0  0  0  0  0  0  0  0  0  0
   62.9919   32.8931   45.7812 H   0  0  0  0  0  0  0  0  0  0  0  0
   63.0144   34.6893   45.7812 H   0  0  0  0  0  0  0  0  0  0  0  0
   60.6280   33.9900   46.6870 N   0  0  0  0  0  0  0  0  0  0  0  0
   58.3750   31.0410   46.2650 C   0  0  0  0  0  0  0  0  0  0  0  0
   59.1149   31.5231   46.9208 H   0  0  0  0  0  0  0  0  0  0  0  0
   58.1100   29.6750   46.4010 C   0  0  0  0  0  0  0  0  0  0  0  0
   58.6401   29.0902   47.1672 H   0  0  0  0  0  0  0  0  0  0  0  0
  1  2  1  0
  2  3  1  0
  3  4  2  0
  3  5  1  0
  5  6  2  0
  6  7  1  0
  6  8  1  0
  8  9  1  0
  8 10  2  0
 10 11  1  0
 11 12  2  0
 11 13  2  0
 11 14  1  0
 14 15  2  0
 15 16  1  0
 16 17  2  0
 17 18  1  0
 18 19  1  0
 19 20  1  0
 19 21  1  0
 19 22  1  0
 18 23  2  0
 23 24  1  0
 23 25  1  0
 25 26  1  0
 25 27  2  0
 27 28  1  0
 28 29  1  0
 28 30  1  0
 28 31  1  0
 27 32  1  0
 32 33  2  0
 33 34  1  0
 34 35  1  0
 34 36  1  0
 34 37  1  0
 33 38  1  0
 10 39  1  0
 39 40  1  0
 39 41  2  0
 41 42  1  0
 41  5  1  0
 38 15  1  0
 32 17  1  0
M  CHG  2   2  -1  38  -1
M  END
>  <UniqueID>  (34) 
32

>  <SMILES>  (34) 
Cc1ccc(C)c2c(C)[n-]/c(=N/S(=O)(=O)c3ccc(C([NH-])=O)cc3)nc12

>  <Energy>  (34) 
61.864266691910714

>  <Genealogy>  (34) 
Cc1ccc(C)c2c(C)[n-]c(=NS(=O)(=O)c3ccc(C([NH-])=O)cc3)nc12 (protonated)
Cc1ccc(C)c2c(C)[n-]/c(=N/S(=O)(=O)c3ccc(C([NH-])=O)cc3)nc12 (cis-trans isomerization)
Cc1ccc(C)c2c(C)[n-]/c(=N/S(=O)(=O)c3ccc(C([NH-])=O)cc3)nc12 (3D coordinates assigned)
Cc1ccc(C)c2c(C)[n-]/c(=N/S(=O)(=O)c3ccc(C([NH-])=O)cc3)nc12 (optimized conformer: 61.864266691910714 kcal/mol)

>  <smiles>  (34) 
Cc1ccc(C)c2c(C)[nH]c(=NS(=O)(=O)c3ccc(C(N)=O)cc3)nc12

>  <score_type>  (34) 
oracle

>  <origin>  (34) 
adg

>  <m_score__min__energy>  (34) 
-12.279999999999999

>  <m_primary>  (34) 
energy

$$$$
34:0
     RDKit          3D

 33 34  0  0  0  0  0  0  0  0999 V2000
   56.8680   25.0510   45.6180 C   0  0  0  0  0  0  0  0  0  0  0  0
   56.0840   26.2600   46.0020 C   0  0  0  0  0  0  0  0  0  0  0  0
   54.8250   26.2150   45.9860 O   0  0  0  0  0  0  0  0  0  0  0  0
   56.7630   27.3870   46.4790 O   0  0  0  0  0  0  0  0  0  0  0  0
   57.9560   27.9110   45.9550 C   0  0  0  0  0  0  0  0  0  0  0  0
   59.2040   27.3210   46.2360 C   0  0  0  0  0  0  0  0  0  0  0  0
   60.3750   27.8430   45.6820 C   0  0  0  0  0  0  0  0  0  0  0  0
   60.3180   28.9600   44.8490 C   0  0  0  0  0  0  0  0  0  0  0  0
   59.0920   29.5710   44.5830 C   0  0  0  0  0  0  0  0  0  0  0  0
   57.9060   29.0720   45.1500 C   0  0  0  0  0  0  0  0  0  0  0  0
   56.6250   29.7610   44.8580 C   0  0  0  0  0  0  0  0  0  0  0  0
   55.5480   29.1140   44.9400 O   0  0  0  0  0  0  0  0  0  0  0  0
   56.5630   31.1530   44.5160 N   0  0  0  0  0  0  0  0  0  0  0  0
   57.3640   32.2040   45.0750 C   0  0  0  0  0  0  0  0  0  0  0  0
   57.7020   33.3500   44.3330 C   0  0  0  0  0  0  0  0  0  0  0  0
   58.4900   34.3520   44.9070 C   0  0  0  0  0  0  0  0  0  0  0  0
   58.9360   34.2290   46.2300 C   0  0  0  0  0  0  0  0  0  0  0  0
   59.7440   35.2530   46.8160 N   0  0  0  0  0  0  0  0  0  0  0  0
   58.5780   33.0980   46.9770 C   0  0  0  0  0  0  0  0  0  0  0  0
   57.7900   32.0960   46.4030 C   0  0  0  0  0  0  0  0  0  0  0  0
   57.2061   24.5297   46.5257 H   0  0  0  0  0  0  0  0  0  0  0  0
   56.2346   24.3771   45.0225 H   0  0  0  0  0  0  0  0  0  0  0  0
   57.7417   25.3544   45.0225 H   0  0  0  0  0  0  0  0  0  0  0  0
   59.2566   26.4429   46.8965 H   0  0  0  0  0  0  0  0  0  0  0  0
   61.3442   27.3721   45.9032 H   0  0  0  0  0  0  0  0  0  0  0  0
   61.2399   29.3596   44.4014 H   0  0  0  0  0  0  0  0  0  0  0  0
   59.0530   30.4508   43.9239 H   0  0  0  0  0  0  0  0  0  0  0  0
   57.3453   33.4582   43.2981 H   0  0  0  0  0  0  0  0  0  0  0  0
   58.7611   35.2405   44.3179 H   0  0  0  0  0  0  0  0  0  0  0  0
   60.7710   35.1120   46.9520 H   0  0  0  0  0  0  0  0  0  0  0  0
   59.3230   36.1600   47.1180 H   0  0  0  0  0  0  0  0  0  0  0  0
   58.9183   32.9986   48.0183 H   0  0  0  0  0  0  0  0  0  0  0  0
   57.5032   31.2173   46.9993 H   0  0  0  0  0  0  0  0  0  0  0  0
  1  2  1  0
  2  3  2  0
  2  4  1  0
  4  5  1  0
  5  6  2  0
  6  7  1  0
  7  8  2  0
  8  9  1  0
  9 10  2  0
 10 11  1  0
 11 12  2  0
 11 13  1  0
 13 14  1  0
 14 15  2  0
 15 16  1  0
 16 17  2  0
 17 18  1  0
 17 19  1  0
 19 20  2  0
 10  5  1  0
 20 14  1  0
  1 21  1  0
  1 22  1  0
  1 23  1  0
  6 24  1  0
  7 25  1  0
  8 26  1  0
  9 27  1  0
 15 28  1  0
 16 29  1  0
 18 30  1  0
 18 31  1  0
 19 32  1  0
 20 33  1  0
M  CHG  1  13  -1
M  END
>  <UniqueID>  (35) 
33

>  <SMILES>  (35) 
CC(=O)Oc1ccccc1C(=O)[N-]c1ccc(N)cc1

>  <Energy>  (35) 
42.53938944068962

>  <Genealogy>  (35) 
CC(=O)Oc1ccccc1C(=O)[N-]c1ccc(N)cc1 (protonated)
CC(=O)Oc1ccccc1C(=O)[N-]c1ccc(N)cc1 (3D coordinates assigned)
CC(=O)Oc1ccccc1C(=O)[N-]c1ccc(N)cc1 (optimized conformer: 42.53938944068962 kcal/mol)

>  <smiles>  (35) 
CC(=O)Oc1ccccc1C(=O)Nc1ccc(N)cc1

>  <score_type>  (35) 
oracle

>  <origin>  (35) 
adg

>  <m_score__min__energy>  (35) 
-9.1699999999999999

>  <m_primary>  (35) 
energy

$$$$
35:0
     RDKit          3D

 27 28  0  0  0  0  0  0  0  0999 V2000
   55.3060   29.3560   44.8760 N   0  0  0  0  0  0  0  0  0  0  0  0
   57.0120   29.6070   44.7610 S   0  0  0  0  0  0  0  0  0  0  0  0
   57.4190   30.7060   45.7020 O   0  0  0  0  0  0  0  0  0  0  0  0
   57.3680   30.0150   43.3600 O   0  0  0  0  0  0  0  0  0  0  0  0
   57.8550   28.1180   45.1790 C   0  0  0  0  0  0  0  0  0  0  0  0
   58.9650   28.1500   46.0320 C   0  0  0  0  0  0  0  0  0  0  0  0
   59.6210   26.9660   46.3730 C   0  0  0  0  0  0  0  0  0  0  0  0
   59.1700   25.7430   45.8720 C   0  0  0  0  0  0  0  0  0  0  0  0
   58.0520   25.6910   45.0200 C   0  0  0  0  0  0  0  0  0  0  0  0
   57.5680   24.3910   44.4880 C   0  0  0  0  0  0  0  0  0  0  0  0
   56.6090   24.3460   43.4620 C   0  0  0  0  0  0  0  0  0  0  0  0
   56.1750   23.1510   42.9800 N   0  0  0  0  0  0  0  0  0  0  0  0
   56.6370   21.9690   43.4620 C   0  0  0  0  0  0  0  0  0  0  0  0
   56.1980   20.8900   42.9800 O   0  0  0  0  0  0  0  0  0  0  0  0
   57.5950   21.9560   44.4880 C   0  0  0  0  0  0  0  0  0  0  0  0
   58.0970   20.7230   45.0180 N   0  0  0  0  0  0  0  0  0  0  0  0
   58.0570   23.1760   44.9960 C   0  0  0  0  0  0  0  0  0  0  0  0
   57.3970   26.8890   44.6810 C   0  0  0  0  0  0  0  0  0  0  0  0
   55.1530   28.6420   45.6240 H   0  0  0  0  0  0  0  0  0  0  0  0
   59.3207   29.1101   46.4342 H   0  0  0  0  0  0  0  0  0  0  0  0
   60.4962   26.9964   47.0386 H   0  0  0  0  0  0  0  0  0  0  0  0
   59.6924   24.8144   46.1454 H   0  0  0  0  0  0  0  0  0  0  0  0
   56.2074   25.2821   43.0467 H   0  0  0  0  0  0  0  0  0  0  0  0
   58.9190   20.7160   45.6640 H   0  0  0  0  0  0  0  0  0  0  0  0
   57.6570   19.8090   44.7750 H   0  0  0  0  0  0  0  0  0  0  0  0
   58.8087   23.1833   45.7991 H   0  0  0  0  0  0  0  0  0  0  0  0
   56.5183   26.8619   44.0198 H   0  0  0  0  0  0  0  0  0  0  0  0
  1  2  1  0
  2  3  2  0
  2  4  2  0
  2  5  1  0
  5  6  2  0
  6  7  1  0
  7  8  2  0
  8  9  1  0
  9 10  1  0
 10 11  2  0
 11 12  1  0
 12 13  1  0
 13 14  2  0
 13 15  1  0
 15 16  1  0
 15 17  2  0
  9 18  2  0
 18  5  1  0
 17 10  1  0
  1 19  1  0
  6 20  1  0
  7 21  1  0
  8 22  1  0
 11 23  1  0
 16 24  1  0
 16 25  1  0
 17 26  1  0
 18 27  1  0
M  CHG  2   1  -1  12  -1
M  END
>  <UniqueID>  (36) 
34

>  <SMILES>  (36) 
[NH-]S(=O)(=O)c1cccc(-c2c[n-]c(=O)c(N)c2)c1

>  <Energy>  (36) 
33.326470936915605

>  <Genealogy>  (36) 
[NH-]S(=O)(=O)c1cccc(-c2c[n-]c(=O)c(N)c2)c1 (protonated)
[NH-]S(=O)(=O)c1cccc(-c2c[n-]c(=O)c(N)c2)c1 (3D coordinates assigned)
[NH-]S(=O)(=O)c1cccc(-c2c[n-]c(=O)c(N)c2)c1 (optimized conformer: 33.326470936915605 kcal/mol)

>  <smiles>  (36) 
Nc1cc(-c2cccc(S(N)(=O)=O)c2)c[nH]c1=O

>  <score_type>  (36) 
oracle

>  <origin>  (36) 
adg

>  <m_score__min__energy>  (36) 
-10.960000000000001

>  <m_primary>  (36) 
energy

$$$$
36:0
     RDKit          3D

 45 48  0  0  0  0  0  0  0  0999 V2000
   57.4640   28.4130   46.9940 O   0  0  0  0  0  0  0  0  0  0  0  0
   58.1880   29.1390   46.2590 C   0  0  0  0  0  0  0  0  0  0  0  0
   59.5660   29.3410   46.6010 N   0  0  0  0  0  0  0  0  0  0  0  0
   60.0710   29.6440   47.7640 C   0  0  0  0  0  0  0  0  0  0  0  0
   60.5750   28.7850   48.7420 C   0  0  0  0  0  0  0  0  0  0  0  0
   60.4890   27.3190   48.8850 C   0  0  0  0  0  0  0  0  0  0  0  0
   60.4740   26.8260   50.0430 O   0  0  0  0  0  0  0  0  0  0  0  0
   60.4110   26.4310   47.7600 N   0  0  0  0  0  0  0  0  0  0  0  0
   59.2390   26.0480   47.0250 C   0  0  0  0  0  0  0  0  0  0  0  0
   58.1320   25.5610   47.7340 C   0  0  0  0  0  0  0  0  0  0  0  0
   56.9800   25.1550   47.0550 C   0  0  0  0  0  0  0  0  0  0  0  0
   56.9150   25.2570   45.6620 C   0  0  0  0  0  0  0  0  0  0  0  0
   55.7980   24.8600   45.0040 F   0  0  0  0  0  0  0  0  0  0  0  0
   57.9980   25.7810   44.9510 C   0  0  0  0  0  0  0  0  0  0  0  0
   59.1530   26.1880   45.6280 C   0  0  0  0  0  0  0  0  0  0  0  0
   60.9780   29.6330   49.7590 C   0  0  0  0  0  0  0  0  0  0  0  0
   60.7000   30.9080   49.4280 N   0  0  0  0  0  0  0  0  0  0  0  0
   60.1520   30.9130   48.2220 N   0  0  0  0  0  0  0  0  0  0  0  0
   59.7090   32.1180   47.5690 C   0  0  0  0  0  0  0  0  0  0  0  0
   60.6550   33.0200   47.0540 C   0  0  0  0  0  0  0  0  0  0  0  0
   60.2420   34.1920   46.4140 C   0  0  0  0  0  0  0  0  0  0  0  0
   58.8800   34.4690   46.2720 C   0  0  0  0  0  0  0  0  0  0  0  0
   57.9300   33.5710   46.7630 C   0  0  0  0  0  0  0  0  0  0  0  0
   58.3390   32.3970   47.4050 C   0  0  0  0  0  0  0  0  0  0  0  0
   57.6470   29.7220   45.0040 C   0  0  0  0  0  0  0  0  0  0  0  0
   58.4310   30.6320   44.2660 C   0  0  0  0  0  0  0  0  0  0  0  0
   57.9310   31.2250   43.1050 C   0  0  0  0  0  0  0  0  0  0  0  0
   56.6440   30.9200   42.6600 C   0  0  0  0  0  0  0  0  0  0  0  0
   55.8540   30.0210   43.3770 C   0  0  0  0  0  0  0  0  0  0  0  0
   56.3430   29.4210   44.5430 C   0  0  0  0  0  0  0  0  0  0  0  0
   55.5200   28.5390   45.2330 O   0  0  0  0  0  0  0  0  0  0  0  0
   58.1704   25.4981   48.8315 H   0  0  0  0  0  0  0  0  0  0  0  0
   56.1234   24.7547   47.6171 H   0  0  0  0  0  0  0  0  0  0  0  0
   57.9424   25.8737   43.8563 H   0  0  0  0  0  0  0  0  0  0  0  0
   59.9954   26.6183   45.0666 H   0  0  0  0  0  0  0  0  0  0  0  0
   61.4543   29.3130   50.6975 H   0  0  0  0  0  0  0  0  0  0  0  0
   61.7285   32.8023   47.1552 H   0  0  0  0  0  0  0  0  0  0  0  0
   60.9899   34.8968   46.0218 H   0  0  0  0  0  0  0  0  0  0  0  0
   58.5560   35.3945   45.7734 H   0  0  0  0  0  0  0  0  0  0  0  0
   56.8579   33.7870   46.6448 H   0  0  0  0  0  0  0  0  0  0  0  0
   57.5868   31.6890   47.7832 H   0  0  0  0  0  0  0  0  0  0  0  0
   59.4472   30.8774   44.6083 H   0  0  0  0  0  0  0  0  0  0  0  0
   58.5532   31.9344   42.5397 H   0  0  0  0  0  0  0  0  0  0  0  0
   56.2527   31.3880   41.7447 H   0  0  0  0  0  0  0  0  0  0  0  0
   54.8401   29.7822   43.0235 H   0  0  0  0  0  0  0  0  0  0  0  0
  1  2  2  0
  2  3  1  0
  3  4  2  3
  4  5  1  0
  5  6  1  0
  6  7  2  0
  6  8  1  0
  8  9  1  0
  9 10  2  0
 10 11  1  0
 11 12  2  0
 12 13  1  0
 12 14  1  0
 14 15  2  0
  5 16  2  0
 16 17  1  0
 17 18  1  0
 18 19  1  0
 19 20  2  0
 20 21  1  0
 21 22  2  0
 22 23  1  0
 23 24  2  0
  2 25  1  0
 25 26  2  0
 26 27  1  0
 27 28  2  0
 28 29  1  0
 29 30  2  0
 30 31  1  0
 18  4  1  0
 24 19  1  0
 30 25  1  0
 15  9  1  0
 10 32  1  0
 11 33  1  0
 14 34  1  0
 15 35  1  0
 16 36  1  0
 20 37  1  0
 21 38  1  0
 22 39  1  0
 23 40  1  0
 24 41  1  0
 26 42  1  0
 27 43  1  0
 28 44  1  0
 29 45  1  0
M  CHG  3   8  -1  17  -1  31  -1
M  END
>  <UniqueID>  (37) 
35

>  <SMILES>  (37) 
O=C(N=c1c(C(=O)[N-]c2ccc(F)cc2)c[n-]n1-c1ccccc1)c1ccccc1[O-]

>  <Energy>  (37) 
102.59734089207885

>  <Genealogy>  (37) 
O=C(N=c1c(C(=O)[N-]c2ccc(F)cc2)c[n-]n1-c1ccccc1)c1ccccc1[O-] (protonated)
O=C(N=c1c(C(=O)[N-]c2ccc(F)cc2)c[n-]n1-c1ccccc1)c1ccccc1[O-] (3D coordinates assigned)
O=C(N=c1c(C(=O)[N-]c2ccc(F)cc2)c[n-]n1-c1ccccc1)c1ccccc1[O-] (optimized conformer: 102.59734089207885 kcal/mol)

>  <smiles>  (37) 
O=C(N=c1c(C(=O)Nc2ccc(F)cc2)c[nH]n1-c1ccccc1)c1ccccc1O

>  <score_type>  (37) 
oracle

>  <origin>  (37) 
adg

>  <m_score__min__energy>  (37) 
-13.720000000000001

>  <m_primary>  (37) 
energy

$$$$
37:0
     RDKit          3D

 61 64  0  0  0  0  0  0  0  0999 V2000
   61.3300   28.9920   50.1580 C   0  0  0  0  0  0  0  0  0  0  0  0
   60.3900   28.3780   49.1600 C   0  0  0  0  0  0  0  0  0  0  0  0
   59.2200   29.0540   48.7790 C   0  0  0  0  0  0  0  0  0  0  0  0
   58.3600   28.4940   47.8260 C   0  0  0  0  0  0  0  0  0  0  0  0
   58.6710   27.2610   47.2350 C   0  0  0  0  0  0  0  0  0  0  0  0
   57.5870   26.5310   46.0520 S   0  0  0  0  0  0  0  0  0  0  0  0
   58.1900   25.2660   45.5030 O   0  0  0  0  0  0  0  0  0  0  0  0
   56.2890   26.1880   46.7270 O   0  0  0  0  0  0  0  0  0  0  0  0
   57.2790   27.6400   44.7490 N   0  0  0  0  0  0  0  0  0  0  0  0
   58.5050   28.3710   44.4200 C   0  0  0  0  0  0  0  0  0  0  0  0
   58.2710   29.8490   44.5680 C   0  0  0  0  0  0  0  0  0  0  0  0
   57.4990   30.5420   43.6230 C   0  0  0  0  0  0  0  0  0  0  0  0
   57.3180   31.9250   43.7360 C   0  0  0  0  0  0  0  0  0  0  0  0
   57.9050   32.6320   44.7970 C   0  0  0  0  0  0  0  0  0  0  0  0
   57.7480   34.0960   44.9100 C   0  0  0  0  0  0  0  0  0  0  0  0
   56.5900   34.5820   44.9670 O   0  0  0  0  0  0  0  0  0  0  0  0
   58.8700   34.9900   44.9370 N   0  0  0  0  0  0  0  0  0  0  0  0
   60.0190   34.9070   45.8390 C   0  0  0  0  0  0  0  0  0  0  0  0
   59.5830   34.9460   47.3090 C   0  0  0  0  0  0  0  0  0  0  0  0
   59.9730   33.7140   48.0170 N   0  0  0  0  0  0  0  0  0  0  0  0
   58.9630   33.0090   48.8170 C   0  0  0  0  0  0  0  0  0  0  0  0
   59.3940   33.0020   50.2840 C   0  0  0  0  0  0  0  0  0  0  0  0
   60.7440   32.2900   50.4440 C   0  0  0  0  0  0  0  0  0  0  0  0
   61.7610   32.7130   49.4060 C   0  0  0  0  0  0  0  0  0  0  0  0
   63.1110   32.3820   49.6060 C   0  0  0  0  0  0  0  0  0  0  0  0
   64.0620   32.6650   48.6230 C   0  0  0  0  0  0  0  0  0  0  0  0
   63.6690   33.2500   47.4190 C   0  0  0  0  0  0  0  0  0  0  0  0
   62.3280   33.5760   47.2010 C   0  0  0  0  0  0  0  0  0  0  0  0
   61.3610   33.3390   48.2010 C   0  0  0  0  0  0  0  0  0  0  0  0
   58.7120   31.9430   45.7160 C   0  0  0  0  0  0  0  0  0  0  0  0
   58.8900   30.5620   45.6060 C   0  0  0  0  0  0  0  0  0  0  0  0
   59.8460   26.5930   47.6030 C   0  0  0  0  0  0  0  0  0  0  0  0
   60.7060   27.1520   48.5540 C   0  0  0  0  0  0  0  0  0  0  0  0
   60.9826   28.7651   51.1767 H   0  0  0  0  0  0  0  0  0  0  0  0
   62.3390   28.5783   50.0140 H   0  0  0  0  0  0  0  0  0  0  0  0
   61.3567   30.0822   50.0140 H   0  0  0  0  0  0  0  0  0  0  0  0
   58.9778   30.0273   49.2308 H   0  0  0  0  0  0  0  0  0  0  0  0
   57.4385   29.0226   47.5405 H   0  0  0  0  0  0  0  0  0  0  0  0
   57.0120   27.0570   43.9210 H   0  0  0  0  0  0  0  0  0  0  0  0
   59.3105   28.0586   45.1009 H   0  0  0  0  0  0  0  0  0  0  0  0
   58.7921   28.1506   43.3812 H   0  0  0  0  0  0  0  0  0  0  0  0
   57.0339   29.9954   42.7894 H   0  0  0  0  0  0  0  0  0  0  0  0
   56.7128   32.4606   42.9898 H   0  0  0  0  0  0  0  0  0  0  0  0
   60.5547   33.9651   45.6498 H   0  0  0  0  0  0  0  0  0  0  0  0
   60.6705   35.7727   45.6489 H   0  0  0  0  0  0  0  0  0  0  0  0
   60.0584   35.8075   47.8008 H   0  0  0  0  0  0  0  0  0  0  0  0
   58.4870   35.0336   47.3434 H   0  0  0  0  0  0  0  0  0  0  0  0
   57.9947   33.5221   48.7211 H   0  0  0  0  0  0  0  0  0  0  0  0
   58.8649   31.9742   48.4571 H   0  0  0  0  0  0  0  0  0  0  0  0
   59.4873   34.0390   50.6389 H   0  0  0  0  0  0  0  0  0  0  0  0
   58.6367   32.4658   50.8748 H   0  0  0  0  0  0  0  0  0  0  0  0
   61.1454   32.5193   51.4421 H   0  0  0  0  0  0  0  0  0  0  0  0
   60.5661   31.2126   50.3112 H   0  0  0  0  0  0  0  0  0  0  0  0
   63.4215   31.8966   50.5430 H   0  0  0  0  0  0  0  0  0  0  0  0
   65.1214   32.4265   48.7982 H   0  0  0  0  0  0  0  0  0  0  0  0
   64.4171   33.4552   46.6391 H   0  0  0  0  0  0  0  0  0  0  0  0
   62.0236   34.0210   46.2422 H   0  0  0  0  0  0  0  0  0  0  0  0
   59.2077   32.4945   46.5285 H   0  0  0  0  0  0  0  0  0  0  0  0
   59.5182   30.0310   46.3363 H   0  0  0  0  0  0  0  0  0  0  0  0
   60.0933   25.6252   47.1424 H   0  0  0  0  0  0  0  0  0  0  0  0
   61.6339   26.6286   48.8281 H   0  0  0  0  0  0  0  0  0  0  0  0
  1  2  1  0
  2  3  2  0
  3  4  1  0
  4  5  2  0
  5  6  1  0
  6  7  2  0
  6  8  2  0
  6  9  1  0
  9 10  1  0
 10 11  1  0
 11 12  2  0
 12 13  1  0
 13 14  2  0
 14 15  1  0
 15 16  2  0
 15 17  1  0
 17 18  1  0
 18 19  1  0
 19 20  1  0
 20 21  1  0
 21 22  1  0
 22 23  1  0
 23 24  1  0
 24 25  2  0
 25 26  1  0
 26 27  2  0
 27 28  1  0
 28 29  2  0
 14 30  1  0
 30 31  2  0
  5 32  1  0
 32 33  2  0
 33  2  1  0
 31 11  1  0
 29 20  1  0
 29 24  1  0
  1 34  1  0
  1 35  1  0
  1 36  1  0
  3 37  1  0
  4 38  1  0
  9 39  1  0
 10 40  1  0
 10 41  1  0
 12 42  1  0
 13 43  1  0
 18 44  1  0
 18 45  1  0
 19 46  1  0
 19 47  1  0
 21 48  1  0
 21 49  1  0
 22 50  1  0
 22 51  1  0
 23 52  1  0
 23 53  1  0
 25 54  1  0
 26 55  1  0
 27 56  1  0
 28 57  1  0
 30 58  1  0
 31 59  1  0
 32 60  1  0
 33 61  1  0
M  CHG  1  17  -1
M  END
>  <UniqueID>  (38) 
36

>  <SMILES>  (38) 
Cc1ccc(S(=O)(=O)NCc2ccc(C(=O)[N-]CCN3CCCc4ccccc43)cc2)cc1

>  <Energy>  (38) 
62.93385349495079

>  <Genealogy>  (38) 
Cc1ccc(S(=O)(=O)NCc2ccc(C(=O)[N-]CCN3CCCc4ccccc43)cc2)cc1 (protonated)
Cc1ccc(S(=O)(=O)NCc2ccc(C(=O)[N-]CCN3CCCc4ccccc43)cc2)cc1 (3D coordinates assigned)
Cc1ccc(S(=O)(=O)NCc2ccc(C(=O)[N-]CCN3CCCc4ccccc43)cc2)cc1 (nonaromatic ring conformer: 62.93385349495079 kcal/mol)

>  <smiles>  (38) 
Cc1ccc(S(=O)(=O)NCc2ccc(C(=O)NCCN3CCCc4ccccc43)cc2)cc1

>  <score_type>  (38) 
oracle

>  <origin>  (38) 
adg

>  <m_score__min__energy>  (38) 
-10.66

>  <m_primary>  (38) 
energy

$$$$
38:0
     RDKit          3D

 48 51  0  0  1  0  0  0  0  0999 V2000
   57.0620   24.5390   47.5680 C   0  0  0  0  0  0  0  0  0  0  0  0
   56.8510   25.7720   46.7640 C   0  0  0  0  0  0  0  0  0  0  0  0
   57.8400   26.6770   46.3840 C   0  0  0  0  0  0  0  0  0  0  0  0
   60.8200   33.4340   46.9540 C   0  0  0  0  0  0  0  0  0  0  0  0
   59.5800   33.7350   46.7380 N   0  0  0  0  0  0  0  0  0  0  0  0
   57.0050   29.9130   44.8970 C   0  0  0  0  0  0  0  0  0  0  0  0
   55.7480   29.8680   44.7980 O   0  0  0  0  0  0  0  0  0  0  0  0
   57.6670   31.2230   44.7970 C   0  0  0  0  0  0  0  0  0  0  0  0
   57.6270   31.8730   43.5580 C   0  0  0  0  0  0  0  0  0  0  0  0
   58.2230   33.1050   43.3870 C   0  0  0  0  0  0  0  0  0  0  0  0
   58.8710   33.7060   44.4570 C   0  0  0  0  0  0  0  0  0  0  0  0
   58.9000   33.0420   45.6850 C   0  0  0  0  0  0  0  0  0  0  0  0
   57.7600   28.7240   45.1010 N   0  0  0  0  0  0  0  0  0  0  0  0
   57.2270   27.6830   45.6470 C   0  0  0  0  0  0  0  0  0  0  0  0
   61.7780   34.1580   46.3510 N   0  0  0  0  0  0  0  0  0  0  0  0
   63.0830   33.8600   46.5470 C   0  0  0  0  0  0  0  0  0  0  0  0
   63.4720   32.8390   47.3440 N   0  0  0  0  0  0  0  0  0  0  0  0
   62.5120   32.1050   47.9550 C   0  0  0  0  0  0  0  0  0  0  0  0
   62.6090   31.0390   48.7900 N   0  0  0  0  0  0  0  0  0  0  0  0
   61.3540   30.6440   49.1390 C   0  0  0  0  0  0  0  0  0  0  0  0
   61.1100   29.5420   50.0040 N   0  0  0  0  0  0  0  0  0  0  0  0
   61.4380   29.6430   51.4130 C   0  0  0  0  0  0  0  0  0  0  0  0
   60.5170   28.3470   49.4150 C   0  0  0  0  0  0  0  0  0  0  0  0
   60.4270   31.4700   48.5170 C   0  0  0  0  0  0  0  0  0  0  0  0
   61.1630   32.3830   47.7750 C   0  0  0  0  0  0  0  0  0  0  0  0
   58.3080   31.8120   45.8660 C   0  0  0  0  0  0  0  0  0  0  0  0
   55.9160   27.3670   45.6050 N   0  0  0  0  0  0  0  0  0  0  0  0
   55.6930   26.2360   46.2660 N   0  0  0  0  0  0  0  0  0  0  0  0
   57.0194   24.7877   48.6387 H   0  0  0  0  0  0  0  0  0  0  0  0
   56.2760   23.8071   47.3300 H   0  0  0  0  0  0  0  0  0  0  0  0
   58.0466   24.1101   47.3300 H   0  0  0  0  0  0  0  0  0  0  0  0
   58.9113   26.6077   46.6238 H   0  0  0  0  0  0  0  0  0  0  0  0
   57.1139   31.3954   42.7103 H   0  0  0  0  0  0  0  0  0  0  0  0
   58.1850   33.6077   42.4093 H   0  0  0  0  0  0  0  0  0  0  0  0
   59.3531   34.6878   44.3398 H   0  0  0  0  0  0  0  0  0  0  0  0
   63.8504   34.4661   46.0432 H   0  0  0  0  0  0  0  0  0  0  0  0
   64.4910   32.6520   47.4600 H   0  0  0  0  0  0  0  0  0  0  0  0
   63.5260   30.6180   49.0930 H   0  0  0  0  0  0  0  0  0  0  0  0
   60.5579   29.3720   52.0147 H   0  0  0  0  0  0  0  0  0  0  0  0
   62.2668   28.9584   51.6465 H   0  0  0  0  0  0  0  0  0  0  0  0
   61.7381   30.6752   51.6465 H   0  0  0  0  0  0  0  0  0  0  0  0
   60.1817   27.6713   50.2156 H   0  0  0  0  0  0  0  0  0  0  0  0
   59.6565   28.6334   48.7925 H   0  0  0  0  0  0  0  0  0  0  0  0
   61.2655   27.8349   48.7925 H   0  0  0  0  0  0  0  0  0  0  0  0
   59.3314   31.4123   48.5964 H   0  0  0  0  0  0  0  0  0  0  0  0
   58.3458   31.3095   46.8438 H   0  0  0  0  0  0  0  0  0  0  0  0
   55.1530   27.9250   45.1190 H   0  0  0  0  0  0  0  0  0  0  0  0
   54.7380   25.7830   46.3720 H   0  0  0  0  0  0  0  0  0  0  0  0
  1  2  1  0
  2  3  2  0
  3  4  1  0
  4  5  2  0
  5  6  1  0
  6  7  2  0
  6  8  1  0
  8  9  2  0
  9 10  1  0
 10 11  2  0
 11 12  1  0
 12 13  1  0
 13 14  2  0
 14 15  1  0
 15 16  2  0
 16 17  1  0
 17 18  1  0
 18 19  1  0
 19 20  1  0
 20 21  1  0
 21 22  1  0
 21 23  1  0
 20 24  2  0
 24 25  1  0
 12 26  2  0
  4 27  1  0
 27 28  1  0
 28  2  1  0
 26  8  1  0
 25 14  1  0
 25 18  2  0
  1 29  1  0
  1 30  1  0
  1 31  1  0
  3 32  1  0
  9 33  1  0
 10 34  1  0
 11 35  1  0
 16 36  1  0
 17 37  1  0
 19 38  1  0
 22 39  1  0
 22 40  1  0
 22 41  1  0
 23 42  1  0
 23 43  1  0
 23 44  1  0
 24 45  1  0
 26 46  1  0
 27 47  1  0
 28 48  1  0
M  END
>  <smiles>  (39) 
Cc1cc(=NC(=O)c2cccc(N=c3nc[nH]c4[nH]c(N(C)C)cc34)c2)[nH][nH]1

>  <score_type>  (39) 
oracle

>  <origin>  (39) 
adg

>  <m_score__min__energy>  (39) 
-9.0700000000000003

>  <m_primary>  (39) 
energy

$$$$
39:0
     RDKit          3D

 52 55  0  0  1  0  0  0  0  0999 V2000
   56.8640   31.5690   52.1370 C   0  0  0  0  0  0  0  0  0  0  0  0
   57.8670   31.4450   51.0490 C   0  0  0  0  0  0  0  0  0  0  0  0
   58.6620   32.5330   50.7530 C   0  0  0  0  0  0  0  0  0  0  0  0
   59.6210   32.5100   49.7590 C   0  0  0  0  0  0  0  0  0  0  0  0
   60.3640   33.5370   49.4850 N   0  0  0  0  0  0  0  0  0  0  0  0
   61.5550   33.2900   48.7250 C   0  0  0  0  0  0  0  0  0  0  0  0
   62.6170   32.5760   49.2400 C   0  0  0  0  0  0  0  0  0  0  0  0
   63.7180   32.3930   48.4270 C   0  0  0  0  0  0  0  0  0  0  0  0
   63.7750   32.8990   47.1340 C   0  0  0  0  0  0  0  0  0  0  0  0
   62.7080   33.6110   46.6270 C   0  0  0  0  0  0  0  0  0  0  0  0
   61.5790   33.8130   47.4280 C   0  0  0  0  0  0  0  0  0  0  0  0
   59.7370   31.3370   49.0820 N   0  0  0  0  0  0  0  0  0  0  0  0
   58.9720   30.2670   49.3560 C   0  0  0  0  0  0  0  0  0  0  0  0
   59.1310   29.1880   48.6790 N   0  0  0  0  0  0  0  0  0  0  0  0
   59.2780   29.1660   47.2800 C   0  0  0  0  0  0  0  0  0  0  0  0
   60.3790   28.6590   46.6180 C   0  0  0  0  0  0  0  0  0  0  0  0
   60.4910   28.6530   45.2460 C   0  0  0  0  0  0  0  0  0  0  0  0
   59.4580   29.1760   44.5090 C   0  0  0  0  0  0  0  0  0  0  0  0
   58.3310   29.6970   45.1090 C   0  0  0  0  0  0  0  0  0  0  0  0
   57.0150   30.3630   44.1530 S   0  0  0  0  0  0  0  0  0  0  0  0
   56.9880   29.5670   42.8540 O   0  0  0  0  0  0  0  0  0  0  0  0
   55.6860   30.1910   44.7710 O   0  0  0  0  0  0  0  0  0  0  0  0
   57.4250   31.9660   43.7220 N   0  0  0  0  0  0  0  0  0  0  0  0
   57.8480   32.8620   44.7320 C   0  0  0  0  0  0  0  0  0  0  0  0
   57.3980   32.6210   46.0280 C   0  0  0  0  0  0  0  0  0  0  0  0
   57.7680   33.4570   47.0850 C   0  0  0  0  0  0  0  0  0  0  0  0
   58.5920   34.5270   46.8150 C   0  0  0  0  0  0  0  0  0  0  0  0
   58.9370   35.3260   47.8670 F   0  0  0  0  0  0  0  0  0  0  0  0
   59.0550   34.7870   45.5250 C   0  0  0  0  0  0  0  0  0  0  0  0
   59.8640   35.8490   45.3000 F   0  0  0  0  0  0  0  0  0  0  0  0
   58.6850   33.9510   44.4660 C   0  0  0  0  0  0  0  0  0  0  0  0
   58.2580   29.6830   46.5060 C   0  0  0  0  0  0  0  0  0  0  0  0
   58.0470   30.3220   50.3310 N   0  0  0  0  0  0  0  0  0  0  0  0
   57.3705   31.5064   53.1115 H   0  0  0  0  0  0  0  0  0  0  0  0
   56.3495   32.5376   52.0527 H   0  0  0  0  0  0  0  0  0  0  0  0
   56.1291   30.7549   52.0527 H   0  0  0  0  0  0  0  0  0  0  0  0
   58.5265   33.4578   51.3330 H   0  0  0  0  0  0  0  0  0  0  0  0
   62.5878   32.1674   50.2609 H   0  0  0  0  0  0  0  0  0  0  0  0
   64.5782   31.8281   48.8156 H   0  0  0  0  0  0  0  0  0  0  0  0
   64.6695   32.7320   46.5159 H   0  0  0  0  0  0  0  0  0  0  0  0
   62.7444   34.0153   45.6046 H   0  0  0  0  0  0  0  0  0  0  0  0
   60.7180   34.3780   47.0413 H   0  0  0  0  0  0  0  0  0  0  0  0
   60.4580   31.3080   48.3280 H   0  0  0  0  0  0  0  0  0  0  0  0
   61.2037   28.2411   47.2140 H   0  0  0  0  0  0  0  0  0  0  0  0
   61.3840   28.2403   44.7538 H   0  0  0  0  0  0  0  0  0  0  0  0
   59.5310   29.1797   43.4114 H   0  0  0  0  0  0  0  0  0  0  0  0
   57.3880   32.3470   42.7430 H   0  0  0  0  0  0  0  0  0  0  0  0
   56.7417   31.7599   46.2224 H   0  0  0  0  0  0  0  0  0  0  0  0
   57.4100   33.2652   48.1073 H   0  0  0  0  0  0  0  0  0  0  0  0
   59.0449   34.1460   43.4450 H   0  0  0  0  0  0  0  0  0  0  0  0
   57.3655   30.0942   47.0004 H   0  0  0  0  0  0  0  0  0  0  0  0
   57.4520   29.4890   50.5450 H   0  0  0  0  0  0  0  0  0  0  0  0
  1  2  1  0
  2  3  2  0
  3  4  1  0
  4  5  2  0
  5  6  1  0
  6  7  2  0
  7  8  1  0
  8  9  2  0
  9 10  1  0
 10 11  2  0
  4 12  1  0
 12 13  1  0
 13 14  2  0
 14 15  1  0
 15 16  2  0
 16 17  1  0
 17 18  2  0
 18 19  1  0
 19 20  1  0
 20 21  2  0
 20 22  2  0
 20 23  1  0
 23 24  1  0
 24 25  2  0
 25 26  1  0
 26 27  2  0
 27 28  1  0
 27 29  1  0
 29 30  1  0
 29 31  2  0
 19 32  2  0
 13 33  1  0
 33  2  1  0
 11  6  1  0
 32 15  1  0
 31 24  1  0
  1 34  1  0
  1 35  1  0
  1 36  1  0
  3 37  1  0
  7 38  1  0
  8 39  1  0
  9 40  1  0
 10 41  1  0
 11 42  1  0
 12 43  1  0
 16 44  1  0
 17 45  1  0
 18 46  1  0
 23 47  1  0
 25 48  1  0
 26 49  1  0
 31 50  1  0
 32 51  1  0
 33 52  1  0
M  END
>  <smiles>  (40) 
Cc1cc(=Nc2ccccc2)[nH]c(=Nc2cccc(S(=O)(=O)Nc3ccc(F)c(F)c3)c2)[nH]1

>  <score_type>  (40) 
oracle

>  <origin>  (40) 
adg

>  <m_score__min__energy>  (40) 
-10.4

>  <m_primary>  (40) 
energy

$$$$
40:0
     RDKit          3D

 44 47  0  0  0  0  0  0  0  0999 V2000
   56.4650   24.4870   44.9870 C   0  0  0  0  0  0  0  0  0  0  0  0
   56.3020   26.0170   45.8580 S   0  0  0  0  0  0  0  0  0  0  0  0
   54.8500   26.3360   45.9980 O   0  0  0  0  0  0  0  0  0  0  0  0
   56.9470   25.9100   47.2110 O   0  0  0  0  0  0  0  0  0  0  0  0
   57.1090   27.3040   45.0100 N   0  0  0  0  0  0  0  0  0  0  0  0
   57.9350   28.2270   45.7040 C   0  0  0  0  0  0  0  0  0  0  0  0
   57.6930   29.5770   45.7670 C   0  0  0  0  0  0  0  0  0  0  0  0
   58.5370   30.4370   46.4640 C   0  0  0  0  0  0  0  0  0  0  0  0
   59.6500   29.9740   47.1210 C   0  0  0  0  0  0  0  0  0  0  0  0
   60.5840   30.7650   47.8620 C   0  0  0  0  0  0  0  0  0  0  0  0
   61.6330   31.4150   47.2850 N   0  0  0  0  0  0  0  0  0  0  0  0
   62.3220   32.0650   48.2280 C   0  0  0  0  0  0  0  0  0  0  0  0
   63.5230   32.8820   47.9740 C   0  0  0  0  0  0  0  0  0  0  0  0
   64.5160   32.5260   48.8650 F   0  0  0  0  0  0  0  0  0  0  0  0
   63.2470   34.2250   48.1500 F   0  0  0  0  0  0  0  0  0  0  0  0
   63.9230   32.7100   46.6720 F   0  0  0  0  0  0  0  0  0  0  0  0
   61.7570   31.8610   49.4120 N   0  0  0  0  0  0  0  0  0  0  0  0
   60.6850   31.0630   49.2040 C   0  0  0  0  0  0  0  0  0  0  0  0
   59.8050   30.6140   50.2680 C   0  0  0  0  0  0  0  0  0  0  0  0
   60.1410   29.6690   51.2100 C   0  0  0  0  0  0  0  0  0  0  0  0
   59.2370   29.2910   52.2020 C   0  0  0  0  0  0  0  0  0  0  0  0
   57.9750   29.8740   52.2470 C   0  0  0  0  0  0  0  0  0  0  0  0
   56.8700   29.7380   53.0690 C   0  0  0  0  0  0  0  0  0  0  0  0
   55.8730   30.5870   52.6340 C   0  0  0  0  0  0  0  0  0  0  0  0
   56.3460   31.2480   51.5550 N   0  0  0  0  0  0  0  0  0  0  0  0
   57.6160   30.8340   51.3000 C   0  0  0  0  0  0  0  0  0  0  0  0
   58.5390   31.1960   50.3160 C   0  0  0  0  0  0  0  0  0  0  0  0
   59.8880   28.5970   47.0500 C   0  0  0  0  0  0  0  0  0  0  0  0
   59.0500   27.7480   46.3590 C   0  0  0  0  0  0  0  0  0  0  0  0
   56.5529   23.6617   45.7089 H   0  0  0  0  0  0  0  0  0  0  0  0
   55.5787   24.3286   44.3551 H   0  0  0  0  0  0  0  0  0  0  0  0
   57.3648   24.5189   44.3551 H   0  0  0  0  0  0  0  0  0  0  0  0
   56.9950   27.4140   43.9730 H   0  0  0  0  0  0  0  0  0  0  0  0
   56.8111   29.9888   45.2545 H   0  0  0  0  0  0  0  0  0  0  0  0
   58.3068   31.5124   46.4889 H   0  0  0  0  0  0  0  0  0  0  0  0
   61.8690   31.4110   46.2700 H   0  0  0  0  0  0  0  0  0  0  0  0
   61.1378   29.2048   51.1800 H   0  0  0  0  0  0  0  0  0  0  0  0
   59.5212   28.5335   52.9473 H   0  0  0  0  0  0  0  0  0  0  0  0
   56.7979   29.0604   53.9325 H   0  0  0  0  0  0  0  0  0  0  0  0
   54.8759   30.7041   53.0834 H   0  0  0  0  0  0  0  0  0  0  0  0
   55.7870   31.9590   51.0270 H   0  0  0  0  0  0  0  0  0  0  0  0
   58.2625   31.9525   49.5669 H   0  0  0  0  0  0  0  0  0  0  0  0
   60.7689   28.1800   47.5601 H   0  0  0  0  0  0  0  0  0  0  0  0
   59.2743   26.6715   46.3297 H   0  0  0  0  0  0  0  0  0  0  0  0
  1  2  1  0
  2  3  2  0
  2  4  2  0
  2  5  1  0
  5  6  1  0
  6  7  2  0
  7  8  1  0
  8  9  2  0
  9 10  1  0
 10 11  1  0
 11 12  1  0
 12 13  1  0
 13 14  1  0
 13 15  1  0
 13 16  1  0
 12 17  2  0
 17 18  1  0
 18 19  1  0
 19 20  2  0
 20 21  1  0
 21 22  2  0
 22 23  1  0
 23 24  2  0
 24 25  1  0
 25 26  1  0
 26 27  2  0
  9 28  1  0
 28 29  2  0
 29  6  1  0
 18 10  2  0
 27 19  1  0
 26 22  1  0
  1 30  1  0
  1 31  1  0
  1 32  1  0
  5 33  1  0
  7 34  1  0
  8 35  1  0
 11 36  1  0
 20 37  1  0
 21 38  1  0
 23 39  1  0
 24 40  1  0
 25 41  1  0
 27 42  1  0
 28 43  1  0
 29 44  1  0
M  END
>  <smiles>  (41) 
CS(=O)(=O)Nc1ccc(-c2[nH]c(C(F)(F)F)nc2-c2ccc3cc[nH]c3c2)cc1

>  <score_type>  (41) 
oracle

>  <origin>  (41) 
adg

>  <m_score__min__energy>  (41) 
-7.75

>  <m_primary>  (41) 
energy

$$$$
41:0
     RDKit          3D

 31 32  0  0  0  0  0  0  0  0999 V2000
   57.3860   25.9950   45.1080 C   0  0  0  0  0  0  0  0  0  0  0  0
   56.8470   27.1110   46.0010 C   0  0  0  0  0  0  0  0  0  0  0  0
   57.3990   28.4690   45.5700 C   0  0  0  0  0  0  0  0  0  0  0  0
   56.4760   29.3670   45.0010 C   0  0  0  0  0  0  0  0  0  0  0  0
   55.1470   28.9680   44.8940 O   0  0  0  0  0  0  0  0  0  0  0  0
   56.7510   30.6040   44.5400 N   0  0  0  0  0  0  0  0  0  0  0  0
   57.8720   31.3450   44.4720 C   0  0  0  0  0  0  0  0  0  0  0  0
   57.7410   32.9800   43.7510 S   0  0  0  0  0  0  0  0  0  0  0  0
   57.0750   33.7650   45.2610 C   0  0  0  0  0  0  0  0  0  0  0  0
   58.1030   33.7810   46.3600 C   0  0  0  0  0  0  0  0  0  0  0  0
   59.2550   34.5740   46.2370 C   0  0  0  0  0  0  0  0  0  0  0  0
   60.2250   34.5670   47.2450 C   0  0  0  0  0  0  0  0  0  0  0  0
   60.0550   33.7640   48.3760 C   0  0  0  0  0  0  0  0  0  0  0  0
   60.9990   33.7550   49.3500 F   0  0  0  0  0  0  0  0  0  0  0  0
   58.9130   32.9680   48.5030 C   0  0  0  0  0  0  0  0  0  0  0  0
   57.9390   32.9740   47.4990 C   0  0  0  0  0  0  0  0  0  0  0  0
   59.0830   30.9610   44.9200 N   0  0  0  0  0  0  0  0  0  0  0  0
   59.4560   29.8360   45.5130 N   0  0  0  0  0  0  0  0  0  0  0  0
   58.7650   28.7190   45.8360 C   0  0  0  0  0  0  0  0  0  0  0  0
   59.4260   27.8210   46.4250 O   0  0  0  0  0  0  0  0  0  0  0  0
   57.7791   25.1812   45.7351 H   0  0  0  0  0  0  0  0  0  0  0  0
   56.5748   25.6095   44.4729 H   0  0  0  0  0  0  0  0  0  0  0  0
   58.1923   26.3907   44.4729 H   0  0  0  0  0  0  0  0  0  0  0  0
   55.7494   27.1298   45.9310 H   0  0  0  0  0  0  0  0  0  0  0  0
   57.1628   26.9159   47.0365 H   0  0  0  0  0  0  0  0  0  0  0  0
   56.7808   34.7992   45.0288 H   0  0  0  0  0  0  0  0  0  0  0  0
   56.2058   33.1842   45.6032 H   0  0  0  0  0  0  0  0  0  0  0  0
   59.3953   35.2027   45.3453 H   0  0  0  0  0  0  0  0  0  0  0  0
   61.1231   35.1946   47.1472 H   0  0  0  0  0  0  0  0  0  0  0  0
   58.7801   32.3361   49.3935 H   0  0  0  0  0  0  0  0  0  0  0  0
   57.0422   32.3453   47.6012 H   0  0  0  0  0  0  0  0  0  0  0  0
  1  2  1  0
  2  3  1  0
  3  4  2  0
  4  5  1  0
  4  6  1  0
  6  7  2  0
  7  8  1  0
  8  9  1  0
  9 10  1  0
 10 11  2  0
 11 12  1  0
 12 13  2  0
 13 14  1  0
 13 15  1  0
 15 16  2  0
  7 17  1  0
 17 18  2  0
 18 19  1  0
 19 20  2  0
 19  3  1  0
 16 10  1  0
  1 21  1  0
  1 22  1  0
  1 23  1  0
  2 24  1  0
  2 25  1  0
  9 26  1  0
  9 27  1  0
 11 28  1  0
 12 29  1  0
 15 30  1  0
 16 31  1  0
M  CHG  1   5  -1
M  END
>  <UniqueID>  (42) 
37

>  <SMILES>  (42) 
CCc1c([O-])nc(SCc2ccc(F)cc2)nnc1=O

>  <Energy>  (42) 
51.95128348697669

>  <Genealogy>  (42) 
CCc1c([O-])nc(SCc2ccc(F)cc2)nnc1=O (protonated)
CCc1c([O-])nc(SCc2ccc(F)cc2)nnc1=O (3D coordinates assigned)
CCc1c([O-])nc(SCc2ccc(F)cc2)nnc1=O (optimized conformer: 51.95128348697669 kcal/mol)

>  <smiles>  (42) 
CCc1c(O)nc(SCc2ccc(F)cc2)nnc1=O

>  <score_type>  (42) 
oracle

>  <origin>  (42) 
adg

>  <m_score__min__energy>  (42) 
-10.81

>  <m_primary>  (42) 
energy

$$$$
42:0
     RDKit          3D

 50 52  0  0  0  0  0  0  0  0999 V2000
   56.0170   30.8240   52.0750 C   0  0  0  0  0  0  0  0  0  0  0  0
   57.4670   31.0600   52.4880 C   0  0  0  0  0  0  0  0  0  0  0  0
   58.1780   31.9110   51.4700 C   0  0  0  0  0  0  0  0  0  0  0  0
   58.9290   33.0390   51.8850 C   0  0  0  0  0  0  0  0  0  0  0  0
   59.6180   33.8260   50.9460 C   0  0  0  0  0  0  0  0  0  0  0  0
   59.5550   33.4660   49.6000 C   0  0  0  0  0  0  0  0  0  0  0  0
   58.8380   32.3590   49.2000 C   0  0  0  0  0  0  0  0  0  0  0  0
   58.1410   31.5590   50.1050 C   0  0  0  0  0  0  0  0  0  0  0  0
   58.9810   32.2480   47.7710 C   0  0  0  0  0  0  0  0  0  0  0  0
   58.4630   31.3600   47.0430 O   0  0  0  0  0  0  0  0  0  0  0  0
   59.8040   33.3080   47.2920 N   0  0  0  0  0  0  0  0  0  0  0  0
   60.1510   33.5590   45.8960 C   0  0  0  0  0  0  0  0  0  0  0  0
   59.2140   34.6170   45.3020 C   0  0  0  0  0  0  0  0  0  0  0  0
   57.8070   34.0680   45.0200 C   0  0  0  0  0  0  0  0  0  0  0  0
   57.8310   32.6250   44.4980 C   0  0  0  0  0  0  0  0  0  0  0  0
   56.6250   31.9100   44.9350 N   0  0  0  0  0  0  0  0  0  0  0  0
   56.6010   30.2790   44.3210 S   0  0  0  0  0  0  0  0  0  0  0  0
   56.7150   30.3150   42.8200 O   0  0  0  0  0  0  0  0  0  0  0  0
   55.3230   29.5900   44.7110 O   0  0  0  0  0  0  0  0  0  0  0  0
   57.9590   29.3810   44.9890 C   0  0  0  0  0  0  0  0  0  0  0  0
   59.2570   29.6120   44.5100 C   0  0  0  0  0  0  0  0  0  0  0  0
   60.3360   28.8870   45.0300 C   0  0  0  0  0  0  0  0  0  0  0  0
   60.1220   27.9300   46.0260 C   0  0  0  0  0  0  0  0  0  0  0  0
   58.8290   27.6920   46.5010 C   0  0  0  0  0  0  0  0  0  0  0  0
   57.7490   28.4130   45.9830 C   0  0  0  0  0  0  0  0  0  0  0  0
   60.2020   34.1470   48.4270 C   0  0  0  0  0  0  0  0  0  0  0  0
   55.3916   30.7222   52.9742 H   0  0  0  0  0  0  0  0  0  0  0  0
   55.6628   31.6763   51.4766 H   0  0  0  0  0  0  0  0  0  0  0  0
   55.9514   29.9034   51.4766 H   0  0  0  0  0  0  0  0  0  0  0  0
   57.4865   31.5703   53.4623 H   0  0  0  0  0  0  0  0  0  0  0  0
   57.9782   30.0884   52.5560 H   0  0  0  0  0  0  0  0  0  0  0  0
   58.9731   33.3012   52.9524 H   0  0  0  0  0  0  0  0  0  0  0  0
   60.1943   34.7067   51.2658 H   0  0  0  0  0  0  0  0  0  0  0  0
   57.5780   30.6779   49.7635 H   0  0  0  0  0  0  0  0  0  0  0  0
   61.1889   33.9186   45.8382 H   0  0  0  0  0  0  0  0  0  0  0  0
   60.0462   32.6244   45.3254 H   0  0  0  0  0  0  0  0  0  0  0  0
   59.1304   35.4525   46.0126 H   0  0  0  0  0  0  0  0  0  0  0  0
   59.6435   34.9419   44.3428 H   0  0  0  0  0  0  0  0  0  0  0  0
   57.2244   34.0958   45.9526 H   0  0  0  0  0  0  0  0  0  0  0  0
   57.3536   34.6973   44.2400 H   0  0  0  0  0  0  0  0  0  0  0  0
   57.8689   32.6364   43.3987 H   0  0  0  0  0  0  0  0  0  0  0  0
   58.7182   32.1123   44.8979 H   0  0  0  0  0  0  0  0  0  0  0  0
   56.6520   31.8290   45.9780 H   0  0  0  0  0  0  0  0  0  0  0  0
   59.4273   30.3635   43.7250 H   0  0  0  0  0  0  0  0  0  0  0  0
   61.3534   29.0708   44.6542 H   0  0  0  0  0  0  0  0  0  0  0  0
   60.9713   27.3640   46.4362 H   0  0  0  0  0  0  0  0  0  0  0  0
   58.6612   26.9368   47.2830 H   0  0  0  0  0  0  0  0  0  0  0  0
   56.7320   28.2210   46.3556 H   0  0  0  0  0  0  0  0  0  0  0  0
   61.2962   34.1682   48.5374 H   0  0  0  0  0  0  0  0  0  0  0  0
   59.8962   35.1977   48.3153 H   0  0  0  0  0  0  0  0  0  0  0  0
  1  2  1  0
  2  3  1  0
  3  4  2  0
  4  5  1  0
  5  6  2  0
  6  7  1  0
  7  8  2  0
  7  9  1  0
  9 10  2  0
  9 11  1  0
 11 12  1  0
 12 13  1  0
 13 14  1  0
 14 15  1  0
 15 16  1  0
 16 17  1  0
 17 18  2  0
 17 19  2  0
 17 20  1  0
 20 21  2  0
 21 22  1  0
 22 23  2  0
 23 24  1  0
 24 25  2  0
 11 26  1  0
  8  3  1  0
 25 20  1  0
 26  6  1  0
  1 27  1  0
  1 28  1  0
  1 29  1  0
  2 30  1  0
  2 31  1  0
  4 32  1  0
  5 33  1  0
  8 34  1  0
 12 35  1  0
 12 36  1  0
 13 37  1  0
 13 38  1  0
 14 39  1  0
 14 40  1  0
 15 41  1  0
 15 42  1  0
 16 43  1  0
 21 44  1  0
 22 45  1  0
 23 46  1  0
 24 47  1  0
 25 48  1  0
 26 49  1  0
 26 50  1  0
M  END
>  <UniqueID>  (43) 
38

>  <SMILES>  (43) 
CCc1ccc2c(c1)C(=O)N(CCCCNS(=O)(=O)c1ccccc1)C2

>  <Energy>  (43) 
62.36887756280039

>  <Genealogy>  (43) 
CCc1ccc2c(c1)C(=O)N(CCCCNS(=O)(=O)c1ccccc1)C2 (3D coordinates assigned)
CCc1ccc2c(c1)C(=O)N(CCCCNS(=O)(=O)c1ccccc1)C2 (nonaromatic ring conformer: 62.36887756280039 kcal/mol)

>  <smiles>  (43) 
CCc1ccc2c(c1)C(=O)N(CCCCNS(=O)(=O)c1ccccc1)C2

>  <score_type>  (43) 
oracle

>  <origin>  (43) 
adg

>  <m_score__min__energy>  (43) 
-8.9600000000000009

>  <m_primary>  (43) 
energy

$$$$
43:0
     RDKit          3D

 62 66  0  0  0  0  0  0  0  0999 V2000
   64.0280   33.3040   48.2180 C   0  0  0  0  0  0  0  0  0  0  0  0
   62.9640   32.7630   47.2540 C   0  0  0  0  0  0  0  0  0  0  0  0
   62.7140   31.2660   47.5040 C   0  0  0  0  0  0  0  0  0  0  0  0
   61.6860   33.5870   47.3560 C   0  0  0  0  0  0  0  0  0  0  0  0
   61.1440   34.1590   46.1850 C   0  0  0  0  0  0  0  0  0  0  0  0
   59.9910   34.9440   46.2360 C   0  0  0  0  0  0  0  0  0  0  0  0
   59.3490   35.1640   47.4500 C   0  0  0  0  0  0  0  0  0  0  0  0
   59.8460   34.5800   48.6150 C   0  0  0  0  0  0  0  0  0  0  0  0
   60.9870   33.7630   48.5830 C   0  0  0  0  0  0  0  0  0  0  0  0
   61.5410   33.0930   50.1710 S   0  0  0  0  0  0  0  0  0  0  0  0
   59.9720   32.3570   50.6950 C   0  0  0  0  0  0  0  0  0  0  0  0
   59.0950   33.1820   51.4180 C   0  0  0  0  0  0  0  0  0  0  0  0
   57.8390   32.7210   51.8110 C   0  0  0  0  0  0  0  0  0  0  0  0
   57.4290   31.4330   51.4670 C   0  0  0  0  0  0  0  0  0  0  0  0
   58.2750   30.6050   50.7330 C   0  0  0  0  0  0  0  0  0  0  0  0
   59.5420   31.0590   50.3150 C   0  0  0  0  0  0  0  0  0  0  0  0
   60.3730   30.1330   49.4680 C   0  0  0  0  0  0  0  0  0  0  0  0
   59.2640   29.0270   48.5230 S   0  0  0  0  0  0  0  0  0  0  0  0
   58.9050   30.2100   47.2220 C   0  0  0  0  0  0  0  0  0  0  0  0
   58.3550   31.4220   47.4880 N   0  0  0  0  0  0  0  0  0  0  0  0
   58.1540   31.9380   46.2630 C   0  0  0  0  0  0  0  0  0  0  0  0
   57.5730   33.1640   45.9480 C   0  0  0  0  0  0  0  0  0  0  0  0
   57.4000   33.4780   44.5850 C   0  0  0  0  0  0  0  0  0  0  0  0
   57.7990   32.5640   43.5840 C   0  0  0  0  0  0  0  0  0  0  0  0
   58.3860   31.3320   43.9350 C   0  0  0  0  0  0  0  0  0  0  0  0
   58.5530   31.0590   45.2960 C   0  0  0  0  0  0  0  0  0  0  0  0
   59.0350   29.9530   45.8900 N   0  0  0  0  0  0  0  0  0  0  0  0
   59.5820   28.7560   45.2430 C   0  0  0  0  0  0  0  0  0  0  0  0
   58.7980   27.5170   45.6140 C   0  0  0  0  0  0  0  0  0  0  0  0
   59.4590   26.3400   46.0140 C   0  0  0  0  0  0  0  0  0  0  0  0
   58.7290   25.2130   46.4030 C   0  0  0  0  0  0  0  0  0  0  0  0
   57.3340   25.2490   46.4140 C   0  0  0  0  0  0  0  0  0  0  0  0
   56.6330   24.1570   46.8080 F   0  0  0  0  0  0  0  0  0  0  0  0
   56.6650   26.4180   46.0370 C   0  0  0  0  0  0  0  0  0  0  0  0
   57.3900   27.5500   45.6470 C   0  0  0  0  0  0  0  0  0  0  0  0
   56.7160   28.6810   45.3090 F   0  0  0  0  0  0  0  0  0  0  0  0
   63.7014   33.1380   49.2552 H   0  0  0  0  0  0  0  0  0  0  0  0
   64.9798   32.7804   48.0450 H   0  0  0  0  0  0  0  0  0  0  0  0
   64.1656   34.3816   48.0450 H   0  0  0  0  0  0  0  0  0  0  0  0
   63.3339   32.8591   46.2225 H   0  0  0  0  0  0  0  0  0  0  0  0
   62.6822   31.0754   48.5869 H   0  0  0  0  0  0  0  0  0  0  0  0
   61.7546   30.9740   47.0519 H   0  0  0  0  0  0  0  0  0  0  0  0
   63.5264   30.6781   47.0519 H   0  0  0  0  0  0  0  0  0  0  0  0
   61.6376   33.9835   45.2178 H   0  0  0  0  0  0  0  0  0  0  0  0
   59.5892   35.3896   45.3140 H   0  0  0  0  0  0  0  0  0  0  0  0
   58.4507   35.7976   47.4913 H   0  0  0  0  0  0  0  0  0  0  0  0
   59.3365   34.7623   49.5727 H   0  0  0  0  0  0  0  0  0  0  0  0
   59.4030   34.2055   51.6777 H   0  0  0  0  0  0  0  0  0  0  0  0
   57.1712   33.3735   52.3926 H   0  0  0  0  0  0  0  0  0  0  0  0
   56.4371   31.0710   51.7755 H   0  0  0  0  0  0  0  0  0  0  0  0
   57.9507   29.5856   50.4768 H   0  0  0  0  0  0  0  0  0  0  0  0
   60.9862   30.7227   48.7707 H   0  0  0  0  0  0  0  0  0  0  0  0
   61.0322   29.5332   50.1128 H   0  0  0  0  0  0  0  0  0  0  0  0
   57.2596   33.8638   46.7367 H   0  0  0  0  0  0  0  0  0  0  0  0
   56.9515   34.4407   44.2986 H   0  0  0  0  0  0  0  0  0  0  0  0
   57.6504   32.8159   42.5236 H   0  0  0  0  0  0  0  0  0  0  0  0
   58.7014   30.6113   43.1662 H   0  0  0  0  0  0  0  0  0  0  0  0
   59.5429   28.8902   44.1519 H   0  0  0  0  0  0  0  0  0  0  0  0
   60.6191   28.6229   45.5847 H   0  0  0  0  0  0  0  0  0  0  0  0
   60.5585   26.3069   46.0205 H   0  0  0  0  0  0  0  0  0  0  0  0
   59.2560   24.2947   46.7014 H   0  0  0  0  0  0  0  0  0  0  0  0
   55.5655   26.4479   46.0470 H   0  0  0  0  0  0  0  0  0  0  0  0
  1  2  1  0
  2  3  1  0
  2  4  1  0
  4  5  2  0
  5  6  1  0
  6  7  2  0
  7  8  1  0
  8  9  2  0
  9 10  1  0
 10 11  1  0
 11 12  2  0
 12 13  1  0
 13 14  2  0
 14 15  1  0
 15 16  2  0
 16 17  1  0
 17 18  1  0
 18 19  1  0
 19 20  2  0
 20 21  1  0
 21 22  2  0
 22 23  1  0
 23 24  2  0
 24 25  1  0
 25 26  2  0
 26 27  1  0
 27 28  1  0
 28 29  1  0
 29 30  2  0
 30 31  1  0
 31 32  2  0
 32 33  1  0
 32 34  1  0
 34 35  2  0
 35 36  1  0
  9  4  1  0
 16 11  1  0
 27 19  1  0
 35 29  1  0
 26 21  1  0
  1 37  1  0
  1 38  1  0
  1 39  1  0
  2 40  1  0
  3 41  1  0
  3 42  1  0
  3 43  1  0
  5 44  1  0
  6 45  1  0
  7 46  1  0
  8 47  1  0
 12 48  1  0
 13 49  1  0
 14 50  1  0
 15 51  1  0
 17 52  1  0
 17 53  1  0
 22 54  1  0
 23 55  1  0
 24 56  1  0
 25 57  1  0
 28 58  1  0
 28 59  1  0
 30 60  1  0
 31 61  1  0
 34 62  1  0
M  END
>  <UniqueID>  (44) 
39

>  <SMILES>  (44) 
CC(C)c1ccccc1Sc1ccccc1CSc1nc2ccccc2n1Cc1ccc(F)cc1F

>  <Energy>  (44) 
100.55275380874916

>  <Genealogy>  (44) 
CC(C)c1ccccc1Sc1ccccc1CSc1nc2ccccc2n1Cc1ccc(F)cc1F (3D coordinates assigned)
CC(C)c1ccccc1Sc1ccccc1CSc1nc2ccccc2n1Cc1ccc(F)cc1F (optimized conformer: 100.55275380874916 kcal/mol)

>  <smiles>  (44) 
CC(C)c1ccccc1Sc1ccccc1CSc1nc2ccccc2n1Cc1ccc(F)cc1F

>  <score_type>  (44) 
oracle

>  <origin>  (44) 
adg

>  <m_score__min__energy>  (44) 
-9.8499999999999996

>  <m_primary>  (44) 
energy

$$$$
44:0
     RDKit          3D

 48 51  0  0  0  0  0  0  0  0999 V2000
   65.9090   32.4630   50.6080 C   0  0  0  0  0  0  0  0  0  0  0  0
   65.3310   32.8220   49.3570 O   0  0  0  0  0  0  0  0  0  0  0  0
   64.0030   33.2460   49.1910 C   0  0  0  0  0  0  0  0  0  0  0  0
   63.2550   33.8160   50.2390 C   0  0  0  0  0  0  0  0  0  0  0  0
   61.9360   34.2220   50.0230 C   0  0  0  0  0  0  0  0  0  0  0  0
   61.3410   34.0610   48.7610 C   0  0  0  0  0  0  0  0  0  0  0  0
   59.9320   34.5320   48.5150 C   0  0  0  0  0  0  0  0  0  0  0  0
   59.4730   34.0960   47.1840 N   0  0  0  0  0  0  0  0  0  0  0  0
   59.7590   34.8820   46.1010 C   0  0  0  0  0  0  0  0  0  0  0  0
   59.3230   34.5320   44.8260 C   0  0  0  0  0  0  0  0  0  0  0  0
   58.5760   33.3660   44.6470 C   0  0  0  0  0  0  0  0  0  0  0  0
   58.1240   33.0000   43.3720 C   0  0  0  0  0  0  0  0  0  0  0  0
   57.3770   31.8330   43.1980 C   0  0  0  0  0  0  0  0  0  0  0  0
   57.0770   31.0080   44.2940 C   0  0  0  0  0  0  0  0  0  0  0  0
   56.2850   29.7670   44.1150 C   0  0  0  0  0  0  0  0  0  0  0  0
   55.8880   29.4480   42.9630 O   0  0  0  0  0  0  0  0  0  0  0  0
   55.9930   28.8860   45.2080 N   0  0  0  0  0  0  0  0  0  0  0  0
   56.8050   27.7880   45.6510 C   0  0  0  0  0  0  0  0  0  0  0  0
   58.1980   27.9360   45.6420 C   0  0  0  0  0  0  0  0  0  0  0  0
   59.0230   26.8900   46.0640 C   0  0  0  0  0  0  0  0  0  0  0  0
   58.4620   25.6810   46.4820 C   0  0  0  0  0  0  0  0  0  0  0  0
   57.0750   25.5130   46.4680 C   0  0  0  0  0  0  0  0  0  0  0  0
   56.2440   26.5570   46.0460 C   0  0  0  0  0  0  0  0  0  0  0  0
   54.9060   26.3440   45.9830 F   0  0  0  0  0  0  0  0  0  0  0  0
   57.5160   31.3830   45.5760 C   0  0  0  0  0  0  0  0  0  0  0  0
   58.2720   32.5570   45.7620 C   0  0  0  0  0  0  0  0  0  0  0  0
   58.7330   32.9470   47.0370 C   0  0  0  0  0  0  0  0  0  0  0  0
   58.4640   32.2350   48.0450 O   0  0  0  0  0  0  0  0  0  0  0  0
   62.0900   33.4990   47.7170 C   0  0  0  0  0  0  0  0  0  0  0  0
   63.4100   33.0920   47.9340 C   0  0  0  0  0  0  0  0  0  0  0  0
   65.2839   32.8513   51.4256 H   0  0  0  0  0  0  0  0  0  0  0  0
   65.9709   31.3673   50.6824 H   0  0  0  0  0  0  0  0  0  0  0  0
   66.9187   32.8932   50.6824 H   0  0  0  0  0  0  0  0  0  0  0  0
   63.7112   33.9421   51.2319 H   0  0  0  0  0  0  0  0  0  0  0  0
   61.3601   34.6703   50.8460 H   0  0  0  0  0  0  0  0  0  0  0  0
   59.2686   34.1098   49.2841 H   0  0  0  0  0  0  0  0  0  0  0  0
   59.9086   35.6308   48.5598 H   0  0  0  0  0  0  0  0  0  0  0  0
   60.3422   35.8043   46.2399 H   0  0  0  0  0  0  0  0  0  0  0  0
   59.5658   35.1708   43.9640 H   0  0  0  0  0  0  0  0  0  0  0  0
   58.3586   33.6346   42.5047 H   0  0  0  0  0  0  0  0  0  0  0  0
   57.0207   31.5578   42.1943 H   0  0  0  0  0  0  0  0  0  0  0  0
   58.6451   28.8813   45.3007 H   0  0  0  0  0  0  0  0  0  0  0  0
   60.1154   27.0189   46.0670 H   0  0  0  0  0  0  0  0  0  0  0  0
   59.1120   24.8614   46.8221 H   0  0  0  0  0  0  0  0  0  0  0  0
   56.6350   24.5575   46.7896 H   0  0  0  0  0  0  0  0  0  0  0  0
   57.2665   30.7532   46.4427 H   0  0  0  0  0  0  0  0  0  0  0  0
   61.6366   33.3777   46.7221 H   0  0  0  0  0  0  0  0  0  0  0  0
   63.9865   32.6472   47.1095 H   0  0  0  0  0  0  0  0  0  0  0  0
  1  2  1  0
  2  3  1  0
  3  4  2  0
  4  5  1  0
  5  6  2  0
  6  7  1  0
  7  8  1  0
  8  9  1  0
  9 10  2  0
 10 11  1  0
 11 12  2  0
 12 13  1  0
 13 14  2  0
 14 15  1  0
 15 16  2  0
 15 17  1  0
 17 18  1  0
 18 19  2  0
 19 20  1  0
 20 21  2  0
 21 22  1  0
 22 23  2  0
 23 24  1  0
 14 25  1  0
 25 26  2  0
 26 27  1  0
 27 28  2  0
  6 29  1  0
 29 30  2  0
 30  3  1  0
 27  8  1  0
 26 11  1  0
 23 18  1  0
  1 31  1  0
  1 32  1  0
  1 33  1  0
  4 34  1  0
  5 35  1  0
  7 36  1  0
  7 37  1  0
  9 38  1  0
 10 39  1  0
 12 40  1  0
 13 41  1  0
 19 42  1  0
 20 43  1  0
 21 44  1  0
 22 45  1  0
 25 46  1  0
 29 47  1  0
 30 48  1  0
M  CHG  1  17  -1
M  END
>  <UniqueID>  (45) 
40

>  <SMILES>  (45) 
COc1ccc(Cn2ccc3ccc(C(=O)[N-]c4ccccc4F)cc3c2=O)cc1

>  <Energy>  (45) 
66.23417995983641

>  <Genealogy>  (45) 
COc1ccc(Cn2ccc3ccc(C(=O)[N-]c4ccccc4F)cc3c2=O)cc1 (protonated)
COc1ccc(Cn2ccc3ccc(C(=O)[N-]c4ccccc4F)cc3c2=O)cc1 (3D coordinates assigned)
COc1ccc(Cn2ccc3ccc(C(=O)[N-]c4ccccc4F)cc3c2=O)cc1 (optimized conformer: 66.23417995983641 kcal/mol)

>  <smiles>  (45) 
COc1ccc(Cn2ccc3ccc(C(=O)Nc4ccccc4F)cc3c2=O)cc1

>  <score_type>  (45) 
oracle

>  <origin>  (45) 
adg

>  <m_score__min__energy>  (45) 
-11.609999999999999

>  <m_primary>  (45) 
energy

$$$$
45:0
     RDKit          3D

 48 50  0  0  0  0  0  0  0  0999 V2000
   58.0920   29.9500   45.2070 C   0  0  0  0  0  0  0  0  0  0  0  0
   57.3910   31.1150   45.6290 O   0  0  0  0  0  0  0  0  0  0  0  0
   57.9690   32.3880   45.7640 C   0  0  0  0  0  0  0  0  0  0  0  0
   57.9150   33.3410   44.7270 C   0  0  0  0  0  0  0  0  0  0  0  0
   58.4990   34.5980   44.8930 C   0  0  0  0  0  0  0  0  0  0  0  0
   59.1340   34.9230   46.0910 C   0  0  0  0  0  0  0  0  0  0  0  0
   59.1920   33.9890   47.1270 C   0  0  0  0  0  0  0  0  0  0  0  0
   58.6260   32.7110   46.9680 C   0  0  0  0  0  0  0  0  0  0  0  0
   58.6580   31.7550   48.0420 N   0  0  0  0  0  0  0  0  0  0  0  0
   58.8540   32.1100   49.4210 C   0  0  0  0  0  0  0  0  0  0  0  0
   59.2590   33.2620   49.7340 O   0  0  0  0  0  0  0  0  0  0  0  0
   58.5720   31.1140   50.5040 C   0  0  0  0  0  0  0  0  0  0  0  0
   58.1470   29.8480   49.9210 N   0  0  0  0  0  0  0  0  0  0  0  0
   58.9740   29.0510   49.0660 C   0  0  0  0  0  0  0  0  0  0  0  0
   58.5160   28.5890   47.9850 O   0  0  0  0  0  0  0  0  0  0  0  0
   60.3810   28.7350   49.4720 C   0  0  0  0  0  0  0  0  0  0  0  0
   61.2360   29.9410   49.3770 N   0  0  0  0  0  0  0  0  0  0  0  0
   61.9870   30.3570   50.4580 C   0  0  0  0  0  0  0  0  0  0  0  0
   61.9520   29.6310   51.7830 C   0  0  0  0  0  0  0  0  0  0  0  0
   62.7900   31.5020   50.3580 C   0  0  0  0  0  0  0  0  0  0  0  0
   62.8590   32.2090   49.1590 C   0  0  0  0  0  0  0  0  0  0  0  0
   63.6680   33.3520   49.0520 C   0  0  0  0  0  0  0  0  0  0  0  0
   63.7380   34.0510   47.8440 C   0  0  0  0  0  0  0  0  0  0  0  0
   63.0070   33.6140   46.7380 C   0  0  0  0  0  0  0  0  0  0  0  0
   62.1990   32.4770   46.8350 C   0  0  0  0  0  0  0  0  0  0  0  0
   62.1170   31.7640   48.0480 C   0  0  0  0  0  0  0  0  0  0  0  0
   61.3090   30.6170   48.1780 C   0  0  0  0  0  0  0  0  0  0  0  0
   60.6530   30.2080   47.1780 O   0  0  0  0  0  0  0  0  0  0  0  0
   58.4310   29.3865   46.0888 H   0  0  0  0  0  0  0  0  0  0  0  0
   57.4237   29.3186   44.6031 H   0  0  0  0  0  0  0  0  0  0  0  0
   58.9629   30.2447   44.6031 H   0  0  0  0  0  0  0  0  0  0  0  0
   57.4100   33.0929   43.7818 H   0  0  0  0  0  0  0  0  0  0  0  0
   58.4581   35.3340   44.0765 H   0  0  0  0  0  0  0  0  0  0  0  0
   59.5895   35.9159   46.2199 H   0  0  0  0  0  0  0  0  0  0  0  0
   59.6838   34.2543   48.0745 H   0  0  0  0  0  0  0  0  0  0  0  0
   58.5880   30.7390   47.8050 H   0  0  0  0  0  0  0  0  0  0  0  0
   59.4843   30.9534   51.0973 H   0  0  0  0  0  0  0  0  0  0  0  0
   57.7695   31.5009   51.1492 H   0  0  0  0  0  0  0  0  0  0  0  0
   60.3843   28.3707   50.5099 H   0  0  0  0  0  0  0  0  0  0  0  0
   60.7798   27.9642   48.7961 H   0  0  0  0  0  0  0  0  0  0  0  0
   61.9873   30.3631   52.6033 H   0  0  0  0  0  0  0  0  0  0  0  0
   61.0245   29.0440   51.8551 H   0  0  0  0  0  0  0  0  0  0  0  0
   62.8187   28.9575   51.8551 H   0  0  0  0  0  0  0  0  0  0  0  0
   63.3678   31.8436   51.2294 H   0  0  0  0  0  0  0  0  0  0  0  0
   64.2476   33.6977   49.9207 H   0  0  0  0  0  0  0  0  0  0  0  0
   64.3705   34.9475   47.7645 H   0  0  0  0  0  0  0  0  0  0  0  0
   63.0668   34.1653   45.7880 H   0  0  0  0  0  0  0  0  0  0  0  0
   61.6246   32.1374   45.9605 H   0  0  0  0  0  0  0  0  0  0  0  0
  1  2  1  0
  2  3  1  0
  3  4  2  0
  4  5  1  0
  5  6  2  0
  6  7  1  0
  7  8  2  0
  8  9  1  0
  9 10  1  0
 10 11  2  0
 10 12  1  0
 12 13  1  0
 13 14  1  0
 14 15  2  0
 14 16  1  0
 16 17  1  0
 17 18  1  0
 18 19  1  0
 18 20  2  0
 20 21  1  0
 21 22  2  0
 22 23  1  0
 23 24  2  0
 24 25  1  0
 25 26  2  0
 26 27  1  0
 27 28  2  0
  8  3  1  0
 27 17  1  0
 26 21  1  0
  1 29  1  0
  1 30  1  0
  1 31  1  0
  4 32  1  0
  5 33  1  0
  6 34  1  0
  7 35  1  0
  9 36  1  0
 12 37  1  0
 12 38  1  0
 16 39  1  0
 16 40  1  0
 19 41  1  0
 19 42  1  0
 19 43  1  0
 20 44  1  0
 22 45  1  0
 23 46  1  0
 24 47  1  0
 25 48  1  0
M  CHG  1  13  -1
M  END
>  <UniqueID>  (46) 
41

>  <SMILES>  (46) 
COc1ccccc1NC(=O)C[N-]C(=O)Cn1c(C)cc2ccccc2c1=O

>  <Energy>  (46) 
58.66746125217865

>  <Genealogy>  (46) 
COc1ccccc1NC(=O)C[N-]C(=O)Cn1c(C)cc2ccccc2c1=O (protonated)
COc1ccccc1NC(=O)C[N-]C(=O)Cn1c(C)cc2ccccc2c1=O (3D coordinates assigned)
COc1ccccc1NC(=O)C[N-]C(=O)Cn1c(C)cc2ccccc2c1=O (optimized conformer: 58.66746125217865 kcal/mol)

>  <smiles>  (46) 
COc1ccccc1NC(=O)CNC(=O)Cn1c(C)cc2ccccc2c1=O

>  <score_type>  (46) 
oracle

>  <origin>  (46) 
adg

>  <m_score__min__energy>  (46) 
-11.1

>  <m_primary>  (46) 
energy

$$$$
46:0
     RDKit          3D

 32 33  0  0  0  0  0  0  0  0999 V2000
   56.1163   22.5471   47.3407 H   0  0  0  0  0  0  0  0  0  0  0  0
   55.5100   23.2660   46.7700 C   0  0  0  0  0  0  0  0  0  0  0  0
   55.8910   24.5680   46.6920 N   0  0  0  0  0  0  0  0  0  0  0  0
   55.1560   25.4760   45.9890 C   0  0  0  0  0  0  0  0  0  0  0  0
   55.5230   26.7200   45.9120 N   0  0  0  0  0  0  0  0  0  0  0  0
   56.8840   27.2060   46.1430 C   0  0  0  0  0  0  0  0  0  0  0  0
   57.6024   26.4525   45.7880 H   0  0  0  0  0  0  0  0  0  0  0  0
   57.0202   27.3826   47.2201 H   0  0  0  0  0  0  0  0  0  0  0  0
   57.1160   28.4980   45.4050 C   0  0  0  0  0  0  0  0  0  0  0  0
   58.4050   29.0430   45.3340 C   0  0  0  0  0  0  0  0  0  0  0  0
   59.2478   28.5153   45.8043 H   0  0  0  0  0  0  0  0  0  0  0  0
   58.6270   30.2520   44.6700 C   0  0  0  0  0  0  0  0  0  0  0  0
   59.6451   30.6655   44.6198 H   0  0  0  0  0  0  0  0  0  0  0  0
   57.5610   30.9490   44.0630 C   0  0  0  0  0  0  0  0  0  0  0  0
   57.7900   32.2070   43.3740 N   0  0  0  0  0  0  0  0  0  0  0  0
   58.0990   33.4260   44.1310 C   0  0  0  0  0  0  0  0  0  0  0  0
   58.0448   33.2120   45.2086 H   0  0  0  0  0  0  0  0  0  0  0  0
   59.1125   33.7691   43.8758 H   0  0  0  0  0  0  0  0  0  0  0  0
   57.3713   34.2104   43.8758 H   0  0  0  0  0  0  0  0  0  0  0  0
   57.7160   32.2810   41.9090 C   0  0  0  0  0  0  0  0  0  0  0  0
   56.9660   33.0309   41.6172 H   0  0  0  0  0  0  0  0  0  0  0  0
   58.6983   32.5688   41.5063 H   0  0  0  0  0  0  0  0  0  0  0  0
   57.4282   31.2986   41.5063 H   0  0  0  0  0  0  0  0  0  0  0  0
   56.2680   30.3910   44.1430 C   0  0  0  0  0  0  0  0  0  0  0  0
   55.4208   30.9156   43.6771 H   0  0  0  0  0  0  0  0  0  0  0  0
   56.0490   29.1810   44.8060 C   0  0  0  0  0  0  0  0  0  0  0  0
   55.0333   28.7620   44.8581 H   0  0  0  0  0  0  0  0  0  0  0  0
   54.0210   25.0760   45.3570 N   0  0  0  0  0  0  0  0  0  0  0  0
   53.6040   23.7840   45.4110 C   0  0  0  0  0  0  0  0  0  0  0  0
   52.5490   23.4400   44.8160 O   0  0  0  0  0  0  0  0  0  0  0  0
   54.3490   22.8440   46.1250 C   0  0  0  0  0  0  0  0  0  0  0  0
   53.9560   21.5470   46.1950 F   0  0  0  0  0  0  0  0  0  0  0  0
  1  2  1  0
  2  3  1  0
  3  4  1  0
  4  5  2  0
  5  6  1  0
  6  7  1  0
  6  8  1  0
  6  9  1  0
  9 10  2  0
 10 11  1  0
 10 12  1  0
 12 13  1  0
 12 14  2  0
 14 15  1  0
 15 16  1  0
 16 17  1  0
 16 18  1  0
 16 19  1  0
 15 20  1  0
 20 21  1  0
 20 22  1  0
 20 23  1  0
 14 24  1  0
 24 25  1  0
 24 26  2  0
 26 27  1  0
  4 28  1  0
 28 29  1  0
 29 30  2  0
 29 31  1  0
 31 32  1  0
 31  2  2  0
 26  9  1  0
M  CHG  2   3  -1  28  -1
M  END
>  <UniqueID>  (47) 
42

>  <SMILES>  (47) 
CN(C)c1ccc(C/N=c2\[n-]cc(F)c(=O)[n-]2)cc1

>  <Energy>  (47) 
34.235275648534156

>  <Genealogy>  (47) 
CN(C)c1ccc(CN=c2[n-]cc(F)c(=O)[n-]2)cc1 (protonated)
CN(C)c1ccc(C/N=c2\[n-]cc(F)c(=O)[n-]2)cc1 (cis-trans isomerization)
CN(C)c1ccc(C/N=c2\[n-]cc(F)c(=O)[n-]2)cc1 (3D coordinates assigned)
CN(C)c1ccc(C/N=c2\[n-]cc(F)c(=O)[n-]2)cc1 (optimized conformer: 34.235275648534156 kcal/mol)

>  <smiles>  (47) 
CN(C)c1ccc(CN=c2[nH]cc(F)c(=O)[nH]2)cc1

>  <score_type>  (47) 
oracle

>  <origin>  (47) 
adg

>  <m_score__min__energy>  (47) 
-10.18

>  <m_primary>  (47) 
energy

$$$$
47:0
     RDKit          3D

 35 37  0  0  0  0  0  0  0  0999 V2000
   59.1930   27.3400   46.2080 O   0  0  0  0  0  0  0  0  0  0  0  0
   58.2300   28.1250   45.9960 C   0  0  0  0  0  0  0  0  0  0  0  0
   56.9960   27.6200   45.3080 C   0  0  0  0  0  0  0  0  0  0  0  0
   55.9590   28.6450   45.2460 N   0  0  0  0  0  0  0  0  0  0  0  0
   55.7860   29.6890   44.2740 C   0  0  0  0  0  0  0  0  0  0  0  0
   54.7720   29.6390   43.5300 O   0  0  0  0  0  0  0  0  0  0  0  0
   56.7020   30.8390   44.1110 C   0  0  0  0  0  0  0  0  0  0  0  0
   57.3710   31.2560   42.9710 C   0  0  0  0  0  0  0  0  0  0  0  0
   58.0490   32.4020   43.3280 C   0  0  0  0  0  0  0  0  0  0  0  0
   57.7500   32.6190   44.6530 C   0  0  0  0  0  0  0  0  0  0  0  0
   58.3700   34.0770   45.7110 Br  0  0  0  0  0  0  0  0  0  0  0  0
   56.9480   31.6790   45.0920 O   0  0  0  0  0  0  0  0  0  0  0  0
   58.3370   29.5120   46.3440 N   0  0  0  0  0  0  0  0  0  0  0  0
   59.4990   30.0590   47.0400 C   0  0  0  0  0  0  0  0  0  0  0  0
   59.0830   30.6360   48.3630 C   0  0  0  0  0  0  0  0  0  0  0  0
   59.2600   32.0170   48.6330 C   0  0  0  0  0  0  0  0  0  0  0  0
   58.8770   32.5560   49.8750 C   0  0  0  0  0  0  0  0  0  0  0  0
   58.3330   31.6910   50.8190 C   0  0  0  0  0  0  0  0  0  0  0  0
   58.1780   30.3660   50.5740 C   0  0  0  0  0  0  0  0  0  0  0  0
   58.5440   29.7920   49.3600 C   0  0  0  0  0  0  0  0  0  0  0  0
   57.6330   29.7540   51.6850 O   0  0  0  0  0  0  0  0  0  0  0  0
   57.4330   30.7570   52.6900 C   0  0  0  0  0  0  0  0  0  0  0  0
   57.8880   31.9790   52.0940 O   0  0  0  0  0  0  0  0  0  0  0  0
   57.2576   27.3143   44.2842 H   0  0  0  0  0  0  0  0  0  0  0  0
   56.6046   26.7684   45.8839 H   0  0  0  0  0  0  0  0  0  0  0  0
   57.3627   30.7716   41.9834 H   0  0  0  0  0  0  0  0  0  0  0  0
   58.6963   33.0167   42.6852 H   0  0  0  0  0  0  0  0  0  0  0  0
   57.5470   30.1570   46.1170 H   0  0  0  0  0  0  0  0  0  0  0  0
   60.2336   29.2575   47.2073 H   0  0  0  0  0  0  0  0  0  0  0  0
   59.9463   30.8538   46.4249 H   0  0  0  0  0  0  0  0  0  0  0  0
   59.6998   32.6714   47.8660 H   0  0  0  0  0  0  0  0  0  0  0  0
   59.0036   33.6268   50.0925 H   0  0  0  0  0  0  0  0  0  0  0  0
   58.4175   28.7139   49.1820 H   0  0  0  0  0  0  0  0  0  0  0  0
   56.3682   30.8302   52.9560 H   0  0  0  0  0  0  0  0  0  0  0  0
   57.9754   30.5242   53.6182 H   0  0  0  0  0  0  0  0  0  0  0  0
  1  2  2  0
  2  3  1  0
  3  4  1  0
  4  5  1  0
  5  6  2  0
  5  7  1  0
  7  8  2  0
  8  9  1  0
  9 10  2  0
 10 11  1  0
 10 12  1  0
  2 13  1  0
 13 14  1  0
 14 15  1  0
 15 16  2  0
 16 17  1  0
 17 18  2  0
 18 19  1  0
 19 20  2  0
 19 21  1  0
 21 22  1  0
 22 23  1  0
 12  7  1  0
 20 15  1  0
 23 18  1  0
  3 24  1  0
  3 25  1  0
  8 26  1  0
  9 27  1  0
 13 28  1  0
 14 29  1  0
 14 30  1  0
 16 31  1  0
 17 32  1  0
 20 33  1  0
 22 34  1  0
 22 35  1  0
M  CHG  1   4  -1
M  END
>  <UniqueID>  (48) 
43

>  <SMILES>  (48) 
O=C(C[N-]C(=O)c1ccc(Br)o1)NCc1ccc2c(c1)OCO2

>  <Energy>  (48) 
85.13439610320093

>  <Genealogy>  (48) 
O=C(C[N-]C(=O)c1ccc(Br)o1)NCc1ccc2c(c1)OCO2 (protonated)
O=C(C[N-]C(=O)c1ccc(Br)o1)NCc1ccc2c(c1)OCO2 (3D coordinates assigned)
O=C(C[N-]C(=O)c1ccc(Br)o1)NCc1ccc2c(c1)OCO2 (nonaromatic ring conformer: 85.13439610320093 kcal/mol)

>  <smiles>  (48) 
O=C(CNC(=O)c1ccc(Br)o1)NCc1ccc2c(c1)OCO2

>  <score_type>  (48) 
oracle

>  <origin>  (48) 
adg

>  <m_score__min__energy>  (48) 
-8.8200000000000003

>  <m_primary>  (48) 
energy

$$$$
48:0
     RDKit          3D

 57 60  0  0  0  0  0  0  0  0999 V2000
   59.2980   33.8600   49.6520 C   0  0  0  0  0  0  0  0  0  0  0  0
   60.7490   33.4940   49.6110 C   0  0  0  0  0  0  0  0  0  0  0  0
   61.5220   33.1400   50.7150 C   0  0  0  0  0  0  0  0  0  0  0  0
   61.0400   33.0670   52.0270 O   0  0  0  0  0  0  0  0  0  0  0  0
   59.7320   33.4610   52.4380 C   0  0  0  0  0  0  0  0  0  0  0  0
   58.7860   32.2400   52.4670 C   0  0  0  0  0  0  0  0  0  0  0  0
   59.3420   31.0750   51.6040 C   0  0  0  0  0  0  0  0  0  0  0  0
   58.2370   30.2670   50.8940 C   0  0  0  0  0  0  0  0  0  0  0  0
   57.0350   30.0940   51.7330 N   0  0  0  0  0  0  0  0  0  0  0  0
   57.2850   29.1950   52.8770 C   0  0  0  0  0  0  0  0  0  0  0  0
   56.4140   31.3790   52.1490 C   0  0  0  0  0  0  0  0  0  0  0  0
   57.3520   32.6050   52.0470 C   0  0  0  0  0  0  0  0  0  0  0  0
   62.8280   32.9500   50.2770 C   0  0  0  0  0  0  0  0  0  0  0  0
   62.8580   33.1750   48.9560 N   0  0  0  0  0  0  0  0  0  0  0  0
   63.9270   33.1700   48.1650 N   0  0  0  0  0  0  0  0  0  0  0  0
   63.7710   33.4730   46.8480 C   0  0  0  0  0  0  0  0  0  0  0  0
   62.5310   33.7700   46.3580 N   0  0  0  0  0  0  0  0  0  0  0  0
   61.4260   33.7450   47.1590 C   0  0  0  0  0  0  0  0  0  0  0  0
   60.1650   33.9970   46.6060 O   0  0  0  0  0  0  0  0  0  0  0  0
   59.3540   33.0100   46.0260 C   0  0  0  0  0  0  0  0  0  0  0  0
   59.3730   31.6700   46.4610 C   0  0  0  0  0  0  0  0  0  0  0  0
   58.5380   30.7210   45.8600 C   0  0  0  0  0  0  0  0  0  0  0  0
   57.6750   31.0980   44.8210 C   0  0  0  0  0  0  0  0  0  0  0  0
   56.6350   29.9090   44.0400 S   0  0  0  0  0  0  0  0  0  0  0  0
   57.5240   28.3800   43.8580 C   0  0  0  0  0  0  0  0  0  0  0  0
   56.2190   30.4200   42.6880 O   0  0  0  0  0  0  0  0  0  0  0  0
   55.4040   29.6660   44.8680 O   0  0  0  0  0  0  0  0  0  0  0  0
   57.6710   32.4240   44.3740 C   0  0  0  0  0  0  0  0  0  0  0  0
   58.5090   33.3700   44.9680 C   0  0  0  0  0  0  0  0  0  0  0  0
   61.6200   33.4740   48.5250 C   0  0  0  0  0  0  0  0  0  0  0  0
   58.9701   33.9427   50.6987 H   0  0  0  0  0  0  0  0  0  0  0  0
   59.1485   34.8240   49.1437 H   0  0  0  0  0  0  0  0  0  0  0  0
   58.7092   33.0823   49.1437 H   0  0  0  0  0  0  0  0  0  0  0  0
   59.7857   33.9019   53.4444 H   0  0  0  0  0  0  0  0  0  0  0  0
   59.3403   34.1990   51.7225 H   0  0  0  0  0  0  0  0  0  0  0  0
   58.7390   31.8982   53.5115 H   0  0  0  0  0  0  0  0  0  0  0  0
   60.0141   31.4945   50.8409 H   0  0  0  0  0  0  0  0  0  0  0  0
   59.8674   30.3864   52.2821 H   0  0  0  0  0  0  0  0  0  0  0  0
   57.9508   30.7951   49.9724 H   0  0  0  0  0  0  0  0  0  0  0  0
   58.6407   29.2667   50.6785 H   0  0  0  0  0  0  0  0  0  0  0  0
   57.1318   29.7460   53.8166 H   0  0  0  0  0  0  0  0  0  0  0  0
   56.5894   28.3439   52.8334 H   0  0  0  0  0  0  0  0  0  0  0  0
   58.3201   28.8252   52.8334 H   0  0  0  0  0  0  0  0  0  0  0  0
   55.5387   31.5613   51.5083 H   0  0  0  0  0  0  0  0  0  0  0  0
   56.1525   31.2715   53.2121 H   0  0  0  0  0  0  0  0  0  0  0  0
   57.3623   32.9642   51.0074 H   0  0  0  0  0  0  0  0  0  0  0  0
   56.9783   33.3886   52.7225 H   0  0  0  0  0  0  0  0  0  0  0  0
   63.6856   32.6652   50.9042 H   0  0  0  0  0  0  0  0  0  0  0  0
   64.6432   33.4788   46.1778 H   0  0  0  0  0  0  0  0  0  0  0  0
   62.4200   33.9830   45.3400 H   0  0  0  0  0  0  0  0  0  0  0  0
   60.0469   31.3684   47.2764 H   0  0  0  0  0  0  0  0  0  0  0  0
   58.5588   29.6763   46.2037 H   0  0  0  0  0  0  0  0  0  0  0  0
   57.7607   27.9729   44.8521 H   0  0  0  0  0  0  0  0  0  0  0  0
   56.9042   27.6591   43.3046 H   0  0  0  0  0  0  0  0  0  0  0  0
   58.4571   28.5620   43.3046 H   0  0  0  0  0  0  0  0  0  0  0  0
   57.0048   32.7225   43.5511 H   0  0  0  0  0  0  0  0  0  0  0  0
   58.5057   34.4073   44.6019 H   0  0  0  0  0  0  0  0  0  0  0  0
  1  2  1  0
  2  3  1  0
  3  4  1  0
  4  5  1  0
  5  6  1  0
  6  7  1  0
  7  8  1  0
  8  9  1  0
  9 10  1  0
  9 11  1  0
 11 12  1  0
  3 13  2  0
 13 14  1  0
 14 15  1  0
 15 16  2  0
 16 17  1  0
 17 18  2  0
 18 19  1  0
 19 20  1  0
 20 21  2  0
 21 22  1  0
 22 23  2  0
 23 24  1  0
 24 25  1  0
 24 26  2  0
 24 27  2  0
 23 28  1  0
 28 29  2  0
 18 30  1  0
 30  2  2  0
 12  6  1  0
 30 14  1  0
 29 20  1  0
  1 31  1  0
  1 32  1  0
  1 33  1  0
  5 34  1  0
  5 35  1  0
  6 36  1  0
  7 37  1  0
  7 38  1  0
  8 39  1  0
  8 40  1  0
 10 41  1  0
 10 42  1  0
 10 43  1  0
 11 44  1  0
 11 45  1  0
 12 46  1  0
 12 47  1  0
 13 48  1  0
 16 49  1  0
 17 50  1  0
 21 51  1  0
 22 52  1  0
 25 53  1  0
 25 54  1  0
 25 55  1  0
 28 56  1  0
 29 57  1  0
M  CHG  1  17   1
M  END
>  <UniqueID>  (49) 
44

>  <SMILES>  (49) 
Cc1c(OCC2CCN(C)CC2)cn2nc[nH+]c(Oc3ccc(S(C)(=O)=O)cc3)c12

>  <Energy>  (49) 
109.3015778892132

>  <Genealogy>  (49) 
Cc1c(OCC2CCN(C)CC2)cn2nc[nH+]c(Oc3ccc(S(C)(=O)=O)cc3)c12 (protonated)
Cc1c(OCC2CCN(C)CC2)cn2nc[nH+]c(Oc3ccc(S(C)(=O)=O)cc3)c12 (3D coordinates assigned)
Cc1c(OCC2CCN(C)CC2)cn2nc[nH+]c(Oc3ccc(S(C)(=O)=O)cc3)c12 (nonaromatic ring conformer: 109.3015778892132 kcal/mol)

>  <smiles>  (49) 
Cc1c(OCC2CCN(C)CC2)cn2ncnc(Oc3ccc(S(C)(=O)=O)cc3)c12

>  <score_type>  (49) 
oracle

>  <origin>  (49) 
adg

>  <m_score__min__energy>  (49) 
-8.1999999999999993

>  <m_primary>  (49) 
energy

$$$$
49:0
     RDKit          3D

 42 44  0  0  0  0  0  0  0  0999 V2000
   64.4570   32.9980   49.0200 C   0  0  0  0  0  0  0  0  0  0  0  0
   63.0330   33.4070   48.8620 C   0  0  0  0  0  0  0  0  0  0  0  0
   62.1410   33.4120   49.8760 N   0  0  0  0  0  0  0  0  0  0  0  0
   60.8900   33.7600   49.4630 C   0  0  0  0  0  0  0  0  0  0  0  0
   59.7590   33.8340   50.4390 C   0  0  0  0  0  0  0  0  0  0  0  0
   60.7810   34.0190   48.0880 C   0  0  0  0  0  0  0  0  0  0  0  0
   59.5820   34.4100   47.3210 C   0  0  0  0  0  0  0  0  0  0  0  0
   59.4680   35.6020   46.9270 O   0  0  0  0  0  0  0  0  0  0  0  0
   58.5850   33.4390   46.9810 N   0  0  0  0  0  0  0  0  0  0  0  0
   58.3140   32.9050   45.6770 C   0  0  0  0  0  0  0  0  0  0  0  0
   58.5570   33.6410   44.5030 C   0  0  0  0  0  0  0  0  0  0  0  0
   58.2580   33.0880   43.2540 C   0  0  0  0  0  0  0  0  0  0  0  0
   57.7020   31.8100   43.1660 C   0  0  0  0  0  0  0  0  0  0  0  0
   57.4260   31.0820   44.3300 C   0  0  0  0  0  0  0  0  0  0  0  0
   56.7190   29.4730   44.2280 S   0  0  0  0  0  0  0  0  0  0  0  0
   55.3300   29.4980   44.8040 O   0  0  0  0  0  0  0  0  0  0  0  0
   56.6680   29.0530   42.7860 O   0  0  0  0  0  0  0  0  0  0  0  0
   57.6940   28.3650   45.1380 N   0  0  0  0  0  0  0  0  0  0  0  0
   57.3050   27.1820   45.5080 C   0  0  0  0  0  0  0  0  0  0  0  0
   58.1970   26.0450   45.8420 C   0  0  0  0  0  0  0  0  0  0  0  0
   57.2190   24.9120   46.1890 C   0  0  0  0  0  0  0  0  0  0  0  0
   55.7920   25.4810   46.0730 C   0  0  0  0  0  0  0  0  0  0  0  0
   55.9400   26.8550   45.6390 N   0  0  0  0  0  0  0  0  0  0  0  0
   57.7330   31.6350   45.5810 C   0  0  0  0  0  0  0  0  0  0  0  0
   62.3040   33.8010   47.4020 S   0  0  0  0  0  0  0  0  0  0  0  0
   64.7017   32.9277   50.0901 H   0  0  0  0  0  0  0  0  0  0  0  0
   64.6123   32.0189   48.5433 H   0  0  0  0  0  0  0  0  0  0  0  0
   65.1082   33.7454   48.5433 H   0  0  0  0  0  0  0  0  0  0  0  0
   60.1570   33.8080   51.4641 H   0  0  0  0  0  0  0  0  0  0  0  0
   59.2027   34.7705   50.2853 H   0  0  0  0  0  0  0  0  0  0  0  0
   59.0855   32.9780   50.2853 H   0  0  0  0  0  0  0  0  0  0  0  0
   58.9829   34.6531   44.5677 H   0  0  0  0  0  0  0  0  0  0  0  0
   58.4614   33.6616   42.3377 H   0  0  0  0  0  0  0  0  0  0  0  0
   57.4804   31.3744   42.1805 H   0  0  0  0  0  0  0  0  0  0  0  0
   58.8254   25.7722   44.9813 H   0  0  0  0  0  0  0  0  0  0  0  0
   58.8951   26.2742   46.6606 H   0  0  0  0  0  0  0  0  0  0  0  0
   57.3483   24.0758   45.4862 H   0  0  0  0  0  0  0  0  0  0  0  0
   57.4053   24.5370   47.2062 H   0  0  0  0  0  0  0  0  0  0  0  0
   55.2117   24.9081   45.3347 H   0  0  0  0  0  0  0  0  0  0  0  0
   55.2559   25.4185   47.0315 H   0  0  0  0  0  0  0  0  0  0  0  0
   55.1480   27.5120   45.4640 H   0  0  0  0  0  0  0  0  0  0  0  0
   57.5152   31.0653   46.4964 H   0  0  0  0  0  0  0  0  0  0  0  0
  1  2  1  0
  2  3  2  0
  3  4  1  0
  4  5  1  0
  4  6  2  0
  6  7  1  0
  7  8  2  0
  7  9  1  0
  9 10  1  0
 10 11  2  0
 11 12  1  0
 12 13  2  0
 13 14  1  0
 14 15  1  0
 15 16  2  0
 15 17  2  0
 15 18  1  0
 18 19  2  3
 19 20  1  0
 20 21  1  0
 21 22  1  0
 22 23  1  0
 14 24  2  0
  6 25  1  0
 25  2  1  0
 24 10  1  0
 23 19  1  0
  1 26  1  0
  1 27  1  0
  1 28  1  0
  5 29  1  0
  5 30  1  0
  5 31  1  0
 11 32  1  0
 12 33  1  0
 13 34  1  0
 20 35  1  0
 20 36  1  0
 21 37  1  0
 21 38  1  0
 22 39  1  0
 22 40  1  0
 23 41  1  0
 24 42  1  0
M  CHG  1   9  -1
M  END
>  <UniqueID>  (50) 
45

>  <SMILES>  (50) 
Cc1nc(C)c(C(=O)[N-]c2cccc(S(=O)(=O)N=C3CCCN3)c2)s1

>  <Energy>  (50) 
82.88101241211821

>  <Genealogy>  (50) 
Cc1nc(C)c(C(=O)[N-]c2cccc(S(=O)(=O)N=C3CCCN3)c2)s1 (protonated)
Cc1nc(C)c(C(=O)[N-]c2cccc(S(=O)(=O)N=C3CCCN3)c2)s1 (3D coordinates assigned)
Cc1nc(C)c(C(=O)[N-]c2cccc(S(=O)(=O)N=C3CCCN3)c2)s1 (nonaromatic ring conformer: 82.88101241211821 kcal/mol)

>  <smiles>  (50) 
Cc1nc(C)c(C(=O)Nc2cccc(S(=O)(=O)N=C3CCCN3)c2)s1

>  <score_type>  (50) 
oracle

>  <origin>  (50) 
adg

>  <m_score__min__energy>  (50) 
-11.119999999999999

>  <m_primary>  (50) 
energy

$$$$
50:0
     RDKit          3D

 50 52  0  0  0  0  0  0  0  0999 V2000
   63.4130   33.4160   48.8740 C   0  0  0  0  0  0  0  0  0  0  0  0
   62.1840   34.1290   48.9660 O   0  0  0  0  0  0  0  0  0  0  0  0
   61.1390   34.0370   48.0330 C   0  0  0  0  0  0  0  0  0  0  0  0
   61.3770   33.9040   46.6510 C   0  0  0  0  0  0  0  0  0  0  0  0
   60.3120   33.8360   45.7510 C   0  0  0  0  0  0  0  0  0  0  0  0
   58.9900   33.8840   46.2180 C   0  0  0  0  0  0  0  0  0  0  0  0
   57.8390   33.7940   45.2480 C   0  0  0  0  0  0  0  0  0  0  0  0
   58.2890   33.3530   43.9290 N   0  0  0  0  0  0  0  0  0  0  0  0
   57.7660   32.2360   43.1930 C   0  0  0  0  0  0  0  0  0  0  0  0
   57.5870   32.3560   41.9510 O   0  0  0  0  0  0  0  0  0  0  0  0
   57.5050   30.9320   43.8300 C   0  0  0  0  0  0  0  0  0  0  0  0
   58.5660   30.0400   44.0510 C   0  0  0  0  0  0  0  0  0  0  0  0
   58.3340   28.8090   44.6700 C   0  0  0  0  0  0  0  0  0  0  0  0
   57.0380   28.4480   45.0570 C   0  0  0  0  0  0  0  0  0  0  0  0
   56.7700   26.9090   45.8740 S   0  0  0  0  0  0  0  0  0  0  0  0
   55.2970   26.6310   45.9860 O   0  0  0  0  0  0  0  0  0  0  0  0
   57.3980   25.8120   45.0590 O   0  0  0  0  0  0  0  0  0  0  0  0
   57.4810   26.9140   47.4640 N   0  0  0  0  0  0  0  0  0  0  0  0
   58.9400   26.9420   47.3970 C   0  0  0  0  0  0  0  0  0  0  0  0
   59.4630   28.3230   47.6270 C   0  0  0  0  0  0  0  0  0  0  0  0
   60.4730   28.9490   46.9030 C   0  0  0  0  0  0  0  0  0  0  0  0
   60.7300   30.2570   47.3310 C   0  0  0  0  0  0  0  0  0  0  0  0
   59.9230   30.6620   48.3860 C   0  0  0  0  0  0  0  0  0  0  0  0
   58.8910   29.3920   48.7880 S   0  0  0  0  0  0  0  0  0  0  0  0
   55.9740   29.3260   44.8160 C   0  0  0  0  0  0  0  0  0  0  0  0
   56.2050   30.5600   44.2040 C   0  0  0  0  0  0  0  0  0  0  0  0
   58.7490   33.9880   47.5970 C   0  0  0  0  0  0  0  0  0  0  0  0
   59.8180   34.0800   48.5080 C   0  0  0  0  0  0  0  0  0  0  0  0
   59.6090   34.2190   49.8900 O   0  0  0  0  0  0  0  0  0  0  0  0
   59.7250   33.1600   50.8340 C   0  0  0  0  0  0  0  0  0  0  0  0
   63.7875   33.1988   49.8852 H   0  0  0  0  0  0  0  0  0  0  0  0
   63.2498   32.4723   48.3328 H   0  0  0  0  0  0  0  0  0  0  0  0
   64.1512   34.0261   48.3328 H   0  0  0  0  0  0  0  0  0  0  0  0
   62.4105   33.8533   46.2779 H   0  0  0  0  0  0  0  0  0  0  0  0
   60.5099   33.7445   44.6728 H   0  0  0  0  0  0  0  0  0  0  0  0
   57.1009   33.0753   45.6335 H   0  0  0  0  0  0  0  0  0  0  0  0
   57.3921   34.7939   45.1459 H   0  0  0  0  0  0  0  0  0  0  0  0
   59.5843   30.3112   43.7356 H   0  0  0  0  0  0  0  0  0  0  0  0
   59.1726   28.1212   44.8538 H   0  0  0  0  0  0  0  0  0  0  0  0
   59.3479   26.2706   48.1669 H   0  0  0  0  0  0  0  0  0  0  0  0
   59.2499   26.6137   46.3939 H   0  0  0  0  0  0  0  0  0  0  0  0
   61.0151   28.4648   46.0773 H   0  0  0  0  0  0  0  0  0  0  0  0
   61.4967   30.9012   46.8758 H   0  0  0  0  0  0  0  0  0  0  0  0
   59.9525   31.6461   48.8766 H   0  0  0  0  0  0  0  0  0  0  0  0
   54.9525   29.0427   45.1098 H   0  0  0  0  0  0  0  0  0  0  0  0
   55.3640   31.2432   44.0144 H   0  0  0  0  0  0  0  0  0  0  0  0
   57.7140   33.9977   47.9695 H   0  0  0  0  0  0  0  0  0  0  0  0
   59.6800   33.5709   51.8534 H   0  0  0  0  0  0  0  0  0  0  0  0
   58.8995   32.4476   50.6891 H   0  0  0  0  0  0  0  0  0  0  0  0
   60.6851   32.6431   50.6891 H   0  0  0  0  0  0  0  0  0  0  0  0
  1  2  1  0
  2  3  1  0
  3  4  2  0
  4  5  1  0
  5  6  2  0
  6  7  1  0
  7  8  1  0
  8  9  1  0
  9 10  2  0
  9 11  1  0
 11 12  2  0
 12 13  1  0
 13 14  2  0
 14 15  1  0
 15 16  2  0
 15 17  2  0
 15 18  1  0
 18 19  1  0
 19 20  1  0
 20 21  2  0
 21 22  1  0
 22 23  2  0
 23 24  1  0
 14 25  1  0
 25 26  2  0
  6 27  1  0
 27 28  2  0
 28 29  1  0
 29 30  1  0
 28  3  1  0
 26 11  1  0
 24 20  1  0
  1 31  1  0
  1 32  1  0
  1 33  1  0
  4 34  1  0
  5 35  1  0
  7 36  1  0
  7 37  1  0
 12 38  1  0
 13 39  1  0
 19 40  1  0
 19 41  1  0
 21 42  1  0
 22 43  1  0
 23 44  1  0
 25 45  1  0
 26 46  1  0
 27 47  1  0
 30 48  1  0
 30 49  1  0
 30 50  1  0
M  CHG  2   8  -1  18  -1
M  END
>  <UniqueID>  (51) 
46

>  <SMILES>  (51) 
COc1ccc(C[N-]C(=O)c2ccc(S(=O)(=O)[N-]Cc3cccs3)cc2)cc1OC

>  <Energy>  (51) 
74.51037038998678

>  <Genealogy>  (51) 
COc1ccc(C[N-]C(=O)c2ccc(S(=O)(=O)[N-]Cc3cccs3)cc2)cc1OC (protonated)
COc1ccc(C[N-]C(=O)c2ccc(S(=O)(=O)[N-]Cc3cccs3)cc2)cc1OC (3D coordinates assigned)
COc1ccc(C[N-]C(=O)c2ccc(S(=O)(=O)[N-]Cc3cccs3)cc2)cc1OC (optimized conformer: 74.51037038998678 kcal/mol)

>  <smiles>  (51) 
COc1ccc(CNC(=O)c2ccc(S(=O)(=O)NCc3cccs3)cc2)cc1OC

>  <score_type>  (51) 
oracle

>  <origin>  (51) 
adg

>  <m_score__min__energy>  (51) 
-11.23

>  <m_primary>  (51) 
energy

$$$$
51:0
     RDKit          3D

 36 39  0  0  0  0  0  0  0  0999 V2000
   55.1180   26.4020   46.0190 N   0  0  0  0  0  0  0  0  0  0  0  0
   56.7520   25.8540   45.9080 S   0  0  0  0  0  0  0  0  0  0  0  0
   57.1610   25.2430   47.2190 O   0  0  0  0  0  0  0  0  0  0  0  0
   56.8620   24.8090   44.8340 O   0  0  0  0  0  0  0  0  0  0  0  0
   57.8030   27.2130   45.5210 C   0  0  0  0  0  0  0  0  0  0  0  0
   58.6900   27.1400   44.4390 C   0  0  0  0  0  0  0  0  0  0  0  0
   59.5150   28.2260   44.1360 C   0  0  0  0  0  0  0  0  0  0  0  0
   59.4710   29.3820   44.9210 C   0  0  0  0  0  0  0  0  0  0  0  0
   58.6190   29.4500   46.0290 C   0  0  0  0  0  0  0  0  0  0  0  0
   58.5580   30.6650   46.7910 N   0  0  0  0  0  0  0  0  0  0  0  0
   58.5350   31.8870   46.3340 C   0  0  0  0  0  0  0  0  0  0  0  0
   57.3940   32.4720   45.7290 C   0  0  0  0  0  0  0  0  0  0  0  0
   57.4410   33.8080   45.2710 C   0  0  0  0  0  0  0  0  0  0  0  0
   58.5740   34.5550   45.4160 N   0  0  0  0  0  0  0  0  0  0  0  0
   59.6590   34.0050   46.0100 C   0  0  0  0  0  0  0  0  0  0  0  0
   60.8370   34.6260   46.2250 N   0  0  0  0  0  0  0  0  0  0  0  0
   61.6020   33.6970   46.8370 C   0  0  0  0  0  0  0  0  0  0  0  0
   62.9190   33.8470   47.2680 C   0  0  0  0  0  0  0  0  0  0  0  0
   63.5420   32.7470   47.8850 C   0  0  0  0  0  0  0  0  0  0  0  0
   62.8440   31.5310   48.0570 C   0  0  0  0  0  0  0  0  0  0  0  0
   61.5160   31.3990   47.6150 C   0  0  0  0  0  0  0  0  0  0  0  0
   60.9200   32.5050   47.0060 C   0  0  0  0  0  0  0  0  0  0  0  0
   59.6610   32.7050   46.4710 C   0  0  0  0  0  0  0  0  0  0  0  0
   57.7620   28.3710   46.3080 C   0  0  0  0  0  0  0  0  0  0  0  0
   55.1450   27.4470   46.0080 H   0  0  0  0  0  0  0  0  0  0  0  0
   58.7369   26.2268   43.8275 H   0  0  0  0  0  0  0  0  0  0  0  0
   60.2008   28.1714   43.2777 H   0  0  0  0  0  0  0  0  0  0  0  0
   60.1086   30.2415   44.6667 H   0  0  0  0  0  0  0  0  0  0  0  0
   56.4707   31.8849   45.6159 H   0  0  0  0  0  0  0  0  0  0  0  0
   56.5549   34.2507   44.7925 H   0  0  0  0  0  0  0  0  0  0  0  0
   61.0970   35.6070   45.9740 H   0  0  0  0  0  0  0  0  0  0  0  0
   63.4553   34.7974   47.1298 H   0  0  0  0  0  0  0  0  0  0  0  0
   64.5807   32.8344   48.2363 H   0  0  0  0  0  0  0  0  0  0  0  0
   63.3442   30.6794   48.5413 H   0  0  0  0  0  0  0  0  0  0  0  0
   60.9649   30.4559   47.7446 H   0  0  0  0  0  0  0  0  0  0  0  0
   57.0556   28.4365   47.1487 H   0  0  0  0  0  0  0  0  0  0  0  0
  1  2  1  0
  2  3  2  0
  2  4  2  0
  2  5  1  0
  5  6  2  0
  6  7  1  0
  7  8  2  0
  8  9  1  0
  9 10  1  0
 10 11  2  3
 11 12  1  0
 12 13  2  0
 13 14  1  0
 14 15  1  0
 15 16  1  0
 16 17  1  0
 17 18  2  0
 18 19  1  0
 19 20  2  0
 20 21  1  0
 21 22  2  0
 22 23  1  0
  9 24  2  0
 24  5  1  0
 23 11  1  0
 23 15  2  0
 22 17  1  0
  1 25  1  0
  6 26  1  0
  7 27  1  0
  8 28  1  0
 12 29  1  0
 13 30  1  0
 16 31  1  0
 18 32  1  0
 19 33  1  0
 20 34  1  0
 21 35  1  0
 24 36  1  0
M  CHG  2   1  -1  14  -1
M  END
>  <UniqueID>  (52) 
47

>  <SMILES>  (52) 
[NH-]S(=O)(=O)c1cccc(N=c2cc[n-]c3[nH]c4ccccc4c23)c1

>  <Energy>  (52) 
92.46270897609638

>  <Genealogy>  (52) 
[NH-]S(=O)(=O)c1cccc(N=c2cc[n-]c3[nH]c4ccccc4c23)c1 (protonated)
[NH-]S(=O)(=O)c1cccc(N=c2cc[n-]c3[nH]c4ccccc4c23)c1 (3D coordinates assigned)
[NH-]S(=O)(=O)c1cccc(N=c2cc[n-]c3[nH]c4ccccc4c23)c1 (optimized conformer: 92.46270897609638 kcal/mol)

>  <smiles>  (52) 
NS(=O)(=O)c1cccc(N=c2cc[nH]c3[nH]c4ccccc4c23)c1

>  <score_type>  (52) 
oracle

>  <origin>  (52) 
adg

>  <m_score__min__energy>  (52) 
-12.81

>  <m_primary>  (52) 
energy

$$$$
52:0
     RDKit          3D

 40 43  0  0  0  0  0  0  0  0999 V2000
   60.3080   30.3300   48.4130 C   0  0  0  0  0  0  0  0  0  0  0  0
   60.5550   30.8140   47.0970 O   0  0  0  0  0  0  0  0  0  0  0  0
   59.6230   31.5270   46.3240 C   0  0  0  0  0  0  0  0  0  0  0  0
   58.6200   30.9040   45.5300 C   0  0  0  0  0  0  0  0  0  0  0  0
   58.3830   29.4500   45.5600 C   0  0  0  0  0  0  0  0  0  0  0  0
   59.4620   28.5550   45.4800 C   0  0  0  0  0  0  0  0  0  0  0  0
   59.2330   27.1760   45.4860 C   0  0  0  0  0  0  0  0  0  0  0  0
   57.9260   26.6830   45.5570 C   0  0  0  0  0  0  0  0  0  0  0  0
   56.8460   27.5690   45.6200 C   0  0  0  0  0  0  0  0  0  0  0  0
   55.5800   27.0900   45.6830 F   0  0  0  0  0  0  0  0  0  0  0  0
   57.0720   28.9500   45.6160 C   0  0  0  0  0  0  0  0  0  0  0  0
   57.7390   31.7000   44.7630 C   0  0  0  0  0  0  0  0  0  0  0  0
   57.8220   33.0950   44.8270 C   0  0  0  0  0  0  0  0  0  0  0  0
   57.0250   33.8140   44.1680 O   0  0  0  0  0  0  0  0  0  0  0  0
   58.7680   33.6510   45.6240 N   0  0  0  0  0  0  0  0  0  0  0  0
   58.9690   34.9420   45.8310 N   0  0  0  0  0  0  0  0  0  0  0  0
   60.0040   35.0760   46.6860 C   0  0  0  0  0  0  0  0  0  0  0  0
   60.4810   33.8150   47.0210 C   0  0  0  0  0  0  0  0  0  0  0  0
   61.6480   33.5350   47.8770 C   0  0  0  0  0  0  0  0  0  0  0  0
   61.6260   33.8960   49.2340 C   0  0  0  0  0  0  0  0  0  0  0  0
   62.7410   33.6570   50.0440 C   0  0  0  0  0  0  0  0  0  0  0  0
   63.8880   33.0710   49.5030 C   0  0  0  0  0  0  0  0  0  0  0  0
   63.9250   32.7310   48.1470 C   0  0  0  0  0  0  0  0  0  0  0  0
   62.8130   32.9700   47.3340 C   0  0  0  0  0  0  0  0  0  0  0  0
   59.6550   32.9300   46.3340 C   0  0  0  0  0  0  0  0  0  0  0  0
   60.6801   31.0592   49.1477 H   0  0  0  0  0  0  0  0  0  0  0  0
   59.2265   30.1867   48.5540 H   0  0  0  0  0  0  0  0  0  0  0  0
   60.8265   29.3702   48.5540 H   0  0  0  0  0  0  0  0  0  0  0  0
   60.4902   28.9400   45.4124 H   0  0  0  0  0  0  0  0  0  0  0  0
   60.0815   26.4779   45.4348 H   0  0  0  0  0  0  0  0  0  0  0  0
   57.7476   25.5976   45.5633 H   0  0  0  0  0  0  0  0  0  0  0  0
   56.2207   29.6455   45.6568 H   0  0  0  0  0  0  0  0  0  0  0  0
   56.9883   31.2227   44.1160 H   0  0  0  0  0  0  0  0  0  0  0  0
   58.4200   35.7200   45.4000 H   0  0  0  0  0  0  0  0  0  0  0  0
   60.4055   36.0302   47.0580 H   0  0  0  0  0  0  0  0  0  0  0  0
   60.7291   34.3682   49.6612 H   0  0  0  0  0  0  0  0  0  0  0  0
   62.7147   33.9310   51.1090 H   0  0  0  0  0  0  0  0  0  0  0  0
   64.7613   32.8772   50.1431 H   0  0  0  0  0  0  0  0  0  0  0  0
   64.8301   32.2749   47.7195 H   0  0  0  0  0  0  0  0  0  0  0  0
   62.8510   32.7144   46.2648 H   0  0  0  0  0  0  0  0  0  0  0  0
  1  2  1  0
  2  3  1  0
  3  4  1  0
  4  5  1  0
  5  6  2  0
  6  7  1  0
  7  8  2  0
  8  9  1  0
  9 10  1  0
  9 11  2  0
  4 12  2  0
 12 13  1  0
 13 14  2  0
 13 15  1  0
 15 16  1  0
 16 17  1  0
 17 18  2  0
 18 19  1  0
 19 20  2  0
 20 21  1  0
 21 22  2  0
 22 23  1  0
 23 24  2  0
 18 25  1  0
 25  3  2  0
 11  5  1  0
 25 15  1  0
 24 19  1  0
  1 26  1  0
  1 27  1  0
  1 28  1  0
  6 29  1  0
  7 30  1  0
  8 31  1  0
 11 32  1  0
 12 33  1  0
 16 34  1  0
 17 35  1  0
 20 36  1  0
 21 37  1  0
 22 38  1  0
 23 39  1  0
 24 40  1  0
M  END
>  <UniqueID>  (53) 
48

>  <SMILES>  (53) 
COc1c(-c2cccc(F)c2)cc(=O)n2[nH]cc(-c3ccccc3)c12

>  <Energy>  (53) 
99.40016071094855

>  <Genealogy>  (53) 
COc1c(-c2cccc(F)c2)cc(=O)n2[nH]cc(-c3ccccc3)c12 (3D coordinates assigned)
COc1c(-c2cccc(F)c2)cc(=O)n2[nH]cc(-c3ccccc3)c12 (optimized conformer: 99.40016071094855 kcal/mol)

>  <smiles>  (53) 
COc1c(-c2cccc(F)c2)cc(=O)n2[nH]cc(-c3ccccc3)c12

>  <score_type>  (53) 
oracle

>  <origin>  (53) 
adg

>  <m_score__min__energy>  (53) 
-7.3200000000000003

>  <m_primary>  (53) 
energy

$$$$
53:0
     RDKit          3D

 42 43  0  0  0  0  0  0  0  0999 V2000
   63.0080   33.7540   49.2220 C   0  0  0  0  0  0  0  0  0  0  0  0
   63.7320   33.1070   48.0450 C   0  0  0  0  0  0  0  0  0  0  0  0
   63.0330   33.4390   46.7190 C   0  0  0  0  0  0  0  0  0  0  0  0
   61.5070   33.2700   46.8090 C   0  0  0  0  0  0  0  0  0  0  0  0
   60.7310   34.4640   46.2170 C   0  0  0  0  0  0  0  0  0  0  0  0
   59.1060   34.7080   47.0270 S   0  0  0  0  0  0  0  0  0  0  0  0
   58.8880   32.9920   47.5200 C   0  0  0  0  0  0  0  0  0  0  0  0
   58.9920   32.6620   48.8130 C   0  0  0  0  0  0  0  0  0  0  0  0
   58.8720   31.2630   49.2540 C   0  0  0  0  0  0  0  0  0  0  0  0
   58.8210   30.9990   50.4840 O   0  0  0  0  0  0  0  0  0  0  0  0
   58.9120   30.1460   48.2500 C   0  0  0  0  0  0  0  0  0  0  0  0
   58.2290   30.5590   46.9280 C   0  0  2  0  0  0  0  0  0  0  0  0
   58.4260   29.5270   45.8190 C   0  0  0  0  0  0  0  0  0  0  0  0
   59.6270   28.7860   45.8240 C   0  0  0  0  0  0  0  0  0  0  0  0
   59.9030   27.8530   44.8250 C   0  0  0  0  0  0  0  0  0  0  0  0
   58.9890   27.6390   43.7970 C   0  0  0  0  0  0  0  0  0  0  0  0
   57.7900   28.3500   43.7710 C   0  0  0  0  0  0  0  0  0  0  0  0
   57.4810   29.2840   44.7760 C   0  0  0  0  0  0  0  0  0  0  0  0
   56.2230   29.9720   44.6980 N   0  0  0  0  0  0  0  0  0  0  0  0
   55.1600   29.3370   44.8610 O   0  0  0  0  0  0  0  0  0  0  0  0
   56.1750   31.3450   44.6880 O   0  0  0  0  0  0  0  0  0  0  0  0
   58.6010   31.9610   46.4990 C   0  0  0  0  0  0  0  0  0  0  0  0
   58.5680   32.2800   45.2790 O   0  0  0  0  0  0  0  0  0  0  0  0
   63.4305   33.3764   50.1648 H   0  0  0  0  0  0  0  0  0  0  0  0
   63.1342   34.8457   49.1749 H   0  0  0  0  0  0  0  0  0  0  0  0
   61.9373   33.5063   49.1749 H   0  0  0  0  0  0  0  0  0  0  0  0
   64.7662   33.4802   48.0097 H   0  0  0  0  0  0  0  0  0  0  0  0
   63.7205   32.0158   48.1835 H   0  0  0  0  0  0  0  0  0  0  0  0
   63.2588   34.4816   46.4508 H   0  0  0  0  0  0  0  0  0  0  0  0
   63.4060   32.7398   45.9561 H   0  0  0  0  0  0  0  0  0  0  0  0
   61.2224   32.3604   46.2599 H   0  0  0  0  0  0  0  0  0  0  0  0
   61.2461   33.2052   47.8757 H   0  0  0  0  0  0  0  0  0  0  0  0
   61.3318   35.3761   46.3477 H   0  0  0  0  0  0  0  0  0  0  0  0
   60.5481   34.2522   45.1532 H   0  0  0  0  0  0  0  0  0  0  0  0
   59.1703   33.4503   49.5592 H   0  0  0  0  0  0  0  0  0  0  0  0
   59.9608   29.8845   48.0457 H   0  0  0  0  0  0  0  0  0  0  0  0
   58.3715   29.2834   48.6668 H   0  0  0  0  0  0  0  0  0  0  0  0
   57.1481   30.5803   47.1310 H   0  0  0  0  0  0  0  0  0  0  0  0
   60.3581   28.9472   46.6299 H   0  0  0  0  0  0  0  0  0  0  0  0
   60.8447   27.2851   44.8493 H   0  0  0  0  0  0  0  0  0  0  0  0
   59.2128   26.9089   43.0052 H   0  0  0  0  0  0  0  0  0  0  0  0
   57.0754   28.1780   42.9526 H   0  0  0  0  0  0  0  0  0  0  0  0
  1  2  1  0
  2  3  1  0
  3  4  1  0
  4  5  1  0
  5  6  1  0
  6  7  1  0
  7  8  2  0
  8  9  1  0
  9 10  2  0
  9 11  1  0
 11 12  1  0
 12 13  1  0
 13 14  2  0
 14 15  1  0
 15 16  2  0
 16 17  1  0
 17 18  2  0
 18 19  1  0
 19 20  2  0
 19 21  1  0
 12 22  1  0
 22 23  2  0
 22  7  1  0
 18 13  1  0
  1 24  1  0
  1 25  1  0
  1 26  1  0
  2 27  1  0
  2 28  1  0
  3 29  1  0
  3 30  1  0
  4 31  1  0
  4 32  1  0
  5 33  1  0
  5 34  1  0
  8 35  1  0
 11 36  1  0
 11 37  1  0
 12 38  1  1
 14 39  1  0
 15 40  1  0
 16 41  1  0
 17 42  1  0
M  CHG  2  19   1  21  -1
M  END
>  <UniqueID>  (54) 
49

>  <SMILES>  (54) 
CCCCCSC1=CC(=O)C[C@H](c2ccccc2[N+](=O)[O-])C1=O

>  <Energy>  (54) 
42.422923973322554

>  <Genealogy>  (54) 
CCCCCSC1=CC(=O)C[C@H](c2ccccc2[N+](=O)[O-])C1=O (chirality)
CCCCCSC1=CC(=O)C[C@H](c2ccccc2[N+](=O)[O-])C1=O (3D coordinates assigned)
CCCCCSC1=CC(=O)C[C@H](c2ccccc2[N+](=O)[O-])C1=O (nonaromatic ring conformer: 42.422923973322554 kcal/mol)

>  <smiles>  (54) 
CCCCCSC1=CC(=O)CC(c2ccccc2[N+](=O)[O-])C1=O

>  <score_type>  (54) 
oracle

>  <origin>  (54) 
adg

>  <m_score__min__energy>  (54) 
-8.2799999999999994

>  <m_primary>  (54) 
energy

$$$$
54:0
     RDKit          3D

 41 43  0  0  0  0  0  0  0  0999 V2000
   63.3730   33.9010   46.3780 C   0  0  0  0  0  0  0  0  0  0  0  0
   63.8960   32.8990   47.2430 O   0  0  0  0  0  0  0  0  0  0  0  0
   63.1100   32.0600   48.0480 C   0  0  0  0  0  0  0  0  0  0  0  0
   63.3720   31.8670   49.4170 C   0  0  0  0  0  0  0  0  0  0  0  0
   62.5590   31.0230   50.1760 C   0  0  0  0  0  0  0  0  0  0  0  0
   61.4800   30.3660   49.5830 C   0  0  0  0  0  0  0  0  0  0  0  0
   61.2000   30.5450   48.2160 C   0  0  0  0  0  0  0  0  0  0  0  0
   60.0540   29.8470   47.5810 C   0  0  0  0  0  0  0  0  0  0  0  0
   59.0490   30.5760   46.9220 C   0  0  0  0  0  0  0  0  0  0  0  0
   57.9710   29.9170   46.3240 C   0  0  0  0  0  0  0  0  0  0  0  0
   57.8660   28.5240   46.3860 C   0  0  0  0  0  0  0  0  0  0  0  0
   56.7520   27.8880   45.7410 N   0  0  0  0  0  0  0  0  0  0  0  0
   56.5190   26.4790   45.6290 C   0  0  0  0  0  0  0  0  0  0  0  0
   55.5260   25.9470   46.1960 O   0  0  0  0  0  0  0  0  0  0  0  0
   57.4220   25.6830   44.8510 N   0  0  0  0  0  0  0  0  0  0  0  0
   57.2020   24.2950   44.5530 C   0  0  0  0  0  0  0  0  0  0  0  0
   56.5650   23.9430   43.3530 C   0  0  0  0  0  0  0  0  0  0  0  0
   56.3260   22.6020   43.0450 C   0  0  0  0  0  0  0  0  0  0  0  0
   56.7070   21.5990   43.9410 C   0  0  0  0  0  0  0  0  0  0  0  0
   56.4710   20.2980   43.6430 F   0  0  0  0  0  0  0  0  0  0  0  0
   57.3170   21.9400   45.1510 C   0  0  0  0  0  0  0  0  0  0  0  0
   57.5590   23.2820   45.4650 C   0  0  0  0  0  0  0  0  0  0  0  0
   58.0920   23.5910   46.6730 F   0  0  0  0  0  0  0  0  0  0  0  0
   58.8800   27.7860   47.0220 C   0  0  0  0  0  0  0  0  0  0  0  0
   59.9600   28.4440   47.6190 C   0  0  0  0  0  0  0  0  0  0  0  0
   62.0270   31.3970   47.4590 C   0  0  0  0  0  0  0  0  0  0  0  0
   62.9466   34.7179   46.9787 H   0  0  0  0  0  0  0  0  0  0  0  0
   64.1803   34.2953   45.7434 H   0  0  0  0  0  0  0  0  0  0  0  0
   62.5879   33.4642   45.7434 H   0  0  0  0  0  0  0  0  0  0  0  0
   64.2202   32.3828   49.8908 H   0  0  0  0  0  0  0  0  0  0  0  0
   62.7698   30.8754   51.2455 H   0  0  0  0  0  0  0  0  0  0  0  0
   60.8440   29.7036   50.1886 H   0  0  0  0  0  0  0  0  0  0  0  0
   59.1113   31.6733   46.8765 H   0  0  0  0  0  0  0  0  0  0  0  0
   57.1986   30.4992   45.8001 H   0  0  0  0  0  0  0  0  0  0  0  0
   58.3510   26.0990   44.6130 H   0  0  0  0  0  0  0  0  0  0  0  0
   56.2518   24.7290   42.6501 H   0  0  0  0  0  0  0  0  0  0  0  0
   55.8374   22.3347   42.0964 H   0  0  0  0  0  0  0  0  0  0  0  0
   57.6081   21.1505   45.8594 H   0  0  0  0  0  0  0  0  0  0  0  0
   58.8236   26.6878   47.0500 H   0  0  0  0  0  0  0  0  0  0  0  0
   60.7433   27.8589   48.1230 H   0  0  0  0  0  0  0  0  0  0  0  0
   61.8189   31.5437   46.3889 H   0  0  0  0  0  0  0  0  0  0  0  0
  1  2  1  0
  2  3  1  0
  3  4  2  0
  4  5  1  0
  5  6  2  0
  6  7  1  0
  7  8  1  0
  8  9  2  0
  9 10  1  0
 10 11  2  0
 11 12  1  0
 12 13  1  0
 13 14  2  0
 13 15  1  0
 15 16  1  0
 16 17  2  0
 17 18  1  0
 18 19  2  0
 19 20  1  0
 19 21  1  0
 21 22  2  0
 22 23  1  0
 11 24  1  0
 24 25  2  0
  7 26  2  0
 26  3  1  0
 25  8  1  0
 22 16  1  0
  1 27  1  0
  1 28  1  0
  1 29  1  0
  4 30  1  0
  5 31  1  0
  6 32  1  0
  9 33  1  0
 10 34  1  0
 15 35  1  0
 17 36  1  0
 18 37  1  0
 21 38  1  0
 24 39  1  0
 25 40  1  0
 26 41  1  0
M  CHG  1  12  -1
M  END
>  <UniqueID>  (55) 
50

>  <SMILES>  (55) 
COc1cccc(-c2ccc([N-]C(=O)Nc3ccc(F)cc3F)cc2)c1

>  <Energy>  (55) 
56.487533627532336

>  <Genealogy>  (55) 
COc1cccc(-c2ccc([N-]C(=O)Nc3ccc(F)cc3F)cc2)c1 (protonated)
COc1cccc(-c2ccc([N-]C(=O)Nc3ccc(F)cc3F)cc2)c1 (3D coordinates assigned)
COc1cccc(-c2ccc([N-]C(=O)Nc3ccc(F)cc3F)cc2)c1 (optimized conformer: 56.487533627532336 kcal/mol)

>  <smiles>  (55) 
COc1cccc(-c2ccc(NC(=O)Nc3ccc(F)cc3F)cc2)c1

>  <score_type>  (55) 
oracle

>  <origin>  (55) 
adg

>  <m_score__min__energy>  (55) 
-8.5199999999999996

>  <m_primary>  (55) 
energy

$$$$
55:0
     RDKit          3D

 55 58  0  0  0  0  0  0  0  0999 V2000
   50.2160   31.9680   50.6850 H   0  0  0  0  0  0  0  0  0  0  0  0
   50.9870   32.0440   51.3850 N   0  0  0  0  0  0  0  0  0  0  0  0
   51.5210   30.8810   52.0160 C   0  0  0  0  0  0  0  0  0  0  0  0
   50.7310   30.0300   52.5070 O   0  0  0  0  0  0  0  0  0  0  0  0
   52.9860   30.6730   52.0950 C   0  0  0  0  0  0  0  0  0  0  0  0
   53.5130   29.3850   52.3020 C   0  0  0  0  0  0  0  0  0  0  0  0
   52.8327   28.5268   52.4056 H   0  0  0  0  0  0  0  0  0  0  0  0
   54.8950   29.1880   52.3770 C   0  0  0  0  0  0  0  0  0  0  0  0
   55.2961   28.1742   52.5230 H   0  0  0  0  0  0  0  0  0  0  0  0
   55.7730   30.2770   52.2670 C   0  0  0  0  0  0  0  0  0  0  0  0
   57.2320   30.0770   52.3020 C   0  0  0  0  0  0  0  0  0  0  0  0
   57.6777   29.7191   53.2418 H   0  0  0  0  0  0  0  0  0  0  0  0
   58.0600   30.3030   51.2590 C   0  0  0  0  0  0  0  0  0  0  0  0
   58.3470   31.6930   50.8290 C   0  0  0  0  0  0  0  0  0  0  0  0
   57.8820   32.6680   51.4850 O   0  0  0  0  0  0  0  0  0  0  0  0
   59.1520   31.9350   49.6590 N   0  0  0  0  0  0  0  0  0  0  0  0
   59.6650   33.2820   49.3690 C   0  0  0  0  0  0  0  0  0  0  0  0
   59.2827   33.9869   50.1219 H   0  0  0  0  0  0  0  0  0  0  0  0
   60.7644   33.2628   49.3987 H   0  0  0  0  0  0  0  0  0  0  0  0
   59.2170   33.7220   48.0030 C   0  0  0  0  0  0  0  0  0  0  0  0
   60.0210   34.5830   47.2360 C   0  0  0  0  0  0  0  0  0  0  0  0
   60.9675   34.9618   47.6492 H   0  0  0  0  0  0  0  0  0  0  0  0
   59.6220   34.9600   45.9490 C   0  0  0  0  0  0  0  0  0  0  0  0
   60.2517   35.6391   45.3555 H   0  0  0  0  0  0  0  0  0  0  0  0
   58.4250   34.4750   45.4170 C   0  0  0  0  0  0  0  0  0  0  0  0
   58.1125   34.7733   44.4054 H   0  0  0  0  0  0  0  0  0  0  0  0
   57.6240   33.6110   46.1690 C   0  0  0  0  0  0  0  0  0  0  0  0
   56.6817   33.2296   45.7487 H   0  0  0  0  0  0  0  0  0  0  0  0
   58.0200   33.2310   47.4560 C   0  0  0  0  0  0  0  0  0  0  0  0
   57.3912   32.5447   48.0421 H   0  0  0  0  0  0  0  0  0  0  0  0
   59.5050   30.8230   48.8160 C   0  0  0  0  0  0  0  0  0  0  0  0
   60.1320   31.0190   47.7380 O   0  0  0  0  0  0  0  0  0  0  0  0
   59.1430   29.4840   49.2020 N   0  0  0  0  0  0  0  0  0  0  0  0
   59.2280   28.4030   48.2510 C   0  0  0  0  0  0  0  0  0  0  0  0
   60.3830   27.6050   48.1770 C   0  0  0  0  0  0  0  0  0  0  0  0
   61.2357   27.8134   48.8399 H   0  0  0  0  0  0  0  0  0  0  0  0
   60.4530   26.5480   47.2650 C   0  0  0  0  0  0  0  0  0  0  0  0
   61.3593   25.9267   47.2136 H   0  0  0  0  0  0  0  0  0  0  0  0
   59.3750   26.2790   46.4190 C   0  0  0  0  0  0  0  0  0  0  0  0
   59.4319   25.4404   45.7094 H   0  0  0  0  0  0  0  0  0  0  0  0
   58.2190   27.0740   46.4700 C   0  0  0  0  0  0  0  0  0  0  0  0
   57.0420   26.7610   45.5890 C   0  0  0  0  0  0  0  0  0  0  0  0
   56.8459   27.6166   44.9261 H   0  0  0  0  0  0  0  0  0  0  0  0
   57.2686   25.8673   44.9890 H   0  0  0  0  0  0  0  0  0  0  0  0
   55.9070   26.5120   46.3730 O   0  0  0  0  0  0  0  0  0  0  0  0
   55.9640   27.1220   47.1550 H   0  0  0  0  0  0  0  0  0  0  0  0
   58.1470   28.1250   47.3980 C   0  0  0  0  0  0  0  0  0  0  0  0
   57.2349   28.7370   47.4578 H   0  0  0  0  0  0  0  0  0  0  0  0
   58.8680   29.1960   50.6150 C   0  0  0  0  0  0  0  0  0  0  0  0
   59.8228   29.0919   51.1511 H   0  0  0  0  0  0  0  0  0  0  0  0
   58.2846   28.2651   50.6707 H   0  0  0  0  0  0  0  0  0  0  0  0
   55.2540   31.5570   52.0330 C   0  0  0  0  0  0  0  0  0  0  0  0
   55.9373   32.4100   51.9084 H   0  0  0  0  0  0  0  0  0  0  0  0
   53.8730   31.7560   51.9570 C   0  0  0  0  0  0  0  0  0  0  0  0
   53.4762   32.7679   51.7879 H   0  0  0  0  0  0  0  0  0  0  0  0
  1  2  1  0
  2  3  1  0
  3  4  2  0
  3  5  1  0
  5  6  2  0
  6  7  1  0
  6  8  1  0
  8  9  1  0
  8 10  2  0
 10 11  1  0
 11 12  1  0
 11 13  2  0
 13 14  1  0
 14 15  2  0
 14 16  1  0
 16 17  1  0
 17 18  1  0
 17 19  1  0
 17 20  1  0
 20 21  2  0
 21 22  1  0
 21 23  1  0
 23 24  1  0
 23 25  2  0
 25 26  1  0
 25 27  1  0
 27 28  1  0
 27 29  2  0
 29 30  1  0
 16 31  1  0
 31 32  2  0
 31 33  1  0
 33 34  1  0
 34 35  2  0
 35 36  1  0
 35 37  1  0
 37 38  1  0
 37 39  2  0
 39 40  1  0
 39 41  1  0
 41 42  1  0
 42 43  1  0
 42 44  1  0
 42 45  1  0
 45 46  1  0
 41 47  2  0
 47 48  1  0
 33 49  1  0
 49 50  1  0
 49 51  1  0
 10 52  1  0
 52 53  1  0
 52 54  2  0
 54 55  1  0
 54  5  1  0
 49 13  1  0
 29 20  1  0
 47 34  1  0
M  CHG  1   2  -1
M  END
>  <UniqueID>  (56) 
51

>  <SMILES>  (56) 
[NH-]C(=O)c1ccc(/C=C2\CN(c3cccc(CO)c3)C(=O)N(Cc3ccccc3)C2=O)cc1

>  <Energy>  (56) 
73.21088787879758

>  <Genealogy>  (56) 
[NH-]C(=O)c1ccc(C=C2CN(c3cccc(CO)c3)C(=O)N(Cc3ccccc3)C2=O)cc1 (protonated)
[NH-]C(=O)c1ccc(/C=C2\CN(c3cccc(CO)c3)C(=O)N(Cc3ccccc3)C2=O)cc1 (cis-trans isomerization)
[NH-]C(=O)c1ccc(/C=C2\CN(c3cccc(CO)c3)C(=O)N(Cc3ccccc3)C2=O)cc1 (3D coordinates assigned)
[NH-]C(=O)c1ccc(/C=C2\CN(c3cccc(CO)c3)C(=O)N(Cc3ccccc3)C2=O)cc1 (nonaromatic ring conformer: 73.21088787879758 kcal/mol)

>  <smiles>  (56) 
NC(=O)c1ccc(C=C2CN(c3cccc(CO)c3)C(=O)N(Cc3ccccc3)C2=O)cc1

>  <score_type>  (56) 
oracle

>  <origin>  (56) 
adg

>  <m_score__min__energy>  (56) 
-12.529999999999999

>  <m_primary>  (56) 
energy

$$$$
56:0
     RDKit          3D

 28 29  0  0  0  0  0  0  0  0999 V2000
   56.3160   25.2720   47.1200 O   0  0  0  0  0  0  0  0  0  0  0  0
   56.0060   26.2010   46.3280 C   0  0  0  0  0  0  0  0  0  0  0  0
   54.6790   26.3410   45.9400 O   0  0  0  0  0  0  0  0  0  0  0  0
   57.0380   27.1310   45.8180 C   0  0  0  0  0  0  0  0  0  0  0  0
   58.4010   26.7970   45.9070 C   0  0  0  0  0  0  0  0  0  0  0  0
   59.3770   27.6730   45.4250 C   0  0  0  0  0  0  0  0  0  0  0  0
   59.0050   28.8910   44.8510 C   0  0  0  0  0  0  0  0  0  0  0  0
   57.6530   29.2420   44.7610 C   0  0  0  0  0  0  0  0  0  0  0  0
   57.1910   30.7840   44.0450 S   0  0  0  0  0  0  0  0  0  0  0  0
   55.9170   30.6510   43.2580 O   0  0  0  0  0  0  0  0  0  0  0  0
   58.2900   31.2290   43.1220 O   0  0  0  0  0  0  0  0  0  0  0  0
   56.9760   31.9830   45.2800 N   0  0  0  0  0  0  0  0  0  0  0  0
   57.9930   32.7930   45.8910 C   0  0  0  0  0  0  0  0  0  0  0  0
   58.2480   34.1320   45.5140 C   0  0  0  0  0  0  0  0  0  0  0  0
   57.5650   34.7370   44.5120 F   0  0  0  0  0  0  0  0  0  0  0  0
   59.2480   34.8640   46.1630 C   0  0  0  0  0  0  0  0  0  0  0  0
   60.0050   34.2780   47.1780 C   0  0  0  0  0  0  0  0  0  0  0  0
   59.7690   32.9520   47.5470 C   0  0  0  0  0  0  0  0  0  0  0  0
   58.7720   32.2130   46.9060 C   0  0  0  0  0  0  0  0  0  0  0  0
   58.5530   30.9280   47.2790 F   0  0  0  0  0  0  0  0  0  0  0  0
   56.6730   28.3610   45.2380 C   0  0  0  0  0  0  0  0  0  0  0  0
   58.7008   25.8400   46.3590 H   0  0  0  0  0  0  0  0  0  0  0  0
   60.4408   27.4029   45.4977 H   0  0  0  0  0  0  0  0  0  0  0  0
   59.7763   29.5758   44.4689 H   0  0  0  0  0  0  0  0  0  0  0  0
   59.4386   35.9074   45.8715 H   0  0  0  0  0  0  0  0  0  0  0  0
   60.7872   34.8601   47.6872 H   0  0  0  0  0  0  0  0  0  0  0  0
   60.3693   32.4887   48.3439 H   0  0  0  0  0  0  0  0  0  0  0  0
   55.6100   28.6326   45.1586 H   0  0  0  0  0  0  0  0  0  0  0  0
  1  2  2  0
  2  3  1  0
  2  4  1  0
  4  5  2  0
  5  6  1  0
  6  7  2  0
  7  8  1  0
  8  9  1  0
  9 10  2  0
  9 11  2  0
  9 12  1  0
 12 13  1  0
 13 14  2  0
 14 15  1  0
 14 16  1  0
 16 17  2  0
 17 18  1  0
 18 19  2  0
 19 20  1  0
  8 21  2  0
 21  4  1  0
 19 13  1  0
  5 22  1  0
  6 23  1  0
  7 24  1  0
 16 25  1  0
 17 26  1  0
 18 27  1  0
 21 28  1  0
M  CHG  2   3  -1  12  -1
M  END
>  <UniqueID>  (57) 
52

>  <SMILES>  (57) 
O=C([O-])c1cccc(S(=O)(=O)[N-]c2c(F)cccc2F)c1

>  <Energy>  (57) 
35.43113486005122

>  <Genealogy>  (57) 
O=C([O-])c1cccc(S(=O)(=O)[N-]c2c(F)cccc2F)c1 (protonated)
O=C([O-])c1cccc(S(=O)(=O)[N-]c2c(F)cccc2F)c1 (3D coordinates assigned)
O=C([O-])c1cccc(S(=O)(=O)[N-]c2c(F)cccc2F)c1 (optimized conformer: 35.43113486005122 kcal/mol)

>  <smiles>  (57) 
O=C(O)c1cccc(S(=O)(=O)Nc2c(F)cccc2F)c1

>  <score_type>  (57) 
oracle

>  <origin>  (57) 
adg

>  <m_score__min__energy>  (57) 
-11.619999999999999

>  <m_primary>  (57) 
energy

$$$$
57:0
     RDKit          3D

 51 53  0  0  0  0  0  0  0  0999 V2000
   54.7430   26.3360   45.7030 O   0  0  0  0  0  0  0  0  0  0  0  0
   56.0600   26.6310   46.0340 C   0  0  0  0  0  0  0  0  0  0  0  0
   56.8100   25.7290   46.7940 C   0  0  0  0  0  0  0  0  0  0  0  0
   58.1330   26.0250   47.1300 C   0  0  0  0  0  0  0  0  0  0  0  0
   58.7220   27.2260   46.6970 C   0  0  0  0  0  0  0  0  0  0  0  0
   60.1360   27.5650   47.0880 C   0  0  0  0  0  0  0  0  0  0  0  0
   60.1980   28.0020   48.5580 C   0  0  0  0  0  0  0  0  0  0  0  0
   60.6980   29.3830   48.6710 N   0  0  0  0  0  0  0  0  0  0  0  0
   60.4700   29.9420   50.0170 C   0  0  0  0  0  0  0  0  0  0  0  0
   59.6110   31.2160   49.9780 C   0  0  0  0  0  0  0  0  0  0  0  0
   59.0500   31.3860   48.6890 O   0  0  0  0  0  0  0  0  0  0  0  0
   59.3280   32.6780   48.1670 C   0  0  0  0  0  0  0  0  0  0  0  0
   60.8230   32.9010   48.1240 C   0  0  0  0  0  0  0  0  0  0  0  0
   61.4110   33.8700   48.9590 C   0  0  0  0  0  0  0  0  0  0  0  0
   62.7850   34.1170   48.8970 C   0  0  0  0  0  0  0  0  0  0  0  0
   63.5850   33.4110   47.9960 C   0  0  0  0  0  0  0  0  0  0  0  0
   63.0110   32.4560   47.1510 C   0  0  0  0  0  0  0  0  0  0  0  0
   61.6370   32.2050   47.2080 C   0  0  0  0  0  0  0  0  0  0  0  0
   58.7640   32.8280   46.7690 C   0  0  0  0  0  0  0  0  0  0  0  0
   58.3160   31.7070   46.0460 C   0  0  0  0  0  0  0  0  0  0  0  0
   57.8230   31.8560   44.7470 C   0  0  0  0  0  0  0  0  0  0  0  0
   57.7800   33.1210   44.1540 C   0  0  0  0  0  0  0  0  0  0  0  0
   58.2340   34.2380   44.8580 C   0  0  0  0  0  0  0  0  0  0  0  0
   58.7290   34.0940   46.1580 C   0  0  0  0  0  0  0  0  0  0  0  0
   57.9580   28.1330   45.9430 C   0  0  0  0  0  0  0  0  0  0  0  0
   56.6340   27.8340   45.6110 C   0  0  0  0  0  0  0  0  0  0  0  0
   56.3573   24.7839   47.1282 H   0  0  0  0  0  0  0  0  0  0  0  0
   58.7163   25.3158   47.7357 H   0  0  0  0  0  0  0  0  0  0  0  0
   60.7728   26.6792   46.9467 H   0  0  0  0  0  0  0  0  0  0  0  0
   60.4909   28.3924   46.4560 H   0  0  0  0  0  0  0  0  0  0  0  0
   59.1896   27.9465   48.9939 H   0  0  0  0  0  0  0  0  0  0  0  0
   60.8846   27.3325   49.0969 H   0  0  0  0  0  0  0  0  0  0  0  0
   61.7300   29.3770   48.4920 H   0  0  0  0  0  0  0  0  0  0  0  0
   60.2460   29.9900   47.9470 H   0  0  0  0  0  0  0  0  0  0  0  0
   59.9573   29.1876   50.6318 H   0  0  0  0  0  0  0  0  0  0  0  0
   61.4488   30.2073   50.4430 H   0  0  0  0  0  0  0  0  0  0  0  0
   58.8020   31.1320   50.7186 H   0  0  0  0  0  0  0  0  0  0  0  0
   60.2444   32.0843   50.2121 H   0  0  0  0  0  0  0  0  0  0  0  0
   58.8550   33.4232   48.8235 H   0  0  0  0  0  0  0  0  0  0  0  0
   60.7851   34.4361   49.6645 H   0  0  0  0  0  0  0  0  0  0  0  0
   63.2376   34.8694   49.5596 H   0  0  0  0  0  0  0  0  0  0  0  0
   64.6666   33.6061   47.9510 H   0  0  0  0  0  0  0  0  0  0  0  0
   63.6416   31.9015   46.4404 H   0  0  0  0  0  0  0  0  0  0  0  0
   61.1887   31.4601   46.5341 H   0  0  0  0  0  0  0  0  0  0  0  0
   58.3541   30.7084   46.5057 H   0  0  0  0  0  0  0  0  0  0  0  0
   57.4681   30.9762   44.1901 H   0  0  0  0  0  0  0  0  0  0  0  0
   57.3884   33.2365   43.1326 H   0  0  0  0  0  0  0  0  0  0  0  0
   58.2023   35.2327   44.3894 H   0  0  0  0  0  0  0  0  0  0  0  0
   59.0930   34.9759   46.7056 H   0  0  0  0  0  0  0  0  0  0  0  0
   58.4042   29.0826   45.6127 H   0  0  0  0  0  0  0  0  0  0  0  0
   56.0426   28.5457   45.0163 H   0  0  0  0  0  0  0  0  0  0  0  0
  1  2  1  0
  2  3  2  0
  3  4  1  0
  4  5  2  0
  5  6  1  0
  6  7  1  0
  7  8  1  0
  8  9  1  0
  9 10  1  0
 10 11  1  0
 11 12  1  0
 12 13  1  0
 13 14  2  0
 14 15  1  0
 15 16  2  0
 16 17  1  0
 17 18  2  0
 12 19  1  0
 19 20  2  0
 20 21  1  0
 21 22  2  0
 22 23  1  0
 23 24  2  0
  5 25  1  0
 25 26  2  0
 26  2  1  0
 18 13  1  0
 24 19  1  0
  3 27  1  0
  4 28  1  0
  6 29  1  0
  6 30  1  0
  7 31  1  0
  7 32  1  0
  8 33  1  0
  8 34  1  0
  9 35  1  0
  9 36  1  0
 10 37  1  0
 10 38  1  0
 12 39  1  0
 14 40  1  0
 15 41  1  0
 16 42  1  0
 17 43  1  0
 18 44  1  0
 20 45  1  0
 21 46  1  0
 22 47  1  0
 23 48  1  0
 24 49  1  0
 25 50  1  0
 26 51  1  0
M  CHG  2   1  -1   8   1
M  END
>  <UniqueID>  (58) 
53

>  <SMILES>  (58) 
[O-]c1ccc(CC[NH2+]CCOC(c2ccccc2)c2ccccc2)cc1

>  <Energy>  (58) 
52.88286130713236

>  <Genealogy>  (58) 
[O-]c1ccc(CC[NH2+]CCOC(c2ccccc2)c2ccccc2)cc1 (protonated)
[O-]c1ccc(CC[NH2+]CCOC(c2ccccc2)c2ccccc2)cc1 (3D coordinates assigned)
[O-]c1ccc(CC[NH2+]CCOC(c2ccccc2)c2ccccc2)cc1 (optimized conformer: 52.88286130713236 kcal/mol)

>  <smiles>  (58) 
Oc1ccc(CCNCCOC(c2ccccc2)c2ccccc2)cc1

>  <score_type>  (58) 
oracle

>  <origin>  (58) 
adg

>  <m_score__min__energy>  (58) 
-11.039999999999999

>  <m_primary>  (58) 
energy

$$$$
58:0
     RDKit          3D

 26 27  0  0  0  0  0  0  0  0999 V2000
   55.6070   23.8700   46.0680 C   0  0  0  0  0  0  0  0  0  0  0  0
   56.4400   24.7350   46.8340 O   0  0  0  0  0  0  0  0  0  0  0  0
   57.0020   25.9290   46.3580 C   0  0  0  0  0  0  0  0  0  0  0  0
   58.3920   26.1270   46.3030 C   0  0  0  0  0  0  0  0  0  0  0  0
   58.9200   27.3300   45.8230 C   0  0  0  0  0  0  0  0  0  0  0  0
   60.2730   27.5140   45.7730 N   0  0  0  0  0  0  0  0  0  0  0  0
   60.8190   28.6710   45.3120 C   0  0  0  0  0  0  0  0  0  0  0  0
   59.9990   29.7090   44.8740 C   0  0  0  0  0  0  0  0  0  0  0  0
   58.6130   29.5540   44.9130 C   0  0  0  0  0  0  0  0  0  0  0  0
   58.0490   28.3570   45.3890 C   0  0  0  0  0  0  0  0  0  0  0  0
   56.6510   28.1740   45.4390 C   0  0  0  0  0  0  0  0  0  0  0  0
   55.8310   29.2310   44.9930 O   0  0  0  0  0  0  0  0  0  0  0  0
   55.7780   29.7660   43.6750 C   0  0  0  0  0  0  0  0  0  0  0  0
   56.1370   26.9460   45.9290 C   0  0  0  0  0  0  0  0  0  0  0  0
   54.7690   26.7120   45.9990 O   0  0  0  0  0  0  0  0  0  0  0  0
   55.0057   23.2456   46.7452 H   0  0  0  0  0  0  0  0  0  0  0  0
   54.9391   24.4712   45.4336 H   0  0  0  0  0  0  0  0  0  0  0  0
   56.2329   23.2252   45.4336 H   0  0  0  0  0  0  0  0  0  0  0  0
   59.0704   25.3295   46.6402 H   0  0  0  0  0  0  0  0  0  0  0  0
   60.9190   26.7550   46.0930 H   0  0  0  0  0  0  0  0  0  0  0  0
   61.9124   28.7880   45.2848 H   0  0  0  0  0  0  0  0  0  0  0  0
   60.4414   30.6441   44.5001 H   0  0  0  0  0  0  0  0  0  0  0  0
   57.9598   30.3701   44.5706 H   0  0  0  0  0  0  0  0  0  0  0  0
   55.6697   30.8594   43.7272 H   0  0  0  0  0  0  0  0  0  0  0  0
   56.7055   29.5146   43.1396 H   0  0  0  0  0  0  0  0  0  0  0  0
   54.9179   29.3375   43.1396 H   0  0  0  0  0  0  0  0  0  0  0  0
  1  2  1  0
  2  3  1  0
  3  4  2  0
  4  5  1  0
  5  6  2  0
  6  7  1  0
  7  8  2  0
  8  9  1  0
  9 10  2  0
 10 11  1  0
 11 12  1  0
 12 13  1  0
 11 14  2  0
 14 15  1  0
 14  3  1  0
 10  5  1  0
  1 16  1  0
  1 17  1  0
  1 18  1  0
  4 19  1  0
  6 20  1  0
  7 21  1  0
  8 22  1  0
  9 23  1  0
 13 24  1  0
 13 25  1  0
 13 26  1  0
M  CHG  2   6   1  15  -1
M  END
>  <UniqueID>  (59) 
54

>  <SMILES>  (59) 
COc1cc2[nH+]cccc2c(OC)c1[O-]

>  <Energy>  (59) 
32.67433638860021

>  <Genealogy>  (59) 
COc1cc2[nH+]cccc2c(OC)c1[O-] (protonated)
COc1cc2[nH+]cccc2c(OC)c1[O-] (3D coordinates assigned)
COc1cc2[nH+]cccc2c(OC)c1[O-] (optimized conformer: 32.67433638860021 kcal/mol)

>  <smiles>  (59) 
COc1cc2ncccc2c(OC)c1O

>  <score_type>  (59) 
oracle

>  <origin>  (59) 
adg

>  <m_score__min__energy>  (59) 
-8.3699999999999992

>  <m_primary>  (59) 
energy

$$$$
59:0
     RDKit          3D

 36 38  0  0  0  0  0  0  0  0999 V2000
   66.2410   33.3290   50.1880 N   0  0  0  0  0  0  0  0  0  0  0  0
   65.2460   33.1020   49.6430 C   0  0  0  0  0  0  0  0  0  0  0  0
   64.0080   32.8200   48.9660 C   0  0  0  0  0  0  0  0  0  0  0  0
   63.7090   33.4560   47.7560 C   0  0  0  0  0  0  0  0  0  0  0  0
   62.5060   33.1820   47.0970 C   0  0  0  0  0  0  0  0  0  0  0  0
   61.5850   32.2690   47.6420 C   0  0  0  0  0  0  0  0  0  0  0  0
   60.3070   31.9780   46.9430 C   0  0  0  0  0  0  0  0  0  0  0  0
   59.7930   32.8750   45.9900 C   0  0  0  0  0  0  0  0  0  0  0  0
   58.5900   32.5990   45.3320 C   0  0  0  0  0  0  0  0  0  0  0  0
   57.8800   31.4260   45.6120 C   0  0  0  0  0  0  0  0  0  0  0  0
   56.6520   31.1850   44.9130 N   0  0  0  0  0  0  0  0  0  0  0  0
   56.2660   29.7370   44.0430 S   0  0  0  0  0  0  0  0  0  0  0  0
   54.7970   29.4390   44.1550 O   0  0  0  0  0  0  0  0  0  0  0  0
   56.6430   29.9050   42.5970 O   0  0  0  0  0  0  0  0  0  0  0  0
   57.1770   28.4010   44.7250 C   0  0  0  0  0  0  0  0  0  0  0  0
   58.5140   28.2000   44.3600 C   0  0  0  0  0  0  0  0  0  0  0  0
   59.2200   27.1320   44.9160 C   0  0  0  0  0  0  0  0  0  0  0  0
   58.5880   26.2790   45.8250 C   0  0  0  0  0  0  0  0  0  0  0  0
   57.2540   26.5130   46.1650 C   0  0  0  0  0  0  0  0  0  0  0  0
   56.5830   27.5580   45.6140 N   0  0  0  0  0  0  0  0  0  0  0  0
   58.3890   30.5260   46.5640 C   0  0  0  0  0  0  0  0  0  0  0  0
   59.5920   30.8000   47.2220 C   0  0  0  0  0  0  0  0  0  0  0  0
   61.8960   31.6350   48.8600 C   0  0  0  0  0  0  0  0  0  0  0  0
   63.0990   31.9090   49.5160 C   0  0  0  0  0  0  0  0  0  0  0  0
   64.4215   34.1730   47.3221 H   0  0  0  0  0  0  0  0  0  0  0  0
   62.2784   33.6843   46.1452 H   0  0  0  0  0  0  0  0  0  0  0  0
   60.3410   33.8007   45.7602 H   0  0  0  0  0  0  0  0  0  0  0  0
   58.1990   33.3094   44.5887 H   0  0  0  0  0  0  0  0  0  0  0  0
   59.0024   28.8763   43.6430 H   0  0  0  0  0  0  0  0  0  0  0  0
   60.2710   26.9621   44.6395 H   0  0  0  0  0  0  0  0  0  0  0  0
   59.1350   25.4333   46.2674 H   0  0  0  0  0  0  0  0  0  0  0  0
   56.7454   25.8500   46.8804 H   0  0  0  0  0  0  0  0  0  0  0  0
   57.8383   29.6016   46.7926 H   0  0  0  0  0  0  0  0  0  0  0  0
   59.9822   30.0880   47.9641 H   0  0  0  0  0  0  0  0  0  0  0  0
   61.1863   30.9182   49.2988 H   0  0  0  0  0  0  0  0  0  0  0  0
   63.3321   31.4075   50.4669 H   0  0  0  0  0  0  0  0  0  0  0  0
  1  2  3  0
  2  3  1  0
  3  4  2  0
  4  5  1  0
  5  6  2  0
  6  7  1  0
  7  8  2  0
  8  9  1  0
  9 10  2  0
 10 11  1  0
 11 12  1  0
 12 13  2  0
 12 14  2  0
 12 15  1  0
 15 16  2  0
 16 17  1  0
 17 18  2  0
 18 19  1  0
 19 20  2  0
 10 21  1  0
 21 22  2  0
  6 23  1  0
 23 24  2  0
 24  3  1  0
 22  7  1  0
 20 15  1  0
  4 25  1  0
  5 26  1  0
  8 27  1  0
  9 28  1  0
 16 29  1  0
 17 30  1  0
 18 31  1  0
 19 32  1  0
 21 33  1  0
 22 34  1  0
 23 35  1  0
 24 36  1  0
M  CHG  1  11  -1
M  END
>  <UniqueID>  (60) 
55

>  <SMILES>  (60) 
N#Cc1ccc(-c2ccc([N-]S(=O)(=O)c3ccccn3)cc2)cc1

>  <Energy>  (60) 
47.99365316816489

>  <Genealogy>  (60) 
N#Cc1ccc(-c2ccc([N-]S(=O)(=O)c3ccccn3)cc2)cc1 (protonated)
N#Cc1ccc(-c2ccc([N-]S(=O)(=O)c3ccccn3)cc2)cc1 (3D coordinates assigned)
N#Cc1ccc(-c2ccc([N-]S(=O)(=O)c3ccccn3)cc2)cc1 (optimized conformer: 47.99365316816489 kcal/mol)

>  <smiles>  (60) 
N#Cc1ccc(-c2ccc(NS(=O)(=O)c3ccccn3)cc2)cc1

>  <score_type>  (60) 
oracle

>  <origin>  (60) 
adg

>  <m_score__min__energy>  (60) 
-9.5199999999999996

>  <m_primary>  (60) 
energy

$$$$
60:0
     RDKit          3D

 35 38  0  0  0  0  0  0  0  0999 V2000
   59.3476   30.4523   46.1206 H   0  0  0  0  0  0  0  0  0  0  0  0
   58.5350   29.7470   45.8920 C   0  0  0  0  0  0  0  0  0  0  0  0
   58.4670   28.5050   46.4400 N   0  0  0  0  0  0  0  0  0  0  0  0
   57.3790   27.8290   46.0050 C   0  0  0  0  0  0  0  0  0  0  0  0
   57.0820   26.6150   46.3630 N   0  0  0  0  0  0  0  0  0  0  0  0
   55.9660   25.8540   45.8790 C   0  0  0  0  0  0  0  0  0  0  0  0
   54.8090   26.3350   45.9950 O   0  0  0  0  0  0  0  0  0  0  0  0
   56.1260   24.5190   45.2670 C   0  0  0  0  0  0  0  0  0  0  0  0
   56.3490   24.3140   43.8970 C   0  0  0  0  0  0  0  0  0  0  0  0
   56.4267   25.0670   43.0989 H   0  0  0  0  0  0  0  0  0  0  0  0
   56.4470   22.9490   43.7910 C   0  0  0  0  0  0  0  0  0  0  0  0
   56.7070   21.7820   42.6210 S   0  0  0  0  0  0  0  0  0  0  0  0
   56.5920   20.5010   43.7530 C   0  0  0  0  0  0  0  0  0  0  0  0
   56.6941   19.4337   43.5072 H   0  0  0  0  0  0  0  0  0  0  0  0
   56.3490   21.0080   45.0380 C   0  0  0  0  0  0  0  0  0  0  0  0
   56.2311   20.3971   45.9451 H   0  0  0  0  0  0  0  0  0  0  0  0
   56.2790   22.3970   44.9970 C   0  0  0  0  0  0  0  0  0  0  0  0
   56.0600   23.3290   45.9390 N   0  0  0  0  0  0  0  0  0  0  0  0
   55.7970   23.0880   47.3570 C   0  0  0  0  0  0  0  0  0  0  0  0
   56.4726   23.7071   47.9656 H   0  0  0  0  0  0  0  0  0  0  0  0
   54.7535   23.3500   47.5861 H   0  0  0  0  0  0  0  0  0  0  0  0
   55.9671   22.0256   47.5861 H   0  0  0  0  0  0  0  0  0  0  0  0
   56.4690   28.7220   44.9140 S   0  0  0  0  0  0  0  0  0  0  0  0
   57.4950   30.0570   45.0180 C   0  0  0  0  0  0  0  0  0  0  0  0
   57.3450   31.3220   44.2750 C   0  0  0  0  0  0  0  0  0  0  0  0
   57.4550   31.3210   43.0200 O   0  0  0  0  0  0  0  0  0  0  0  0
   56.9940   32.5430   44.9380 N   0  0  0  0  0  0  0  0  0  0  0  0
   57.8160   33.3070   45.5970 C   0  0  0  0  0  0  0  0  0  0  0  0
   58.9840   34.2610   44.8610 S   0  0  0  0  0  0  0  0  0  0  0  0
   59.5840   34.8390   46.3270 C   0  0  0  0  0  0  0  0  0  0  0  0
   60.4100   35.5551   46.4491 H   0  0  0  0  0  0  0  0  0  0  0  0
   58.8530   34.2530   47.3550 C   0  0  0  0  0  0  0  0  0  0  0  0
   59.0498   34.4638   48.4165 H   0  0  0  0  0  0  0  0  0  0  0  0
   57.8770   33.4000   46.9470 N   0  0  0  0  0  0  0  0  0  0  0  0
   57.2780   32.8670   47.6150 H   0  0  0  0  0  0  0  0  0  0  0  0
  1  2  1  0
  2  3  1  0
  3  4  1  0
  4  5  2  0
  5  6  1  0
  6  7  2  0
  6  8  1  0
  8  9  2  0
  9 10  1  0
  9 11  1  0
 11 12  1  0
 12 13  1  0
 13 14  1  0
 13 15  2  0
 15 16  1  0
 15 17  1  0
 17 18  1  0
 18 19  1  0
 19 20  1  0
 19 21  1  0
 19 22  1  0
  4 23  1  0
 23 24  1  0
 24 25  1  0
 25 26  2  0
 25 27  1  0
 27 28  2  3
 28 29  1  0
 29 30  1  0
 30 31  1  0
 30 32  2  0
 32 33  1  0
 32 34  1  0
 34 35  1  0
 24  2  2  0
 34 28  1  0
 18  8  1  0
 17 11  2  0
M  CHG  1   3  -1
M  END
>  <UniqueID>  (61) 
56

>  <SMILES>  (61) 
Cn1c(C(=O)/N=c2\[n-]cc(C(=O)N=c3[nH]ccs3)s2)cc2sccc21

>  <Energy>  (61) 
187.32806007987398

>  <Genealogy>  (61) 
Cn1c(C(=O)N=c2[n-]cc(C(=O)N=c3[nH]ccs3)s2)cc2sccc21 (protonated)
Cn1c(C(=O)/N=c2\[n-]cc(C(=O)N=c3[nH]ccs3)s2)cc2sccc21 (cis-trans isomerization)
Cn1c(C(=O)/N=c2\[n-]cc(C(=O)N=c3[nH]ccs3)s2)cc2sccc21 (3D coordinates assigned)
Cn1c(C(=O)/N=c2\[n-]cc(C(=O)N=c3[nH]ccs3)s2)cc2sccc21 (optimized conformer: 187.32806007987398 kcal/mol)

>  <smiles>  (61) 
Cn1c(C(=O)N=c2[nH]cc(C(=O)N=c3[nH]ccs3)s2)cc2sccc21

>  <score_type>  (61) 
oracle

>  <origin>  (61) 
adg

>  <m_score__min__energy>  (61) 
-10.52

>  <m_primary>  (61) 
energy

$$$$
61:0
     RDKit          3D

 56 60  0  0  0  0  0  0  0  0999 V2000
   54.8320   25.8960   45.9880 O   0  0  0  0  0  0  0  0  0  0  0  0
   55.5000   24.8490   46.2060 C   0  0  0  0  0  0  0  0  0  0  0  0
   54.8880   23.6400   46.0910 N   0  0  0  0  0  0  0  0  0  0  0  0
   55.5390   22.4760   46.3470 C   0  0  0  0  0  0  0  0  0  0  0  0
   56.8720   22.4960   46.7540 C   0  0  0  0  0  0  0  0  0  0  0  0
   57.5300   23.7210   46.8770 C   0  0  0  0  0  0  0  0  0  0  0  0
   56.8590   24.9210   46.5880 C   0  0  0  0  0  0  0  0  0  0  0  0
   57.5840   26.2080   46.7230 C   0  0  0  0  0  0  0  0  0  0  0  0
   58.4490   26.4570   47.7980 C   0  0  0  0  0  0  0  0  0  0  0  0
   59.0900   27.7030   47.8800 C   0  0  0  0  0  0  0  0  0  0  0  0
   60.0240   28.0290   48.9870 C   0  0  0  0  0  0  0  0  0  0  0  0
   60.4150   29.3650   49.2040 C   0  0  0  0  0  0  0  0  0  0  0  0
   61.2990   29.6870   50.2370 C   0  0  0  0  0  0  0  0  0  0  0  0
   61.8130   28.6820   51.0600 C   0  0  0  0  0  0  0  0  0  0  0  0
   61.4460   27.3520   50.8470 C   0  0  0  0  0  0  0  0  0  0  0  0
   60.5590   27.0240   49.8170 C   0  0  0  0  0  0  0  0  0  0  0  0
   58.8280   28.6420   46.9310 N   0  0  0  0  0  0  0  0  0  0  0  0
   57.9740   28.4030   45.9010 C   0  0  0  0  0  0  0  0  0  0  0  0
   57.7130   29.4210   44.9120 N   0  0  0  0  0  0  0  0  0  0  0  0
   56.3330   29.6480   44.4640 C   0  0  0  0  0  0  0  0  0  0  0  0
   56.2530   30.8490   43.5140 C   0  0  0  0  0  0  0  0  0  0  0  0
   57.1050   31.9680   43.9770 N   0  0  0  0  0  0  0  0  0  0  0  0
   56.6440   32.5730   45.2500 C   0  0  0  0  0  0  0  0  0  0  0  0
   57.7650   33.2930   45.9560 C   0  0  0  0  0  0  0  0  0  0  0  0
   58.4330   34.3610   45.3320 C   0  0  0  0  0  0  0  0  0  0  0  0
   59.4850   35.0100   45.9860 C   0  0  0  0  0  0  0  0  0  0  0  0
   59.8780   34.5990   47.2630 C   0  0  0  0  0  0  0  0  0  0  0  0
   59.2190   33.5360   47.8910 C   0  0  0  0  0  0  0  0  0  0  0  0
   59.7160   33.0180   49.4920 Cl  0  0  0  0  0  0  0  0  0  0  0  0
   58.1660   32.8840   47.2390 C   0  0  0  0  0  0  0  0  0  0  0  0
   58.5430   31.5980   44.0300 C   0  0  0  0  0  0  0  0  0  0  0  0
   58.8120   30.0860   44.2000 C   0  0  0  0  0  0  0  0  0  0  0  0
   57.3640   27.1910   45.8090 N   0  0  0  0  0  0  0  0  0  0  0  0
   55.0137   21.5162   46.2330 H   0  0  0  0  0  0  0  0  0  0  0  0
   57.3997   21.5567   46.9759 H   0  0  0  0  0  0  0  0  0  0  0  0
   58.5805   23.7469   47.2022 H   0  0  0  0  0  0  0  0  0  0  0  0
   58.6226   25.6879   48.5651 H   0  0  0  0  0  0  0  0  0  0  0  0
   60.0212   30.1610   48.5550 H   0  0  0  0  0  0  0  0  0  0  0  0
   61.5910   30.7345   50.4026 H   0  0  0  0  0  0  0  0  0  0  0  0
   62.5060   28.9383   51.8749 H   0  0  0  0  0  0  0  0  0  0  0  0
   61.8557   26.5600   51.4911 H   0  0  0  0  0  0  0  0  0  0  0  0
   60.2768   25.9735   49.6535 H   0  0  0  0  0  0  0  0  0  0  0  0
   55.9729   28.7504   43.9399 H   0  0  0  0  0  0  0  0  0  0  0  0
   55.7088   29.8567   45.3454 H   0  0  0  0  0  0  0  0  0  0  0  0
   56.5873   30.5359   42.5139 H   0  0  0  0  0  0  0  0  0  0  0  0
   55.2103   31.1984   43.4882 H   0  0  0  0  0  0  0  0  0  0  0  0
   55.8383   33.2901   45.0341 H   0  0  0  0  0  0  0  0  0  0  0  0
   56.2841   31.7664   45.9057 H   0  0  0  0  0  0  0  0  0  0  0  0
   58.1274   34.6870   44.3268 H   0  0  0  0  0  0  0  0  0  0  0  0
   60.0044   35.8458   45.4944 H   0  0  0  0  0  0  0  0  0  0  0  0
   60.7059   35.1115   47.7747 H   0  0  0  0  0  0  0  0  0  0  0  0
   57.6501   32.0476   47.7333 H   0  0  0  0  0  0  0  0  0  0  0  0
   59.0169   31.9277   43.0937 H   0  0  0  0  0  0  0  0  0  0  0  0
   58.9592   32.0909   44.9209 H   0  0  0  0  0  0  0  0  0  0  0  0
   58.9225   29.6285   43.2058 H   0  0  0  0  0  0  0  0  0  0  0  0
   59.7312   29.9631   44.7917 H   0  0  0  0  0  0  0  0  0  0  0  0
  1  2  2  0
  2  3  1  0
  3  4  1  0
  4  5  2  0
  5  6  1  0
  6  7  2  0
  7  8  1  0
  8  9  2  0
  9 10  1  0
 10 11  1  0
 11 12  2  0
 12 13  1  0
 13 14  2  0
 14 15  1  0
 15 16  2  0
 10 17  2  0
 17 18  1  0
 18 19  1  0
 19 20  1  0
 20 21  1  0
 21 22  1  0
 22 23  1  0
 23 24  1  0
 24 25  2  0
 25 26  1  0
 26 27  2  0
 27 28  1  0
 28 29  1  0
 28 30  2  0
 22 31  1  0
 31 32  1  0
 18 33  2  0
  7  2  1  0
 33  8  1  0
 16 11  1  0
 32 19  1  0
 30 24  1  0
  4 34  1  0
  5 35  1  0
  6 36  1  0
  9 37  1  0
 12 38  1  0
 13 39  1  0
 14 40  1  0
 15 41  1  0
 16 42  1  0
 20 43  1  0
 20 44  1  0
 21 45  1  0
 21 46  1  0
 23 47  1  0
 23 48  1  0
 25 49  1  0
 26 50  1  0
 27 51  1  0
 30 52  1  0
 31 53  1  0
 31 54  1  0
 32 55  1  0
 32 56  1  0
M  CHG  1   3  -1
M  END
>  <UniqueID>  (62) 
57

>  <SMILES>  (62) 
O=c1[n-]cccc1-c1cc(-c2ccccc2)nc(N2CCN(Cc3cccc(Cl)c3)CC2)n1

>  <Energy>  (62) 
81.64871817265951

>  <Genealogy>  (62) 
O=c1[n-]cccc1-c1cc(-c2ccccc2)nc(N2CCN(Cc3cccc(Cl)c3)CC2)n1 (protonated)
O=c1[n-]cccc1-c1cc(-c2ccccc2)nc(N2CCN(Cc3cccc(Cl)c3)CC2)n1 (3D coordinates assigned)
O=c1[n-]cccc1-c1cc(-c2ccccc2)nc(N2CCN(Cc3cccc(Cl)c3)CC2)n1 (nonaromatic ring conformer: 81.64871817265951 kcal/mol)

>  <smiles>  (62) 
O=c1[nH]cccc1-c1cc(-c2ccccc2)nc(N2CCN(Cc3cccc(Cl)c3)CC2)n1

>  <score_type>  (62) 
oracle

>  <origin>  (62) 
adg

>  <m_score__min__energy>  (62) 
-11.56

>  <m_primary>  (62) 
energy

$$$$
62:0
     RDKit          3D

 55 57  0  0  0  0  0  0  0  0999 V2000
   55.3150   29.7160   43.9540 C   0  0  0  0  0  0  0  0  0  0  0  0
   56.6100   30.0430   43.2170 C   0  0  0  0  0  0  0  0  0  0  0  0
   57.6980   30.2940   44.1790 N   0  0  0  0  0  0  0  0  0  0  0  0
   58.7250   29.3960   44.2450 C   0  0  0  0  0  0  0  0  0  0  0  0
   59.7510   29.5360   45.1850 C   0  0  0  0  0  0  0  0  0  0  0  0
   60.7880   28.4840   45.2500 C   0  0  0  0  0  0  0  0  0  0  0  0
   61.7950   28.5690   44.4970 O   0  0  0  0  0  0  0  0  0  0  0  0
   60.6710   27.3570   46.1290 N   0  0  0  0  0  0  0  0  0  0  0  0
   59.8390   27.3000   47.3320 C   0  0  0  0  0  0  0  0  0  0  0  0
   58.4730   26.7330   47.0330 C   0  0  0  0  0  0  0  0  0  0  0  0
   57.5400   27.5080   46.3250 C   0  0  0  0  0  0  0  0  0  0  0  0
   56.2920   26.9800   45.9790 C   0  0  0  0  0  0  0  0  0  0  0  0
   55.9600   25.6600   46.3260 C   0  0  0  0  0  0  0  0  0  0  0  0
   54.6960   25.0710   45.9860 N   0  0  0  0  0  0  0  0  0  0  0  0
   54.4680   23.5350   45.2160 S   0  0  0  0  0  0  0  0  0  0  0  0
   55.4820   23.4280   43.7570 C   0  0  0  0  0  0  0  0  0  0  0  0
   54.8800   22.4500   46.1710 O   0  0  0  0  0  0  0  0  0  0  0  0
   53.0190   23.3450   44.8640 O   0  0  0  0  0  0  0  0  0  0  0  0
   56.8930   24.8820   47.0210 C   0  0  0  0  0  0  0  0  0  0  0  0
   58.1430   25.4070   47.3610 C   0  0  0  0  0  0  0  0  0  0  0  0
   59.7520   30.6590   46.0410 C   0  0  0  0  0  0  0  0  0  0  0  0
   60.7970   30.8900   46.9580 C   0  0  0  0  0  0  0  0  0  0  0  0
   60.7710   32.0020   47.8190 C   0  0  0  0  0  0  0  0  0  0  0  0
   61.7950   32.2510   48.7470 O   0  0  0  0  0  0  0  0  0  0  0  0
   63.1550   32.5000   48.4040 C   0  0  0  0  0  0  0  0  0  0  0  0
   59.6970   32.8990   47.7620 C   0  0  0  0  0  0  0  0  0  0  0  0
   59.7000   33.9940   48.6410 O   0  0  0  0  0  0  0  0  0  0  0  0
   59.6740   33.8940   50.0610 C   0  0  0  0  0  0  0  0  0  0  0  0
   58.6570   32.6860   46.8390 C   0  0  0  0  0  0  0  0  0  0  0  0
   58.6790   31.5770   45.9720 C   0  0  0  0  0  0  0  0  0  0  0  0
   57.6460   31.3630   45.0350 C   0  0  0  0  0  0  0  0  0  0  0  0
   56.6680   32.1630   44.9890 O   0  0  0  0  0  0  0  0  0  0  0  0
   55.4895   29.7601   45.0392 H   0  0  0  0  0  0  0  0  0  0  0  0
   54.5409   30.4469   43.6771 H   0  0  0  0  0  0  0  0  0  0  0  0
   54.9807   28.7053   43.6771 H   0  0  0  0  0  0  0  0  0  0  0  0
   56.8844   29.1950   42.5723 H   0  0  0  0  0  0  0  0  0  0  0  0
   56.4562   30.9460   42.6079 H   0  0  0  0  0  0  0  0  0  0  0  0
   58.7455   28.5470   43.5459 H   0  0  0  0  0  0  0  0  0  0  0  0
   60.3346   26.6632   48.0796 H   0  0  0  0  0  0  0  0  0  0  0  0
   59.7119   28.3242   47.7127 H   0  0  0  0  0  0  0  0  0  0  0  0
   57.7931   28.5398   46.0400 H   0  0  0  0  0  0  0  0  0  0  0  0
   55.5671   27.6013   45.4326 H   0  0  0  0  0  0  0  0  0  0  0  0
   56.5363   23.3168   44.0505 H   0  0  0  0  0  0  0  0  0  0  0  0
   55.1739   22.5574   43.1594 H   0  0  0  0  0  0  0  0  0  0  0  0
   55.3624   24.3437   43.1594 H   0  0  0  0  0  0  0  0  0  0  0  0
   56.6405   23.8489   47.3020 H   0  0  0  0  0  0  0  0  0  0  0  0
   58.8740   24.7774   47.8894 H   0  0  0  0  0  0  0  0  0  0  0  0
   61.6450   30.1907   47.0010 H   0  0  0  0  0  0  0  0  0  0  0  0
   63.7507   32.6091   49.3223 H   0  0  0  0  0  0  0  0  0  0  0  0
   63.5440   31.6581   47.8124 H   0  0  0  0  0  0  0  0  0  0  0  0
   63.2205   33.4251   47.8124 H   0  0  0  0  0  0  0  0  0  0  0  0
   59.9276   34.8693   50.5020 H   0  0  0  0  0  0  0  0  0  0  0  0
   58.6679   33.5937   50.3891 H   0  0  0  0  0  0  0  0  0  0  0  0
   60.4064   33.1417   50.3891 H   0  0  0  0  0  0  0  0  0  0  0  0
   57.8166   33.3943   46.7941 H   0  0  0  0  0  0  0  0  0  0  0  0
  1  2  1  0
  2  3  1  0
  3  4  1  0
  4  5  2  0
  5  6  1  0
  6  7  2  0
  6  8  1  0
  8  9  1  0
  9 10  1  0
 10 11  2  0
 11 12  1  0
 12 13  2  0
 13 14  1  0
 14 15  1  0
 15 16  1  0
 15 17  2  0
 15 18  2  0
 13 19  1  0
 19 20  2  0
  5 21  1  0
 21 22  2  0
 22 23  1  0
 23 24  1  0
 24 25  1  0
 23 26  2  0
 26 27  1  0
 27 28  1  0
 26 29  1  0
 29 30  2  0
 30 31  1  0
 31 32  2  0
 31  3  1  0
 20 10  1  0
 30 21  1  0
  1 33  1  0
  1 34  1  0
  1 35  1  0
  2 36  1  0
  2 37  1  0
  4 38  1  0
  9 39  1  0
  9 40  1  0
 11 41  1  0
 12 42  1  0
 16 43  1  0
 16 44  1  0
 16 45  1  0
 19 46  1  0
 20 47  1  0
 22 48  1  0
 25 49  1  0
 25 50  1  0
 25 51  1  0
 28 52  1  0
 28 53  1  0
 28 54  1  0
 29 55  1  0
M  CHG  2   8  -1  14  -1
M  END
>  <UniqueID>  (63) 
58

>  <SMILES>  (63) 
CCn1cc(C(=O)[N-]Cc2ccc([N-]S(C)(=O)=O)cc2)c2cc(OC)c(OC)cc2c1=O

>  <Energy>  (63) 
67.02277568314646

>  <Genealogy>  (63) 
CCn1cc(C(=O)[N-]Cc2ccc([N-]S(C)(=O)=O)cc2)c2cc(OC)c(OC)cc2c1=O (protonated)
CCn1cc(C(=O)[N-]Cc2ccc([N-]S(C)(=O)=O)cc2)c2cc(OC)c(OC)cc2c1=O (3D coordinates assigned)
CCn1cc(C(=O)[N-]Cc2ccc([N-]S(C)(=O)=O)cc2)c2cc(OC)c(OC)cc2c1=O (optimized conformer: 67.02277568314646 kcal/mol)

>  <smiles>  (63) 
CCn1cc(C(=O)NCc2ccc(NS(C)(=O)=O)cc2)c2cc(OC)c(OC)cc2c1=O

>  <score_type>  (63) 
oracle

>  <origin>  (63) 
adg

>  <m_score__min__energy>  (63) 
-11.130000000000001

>  <m_primary>  (63) 
energy

$$$$
63:0
     RDKit          3D

 26 27  0  0  0  0  0  0  0  0999 V2000
   55.8630   24.6340   47.0890 O   0  0  0  0  0  0  0  0  0  0  0  0
   55.5510   25.1730   45.9950 C   0  0  0  0  0  0  0  0  0  0  0  0
   54.7750   26.3260   45.9940 O   0  0  0  0  0  0  0  0  0  0  0  0
   56.0510   24.5980   44.7020 C   0  0  2  0  0  0  0  0  0  0  0  0
   54.9390   23.7960   44.0070 C   0  0  0  0  0  0  0  0  0  0  0  0
   55.5170   22.9870   42.8340 C   0  0  0  0  0  0  0  0  0  0  0  0
   56.6830   22.0410   43.2370 C   0  0  2  0  0  0  0  0  0  0  0  0
   56.2520   20.7070   43.1370 O   0  0  0  0  0  0  0  0  0  0  0  0
   57.2170   22.3080   44.6700 C   0  0  1  0  0  0  0  0  0  0  0  0
   58.6840   21.8440   44.8800 C   0  0  0  0  0  0  0  0  0  0  0  0
   59.5030   23.0820   45.2840 C   0  0  0  0  0  0  0  0  0  0  0  0
   58.5070   24.1720   45.2870 C   0  0  0  0  0  0  0  0  0  0  0  0
   58.7820   25.3730   45.5480 O   0  0  0  0  0  0  0  0  0  0  0  0
   57.2070   23.7330   44.9480 N   0  0  0  0  0  0  0  0  0  0  0  0
   56.3548   25.4269   44.0458 H   0  0  0  0  0  0  0  0  0  0  0  0
   54.4812   23.1071   44.7321 H   0  0  0  0  0  0  0  0  0  0  0  0
   54.1822   24.4947   43.6209 H   0  0  0  0  0  0  0  0  0  0  0  0
   54.7096   22.3774   42.4022 H   0  0  0  0  0  0  0  0  0  0  0  0
   55.9273   23.7127   42.1163 H   0  0  0  0  0  0  0  0  0  0  0  0
   57.5151   22.2379   42.5450 H   0  0  0  0  0  0  0  0  0  0  0  0
   57.0220   20.1340   43.3950 H   0  0  0  0  0  0  0  0  0  0  0  0
   56.5535   21.7374   45.3364 H   0  0  0  0  0  0  0  0  0  0  0  0
   58.7288   21.0868   45.6767 H   0  0  0  0  0  0  0  0  0  0  0  0
   59.0856   21.3952   43.9595 H   0  0  0  0  0  0  0  0  0  0  0  0
   59.9452   22.9515   46.2827 H   0  0  0  0  0  0  0  0  0  0  0  0
   60.3467   23.2761   44.6055 H   0  0  0  0  0  0  0  0  0  0  0  0
  1  2  2  0
  2  3  1  0
  2  4  1  0
  4  5  1  0
  5  6  1  0
  6  7  1  0
  7  8  1  0
  7  9  1  0
  9 10  1  0
 10 11  1  0
 11 12  1  0
 12 13  2  0
 12 14  1  0
 14  4  1  0
 14  9  1  0
  4 15  1  6
  5 16  1  0
  5 17  1  0
  6 18  1  0
  6 19  1  0
  7 20  1  6
  8 21  1  0
  9 22  1  1
 10 23  1  0
 10 24  1  0
 11 25  1  0
 11 26  1  0
M  CHG  1   3  -1
M  END
>  <UniqueID>  (64) 
59

>  <SMILES>  (64) 
O=C([O-])[C@@H]1CC[C@H](O)C2CCC(=O)N21

>  <Energy>  (64) 
33.67872326859669

>  <Genealogy>  (64) 
O=C([O-])C1CCC(O)C2CCC(=O)N12 (protonated)
O=C([O-])[C@@H]1CC[C@H](O)C2CCC(=O)N21 (chirality)
O=C([O-])[C@@H]1CC[C@H](O)C2CCC(=O)N21 (3D coordinates assigned)
O=C([O-])[C@@H]1CC[C@H](O)C2CCC(=O)N21 (nonaromatic ring conformer: 33.67872326859669 kcal/mol)

>  <smiles>  (64) 
O=C(O)C1CCC(O)C2CCC(=O)N12

>  <score_type>  (64) 
oracle

>  <origin>  (64) 
adg

>  <m_score__min__energy>  (64) 
-8.3599999999999994

>  <m_primary>  (64) 
energy

$$$$
64:0
     RDKit          3D

 31 32  0  0  0  0  0  0  0  0999 V2000
   58.8550   30.5800   47.0950 C   0  0  0  0  0  0  0  0  0  0  0  0
   58.3870   31.7450   46.2660 C   0  0  0  0  0  0  0  0  0  0  0  0
   58.1740   32.9860   46.8890 C   0  0  0  0  0  0  0  0  0  0  0  0
   57.7760   34.0970   46.1400 C   0  0  0  0  0  0  0  0  0  0  0  0
   57.5840   33.9800   44.7630 C   0  0  0  0  0  0  0  0  0  0  0  0
   57.7720   32.7480   44.1330 C   0  0  0  0  0  0  0  0  0  0  0  0
   58.1450   31.6190   44.8770 C   0  0  0  0  0  0  0  0  0  0  0  0
   58.3130   30.3660   44.1970 N   0  0  0  0  0  0  0  0  0  0  0  0
   57.2180   29.4840   43.8940 C   0  0  0  0  0  0  0  0  0  0  0  0
   55.6870   30.0660   43.7840 S   0  0  0  0  0  0  0  0  0  0  0  0
   57.4560   28.1020   43.5900 N   0  0  0  0  0  0  0  0  0  0  0  0
   58.7750   27.4870   43.7430 C   0  0  0  0  0  0  0  0  0  0  0  0
   59.1380   27.3720   45.1900 C   0  0  0  0  0  0  0  0  0  0  0  0
   60.3620   27.7130   45.7500 C   0  0  0  0  0  0  0  0  0  0  0  0
   60.3860   27.5780   47.1420 C   0  0  0  0  0  0  0  0  0  0  0  0
   59.1800   27.1480   47.6820 C   0  0  0  0  0  0  0  0  0  0  0  0
   58.0830   26.9400   46.4250 S   0  0  0  0  0  0  0  0  0  0  0  0
   58.7560   30.8263   48.1625 H   0  0  0  0  0  0  0  0  0  0  0  0
   58.2422   29.6961   46.8643 H   0  0  0  0  0  0  0  0  0  0  0  0
   59.9090   30.3657   46.8643 H   0  0  0  0  0  0  0  0  0  0  0  0
   58.3216   33.0841   47.9746 H   0  0  0  0  0  0  0  0  0  0  0  0
   57.6139   35.0649   46.6369 H   0  0  0  0  0  0  0  0  0  0  0  0
   57.2843   34.8588   44.1732 H   0  0  0  0  0  0  0  0  0  0  0  0
   57.6266   32.6624   43.0460 H   0  0  0  0  0  0  0  0  0  0  0  0
   59.2520   30.1610   43.7890 H   0  0  0  0  0  0  0  0  0  0  0  0
   56.6460   27.5100   43.2970 H   0  0  0  0  0  0  0  0  0  0  0  0
   58.7602   26.4833   43.2932 H   0  0  0  0  0  0  0  0  0  0  0  0
   59.5214   28.1189   43.2394 H   0  0  0  0  0  0  0  0  0  0  0  0
   61.2248   28.0545   45.1592 H   0  0  0  0  0  0  0  0  0  0  0  0
   61.2760   27.7921   47.7520 H   0  0  0  0  0  0  0  0  0  0  0  0
   58.9777   26.9736   48.7491 H   0  0  0  0  0  0  0  0  0  0  0  0
  1  2  1  0
  2  3  2  0
  3  4  1  0
  4  5  2  0
  5  6  1  0
  6  7  2  0
  7  8  1  0
  8  9  1  0
  9 10  2  0
  9 11  1  0
 11 12  1  0
 12 13  1  0
 13 14  2  0
 14 15  1  0
 15 16  2  0
 16 17  1  0
  7  2  1  0
 17 13  1  0
  1 18  1  0
  1 19  1  0
  1 20  1  0
  3 21  1  0
  4 22  1  0
  5 23  1  0
  6 24  1  0
  8 25  1  0
 11 26  1  0
 12 27  1  0
 12 28  1  0
 14 29  1  0
 15 30  1  0
 16 31  1  0
M  END
>  <UniqueID>  (65) 
60

>  <SMILES>  (65) 
Cc1ccccc1NC(=S)NCc1cccs1

>  <Energy>  (65) 
61.124705809261776

>  <Genealogy>  (65) 
Cc1ccccc1NC(=S)NCc1cccs1 (3D coordinates assigned)
Cc1ccccc1NC(=S)NCc1cccs1 (optimized conformer: 61.124705809261776 kcal/mol)

>  <smiles>  (65) 
Cc1ccccc1NC(=S)NCc1cccs1

>  <score_type>  (65) 
oracle

>  <origin>  (65) 
adg

>  <m_score__min__energy>  (65) 
-6.5499999999999998

>  <m_primary>  (65) 
energy

$$$$
65:0
     RDKit          3D

 32 34  0  0  0  0  0  0  0  0999 V2000
   60.0445   31.8074   47.6245 H   0  0  0  0  0  0  0  0  0  0  0  0
   59.4010   32.3820   46.9420 C   0  0  0  0  0  0  0  0  0  0  0  0
   59.0590   31.8530   45.6940 C   0  0  0  0  0  0  0  0  0  0  0  0
   59.4370   30.8638   45.3962 H   0  0  0  0  0  0  0  0  0  0  0  0
   58.2340   32.5800   44.8180 C   0  0  0  0  0  0  0  0  0  0  0  0
   57.9010   32.0350   43.4570 C   0  0  0  0  0  0  0  0  0  0  0  0
   58.8269   31.7115   42.9590 H   0  0  0  0  0  0  0  0  0  0  0  0
   57.4111   32.8226   42.8657 H   0  0  0  0  0  0  0  0  0  0  0  0
   56.9720   30.8680   43.5790 C   0  0  0  0  0  0  0  0  0  0  0  0
   56.4690   30.3530   42.5430 O   0  0  0  0  0  0  0  0  0  0  0  0
   56.6670   30.3390   44.8710 N   0  0  0  0  0  0  0  0  0  0  0  0
   56.0810   29.2200   45.0040 N   0  0  0  0  0  0  0  0  0  0  0  0
   56.7590   28.0670   45.5130 C   0  0  0  0  0  0  0  0  0  0  0  0
   56.1490   26.9120   45.9660 C   0  0  0  0  0  0  0  0  0  0  0  0
   54.7760   26.7050   46.0020 O   0  0  0  0  0  0  0  0  0  0  0  0
   57.0490   25.9900   46.3780 N   0  0  0  0  0  0  0  0  0  0  0  0
   58.2440   26.5820   46.1750 C   0  0  0  0  0  0  0  0  0  0  0  0
   59.4950   26.0260   46.4390 C   0  0  0  0  0  0  0  0  0  0  0  0
   59.5871   25.0137   46.8595 H   0  0  0  0  0  0  0  0  0  0  0  0
   60.6360   26.7970   46.1520 C   0  0  0  0  0  0  0  0  0  0  0  0
   61.6370   26.3866   46.3512 H   0  0  0  0  0  0  0  0  0  0  0  0
   60.5050   28.0940   45.6100 C   0  0  0  0  0  0  0  0  0  0  0  0
   61.4049   28.6866   45.3887 H   0  0  0  0  0  0  0  0  0  0  0  0
   59.2330   28.6340   45.3510 C   0  0  0  0  0  0  0  0  0  0  0  0
   59.1202   29.6431   44.9280 H   0  0  0  0  0  0  0  0  0  0  0  0
   58.1170   27.8480   45.6480 C   0  0  0  0  0  0  0  0  0  0  0  0
   57.7690   33.8480   45.2050 C   0  0  0  0  0  0  0  0  0  0  0  0
   57.1332   34.4302   44.5218 H   0  0  0  0  0  0  0  0  0  0  0  0
   58.1110   34.3730   46.4550 C   0  0  0  0  0  0  0  0  0  0  0  0
   57.7383   35.3634   46.7552 H   0  0  0  0  0  0  0  0  0  0  0  0
   58.9260   33.6410   47.3240 C   0  0  0  0  0  0  0  0  0  0  0  0
   59.2670   34.1650   48.5650 O   0  0  0  0  0  0  0  0  0  0  0  0
  1  2  1  0
  2  3  2  0
  3  4  1  0
  3  5  1  0
  5  6  1  0
  6  7  1  0
  6  8  1  0
  6  9  1  0
  9 10  2  0
  9 11  1  0
 11 12  2  0
 12 13  1  0
 13 14  2  0
 14 15  1  0
 14 16  1  0
 16 17  1  0
 17 18  2  0
 18 19  1  0
 18 20  1  0
 20 21  1  0
 20 22  2  0
 22 23  1  0
 22 24  1  0
 24 25  1  0
 24 26  2  0
  5 27  2  0
 27 28  1  0
 27 29  1  0
 29 30  1  0
 29 31  2  0
 31 32  1  0
 31  2  1  0
 26 13  1  0
 26 17  1  0
M  CHG  3  15  -1  16  -1  32  -1
M  END
>  <UniqueID>  (66) 
61

>  <SMILES>  (66) 
O=C(Cc1ccc([O-])cc1)/N=N/c1c([O-])[n-]c2ccccc12

>  <Energy>  (66) 
66.03867456661004

>  <Genealogy>  (66) 
O=C(Cc1ccc([O-])cc1)N=Nc1c([O-])[n-]c2ccccc12 (protonated)
O=C(Cc1ccc([O-])cc1)/N=N/c1c([O-])[n-]c2ccccc12 (cis-trans isomerization)
O=C(Cc1ccc([O-])cc1)/N=N/c1c([O-])[n-]c2ccccc12 (3D coordinates assigned)
O=C(Cc1ccc([O-])cc1)/N=N/c1c([O-])[n-]c2ccccc12 (optimized conformer: 66.03867456661004 kcal/mol)

>  <smiles>  (66) 
O=C(Cc1ccc(O)cc1)N=Nc1c(O)[nH]c2ccccc12

>  <score_type>  (66) 
oracle

>  <origin>  (66) 
adg

>  <m_score__min__energy>  (66) 
-14.279999999999999

>  <m_primary>  (66) 
energy

$$$$
66:0
     RDKit          3D

 61 64  0  0  0  0  0  0  0  0999 V2000
   58.2570   29.2960   47.9530 C   0  0  0  0  0  0  0  0  0  0  0  0
   59.1490   29.1160   46.7560 C   0  0  0  0  0  0  0  0  0  0  0  0
   60.4730   29.6080   46.7620 C   0  0  0  0  0  0  0  0  0  0  0  0
   60.9930   30.2690   47.9190 N   0  0  0  0  0  0  0  0  0  0  0  0
   60.9620   29.5540   49.5000 S   0  0  0  0  0  0  0  0  0  0  0  0
   59.6990   30.2590   50.5290 C   0  0  0  0  0  0  0  0  0  0  0  0
   62.3020   29.7410   50.1520 O   0  0  0  0  0  0  0  0  0  0  0  0
   60.7000   28.0820   49.3590 O   0  0  0  0  0  0  0  0  0  0  0  0
   61.2670   29.4810   45.6170 C   0  0  0  0  0  0  0  0  0  0  0  0
   60.7880   28.8080   44.4970 C   0  0  0  0  0  0  0  0  0  0  0  0
   59.5070   28.2600   44.5080 C   0  0  0  0  0  0  0  0  0  0  0  0
   58.6800   28.4090   45.6280 C   0  0  0  0  0  0  0  0  0  0  0  0
   57.3510   27.8560   45.6010 N   0  0  0  0  0  0  0  0  0  0  0  0
   56.2300   28.6680   45.0980 C   0  0  0  0  0  0  0  0  0  0  0  0
   56.7360   29.8560   44.3170 C   0  0  0  0  0  0  0  0  0  0  0  0
   56.6210   29.8860   42.9180 C   0  0  0  0  0  0  0  0  0  0  0  0
   57.0210   31.0180   42.2030 C   0  0  0  0  0  0  0  0  0  0  0  0
   57.5210   32.1340   42.8800 C   0  0  0  0  0  0  0  0  0  0  0  0
   57.6140   32.1290   44.2810 C   0  0  0  0  0  0  0  0  0  0  0  0
   58.1470   33.5560   45.1560 S   0  0  0  0  0  0  0  0  0  0  0  0
   59.3330   34.1490   44.4420 O   0  0  0  0  0  0  0  0  0  0  0  0
   57.0580   34.5880   45.2070 O   0  0  0  0  0  0  0  0  0  0  0  0
   58.6120   33.1220   46.7650 N   0  0  0  0  0  0  0  0  0  0  0  0
   59.9040   33.3340   47.3520 C   0  0  0  0  0  0  0  0  0  0  0  0
   59.9760   33.7230   48.6960 C   0  0  0  0  0  0  0  0  0  0  0  0
   61.2160   33.9670   49.2990 C   0  0  0  0  0  0  0  0  0  0  0  0
   62.3930   33.8310   48.5560 C   0  0  0  0  0  0  0  0  0  0  0  0
   62.3340   33.4220   47.2190 C   0  0  0  0  0  0  0  0  0  0  0  0
   61.0970   33.1700   46.6220 C   0  0  0  0  0  0  0  0  0  0  0  0
   57.2400   30.9820   44.9920 C   0  0  0  0  0  0  0  0  0  0  0  0
   57.1920   26.4350   45.7650 C   0  0  0  0  0  0  0  0  0  0  0  0
   58.3230   25.5920   45.7580 C   0  0  0  0  0  0  0  0  0  0  0  0
   58.1760   24.2110   45.9150 C   0  0  0  0  0  0  0  0  0  0  0  0
   56.9050   23.6600   46.1020 C   0  0  0  0  0  0  0  0  0  0  0  0
   55.7790   24.4880   46.1300 C   0  0  0  0  0  0  0  0  0  0  0  0
   55.9160   25.8710   45.9590 C   0  0  0  0  0  0  0  0  0  0  0  0
   54.7850   26.6760   46.0040 O   0  0  0  0  0  0  0  0  0  0  0  0
   58.8488   29.1766   48.8725 H   0  0  0  0  0  0  0  0  0  0  0  0
   57.8125   30.3019   47.9311 H   0  0  0  0  0  0  0  0  0  0  0  0
   57.4572   28.5412   47.9311 H   0  0  0  0  0  0  0  0  0  0  0  0
   59.9631   30.1116   51.5866 H   0  0  0  0  0  0  0  0  0  0  0  0
   59.6134   31.3354   50.3190 H   0  0  0  0  0  0  0  0  0  0  0  0
   58.7379   29.7669   50.3190 H   0  0  0  0  0  0  0  0  0  0  0  0
   62.2771   29.9162   45.6020 H   0  0  0  0  0  0  0  0  0  0  0  0
   61.4209   28.7087   43.6028 H   0  0  0  0  0  0  0  0  0  0  0  0
   59.1427   27.7062   43.6302 H   0  0  0  0  0  0  0  0  0  0  0  0
   55.6008   28.0475   44.4430 H   0  0  0  0  0  0  0  0  0  0  0  0
   55.6466   29.0331   45.9561 H   0  0  0  0  0  0  0  0  0  0  0  0
   56.2145   29.0152   42.3828 H   0  0  0  0  0  0  0  0  0  0  0  0
   56.9423   31.0309   41.1059 H   0  0  0  0  0  0  0  0  0  0  0  0
   57.8430   33.0198   42.3129 H   0  0  0  0  0  0  0  0  0  0  0  0
   59.0519   33.8375   49.2817 H   0  0  0  0  0  0  0  0  0  0  0  0
   61.2643   34.2655   50.3566 H   0  0  0  0  0  0  0  0  0  0  0  0
   63.3656   34.0456   49.0228 H   0  0  0  0  0  0  0  0  0  0  0  0
   63.2607   33.2992   46.6392 H   0  0  0  0  0  0  0  0  0  0  0  0
   61.0542   32.8408   45.5733 H   0  0  0  0  0  0  0  0  0  0  0  0
   57.3413   30.9616   46.0871 H   0  0  0  0  0  0  0  0  0  0  0  0
   59.3263   26.0240   45.6282 H   0  0  0  0  0  0  0  0  0  0  0  0
   59.0606   23.5576   45.8914 H   0  0  0  0  0  0  0  0  0  0  0  0
   56.7907   22.5732   46.2273 H   0  0  0  0  0  0  0  0  0  0  0  0
   54.7816   24.0514   46.2870 H   0  0  0  0  0  0  0  0  0  0  0  0
  1  2  1  0
  2  3  2  0
  3  4  1  0
  4  5  1  0
  5  6  1  0
  5  7  2  0
  5  8  2  0
  3  9  1  0
  9 10  2  0
 10 11  1  0
 11 12  2  0
 12 13  1  0
 13 14  1  0
 14 15  1  0
 15 16  2  0
 16 17  1  0
 17 18  2  0
 18 19  1  0
 19 20  1  0
 20 21  2  0
 20 22  2  0
 20 23  1  0
 23 24  1  0
 24 25  2  0
 25 26  1  0
 26 27  2  0
 27 28  1  0
 28 29  2  0
 19 30  2  0
 13 31  1  0
 31 32  2  0
 32 33  1  0
 33 34  2  0
 34 35  1  0
 35 36  2  0
 36 37  1  0
 12  2  1  0
 30 15  1  0
 36 31  1  0
 29 24  1  0
  1 38  1  0
  1 39  1  0
  1 40  1  0
  6 41  1  0
  6 42  1  0
  6 43  1  0
  9 44  1  0
 10 45  1  0
 11 46  1  0
 14 47  1  0
 14 48  1  0
 16 49  1  0
 17 50  1  0
 18 51  1  0
 25 52  1  0
 26 53  1  0
 27 54  1  0
 28 55  1  0
 29 56  1  0
 30 57  1  0
 32 58  1  0
 33 59  1  0
 34 60  1  0
 35 61  1  0
M  CHG  3   4  -1  23  -1  37  -1
M  END
>  <UniqueID>  (67) 
62

>  <SMILES>  (67) 
Cc1c([N-]S(C)(=O)=O)cccc1N(Cc1cccc(S(=O)(=O)[N-]c2ccccc2)c1)c1ccccc1[O-]

>  <Energy>  (67) 
78.86633291146148

>  <Genealogy>  (67) 
Cc1c([N-]S(C)(=O)=O)cccc1N(Cc1cccc(S(=O)(=O)[N-]c2ccccc2)c1)c1ccccc1[O-] (protonated)
Cc1c([N-]S(C)(=O)=O)cccc1N(Cc1cccc(S(=O)(=O)[N-]c2ccccc2)c1)c1ccccc1[O-] (3D coordinates assigned)
Cc1c([N-]S(C)(=O)=O)cccc1N(Cc1cccc(S(=O)(=O)[N-]c2ccccc2)c1)c1ccccc1[O-] (optimized conformer: 78.86633291146148 kcal/mol)

>  <smiles>  (67) 
Cc1c(NS(C)(=O)=O)cccc1N(Cc1cccc(S(=O)(=O)Nc2ccccc2)c1)c1ccccc1O

>  <score_type>  (67) 
oracle

>  <origin>  (67) 
adg

>  <m_score__min__energy>  (67) 
-16.399999999999999

>  <m_primary>  (67) 
energy

$$$$
67:0
     RDKit          3D

 76 80  0  0  0  0  0  0  0  0999 V2000
   54.2520   24.8480   45.5530 C   0  0  0  0  0  0  0  0  0  0  0  0
   54.7980   26.1570   45.6870 O   0  0  0  0  0  0  0  0  0  0  0  0
   56.1270   26.4330   46.0460 C   0  0  0  0  0  0  0  0  0  0  0  0
   56.9500   25.4730   46.6640 C   0  0  0  0  0  0  0  0  0  0  0  0
   58.2640   25.7870   47.0110 C   0  0  0  0  0  0  0  0  0  0  0  0
   58.7790   27.0630   46.7530 C   0  0  0  0  0  0  0  0  0  0  0  0
   60.2040   27.3930   47.1060 C   0  0  0  0  0  0  0  0  0  0  0  0
   60.4790   27.1060   48.5830 C   0  0  0  0  0  0  0  0  0  0  0  0
   60.5690   28.3550   49.3260 N   0  0  0  0  0  0  0  0  0  0  0  0
   59.9590   29.5780   48.9020 C   0  0  0  0  0  0  0  0  0  0  0  0
   58.7020   29.6720   48.8710 O   0  0  0  0  0  0  0  0  0  0  0  0
   60.7990   30.7360   48.4940 C   0  0  0  0  0  0  0  0  0  0  0  0
   60.8050   31.1580   47.2060 C   0  0  0  0  0  0  0  0  0  0  0  0
   59.8510   30.6160   46.1760 C   0  0  0  0  0  0  0  0  0  0  0  0
   61.7660   32.1230   46.7570 N   0  0  0  0  0  0  0  0  0  0  0  0
   62.5520   32.7930   47.5450 C   0  0  0  0  0  0  0  0  0  0  0  0
   63.4350   33.8490   46.9440 C   0  0  0  0  0  0  0  0  0  0  0  0
   62.3880   32.6760   49.0460 C   0  0  2  0  0  0  0  0  0  0  0  0
   63.6700   32.9700   49.7910 C   0  0  0  0  0  0  0  0  0  0  0  0
   63.7680   34.0250   50.4750 O   0  0  0  0  0  0  0  0  0  0  0  0
   64.8040   32.1010   49.6270 N   0  0  0  0  0  0  0  0  0  0  0  0
   66.0470   32.2760   50.3230 C   0  0  0  0  0  0  0  0  0  0  0  0
   66.4920   31.2850   51.2070 C   0  0  0  0  0  0  0  0  0  0  0  0
   67.6890   31.4570   51.9030 C   0  0  0  0  0  0  0  0  0  0  0  0
   68.4260   32.6270   51.7200 C   0  0  0  0  0  0  0  0  0  0  0  0
   67.9720   33.5910   50.8770 N   0  0  0  0  0  0  0  0  0  0  0  0
   66.8110   33.4460   50.1840 C   0  0  0  0  0  0  0  0  0  0  0  0
   61.8610   31.2740   49.4480 C   0  0  1  0  0  0  0  0  0  0  0  0
   61.4100   31.2900   50.8990 C   0  0  0  0  0  0  0  0  0  0  0  0
   61.7850   30.4260   51.9420 C   0  0  0  0  0  0  0  0  0  0  0  0
   62.7310   29.2690   51.8540 C   0  0  0  0  0  0  0  0  0  0  0  0
   61.1250   30.7370   53.0820 N   0  0  0  0  0  0  0  0  0  0  0  0
   60.3370   31.7820   52.7830 C   0  0  0  0  0  0  0  0  0  0  0  0
   59.4630   32.4470   53.6420 C   0  0  0  0  0  0  0  0  0  0  0  0
   58.7080   33.5110   53.1170 C   0  0  0  0  0  0  0  0  0  0  0  0
   58.8370   33.8770   51.7590 C   0  0  0  0  0  0  0  0  0  0  0  0
   59.7270   33.1890   50.9160 C   0  0  0  0  0  0  0  0  0  0  0  0
   60.4750   32.1440   51.4650 C   0  0  0  0  0  0  0  0  0  0  0  0
   57.9690   28.0180   46.1190 C   0  0  0  0  0  0  0  0  0  0  0  0
   56.6390   27.7110   45.7720 C   0  0  0  0  0  0  0  0  0  0  0  0
   55.7960   28.6480   45.1560 O   0  0  0  0  0  0  0  0  0  0  0  0
   56.2310   29.6550   44.2490 C   0  0  0  0  0  0  0  0  0  0  0  0
   54.0739   24.4211   46.5510 H   0  0  0  0  0  0  0  0  0  0  0  0
   53.3013   24.9019   45.0023 H   0  0  0  0  0  0  0  0  0  0  0  0
   54.9592   24.2103   45.0023 H   0  0  0  0  0  0  0  0  0  0  0  0
   56.5544   24.4685   46.8747 H   0  0  0  0  0  0  0  0  0  0  0  0
   58.8993   25.0276   47.4902 H   0  0  0  0  0  0  0  0  0  0  0  0
   60.8790   26.7824   46.4884 H   0  0  0  0  0  0  0  0  0  0  0  0
   60.3748   28.4632   46.9174 H   0  0  0  0  0  0  0  0  0  0  0  0
   59.6609   26.4962   48.9938 H   0  0  0  0  0  0  0  0  0  0  0  0
   61.4315   26.5632   48.6735 H   0  0  0  0  0  0  0  0  0  0  0  0
   59.0014   30.1333   46.6812 H   0  0  0  0  0  0  0  0  0  0  0  0
   59.4835   31.4402   45.5470 H   0  0  0  0  0  0  0  0  0  0  0  0
   60.3708   29.8783   45.5470 H   0  0  0  0  0  0  0  0  0  0  0  0
   63.9167   34.4251   47.7477 H   0  0  0  0  0  0  0  0  0  0  0  0
   64.2065   33.3715   46.3221 H   0  0  0  0  0  0  0  0  0  0  0  0
   62.8285   34.5238   46.3221 H   0  0  0  0  0  0  0  0  0  0  0  0
   61.6467   33.4362   49.3334 H   0  0  0  0  0  0  0  0  0  0  0  0
   64.7640   31.3780   48.8700 H   0  0  0  0  0  0  0  0  0  0  0  0
   65.8977   30.3709   51.3526 H   0  0  0  0  0  0  0  0  0  0  0  0
   68.0483   30.6767   52.5900 H   0  0  0  0  0  0  0  0  0  0  0  0
   69.3748   32.7692   52.2582 H   0  0  0  0  0  0  0  0  0  0  0  0
   66.4693   34.2475   49.5126 H   0  0  0  0  0  0  0  0  0  0  0  0
   62.6921   30.5589   49.3585 H   0  0  0  0  0  0  0  0  0  0  0  0
   63.0013   28.9384   52.8677 H   0  0  0  0  0  0  0  0  0  0  0  0
   62.2481   28.4407   51.3148 H   0  0  0  0  0  0  0  0  0  0  0  0
   63.6387   29.5777   51.3148 H   0  0  0  0  0  0  0  0  0  0  0  0
   61.2060   30.2580   54.0080 H   0  0  0  0  0  0  0  0  0  0  0  0
   59.3671   32.1490   54.6965 H   0  0  0  0  0  0  0  0  0  0  0  0
   58.0128   34.0615   53.7679 H   0  0  0  0  0  0  0  0  0  0  0  0
   58.2365   34.7068   51.3579 H   0  0  0  0  0  0  0  0  0  0  0  0
   59.8315   33.4648   49.8563 H   0  0  0  0  0  0  0  0  0  0  0  0
   58.3762   29.0142   45.8913 H   0  0  0  0  0  0  0  0  0  0  0  0
   56.6051   30.5211   44.8146 H   0  0  0  0  0  0  0  0  0  0  0  0
   57.0365   29.2549   43.6157 H   0  0  0  0  0  0  0  0  0  0  0  0
   55.3875   29.9672   43.6157 H   0  0  0  0  0  0  0  0  0  0  0  0
  1  2  1  0
  2  3  1  0
  3  4  2  0
  4  5  1  0
  5  6  2  0
  6  7  1  0
  7  8  1  0
  8  9  1  0
  9 10  1  0
 10 11  2  0
 10 12  1  0
 12 13  2  0
 13 14  1  0
 13 15  1  0
 15 16  2  0
 16 17  1  0
 16 18  1  0
 18 19  1  0
 19 20  2  0
 19 21  1  0
 21 22  1  0
 22 23  2  0
 23 24  1  0
 24 25  2  0
 25 26  1  0
 26 27  2  0
 18 28  1  0
 28 29  1  0
 29 30  2  0
 30 31  1  0
 30 32  1  0
 32 33  1  0
 33 34  2  0
 34 35  1  0
 35 36  2  0
 36 37  1  0
 37 38  2  0
  6 39  1  0
 39 40  2  0
 40 41  1  0
 41 42  1  0
 40  3  1  0
 28 12  1  0
 38 29  1  0
 27 22  1  0
 38 33  1  0
  1 43  1  0
  1 44  1  0
  1 45  1  0
  4 46  1  0
  5 47  1  0
  7 48  1  0
  7 49  1  0
  8 50  1  0
  8 51  1  0
 14 52  1  0
 14 53  1  0
 14 54  1  0
 17 55  1  0
 17 56  1  0
 17 57  1  0
 18 58  1  1
 21 59  1  0
 23 60  1  0
 24 61  1  0
 25 62  1  0
 27 63  1  0
 28 64  1  1
 31 65  1  0
 31 66  1  0
 31 67  1  0
 32 68  1  0
 34 69  1  0
 35 70  1  0
 36 71  1  0
 37 72  1  0
 39 73  1  0
 42 74  1  0
 42 75  1  0
 42 76  1  0
M  CHG  1   9  -1
M  END
>  <UniqueID>  (68) 
63

>  <SMILES>  (68) 
COc1ccc(CC[N-]C(=O)C2=C(C)N=C(C)[C@H](C(=O)Nc3cccnc3)[C@H]2c2c(C)[nH]c3ccccc23)cc1OC

>  <Energy>  (68) 
119.01141774044687

>  <Genealogy>  (68) 
COc1ccc(CC[N-]C(=O)C2=C(C)N=C(C)C(C(=O)Nc3cccnc3)C2c2c(C)[nH]c3ccccc23)cc1OC (protonated)
COc1ccc(CC[N-]C(=O)C2=C(C)N=C(C)[C@H](C(=O)Nc3cccnc3)[C@H]2c2c(C)[nH]c3ccccc23)cc1OC (chirality)
COc1ccc(CC[N-]C(=O)C2=C(C)N=C(C)[C@H](C(=O)Nc3cccnc3)[C@H]2c2c(C)[nH]c3ccccc23)cc1OC (3D coordinates assigned)
COc1ccc(CC[N-]C(=O)C2=C(C)N=C(C)[C@H](C(=O)Nc3cccnc3)[C@H]2c2c(C)[nH]c3ccccc23)cc1OC (nonaromatic ring conformer: 119.01141774044687 kcal/mol)

>  <smiles>  (68) 
COc1ccc(CCNC(=O)C2=C(C)N=C(C)C(C(=O)Nc3cccnc3)C2c2c(C)[nH]c3ccccc23)cc1OC

>  <score_type>  (68) 
oracle

>  <origin>  (68) 
adg

>  <m_score__min__energy>  (68) 
-11.02

>  <m_primary>  (68) 
energy

$$$$
68:0
     RDKit          3D

 48 50  0  0  0  0  0  0  0  0999 V2000
   55.8740   30.0370   44.8190 O   0  0  0  0  0  0  0  0  0  0  0  0
   57.1020   30.1000   44.5290 C   0  0  0  0  0  0  0  0  0  0  0  0
   57.8150   28.8550   44.0530 C   0  0  0  0  0  0  0  0  0  0  0  0
   59.2710   28.7800   44.5260 C   0  0  0  0  0  0  0  0  0  0  0  0
   59.3410   28.8760   46.0160 C   0  0  0  0  0  0  0  0  0  0  0  0
   58.4950   28.2430   46.8550 N   0  0  0  0  0  0  0  0  0  0  0  0
   58.8780   28.6000   48.0700 N   0  0  0  0  0  0  0  0  0  0  0  0
   59.9280   29.4280   47.9370 C   0  0  0  0  0  0  0  0  0  0  0  0
   60.6330   30.0990   49.0720 C   0  0  0  0  0  0  0  0  0  0  0  0
   60.3270   31.5980   49.0760 C   0  0  0  0  0  0  0  0  0  0  0  0
   61.3910   32.3580   48.3300 C   0  0  0  0  0  0  0  0  0  0  0  0
   61.0630   33.0740   47.1650 C   0  0  0  0  0  0  0  0  0  0  0  0
   62.0450   33.8010   46.4850 C   0  0  0  0  0  0  0  0  0  0  0  0
   63.3580   33.8250   46.9660 C   0  0  0  0  0  0  0  0  0  0  0  0
   63.6900   33.1270   48.1310 C   0  0  0  0  0  0  0  0  0  0  0  0
   64.9630   33.1530   48.5980 F   0  0  0  0  0  0  0  0  0  0  0  0
   62.7090   32.4000   48.8140 C   0  0  0  0  0  0  0  0  0  0  0  0
   60.2180   29.6070   46.6710 O   0  0  0  0  0  0  0  0  0  0  0  0
   57.8080   31.3520   44.6940 N   0  0  0  0  0  0  0  0  0  0  0  0
   57.8860   32.3440   43.6100 C   0  0  0  0  0  0  0  0  0  0  0  0
   58.7560   33.5520   44.0040 C   0  0  0  0  0  0  0  0  0  0  0  0
   58.0360   34.5790   44.8940 C   0  0  0  0  0  0  0  0  0  0  0  0
   58.1030   34.2090   46.2620 O   0  0  0  0  0  0  0  0  0  0  0  0
   57.4200   32.9890   46.5030 C   0  0  0  0  0  0  0  0  0  0  0  0
   58.2420   31.7840   46.0300 C   0  0  0  0  0  0  0  0  0  0  0  0
   57.2767   27.9752   44.4352 H   0  0  0  0  0  0  0  0  0  0  0  0
   57.8276   28.8835   42.9534 H   0  0  0  0  0  0  0  0  0  0  0  0
   59.7079   27.8233   44.2036 H   0  0  0  0  0  0  0  0  0  0  0  0
   59.8319   29.6187   44.0879 H   0  0  0  0  0  0  0  0  0  0  0  0
   58.4200   28.2930   48.9560 H   0  0  0  0  0  0  0  0  0  0  0  0
   60.2950   29.6572   50.0210 H   0  0  0  0  0  0  0  0  0  0  0  0
   61.7173   29.9557   48.9543 H   0  0  0  0  0  0  0  0  0  0  0  0
   59.3540   31.7696   48.5925 H   0  0  0  0  0  0  0  0  0  0  0  0
   60.3023   31.9521   50.1172 H   0  0  0  0  0  0  0  0  0  0  0  0
   60.0300   33.0621   46.7872 H   0  0  0  0  0  0  0  0  0  0  0  0
   61.7845   34.3546   45.5708 H   0  0  0  0  0  0  0  0  0  0  0  0
   64.1303   34.3936   46.4272 H   0  0  0  0  0  0  0  0  0  0  0  0
   62.9712   31.8584   49.7349 H   0  0  0  0  0  0  0  0  0  0  0  0
   58.3218   31.8661   42.7203 H   0  0  0  0  0  0  0  0  0  0  0  0
   56.8683   32.7073   43.4042 H   0  0  0  0  0  0  0  0  0  0  0  0
   59.6371   33.1807   44.5479 H   0  0  0  0  0  0  0  0  0  0  0  0
   59.0210   34.0706   43.0708 H   0  0  0  0  0  0  0  0  0  0  0  0
   58.5120   35.5622   44.7645 H   0  0  0  0  0  0  0  0  0  0  0  0
   56.9781   34.6178   44.5952 H   0  0  0  0  0  0  0  0  0  0  0  0
   57.2312   32.8918   47.5823 H   0  0  0  0  0  0  0  0  0  0  0  0
   56.4746   33.0049   45.9409 H   0  0  0  0  0  0  0  0  0  0  0  0
   59.3049   32.0646   45.9913 H   0  0  0  0  0  0  0  0  0  0  0  0
   58.0921   30.9542   46.7363 H   0  0  0  0  0  0  0  0  0  0  0  0
  1  2  2  0
  2  3  1  0
  3  4  1  0
  4  5  1  0
  5  6  2  0
  6  7  1  0
  7  8  2  0
  8  9  1  0
  9 10  1  0
 10 11  1  0
 11 12  2  0
 12 13  1  0
 13 14  2  0
 14 15  1  0
 15 16  1  0
 15 17  2  0
  8 18  1  0
  2 19  1  0
 19 20  1  0
 20 21  1  0
 21 22  1  0
 22 23  1  0
 23 24  1  0
 24 25  1  0
 18  5  1  0
 25 19  1  0
 17 11  1  0
  3 26  1  0
  3 27  1  0
  4 28  1  0
  4 29  1  0
  7 30  1  0
  9 31  1  0
  9 32  1  0
 10 33  1  0
 10 34  1  0
 12 35  1  0
 13 36  1  0
 14 37  1  0
 17 38  1  0
 20 39  1  0
 20 40  1  0
 21 41  1  0
 21 42  1  0
 22 43  1  0
 22 44  1  0
 24 45  1  0
 24 46  1  0
 25 47  1  0
 25 48  1  0
M  CHG  1   7   1
M  END
>  <UniqueID>  (69) 
64

>  <SMILES>  (69) 
O=C(CCc1n[nH+]c(CCc2cccc(F)c2)o1)N1CCCOCC1

>  <Energy>  (69) 
82.72590749786626

>  <Genealogy>  (69) 
O=C(CCc1n[nH+]c(CCc2cccc(F)c2)o1)N1CCCOCC1 (protonated)
O=C(CCc1n[nH+]c(CCc2cccc(F)c2)o1)N1CCCOCC1 (3D coordinates assigned)
O=C(CCc1n[nH+]c(CCc2cccc(F)c2)o1)N1CCCOCC1 (nonaromatic ring conformer: 82.72590749786626 kcal/mol)

>  <smiles>  (69) 
O=C(CCc1nnc(CCc2cccc(F)c2)o1)N1CCCOCC1

>  <score_type>  (69) 
oracle

>  <origin>  (69) 
adg

>  <m_score__min__energy>  (69) 
-5.3799999999999999

>  <m_primary>  (69) 
energy

$$$$
69:0
     RDKit          3D

 65 69  0  0  0  0  0  0  0  0999 V2000
   59.5770   29.9070   50.4270 H   0  0  0  0  0  0  0  0  0  0  0  0
   59.5300   29.6760   51.4130 O   0  0  0  0  0  0  0  0  0  0  0  0
   58.3200   29.6510   52.1060 C   0  0  0  0  0  0  0  0  0  0  0  0
   58.0510   28.6150   53.0120 C   0  0  0  0  0  0  0  0  0  0  0  0
   58.7930   27.8181   53.1681 H   0  0  0  0  0  0  0  0  0  0  0  0
   56.8460   28.5900   53.7170 C   0  0  0  0  0  0  0  0  0  0  0  0
   56.6408   27.7734   54.4249 H   0  0  0  0  0  0  0  0  0  0  0  0
   55.9020   29.5990   53.5250 C   0  0  0  0  0  0  0  0  0  0  0  0
   54.9543   29.5780   54.0831 H   0  0  0  0  0  0  0  0  0  0  0  0
   56.1590   30.6370   52.6240 C   0  0  0  0  0  0  0  0  0  0  0  0
   55.4124   31.4314   52.4774 H   0  0  0  0  0  0  0  0  0  0  0  0
   57.3670   30.6710   51.9040 C   0  0  0  0  0  0  0  0  0  0  0  0
   57.6310   31.7950   50.9240 C   0  0  0  0  0  0  0  0  0  0  0  0
   57.1761   32.7174   51.3141 H   0  0  0  0  0  0  0  0  0  0  0  0
   57.1928   31.5058   49.9574 H   0  0  0  0  0  0  0  0  0  0  0  0
   59.0700   32.0310   50.7110 N   0  0  0  0  0  0  0  0  0  0  0  0
   59.4030   31.4500   49.9050 H   0  0  0  0  0  0  0  0  0  0  0  0
   59.3890   33.4400   50.4350 C   0  0  0  0  0  0  0  0  0  0  0  0
   60.3865   33.6694   50.8380 H   0  0  0  0  0  0  0  0  0  0  0  0
   58.6275   34.0737   50.9130 H   0  0  0  0  0  0  0  0  0  0  0  0
   59.3810   33.7110   48.9520 C   0  0  0  0  0  0  0  0  0  0  0  0
   60.3190   34.5930   48.3920 C   0  0  0  0  0  0  0  0  0  0  0  0
   61.0788   35.0635   49.0334 H   0  0  0  0  0  0  0  0  0  0  0  0
   60.2920   34.8760   47.0240 C   0  0  0  0  0  0  0  0  0  0  0  0
   61.0285   35.5708   46.5940 H   0  0  0  0  0  0  0  0  0  0  0  0
   59.3330   34.2800   46.1990 C   0  0  0  0  0  0  0  0  0  0  0  0
   59.2980   34.7110   44.4940 Cl  0  0  0  0  0  0  0  0  0  0  0  0
   58.3980   33.3790   46.7480 C   0  0  0  0  0  0  0  0  0  0  0  0
   57.3910   32.7610   45.9360 N   0  0  0  0  0  0  0  0  0  0  0  0
   57.3900   31.5030   45.6070 C   0  0  0  0  0  0  0  0  0  0  0  0
   57.9080   30.5900   46.4700 N   0  0  0  0  0  0  0  0  0  0  0  0
   57.9540   29.2690   46.1540 C   0  0  0  0  0  0  0  0  0  0  0  0
   58.5350   28.3360   47.0750 N   0  0  0  0  0  0  0  0  0  0  0  0
   58.9900   28.8070   48.3590 C   0  0  0  0  0  0  0  0  0  0  0  0
   58.1480   29.1770   49.2230 O   0  0  0  0  0  0  0  0  0  0  0  0
   60.3950   28.9300   48.6280 N   0  0  0  0  0  0  0  0  0  0  0  0
   61.1830   30.1280   48.5260 C   0  0  0  0  0  0  0  0  0  0  0  0
   61.8650   30.6710   49.6340 C   0  0  0  0  0  0  0  0  0  0  0  0
   61.8024   30.1742   50.6134 H   0  0  0  0  0  0  0  0  0  0  0  0
   62.6220   31.8410   49.4920 C   0  0  0  0  0  0  0  0  0  0  0  0
   63.1459   32.2656   50.3610 H   0  0  0  0  0  0  0  0  0  0  0  0
   62.7120   32.4690   48.2470 C   0  0  0  0  0  0  0  0  0  0  0  0
   63.2912   33.3981   48.1406 H   0  0  0  0  0  0  0  0  0  0  0  0
   62.0650   31.9160   47.1340 C   0  0  0  0  0  0  0  0  0  0  0  0
   62.1520   32.4005   46.1503 H   0  0  0  0  0  0  0  0  0  0  0  0
   61.3080   30.7470   47.2740 C   0  0  0  0  0  0  0  0  0  0  0  0
   60.8080   30.3112   46.3964 H   0  0  0  0  0  0  0  0  0  0  0  0
   58.5490   26.9340   46.7370 C   0  0  0  0  0  0  0  0  0  0  0  0
   57.3600   26.1800   46.7670 C   0  0  0  0  0  0  0  0  0  0  0  0
   56.4165   26.6608   47.0646 H   0  0  0  0  0  0  0  0  0  0  0  0
   57.3690   24.8270   46.4220 C   0  0  0  0  0  0  0  0  0  0  0  0
   56.4363   24.2447   46.4530 H   0  0  0  0  0  0  0  0  0  0  0  0
   58.5650   24.2130   46.0370 C   0  0  0  0  0  0  0  0  0  0  0  0
   58.5734   23.1459   45.7699 H   0  0  0  0  0  0  0  0  0  0  0  0
   59.7510   24.9540   45.9910 C   0  0  0  0  0  0  0  0  0  0  0  0
   60.6903   24.4688   45.6871 H   0  0  0  0  0  0  0  0  0  0  0  0
   59.7440   26.3110   46.3310 C   0  0  0  0  0  0  0  0  0  0  0  0
   60.6759   26.8933   46.2809 H   0  0  0  0  0  0  0  0  0  0  0  0
   57.4720   28.8360   44.9160 C   0  0  0  0  0  0  0  0  0  0  0  0
   57.5151   27.7730   44.6362 H   0  0  0  0  0  0  0  0  0  0  0  0
   56.9350   29.7820   44.0430 C   0  0  0  0  0  0  0  0  0  0  0  0
   56.5356   29.4673   43.0676 H   0  0  0  0  0  0  0  0  0  0  0  0
   56.9060   31.0920   44.3990 N   0  0  0  0  0  0  0  0  0  0  0  0
   58.4180   33.1110   48.1230 C   0  0  0  0  0  0  0  0  0  0  0  0
   57.6746   32.4260   48.5567 H   0  0  0  0  0  0  0  0  0  0  0  0
  1  2  1  0
  2  3  1  0
  3  4  2  0
  4  5  1  0
  4  6  1  0
  6  7  1  0
  6  8  2  0
  8  9  1  0
  8 10  1  0
 10 11  1  0
 10 12  2  0
 12 13  1  0
 13 14  1  0
 13 15  1  0
 13 16  1  0
 16 17  1  0
 16 18  1  0
 18 19  1  0
 18 20  1  0
 18 21  1  0
 21 22  2  0
 22 23  1  0
 22 24  1  0
 24 25  1  0
 24 26  2  0
 26 27  1  0
 26 28  1  0
 28 29  1  0
 29 30  2  0
 30 31  1  0
 31 32  2  0
 32 33  1  0
 33 34  1  0
 34 35  2  0
 34 36  1  0
 36 37  1  0
 37 38  2  0
 38 39  1  0
 38 40  1  0
 40 41  1  0
 40 42  2  0
 42 43  1  0
 42 44  1  0
 44 45  1  0
 44 46  2  0
 46 47  1  0
 33 48  1  0
 48 49  2  0
 49 50  1  0
 49 51  1  0
 51 52  1  0
 51 53  2  0
 53 54  1  0
 53 55  1  0
 55 56  1  0
 55 57  2  0
 57 58  1  0
 32 59  1  0
 59 60  1  0
 59 61  2  0
 61 62  1  0
 61 63  1  0
 28 64  2  0
 64 65  1  0
 12  3  1  0
 64 21  1  0
 63 30  1  0
 46 37  1  0
 57 48  1  0
M  CHG  2  36  -1  63  -1
M  END
>  <UniqueID>  (70) 
65

>  <SMILES>  (70) 
O=C([N-]c1ccccc1)N(c1ccccc1)c1cc[n-]/c(=N\c2cc(CNCc3ccccc3O)ccc2Cl)n1

>  <Energy>  (70) 
98.10268650871973

>  <Genealogy>  (70) 
O=C([N-]c1ccccc1)N(c1ccccc1)c1cc[n-]c(=Nc2cc(CNCc3ccccc3O)ccc2Cl)n1 (protonated)
O=C([N-]c1ccccc1)N(c1ccccc1)c1cc[n-]/c(=N\c2cc(CNCc3ccccc3O)ccc2Cl)n1 (cis-trans isomerization)
O=C([N-]c1ccccc1)N(c1ccccc1)c1cc[n-]/c(=N\c2cc(CNCc3ccccc3O)ccc2Cl)n1 (3D coordinates assigned)
O=C([N-]c1ccccc1)N(c1ccccc1)c1cc[n-]/c(=N\c2cc(CNCc3ccccc3O)ccc2Cl)n1 (optimized conformer: 98.10268650871973 kcal/mol)

>  <smiles>  (70) 
O=C(Nc1ccccc1)N(c1ccccc1)c1cc[nH]c(=Nc2cc(CNCc3ccccc3O)ccc2Cl)n1

>  <score_type>  (70) 
oracle

>  <origin>  (70) 
adg

>  <m_score__min__energy>  (70) 
-13.039999999999999

>  <m_primary>  (70) 
energy

$$$$
70:0
     RDKit          3D

 40 42  0  0  0  0  0  0  0  0999 V2000
   60.6150   33.5540   46.4520 O   0  0  0  0  0  0  0  0  0  0  0  0
   61.0250   32.7080   47.2940 C   0  0  0  0  0  0  0  0  0  0  0  0
   62.1310   33.0840   48.2020 C   0  0  0  0  0  0  0  0  0  0  0  0
   61.8340   33.7870   49.3820 C   0  0  0  0  0  0  0  0  0  0  0  0
   62.8480   34.1290   50.2790 C   0  0  0  0  0  0  0  0  0  0  0  0
   64.1700   33.7710   50.0110 C   0  0  0  0  0  0  0  0  0  0  0  0
   65.1770   34.1080   50.9070 O   0  0  0  0  0  0  0  0  0  0  0  0
   64.4800   33.0760   48.8390 C   0  0  0  0  0  0  0  0  0  0  0  0
   63.4750   32.7370   47.9250 C   0  0  0  0  0  0  0  0  0  0  0  0
   63.8480   32.0880   46.7460 O   0  0  0  0  0  0  0  0  0  0  0  0
   60.4490   31.3840   47.3250 N   0  0  0  0  0  0  0  0  0  0  0  0
   60.4730   30.5380   46.1230 C   0  0  0  0  0  0  0  0  0  0  0  0
   59.0750   30.1160   45.7570 C   0  0  0  0  0  0  0  0  0  0  0  0
   58.2070   31.0070   45.1060 C   0  0  0  0  0  0  0  0  0  0  0  0
   56.8970   30.6210   44.8040 C   0  0  0  0  0  0  0  0  0  0  0  0
   56.4430   29.3470   45.1570 C   0  0  0  0  0  0  0  0  0  0  0  0
   55.1410   28.9660   44.8580 O   0  0  0  0  0  0  0  0  0  0  0  0
   57.2990   28.4560   45.8100 C   0  0  0  0  0  0  0  0  0  0  0  0
   58.6100   28.8390   46.1120 C   0  0  0  0  0  0  0  0  0  0  0  0
   59.6600   30.9610   48.4550 C   0  0  0  0  0  0  0  0  0  0  0  0
   59.7120   29.6280   48.8970 C   0  0  0  0  0  0  0  0  0  0  0  0
   58.9490   29.2190   49.9950 C   0  0  0  0  0  0  0  0  0  0  0  0
   58.1300   30.1370   50.6580 C   0  0  0  0  0  0  0  0  0  0  0  0
   57.3710   29.7290   51.7490 O   0  0  0  0  0  0  0  0  0  0  0  0
   58.0740   31.4650   50.2260 C   0  0  0  0  0  0  0  0  0  0  0  0
   58.8370   31.8770   49.1280 C   0  0  0  0  0  0  0  0  0  0  0  0
   60.7939   34.0703   49.6009 H   0  0  0  0  0  0  0  0  0  0  0  0
   62.6044   34.6815   51.1984 H   0  0  0  0  0  0  0  0  0  0  0  0
   65.5227   32.7928   48.6327 H   0  0  0  0  0  0  0  0  0  0  0  0
   64.8120   31.9000   46.5000 H   0  0  0  0  0  0  0  0  0  0  0  0
   60.9119   31.1046   45.2885 H   0  0  0  0  0  0  0  0  0  0  0  0
   61.0771   29.6416   46.3267 H   0  0  0  0  0  0  0  0  0  0  0  0
   58.5586   32.0127   44.8323 H   0  0  0  0  0  0  0  0  0  0  0  0
   56.2232   31.3209   44.2881 H   0  0  0  0  0  0  0  0  0  0  0  0
   56.9417   27.4531   46.0866 H   0  0  0  0  0  0  0  0  0  0  0  0
   59.2799   28.1369   46.6299 H   0  0  0  0  0  0  0  0  0  0  0  0
   60.3557   28.9033   48.3769 H   0  0  0  0  0  0  0  0  0  0  0  0
   58.9934   28.1745   50.3370 H   0  0  0  0  0  0  0  0  0  0  0  0
   57.4297   32.1867   50.7495 H   0  0  0  0  0  0  0  0  0  0  0  0
   58.7916   32.9231   48.7909 H   0  0  0  0  0  0  0  0  0  0  0  0
  1  2  2  0
  2  3  1  0
  3  4  2  0
  4  5  1  0
  5  6  2  0
  6  7  1  0
  6  8  1  0
  8  9  2  0
  9 10  1  0
  2 11  1  0
 11 12  1  0
 12 13  1  0
 13 14  2  0
 14 15  1  0
 15 16  2  0
 16 17  1  0
 16 18  1  0
 18 19  2  0
 11 20  1  0
 20 21  2  0
 21 22  1  0
 22 23  2  0
 23 24  1  0
 23 25  1  0
 25 26  2  0
  9  3  1  0
 19 13  1  0
 26 20  1  0
  4 27  1  0
  5 28  1  0
  8 29  1  0
 10 30  1  0
 12 31  1  0
 12 32  1  0
 14 33  1  0
 15 34  1  0
 18 35  1  0
 19 36  1  0
 21 37  1  0
 22 38  1  0
 25 39  1  0
 26 40  1  0
M  CHG  3   7  -1  17  -1  24  -1
M  END
>  <UniqueID>  (71) 
66

>  <SMILES>  (71) 
O=C(c1ccc([O-])cc1O)N(Cc1ccc([O-])cc1)c1ccc([O-])cc1

>  <Energy>  (71) 
52.95716308306642

>  <Genealogy>  (71) 
O=C(c1ccc([O-])cc1O)N(Cc1ccc([O-])cc1)c1ccc([O-])cc1 (protonated)
O=C(c1ccc([O-])cc1O)N(Cc1ccc([O-])cc1)c1ccc([O-])cc1 (3D coordinates assigned)
O=C(c1ccc([O-])cc1O)N(Cc1ccc([O-])cc1)c1ccc([O-])cc1 (optimized conformer: 52.95716308306642 kcal/mol)

>  <smiles>  (71) 
O=C(c1ccc(O)cc1O)N(Cc1ccc(O)cc1)c1ccc(O)cc1

>  <score_type>  (71) 
oracle

>  <origin>  (71) 
adg

>  <m_score__min__energy>  (71) 
-11.81

>  <m_primary>  (71) 
energy

$$$$
71:0
     RDKit          3D

 35 37  0  0  0  0  0  0  0  0999 V2000
   55.9660   23.8620   47.9130 C   0  0  0  0  0  0  0  0  0  0  0  0
   56.2570   24.2420   46.5720 O   0  0  0  0  0  0  0  0  0  0  0  0
   57.1150   25.2930   46.2100 C   0  0  0  0  0  0  0  0  0  0  0  0
   58.5120   25.1360   46.1710 C   0  0  0  0  0  0  0  0  0  0  0  0
   59.3310   26.2050   45.8130 C   0  0  0  0  0  0  0  0  0  0  0  0
   58.7700   27.4380   45.4830 C   0  0  0  0  0  0  0  0  0  0  0  0
   57.3780   27.6200   45.5150 C   0  0  0  0  0  0  0  0  0  0  0  0
   56.8200   28.9400   45.1400 C   0  0  0  0  0  0  0  0  0  0  0  0
   55.5810   29.1360   45.2260 O   0  0  0  0  0  0  0  0  0  0  0  0
   57.6530   29.9910   44.6270 N   0  0  0  0  0  0  0  0  0  0  0  0
   57.7730   31.2990   45.2040 C   0  0  0  0  0  0  0  0  0  0  0  0
   57.3260   32.3960   44.4550 C   0  0  0  0  0  0  0  0  0  0  0  0
   57.4920   33.6980   44.9310 C   0  0  0  0  0  0  0  0  0  0  0  0
   58.0950   33.9230   46.1680 C   0  0  0  0  0  0  0  0  0  0  0  0
   58.5120   32.8420   46.9520 C   0  0  0  0  0  0  0  0  0  0  0  0
   59.0740   33.0710   48.1700 N   0  0  0  0  0  0  0  0  0  0  0  0
   59.4670   32.0540   48.9800 C   0  0  0  0  0  0  0  0  0  0  0  0
   59.2810   30.7310   48.5810 C   0  0  0  0  0  0  0  0  0  0  0  0
   58.7070   30.4600   47.3390 C   0  0  0  0  0  0  0  0  0  0  0  0
   58.3370   31.5160   46.4860 C   0  0  0  0  0  0  0  0  0  0  0  0
   56.5470   26.5370   45.8880 C   0  0  0  0  0  0  0  0  0  0  0  0
   55.1580   26.6670   45.9750 O   0  0  0  0  0  0  0  0  0  0  0  0
   56.4849   24.5396   48.6069 H   0  0  0  0  0  0  0  0  0  0  0  0
   54.8811   23.9225   48.0840 H   0  0  0  0  0  0  0  0  0  0  0  0
   56.3072   22.8303   48.0840 H   0  0  0  0  0  0  0  0  0  0  0  0
   58.9606   24.1641   46.4245 H   0  0  0  0  0  0  0  0  0  0  0  0
   60.4232   26.0757   45.7907 H   0  0  0  0  0  0  0  0  0  0  0  0
   59.4231   28.2750   45.1952 H   0  0  0  0  0  0  0  0  0  0  0  0
   56.8396   32.2296   43.4825 H   0  0  0  0  0  0  0  0  0  0  0  0
   57.1456   34.5500   44.3276 H   0  0  0  0  0  0  0  0  0  0  0  0
   58.2430   34.9519   46.5279 H   0  0  0  0  0  0  0  0  0  0  0  0
   59.9326   32.2744   49.9519 H   0  0  0  0  0  0  0  0  0  0  0  0
   59.5851   29.9059   49.2418 H   0  0  0  0  0  0  0  0  0  0  0  0
   58.5432   29.4184   47.0257 H   0  0  0  0  0  0  0  0  0  0  0  0
   54.7000   27.4710   46.3850 H   0  0  0  0  0  0  0  0  0  0  0  0
  1  2  1  0
  2  3  1  0
  3  4  2  0
  4  5  1  0
  5  6  2  0
  6  7  1  0
  7  8  1  0
  8  9  2  0
  8 10  1  0
 10 11  1  0
 11 12  2  0
 12 13  1  0
 13 14  2  0
 14 15  1  0
 15 16  2  0
 16 17  1  0
 17 18  2  0
 18 19  1  0
 19 20  2  0
  7 21  2  0
 21 22  1  0
 21  3  1  0
 20 11  1  0
 20 15  1  0
  1 23  1  0
  1 24  1  0
  1 25  1  0
  4 26  1  0
  5 27  1  0
  6 28  1  0
 12 29  1  0
 13 30  1  0
 14 31  1  0
 17 32  1  0
 18 33  1  0
 19 34  1  0
 22 35  1  0
M  CHG  1  10  -1
M  END
>  <UniqueID>  (72) 
67

>  <SMILES>  (72) 
COc1cccc(C(=O)[N-]c2cccc3ncccc23)c1O

>  <Energy>  (72) 
53.39868902281115

>  <Genealogy>  (72) 
COc1cccc(C(=O)[N-]c2cccc3ncccc23)c1O (protonated)
COc1cccc(C(=O)[N-]c2cccc3ncccc23)c1O (3D coordinates assigned)
COc1cccc(C(=O)[N-]c2cccc3ncccc23)c1O (optimized conformer: 53.39868902281115 kcal/mol)

>  <smiles>  (72) 
COc1cccc(C(=O)Nc2cccc3ncccc23)c1O

>  <score_type>  (72) 
oracle

>  <origin>  (72) 
adg

>  <m_score__min__energy>  (72) 
-10.27

>  <m_primary>  (72) 
energy

$$$$
72:0
     RDKit          3D

 30 31  0  0  0  0  0  0  0  0999 V2000
   63.7830   32.4650   48.1840 N   0  0  0  0  0  0  0  0  0  0  0  0
   62.5160   32.7220   47.5730 C   0  0  0  0  0  0  0  0  0  0  0  0
   61.4340   31.8580   47.8000 C   0  0  0  0  0  0  0  0  0  0  0  0
   60.1960   32.1090   47.2010 C   0  0  0  0  0  0  0  0  0  0  0  0
   60.0290   33.2240   46.3690 C   0  0  0  0  0  0  0  0  0  0  0  0
   58.4740   33.5380   45.6030 S   0  0  0  0  0  0  0  0  0  0  0  0
   57.3740   33.5680   46.6260 O   0  0  0  0  0  0  0  0  0  0  0  0
   58.5350   34.8690   44.9080 O   0  0  0  0  0  0  0  0  0  0  0  0
   58.1260   32.3030   44.4350 N   0  0  0  0  0  0  0  0  0  0  0  0
   57.6900   30.9730   44.7440 C   0  0  0  0  0  0  0  0  0  0  0  0
   58.5910   30.1000   45.3640 C   0  0  0  0  0  0  0  0  0  0  0  0
   58.2070   28.7960   45.6900 C   0  0  0  0  0  0  0  0  0  0  0  0
   56.9090   28.3420   45.3980 C   0  0  0  0  0  0  0  0  0  0  0  0
   56.4960   26.9630   45.7420 C   0  0  0  0  0  0  0  0  0  0  0  0
   57.3470   26.0370   45.8100 O   0  0  0  0  0  0  0  0  0  0  0  0
   55.1610   26.6700   45.9960 O   0  0  0  0  0  0  0  0  0  0  0  0
   56.0060   29.2180   44.7730 C   0  0  0  0  0  0  0  0  0  0  0  0
   56.3920   30.5220   44.4470 C   0  0  0  0  0  0  0  0  0  0  0  0
   61.1070   34.0910   46.1470 C   0  0  0  0  0  0  0  0  0  0  0  0
   62.3460   33.8400   46.7450 C   0  0  0  0  0  0  0  0  0  0  0  0
   63.8850   32.4690   49.2240 H   0  0  0  0  0  0  0  0  0  0  0  0
   64.6280   32.2690   47.6020 H   0  0  0  0  0  0  0  0  0  0  0  0
   61.5602   30.9805   48.4512 H   0  0  0  0  0  0  0  0  0  0  0  0
   59.3506   31.4292   47.3834 H   0  0  0  0  0  0  0  0  0  0  0  0
   59.6100   30.4428   45.5968 H   0  0  0  0  0  0  0  0  0  0  0  0
   58.9252   28.1208   46.1782 H   0  0  0  0  0  0  0  0  0  0  0  0
   54.9874   28.8756   44.5382 H   0  0  0  0  0  0  0  0  0  0  0  0
   55.6766   31.1980   43.9559 H   0  0  0  0  0  0  0  0  0  0  0  0
   60.9784   34.9716   45.5005 H   0  0  0  0  0  0  0  0  0  0  0  0
   63.1899   34.5222   46.5649 H   0  0  0  0  0  0  0  0  0  0  0  0
  1  2  1  0
  2  3  2  0
  3  4  1  0
  4  5  2  0
  5  6  1  0
  6  7  2  0
  6  8  2  0
  6  9  1  0
  9 10  1  0
 10 11  2  0
 11 12  1  0
 12 13  2  0
 13 14  1  0
 14 15  2  0
 14 16  1  0
 13 17  1  0
 17 18  2  0
  5 19  1  0
 19 20  2  0
 20  2  1  0
 18 10  1  0
  1 21  1  0
  1 22  1  0
  3 23  1  0
  4 24  1  0
 11 25  1  0
 12 26  1  0
 17 27  1  0
 18 28  1  0
 19 29  1  0
 20 30  1  0
M  CHG  2   9  -1  16  -1
M  END
>  <UniqueID>  (73) 
68

>  <SMILES>  (73) 
Nc1ccc(S(=O)(=O)[N-]c2ccc(C(=O)[O-])cc2)cc1

>  <Energy>  (73) 
33.41190488394774

>  <Genealogy>  (73) 
Nc1ccc(S(=O)(=O)[N-]c2ccc(C(=O)[O-])cc2)cc1 (protonated)
Nc1ccc(S(=O)(=O)[N-]c2ccc(C(=O)[O-])cc2)cc1 (3D coordinates assigned)
Nc1ccc(S(=O)(=O)[N-]c2ccc(C(=O)[O-])cc2)cc1 (optimized conformer: 33.41190488394774 kcal/mol)

>  <smiles>  (73) 
Nc1ccc(S(=O)(=O)Nc2ccc(C(=O)O)cc2)cc1

>  <score_type>  (73) 
oracle

>  <origin>  (73) 
adg

>  <m_score__min__energy>  (73) 
-10.289999999999999

>  <m_primary>  (73) 
energy

$$$$
73:0
     RDKit          3D

 25 27  0  0  1  0  0  0  0  0999 V2000
   62.2820   34.0690   49.2100 Br  0  0  0  0  0  0  0  0  0  0  0  0
   60.7630   33.7370   48.0920 C   0  0  0  0  0  0  0  0  0  0  0  0
   59.6800   34.5990   48.0530 C   0  0  0  0  0  0  0  0  0  0  0  0
   58.6050   34.2970   47.2160 C   0  0  0  0  0  0  0  0  0  0  0  0
   58.6020   33.1590   46.4280 C   0  0  0  0  0  0  0  0  0  0  0  0
   59.7070   32.2970   46.4790 C   0  0  0  0  0  0  0  0  0  0  0  0
   59.7070   31.1240   45.7330 N   0  0  0  0  0  0  0  0  0  0  0  0
   59.0540   30.0630   45.8840 C   0  0  0  0  0  0  0  0  0  0  0  0
   59.5970   29.0450   46.5680 N   0  0  0  0  0  0  0  0  0  0  0  0
   58.9380   27.8830   46.7600 C   0  0  0  0  0  0  0  0  0  0  0  0
   57.7010   27.7780   46.2340 N   0  0  0  0  0  0  0  0  0  0  0  0
   57.1190   28.7860   45.5360 C   0  0  0  0  0  0  0  0  0  0  0  0
   55.9370   28.8900   44.9470 N   0  0  0  0  0  0  0  0  0  0  0  0
   55.8740   30.0760   44.4130 N   0  0  0  0  0  0  0  0  0  0  0  0
   57.0260   30.7890   44.6410 C   0  0  0  0  0  0  0  0  0  0  0  0
   57.8100   29.9500   45.3600 C   0  0  0  0  0  0  0  0  0  0  0  0
   60.7940   32.5830   47.3130 C   0  0  0  0  0  0  0  0  0  0  0  0
   59.6672   35.5080   48.6724 H   0  0  0  0  0  0  0  0  0  0  0  0
   57.7417   34.9778   47.1817 H   0  0  0  0  0  0  0  0  0  0  0  0
   57.7473   32.9346   45.7729 H   0  0  0  0  0  0  0  0  0  0  0  0
   60.5460   29.1340   46.9690 H   0  0  0  0  0  0  0  0  0  0  0  0
   59.3921   27.0544   47.3233 H   0  0  0  0  0  0  0  0  0  0  0  0
   55.1450   28.1890   44.8810 H   0  0  0  0  0  0  0  0  0  0  0  0
   57.2597   31.8126   44.3130 H   0  0  0  0  0  0  0  0  0  0  0  0
   61.6602   31.9061   47.3526 H   0  0  0  0  0  0  0  0  0  0  0  0
  1  2  1  0
  2  3  2  0
  3  4  1  0
  4  5  2  0
  5  6  1  0
  6  7  1  0
  7  8  2  0
  8  9  1  0
  9 10  1  0
 10 11  2  0
 11 12  1  0
 12 13  1  0
 13 14  1  0
 14 15  2  0
 15 16  1  0
  6 17  2  0
 17  2  1  0
 16  8  1  0
 16 12  2  0
  3 18  1  0
  4 19  1  0
  5 20  1  0
  9 21  1  0
 10 22  1  0
 13 23  1  0
 15 24  1  0
 17 25  1  0
M  END
>  <smiles>  (74) 
Brc1cccc(N=c2[nH]cnc3[nH]ncc23)c1

>  <score_type>  (74) 
oracle

>  <origin>  (74) 
adg

>  <m_score__min__energy>  (74) 
-6.96

>  <m_primary>  (74) 
energy

$$$$
74:0
     RDKit          3D

 50 52  0  0  0  0  0  0  0  0999 V2000
   55.4980   29.7290   43.8090 C   0  0  0  0  0  0  0  0  0  0  0  0
   56.5570   30.7970   43.5730 C   0  0  0  0  0  0  0  0  0  0  0  0
   56.5780   31.6800   44.6870 O   0  0  0  0  0  0  0  0  0  0  0  0
   57.7300   32.0260   45.4030 C   0  0  0  0  0  0  0  0  0  0  0  0
   57.9300   33.3690   45.7310 C   0  0  0  0  0  0  0  0  0  0  0  0
   59.0810   33.7480   46.4170 C   0  0  0  0  0  0  0  0  0  0  0  0
   60.0280   32.7870   46.7680 C   0  0  0  0  0  0  0  0  0  0  0  0
   59.8120   31.4420   46.4280 C   0  0  0  0  0  0  0  0  0  0  0  0
   60.8280   30.4140   46.7580 C   0  0  0  0  0  0  0  0  0  0  0  0
   61.7690   30.6940   47.5510 O   0  0  0  0  0  0  0  0  0  0  0  0
   60.7680   29.1170   46.1480 N   0  0  0  0  0  0  0  0  0  0  0  0
   59.6260   28.2490   46.1350 C   0  0  0  0  0  0  0  0  0  0  0  0
   59.3150   27.5220   47.2900 C   0  0  0  0  0  0  0  0  0  0  0  0
   58.2090   26.6690   47.3130 C   0  0  0  0  0  0  0  0  0  0  0  0
   57.4080   26.5200   46.1710 C   0  0  0  0  0  0  0  0  0  0  0  0
   56.0060   25.4430   46.2120 S   0  0  0  0  0  0  0  0  0  0  0  0
   55.9120   24.7890   47.5640 O   0  0  0  0  0  0  0  0  0  0  0  0
   54.7450   26.2320   45.9930 O   0  0  0  0  0  0  0  0  0  0  0  0
   56.1550   24.2190   44.9790 N   0  0  0  0  0  0  0  0  0  0  0  0
   55.0160   23.9440   44.0990 C   0  0  0  0  0  0  0  0  0  0  0  0
   57.3810   23.4740   44.8380 C   0  0  0  0  0  0  0  0  0  0  0  0
   58.5090   23.8060   45.6110 C   0  0  0  0  0  0  0  0  0  0  0  0
   59.7030   23.0900   45.4670 C   0  0  0  0  0  0  0  0  0  0  0  0
   59.7830   22.0400   44.5520 C   0  0  0  0  0  0  0  0  0  0  0  0
   58.6700   21.6980   43.7820 C   0  0  0  0  0  0  0  0  0  0  0  0
   57.4720   22.4070   43.9250 C   0  0  0  0  0  0  0  0  0  0  0  0
   57.7310   27.2280   45.0040 C   0  0  0  0  0  0  0  0  0  0  0  0
   58.8360   28.0820   44.9820 C   0  0  0  0  0  0  0  0  0  0  0  0
   58.6680   31.0940   45.7620 N   0  0  0  0  0  0  0  0  0  0  0  0
   55.3561   29.5859   44.8904 H   0  0  0  0  0  0  0  0  0  0  0  0
   54.5486   30.0471   43.3536 H   0  0  0  0  0  0  0  0  0  0  0  0
   55.8241   28.7823   43.3536 H   0  0  0  0  0  0  0  0  0  0  0  0
   57.5424   30.3212   43.4605 H   0  0  0  0  0  0  0  0  0  0  0  0
   56.3216   31.3588   42.6570 H   0  0  0  0  0  0  0  0  0  0  0  0
   57.1815   34.1240   45.4486 H   0  0  0  0  0  0  0  0  0  0  0  0
   59.2427   34.8034   46.6814 H   0  0  0  0  0  0  0  0  0  0  0  0
   60.9398   33.0810   47.3086 H   0  0  0  0  0  0  0  0  0  0  0  0
   59.9457   27.6230   48.1855 H   0  0  0  0  0  0  0  0  0  0  0  0
   57.9653   26.1122   48.2298 H   0  0  0  0  0  0  0  0  0  0  0  0
   54.1256   23.7290   44.7081 H   0  0  0  0  0  0  0  0  0  0  0  0
   54.8229   24.8213   43.4642 H   0  0  0  0  0  0  0  0  0  0  0  0
   55.2445   23.0752   43.4642 H   0  0  0  0  0  0  0  0  0  0  0  0
   58.4520   24.6337   46.3332 H   0  0  0  0  0  0  0  0  0  0  0  0
   60.5796   23.3556   46.0762 H   0  0  0  0  0  0  0  0  0  0  0  0
   60.7236   21.4813   44.4372 H   0  0  0  0  0  0  0  0  0  0  0  0
   58.7348   20.8695   43.0613 H   0  0  0  0  0  0  0  0  0  0  0  0
   56.5964   22.1286   43.3202 H   0  0  0  0  0  0  0  0  0  0  0  0
   57.1116   27.1102   44.1026 H   0  0  0  0  0  0  0  0  0  0  0  0
   59.0898   28.6261   44.0603 H   0  0  0  0  0  0  0  0  0  0  0  0
   58.5150   30.0940   45.5140 H   0  0  0  0  0  0  0  0  0  0  0  0
  1  2  1  0
  2  3  1  0
  3  4  1  0
  4  5  2  0
  5  6  1  0
  6  7  2  0
  7  8  1  0
  8  9  1  0
  9 10  2  0
  9 11  1  0
 11 12  1  0
 12 13  2  0
 13 14  1  0
 14 15  2  0
 15 16  1  0
 16 17  2  0
 16 18  2  0
 16 19  1  0
 19 20  1  0
 19 21  1  0
 21 22  2  0
 22 23  1  0
 23 24  2  0
 24 25  1  0
 25 26  2  0
 15 27  1  0
 27 28  2  0
  8 29  2  0
 29  4  1  0
 28 12  1  0
 26 21  1  0
  1 30  1  0
  1 31  1  0
  1 32  1  0
  2 33  1  0
  2 34  1  0
  5 35  1  0
  6 36  1  0
  7 37  1  0
 13 38  1  0
 14 39  1  0
 20 40  1  0
 20 41  1  0
 20 42  1  0
 22 43  1  0
 23 44  1  0
 24 45  1  0
 25 46  1  0
 26 47  1  0
 27 48  1  0
 28 49  1  0
 29 50  1  0
M  CHG  2  11  -1  29   1
M  END
>  <UniqueID>  (75) 
69

>  <SMILES>  (75) 
CCOc1cccc(C(=O)[N-]c2ccc(S(=O)(=O)N(C)c3ccccc3)cc2)[nH+]1

>  <Energy>  (75) 
58.27581652145

>  <Genealogy>  (75) 
CCOc1cccc(C(=O)[N-]c2ccc(S(=O)(=O)N(C)c3ccccc3)cc2)[nH+]1 (protonated)
CCOc1cccc(C(=O)[N-]c2ccc(S(=O)(=O)N(C)c3ccccc3)cc2)[nH+]1 (3D coordinates assigned)
CCOc1cccc(C(=O)[N-]c2ccc(S(=O)(=O)N(C)c3ccccc3)cc2)[nH+]1 (optimized conformer: 58.27581652145 kcal/mol)

>  <smiles>  (75) 
CCOc1cccc(C(=O)Nc2ccc(S(=O)(=O)N(C)c3ccccc3)cc2)n1

>  <score_type>  (75) 
oracle

>  <origin>  (75) 
adg

>  <m_score__min__energy>  (75) 
-7.96

>  <m_primary>  (75) 
energy

$$$$
75:0
     RDKit          3D

 57 60  0  0  0  0  0  0  0  0999 V2000
   58.5330   30.1320   49.7650 C   0  0  0  0  0  0  0  0  0  0  0  0
   58.7350   30.6680   48.4640 O   0  0  0  0  0  0  0  0  0  0  0  0
   59.4640   31.8350   48.1760 C   0  0  0  0  0  0  0  0  0  0  0  0
   59.0380   33.1050   48.6150 C   0  0  0  0  0  0  0  0  0  0  0  0
   59.7850   34.2450   48.3090 C   0  0  0  0  0  0  0  0  0  0  0  0
   60.9670   34.1330   47.5750 C   0  0  0  0  0  0  0  0  0  0  0  0
   61.4040   32.8840   47.1380 C   0  0  0  0  0  0  0  0  0  0  0  0
   60.6590   31.7280   47.4270 C   0  0  0  0  0  0  0  0  0  0  0  0
   61.1580   30.3730   46.9480 C   0  0  0  0  0  0  0  0  0  0  0  0
   60.1020   29.4520   46.4230 N   0  0  1  0  0  0  0  0  0  0  0  0
   60.3250   29.0200   45.0300 C   0  0  0  0  0  0  0  0  0  0  0  0
   59.8800   28.2760   47.3040 C   0  0  0  0  0  0  0  0  0  0  0  0
   59.4510   27.0630   46.5190 C   0  0  0  0  0  0  0  0  0  0  0  0
   60.1470   25.9040   46.5300 N   0  0  0  0  0  0  0  0  0  0  0  0
   59.3610   25.0560   45.8420 C   0  0  0  0  0  0  0  0  0  0  0  0
   59.6460   23.7160   45.5920 C   0  0  0  0  0  0  0  0  0  0  0  0
   58.7060   22.9740   44.8690 C   0  0  0  0  0  0  0  0  0  0  0  0
   57.5180   23.5810   44.4170 C   0  0  0  0  0  0  0  0  0  0  0  0
   56.2500   22.5730   43.4110 Br  0  0  0  0  0  0  0  0  0  0  0  0
   57.2790   24.9320   44.7040 C   0  0  0  0  0  0  0  0  0  0  0  0
   58.2140   25.6160   45.4150 N   0  0  0  0  0  0  0  0  0  0  0  0
   58.2490   26.8940   45.8330 C   0  0  0  0  0  0  0  0  0  0  0  0
   57.1690   27.8830   45.6720 C   0  0  0  0  0  0  0  0  0  0  0  0
   55.9680   27.5000   45.6250 O   0  0  0  0  0  0  0  0  0  0  0  0
   57.4730   29.2760   45.6240 N   0  0  0  0  0  0  0  0  0  0  0  0
   56.7380   30.3600   44.4930 S   0  0  0  0  0  0  0  0  0  0  0  0
   57.0150   29.8820   43.0990 O   0  0  0  0  0  0  0  0  0  0  0  0
   55.2520   30.3760   44.6970 O   0  0  0  0  0  0  0  0  0  0  0  0
   57.4020   31.9800   44.6970 C   0  0  0  0  0  0  0  0  0  0  0  0
   58.3410   32.4810   43.7850 C   0  0  0  0  0  0  0  0  0  0  0  0
   58.8660   33.7680   43.9510 C   0  0  0  0  0  0  0  0  0  0  0  0
   58.4460   34.5630   45.0220 C   0  0  0  0  0  0  0  0  0  0  0  0
   57.5070   34.0680   45.9310 C   0  0  0  0  0  0  0  0  0  0  0  0
   56.9900   32.7790   45.7720 C   0  0  0  0  0  0  0  0  0  0  0  0
   58.8156   30.8819   50.5185 H   0  0  0  0  0  0  0  0  0  0  0  0
   57.4731   29.8664   49.8916 H   0  0  0  0  0  0  0  0  0  0  0  0
   59.1540   29.2329   49.8916 H   0  0  0  0  0  0  0  0  0  0  0  0
   58.1123   33.1988   49.2017 H   0  0  0  0  0  0  0  0  0  0  0  0
   59.4409   35.2335   48.6473 H   0  0  0  0  0  0  0  0  0  0  0  0
   61.5549   35.0328   47.3410 H   0  0  0  0  0  0  0  0  0  0  0  0
   62.3382   32.8024   46.5631 H   0  0  0  0  0  0  0  0  0  0  0  0
   61.8893   30.5448   46.1444 H   0  0  0  0  0  0  0  0  0  0  0  0
   61.5835   29.8756   47.8320 H   0  0  0  0  0  0  0  0  0  0  0  0
   59.2130   30.0060   46.3980 H   0  0  0  0  0  0  0  0  0  0  0  0
   60.8296   28.0426   45.0255 H   0  0  0  0  0  0  0  0  0  0  0  0
   59.3578   28.9357   44.5129 H   0  0  0  0  0  0  0  0  0  0  0  0
   60.9539   29.7597   44.5129 H   0  0  0  0  0  0  0  0  0  0  0  0
   60.8165   28.0452   47.8329 H   0  0  0  0  0  0  0  0  0  0  0  0
   59.0774   28.5262   48.0133 H   0  0  0  0  0  0  0  0  0  0  0  0
   60.5788   23.2565   45.9509 H   0  0  0  0  0  0  0  0  0  0  0  0
   58.8953   21.9123   44.6526 H   0  0  0  0  0  0  0  0  0  0  0  0
   56.3577   25.4264   44.3623 H   0  0  0  0  0  0  0  0  0  0  0  0
   58.6663   31.8612   42.9365 H   0  0  0  0  0  0  0  0  0  0  0  0
   59.6096   34.1543   43.2384 H   0  0  0  0  0  0  0  0  0  0  0  0
   58.8541   35.5766   45.1488 H   0  0  0  0  0  0  0  0  0  0  0  0
   57.1743   34.6934   46.7726 H   0  0  0  0  0  0  0  0  0  0  0  0
   56.2566   32.3902   46.4938 H   0  0  0  0  0  0  0  0  0  0  0  0
  1  2  1  0
  2  3  1  0
  3  4  2  0
  4  5  1  0
  5  6  2  0
  6  7  1  0
  7  8  2  0
  8  9  1  0
  9 10  1  0
 10 11  1  0
 10 12  1  0
 12 13  1  0
 13 14  1  0
 14 15  2  0
 15 16  1  0
 16 17  2  0
 17 18  1  0
 18 19  1  0
 18 20  2  0
 20 21  1  0
 21 22  1  0
 22 23  1  0
 23 24  2  0
 23 25  1  0
 25 26  1  0
 26 27  2  0
 26 28  2  0
 26 29  1  0
 29 30  2  0
 30 31  1  0
 31 32  2  0
 32 33  1  0
 33 34  2  0
  8  3  1  0
 22 13  2  0
 34 29  1  0
 21 15  1  0
  1 35  1  0
  1 36  1  0
  1 37  1  0
  4 38  1  0
  5 39  1  0
  6 40  1  0
  7 41  1  0
  9 42  1  0
  9 43  1  0
 10 44  1  6
 11 45  1  0
 11 46  1  0
 11 47  1  0
 12 48  1  0
 12 49  1  0
 16 50  1  0
 17 51  1  0
 20 52  1  0
 30 53  1  0
 31 54  1  0
 32 55  1  0
 33 56  1  0
 34 57  1  0
M  CHG  2  10   1  25  -1
M  END
>  <UniqueID>  (76) 
70

>  <SMILES>  (76) 
COc1ccccc1C[N@@H+](C)Cc1nc2ccc(Br)cn2c1C(=O)[N-]S(=O)(=O)c1ccccc1

>  <Energy>  (76) 
106.6015495979897

>  <Genealogy>  (76) 
COc1ccccc1C[NH+](C)Cc1nc2ccc(Br)cn2c1C(=O)[N-]S(=O)(=O)c1ccccc1 (protonated)
COc1ccccc1C[N@@H+](C)Cc1nc2ccc(Br)cn2c1C(=O)[N-]S(=O)(=O)c1ccccc1 (chirality)
COc1ccccc1C[N@@H+](C)Cc1nc2ccc(Br)cn2c1C(=O)[N-]S(=O)(=O)c1ccccc1 (3D coordinates assigned)
COc1ccccc1C[N@@H+](C)Cc1nc2ccc(Br)cn2c1C(=O)[N-]S(=O)(=O)c1ccccc1 (optimized conformer: 106.6015495979897 kcal/mol)

>  <smiles>  (76) 
COc1ccccc1CN(C)Cc1nc2ccc(Br)cn2c1C(=O)NS(=O)(=O)c1ccccc1

>  <score_type>  (76) 
oracle

>  <origin>  (76) 
adg

>  <m_score__min__energy>  (76) 
-9.5800000000000001

>  <m_primary>  (76) 
energy

$$$$
76:0
     RDKit          3D

 49 51  0  0  0  0  0  0  0  0999 V2000
   55.7380   30.5640   44.4810 O   0  0  0  0  0  0  0  0  0  0  0  0
   56.8490   30.0580   44.1650 C   0  0  0  0  0  0  0  0  0  0  0  0
   57.0710   28.5910   44.3490 C   0  0  0  0  0  0  0  0  0  0  0  0
   58.4330   28.3600   44.6970 O   0  0  0  0  0  0  0  0  0  0  0  0
   59.1180   29.0480   45.7100 C   0  0  0  0  0  0  0  0  0  0  0  0
   58.5370   29.3220   46.9640 C   0  0  0  0  0  0  0  0  0  0  0  0
   59.2640   30.0080   47.9420 C   0  0  0  0  0  0  0  0  0  0  0  0
   60.5750   30.4290   47.6820 C   0  0  0  0  0  0  0  0  0  0  0  0
   61.4960   31.3090   48.8980 S   0  0  0  0  0  0  0  0  0  0  0  0
   60.8020   32.6030   49.2240 O   0  0  0  0  0  0  0  0  0  0  0  0
   61.5610   30.4710   50.1450 O   0  0  0  0  0  0  0  0  0  0  0  0
   63.1090   31.6120   48.2870 N   0  0  0  0  0  0  0  0  0  0  0  0
   63.0970   32.5350   47.1290 C   0  0  0  0  0  0  0  0  0  0  0  0
   63.4600   33.9810   47.5150 C   0  0  0  0  0  0  0  0  0  0  0  0
   63.0000   34.2690   48.8150 O   0  0  0  0  0  0  0  0  0  0  0  0
   63.7410   33.5340   49.7730 C   0  0  0  0  0  0  0  0  0  0  0  0
   64.0170   32.0680   49.3550 C   0  0  0  0  0  0  0  0  0  0  0  0
   61.1510   30.1650   46.4320 C   0  0  0  0  0  0  0  0  0  0  0  0
   60.4260   29.4770   45.4550 C   0  0  0  0  0  0  0  0  0  0  0  0
   57.8900   30.8770   43.6170 N   0  0  0  0  0  0  0  0  0  0  0  0
   57.7740   32.3290   43.5140 C   0  0  0  0  0  0  0  0  0  0  0  0
   58.2230   32.9750   44.7970 C   0  0  0  0  0  0  0  0  0  0  0  0
   57.7080   32.5460   46.0340 C   0  0  0  0  0  0  0  0  0  0  0  0
   58.1570   33.1300   47.2230 C   0  0  0  0  0  0  0  0  0  0  0  0
   59.1230   34.1390   47.1880 C   0  0  0  0  0  0  0  0  0  0  0  0
   59.6430   34.5670   45.9620 C   0  0  0  0  0  0  0  0  0  0  0  0
   59.1990   33.9850   44.7700 C   0  0  0  0  0  0  0  0  0  0  0  0
   56.4184   28.2187   45.1525 H   0  0  0  0  0  0  0  0  0  0  0  0
   56.8355   28.0629   43.4132 H   0  0  0  0  0  0  0  0  0  0  0  0
   57.5080   28.9952   47.1745 H   0  0  0  0  0  0  0  0  0  0  0  0
   58.8049   30.2180   48.9193 H   0  0  0  0  0  0  0  0  0  0  0  0
   63.8246   32.1763   46.3860 H   0  0  0  0  0  0  0  0  0  0  0  0
   62.0738   32.5468   46.7253 H   0  0  0  0  0  0  0  0  0  0  0  0
   64.5528   34.1024   47.4813 H   0  0  0  0  0  0  0  0  0  0  0  0
   62.9826   34.6721   46.8047 H   0  0  0  0  0  0  0  0  0  0  0  0
   64.7061   34.0387   49.9275 H   0  0  0  0  0  0  0  0  0  0  0  0
   63.1348   33.4983   50.6902 H   0  0  0  0  0  0  0  0  0  0  0  0
   65.0536   31.9917   48.9949 H   0  0  0  0  0  0  0  0  0  0  0  0
   63.8502   31.4293   50.2349 H   0  0  0  0  0  0  0  0  0  0  0  0
   62.1768   30.5003   46.2191 H   0  0  0  0  0  0  0  0  0  0  0  0
   60.8869   29.2709   44.4777 H   0  0  0  0  0  0  0  0  0  0  0  0
   58.7780   30.4230   43.3010 H   0  0  0  0  0  0  0  0  0  0  0  0
   58.4041   32.6867   42.6864 H   0  0  0  0  0  0  0  0  0  0  0  0
   56.7232   32.5942   43.3254 H   0  0  0  0  0  0  0  0  0  0  0  0
   56.9503   31.7492   46.0662 H   0  0  0  0  0  0  0  0  0  0  0  0
   57.7488   32.7943   48.1877 H   0  0  0  0  0  0  0  0  0  0  0  0
   59.4745   34.5967   48.1245 H   0  0  0  0  0  0  0  0  0  0  0  0
   60.4023   35.3625   45.9352 H   0  0  0  0  0  0  0  0  0  0  0  0
   59.6155   34.3193   43.8083 H   0  0  0  0  0  0  0  0  0  0  0  0
  1  2  2  0
  2  3  1  0
  3  4  1  0
  4  5  1  0
  5  6  2  0
  6  7  1  0
  7  8  2  0
  8  9  1  0
  9 10  2  0
  9 11  2  0
  9 12  1  0
 12 13  1  0
 13 14  1  0
 14 15  1  0
 15 16  1  0
 16 17  1  0
  8 18  1  0
 18 19  2  0
  2 20  1  0
 20 21  1  0
 21 22  1  0
 22 23  2  0
 23 24  1  0
 24 25  2  0
 25 26  1  0
 26 27  2  0
 19  5  1  0
 27 22  1  0
 17 12  1  0
  3 28  1  0
  3 29  1  0
  6 30  1  0
  7 31  1  0
 13 32  1  0
 13 33  1  0
 14 34  1  0
 14 35  1  0
 16 36  1  0
 16 37  1  0
 17 38  1  0
 17 39  1  0
 18 40  1  0
 19 41  1  0
 20 42  1  0
 21 43  1  0
 21 44  1  0
 23 45  1  0
 24 46  1  0
 25 47  1  0
 26 48  1  0
 27 49  1  0
M  END
>  <UniqueID>  (77) 
71

>  <SMILES>  (77) 
O=C(COc1ccc(S(=O)(=O)N2CCOCC2)cc1)NCc1ccccc1

>  <Energy>  (77) 
56.765076955684684

>  <Genealogy>  (77) 
O=C(COc1ccc(S(=O)(=O)N2CCOCC2)cc1)NCc1ccccc1 (3D coordinates assigned)
O=C(COc1ccc(S(=O)(=O)N2CCOCC2)cc1)NCc1ccccc1 (nonaromatic ring conformer: 56.765076955684684 kcal/mol)

>  <smiles>  (77) 
O=C(COc1ccc(S(=O)(=O)N2CCOCC2)cc1)NCc1ccccc1

>  <score_type>  (77) 
oracle

>  <origin>  (77) 
adg

>  <m_score__min__energy>  (77) 
-8.2300000000000004

>  <m_primary>  (77) 
energy

$$$$
77:0
     RDKit          3D

 23 24  0  0  0  0  0  0  0  0999 V2000
   59.3370   28.2840   46.7330 C   0  0  0  0  0  0  0  0  0  0  0  0
   58.2680   27.2330   46.6660 C   0  0  0  0  0  0  0  0  0  0  0  0
   58.4640   26.0760   47.3540 N   0  0  0  0  0  0  0  0  0  0  0  0
   57.5530   25.1020   47.3820 N   0  0  0  0  0  0  0  0  0  0  0  0
   56.3710   25.2270   46.7250 C   0  0  0  0  0  0  0  0  0  0  0  0
   55.5180   24.3010   46.7730 O   0  0  0  0  0  0  0  0  0  0  0  0
   56.1090   26.3840   45.9960 C   0  0  0  0  0  0  0  0  0  0  0  0
   57.0680   27.4010   45.9350 C   0  0  0  0  0  0  0  0  0  0  0  0
   56.7700   28.6090   45.1300 C   0  0  0  0  0  0  0  0  0  0  0  0
   57.6980   29.4020   44.4730 C   0  0  0  0  0  0  0  0  0  0  0  0
   56.9560   30.3560   43.8150 C   0  0  0  0  0  0  0  0  0  0  0  0
   57.4670   31.4000   42.9820 N   0  0  0  0  0  0  0  0  0  0  0  0
   58.2800   32.2310   43.4380 O   0  0  0  0  0  0  0  0  0  0  0  0
   57.0640   31.5000   41.6710 O   0  0  0  0  0  0  0  0  0  0  0  0
   55.6260   30.1060   44.0790 C   0  0  0  0  0  0  0  0  0  0  0  0
   55.5090   29.0280   44.8780 N   0  0  0  0  0  0  0  0  0  0  0  0
   59.5652   28.5083   47.7854 H   0  0  0  0  0  0  0  0  0  0  0  0
   60.2444   27.9166   46.2313 H   0  0  0  0  0  0  0  0  0  0  0  0
   58.9850   29.1975   46.2313 H   0  0  0  0  0  0  0  0  0  0  0  0
   57.7570   24.2340   47.9260 H   0  0  0  0  0  0  0  0  0  0  0  0
   55.1501   26.4983   45.4692 H   0  0  0  0  0  0  0  0  0  0  0  0
   58.7925   29.2922   44.4768 H   0  0  0  0  0  0  0  0  0  0  0  0
   54.7840   30.6998   43.6936 H   0  0  0  0  0  0  0  0  0  0  0  0
  1  2  1  0
  2  3  2  0
  3  4  1  0
  4  5  1  0
  5  6  2  0
  5  7  1  0
  7  8  2  0
  8  9  1  0
  9 10  2  0
 10 11  1  0
 11 12  1  0
 12 13  2  0
 12 14  1  0
 11 15  2  0
 15 16  1  0
  8  2  1  0
 16  9  1  0
  1 17  1  0
  1 18  1  0
  1 19  1  0
  4 20  1  0
  7 21  1  0
 10 22  1  0
 15 23  1  0
M  CHG  3  12   1  14  -1  16  -1
M  END
>  <UniqueID>  (78) 
72

>  <SMILES>  (78) 
Cc1n[nH]c(=O)cc1-c1cc([N+](=O)[O-])c[n-]1

>  <Energy>  (78) 
54.70866229000643

>  <Genealogy>  (78) 
Cc1n[nH]c(=O)cc1-c1cc([N+](=O)[O-])c[n-]1 (protonated)
Cc1n[nH]c(=O)cc1-c1cc([N+](=O)[O-])c[n-]1 (3D coordinates assigned)
Cc1n[nH]c(=O)cc1-c1cc([N+](=O)[O-])c[n-]1 (optimized conformer: 54.70866229000643 kcal/mol)

>  <smiles>  (78) 
Cc1n[nH]c(=O)cc1-c1cc([N+](=O)[O-])c[nH]1

>  <score_type>  (78) 
oracle

>  <origin>  (78) 
adg

>  <m_score__min__energy>  (78) 
-7.8399999999999999

>  <m_primary>  (78) 
energy

$$$$
78:0
     RDKit          3D

102108  0  0  0  0  0  0  0  0999 V2000
   55.0150   22.8620   53.6720 C   0  0  0  0  0  0  0  0  0  0  0  0
   55.8310   22.1980   52.6460 N   0  0  0  0  0  0  0  0  0  0  0  0
   55.1240   21.0920   51.9620 C   0  0  0  0  0  0  0  0  0  0  0  0
   55.8550   20.7240   50.6600 C   0  0  0  0  0  0  0  0  0  0  0  0
   55.7190   21.8260   49.6420 C   0  0  0  0  0  0  0  0  0  0  0  0
   56.8450   22.5790   49.2860 C   0  0  0  0  0  0  0  0  0  0  0  0
   56.7890   23.4610   48.2090 C   0  0  0  0  0  0  0  0  0  0  0  0
   55.6130   23.5940   47.4580 C   0  0  0  0  0  0  0  0  0  0  0  0
   55.5920   24.4060   46.2770 N   0  0  0  0  0  0  0  0  0  0  0  0
   56.1080   25.7450   46.2510 C   0  0  0  0  0  0  0  0  0  0  0  0
   55.3080   26.7160   46.2460 O   0  0  0  0  0  0  0  0  0  0  0  0
   57.5630   25.9920   46.2140 C   0  0  0  0  0  0  0  0  0  0  0  0
   58.4410   24.9150   46.0180 C   0  0  0  0  0  0  0  0  0  0  0  0
   59.8230   25.1160   46.0540 C   0  0  0  0  0  0  0  0  0  0  0  0
   60.3400   26.3860   46.3280 C   0  0  0  0  0  0  0  0  0  0  0  0
   59.4740   27.4680   46.5380 C   0  0  0  0  0  0  0  0  0  0  0  0
   60.0150   28.7620   46.8160 N   0  0  0  0  0  0  0  0  0  0  0  0
   59.6690   29.4600   48.0230 C   0  0  0  0  0  0  0  0  0  0  0  0
   58.8870   30.6220   47.9380 C   0  0  0  0  0  0  0  0  0  0  0  0
   58.5240   31.3250   49.0880 C   0  0  0  0  0  0  0  0  0  0  0  0
   58.9550   30.8920   50.3480 C   0  0  0  0  0  0  0  0  0  0  0  0
   58.5140   31.6060   51.5080 N   0  0  0  0  0  0  0  0  0  0  0  0
   59.0760   32.8600   51.9130 C   0  0  0  0  0  0  0  0  0  0  0  0
   58.4670   33.9290   51.6250 O   0  0  0  0  0  0  0  0  0  0  0  0
   60.3910   32.9290   52.5760 C   0  0  0  0  0  0  0  0  0  0  0  0
   60.4650   33.0320   53.9740 C   0  0  0  0  0  0  0  0  0  0  0  0
   61.6960   32.9650   54.6250 C   0  0  0  0  0  0  0  0  0  0  0  0
   62.8670   32.8070   53.8840 C   0  0  0  0  0  0  0  0  0  0  0  0
   62.8190   32.7550   52.4860 C   0  0  0  0  0  0  0  0  0  0  0  0
   64.0320   32.6810   51.7900 O   0  0  0  0  0  0  0  0  0  0  0  0
   64.3500   33.4160   50.6100 C   0  0  0  0  0  0  0  0  0  0  0  0
   64.4400   32.4560   49.4270 C   0  0  0  0  0  0  0  0  0  0  0  0
   63.1450   31.8140   49.2180 N   0  0  0  0  0  0  0  0  0  0  0  0
   62.6230   32.0010   47.5700 S   0  0  0  0  0  0  0  0  0  0  0  0
   63.7470   32.5030   46.6960 O   0  0  0  0  0  0  0  0  0  0  0  0
   62.1470   30.6810   47.0280 O   0  0  0  0  0  0  0  0  0  0  0  0
   61.3020   33.1660   47.5360 C   0  0  0  0  0  0  0  0  0  0  0  0
   60.7650   33.6460   48.7430 C   0  0  0  0  0  0  0  0  0  0  0  0
   59.6910   34.5400   48.7270 C   0  0  0  0  0  0  0  0  0  0  0  0
   59.1370   34.9560   47.5100 C   0  0  0  0  0  0  0  0  0  0  0  0
   59.6600   34.4700   46.3060 C   0  0  0  0  0  0  0  0  0  0  0  0
   60.7400   33.5780   46.3150 C   0  0  0  0  0  0  0  0  0  0  0  0
   61.5750   32.7910   51.8320 C   0  0  0  0  0  0  0  0  0  0  0  0
   59.6940   29.6940   50.4590 C   0  0  0  0  0  0  0  0  0  0  0  0
   60.0410   29.1520   51.7070 C   0  0  0  0  0  0  0  0  0  0  0  0
   60.6980   27.9200   51.7810 C   0  0  0  0  0  0  0  0  0  0  0  0
   60.9860   27.2270   50.6090 C   0  0  0  0  0  0  0  0  0  0  0  0
   60.6670   27.7660   49.4040 N   0  0  0  0  0  0  0  0  0  0  0  0
   60.0430   28.9710   49.2900 C   0  0  0  0  0  0  0  0  0  0  0  0
   58.0850   27.2790   46.4450 C   0  0  0  0  0  0  0  0  0  0  0  0
   54.4680   22.8910   47.8440 C   0  0  0  0  0  0  0  0  0  0  0  0
   54.5190   22.0130   48.9340 C   0  0  0  0  0  0  0  0  0  0  0  0
   57.1900   21.8510   53.1100 C   0  0  0  0  0  0  0  0  0  0  0  0
   58.3080   22.7550   52.5300 C   0  0  0  0  0  0  0  0  0  0  0  0
   59.4830   21.9790   51.9820 C   0  0  0  0  0  0  0  0  0  0  0  0
   60.7990   22.3450   52.3180 C   0  0  0  0  0  0  0  0  0  0  0  0
   61.8800   21.6540   51.7720 C   0  0  0  0  0  0  0  0  0  0  0  0
   61.6400   20.6120   50.8720 C   0  0  0  0  0  0  0  0  0  0  0  0
   60.3630   20.2810   50.5370 N   0  0  0  0  0  0  0  0  0  0  0  0
   59.2890   20.9260   51.0720 C   0  0  0  0  0  0  0  0  0  0  0  0
   55.3730   22.5707   54.6705 H   0  0  0  0  0  0  0  0  0  0  0  0
   55.0974   23.9528   53.5568 H   0  0  0  0  0  0  0  0  0  0  0  0
   53.9637   22.5595   53.5568 H   0  0  0  0  0  0  0  0  0  0  0  0
   55.0952   20.2139   52.6239 H   0  0  0  0  0  0  0  0  0  0  0  0
   54.0996   21.4129   51.7219 H   0  0  0  0  0  0  0  0  0  0  0  0
   56.9212   20.5634   50.8777 H   0  0  0  0  0  0  0  0  0  0  0  0
   55.4063   19.8071   50.2501 H   0  0  0  0  0  0  0  0  0  0  0  0
   57.7778   22.4735   49.8594 H   0  0  0  0  0  0  0  0  0  0  0  0
   57.6748   24.0578   47.9459 H   0  0  0  0  0  0  0  0  0  0  0  0
   58.0391   23.9075   45.8351 H   0  0  0  0  0  0  0  0  0  0  0  0
   60.5055   24.2739   45.8665 H   0  0  0  0  0  0  0  0  0  0  0  0
   61.4285   26.5363   46.3788 H   0  0  0  0  0  0  0  0  0  0  0  0
   60.9390   28.9870   46.3730 H   0  0  0  0  0  0  0  0  0  0  0  0
   58.5560   30.9833   46.9532 H   0  0  0  0  0  0  0  0  0  0  0  0
   57.8959   32.2241   49.0040 H   0  0  0  0  0  0  0  0  0  0  0  0
   59.5443   33.1667   54.5606 H   0  0  0  0  0  0  0  0  0  0  0  0
   61.7437   33.0367   55.7216 H   0  0  0  0  0  0  0  0  0  0  0  0
   63.8341   32.7227   54.4013 H   0  0  0  0  0  0  0  0  0  0  0  0
   63.5646   34.1621   50.4189 H   0  0  0  0  0  0  0  0  0  0  0  0
   65.3144   33.9280   50.7434 H   0  0  0  0  0  0  0  0  0  0  0  0
   64.7218   33.0149   48.5225 H   0  0  0  0  0  0  0  0  0  0  0  0
   65.1991   31.6880   49.6365 H   0  0  0  0  0  0  0  0  0  0  0  0
   61.1911   33.3172   49.7024 H   0  0  0  0  0  0  0  0  0  0  0  0
   59.2791   34.9185   49.6742 H   0  0  0  0  0  0  0  0  0  0  0  0
   58.2937   35.6623   47.5002 H   0  0  0  0  0  0  0  0  0  0  0  0
   59.2213   34.7897   45.3493 H   0  0  0  0  0  0  0  0  0  0  0  0
   61.1485   33.1997   45.3663 H   0  0  0  0  0  0  0  0  0  0  0  0
   61.5285   32.7110   50.7359 H   0  0  0  0  0  0  0  0  0  0  0  0
   59.7951   29.6984   52.6295 H   0  0  0  0  0  0  0  0  0  0  0  0
   60.9848   27.5021   52.7573 H   0  0  0  0  0  0  0  0  0  0  0  0
   61.4725   26.2417   50.6587 H   0  0  0  0  0  0  0  0  0  0  0  0
   57.4050   28.1369   46.5527 H   0  0  0  0  0  0  0  0  0  0  0  0
   53.5267   23.0275   47.2915 H   0  0  0  0  0  0  0  0  0  0  0  0
   53.6142   21.4662   49.2380 H   0  0  0  0  0  0  0  0  0  0  0  0
   57.2123   21.9348   54.2066 H   0  0  0  0  0  0  0  0  0  0  0  0
   57.3939   20.8292   52.7573 H   0  0  0  0  0  0  0  0  0  0  0  0
   57.8804   23.3605   51.7173 H   0  0  0  0  0  0  0  0  0  0  0  0
   58.6854   23.3754   53.3562 H   0  0  0  0  0  0  0  0  0  0  0  0
   60.9758   23.1787   53.0135 H   0  0  0  0  0  0  0  0  0  0  0  0
   62.9099   21.9259   52.0465 H   0  0  0  0  0  0  0  0  0  0  0  0
   62.4839   20.0589   50.4340 H   0  0  0  0  0  0  0  0  0  0  0  0
   58.2696   20.6224   50.7916 H   0  0  0  0  0  0  0  0  0  0  0  0
  1  2  1  0
  2  3  1  0
  3  4  1  0
  4  5  1  0
  5  6  2  0
  6  7  1  0
  7  8  2  0
  8  9  1  0
  9 10  1  0
 10 11  2  0
 10 12  1  0
 12 13  2  0
 13 14  1  0
 14 15  2  0
 15 16  1  0
 16 17  1  0
 17 18  1  0
 18 19  2  0
 19 20  1  0
 20 21  2  0
 21 22  1  0
 22 23  1  0
 23 24  2  0
 23 25  1  0
 25 26  2  0
 26 27  1  0
 27 28  2  0
 28 29  1  0
 29 30  1  0
 30 31  1  0
 31 32  1  0
 32 33  1  0
 33 34  1  0
 34 35  2  0
 34 36  2  0
 34 37  1  0
 37 38  2  0
 38 39  1  0
 39 40  2  0
 40 41  1  0
 41 42  2  0
 29 43  2  0
 21 44  1  0
 44 45  2  0
 45 46  1  0
 46 47  2  0
 47 48  1  0
 48 49  2  0
 16 50  2  0
  8 51  1  0
 51 52  2  0
  2 53  1  0
 53 54  1  0
 54 55  1  0
 55 56  2  0
 56 57  1  0
 57 58  2  0
 58 59  1  0
 59 60  2  0
 52  5  1  0
 60 55  1  0
 50 12  1  0
 49 18  1  0
 43 25  1  0
 49 44  1  0
 42 37  1  0
  1 61  1  0
  1 62  1  0
  1 63  1  0
  3 64  1  0
  3 65  1  0
  4 66  1  0
  4 67  1  0
  6 68  1  0
  7 69  1  0
 13 70  1  0
 14 71  1  0
 15 72  1  0
 17 73  1  0
 19 74  1  0
 20 75  1  0
 26 76  1  0
 27 77  1  0
 28 78  1  0
 31 79  1  0
 31 80  1  0
 32 81  1  0
 32 82  1  0
 38 83  1  0
 39 84  1  0
 40 85  1  0
 41 86  1  0
 42 87  1  0
 43 88  1  0
 45 89  1  0
 46 90  1  0
 47 91  1  0
 50 92  1  0
 51 93  1  0
 52 94  1  0
 53 95  1  0
 53 96  1  0
 54 97  1  0
 54 98  1  0
 56 99  1  0
 57100  1  0
 58101  1  0
 60102  1  0
M  CHG  3   9  -1  22  -1  33  -1
M  END
>  <UniqueID>  (79) 
73

>  <SMILES>  (79) 
CN(CCc1ccc([N-]C(=O)c2cccc(Nc3ccc([N-]C(=O)c4cccc(OCC[N-]S(=O)(=O)c5ccccc5)c4)c4cccnc34)c2)cc1)CCc1cccnc1

>  <Energy>  (79) 
137.3335213024611

>  <Genealogy>  (79) 
CN(CCc1ccc([N-]C(=O)c2cccc(Nc3ccc([N-]C(=O)c4cccc(OCC[N-]S(=O)(=O)c5ccccc5)c4)c4cccnc34)c2)cc1)CCc1cccnc1 (protonated)
CN(CCc1ccc([N-]C(=O)c2cccc(Nc3ccc([N-]C(=O)c4cccc(OCC[N-]S(=O)(=O)c5ccccc5)c4)c4cccnc34)c2)cc1)CCc1cccnc1 (3D coordinates assigned)
CN(CCc1ccc([N-]C(=O)c2cccc(Nc3ccc([N-]C(=O)c4cccc(OCC[N-]S(=O)(=O)c5ccccc5)c4)c4cccnc34)c2)cc1)CCc1cccnc1 (optimized conformer: 137.3335213024611 kcal/mol)

>  <smiles>  (79) 
CN(CCc1ccc(NC(=O)c2cccc(Nc3ccc(NC(=O)c4cccc(OCCNS(=O)(=O)c5ccccc5)c4)c4cccnc34)c2)cc1)CCc1cccnc1

>  <score_type>  (79) 
oracle

>  <origin>  (79) 
adg

>  <m_score__min__energy>  (79) 
-14.539999999999999

>  <m_primary>  (79) 
energy

$$$$
79:0
     RDKit          3D

 45 48  0  0  0  0  0  0  0  0999 V2000
   55.3850   29.8910   43.8860 O   0  0  0  0  0  0  0  0  0  0  0  0
   56.3290   29.3550   44.5250 C   0  0  0  0  0  0  0  0  0  0  0  0
   56.0720   28.2380   45.3200 O   0  0  0  0  0  0  0  0  0  0  0  0
   57.0060   27.7880   46.2970 C   0  0  0  0  0  0  0  0  0  0  0  0
   58.4260   27.9760   45.8290 C   0  0  0  0  0  0  0  0  0  0  0  0
   59.4460   27.1660   46.3520 C   0  0  0  0  0  0  0  0  0  0  0  0
   60.7710   27.3710   45.9680 C   0  0  0  0  0  0  0  0  0  0  0  0
   61.0900   28.3880   45.0690 C   0  0  0  0  0  0  0  0  0  0  0  0
   60.0860   29.2140   44.5560 C   0  0  0  0  0  0  0  0  0  0  0  0
   58.7410   29.0310   44.9430 C   0  0  0  0  0  0  0  0  0  0  0  0
   57.6730   29.8570   44.4170 N   0  0  0  0  0  0  0  0  0  0  0  0
   57.9040   31.1760   43.8050 C   0  0  0  0  0  0  0  0  0  0  0  0
   58.0590   32.2600   44.8470 C   0  0  0  0  0  0  0  0  0  0  0  0
   58.3230   33.5920   44.4830 C   0  0  0  0  0  0  0  0  0  0  0  0
   58.4940   34.5700   45.4640 C   0  0  0  0  0  0  0  0  0  0  0  0
   58.4200   34.2320   46.8160 C   0  0  0  0  0  0  0  0  0  0  0  0
   58.1790   32.8990   47.2000 C   0  0  0  0  0  0  0  0  0  0  0  0
   58.1070   32.4990   48.5440 O   0  0  0  0  0  0  0  0  0  0  0  0
   59.2280   32.2050   49.3800 C   0  0  0  0  0  0  0  0  0  0  0  0
   60.5180   32.3670   48.6210 C   0  0  0  0  0  0  0  0  0  0  0  0
   61.1580   33.6170   48.5780 C   0  0  0  0  0  0  0  0  0  0  0  0
   62.3500   33.7740   47.8660 C   0  0  0  0  0  0  0  0  0  0  0  0
   62.9060   32.6890   47.1830 C   0  0  0  0  0  0  0  0  0  0  0  0
   62.2700   31.4460   47.2090 C   0  0  0  0  0  0  0  0  0  0  0  0
   61.0770   31.2840   47.9210 C   0  0  0  0  0  0  0  0  0  0  0  0
   58.0020   31.9250   46.2110 C   0  0  0  0  0  0  0  0  0  0  0  0
   56.8565   28.3596   47.2248 H   0  0  0  0  0  0  0  0  0  0  0  0
   56.8375   26.7145   46.4679 H   0  0  0  0  0  0  0  0  0  0  0  0
   59.1996   26.3671   47.0669 H   0  0  0  0  0  0  0  0  0  0  0  0
   61.5660   26.7291   46.3752 H   0  0  0  0  0  0  0  0  0  0  0  0
   62.1353   28.5407   44.7625 H   0  0  0  0  0  0  0  0  0  0  0  0
   60.3459   30.0125   43.8455 H   0  0  0  0  0  0  0  0  0  0  0  0
   58.8208   31.1314   43.1988 H   0  0  0  0  0  0  0  0  0  0  0  0
   57.0302   31.4220   43.1837 H   0  0  0  0  0  0  0  0  0  0  0  0
   58.3952   33.8648   43.4198 H   0  0  0  0  0  0  0  0  0  0  0  0
   58.6880   35.6121   45.1701 H   0  0  0  0  0  0  0  0  0  0  0  0
   58.5503   35.0090   47.5836 H   0  0  0  0  0  0  0  0  0  0  0  0
   59.2267   32.8914   50.2396 H   0  0  0  0  0  0  0  0  0  0  0  0
   59.1488   31.1626   49.7223 H   0  0  0  0  0  0  0  0  0  0  0  0
   60.7189   34.4756   49.1070 H   0  0  0  0  0  0  0  0  0  0  0  0
   62.8513   34.7528   47.8431 H   0  0  0  0  0  0  0  0  0  0  0  0
   63.8453   32.8141   46.6245 H   0  0  0  0  0  0  0  0  0  0  0  0
   62.7077   30.5935   46.6690 H   0  0  0  0  0  0  0  0  0  0  0  0
   60.5745   30.3055   47.9331 H   0  0  0  0  0  0  0  0  0  0  0  0
   57.8155   30.8816   46.5053 H   0  0  0  0  0  0  0  0  0  0  0  0
  1  2  2  0
  2  3  1  0
  3  4  1  0
  4  5  1  0
  5  6  2  0
  6  7  1  0
  7  8  2  0
  8  9  1  0
  9 10  2  0
 10 11  1  0
 11 12  1  0
 12 13  1  0
 13 14  2  0
 14 15  1  0
 15 16  2  0
 16 17  1  0
 17 18  1  0
 18 19  1  0
 19 20  1  0
 20 21  2  0
 21 22  1  0
 22 23  2  0
 23 24  1  0
 24 25  2  0
 17 26  2  0
 11  2  1  0
 26 13  1  0
 10  5  1  0
 25 20  1  0
  4 27  1  0
  4 28  1  0
  6 29  1  0
  7 30  1  0
  8 31  1  0
  9 32  1  0
 12 33  1  0
 12 34  1  0
 14 35  1  0
 15 36  1  0
 16 37  1  0
 19 38  1  0
 19 39  1  0
 21 40  1  0
 22 41  1  0
 23 42  1  0
 24 43  1  0
 25 44  1  0
 26 45  1  0
M  END
>  <UniqueID>  (80) 
74

>  <SMILES>  (80) 
O=C1OCc2ccccc2N1Cc1cccc(OCc2ccccc2)c1

>  <Energy>  (80) 
54.43636800835217

>  <Genealogy>  (80) 
O=C1OCc2ccccc2N1Cc1cccc(OCc2ccccc2)c1 (3D coordinates assigned)
O=C1OCc2ccccc2N1Cc1cccc(OCc2ccccc2)c1 (nonaromatic ring conformer: 54.43636800835217 kcal/mol)

>  <smiles>  (80) 
O=C1OCc2ccccc2N1Cc1cccc(OCc2ccccc2)c1

>  <score_type>  (80) 
oracle

>  <origin>  (80) 
adg

>  <m_score__min__energy>  (80) 
-8.5399999999999991

>  <m_primary>  (80) 
energy

$$$$
80:0
     RDKit          3D

 65 68  0  0  0  0  0  0  0  0999 V2000
   56.5370   24.1190   47.7140 C   0  0  0  0  0  0  0  0  0  0  0  0
   55.9030   24.9300   46.7320 O   0  0  0  0  0  0  0  0  0  0  0  0
   56.5810   25.7430   45.8110 C   0  0  0  0  0  0  0  0  0  0  0  0
   56.7230   27.1310   46.0000 C   0  0  0  0  0  0  0  0  0  0  0  0
   57.3970   27.9200   45.0550 C   0  0  0  0  0  0  0  0  0  0  0  0
   57.5420   29.3800   45.2720 C   0  0  0  0  0  0  0  0  0  0  0  0
   56.5340   30.1270   45.1430 O   0  0  0  0  0  0  0  0  0  0  0  0
   58.8150   29.9550   45.6110 N   0  0  0  0  0  0  0  0  0  0  0  0
   58.9470   31.3620   46.0010 C   0  0  0  0  0  0  0  0  0  0  0  0
   58.4880   32.2800   44.8510 C   0  0  0  0  0  0  0  0  0  0  0  0
   57.8610   33.6100   45.3250 C   0  0  0  0  0  0  0  0  0  0  0  0
   58.3780   34.0780   46.6290 N   0  0  0  0  0  0  0  0  0  0  0  0
   59.5270   35.0100   46.5780 C   0  0  0  0  0  0  0  0  0  0  0  0
   60.7800   34.4570   47.2170 C   0  0  0  0  0  0  0  0  0  0  0  0
   60.9830   34.5560   48.6040 C   0  0  0  0  0  0  0  0  0  0  0  0
   62.1360   34.0230   49.1890 C   0  0  0  0  0  0  0  0  0  0  0  0
   63.1020   33.4030   48.3930 C   0  0  0  0  0  0  0  0  0  0  0  0
   62.9240   33.3260   47.0100 C   0  0  0  0  0  0  0  0  0  0  0  0
   61.7720   33.8580   46.4220 C   0  0  0  0  0  0  0  0  0  0  0  0
   58.3910   33.0930   47.7350 C   0  0  0  0  0  0  0  0  0  0  0  0
   58.1420   31.6490   47.2720 C   0  0  0  0  0  0  0  0  0  0  0  0
   57.9460   27.3030   43.9210 C   0  0  0  0  0  0  0  0  0  0  0  0
   57.8140   25.9280   43.7290 C   0  0  0  0  0  0  0  0  0  0  0  0
   57.1330   25.1380   44.6720 C   0  0  0  0  0  0  0  0  0  0  0  0
   56.9810   23.7490   44.5160 O   0  0  0  0  0  0  0  0  0  0  0  0
   55.9450   23.1090   43.7700 C   0  0  0  0  0  0  0  0  0  0  0  0
   54.6760   23.0420   44.5760 C   0  0  0  0  0  0  0  0  0  0  0  0
   54.6190   22.2940   45.7620 C   0  0  0  0  0  0  0  0  0  0  0  0
   53.4370   22.2440   46.5070 C   0  0  0  0  0  0  0  0  0  0  0  0
   52.2920   22.9220   46.0650 C   0  0  0  0  0  0  0  0  0  0  0  0
   51.0370   22.9010   46.8860 C   0  0  0  0  0  0  0  0  0  0  0  0
   52.3510   23.6770   44.8840 C   0  0  0  0  0  0  0  0  0  0  0  0
   53.5320   23.7300   44.1410 C   0  0  0  0  0  0  0  0  0  0  0  0
   56.2595   24.4740   48.7175 H   0  0  0  0  0  0  0  0  0  0  0  0
   56.2133   23.0748   47.5919 H   0  0  0  0  0  0  0  0  0  0  0  0
   57.6284   24.1811   47.5919 H   0  0  0  0  0  0  0  0  0  0  0  0
   56.3005   27.6028   46.8994 H   0  0  0  0  0  0  0  0  0  0  0  0
   59.6770   29.3700   45.5200 H   0  0  0  0  0  0  0  0  0  0  0  0
   60.0068   31.5671   46.2125 H   0  0  0  0  0  0  0  0  0  0  0  0
   59.3612   32.5127   44.2238 H   0  0  0  0  0  0  0  0  0  0  0  0
   57.7061   31.7362   44.3006 H   0  0  0  0  0  0  0  0  0  0  0  0
   58.0717   34.3820   44.5703 H   0  0  0  0  0  0  0  0  0  0  0  0
   56.7831   33.4308   45.4515 H   0  0  0  0  0  0  0  0  0  0  0  0
   59.7447   35.2371   45.5239 H   0  0  0  0  0  0  0  0  0  0  0  0
   59.2419   35.9069   47.1475 H   0  0  0  0  0  0  0  0  0  0  0  0
   60.2311   35.0553   49.2328 H   0  0  0  0  0  0  0  0  0  0  0  0
   62.2823   34.0921   50.2770 H   0  0  0  0  0  0  0  0  0  0  0  0
   64.0035   32.9751   48.8558 H   0  0  0  0  0  0  0  0  0  0  0  0
   63.6902   32.8467   46.3829 H   0  0  0  0  0  0  0  0  0  0  0  0
   61.6416   33.8073   45.3309 H   0  0  0  0  0  0  0  0  0  0  0  0
   59.3733   33.1361   48.2282 H   0  0  0  0  0  0  0  0  0  0  0  0
   57.5701   33.3606   48.4166 H   0  0  0  0  0  0  0  0  0  0  0  0
   58.4527   30.9531   48.0652 H   0  0  0  0  0  0  0  0  0  0  0  0
   57.0709   31.5169   47.0594 H   0  0  0  0  0  0  0  0  0  0  0  0
   58.4849   27.9085   43.1774 H   0  0  0  0  0  0  0  0  0  0  0  0
   58.2459   25.4580   42.8331 H   0  0  0  0  0  0  0  0  0  0  0  0
   55.7581   23.6794   42.8482 H   0  0  0  0  0  0  0  0  0  0  0  0
   56.2645   22.0851   43.5258 H   0  0  0  0  0  0  0  0  0  0  0  0
   55.5076   21.7450   46.1068 H   0  0  0  0  0  0  0  0  0  0  0  0
   53.4051   21.6698   47.4447 H   0  0  0  0  0  0  0  0  0  0  0  0
   51.2978   22.9054   47.9546 H   0  0  0  0  0  0  0  0  0  0  0  0
   50.4313   23.7891   46.6528 H   0  0  0  0  0  0  0  0  0  0  0  0
   50.4614   21.9931   46.6528 H   0  0  0  0  0  0  0  0  0  0  0  0
   51.4634   24.2294   44.5420 H   0  0  0  0  0  0  0  0  0  0  0  0
   53.5663   24.3141   43.2095 H   0  0  0  0  0  0  0  0  0  0  0  0
  1  2  1  0
  2  3  1  0
  3  4  2  0
  4  5  1  0
  5  6  1  0
  6  7  2  0
  6  8  1  0
  8  9  1  0
  9 10  1  0
 10 11  1  0
 11 12  1  0
 12 13  1  0
 13 14  1  0
 14 15  2  0
 15 16  1  0
 16 17  2  0
 17 18  1  0
 18 19  2  0
 12 20  1  0
 20 21  1  0
  5 22  2  0
 22 23  1  0
 23 24  2  0
 24 25  1  0
 25 26  1  0
 26 27  1  0
 27 28  2  0
 28 29  1  0
 29 30  2  0
 30 31  1  0
 30 32  1  0
 32 33  2  0
 24  3  1  0
 33 27  1  0
 21  9  1  0
 19 14  1  0
  1 34  1  0
  1 35  1  0
  1 36  1  0
  4 37  1  0
  8 38  1  0
  9 39  1  0
 10 40  1  0
 10 41  1  0
 11 42  1  0
 11 43  1  0
 13 44  1  0
 13 45  1  0
 15 46  1  0
 16 47  1  0
 17 48  1  0
 18 49  1  0
 19 50  1  0
 20 51  1  0
 20 52  1  0
 21 53  1  0
 21 54  1  0
 22 55  1  0
 23 56  1  0
 26 57  1  0
 26 58  1  0
 28 59  1  0
 29 60  1  0
 31 61  1  0
 31 62  1  0
 31 63  1  0
 32 64  1  0
 33 65  1  0
M  END
>  <UniqueID>  (81) 
75

>  <SMILES>  (81) 
COc1cc(C(=O)NC2CCN(Cc3ccccc3)CC2)ccc1OCc1ccc(C)cc1

>  <Energy>  (81) 
79.18985674982329

>  <Genealogy>  (81) 
COc1cc(C(=O)NC2CCN(Cc3ccccc3)CC2)ccc1OCc1ccc(C)cc1 (3D coordinates assigned)
COc1cc(C(=O)NC2CCN(Cc3ccccc3)CC2)ccc1OCc1ccc(C)cc1 (nonaromatic ring conformer: 79.18985674982329 kcal/mol)

>  <smiles>  (81) 
COc1cc(C(=O)NC2CCN(Cc3ccccc3)CC2)ccc1OCc1ccc(C)cc1

>  <score_type>  (81) 
oracle

>  <origin>  (81) 
adg

>  <m_score__min__energy>  (81) 
-8.2599999999999998

>  <m_primary>  (81) 
energy

$$$$
81:0
     RDKit          3D

 49 51  0  0  0  0  0  0  0  0999 V2000
   55.4664   28.5381   44.7236 H   0  0  0  0  0  0  0  0  0  0  0  0
   56.3440   29.1700   44.9250 C   0  0  0  0  0  0  0  0  0  0  0  0
   56.3410   30.4750   44.5460 N   0  0  0  0  0  0  0  0  0  0  0  0
   57.4000   31.3000   44.7720 C   0  0  0  0  0  0  0  0  0  0  0  0
   57.3690   32.5610   44.4440 N   0  0  0  0  0  0  0  0  0  0  0  0
   58.1500   33.6610   44.9490 C   0  0  0  0  0  0  0  0  0  0  0  0
   59.0020   34.1820   44.1840 O   0  0  0  0  0  0  0  0  0  0  0  0
   57.9290   34.2950   46.2970 C   0  0  0  0  0  0  0  0  0  0  0  0
   57.5007   33.5462   46.9795 H   0  0  0  0  0  0  0  0  0  0  0  0
   57.2424   35.1454   46.1730 H   0  0  0  0  0  0  0  0  0  0  0  0
   59.4990   34.9170   47.0030 S   0  0  0  0  0  0  0  0  0  0  0  0
   60.0670   33.3250   47.6310 C   0  0  0  0  0  0  0  0  0  0  0  0
   59.2010   32.6310   48.4140 N   0  0  0  0  0  0  0  0  0  0  0  0
   59.5280   31.4410   48.9650 C   0  0  0  0  0  0  0  0  0  0  0  0
   58.6230   30.7870   49.8070 C   0  0  0  0  0  0  0  0  0  0  0  0
   57.6356   31.2303   50.0035 H   0  0  0  0  0  0  0  0  0  0  0  0
   58.9730   29.5700   50.3990 C   0  0  0  0  0  0  0  0  0  0  0  0
   58.2623   29.0582   51.0646 H   0  0  0  0  0  0  0  0  0  0  0  0
   60.2250   29.0030   50.1460 C   0  0  0  0  0  0  0  0  0  0  0  0
   60.4977   28.0451   50.6129 H   0  0  0  0  0  0  0  0  0  0  0  0
   61.1320   29.6500   49.3010 C   0  0  0  0  0  0  0  0  0  0  0  0
   62.1149   29.1983   49.1015 H   0  0  0  0  0  0  0  0  0  0  0  0
   60.7890   30.8790   48.7050 C   0  0  0  0  0  0  0  0  0  0  0  0
   61.6630   31.5750   47.8530 C   0  0  0  0  0  0  0  0  0  0  0  0
   62.7830   31.0630   47.5670 O   0  0  0  0  0  0  0  0  0  0  0  0
   61.3040   32.7960   47.3270 N   0  0  0  0  0  0  0  0  0  0  0  0
   62.2310   33.4720   46.3900 C   0  0  0  0  0  0  0  0  0  0  0  0
   61.6710   34.2293   45.8218 H   0  0  0  0  0  0  0  0  0  0  0  0
   62.6566   32.7069   45.7240 H   0  0  0  0  0  0  0  0  0  0  0  0
   63.3930   34.1610   47.1220 C   0  0  0  0  0  0  0  0  0  0  0  0
   62.9892   34.9492   47.7744 H   0  0  0  0  0  0  0  0  0  0  0  0
   64.0727   34.5898   46.3709 H   0  0  0  0  0  0  0  0  0  0  0  0
   64.1440   33.2080   47.9350 N   0  0  0  0  0  0  0  0  0  0  0  0
   64.5400   32.3640   47.4610 H   0  0  0  0  0  0  0  0  0  0  0  0
   64.1220   33.2350   49.3700 C   0  0  0  0  0  0  0  0  0  0  0  0
   63.4940   34.1400   49.9840 O   0  0  0  0  0  0  0  0  0  0  0  0
   64.8890   32.2210   50.1550 C   0  0  0  0  0  0  0  0  0  0  0  0
   64.7485   32.4067   51.2301 H   0  0  0  0  0  0  0  0  0  0  0  0
   64.5252   31.2131   49.9064 H   0  0  0  0  0  0  0  0  0  0  0  0
   65.9579   32.2967   49.9064 H   0  0  0  0  0  0  0  0  0  0  0  0
   58.5300   30.7970   45.4270 C   0  0  0  0  0  0  0  0  0  0  0  0
   59.3929   31.4507   45.6219 H   0  0  0  0  0  0  0  0  0  0  0  0
   58.5560   29.4600   45.8320 C   0  0  0  0  0  0  0  0  0  0  0  0
   59.4371   29.0612   46.3560 H   0  0  0  0  0  0  0  0  0  0  0  0
   57.4610   28.6280   45.5710 C   0  0  0  0  0  0  0  0  0  0  0  0
   57.4480   27.2060   46.0460 C   0  0  0  0  0  0  0  0  0  0  0  0
   57.4478   27.1868   47.1458 H   0  0  0  0  0  0  0  0  0  0  0  0
   56.5452   26.7022   45.6703 H   0  0  0  0  0  0  0  0  0  0  0  0
   58.3414   26.6857   45.6703 H   0  0  0  0  0  0  0  0  0  0  0  0
  1  2  1  0
  2  3  1  0
  3  4  1  0
  4  5  2  0
  5  6  1  0
  6  7  2  0
  6  8  1  0
  8  9  1  0
  8 10  1  0
  8 11  1  0
 11 12  1  0
 12 13  2  0
 13 14  1  0
 14 15  2  0
 15 16  1  0
 15 17  1  0
 17 18  1  0
 17 19  2  0
 19 20  1  0
 19 21  1  0
 21 22  1  0
 21 23  2  0
 23 24  1  0
 24 25  2  0
 24 26  1  0
 26 27  1  0
 27 28  1  0
 27 29  1  0
 27 30  1  0
 30 31  1  0
 30 32  1  0
 30 33  1  0
 33 34  1  0
 33 35  1  0
 35 36  2  0
 35 37  1  0
 37 38  1  0
 37 39  1  0
 37 40  1  0
  4 41  1  0
 41 42  1  0
 41 43  2  0
 43 44  1  0
 43 45  1  0
 45 46  1  0
 46 47  1  0
 46 48  1  0
 46 49  1  0
 45  2  2  0
 26 12  1  0
 23 14  1  0
M  CHG  1   3  -1
M  END
>  <UniqueID>  (82) 
76

>  <SMILES>  (82) 
CC(=O)NCCn1c(SCC(=O)/N=c2/ccc(C)c[n-]2)nc2ccccc2c1=O

>  <Energy>  (82) 
52.9801798069644

>  <Genealogy>  (82) 
CC(=O)NCCn1c(SCC(=O)N=c2ccc(C)c[n-]2)nc2ccccc2c1=O (protonated)
CC(=O)NCCn1c(SCC(=O)/N=c2/ccc(C)c[n-]2)nc2ccccc2c1=O (cis-trans isomerization)
CC(=O)NCCn1c(SCC(=O)/N=c2/ccc(C)c[n-]2)nc2ccccc2c1=O (3D coordinates assigned)
CC(=O)NCCn1c(SCC(=O)/N=c2/ccc(C)c[n-]2)nc2ccccc2c1=O (optimized conformer: 52.9801798069644 kcal/mol)

>  <smiles>  (82) 
CC(=O)NCCn1c(SCC(=O)N=c2ccc(C)c[nH]2)nc2ccccc2c1=O

>  <score_type>  (82) 
oracle

>  <origin>  (82) 
adg

>  <m_score__min__energy>  (82) 
-10.119999999999999

>  <m_primary>  (82) 
energy

$$$$
82:0
     RDKit          3D

 27 28  0  0  0  0  0  0  0  0999 V2000
   60.7870   26.8560   46.6990 N   0  0  0  0  0  0  0  0  0  0  0  0
   59.7500   27.6250   46.0850 C   0  0  0  0  0  0  0  0  0  0  0  0
   58.4070   27.3890   46.4150 C   0  0  0  0  0  0  0  0  0  0  0  0
   57.3920   28.1400   45.8120 C   0  0  0  0  0  0  0  0  0  0  0  0
   57.7110   29.1300   44.8730 C   0  0  0  0  0  0  0  0  0  0  0  0
   56.4370   30.0730   44.1060 S   0  0  0  0  0  0  0  0  0  0  0  0
   55.1330   29.3410   44.2580 O   0  0  0  0  0  0  0  0  0  0  0  0
   56.7250   30.2620   42.6420 O   0  0  0  0  0  0  0  0  0  0  0  0
   56.3060   31.6270   44.8630 N   0  0  0  0  0  0  0  0  0  0  0  0
   57.3930   32.5400   45.0640 C   0  0  0  0  0  0  0  0  0  0  0  0
   57.6960   32.9550   46.3650 C   0  0  0  0  0  0  0  0  0  0  0  0
   58.7520   33.8390   46.5920 C   0  0  0  0  0  0  0  0  0  0  0  0
   59.4990   34.3030   45.5090 C   0  0  0  0  0  0  0  0  0  0  0  0
   59.1950   33.8950   44.2480 N   0  0  0  0  0  0  0  0  0  0  0  0
   58.1710   33.0340   44.0010 C   0  0  0  0  0  0  0  0  0  0  0  0
   59.0530   29.3700   44.5480 C   0  0  0  0  0  0  0  0  0  0  0  0
   60.0670   28.6190   45.1490 C   0  0  0  0  0  0  0  0  0  0  0  0
   60.9130   26.8600   47.7360 H   0  0  0  0  0  0  0  0  0  0  0  0
   61.4360   26.2760   46.1210 H   0  0  0  0  0  0  0  0  0  0  0  0
   58.1512   26.6114   47.1498 H   0  0  0  0  0  0  0  0  0  0  0  0
   56.3407   27.9527   46.0758 H   0  0  0  0  0  0  0  0  0  0  0  0
   57.1002   32.5835   47.2118 H   0  0  0  0  0  0  0  0  0  0  0  0
   58.9927   34.1664   47.6142 H   0  0  0  0  0  0  0  0  0  0  0  0
   60.3343   34.9992   45.6752 H   0  0  0  0  0  0  0  0  0  0  0  0
   57.9511   32.7237   42.9688 H   0  0  0  0  0  0  0  0  0  0  0  0
   59.3090   30.1518   43.8177 H   0  0  0  0  0  0  0  0  0  0  0  0
   61.1182   28.8088   44.8864 H   0  0  0  0  0  0  0  0  0  0  0  0
  1  2  1  0
  2  3  2  0
  3  4  1  0
  4  5  2  0
  5  6  1  0
  6  7  2  0
  6  8  2  0
  6  9  1  0
  9 10  1  0
 10 11  2  0
 11 12  1  0
 12 13  2  0
 13 14  1  0
 14 15  2  0
  5 16  1  0
 16 17  2  0
 17  2  1  0
 15 10  1  0
  1 18  1  0
  1 19  1  0
  3 20  1  0
  4 21  1  0
 11 22  1  0
 12 23  1  0
 13 24  1  0
 15 25  1  0
 16 26  1  0
 17 27  1  0
M  CHG  1   9  -1
M  END
>  <UniqueID>  (83) 
77

>  <SMILES>  (83) 
Nc1ccc(S(=O)(=O)[N-]c2cccnc2)cc1

>  <Energy>  (83) 
30.641939281303312

>  <Genealogy>  (83) 
Nc1ccc(S(=O)(=O)[N-]c2cccnc2)cc1 (protonated)
Nc1ccc(S(=O)(=O)[N-]c2cccnc2)cc1 (3D coordinates assigned)
Nc1ccc(S(=O)(=O)[N-]c2cccnc2)cc1 (optimized conformer: 30.641939281303312 kcal/mol)

>  <smiles>  (83) 
Nc1ccc(S(=O)(=O)Nc2cccnc2)cc1

>  <score_type>  (83) 
oracle

>  <origin>  (83) 
adg

>  <m_score__min__energy>  (83) 
-7.6900000000000004

>  <m_primary>  (83) 
energy

$$$$
83:0
     RDKit          3D

 44 46  0  0  0  0  0  0  0  0999 V2000
   57.4150   33.9030   45.2910 C   0  0  0  0  0  0  0  0  0  0  0  0
   58.1470   34.7230   46.1970 O   0  0  0  0  0  0  0  0  0  0  0  0
   59.3390   34.3370   46.8270 C   0  0  0  0  0  0  0  0  0  0  0  0
   59.3880   33.9730   48.2020 C   0  0  0  0  0  0  0  0  0  0  0  0
   60.6030   33.5900   48.7990 C   0  0  0  0  0  0  0  0  0  0  0  0
   61.7470   33.5850   48.0030 C   0  0  0  0  0  0  0  0  0  0  0  0
   63.0570   33.2520   48.2900 C   0  0  0  0  0  0  0  0  0  0  0  0
   63.6040   32.7220   49.5840 C   0  0  0  0  0  0  0  0  0  0  0  0
   63.2070   31.2580   49.8000 C   0  0  0  0  0  0  0  0  0  0  0  0
   62.1970   30.8340   48.8310 N   0  0  0  0  0  0  0  0  0  0  0  0
   60.8580   30.4790   49.2150 C   0  0  0  0  0  0  0  0  0  0  0  0
   60.5260   30.5250   50.4310 O   0  0  0  0  0  0  0  0  0  0  0  0
   59.8610   30.0390   48.2090 C   0  0  0  0  0  0  0  0  0  0  0  0
   59.1460   28.8440   48.4100 C   0  0  0  0  0  0  0  0  0  0  0  0
   58.2050   28.4140   47.4710 C   0  0  0  0  0  0  0  0  0  0  0  0
   57.9530   29.1760   46.3240 C   0  0  0  0  0  0  0  0  0  0  0  0
   56.7770   28.6240   45.1360 S   0  0  0  0  0  0  0  0  0  0  0  0
   55.9690   27.2180   45.7320 N   0  0  0  0  0  0  0  0  0  0  0  0
   57.4730   28.2900   43.8460 O   0  0  0  0  0  0  0  0  0  0  0  0
   55.7700   29.7090   44.8730 O   0  0  0  0  0  0  0  0  0  0  0  0
   58.6560   30.3700   46.1200 C   0  0  0  0  0  0  0  0  0  0  0  0
   59.6000   30.8020   47.0560 C   0  0  0  0  0  0  0  0  0  0  0  0
   63.7530   33.3990   47.0950 C   0  0  0  0  0  0  0  0  0  0  0  0
   62.9220   33.8210   46.1140 N   0  0  0  0  0  0  0  0  0  0  0  0
   61.7070   33.9300   46.6780 C   0  0  0  0  0  0  0  0  0  0  0  0
   60.5190   34.3110   46.0570 C   0  0  0  0  0  0  0  0  0  0  0  0
   56.7873   33.1998   45.8581 H   0  0  0  0  0  0  0  0  0  0  0  0
   56.7762   34.5361   44.6576 H   0  0  0  0  0  0  0  0  0  0  0  0
   58.1162   33.3399   44.6576 H   0  0  0  0  0  0  0  0  0  0  0  0
   58.4673   33.9913   48.8036 H   0  0  0  0  0  0  0  0  0  0  0  0
   60.6486   33.3037   49.8601 H   0  0  0  0  0  0  0  0  0  0  0  0
   64.7013   32.7965   49.5661 H   0  0  0  0  0  0  0  0  0  0  0  0
   63.1860   33.3195   50.4075 H   0  0  0  0  0  0  0  0  0  0  0  0
   64.0992   30.6244   49.6884 H   0  0  0  0  0  0  0  0  0  0  0  0
   62.7833   31.1580   50.8102 H   0  0  0  0  0  0  0  0  0  0  0  0
   62.4960   30.7470   47.8330 H   0  0  0  0  0  0  0  0  0  0  0  0
   59.3293   28.2437   49.3133 H   0  0  0  0  0  0  0  0  0  0  0  0
   57.6598   27.4726   47.6337 H   0  0  0  0  0  0  0  0  0  0  0  0
   55.1390   27.0610   45.1190 H   0  0  0  0  0  0  0  0  0  0  0  0
   58.4643   30.9708   45.2187 H   0  0  0  0  0  0  0  0  0  0  0  0
   60.1423   31.7445   46.8901 H   0  0  0  0  0  0  0  0  0  0  0  0
   64.8271   33.2003   46.9656 H   0  0  0  0  0  0  0  0  0  0  0  0
   63.1760   34.0080   45.1180 H   0  0  0  0  0  0  0  0  0  0  0  0
   60.5027   34.5848   44.9917 H   0  0  0  0  0  0  0  0  0  0  0  0
  1  2  1  0
  2  3  1  0
  3  4  2  0
  4  5  1  0
  5  6  2  0
  6  7  1  0
  7  8  1  0
  8  9  1  0
  9 10  1  0
 10 11  1  0
 11 12  2  0
 11 13  1  0
 13 14  2  0
 14 15  1  0
 15 16  2  0
 16 17  1  0
 17 18  1  0
 17 19  2  0
 17 20  2  0
 16 21  1  0
 21 22  2  0
  7 23  2  0
 23 24  1  0
 24 25  1  0
 25 26  2  0
 26  3  1  0
 25  6  1  0
 22 13  1  0
  1 27  1  0
  1 28  1  0
  1 29  1  0
  4 30  1  0
  5 31  1  0
  8 32  1  0
  8 33  1  0
  9 34  1  0
  9 35  1  0
 10 36  1  0
 14 37  1  0
 15 38  1  0
 18 39  1  0
 21 40  1  0
 22 41  1  0
 23 42  1  0
 24 43  1  0
 26 44  1  0
M  CHG  1  18  -1
M  END
>  <UniqueID>  (84) 
78

>  <SMILES>  (84) 
COc1ccc2c(CCNC(=O)c3ccc(S([NH-])(=O)=O)cc3)c[nH]c2c1

>  <Energy>  (84) 
75.21607380106275

>  <Genealogy>  (84) 
COc1ccc2c(CCNC(=O)c3ccc(S([NH-])(=O)=O)cc3)c[nH]c2c1 (protonated)
COc1ccc2c(CCNC(=O)c3ccc(S([NH-])(=O)=O)cc3)c[nH]c2c1 (3D coordinates assigned)
COc1ccc2c(CCNC(=O)c3ccc(S([NH-])(=O)=O)cc3)c[nH]c2c1 (optimized conformer: 75.21607380106275 kcal/mol)

>  <smiles>  (84) 
COc1ccc2c(CCNC(=O)c3ccc(S(N)(=O)=O)cc3)c[nH]c2c1

>  <score_type>  (84) 
oracle

>  <origin>  (84) 
adg

>  <m_score__min__energy>  (84) 
-11.289999999999999

>  <m_primary>  (84) 
energy

$$$$
84:0
     RDKit          3D

 66 69  0  0  0  0  0  0  0  0999 V2000
   55.3820   30.3190   52.6400 C   0  0  0  0  0  0  0  0  0  0  0  0
   56.6180   31.1780   52.8870 C   0  0  0  0  0  0  0  0  0  0  0  0
   57.0690   31.9330   51.6280 C   0  0  0  0  0  0  0  0  0  0  0  0
   58.4800   31.6380   51.2910 N   0  0  0  0  0  0  0  0  0  0  0  0
   58.8420   30.3580   50.9750 C   0  0  0  0  0  0  0  0  0  0  0  0
   57.9820   29.4320   50.9910 O   0  0  0  0  0  0  0  0  0  0  0  0
   60.1670   30.0610   50.6350 C   0  0  0  0  0  0  0  0  0  0  0  0
   60.5570   28.6720   50.2820 C   0  0  0  0  0  0  0  0  0  0  0  0
   60.6090   28.2390   49.0550 N   0  0  0  0  0  0  0  0  0  0  0  0
   59.7360   28.6440   47.9900 C   0  0  0  0  0  0  0  0  0  0  0  0
   59.8890   29.8880   47.3560 C   0  0  0  0  0  0  0  0  0  0  0  0
   59.0210   30.2690   46.3280 C   0  0  0  0  0  0  0  0  0  0  0  0
   57.9860   29.4120   45.9270 C   0  0  0  0  0  0  0  0  0  0  0  0
   56.8380   29.9090   44.6840 S   0  0  0  0  0  0  0  0  0  0  0  0
   57.3510   29.5780   43.3100 O   0  0  0  0  0  0  0  0  0  0  0  0
   55.5520   29.1540   44.8780 O   0  0  0  0  0  0  0  0  0  0  0  0
   56.4950   31.6060   44.8470 N   0  0  0  0  0  0  0  0  0  0  0  0
   57.3130   32.5740   45.1690 C   0  0  0  0  0  0  0  0  0  0  0  0
   57.3430   33.1090   46.4300 N   0  0  0  0  0  0  0  0  0  0  0  0
   58.2030   34.1090   46.7640 C   0  0  0  0  0  0  0  0  0  0  0  0
   59.0800   34.6300   45.8180 C   0  0  0  0  0  0  0  0  0  0  0  0
   59.0720   34.1160   44.5250 C   0  0  0  0  0  0  0  0  0  0  0  0
   58.1980   33.0740   44.1860 C   0  0  0  0  0  0  0  0  0  0  0  0
   58.1790   32.5580   42.7720 C   0  0  0  0  0  0  0  0  0  0  0  0
   57.8540   28.1580   46.5410 C   0  0  0  0  0  0  0  0  0  0  0  0
   58.7360   27.7700   47.5540 C   0  0  0  0  0  0  0  0  0  0  0  0
   61.1190   31.0900   50.6620 C   0  0  0  0  0  0  0  0  0  0  0  0
   62.4850   30.7840   50.3310 N   0  0  0  0  0  0  0  0  0  0  0  0
   60.7310   32.3760   50.9630 N   0  0  0  0  0  0  0  0  0  0  0  0
   61.6730   33.5060   50.7970 C   0  0  0  0  0  0  0  0  0  0  0  0
   62.2090   33.5300   49.3880 C   0  0  0  0  0  0  0  0  0  0  0  0
   61.3230   33.5510   48.2980 C   0  0  0  0  0  0  0  0  0  0  0  0
   61.8110   33.5090   46.9890 C   0  0  0  0  0  0  0  0  0  0  0  0
   63.1870   33.4410   46.7570 C   0  0  0  0  0  0  0  0  0  0  0  0
   64.0760   33.4220   47.8340 C   0  0  0  0  0  0  0  0  0  0  0  0
   63.5930   33.4670   49.1440 C   0  0  0  0  0  0  0  0  0  0  0  0
   59.4190   32.6380   51.2870 C   0  0  0  0  0  0  0  0  0  0  0  0
   59.0700   33.8170   51.5820 O   0  0  0  0  0  0  0  0  0  0  0  0
   54.9470   30.0167   53.6040 H   0  0  0  0  0  0  0  0  0  0  0  0
   54.6413   30.8980   52.0689 H   0  0  0  0  0  0  0  0  0  0  0  0
   55.6664   29.4229   52.0689 H   0  0  0  0  0  0  0  0  0  0  0  0
   56.3871   31.9107   53.6743 H   0  0  0  0  0  0  0  0  0  0  0  0
   57.4371   30.5078   53.1869 H   0  0  0  0  0  0  0  0  0  0  0  0
   56.4303   31.6331   50.7841 H   0  0  0  0  0  0  0  0  0  0  0  0
   56.9807   33.0118   51.8240 H   0  0  0  0  0  0  0  0  0  0  0  0
   60.8138   27.9768   51.0948 H   0  0  0  0  0  0  0  0  0  0  0  0
   60.6961   30.5663   47.6699 H   0  0  0  0  0  0  0  0  0  0  0  0
   59.1503   31.2428   45.8330 H   0  0  0  0  0  0  0  0  0  0  0  0
   56.7090   32.7750   47.1820 H   0  0  0  0  0  0  0  0  0  0  0  0
   58.2049   34.5083   47.7890 H   0  0  0  0  0  0  0  0  0  0  0  0
   59.7728   35.4401   46.0895 H   0  0  0  0  0  0  0  0  0  0  0  0
   59.7536   34.5286   43.7666 H   0  0  0  0  0  0  0  0  0  0  0  0
   58.1385   31.4588   42.7833 H   0  0  0  0  0  0  0  0  0  0  0  0
   57.2948   32.9521   42.2497 H   0  0  0  0  0  0  0  0  0  0  0  0
   59.0898   32.8860   42.2497 H   0  0  0  0  0  0  0  0  0  0  0  0
   57.0517   27.4756   46.2237 H   0  0  0  0  0  0  0  0  0  0  0  0
   58.6427   26.7732   48.0097 H   0  0  0  0  0  0  0  0  0  0  0  0
   62.7300   30.0650   49.6180 H   0  0  0  0  0  0  0  0  0  0  0  0
   63.2720   31.3600   50.7030 H   0  0  0  0  0  0  0  0  0  0  0  0
   61.1482   34.4506   51.0029 H   0  0  0  0  0  0  0  0  0  0  0  0
   62.5107   33.3829   51.4992 H   0  0  0  0  0  0  0  0  0  0  0  0
   60.2386   33.6008   48.4758 H   0  0  0  0  0  0  0  0  0  0  0  0
   61.1111   33.5295   46.1407 H   0  0  0  0  0  0  0  0  0  0  0  0
   63.5700   33.4024   45.7266 H   0  0  0  0  0  0  0  0  0  0  0  0
   65.1594   33.3715   47.6502 H   0  0  0  0  0  0  0  0  0  0  0  0
   64.2979   33.4531   49.9884 H   0  0  0  0  0  0  0  0  0  0  0  0
  1  2  1  0
  2  3  1  0
  3  4  1  0
  4  5  1  0
  5  6  2  0
  5  7  1  0
  7  8  1  0
  8  9  2  3
  9 10  1  0
 10 11  2  0
 11 12  1  0
 12 13  2  0
 13 14  1  0
 14 15  2  0
 14 16  2  0
 14 17  1  0
 17 18  2  3
 18 19  1  0
 19 20  1  0
 20 21  2  0
 21 22  1  0
 22 23  2  0
 23 24  1  0
 13 25  1  0
 25 26  2  0
  7 27  2  0
 27 28  1  0
 27 29  1  0
 29 30  1  0
 30 31  1  0
 31 32  2  0
 32 33  1  0
 33 34  2  0
 34 35  1  0
 35 36  2  0
 29 37  1  0
 37 38  2  0
 37  4  1  0
 26 10  1  0
 36 31  1  0
 23 18  1  0
  1 39  1  0
  1 40  1  0
  1 41  1  0
  2 42  1  0
  2 43  1  0
  3 44  1  0
  3 45  1  0
  8 46  1  0
 11 47  1  0
 12 48  1  0
 19 49  1  0
 20 50  1  0
 21 51  1  0
 22 52  1  0
 24 53  1  0
 24 54  1  0
 24 55  1  0
 25 56  1  0
 26 57  1  0
 28 58  1  0
 28 59  1  0
 30 60  1  0
 30 61  1  0
 32 62  1  0
 33 63  1  0
 34 64  1  0
 35 65  1  0
 36 66  1  0
M  END
>  <UniqueID>  (85) 
79

>  <SMILES>  (85) 
CCCn1c(=O)c(C=Nc2ccc(S(=O)(=O)N=c3[nH]cccc3C)cc2)c(N)n(Cc2ccccc2)c1=O

>  <Energy>  (85) 
96.38039099037671

>  <Genealogy>  (85) 
CCCn1c(=O)c(C=Nc2ccc(S(=O)(=O)N=c3[nH]cccc3C)cc2)c(N)n(Cc2ccccc2)c1=O (3D coordinates assigned)
CCCn1c(=O)c(C=Nc2ccc(S(=O)(=O)N=c3[nH]cccc3C)cc2)c(N)n(Cc2ccccc2)c1=O (optimized conformer: 96.38039099037671 kcal/mol)

>  <smiles>  (85) 
CCCn1c(=O)c(C=Nc2ccc(S(=O)(=O)N=c3[nH]cccc3C)cc2)c(N)n(Cc2ccccc2)c1=O

>  <score_type>  (85) 
oracle

>  <origin>  (85) 
adg

>  <m_score__min__energy>  (85) 
-10.15

>  <m_primary>  (85) 
energy

$$$$
85:0
     RDKit          3D

 37 40  0  0  0  0  0  0  0  0999 V2000
   54.5680   28.0850   52.7190 O   0  0  0  0  0  0  0  0  0  0  0  0
   54.4380   29.2740   53.1230 C   0  0  0  0  0  0  0  0  0  0  0  0
   53.1410   29.7870   53.4700 N   0  0  0  0  0  0  0  0  0  0  0  0
   52.4460   30.7330   52.8970 C   0  0  0  0  0  0  0  0  0  0  0  0
   52.7110   31.0220   51.5510 C   0  0  0  0  0  0  0  0  0  0  0  0
   51.9880   32.0220   50.8970 C   0  0  0  0  0  0  0  0  0  0  0  0
   51.0190   32.7050   51.5590 N   0  0  0  0  0  0  0  0  0  0  0  0
   50.7220   32.4390   52.8580 C   0  0  0  0  0  0  0  0  0  0  0  0
   51.4210   31.4480   53.5520 C   0  0  0  0  0  0  0  0  0  0  0  0
   55.6430   30.1150   53.3230 C   0  0  0  0  0  0  0  0  0  0  0  0
   56.0940   30.4150   54.6210 C   0  0  0  0  0  0  0  0  0  0  0  0
   57.2270   31.2060   54.8100 C   0  0  0  0  0  0  0  0  0  0  0  0
   57.9250   31.7100   53.7110 C   0  0  0  0  0  0  0  0  0  0  0  0
   57.4970   31.4260   52.4040 C   0  0  0  0  0  0  0  0  0  0  0  0
   58.2420   31.9590   51.2360 C   0  0  0  0  0  0  0  0  0  0  0  0
   59.6290   32.1480   51.1750 C   0  0  0  0  0  0  0  0  0  0  0  0
   59.8660   32.6560   49.9170 C   0  0  0  0  0  0  0  0  0  0  0  0
   61.0450   33.0380   49.2840 C   0  0  0  0  0  0  0  0  0  0  0  0
   60.9430   33.5220   47.9680 C   0  0  0  0  0  0  0  0  0  0  0  0
   59.6760   33.6030   47.3460 C   0  0  0  0  0  0  0  0  0  0  0  0
   58.5470   33.2150   48.0150 N   0  0  0  0  0  0  0  0  0  0  0  0
   58.6630   32.7510   49.2840 C   0  0  0  0  0  0  0  0  0  0  0  0
   57.6580   32.3340   50.0680 N   0  0  0  0  0  0  0  0  0  0  0  0
   56.3530   30.6250   52.2200 C   0  0  0  0  0  0  0  0  0  0  0  0
   53.4879   30.4615   51.0104 H   0  0  0  0  0  0  0  0  0  0  0  0
   52.2038   32.2566   49.8442 H   0  0  0  0  0  0  0  0  0  0  0  0
   49.9278   33.0063   53.3654 H   0  0  0  0  0  0  0  0  0  0  0  0
   51.1741   31.2269   54.6009 H   0  0  0  0  0  0  0  0  0  0  0  0
   55.5495   30.0232   55.4928 H   0  0  0  0  0  0  0  0  0  0  0  0
   57.5721   31.4337   55.8293 H   0  0  0  0  0  0  0  0  0  0  0  0
   58.8167   32.3341   53.8700 H   0  0  0  0  0  0  0  0  0  0  0  0
   60.3684   31.9365   51.9615 H   0  0  0  0  0  0  0  0  0  0  0  0
   62.0175   32.9642   49.7928 H   0  0  0  0  0  0  0  0  0  0  0  0
   61.8459   33.8366   47.4241 H   0  0  0  0  0  0  0  0  0  0  0  0
   59.5971   33.9810   46.3160 H   0  0  0  0  0  0  0  0  0  0  0  0
   56.6470   32.2900   49.8080 H   0  0  0  0  0  0  0  0  0  0  0  0
   56.0099   30.3950   51.2005 H   0  0  0  0  0  0  0  0  0  0  0  0
  1  2  2  0
  2  3  1  0
  3  4  2  3
  4  5  1  0
  5  6  2  0
  6  7  1  0
  7  8  1  0
  8  9  2  0
  2 10  1  0
 10 11  2  0
 11 12  1  0
 12 13  2  0
 13 14  1  0
 14 15  1  0
 15 16  2  0
 16 17  1  0
 17 18  2  0
 18 19  1  0
 19 20  2  0
 20 21  1  0
 21 22  2  0
 22 23  1  0
 14 24  2  0
  9  4  1  0
 24 10  1  0
 23 15  1  0
 22 17  1  0
  5 25  1  0
  6 26  1  0
  8 27  1  0
  9 28  1  0
 11 29  1  0
 12 30  1  0
 13 31  1  0
 16 32  1  0
 18 33  1  0
 19 34  1  0
 20 35  1  0
 23 36  1  0
 24 37  1  0
M  CHG  1   7  -1
M  END
>  <UniqueID>  (86) 
80

>  <SMILES>  (86) 
O=C(N=c1cc[n-]cc1)c1cccc(-c2cc3cccnc3[nH]2)c1

>  <Energy>  (86) 
88.72915486719452

>  <Genealogy>  (86) 
O=C(N=c1cc[n-]cc1)c1cccc(-c2cc3cccnc3[nH]2)c1 (protonated)
O=C(N=c1cc[n-]cc1)c1cccc(-c2cc3cccnc3[nH]2)c1 (3D coordinates assigned)
O=C(N=c1cc[n-]cc1)c1cccc(-c2cc3cccnc3[nH]2)c1 (optimized conformer: 88.72915486719452 kcal/mol)

>  <smiles>  (86) 
O=C(N=c1cc[nH]cc1)c1cccc(-c2cc3cccnc3[nH]2)c1

>  <score_type>  (86) 
oracle

>  <origin>  (86) 
adg

>  <m_score__min__energy>  (86) 
-9.7300000000000004

>  <m_primary>  (86) 
energy

$$$$
86:0
     RDKit          3D

 36 38  0  0  0  0  0  0  0  0999 V2000
   54.7630   24.4630   47.4470 H   0  0  0  0  0  0  0  0  0  0  0  0
   55.2880   24.6140   46.5560 N   0  0  0  0  0  0  0  0  0  0  0  0
   56.0560   25.6400   46.3680 C   0  0  0  0  0  0  0  0  0  0  0  0
   55.5520   26.7500   45.7650 N   0  0  0  0  0  0  0  0  0  0  0  0
   56.3120   27.8550   45.5440 C   0  0  0  0  0  0  0  0  0  0  0  0
   55.7730   28.9400   44.9310 N   0  0  0  0  0  0  0  0  0  0  0  0
   56.5020   30.0640   44.6920 C   0  0  0  0  0  0  0  0  0  0  0  0
   56.0354   30.9200   44.1825 H   0  0  0  0  0  0  0  0  0  0  0  0
   57.8440   30.1380   45.0910 C   0  0  0  0  0  0  0  0  0  0  0  0
   58.6050   31.3270   44.8120 N   0  0  0  0  0  0  0  0  0  0  0  0
   58.9730   31.4600   43.8420 H   0  0  0  0  0  0  0  0  0  0  0  0
   58.9440   32.3150   45.7990 C   0  0  0  0  0  0  0  0  0  0  0  0
   58.1610   33.4720   45.9620 C   0  0  0  0  0  0  0  0  0  0  0  0
   57.0750   33.6910   45.1780 F   0  0  0  0  0  0  0  0  0  0  0  0
   58.5160   34.4270   46.9170 C   0  0  0  0  0  0  0  0  0  0  0  0
   57.8958   35.3259   47.0485 H   0  0  0  0  0  0  0  0  0  0  0  0
   59.6540   34.2470   47.7060 C   0  0  0  0  0  0  0  0  0  0  0  0
   59.9210   34.9996   48.4625 H   0  0  0  0  0  0  0  0  0  0  0  0
   60.4600   33.1070   47.5370 C   0  0  0  0  0  0  0  0  0  0  0  0
   61.6360   32.8780   48.3270 N   0  0  0  0  0  0  0  0  0  0  0  0
   63.2730   32.9570   47.7580 S   0  0  0  0  0  0  0  0  0  0  0  0
   64.1810   33.4150   48.8640 O   0  0  0  0  0  0  0  0  0  0  0  0
   63.6970   31.5830   47.3240 O   0  0  0  0  0  0  0  0  0  0  0  0
   63.3880   34.0560   46.3620 C   0  0  0  0  0  0  0  0  0  0  0  0
   63.4963   35.0911   46.7182 H   0  0  0  0  0  0  0  0  0  0  0  0
   64.2626   33.7845   45.7527 H   0  0  0  0  0  0  0  0  0  0  0  0
   62.4761   33.9714   45.7527 H   0  0  0  0  0  0  0  0  0  0  0  0
   60.1010   32.1490   46.5770 C   0  0  0  0  0  0  0  0  0  0  0  0
   60.8700   31.0420   46.4130 F   0  0  0  0  0  0  0  0  0  0  0  0
   58.4290   29.0200   45.7120 C   0  0  0  0  0  0  0  0  0  0  0  0
   59.4866   29.0474   46.0131 H   0  0  0  0  0  0  0  0  0  0  0  0
   57.6630   27.8730   45.9460 C   0  0  0  0  0  0  0  0  0  0  0  0
   58.2030   26.7410   46.5680 C   0  0  0  0  0  0  0  0  0  0  0  0
   59.2552   26.7363   46.8886 H   0  0  0  0  0  0  0  0  0  0  0  0
   57.4000   25.6170   46.7800 C   0  0  0  0  0  0  0  0  0  0  0  0
   57.8161   24.7217   47.2652 H   0  0  0  0  0  0  0  0  0  0  0  0
  1  2  1  0
  2  3  2  0
  3  4  1  0
  4  5  1  0
  5  6  2  0
  6  7  1  0
  7  8  1  0
  7  9  2  0
  9 10  1  0
 10 11  1  0
 10 12  1  0
 12 13  2  0
 13 14  1  0
 13 15  1  0
 15 16  1  0
 15 17  2  0
 17 18  1  0
 17 19  1  0
 19 20  1  0
 20 21  1  0
 21 22  2  0
 21 23  2  0
 21 24  1  0
 24 25  1  0
 24 26  1  0
 24 27  1  0
 19 28  2  0
 28 29  1  0
  9 30  1  0
 30 31  1  0
 30 32  2  0
 32 33  1  0
 33 34  1  0
 33 35  2  0
 35 36  1  0
 35  3  1  0
 32  5  1  0
 28 12  1  0
M  CHG  2   4  -1  20  -1
M  END
>  <UniqueID>  (87) 
81

>  <SMILES>  (87) 
[H]/N=c1\ccc2cc(Nc3c(F)ccc([N-]S(C)(=O)=O)c3F)cnc2[n-]1

>  <Energy>  (87) 
48.65457020112673

>  <Genealogy>  (87) 
CS(=O)(=O)[N-]c1ccc(F)c(Nc2cnc3[n-]c(=N)ccc3c2)c1F (protonated)
[H]/N=c1\ccc2cc(Nc3c(F)ccc([N-]S(C)(=O)=O)c3F)cnc2[n-]1 (cis-trans isomerization)
[H]/N=c1\ccc2cc(Nc3c(F)ccc([N-]S(C)(=O)=O)c3F)cnc2[n-]1 (3D coordinates assigned)
[H]/N=c1\ccc2cc(Nc3c(F)ccc([N-]S(C)(=O)=O)c3F)cnc2[n-]1 (optimized conformer: 48.65457020112673 kcal/mol)

>  <smiles>  (87) 
CS(=O)(=O)Nc1ccc(F)c(Nc2cnc3[nH]c(=N)ccc3c2)c1F

>  <score_type>  (87) 
oracle

>  <origin>  (87) 
adg

>  <m_score__min__energy>  (87) 
-10.449999999999999

>  <m_primary>  (87) 
energy

$$$$
87:0
     RDKit          3D

 38 41  0  0  0  0  0  0  0  0999 V2000
   60.0894   26.5193   45.4394 H   0  0  0  0  0  0  0  0  0  0  0  0
   59.2410   27.1930   45.2490 C   0  0  0  0  0  0  0  0  0  0  0  0
   58.8600   27.4840   43.9370 C   0  0  0  0  0  0  0  0  0  0  0  0
   59.4101   27.0395   43.0945 H   0  0  0  0  0  0  0  0  0  0  0  0
   57.7810   28.3390   43.6920 C   0  0  0  0  0  0  0  0  0  0  0  0
   57.4853   28.5626   42.6564 H   0  0  0  0  0  0  0  0  0  0  0  0
   57.0700   28.9160   44.7630 C   0  0  0  0  0  0  0  0  0  0  0  0
   55.9260   29.8220   44.5050 C   0  0  0  0  0  0  0  0  0  0  0  0
   54.7760   29.3380   44.3100 O   0  0  0  0  0  0  0  0  0  0  0  0
   56.1320   31.2440   44.4760 N   0  0  0  0  0  0  0  0  0  0  0  0
   57.1200   31.8900   45.0200 C   0  0  0  0  0  0  0  0  0  0  0  0
   57.1290   33.2340   45.2360 N   0  0  0  0  0  0  0  0  0  0  0  0
   58.3390   33.3930   45.8030 C   0  0  0  0  0  0  0  0  0  0  0  0
   58.9000   34.5840   46.2420 C   0  0  0  0  0  0  0  0  0  0  0  0
   58.3589   35.5372   46.1493 H   0  0  0  0  0  0  0  0  0  0  0  0
   60.1840   34.5280   46.8090 C   0  0  0  0  0  0  0  0  0  0  0  0
   60.6598   35.4521   47.1690 H   0  0  0  0  0  0  0  0  0  0  0  0
   60.8750   33.2930   46.9230 C   0  0  0  0  0  0  0  0  0  0  0  0
   62.2340   33.2320   47.5210 C   0  0  0  0  0  0  0  0  0  0  0  0
   62.5680   33.2640   48.8690 C   0  0  0  0  0  0  0  0  0  0  0  0
   61.8589   33.3394   49.7066 H   0  0  0  0  0  0  0  0  0  0  0  0
   63.9070   33.1870   48.9750 N   0  0  0  0  0  0  0  0  0  0  0  0
   64.6740   33.2660   50.2100 C   0  0  0  0  0  0  0  0  0  0  0  0
   63.9921   33.1958   51.0703 H   0  0  0  0  0  0  0  0  0  0  0  0
   65.3967   32.4375   50.2464 H   0  0  0  0  0  0  0  0  0  0  0  0
   65.2127   34.2244   50.2464 H   0  0  0  0  0  0  0  0  0  0  0  0
   64.4400   33.1320   47.7660 N   0  0  0  0  0  0  0  0  0  0  0  0
   65.4650   33.0950   47.5630 H   0  0  0  0  0  0  0  0  0  0  0  0
   63.4500   33.1490   46.8550 C   0  0  0  0  0  0  0  0  0  0  0  0
   63.5818   33.1045   45.7638 H   0  0  0  0  0  0  0  0  0  0  0  0
   60.2380   32.1230   46.4520 C   0  0  0  0  0  0  0  0  0  0  0  0
   60.7355   31.1443   46.5203 H   0  0  0  0  0  0  0  0  0  0  0  0
   58.9990   32.2360   45.9140 N   0  0  0  0  0  0  0  0  0  0  0  0
   58.2510   31.2660   45.4270 N   0  0  0  0  0  0  0  0  0  0  0  0
   57.4640   28.6140   46.0800 C   0  0  0  0  0  0  0  0  0  0  0  0
   56.9187   29.0543   46.9279 H   0  0  0  0  0  0  0  0  0  0  0  0
   58.5440   27.7580   46.3180 C   0  0  0  0  0  0  0  0  0  0  0  0
   58.8451   27.5293   47.3510 H   0  0  0  0  0  0  0  0  0  0  0  0
  1  2  1  0
  2  3  2  0
  3  4  1  0
  3  5  1  0
  5  6  1  0
  5  7  2  0
  7  8  1  0
  8  9  2  0
  8 10  1  0
 10 11  2  0
 11 12  1  0
 12 13  2  0
 13 14  1  0
 14 15  1  0
 14 16  2  0
 16 17  1  0
 16 18  1  0
 18 19  1  0
 19 20  2  0
 20 21  1  0
 20 22  1  0
 22 23  1  0
 23 24  1  0
 23 25  1  0
 23 26  1  0
 22 27  1  0
 27 28  1  0
 27 29  2  0
 29 30  1  0
 18 31  2  0
 31 32  1  0
 31 33  1  0
 33 34  1  0
  7 35  1  0
 35 36  1  0
 35 37  2  0
 37 38  1  0
 37  2  1  0
 34 11  1  0
 33 13  1  0
 29 19  1  0
M  CHG  2  27   1  34  -1
M  END
>  <UniqueID>  (88) 
82

>  <SMILES>  (88) 
Cn1cc(-c2ccc3n/c(=N\C(=O)c4ccccc4)[n-]n3c2)c[nH+]1

>  <Energy>  (88) 
115.43001781892517

>  <Genealogy>  (88) 
Cn1cc(-c2ccc3nc(=NC(=O)c4ccccc4)[n-]n3c2)c[nH+]1 (protonated)
Cn1cc(-c2ccc3n/c(=N\C(=O)c4ccccc4)[n-]n3c2)c[nH+]1 (cis-trans isomerization)
Cn1cc(-c2ccc3n/c(=N\C(=O)c4ccccc4)[n-]n3c2)c[nH+]1 (3D coordinates assigned)
Cn1cc(-c2ccc3n/c(=N\C(=O)c4ccccc4)[n-]n3c2)c[nH+]1 (optimized conformer: 115.43001781892517 kcal/mol)

>  <smiles>  (88) 
Cn1cc(-c2ccc3nc(=NC(=O)c4ccccc4)[nH]n3c2)cn1

>  <score_type>  (88) 
oracle

>  <origin>  (88) 
adg

>  <m_score__min__energy>  (88) 
-8.7300000000000004

>  <m_primary>  (88) 
energy

$$$$
88:0
     RDKit          3D

 44 46  0  0  0  0  0  0  0  0999 V2000
   63.1800   33.5750   46.7440 C   0  0  0  0  0  0  0  0  0  0  0  0
   62.9850   33.1730   48.2200 C   0  0  0  0  0  0  0  0  0  0  0  0
   64.3610   33.1400   48.9170 C   0  0  0  0  0  0  0  0  0  0  0  0
   62.3540   31.7680   48.2710 C   0  0  0  0  0  0  0  0  0  0  0  0
   62.0690   34.2210   48.9080 C   0  0  0  0  0  0  0  0  0  0  0  0
   60.6960   33.8180   48.9080 O   0  0  0  0  0  0  0  0  0  0  0  0
   59.8810   33.6040   47.7820 C   0  0  0  0  0  0  0  0  0  0  0  0
   59.8650   34.4600   46.6630 C   0  0  0  0  0  0  0  0  0  0  0  0
   59.0280   34.1870   45.5770 C   0  0  0  0  0  0  0  0  0  0  0  0
   58.1800   33.0670   45.5970 C   0  0  0  0  0  0  0  0  0  0  0  0
   57.3240   32.7380   44.4930 N   0  0  0  0  0  0  0  0  0  0  0  0
   57.3530   31.5340   43.7150 C   0  0  0  0  0  0  0  0  0  0  0  0
   57.0590   31.5620   42.4900 O   0  0  0  0  0  0  0  0  0  0  0  0
   57.6650   30.2800   44.3380 N   0  0  0  0  0  0  0  0  0  0  0  0
   59.2060   29.6790   44.5670 S   0  0  0  0  0  0  0  0  0  0  0  0
   58.7960   28.2480   45.3200 C   0  0  0  0  0  0  0  0  0  0  0  0
   59.6040   27.2250   45.8040 C   0  0  0  0  0  0  0  0  0  0  0  0
   58.9750   26.1210   46.4020 C   0  0  0  0  0  0  0  0  0  0  0  0
   57.5680   26.0690   46.5020 C   0  0  0  0  0  0  0  0  0  0  0  0
   56.7770   27.1200   46.0040 C   0  0  0  0  0  0  0  0  0  0  0  0
   57.4110   28.2170   45.4080 C   0  0  0  0  0  0  0  0  0  0  0  0
   56.7980   29.3600   44.8540 C   0  0  0  0  0  0  0  0  0  0  0  0
   55.5480   29.5210   44.8380 O   0  0  0  0  0  0  0  0  0  0  0  0
   58.2110   32.2070   46.7010 C   0  0  0  0  0  0  0  0  0  0  0  0
   59.0470   32.4800   47.7880 C   0  0  0  0  0  0  0  0  0  0  0  0
   63.6596   34.5637   46.6935 H   0  0  0  0  0  0  0  0  0  0  0  0
   63.8179   32.8321   46.2428 H   0  0  0  0  0  0  0  0  0  0  0  0
   62.2017   33.6160   46.2428 H   0  0  0  0  0  0  0  0  0  0  0  0
   64.2196   33.1434   50.0079 H   0  0  0  0  0  0  0  0  0  0  0  0
   64.9007   32.2287   48.6200 H   0  0  0  0  0  0  0  0  0  0  0  0
   64.9438   34.0244   48.6200 H   0  0  0  0  0  0  0  0  0  0  0  0
   62.2179   31.4650   49.3197 H   0  0  0  0  0  0  0  0  0  0  0  0
   61.3775   31.7860   47.7649 H   0  0  0  0  0  0  0  0  0  0  0  0
   63.0161   31.0501   47.7649 H   0  0  0  0  0  0  0  0  0  0  0  0
   62.4001   34.3527   49.9487 H   0  0  0  0  0  0  0  0  0  0  0  0
   62.1461   35.1615   48.3427 H   0  0  0  0  0  0  0  0  0  0  0  0
   60.5144   35.3476   46.6438 H   0  0  0  0  0  0  0  0  0  0  0  0
   59.0334   34.8531   44.7016 H   0  0  0  0  0  0  0  0  0  0  0  0
   60.6996   27.2787   45.7212 H   0  0  0  0  0  0  0  0  0  0  0  0
   59.5822   25.2921   46.7947 H   0  0  0  0  0  0  0  0  0  0  0  0
   57.0863   25.1996   46.9732 H   0  0  0  0  0  0  0  0  0  0  0  0
   55.6804   27.0809   46.0813 H   0  0  0  0  0  0  0  0  0  0  0  0
   57.5735   31.3106   46.7135 H   0  0  0  0  0  0  0  0  0  0  0  0
   59.0493   31.8048   48.6564 H   0  0  0  0  0  0  0  0  0  0  0  0
  1  2  1  0
  2  3  1  0
  2  4  1  0
  2  5  1  0
  5  6  1  0
  6  7  1  0
  7  8  2  0
  8  9  1  0
  9 10  2  0
 10 11  1  0
 11 12  1  0
 12 13  2  0
 12 14  1  0
 14 15  1  0
 15 16  1  0
 16 17  2  0
 17 18  1  0
 18 19  2  0
 19 20  1  0
 20 21  2  0
 21 22  1  0
 22 23  2  0
 10 24  1  0
 24 25  2  0
 25  7  1  0
 22 14  1  0
 21 16  1  0
  1 26  1  0
  1 27  1  0
  1 28  1  0
  3 29  1  0
  3 30  1  0
  3 31  1  0
  4 32  1  0
  4 33  1  0
  4 34  1  0
  5 35  1  0
  5 36  1  0
  8 37  1  0
  9 38  1  0
 17 39  1  0
 18 40  1  0
 19 41  1  0
 20 42  1  0
 24 43  1  0
 25 44  1  0
M  CHG  1  11  -1
M  END
>  <UniqueID>  (89) 
83

>  <SMILES>  (89) 
CC(C)(C)COc1ccc([N-]C(=O)n2sc3ccccc3c2=O)cc1

>  <Energy>  (89) 
86.94968709809743

>  <Genealogy>  (89) 
CC(C)(C)COc1ccc([N-]C(=O)n2sc3ccccc3c2=O)cc1 (protonated)
CC(C)(C)COc1ccc([N-]C(=O)n2sc3ccccc3c2=O)cc1 (3D coordinates assigned)
CC(C)(C)COc1ccc([N-]C(=O)n2sc3ccccc3c2=O)cc1 (optimized conformer: 86.94968709809743 kcal/mol)

>  <smiles>  (89) 
CC(C)(C)COc1ccc(NC(=O)n2sc3ccccc3c2=O)cc1

>  <score_type>  (89) 
oracle

>  <origin>  (89) 
adg

>  <m_score__min__energy>  (89) 
-9.8900000000000006

>  <m_primary>  (89) 
energy

$$$$
89:0
     RDKit          3D

 49 53  0  0  0  0  0  0  0  0999 V2000
   51.2560   32.2600   51.2360 N   0  0  0  0  0  0  0  0  0  0  0  0
   51.6160   30.5780   51.3940 S   0  0  0  0  0  0  0  0  0  0  0  0
   51.4150   29.8970   50.0690 O   0  0  0  0  0  0  0  0  0  0  0  0
   50.6870   29.9560   52.4000 O   0  0  0  0  0  0  0  0  0  0  0  0
   53.2840   30.3790   51.9210 C   0  0  0  0  0  0  0  0  0  0  0  0
   54.1670   31.4670   51.8880 C   0  0  0  0  0  0  0  0  0  0  0  0
   55.4950   31.3080   52.2920 C   0  0  0  0  0  0  0  0  0  0  0  0
   55.9550   30.0590   52.7390 C   0  0  0  0  0  0  0  0  0  0  0  0
   57.3950   29.8780   53.1380 C   0  0  0  0  0  0  0  0  0  0  0  0
   58.3280   30.4220   52.0530 C   0  0  0  0  0  0  0  0  0  0  0  0
   57.8830   29.9540   50.7340 N   0  0  0  0  0  0  0  0  0  0  0  0
   59.0260   29.6960   49.8480 C   0  0  0  0  0  0  0  0  0  0  0  0
   58.6730   30.0140   48.4200 C   0  0  0  0  0  0  0  0  0  0  0  0
   58.1440   29.0130   47.5500 C   0  0  0  0  0  0  0  0  0  0  0  0
   57.8380   29.2990   46.1870 C   0  0  0  0  0  0  0  0  0  0  0  0
   57.3260   28.2990   45.3680 O   0  0  0  0  0  0  0  0  0  0  0  0
   58.0630   30.5940   45.6810 C   0  0  0  0  0  0  0  0  0  0  0  0
   57.8280   31.0530   44.3540 C   0  0  0  0  0  0  0  0  0  0  0  0
   58.1280   32.4100   44.0020 C   0  0  0  0  0  0  0  0  0  0  0  0
   58.6590   33.2930   44.9790 C   0  0  0  0  0  0  0  0  0  0  0  0
   59.0150   34.6450   44.7980 C   0  0  0  0  0  0  0  0  0  0  0  0
   59.5460   35.3840   45.8980 C   0  0  0  0  0  0  0  0  0  0  0  0
   59.7250   34.7790   47.1720 C   0  0  0  0  0  0  0  0  0  0  0  0
   59.3580   33.4390   47.3110 C   0  0  0  0  0  0  0  0  0  0  0  0
   59.3860   32.5130   48.3660 C   0  0  0  0  0  0  0  0  0  0  0  0
   59.7930   32.7380   49.5360 O   0  0  0  0  0  0  0  0  0  0  0  0
   58.8840   31.2910   47.8760 C   0  0  0  0  0  0  0  0  0  0  0  0
   58.5740   31.5130   46.5690 C   0  0  0  0  0  0  0  0  0  0  0  0
   58.8530   32.7760   46.2380 C   0  0  0  0  0  0  0  0  0  0  0  0
   55.0740   28.9660   52.7520 C   0  0  0  0  0  0  0  0  0  0  0  0
   53.7460   29.1260   52.3470 C   0  0  0  0  0  0  0  0  0  0  0  0
   50.2740   32.3300   50.8850 H   0  0  0  0  0  0  0  0  0  0  0  0
   53.8131   32.4496   51.5428 H   0  0  0  0  0  0  0  0  0  0  0  0
   56.1834   32.1654   52.2597 H   0  0  0  0  0  0  0  0  0  0  0  0
   57.5802   30.4184   54.0781 H   0  0  0  0  0  0  0  0  0  0  0  0
   57.5937   28.8042   53.2704 H   0  0  0  0  0  0  0  0  0  0  0  0
   58.3116   31.5217   52.0750 H   0  0  0  0  0  0  0  0  0  0  0  0
   59.3508   30.0628   52.2399 H   0  0  0  0  0  0  0  0  0  0  0  0
   57.3820   29.0450   50.8700 H   0  0  0  0  0  0  0  0  0  0  0  0
   59.8735   30.3244   50.1592 H   0  0  0  0  0  0  0  0  0  0  0  0
   59.2950   28.6317   49.9177 H   0  0  0  0  0  0  0  0  0  0  0  0
   57.9687   27.9994   47.9396 H   0  0  0  0  0  0  0  0  0  0  0  0
   57.4165   30.3668   43.5992 H   0  0  0  0  0  0  0  0  0  0  0  0
   57.9472   32.7664   42.9772 H   0  0  0  0  0  0  0  0  0  0  0  0
   58.8847   35.1264   43.8176 H   0  0  0  0  0  0  0  0  0  0  0  0
   59.8214   36.4397   45.7574 H   0  0  0  0  0  0  0  0  0  0  0  0
   60.1382   35.3467   48.0187 H   0  0  0  0  0  0  0  0  0  0  0  0
   55.4306   27.9792   53.0824 H   0  0  0  0  0  0  0  0  0  0  0  0
   53.0608   28.2656   52.3626 H   0  0  0  0  0  0  0  0  0  0  0  0
  1  2  1  0
  2  3  2  0
  2  4  2  0
  2  5  1  0
  5  6  2  0
  6  7  1  0
  7  8  2  0
  8  9  1  0
  9 10  1  0
 10 11  1  0
 11 12  1  0
 12 13  1  0
 13 14  2  0
 14 15  1  0
 15 16  1  0
 15 17  2  0
 17 18  1  0
 18 19  2  0
 19 20  1  0
 20 21  1  0
 21 22  2  0
 22 23  1  0
 23 24  2  0
 24 25  1  0
 25 26  2  0
 25 27  1  0
 27 28  2  0
 28 29  1  0
  8 30  1  0
 30 31  2  0
 31  5  1  0
 27 13  1  0
 28 17  1  0
 29 20  2  0
 29 24  1  0
  1 32  1  0
  6 33  1  0
  7 34  1  0
  9 35  1  0
  9 36  1  0
 10 37  1  0
 10 38  1  0
 11 39  1  0
 12 40  1  0
 12 41  1  0
 14 42  1  0
 18 43  1  0
 19 44  1  0
 21 45  1  0
 22 46  1  0
 23 47  1  0
 30 48  1  0
 31 49  1  0
M  CHG  2   1  -1  16  -1
M  END
>  <UniqueID>  (90) 
84

>  <SMILES>  (90) 
[NH-]S(=O)(=O)c1ccc(CCNCc2cc([O-])c3ccc4cccc5c(=O)c2c3c45)cc1

>  <Energy>  (90) 
111.20783457300726

>  <Genealogy>  (90) 
[NH-]S(=O)(=O)c1ccc(CCNCc2cc([O-])c3ccc4cccc5c(=O)c2c3c45)cc1 (protonated)
[NH-]S(=O)(=O)c1ccc(CCNCc2cc([O-])c3ccc4cccc5c(=O)c2c3c45)cc1 (3D coordinates assigned)
[NH-]S(=O)(=O)c1ccc(CCNCc2cc([O-])c3ccc4cccc5c(=O)c2c3c45)cc1 (optimized conformer: 111.20783457300726 kcal/mol)

>  <smiles>  (90) 
NS(=O)(=O)c1ccc(CCNCc2cc(O)c3ccc4cccc5c(=O)c2c3c45)cc1

>  <score_type>  (90) 
oracle

>  <origin>  (90) 
adg

>  <m_score__min__energy>  (90) 
-13.32

>  <m_primary>  (90) 
energy

$$$$
90:0
     RDKit          3D

 30 32  0  0  0  0  0  0  0  0999 V2000
   60.7650   25.3600   46.3550 N   0  0  0  0  0  0  0  0  0  0  0  0
   59.9010   26.0730   46.0660 C   0  0  0  0  0  0  0  0  0  0  0  0
   58.8210   26.9640   45.7050 C   0  0  0  0  0  0  0  0  0  0  0  0
   57.4960   26.5700   45.9530 C   0  0  0  0  0  0  0  0  0  0  0  0
   57.2430   25.2930   46.5630 N   0  0  0  0  0  0  0  0  0  0  0  0
   56.3000   24.3140   46.1080 C   0  0  0  0  0  0  0  0  0  0  0  0
   55.1970   24.2130   46.7070 O   0  0  0  0  0  0  0  0  0  0  0  0
   56.5960   23.3940   44.9920 C   0  0  0  0  0  0  0  0  0  0  0  0
   57.5590   22.3890   44.9680 C   0  0  0  0  0  0  0  0  0  0  0  0
   57.5750   21.6660   43.7690 C   0  0  0  0  0  0  0  0  0  0  0  0
   56.6240   22.0880   42.8490 C   0  0  0  0  0  0  0  0  0  0  0  0
   55.7610   23.3590   43.5320 S   0  0  0  0  0  0  0  0  0  0  0  0
   56.4680   27.4160   45.6430 N   0  0  0  0  0  0  0  0  0  0  0  0
   55.1790   27.0780   45.9940 O   0  0  0  0  0  0  0  0  0  0  0  0
   56.7110   28.6150   45.0350 C   0  0  0  0  0  0  0  0  0  0  0  0
   55.6540   29.4800   44.6860 C   0  0  0  0  0  0  0  0  0  0  0  0
   55.9150   30.7020   44.0660 C   0  0  0  0  0  0  0  0  0  0  0  0
   57.2280   31.0800   43.7880 C   0  0  0  0  0  0  0  0  0  0  0  0
   57.4740   32.2700   43.1850 F   0  0  0  0  0  0  0  0  0  0  0  0
   58.2880   30.2390   44.1280 C   0  0  0  0  0  0  0  0  0  0  0  0
   58.0440   29.0000   44.7560 C   0  0  0  0  0  0  0  0  0  0  0  0
   59.0760   28.1710   45.1040 N   0  0  0  0  0  0  0  0  0  0  0  0
   60.3750   28.5700   44.8380 O   0  0  0  0  0  0  0  0  0  0  0  0
   58.2396   22.1834   45.8074 H   0  0  0  0  0  0  0  0  0  0  0  0
   58.2755   20.8407   43.5739 H   0  0  0  0  0  0  0  0  0  0  0  0
   56.4632   21.6640   41.8468 H   0  0  0  0  0  0  0  0  0  0  0  0
   54.6158   29.1892   44.9042 H   0  0  0  0  0  0  0  0  0  0  0  0
   55.0831   31.3690   43.7958 H   0  0  0  0  0  0  0  0  0  0  0  0
   59.3209   30.5443   43.9048 H   0  0  0  0  0  0  0  0  0  0  0  0
   60.9140   28.2110   44.0600 H   0  0  0  0  0  0  0  0  0  0  0  0
  1  2  3  0
  2  3  1  0
  3  4  2  0
  4  5  1  0
  5  6  1  0
  6  7  2  0
  6  8  1  0
  8  9  2  0
  9 10  1  0
 10 11  2  0
 11 12  1  0
  4 13  1  0
 13 14  1  0
 13 15  2  0
 15 16  1  0
 16 17  2  0
 17 18  1  0
 18 19  1  0
 18 20  2  0
 20 21  1  0
 21 22  2  0
 22 23  1  0
 22  3  1  0
 12  8  1  0
 21 15  1  0
  9 24  1  0
 10 25  1  0
 11 26  1  0
 16 27  1  0
 17 28  1  0
 20 29  1  0
 23 30  1  0
M  CHG  4   5  -1  13   1  14  -1  22   1
M  END
>  <UniqueID>  (91) 
85

>  <SMILES>  (91) 
N#Cc1c([N-]C(=O)c2cccs2)[n+]([O-])c2ccc(F)cc2[n+]1O

>  <Energy>  (91) 
73.81002974530726

>  <Genealogy>  (91) 
N#Cc1c([N-]C(=O)c2cccs2)[n+]([O-])c2ccc(F)cc2[n+]1O (protonated)
N#Cc1c([N-]C(=O)c2cccs2)[n+]([O-])c2ccc(F)cc2[n+]1O (3D coordinates assigned)
N#Cc1c([N-]C(=O)c2cccs2)[n+]([O-])c2ccc(F)cc2[n+]1O (optimized conformer: 73.81002974530726 kcal/mol)

>  <smiles>  (91) 
N#Cc1c(NC(=O)c2cccs2)[n+]([O-])c2ccc(F)cc2[n+]1[O-]

>  <score_type>  (91) 
oracle

>  <origin>  (91) 
adg

>  <m_score__min__energy>  (91) 
-8.4299999999999997

>  <m_primary>  (91) 
energy

$$$$
91:0
     RDKit          3D

 44 47  0  0  0  0  0  0  0  0999 V2000
   54.8160   26.2060   45.6690 O   0  0  0  0  0  0  0  0  0  0  0  0
   55.9790   26.3610   46.1350 C   0  0  0  0  0  0  0  0  0  0  0  0
   56.6540   25.2670   46.7690 N   0  0  0  0  0  0  0  0  0  0  0  0
   57.3180   24.1970   46.0850 C   0  0  0  0  0  0  0  0  0  0  0  0
   58.7230   24.1620   45.9760 C   0  0  0  0  0  0  0  0  0  0  0  0
   59.3540   23.1490   45.2530 C   0  0  0  0  0  0  0  0  0  0  0  0
   58.5920   22.1630   44.6250 C   0  0  0  0  0  0  0  0  0  0  0  0
   57.2000   22.2030   44.7000 C   0  0  0  0  0  0  0  0  0  0  0  0
   56.5570   23.2190   45.4220 C   0  0  0  0  0  0  0  0  0  0  0  0
   55.1250   23.2470   45.4840 N   0  0  0  0  0  0  0  0  0  0  0  0
   54.4760   22.5400   46.5940 C   0  0  0  0  0  0  0  0  0  0  0  0
   52.9530   22.7070   46.5700 C   0  0  0  0  0  0  0  0  0  0  0  0
   52.4560   22.6020   45.2530 O   0  0  0  0  0  0  0  0  0  0  0  0
   52.8760   23.7340   44.5230 C   0  0  0  0  0  0  0  0  0  0  0  0
   54.3900   23.7140   44.3000 C   0  0  0  0  0  0  0  0  0  0  0  0
   56.6570   27.6520   45.9850 C   0  0  0  0  0  0  0  0  0  0  0  0
   57.7960   28.0510   46.6520 C   0  0  0  0  0  0  0  0  0  0  0  0
   58.0450   29.3120   46.1430 C   0  0  0  0  0  0  0  0  0  0  0  0
   59.1700   30.2070   46.4820 C   0  0  0  0  0  0  0  0  0  0  0  0
   60.4190   29.6950   46.8800 C   0  0  0  0  0  0  0  0  0  0  0  0
   61.4750   30.5600   47.1760 C   0  0  0  0  0  0  0  0  0  0  0  0
   61.2900   31.9460   47.0940 C   0  0  0  0  0  0  0  0  0  0  0  0
   62.7330   33.1270   47.4960 Br  0  0  0  0  0  0  0  0  0  0  0  0
   60.0590   32.4630   46.6890 C   0  0  0  0  0  0  0  0  0  0  0  0
   59.0040   31.5990   46.3830 C   0  0  0  0  0  0  0  0  0  0  0  0
   57.1090   29.6010   45.2650 O   0  0  0  0  0  0  0  0  0  0  0  0
   56.2570   28.6260   45.1410 N   0  0  0  0  0  0  0  0  0  0  0  0
   59.3273   24.9401   46.4652 H   0  0  0  0  0  0  0  0  0  0  0  0
   60.4512   23.1277   45.1781 H   0  0  0  0  0  0  0  0  0  0  0  0
   59.0896   21.3537   44.0705 H   0  0  0  0  0  0  0  0  0  0  0  0
   56.6027   21.4330   44.1898 H   0  0  0  0  0  0  0  0  0  0  0  0
   54.7168   21.4691   46.5220 H   0  0  0  0  0  0  0  0  0  0  0  0
   54.8497   22.9700   47.5350 H   0  0  0  0  0  0  0  0  0  0  0  0
   52.4948   21.9235   47.1915 H   0  0  0  0  0  0  0  0  0  0  0  0
   52.7023   23.7037   46.9621 H   0  0  0  0  0  0  0  0  0  0  0  0
   52.3690   23.7406   43.5468 H   0  0  0  0  0  0  0  0  0  0  0  0
   52.6190   24.6360   45.0978 H   0  0  0  0  0  0  0  0  0  0  0  0
   54.6141   23.0429   43.4578 H   0  0  0  0  0  0  0  0  0  0  0  0
   54.7117   24.7449   44.0908 H   0  0  0  0  0  0  0  0  0  0  0  0
   58.3703   27.4973   47.4094 H   0  0  0  0  0  0  0  0  0  0  0  0
   60.5644   28.6075   46.9584 H   0  0  0  0  0  0  0  0  0  0  0  0
   62.4524   30.1525   47.4737 H   0  0  0  0  0  0  0  0  0  0  0  0
   59.9188   33.5512   46.6105 H   0  0  0  0  0  0  0  0  0  0  0  0
   58.0362   32.0117   46.0622 H   0  0  0  0  0  0  0  0  0  0  0  0
  1  2  2  0
  2  3  1  0
  3  4  1  0
  4  5  2  0
  5  6  1  0
  6  7  2  0
  7  8  1  0
  8  9  2  0
  9 10  1  0
 10 11  1  0
 11 12  1  0
 12 13  1  0
 13 14  1  0
 14 15  1  0
  2 16  1  0
 16 17  1  0
 17 18  2  0
 18 19  1  0
 19 20  2  0
 20 21  1  0
 21 22  2  0
 22 23  1  0
 22 24  1  0
 24 25  2  0
 18 26  1  0
 26 27  1  0
  9  4  1  0
 15 10  1  0
 27 16  2  0
 25 19  1  0
  5 28  1  0
  6 29  1  0
  7 30  1  0
  8 31  1  0
 11 32  1  0
 11 33  1  0
 12 34  1  0
 12 35  1  0
 14 36  1  0
 14 37  1  0
 15 38  1  0
 15 39  1  0
 17 40  1  0
 20 41  1  0
 21 42  1  0
 24 43  1  0
 25 44  1  0
M  CHG  1   3  -1
M  END
>  <UniqueID>  (92) 
86

>  <SMILES>  (92) 
O=C([N-]c1ccccc1N1CCOCC1)c1cc(-c2ccc(Br)cc2)on1

>  <Energy>  (92) 
90.08833070002785

>  <Genealogy>  (92) 
O=C([N-]c1ccccc1N1CCOCC1)c1cc(-c2ccc(Br)cc2)on1 (protonated)
O=C([N-]c1ccccc1N1CCOCC1)c1cc(-c2ccc(Br)cc2)on1 (3D coordinates assigned)
O=C([N-]c1ccccc1N1CCOCC1)c1cc(-c2ccc(Br)cc2)on1 (nonaromatic ring conformer: 90.08833070002785 kcal/mol)

>  <smiles>  (92) 
O=C(Nc1ccccc1N1CCOCC1)c1cc(-c2ccc(Br)cc2)on1

>  <score_type>  (92) 
oracle

>  <origin>  (92) 
adg

>  <m_score__min__energy>  (92) 
-9.5399999999999991

>  <m_primary>  (92) 
energy

$$$$
92:0
     RDKit          3D

 55 57  0  0  0  0  0  0  0  0999 V2000
   60.1710   32.2780   50.2860 N   0  0  0  0  0  0  0  0  0  0  0  0
   61.0240   30.7760   50.2270 S   0  0  0  0  0  0  0  0  0  0  0  0
   60.7050   29.9690   51.4540 O   0  0  0  0  0  0  0  0  0  0  0  0
   62.5030   31.0400   50.1960 O   0  0  0  0  0  0  0  0  0  0  0  0
   60.5470   29.8820   48.7870 C   0  0  0  0  0  0  0  0  0  0  0  0
   61.1340   30.1750   47.5480 C   0  0  0  0  0  0  0  0  0  0  0  0
   60.7440   29.4750   46.4020 C   0  0  0  0  0  0  0  0  0  0  0  0
   59.7640   28.4730   46.4830 C   0  0  0  0  0  0  0  0  0  0  0  0
   59.3170   27.7430   45.2430 C   0  0  0  0  0  0  0  0  0  0  0  0
   58.8880   28.7160   44.1400 C   0  0  0  0  0  0  0  0  0  0  0  0
   57.4570   28.5890   43.8510 N   0  0  0  0  0  0  0  0  0  0  0  0
   56.6600   30.1350   43.8920 S   0  0  0  0  0  0  0  0  0  0  0  0
   55.2490   29.9740   44.3850 O   0  0  0  0  0  0  0  0  0  0  0  0
   56.6180   30.7050   42.5030 O   0  0  0  0  0  0  0  0  0  0  0  0
   57.5510   31.2400   44.9350 C   0  0  0  0  0  0  0  0  0  0  0  0
   57.8290   30.9020   46.2680 C   0  0  0  0  0  0  0  0  0  0  0  0
   58.5570   31.7790   47.0770 C   0  0  0  0  0  0  0  0  0  0  0  0
   59.0170   32.9990   46.5630 C   0  0  0  0  0  0  0  0  0  0  0  0
   59.9540   34.0930   47.5820 S   0  0  0  0  0  0  0  0  0  0  0  0
   60.0200   35.4460   46.9300 O   0  0  0  0  0  0  0  0  0  0  0  0
   59.2590   34.2490   48.9060 O   0  0  0  0  0  0  0  0  0  0  0  0
   61.5740   33.4950   47.8480 N   0  0  0  0  0  0  0  0  0  0  0  0
   62.1830   34.1740   49.0120 C   0  0  0  0  0  0  0  0  0  0  0  0
   63.7000   33.9040   49.1230 C   0  0  0  0  0  0  0  0  0  0  0  0
   64.1320   32.7210   48.2510 C   0  0  0  0  0  0  0  0  0  0  0  0
   63.7350   32.9420   46.7820 C   0  0  0  0  0  0  0  0  0  0  0  0
   62.3940   33.6860   46.6410 C   0  0  0  0  0  0  0  0  0  0  0  0
   58.7370   33.3370   45.2310 C   0  0  0  0  0  0  0  0  0  0  0  0
   58.0100   32.4600   44.4210 C   0  0  0  0  0  0  0  0  0  0  0  0
   59.1640   28.1950   47.7220 C   0  0  0  0  0  0  0  0  0  0  0  0
   59.5560   28.8950   48.8670 C   0  0  0  0  0  0  0  0  0  0  0  0
   59.3150   32.1660   49.6970 H   0  0  0  0  0  0  0  0  0  0  0  0
   60.7720   32.9890   49.8110 H   0  0  0  0  0  0  0  0  0  0  0  0
   61.9036   30.9578   47.4772 H   0  0  0  0  0  0  0  0  0  0  0  0
   61.2072   29.7106   45.4325 H   0  0  0  0  0  0  0  0  0  0  0  0
   60.1493   27.1269   44.8718 H   0  0  0  0  0  0  0  0  0  0  0  0
   58.4515   27.1168   45.5054 H   0  0  0  0  0  0  0  0  0  0  0  0
   59.0984   29.7450   44.4670 H   0  0  0  0  0  0  0  0  0  0  0  0
   59.4513   28.4777   43.2257 H   0  0  0  0  0  0  0  0  0  0  0  0
   57.4733   29.9449   46.6772 H   0  0  0  0  0  0  0  0  0  0  0  0
   58.7699   31.5103   48.1222 H   0  0  0  0  0  0  0  0  0  0  0  0
   62.0233   35.2578   48.9123 H   0  0  0  0  0  0  0  0  0  0  0  0
   61.7043   33.7782   49.9198 H   0  0  0  0  0  0  0  0  0  0  0  0
   64.2462   34.8026   48.8002 H   0  0  0  0  0  0  0  0  0  0  0  0
   63.9280   33.6581   50.1706 H   0  0  0  0  0  0  0  0  0  0  0  0
   65.2243   32.6077   48.3148 H   0  0  0  0  0  0  0  0  0  0  0  0
   63.6272   31.8147   48.6168 H   0  0  0  0  0  0  0  0  0  0  0  0
   64.5206   33.5336   46.2891 H   0  0  0  0  0  0  0  0  0  0  0  0
   63.6205   31.9534   46.3135 H   0  0  0  0  0  0  0  0  0  0  0  0
   62.5878   34.7596   46.5002 H   0  0  0  0  0  0  0  0  0  0  0  0
   61.8515   33.2838   45.7728 H   0  0  0  0  0  0  0  0  0  0  0  0
   59.0906   34.2952   44.8225 H   0  0  0  0  0  0  0  0  0  0  0  0
   57.7973   32.7287   43.3757 H   0  0  0  0  0  0  0  0  0  0  0  0
   58.3828   27.4237   47.7918 H   0  0  0  0  0  0  0  0  0  0  0  0
   59.0843   28.6698   49.8349 H   0  0  0  0  0  0  0  0  0  0  0  0
  1  2  1  0
  2  3  2  0
  2  4  2  0
  2  5  1  0
  5  6  2  0
  6  7  1  0
  7  8  2  0
  8  9  1  0
  9 10  1  0
 10 11  1  0
 11 12  1  0
 12 13  2  0
 12 14  2  0
 12 15  1  0
 15 16  2  0
 16 17  1  0
 17 18  2  0
 18 19  1  0
 19 20  2  0
 19 21  2  0
 19 22  1  0
 22 23  1  0
 23 24  1  0
 24 25  1  0
 25 26  1  0
 26 27  1  0
 18 28  1  0
 28 29  2  0
  8 30  1  0
 30 31  2  0
 31  5  1  0
 29 15  1  0
 27 22  1  0
  1 32  1  0
  1 33  1  0
  6 34  1  0
  7 35  1  0
  9 36  1  0
  9 37  1  0
 10 38  1  0
 10 39  1  0
 16 40  1  0
 17 41  1  0
 23 42  1  0
 23 43  1  0
 24 44  1  0
 24 45  1  0
 25 46  1  0
 25 47  1  0
 26 48  1  0
 26 49  1  0
 27 50  1  0
 27 51  1  0
 28 52  1  0
 29 53  1  0
 30 54  1  0
 31 55  1  0
M  CHG  1  11  -1
M  END
>  <UniqueID>  (93) 
87

>  <SMILES>  (93) 
NS(=O)(=O)c1ccc(CC[N-]S(=O)(=O)c2ccc(S(=O)(=O)N3CCCCC3)cc2)cc1

>  <Energy>  (93) 
54.06836158885098

>  <Genealogy>  (93) 
NS(=O)(=O)c1ccc(CC[N-]S(=O)(=O)c2ccc(S(=O)(=O)N3CCCCC3)cc2)cc1 (protonated)
NS(=O)(=O)c1ccc(CC[N-]S(=O)(=O)c2ccc(S(=O)(=O)N3CCCCC3)cc2)cc1 (3D coordinates assigned)
NS(=O)(=O)c1ccc(CC[N-]S(=O)(=O)c2ccc(S(=O)(=O)N3CCCCC3)cc2)cc1 (nonaromatic ring conformer: 54.06836158885098 kcal/mol)

>  <smiles>  (93) 
NS(=O)(=O)c1ccc(CCNS(=O)(=O)c2ccc(S(=O)(=O)N3CCCCC3)cc2)cc1

>  <score_type>  (93) 
oracle

>  <origin>  (93) 
adg

>  <m_score__min__energy>  (93) 
-12.67

>  <m_primary>  (93) 
energy

$$$$
93:0
     RDKit          3D

 56 59  0  0  0  0  0  0  0  0999 V2000
   57.5890   28.3090   43.2990 N   0  0  0  0  0  0  0  0  0  0  0  0
   56.8680   28.8910   44.7590 S   0  0  0  0  0  0  0  0  0  0  0  0
   55.9900   30.0730   44.4520 O   0  0  0  0  0  0  0  0  0  0  0  0
   56.0220   27.8020   45.3570 O   0  0  0  0  0  0  0  0  0  0  0  0
   58.1290   29.3770   45.8880 C   0  0  0  0  0  0  0  0  0  0  0  0
   59.1310   30.2610   45.4700 C   0  0  0  0  0  0  0  0  0  0  0  0
   60.1450   30.6450   46.3520 C   0  0  0  0  0  0  0  0  0  0  0  0
   60.1790   30.1350   47.6550 C   0  0  0  0  0  0  0  0  0  0  0  0
   61.2190   30.5690   48.5410 N   0  0  0  0  0  0  0  0  0  0  0  0
   61.0510   31.2350   49.7990 C   0  0  0  0  0  0  0  0  0  0  0  0
   62.0730   31.4660   50.4990 O   0  0  0  0  0  0  0  0  0  0  0  0
   59.6910   31.6290   50.3170 C   0  0  0  0  0  0  0  0  0  0  0  0
   59.4120   33.0490   50.0510 N   0  0  0  0  0  0  0  0  0  0  0  0
   59.3820   34.0120   51.1640 C   0  0  0  0  0  0  0  0  0  0  0  0
   59.4440   33.2760   52.5110 C   0  0  0  0  0  0  0  0  0  0  0  0
   58.8760   34.0310   53.7030 C   0  0  0  0  0  0  0  0  0  0  0  0
   58.0960   32.8780   53.0900 C   0  0  0  0  0  0  0  0  0  0  0  0
   59.3490   33.5260   48.6920 C   0  0  0  0  0  0  0  0  0  0  0  0
   58.3380   33.0520   47.8390 C   0  0  0  0  0  0  0  0  0  0  0  0
   58.3170   33.4220   46.4910 C   0  0  0  0  0  0  0  0  0  0  0  0
   57.0520   32.8200   45.4360 Cl  0  0  0  0  0  0  0  0  0  0  0  0
   59.3140   34.2560   45.9800 C   0  0  0  0  0  0  0  0  0  0  0  0
   60.3250   34.7310   46.8170 C   0  0  0  0  0  0  0  0  0  0  0  0
   60.3390   34.3880   48.1740 C   0  0  0  0  0  0  0  0  0  0  0  0
   61.3410   34.9160   48.9930 O   0  0  0  0  0  0  0  0  0  0  0  0
   62.5230   34.2340   49.3080 C   0  0  0  0  0  0  0  0  0  0  0  0
   63.0290   34.3320   50.6110 C   0  0  0  0  0  0  0  0  0  0  0  0
   64.2060   33.6630   50.9640 C   0  0  0  0  0  0  0  0  0  0  0  0
   64.8770   32.8780   50.0210 C   0  0  0  0  0  0  0  0  0  0  0  0
   66.3550   32.0430   50.4620 Cl  0  0  0  0  0  0  0  0  0  0  0  0
   64.3670   32.7590   48.7230 C   0  0  0  0  0  0  0  0  0  0  0  0
   63.1980   33.4370   48.3640 C   0  0  0  0  0  0  0  0  0  0  0  0
   59.1570   29.2710   48.0840 C   0  0  0  0  0  0  0  0  0  0  0  0
   58.1440   28.8870   47.2010 C   0  0  0  0  0  0  0  0  0  0  0  0
   57.7890   29.1440   42.7050 H   0  0  0  0  0  0  0  0  0  0  0  0
   56.8600   27.7510   42.7990 H   0  0  0  0  0  0  0  0  0  0  0  0
   59.1202   30.6550   44.4430 H   0  0  0  0  0  0  0  0  0  0  0  0
   60.9202   31.3515   46.0205 H   0  0  0  0  0  0  0  0  0  0  0  0
   58.9259   31.0138   49.8209 H   0  0  0  0  0  0  0  0  0  0  0  0
   59.6722   31.4678   51.4050 H   0  0  0  0  0  0  0  0  0  0  0  0
   60.2450   34.6890   51.0809 H   0  0  0  0  0  0  0  0  0  0  0  0
   58.4450   34.5860   51.1139 H   0  0  0  0  0  0  0  0  0  0  0  0
   60.3907   32.7565   52.3015 H   0  0  0  0  0  0  0  0  0  0  0  0
   59.3359   33.9178   54.6958 H   0  0  0  0  0  0  0  0  0  0  0  0
   58.6593   35.0866   53.9240 H   0  0  0  0  0  0  0  0  0  0  0  0
   57.9916   31.9309   53.6397 H   0  0  0  0  0  0  0  0  0  0  0  0
   57.0811   32.7544   52.6841 H   0  0  0  0  0  0  0  0  0  0  0  0
   57.5577   32.3852   48.2346 H   0  0  0  0  0  0  0  0  0  0  0  0
   59.3025   34.5388   44.9170 H   0  0  0  0  0  0  0  0  0  0  0  0
   61.1148   35.3782   46.4081 H   0  0  0  0  0  0  0  0  0  0  0  0
   62.4982   34.9379   51.3601 H   0  0  0  0  0  0  0  0  0  0  0  0
   64.6044   33.7547   51.9852 H   0  0  0  0  0  0  0  0  0  0  0  0
   64.8866   32.1312   47.9842 H   0  0  0  0  0  0  0  0  0  0  0  0
   62.8045   33.3474   47.3407 H   0  0  0  0  0  0  0  0  0  0  0  0
   59.1543   28.8958   49.1180 H   0  0  0  0  0  0  0  0  0  0  0  0
   57.3557   28.1977   47.5378 H   0  0  0  0  0  0  0  0  0  0  0  0
  1  2  1  0
  2  3  2  0
  2  4  2  0
  2  5  1  0
  5  6  2  0
  6  7  1  0
  7  8  2  0
  8  9  1  0
  9 10  1  0
 10 11  2  0
 10 12  1  0
 12 13  1  0
 13 14  1  0
 14 15  1  0
 15 16  1  0
 16 17  1  0
 13 18  1  0
 18 19  2  0
 19 20  1  0
 20 21  1  0
 20 22  2  0
 22 23  1  0
 23 24  2  0
 24 25  1  0
 25 26  1  0
 26 27  2  0
 27 28  1  0
 28 29  2  0
 29 30  1  0
 29 31  1  0
 31 32  2  0
  8 33  1  0
 33 34  2  0
 34  5  1  0
 17 15  1  0
 24 18  1  0
 32 26  1  0
  1 35  1  0
  1 36  1  0
  6 37  1  0
  7 38  1  0
 12 39  1  0
 12 40  1  0
 14 41  1  0
 14 42  1  0
 15 43  1  0
 16 44  1  0
 16 45  1  0
 17 46  1  0
 17 47  1  0
 19 48  1  0
 22 49  1  0
 23 50  1  0
 27 51  1  0
 28 52  1  0
 31 53  1  0
 32 54  1  0
 33 55  1  0
 34 56  1  0
M  CHG  1   9  -1
M  END
>  <UniqueID>  (94) 
88

>  <SMILES>  (94) 
NS(=O)(=O)c1ccc([N-]C(=O)CN(CC2CC2)c2cc(Cl)ccc2Oc2ccc(Cl)cc2)cc1

>  <Energy>  (94) 
333.62803268366076

>  <Genealogy>  (94) 
NS(=O)(=O)c1ccc([N-]C(=O)CN(CC2CC2)c2cc(Cl)ccc2Oc2ccc(Cl)cc2)cc1 (protonated)
NS(=O)(=O)c1ccc([N-]C(=O)CN(CC2CC2)c2cc(Cl)ccc2Oc2ccc(Cl)cc2)cc1 (3D coordinates assigned)
NS(=O)(=O)c1ccc([N-]C(=O)CN(CC2CC2)c2cc(Cl)ccc2Oc2ccc(Cl)cc2)cc1 (nonaromatic ring conformer: 333.62803268366076 kcal/mol)

>  <smiles>  (94) 
NS(=O)(=O)c1ccc(NC(=O)CN(CC2CC2)c2cc(Cl)ccc2Oc2ccc(Cl)cc2)cc1

>  <score_type>  (94) 
oracle

>  <origin>  (94) 
adg

>  <m_score__min__energy>  (94) 
-11.35

>  <m_primary>  (94) 
energy

$$$$
