0:0
     RDKit          3D

 48 50  0  0  0  0  0  0  0  0999 V2000
   56.9980   24.5360   43.4070 C   0  0  0  0  0  0  0  0  0  0  0  0
   56.5480   23.1660   43.7980 C   0  0  0  0  0  0  0  0  0  0  0  0
   56.1920   22.2120   42.9160 N   0  0  0  0  0  0  0  0  0  0  0  0
   55.9130   21.1410   43.6030 O   0  0  0  0  0  0  0  0  0  0  0  0
   56.0800   21.3440   44.8900 C   0  0  0  0  0  0  0  0  0  0  0  0
   55.8460   20.3120   45.9430 C   0  0  0  0  0  0  0  0  0  0  0  0
   56.5020   22.6470   45.0780 C   0  0  0  0  0  0  0  0  0  0  0  0
   56.8430   23.3370   46.3680 C   0  0  0  0  0  0  0  0  0  0  0  0
   55.8360   24.3430   46.6900 N   0  0  0  0  0  0  0  0  0  0  0  0
   55.9120   25.7040   46.2590 C   0  0  0  0  0  0  0  0  0  0  0  0
   54.8590   26.3330   45.9640 O   0  0  0  0  0  0  0  0  0  0  0  0
   57.1960   26.3280   46.1270 N   0  0  0  0  0  0  0  0  0  0  0  0
   57.3920   27.7370   45.9190 C   0  0  0  0  0  0  0  0  0  0  0  0
   58.2140   28.4980   46.7700 C   0  0  0  0  0  0  0  0  0  0  0  0
   58.4040   29.8620   46.5340 C   0  0  0  0  0  0  0  0  0  0  0  0
   57.7830   30.4850   45.4420 C   0  0  0  0  0  0  0  0  0  0  0  0
   58.0060   32.2140   45.1580 S   0  0  0  0  0  0  0  0  0  0  0  0
   56.7630   32.9480   45.5790 O   0  0  0  0  0  0  0  0  0  0  0  0
   58.2120   32.4520   43.6890 O   0  0  0  0  0  0  0  0  0  0  0  0
   59.3750   32.8420   46.0480 N   0  0  0  0  0  0  0  0  0  0  0  0
   59.9350   34.0520   45.4060 C   0  0  0  0  0  0  0  0  0  0  0  0
   59.5600   35.3360   46.1680 C   0  0  0  0  0  0  0  0  0  0  0  0
   59.9940   35.3340   47.5210 O   0  0  0  0  0  0  0  0  0  0  0  0
   59.9840   34.0460   48.1250 C   0  0  0  0  0  0  0  0  0  0  0  0
   59.0170   33.0500   47.4630 C   0  0  0  0  0  0  0  0  0  0  0  0
   56.9910   29.7220   44.5740 C   0  0  0  0  0  0  0  0  0  0  0  0
   56.8020   28.3570   44.8090 C   0  0  0  0  0  0  0  0  0  0  0  0
   57.1931   25.1301   44.3120 H   0  0  0  0  0  0  0  0  0  0  0  0
   57.9194   24.4630   42.8106 H   0  0  0  0  0  0  0  0  0  0  0  0
   56.2128   25.0236   42.8106 H   0  0  0  0  0  0  0  0  0  0  0  0
   55.9503   20.7719   46.9368 H   0  0  0  0  0  0  0  0  0  0  0  0
   54.8317   19.9004   45.8341 H   0  0  0  0  0  0  0  0  0  0  0  0
   56.5836   19.5032   45.8341 H   0  0  0  0  0  0  0  0  0  0  0  0
   56.8833   22.5929   47.1771 H   0  0  0  0  0  0  0  0  0  0  0  0
   57.8193   23.8321   46.2599 H   0  0  0  0  0  0  0  0  0  0  0  0
   58.0350   25.7040   46.1080 H   0  0  0  0  0  0  0  0  0  0  0  0
   58.7098   28.0166   47.6258 H   0  0  0  0  0  0  0  0  0  0  0  0
   59.0440   30.4501   47.2083 H   0  0  0  0  0  0  0  0  0  0  0  0
   61.0311   33.9636   45.3771 H   0  0  0  0  0  0  0  0  0  0  0  0
   59.5144   34.1239   44.3921 H   0  0  0  0  0  0  0  0  0  0  0  0
   60.0202   36.1934   45.6550 H   0  0  0  0  0  0  0  0  0  0  0  0
   58.4619   35.3996   46.1783 H   0  0  0  0  0  0  0  0  0  0  0  0
   61.0007   33.6300   48.0685 H   0  0  0  0  0  0  0  0  0  0  0  0
   59.6384   34.1836   49.1602 H   0  0  0  0  0  0  0  0  0  0  0  0
   59.0689   32.0882   47.9942 H   0  0  0  0  0  0  0  0  0  0  0  0
   57.9969   33.4584   47.5145 H   0  0  0  0  0  0  0  0  0  0  0  0
   56.5160   30.1990   43.7040 H   0  0  0  0  0  0  0  0  0  0  0  0
   56.1852   27.7646   44.1171 H   0  0  0  0  0  0  0  0  0  0  0  0
  1  2  1  0
  2  3  2  0
  3  4  1  0
  4  5  1  0
  5  6  1  0
  5  7  2  0
  7  8  1  0
  8  9  1  0
  9 10  1  0
 10 11  2  0
 10 12  1  0
 12 13  1  0
 13 14  2  0
 14 15  1  0
 15 16  2  0
 16 17  1  0
 17 18  2  0
 17 19  2  0
 17 20  1  0
 20 21  1  0
 21 22  1  0
 22 23  1  0
 23 24  1  0
 24 25  1  0
 16 26  1  0
 26 27  2  0
  7  2  1  0
 27 13  1  0
 25 20  1  0
  1 28  1  0
  1 29  1  0
  1 30  1  0
  6 31  1  0
  6 32  1  0
  6 33  1  0
  8 34  1  0
  8 35  1  0
 12 36  1  0
 14 37  1  0
 15 38  1  0
 21 39  1  0
 21 40  1  0
 22 41  1  0
 22 42  1  0
 24 43  1  0
 24 44  1  0
 25 45  1  0
 25 46  1  0
 26 47  1  0
 27 48  1  0
M  CHG  1   9  -1
M  END
>  <UniqueID>  (1) 
1

>  <SMILES>  (1) 
Cc1noc(C)c1C[N-]C(=O)Nc1ccc(S(=O)(=O)N2CCOCC2)cc1

>  <Energy>  (1) 
88.93727975141567

>  <Genealogy>  (1) 
Cc1noc(C)c1C[N-]C(=O)Nc1ccc(S(=O)(=O)N2CCOCC2)cc1 (protonated)
Cc1noc(C)c1C[N-]C(=O)Nc1ccc(S(=O)(=O)N2CCOCC2)cc1 (3D coordinates assigned)
Cc1noc(C)c1C[N-]C(=O)Nc1ccc(S(=O)(=O)N2CCOCC2)cc1 (nonaromatic ring conformer: 88.93727975141567 kcal/mol)

>  <smiles>  (1) 
Cc1noc(C)c1CNC(=O)Nc1ccc(S(=O)(=O)N2CCOCC2)cc1

>  <score_type>  (1) 
oracle

>  <origin>  (1) 
adg

>  <m_score__min__energy>  (1) 
-10.98

>  <m_primary>  (1) 
energy

$$$$
1:0
     RDKit          3D

 55 58  0  0  0  0  0  0  0  0999 V2000
   56.8010   32.3127   51.7566 H   0  0  0  0  0  0  0  0  0  0  0  0
   57.7640   32.3220   51.2250 C   0  0  0  0  0  0  0  0  0  0  0  0
   57.9530   31.5050   50.1490 N   0  0  0  0  0  0  0  0  0  0  0  0
   59.1340   31.4960   49.4620 C   0  0  0  0  0  0  0  0  0  0  0  0
   59.3300   30.6840   48.4510 N   0  0  0  0  0  0  0  0  0  0  0  0
   59.6210   31.1050   47.1140 C   0  0  0  0  0  0  0  0  0  0  0  0
   60.6000   30.6010   46.4820 O   0  0  0  0  0  0  0  0  0  0  0  0
   58.7820   32.1250   46.4710 C   0  0  0  0  0  0  0  0  0  0  0  0
   58.9360   33.4630   46.8760 C   0  0  0  0  0  0  0  0  0  0  0  0
   59.6476   33.7141   47.6763 H   0  0  0  0  0  0  0  0  0  0  0  0
   58.1910   34.4730   46.2680 C   0  0  0  0  0  0  0  0  0  0  0  0
   58.3177   35.5175   46.5890 H   0  0  0  0  0  0  0  0  0  0  0  0
   57.2840   34.1610   45.2520 C   0  0  0  0  0  0  0  0  0  0  0  0
   56.6886   34.9590   44.7844 H   0  0  0  0  0  0  0  0  0  0  0  0
   57.1310   32.8380   44.8280 C   0  0  0  0  0  0  0  0  0  0  0  0
   56.4048   32.5957   44.0381 H   0  0  0  0  0  0  0  0  0  0  0  0
   57.9050   31.8130   45.4100 C   0  0  0  0  0  0  0  0  0  0  0  0
   57.8980   30.4880   44.8540 N   0  0  0  0  0  0  0  0  0  0  0  0
   57.0040   29.4320   45.2440 C   0  0  0  0  0  0  0  0  0  0  0  0
   55.7680   29.6060   45.1020 O   0  0  0  0  0  0  0  0  0  0  0  0
   57.4970   28.1520   45.8220 C   0  0  0  0  0  0  0  0  0  0  0  0
   58.8190   28.0220   46.2840 C   0  0  0  0  0  0  0  0  0  0  0  0
   59.4937   28.8904   46.2569 H   0  0  0  0  0  0  0  0  0  0  0  0
   59.2830   26.8000   46.7770 C   0  0  0  0  0  0  0  0  0  0  0  0
   60.3203   26.7111   47.1321 H   0  0  0  0  0  0  0  0  0  0  0  0
   58.4350   25.6900   46.8210 C   0  0  0  0  0  0  0  0  0  0  0  0
   58.8063   24.7267   47.2008 H   0  0  0  0  0  0  0  0  0  0  0  0
   57.1110   25.8080   46.3800 C   0  0  0  0  0  0  0  0  0  0  0  0
   56.4443   24.9333   46.4030 H   0  0  0  0  0  0  0  0  0  0  0  0
   56.6340   27.0400   45.9090 C   0  0  0  0  0  0  0  0  0  0  0  0
   55.5813   27.1394   45.6059 H   0  0  0  0  0  0  0  0  0  0  0  0
   60.1830   32.3380   49.8650 C   0  0  0  0  0  0  0  0  0  0  0  0
   61.3850   32.4400   49.0870 N   0  0  0  0  0  0  0  0  0  0  0  0
   62.2290   31.2380   48.9280 C   0  0  0  0  0  0  0  0  0  0  0  0
   61.5820   30.3862   48.6714 H   0  0  0  0  0  0  0  0  0  0  0  0
   62.7583   31.0779   49.8789 H   0  0  0  0  0  0  0  0  0  0  0  0
   63.2910   31.3950   47.8300 C   0  0  0  0  0  0  0  0  0  0  0  0
   62.8241   31.1763   46.8583 H   0  0  0  0  0  0  0  0  0  0  0  0
   64.1077   30.6959   48.0630 H   0  0  0  0  0  0  0  0  0  0  0  0
   63.8780   32.7550   47.7750 N   0  0  0  0  0  0  0  0  0  0  0  0
   64.5420   32.7770   46.9610 H   0  0  0  0  0  0  0  0  0  0  0  0
   64.6550   33.1000   48.9890 C   0  0  0  0  0  0  0  0  0  0  0  0
   64.0708   32.8406   49.8842 H   0  0  0  0  0  0  0  0  0  0  0  0
   65.5999   32.5369   48.9919 H   0  0  0  0  0  0  0  0  0  0  0  0
   64.8710   34.1786   48.9919 H   0  0  0  0  0  0  0  0  0  0  0  0
   62.8140   33.7400   47.5000 C   0  0  0  0  0  0  0  0  0  0  0  0
   62.3103   33.4666   46.5611 H   0  0  0  0  0  0  0  0  0  0  0  0
   63.2802   34.7335   47.4251 H   0  0  0  0  0  0  0  0  0  0  0  0
   61.7720   33.7870   48.6270 C   0  0  0  0  0  0  0  0  0  0  0  0
   60.8751   34.3063   48.2583 H   0  0  0  0  0  0  0  0  0  0  0  0
   62.2212   34.3179   49.4793 H   0  0  0  0  0  0  0  0  0  0  0  0
   59.9980   33.1800   50.9650 C   0  0  0  0  0  0  0  0  0  0  0  0
   60.8090   33.8504   51.2856 H   0  0  0  0  0  0  0  0  0  0  0  0
   58.7890   33.1720   51.6560 C   0  0  0  0  0  0  0  0  0  0  0  0
   58.6416   33.8250   52.5289 H   0  0  0  0  0  0  0  0  0  0  0  0
  1  2  1  0
  2  3  1  0
  3  4  1  0
  4  5  2  0
  5  6  1  0
  6  7  2  0
  6  8  1  0
  8  9  2  0
  9 10  1  0
  9 11  1  0
 11 12  1  0
 11 13  2  0
 13 14  1  0
 13 15  1  0
 15 16  1  0
 15 17  2  0
 17 18  1  0
 18 19  1  0
 19 20  2  0
 19 21  1  0
 21 22  2  0
 22 23  1  0
 22 24  1  0
 24 25  1  0
 24 26  2  0
 26 27  1  0
 26 28  1  0
 28 29  1  0
 28 30  2  0
 30 31  1  0
  4 32  1  0
 32 33  1  0
 33 34  1  0
 34 35  1  0
 34 36  1  0
 34 37  1  0
 37 38  1  0
 37 39  1  0
 37 40  1  0
 40 41  1  0
 40 42  1  0
 42 43  1  0
 42 44  1  0
 42 45  1  0
 40 46  1  0
 46 47  1  0
 46 48  1  0
 46 49  1  0
 49 50  1  0
 49 51  1  0
 32 52  2  0
 52 53  1  0
 52 54  1  0
 54 55  1  0
 54  2  2  0
 17  8  1  0
 30 21  1  0
 49 33  1  0
M  CHG  3   3  -1  18  -1  40   1
M  END
>  <UniqueID>  (2) 
2

>  <SMILES>  (2) 
C[NH+]1CCN(c2ccc[n-]/c2=N\C(=O)c2ccccc2[N-]C(=O)c2ccccc2)CC1

>  <Energy>  (2) 
88.6900879957268

>  <Genealogy>  (2) 
C[NH+]1CCN(c2ccc[n-]c2=NC(=O)c2ccccc2[N-]C(=O)c2ccccc2)CC1 (protonated)
C[NH+]1CCN(c2ccc[n-]/c2=N\C(=O)c2ccccc2[N-]C(=O)c2ccccc2)CC1 (cis-trans isomerization)
C[NH+]1CCN(c2ccc[n-]/c2=N\C(=O)c2ccccc2[N-]C(=O)c2ccccc2)CC1 (3D coordinates assigned)
C[NH+]1CCN(c2ccc[n-]/c2=N\C(=O)c2ccccc2[N-]C(=O)c2ccccc2)CC1 (nonaromatic ring conformer: 88.6900879957268 kcal/mol)

>  <smiles>  (2) 
CN1CCN(c2ccc[nH]c2=NC(=O)c2ccccc2NC(=O)c2ccccc2)CC1

>  <score_type>  (2) 
oracle

>  <origin>  (2) 
adg

>  <m_score__min__energy>  (2) 
-11.49

>  <m_primary>  (2) 
energy

$$$$
2:0
     RDKit          3D

 76 81  0  0  0  0  0  0  0  0999 V2000
   58.0860   32.8020   51.7440 O   0  0  0  0  0  0  0  0  0  0  0  0
   58.4180   32.1070   50.7500 C   0  0  0  0  0  0  0  0  0  0  0  0
   58.4470   30.6180   50.8550 C   0  0  0  0  0  0  0  0  0  0  0  0
   59.5520   30.1740   51.8160 C   0  0  0  0  0  0  0  0  0  0  0  0
   60.7980   29.7780   51.0310 C   0  0  0  0  0  0  0  0  0  0  0  0
   61.2810   30.8940   50.2030 N   0  0  0  0  0  0  0  0  0  0  0  0
   62.0020   31.9350   50.7500 C   0  0  0  0  0  0  0  0  0  0  0  0
   62.1400   32.0040   52.0070 O   0  0  0  0  0  0  0  0  0  0  0  0
   62.6140   32.8840   49.9340 N   0  0  0  0  0  0  0  0  0  0  0  0
   63.3170   34.0390   50.5350 C   0  0  0  0  0  0  0  0  0  0  0  0
   64.7890   33.7280   50.7480 C   0  0  0  0  0  0  0  0  0  0  0  0
   65.4020   32.7290   49.9600 C   0  0  0  0  0  0  0  0  0  0  0  0
   66.7300   32.3600   50.1750 C   0  0  0  0  0  0  0  0  0  0  0  0
   67.4670   32.9760   51.1850 C   0  0  0  0  0  0  0  0  0  0  0  0
   66.8860   33.9830   51.9600 C   0  0  0  0  0  0  0  0  0  0  0  0
   65.5590   34.3750   51.7450 C   0  0  0  0  0  0  0  0  0  0  0  0
   64.9310   35.7020   52.7190 Cl  0  0  0  0  0  0  0  0  0  0  0  0
   62.5280   32.7610   48.5600 C   0  0  0  0  0  0  0  0  0  0  0  0
   63.1700   33.5240   47.7870 O   0  0  0  0  0  0  0  0  0  0  0  0
   61.7280   31.7610   48.0410 C   0  0  0  0  0  0  0  0  0  0  0  0
   61.4560   31.4910   46.7550 N   0  0  0  0  0  0  0  0  0  0  0  0
   60.6250   30.4150   46.8710 C   0  0  0  0  0  0  0  0  0  0  0  0
   60.0570   29.7540   45.7240 N   0  0  0  0  0  0  0  0  0  0  0  0
   58.6750   29.9680   45.3260 C   0  0  0  0  0  0  0  0  0  0  0  0
   57.8080   28.8330   45.8680 C   0  0  0  0  0  0  0  0  0  0  0  0
   58.4650   27.5000   45.9030 N   0  0  0  0  0  0  0  0  0  0  0  0
   57.6720   26.3440   46.3250 C   0  0  0  0  0  0  0  0  0  0  0  0
   58.0500   25.5680   47.4490 C   0  0  0  0  0  0  0  0  0  0  0  0
   57.2980   24.4590   47.8410 C   0  0  0  0  0  0  0  0  0  0  0  0
   56.1530   24.0980   47.1290 C   0  0  0  0  0  0  0  0  0  0  0  0
   55.7490   24.8500   46.0280 C   0  0  0  0  0  0  0  0  0  0  0  0
   56.4930   25.9640   45.6270 C   0  0  0  0  0  0  0  0  0  0  0  0
   59.9250   27.3180   45.6870 C   0  0  0  0  0  0  0  0  0  0  0  0
   60.6590   28.5560   45.1600 C   0  0  0  0  0  0  0  0  0  0  0  0
   60.3920   30.0020   48.1440 N   0  0  0  0  0  0  0  0  0  0  0  0
   61.1110   30.8810   48.8570 C   0  0  0  0  0  0  0  0  0  0  0  0
   58.7530   32.7370   49.5090 N   0  0  0  0  0  0  0  0  0  0  0  0
   58.1490   32.3610   48.2370 C   0  0  0  0  0  0  0  0  0  0  0  0
   58.5280   33.3770   47.1900 C   0  0  0  0  0  0  0  0  0  0  0  0
   59.5210   34.3410   47.4510 C   0  0  0  0  0  0  0  0  0  0  0  0
   59.9260   35.2170   46.4400 C   0  0  0  0  0  0  0  0  0  0  0  0
   59.3580   35.1340   45.1670 C   0  0  0  0  0  0  0  0  0  0  0  0
   58.3660   34.1890   44.9010 C   0  0  0  0  0  0  0  0  0  0  0  0
   57.9380   33.3230   45.9090 C   0  0  0  0  0  0  0  0  0  0  0  0
   56.9810   32.3980   45.6260 F   0  0  0  0  0  0  0  0  0  0  0  0
   57.4759   30.2618   51.2294 H   0  0  0  0  0  0  0  0  0  0  0  0
   58.6465   30.1933   49.8601 H   0  0  0  0  0  0  0  0  0  0  0  0
   59.7980   31.0028   52.4961 H   0  0  0  0  0  0  0  0  0  0  0  0
   59.2000   29.3078   52.3955 H   0  0  0  0  0  0  0  0  0  0  0  0
   61.5894   29.4861   51.7370 H   0  0  0  0  0  0  0  0  0  0  0  0
   60.5407   28.9383   50.3687 H   0  0  0  0  0  0  0  0  0  0  0  0
   63.2256   34.9053   49.8633 H   0  0  0  0  0  0  0  0  0  0  0  0
   62.8599   34.2591   51.5110 H   0  0  0  0  0  0  0  0  0  0  0  0
   64.8239   32.2348   49.1653 H   0  0  0  0  0  0  0  0  0  0  0  0
   67.1947   31.5843   49.5486 H   0  0  0  0  0  0  0  0  0  0  0  0
   68.5067   32.6692   51.3721 H   0  0  0  0  0  0  0  0  0  0  0  0
   67.4774   34.4731   52.7475 H   0  0  0  0  0  0  0  0  0  0  0  0
   58.3205   30.9266   45.7326 H   0  0  0  0  0  0  0  0  0  0  0  0
   58.6083   29.9885   44.2282 H   0  0  0  0  0  0  0  0  0  0  0  0
   57.5089   29.0927   46.8942 H   0  0  0  0  0  0  0  0  0  0  0  0
   56.9588   28.7382   45.1753 H   0  0  0  0  0  0  0  0  0  0  0  0
   58.9486   25.8434   48.0206 H   0  0  0  0  0  0  0  0  0  0  0  0
   57.6091   23.8673   48.7145 H   0  0  0  0  0  0  0  0  0  0  0  0
   55.5688   23.2185   47.4376 H   0  0  0  0  0  0  0  0  0  0  0  0
   54.8426   24.5668   45.4728 H   0  0  0  0  0  0  0  0  0  0  0  0
   56.1617   26.5543   44.7599 H   0  0  0  0  0  0  0  0  0  0  0  0
   60.3797   27.0344   46.6476 H   0  0  0  0  0  0  0  0  0  0  0  0
   60.0279   26.5450   44.9112 H   0  0  0  0  0  0  0  0  0  0  0  0
   61.7184   28.5059   45.4518 H   0  0  0  0  0  0  0  0  0  0  0  0
   60.5816   28.5886   44.0632 H   0  0  0  0  0  0  0  0  0  0  0  0
   58.5139   31.3681   47.9355 H   0  0  0  0  0  0  0  0  0  0  0  0
   57.0545   32.3288   48.3423 H   0  0  0  0  0  0  0  0  0  0  0  0
   59.9775   34.4045   48.4498 H   0  0  0  0  0  0  0  0  0  0  0  0
   60.6955   35.9751   46.6480 H   0  0  0  0  0  0  0  0  0  0  0  0
   59.6935   35.8155   44.3714 H   0  0  0  0  0  0  0  0  0  0  0  0
   57.9212   34.1265   43.8969 H   0  0  0  0  0  0  0  0  0  0  0  0
  1  2  2  0
  2  3  1  0
  3  4  1  0
  4  5  1  0
  5  6  1  0
  6  7  1  0
  7  8  2  0
  7  9  1  0
  9 10  1  0
 10 11  1  0
 11 12  2  0
 12 13  1  0
 13 14  2  0
 14 15  1  0
 15 16  2  0
 16 17  1  0
  9 18  1  0
 18 19  2  0
 18 20  1  0
 20 21  1  0
 21 22  1  0
 22 23  1  0
 23 24  1  0
 24 25  1  0
 25 26  1  0
 26 27  1  0
 27 28  2  0
 28 29  1  0
 29 30  2  0
 30 31  1  0
 31 32  2  0
 26 33  1  0
 33 34  1  0
 22 35  2  0
 35 36  1  0
  2 37  1  0
 37 38  1  0
 38 39  1  0
 39 40  2  0
 40 41  1  0
 41 42  2  0
 42 43  1  0
 43 44  2  0
 44 45  1  0
 36  6  1  0
 44 39  1  0
 16 11  1  0
 36 20  2  0
 34 23  1  0
 32 27  1  0
  3 46  1  0
  3 47  1  0
  4 48  1  0
  4 49  1  0
  5 50  1  0
  5 51  1  0
 10 52  1  0
 10 53  1  0
 12 54  1  0
 13 55  1  0
 14 56  1  0
 15 57  1  0
 24 58  1  0
 24 59  1  0
 25 60  1  0
 25 61  1  0
 28 62  1  0
 29 63  1  0
 30 64  1  0
 31 65  1  0
 32 66  1  0
 33 67  1  0
 33 68  1  0
 34 69  1  0
 34 70  1  0
 38 71  1  0
 38 72  1  0
 40 73  1  0
 41 74  1  0
 42 75  1  0
 43 76  1  0
M  CHG  2  21  -1  37  -1
M  END
>  <UniqueID>  (3) 
3

>  <SMILES>  (3) 
O=C(CCCn1c(=O)n(Cc2ccccc2Cl)c(=O)c2[n-]c(N3CCN(c4ccccc4)CC3)nc21)[N-]Cc1ccccc1F

>  <Energy>  (3) 
132.60732301170086

>  <Genealogy>  (3) 
O=C(CCCn1c(=O)n(Cc2ccccc2Cl)c(=O)c2[n-]c(N3CCN(c4ccccc4)CC3)nc21)[N-]Cc1ccccc1F (protonated)
O=C(CCCn1c(=O)n(Cc2ccccc2Cl)c(=O)c2[n-]c(N3CCN(c4ccccc4)CC3)nc21)[N-]Cc1ccccc1F (3D coordinates assigned)
O=C(CCCn1c(=O)n(Cc2ccccc2Cl)c(=O)c2[n-]c(N3CCN(c4ccccc4)CC3)nc21)[N-]Cc1ccccc1F (nonaromatic ring conformer: 132.60732301170086 kcal/mol)

>  <smiles>  (3) 
O=C(CCCn1c(=O)n(Cc2ccccc2Cl)c(=O)c2[nH]c(N3CCN(c4ccccc4)CC3)nc21)NCc1ccccc1F

>  <score_type>  (3) 
oracle

>  <origin>  (3) 
adg

>  <m_score__min__energy>  (3) 
-12.82

>  <m_primary>  (3) 
energy

$$$$
3:0
     RDKit          3D

 38 40  0  0  0  0  0  0  0  0999 V2000
   57.8140   30.6770   46.6840 O   0  0  0  0  0  0  0  0  0  0  0  0
   58.8330   31.4310   46.7310 C   0  0  0  0  0  0  0  0  0  0  0  0
   60.0200   30.8120   46.9810 N   0  0  0  0  0  0  0  0  0  0  0  0
   61.1320   31.5890   47.0380 C   0  0  0  0  0  0  0  0  0  0  0  0
   61.0750   32.9580   46.8510 C   0  0  0  0  0  0  0  0  0  0  0  0
   62.3310   33.7690   46.9220 C   0  0  0  0  0  0  0  0  0  0  0  0
   62.9900   33.6430   48.2310 C   0  0  0  0  0  0  0  0  0  0  0  0
   64.1990   32.9970   48.4280 C   0  0  0  0  0  0  0  0  0  0  0  0
   64.7380   32.9330   49.7040 C   0  0  0  0  0  0  0  0  0  0  0  0
   64.1110   33.4940   50.7970 C   0  0  0  0  0  0  0  0  0  0  0  0
   62.9100   34.1300   50.5730 C   0  0  0  0  0  0  0  0  0  0  0  0
   62.3310   34.2210   49.3210 C   0  0  0  0  0  0  0  0  0  0  0  0
   59.8670   33.5390   46.6030 C   0  0  0  0  0  0  0  0  0  0  0  0
   59.8140   34.7880   46.4310 O   0  0  0  0  0  0  0  0  0  0  0  0
   58.7590   32.7630   46.5460 N   0  0  0  0  0  0  0  0  0  0  0  0
   57.4720   33.3780   46.2840 C   0  0  0  0  0  0  0  0  0  0  0  0
   57.3670   33.9630   44.8910 C   0  0  0  0  0  0  0  0  0  0  0  0
   58.1410   32.7250   43.7800 S   0  0  0  0  0  0  0  0  0  0  0  0
   57.0630   31.3360   43.5900 C   0  0  0  0  0  0  0  0  0  0  0  0
   56.2750   30.7690   44.5100 N   0  0  0  0  0  0  0  0  0  0  0  0
   55.6230   29.7280   43.9210 C   0  0  0  0  0  0  0  0  0  0  0  0
   56.0250   29.6660   42.6270 N   0  0  0  0  0  0  0  0  0  0  0  0
   56.8880   30.6420   42.4540 N   0  0  0  0  0  0  0  0  0  0  0  0
   60.0620   29.7840   47.1210 H   0  0  0  0  0  0  0  0  0  0  0  0
   62.1050   31.1166   47.2384 H   0  0  0  0  0  0  0  0  0  0  0  0
   63.0230   33.4226   46.1403 H   0  0  0  0  0  0  0  0  0  0  0  0
   62.0641   34.8258   46.7742 H   0  0  0  0  0  0  0  0  0  0  0  0
   64.7274   32.5384   47.5792 H   0  0  0  0  0  0  0  0  0  0  0  0
   65.6986   32.4171   49.8495 H   0  0  0  0  0  0  0  0  0  0  0  0
   64.5509   33.4360   51.8035 H   0  0  0  0  0  0  0  0  0  0  0  0
   62.3887   34.5855   51.4278 H   0  0  0  0  0  0  0  0  0  0  0  0
   61.3699   34.7383   49.1845 H   0  0  0  0  0  0  0  0  0  0  0  0
   56.6884   32.6153   46.4036 H   0  0  0  0  0  0  0  0  0  0  0  0
   57.3522   34.2062   46.9980 H   0  0  0  0  0  0  0  0  0  0  0  0
   56.3129   34.1188   44.6179 H   0  0  0  0  0  0  0  0  0  0  0  0
   57.8642   34.9417   44.8208 H   0  0  0  0  0  0  0  0  0  0  0  0
   54.8996   29.0574   44.4079 H   0  0  0  0  0  0  0  0  0  0  0  0
   55.6960   28.9650   41.9160 H   0  0  0  0  0  0  0  0  0  0  0  0
  1  2  2  0
  2  3  1  0
  3  4  1  0
  4  5  2  0
  5  6  1  0
  6  7  1  0
  7  8  2  0
  8  9  1  0
  9 10  2  0
 10 11  1  0
 11 12  2  0
  5 13  1  0
 13 14  2  0
 13 15  1  0
 15 16  1  0
 16 17  1  0
 17 18  1  0
 18 19  1  0
 19 20  1  0
 20 21  2  0
 21 22  1  0
 22 23  1  0
 15  2  1  0
 23 19  2  0
 12  7  1  0
  3 24  1  0
  4 25  1  0
  6 26  1  0
  6 27  1  0
  8 28  1  0
  9 29  1  0
 10 30  1  0
 11 31  1  0
 12 32  1  0
 16 33  1  0
 16 34  1  0
 17 35  1  0
 17 36  1  0
 21 37  1  0
 22 38  1  0
M  END
>  <smiles>  (4) 
O=c1[nH]cc(Cc2ccccc2)c(=O)n1CCSc1nc[nH]n1

>  <score_type>  (4) 
oracle

>  <origin>  (4) 
adg

>  <m_score__min__energy>  (4) 
-7.5300000000000002

>  <m_primary>  (4) 
energy

$$$$
4:0
     RDKit          3D

 48 50  0  0  0  0  0  0  0  0999 V2000
   61.3900   29.0110   49.9450 O   0  0  0  0  0  0  0  0  0  0  0  0
   61.9030   30.1530   49.8030 C   0  0  0  0  0  0  0  0  0  0  0  0
   62.8680   30.6500   50.8350 C   0  0  0  0  0  0  0  0  0  0  0  0
   63.3010   31.9610   50.4820 O   0  0  0  0  0  0  0  0  0  0  0  0
   64.4790   32.2110   49.7700 C   0  0  0  0  0  0  0  0  0  0  0  0
   65.5600   31.6520   50.0970 O   0  0  0  0  0  0  0  0  0  0  0  0
   64.4420   33.1070   48.5760 C   0  0  0  0  0  0  0  0  0  0  0  0
   63.1220   33.7140   48.4560 N   0  0  0  0  0  0  0  0  0  0  0  0
   62.4290   33.8640   47.2110 C   0  0  0  0  0  0  0  0  0  0  0  0
   63.0690   33.8870   46.1250 O   0  0  0  0  0  0  0  0  0  0  0  0
   60.9680   33.9960   47.1940 C   0  0  0  0  0  0  0  0  0  0  0  0
   60.2100   34.4960   46.1540 C   0  0  0  0  0  0  0  0  0  0  0  0
   58.9020   34.4210   46.5800 C   0  0  0  0  0  0  0  0  0  0  0  0
   58.9420   33.8830   47.8500 C   0  0  0  0  0  0  0  0  0  0  0  0
   60.1880   33.6390   48.1880 O   0  0  0  0  0  0  0  0  0  0  0  0
   61.4840   31.0170   48.7330 N   0  0  0  0  0  0  0  0  0  0  0  0
   60.3870   30.7180   47.8560 C   0  0  0  0  0  0  0  0  0  0  0  0
   60.5100   30.9830   46.4860 C   0  0  0  0  0  0  0  0  0  0  0  0
   59.4500   30.7200   45.6150 C   0  0  0  0  0  0  0  0  0  0  0  0
   58.2470   30.1800   46.1010 C   0  0  0  0  0  0  0  0  0  0  0  0
   57.1180   29.9270   45.1760 C   0  0  0  0  0  0  0  0  0  0  0  0
   56.6610   30.8770   44.4850 O   0  0  0  0  0  0  0  0  0  0  0  0
   56.5510   28.6210   45.0010 N   0  0  0  0  0  0  0  0  0  0  0  0
   57.0600   27.3910   45.5410 C   0  0  0  0  0  0  0  0  0  0  0  0
   58.4420   27.1370   45.6170 C   0  0  0  0  0  0  0  0  0  0  0  0
   58.9100   25.9380   46.1610 C   0  0  0  0  0  0  0  0  0  0  0  0
   58.0060   24.9900   46.6470 C   0  0  0  0  0  0  0  0  0  0  0  0
   56.6330   25.2450   46.5970 C   0  0  0  0  0  0  0  0  0  0  0  0
   56.1590   26.4420   46.0500 C   0  0  0  0  0  0  0  0  0  0  0  0
   54.7910   26.6840   46.0090 O   0  0  0  0  0  0  0  0  0  0  0  0
   58.1450   29.8620   47.4660 C   0  0  0  0  0  0  0  0  0  0  0  0
   59.2060   30.1300   48.3380 C   0  0  0  0  0  0  0  0  0  0  0  0
   62.3734   30.6783   51.8171 H   0  0  0  0  0  0  0  0  0  0  0  0
   63.7358   29.9757   50.8832 H   0  0  0  0  0  0  0  0  0  0  0  0
   65.1987   33.8974   48.6887 H   0  0  0  0  0  0  0  0  0  0  0  0
   64.6546   32.5172   47.6721 H   0  0  0  0  0  0  0  0  0  0  0  0
   60.5742   34.8749   45.1877 H   0  0  0  0  0  0  0  0  0  0  0  0
   58.0062   34.7282   46.0204 H   0  0  0  0  0  0  0  0  0  0  0  0
   58.0640   33.6880   48.4833 H   0  0  0  0  0  0  0  0  0  0  0  0
   61.8690   31.9880   48.7120 H   0  0  0  0  0  0  0  0  0  0  0  0
   61.4484   31.4014   46.0931 H   0  0  0  0  0  0  0  0  0  0  0  0
   59.5576   30.9369   44.5420 H   0  0  0  0  0  0  0  0  0  0  0  0
   59.1574   27.8859   45.2464 H   0  0  0  0  0  0  0  0  0  0  0  0
   59.9911   25.7403   46.2067 H   0  0  0  0  0  0  0  0  0  0  0  0
   58.3749   24.0434   47.0688 H   0  0  0  0  0  0  0  0  0  0  0  0
   55.9227   24.5021   46.9890 H   0  0  0  0  0  0  0  0  0  0  0  0
   57.2247   29.3992   47.8517 H   0  0  0  0  0  0  0  0  0  0  0  0
   59.1148   29.8792   49.4051 H   0  0  0  0  0  0  0  0  0  0  0  0
  1  2  2  0
  2  3  1  0
  3  4  1  0
  4  5  1  0
  5  6  2  0
  5  7  1  0
  7  8  1  0
  8  9  1  0
  9 10  2  0
  9 11  1  0
 11 12  2  0
 12 13  1  0
 13 14  2  0
 14 15  1  0
  2 16  1  0
 16 17  1  0
 17 18  2  0
 18 19  1  0
 19 20  2  0
 20 21  1  0
 21 22  2  0
 21 23  1  0
 23 24  1  0
 24 25  2  0
 25 26  1  0
 26 27  2  0
 27 28  1  0
 28 29  2  0
 29 30  1  0
 20 31  1  0
 31 32  2  0
 15 11  1  0
 32 17  1  0
 29 24  1  0
  3 33  1  0
  3 34  1  0
  7 35  1  0
  7 36  1  0
 12 37  1  0
 13 38  1  0
 14 39  1  0
 16 40  1  0
 18 41  1  0
 19 42  1  0
 25 43  1  0
 26 44  1  0
 27 45  1  0
 28 46  1  0
 31 47  1  0
 32 48  1  0
M  CHG  3   8  -1  23  -1  30  -1
M  END
>  <UniqueID>  (5) 
4

>  <SMILES>  (5) 
O=C(COC(=O)C[N-]C(=O)c1ccco1)Nc1ccc(C(=O)[N-]c2ccccc2[O-])cc1

>  <Energy>  (5) 
76.32473848336674

>  <Genealogy>  (5) 
O=C(COC(=O)C[N-]C(=O)c1ccco1)Nc1ccc(C(=O)[N-]c2ccccc2[O-])cc1 (protonated)
O=C(COC(=O)C[N-]C(=O)c1ccco1)Nc1ccc(C(=O)[N-]c2ccccc2[O-])cc1 (3D coordinates assigned)
O=C(COC(=O)C[N-]C(=O)c1ccco1)Nc1ccc(C(=O)[N-]c2ccccc2[O-])cc1 (optimized conformer: 76.32473848336674 kcal/mol)

>  <smiles>  (5) 
O=C(COC(=O)CNC(=O)c1ccco1)Nc1ccc(C(=O)Nc2ccccc2O)cc1

>  <score_type>  (5) 
oracle

>  <origin>  (5) 
adg

>  <m_score__min__energy>  (5) 
-14.43

>  <m_primary>  (5) 
energy

$$$$
5:0
     RDKit          3D

 30 32  0  0  0  0  0  0  0  0999 V2000
   58.0170   28.7780   47.0500 C   0  0  0  0  0  0  0  0  0  0  0  0
   57.2970   29.4560   45.9750 N   0  0  0  0  0  0  0  0  0  0  0  0
   57.4870   30.7050   45.4860 C   0  0  0  0  0  0  0  0  0  0  0  0
   58.4820   31.6140   45.9780 N   0  0  0  0  0  0  0  0  0  0  0  0
   58.1560   33.0360   46.0880 C   0  0  0  0  0  0  0  0  0  0  0  0
   59.3740   33.8720   45.6980 C   0  0  0  0  0  0  0  0  0  0  0  0
   60.6290   33.3780   46.3700 C   0  0  0  0  0  0  0  0  0  0  0  0
   61.7500   34.2110   46.4650 C   0  0  0  0  0  0  0  0  0  0  0  0
   62.9010   33.7450   47.0120 N   0  0  0  0  0  0  0  0  0  0  0  0
   62.9920   32.4690   47.4670 C   0  0  0  0  0  0  0  0  0  0  0  0
   64.0670   32.0590   47.9760 O   0  0  0  0  0  0  0  0  0  0  0  0
   61.9240   31.6360   47.3730 N   0  0  0  0  0  0  0  0  0  0  0  0
   60.7510   32.0500   46.8250 C   0  0  0  0  0  0  0  0  0  0  0  0
   59.5890   31.0940   46.7880 C   0  0  0  0  0  0  0  0  0  0  0  0
   56.6580   31.0110   44.4590 N   0  0  0  0  0  0  0  0  0  0  0  0
   55.9040   29.9010   44.3270 C   0  0  0  0  0  0  0  0  0  0  0  0
   54.8920   29.7510   43.3850 O   0  0  0  0  0  0  0  0  0  0  0  0
   56.2860   28.9590   45.2470 C   0  0  0  0  0  0  0  0  0  0  0  0
   55.7350   27.6930   45.4070 O   0  0  0  0  0  0  0  0  0  0  0  0
   57.6421   29.1311   48.0220 H   0  0  0  0  0  0  0  0  0  0  0  0
   57.8598   27.6923   46.9688 H   0  0  0  0  0  0  0  0  0  0  0  0
   59.0913   29.0001   46.9688 H   0  0  0  0  0  0  0  0  0  0  0  0
   57.3186   33.2728   45.4152 H   0  0  0  0  0  0  0  0  0  0  0  0
   57.8712   33.2666   47.1252 H   0  0  0  0  0  0  0  0  0  0  0  0
   59.5088   33.8180   44.6076 H   0  0  0  0  0  0  0  0  0  0  0  0
   59.1966   34.9078   46.0231 H   0  0  0  0  0  0  0  0  0  0  0  0
   61.6977   35.2457   46.0954 H   0  0  0  0  0  0  0  0  0  0  0  0
   59.9268   30.1393   46.3585 H   0  0  0  0  0  0  0  0  0  0  0  0
   59.2253   30.9576   47.8171 H   0  0  0  0  0  0  0  0  0  0  0  0
   54.9620   29.0450   42.6620 H   0  0  0  0  0  0  0  0  0  0  0  0
  1  2  1  0
  2  3  1  0
  3  4  1  0
  4  5  1  0
  5  6  1  0
  6  7  1  0
  7  8  1  0
  8  9  2  0
  9 10  1  0
 10 11  2  0
 10 12  1  0
 12 13  1  0
 13 14  1  0
  3 15  2  0
 15 16  1  0
 16 17  1  0
 16 18  2  0
 18 19  1  0
 18  2  1  0
 14  4  1  0
 13  7  2  0
  1 20  1  0
  1 21  1  0
  1 22  1  0
  5 23  1  0
  5 24  1  0
  6 25  1  0
  6 26  1  0
  8 27  1  0
 14 28  1  0
 14 29  1  0
 17 30  1  0
M  CHG  2  12  -1  19  -1
M  END
>  <UniqueID>  (6) 
5

>  <SMILES>  (6) 
Cn1c(N2CCc3cnc(=O)[n-]c3C2)nc(O)c1[O-]

>  <Energy>  (6) 
69.44165427189033

>  <Genealogy>  (6) 
Cn1c(N2CCc3cnc(=O)[n-]c3C2)nc(O)c1[O-] (protonated)
Cn1c(N2CCc3cnc(=O)[n-]c3C2)nc(O)c1[O-] (3D coordinates assigned)
Cn1c(N2CCc3cnc(=O)[n-]c3C2)nc(O)c1[O-] (nonaromatic ring conformer: 69.44165427189033 kcal/mol)

>  <smiles>  (6) 
Cn1c(N2CCc3cnc(=O)[nH]c3C2)nc(O)c1O

>  <score_type>  (6) 
oracle

>  <origin>  (6) 
adg

>  <m_score__min__energy>  (6) 
-10.539999999999999

>  <m_primary>  (6) 
energy

$$$$
6:0
     RDKit          3D

 53 56  0  0  0  0  0  0  0  0999 V2000
   58.2033   30.8063   42.8301 H   0  0  0  0  0  0  0  0  0  0  0  0
   58.0200   30.4980   43.8700 C   0  0  0  0  0  0  0  0  0  0  0  0
   56.7530   30.9310   44.4830 C   0  0  0  0  0  0  0  0  0  0  0  0
   55.7510   30.1640   44.5110 O   0  0  0  0  0  0  0  0  0  0  0  0
   56.6420   32.2830   44.9380 N   0  0  0  0  0  0  0  0  0  0  0  0
   57.6790   33.0670   45.5470 C   0  0  0  0  0  0  0  0  0  0  0  0
   58.2970   34.1380   44.8770 C   0  0  0  0  0  0  0  0  0  0  0  0
   58.0061   34.3783   43.8437 H   0  0  0  0  0  0  0  0  0  0  0  0
   59.2810   34.9000   45.5190 C   0  0  0  0  0  0  0  0  0  0  0  0
   59.7727   35.7263   44.9848 H   0  0  0  0  0  0  0  0  0  0  0  0
   59.6380   34.6100   46.8390 C   0  0  0  0  0  0  0  0  0  0  0  0
   60.4119   35.2081   47.3424 H   0  0  0  0  0  0  0  0  0  0  0  0
   59.0120   33.5590   47.5220 C   0  0  0  0  0  0  0  0  0  0  0  0
   59.4260   33.1960   49.1950 S   0  0  0  0  0  0  0  0  0  0  0  0
   58.3820   32.3240   49.8310 O   0  0  0  0  0  0  0  0  0  0  0  0
   59.5110   34.4830   49.9630 O   0  0  0  0  0  0  0  0  0  0  0  0
   60.9630   32.3940   49.2540 N   0  0  0  0  0  0  0  0  0  0  0  0
   61.9540   32.6480   48.4550 C   0  0  0  0  0  0  0  0  0  0  0  0
   62.5870   33.8400   48.4480 N   0  0  0  0  0  0  0  0  0  0  0  0
   63.5840   33.8730   47.5220 C   0  0  0  0  0  0  0  0  0  0  0  0
   64.2129   34.7615   47.3637 H   0  0  0  0  0  0  0  0  0  0  0  0
   63.7500   32.7010   46.7900 C   0  0  0  0  0  0  0  0  0  0  0  0
   64.4991   32.5325   46.0023 H   0  0  0  0  0  0  0  0  0  0  0  0
   62.6040   31.5850   47.3200 S   0  0  0  0  0  0  0  0  0  0  0  0
   58.0280   32.7980   46.8760 C   0  0  0  0  0  0  0  0  0  0  0  0
   57.5259   31.9828   47.4176 H   0  0  0  0  0  0  0  0  0  0  0  0
   58.9720   29.7610   44.4650 C   0  0  0  0  0  0  0  0  0  0  0  0
   60.0085   30.1180   44.3742 H   0  0  0  0  0  0  0  0  0  0  0  0
   58.7570   28.5140   45.2310 C   0  0  0  0  0  0  0  0  0  0  0  0
   57.5360   27.8400   45.1040 C   0  0  0  0  0  0  0  0  0  0  0  0
   56.7368   28.2720   44.4838 H   0  0  0  0  0  0  0  0  0  0  0  0
   57.3240   26.6240   45.7580 C   0  0  0  0  0  0  0  0  0  0  0  0
   56.3513   26.1180   45.6698 H   0  0  0  0  0  0  0  0  0  0  0  0
   58.3450   26.0440   46.5270 C   0  0  0  0  0  0  0  0  0  0  0  0
   58.1920   24.7710   47.1720 N   0  0  0  0  0  0  0  0  0  0  0  0
   56.8500   23.6850   46.9630 S   0  0  0  0  0  0  0  0  0  0  0  0
   55.5580   24.3600   47.3210 O   0  0  0  0  0  0  0  0  0  0  0  0
   57.0310   22.5140   47.8860 O   0  0  0  0  0  0  0  0  0  0  0  0
   56.8140   23.1010   45.2980 C   0  0  0  0  0  0  0  0  0  0  0  0
   55.9860   23.7280   44.3550 C   0  0  0  0  0  0  0  0  0  0  0  0
   55.3878   24.6039   44.6466 H   0  0  0  0  0  0  0  0  0  0  0  0
   55.9190   23.2420   43.0440 C   0  0  0  0  0  0  0  0  0  0  0  0
   55.2776   23.7437   42.3045 H   0  0  0  0  0  0  0  0  0  0  0  0
   56.6660   22.1200   42.6730 C   0  0  0  0  0  0  0  0  0  0  0  0
   56.5993   21.7300   41.6466 H   0  0  0  0  0  0  0  0  0  0  0  0
   57.4970   21.4940   43.6050 C   0  0  0  0  0  0  0  0  0  0  0  0
   58.0895   20.6152   43.3106 H   0  0  0  0  0  0  0  0  0  0  0  0
   57.5760   21.9850   44.9140 C   0  0  0  0  0  0  0  0  0  0  0  0
   58.2370   21.4952   45.6442 H   0  0  0  0  0  0  0  0  0  0  0  0
   59.5650   26.7150   46.6560 C   0  0  0  0  0  0  0  0  0  0  0  0
   60.3616   26.2844   47.2805 H   0  0  0  0  0  0  0  0  0  0  0  0
   59.7800   27.9310   45.9960 C   0  0  0  0  0  0  0  0  0  0  0  0
   60.7557   28.4324   46.0772 H   0  0  0  0  0  0  0  0  0  0  0  0
  1  2  1  0
  2  3  1  0
  3  4  2  0
  3  5  1  0
  5  6  1  0
  6  7  2  0
  7  8  1  0
  7  9  1  0
  9 10  1  0
  9 11  2  0
 11 12  1  0
 11 13  1  0
 13 14  1  0
 14 15  2  0
 14 16  2  0
 14 17  1  0
 17 18  2  0
 18 19  1  0
 19 20  1  0
 20 21  1  0
 20 22  2  0
 22 23  1  0
 22 24  1  0
 13 25  2  0
 25 26  1  0
  2 27  2  3
 27 28  1  0
 27 29  1  0
 29 30  2  0
 30 31  1  0
 30 32  1  0
 32 33  1  0
 32 34  2  0
 34 35  1  0
 35 36  1  0
 36 37  2  0
 36 38  2  0
 36 39  1  0
 39 40  2  0
 40 41  1  0
 40 42  1  0
 42 43  1  0
 42 44  2  0
 44 45  1  0
 44 46  1  0
 46 47  1  0
 46 48  2  0
 48 49  1  0
 34 50  1  0
 50 51  1  0
 50 52  2  0
 52 53  1  0
 25  6  1  0
 52 29  1  0
 24 18  1  0
 48 39  1  0
M  CHG  3   5  -1  19  -1  35  -1
M  END
>  <UniqueID>  (7) 
6

>  <SMILES>  (7) 
O=C(C=Cc1ccc([N-]S(=O)(=O)c2ccccc2)cc1)[N-]c1cccc(S(=O)(=O)/N=c2/[n-]ccs2)c1

>  <Energy>  (7) 
106.93128798037635

>  <Genealogy>  (7) 
O=C(C=Cc1ccc([N-]S(=O)(=O)c2ccccc2)cc1)[N-]c1cccc(S(=O)(=O)N=c2[n-]ccs2)c1 (protonated)
O=C(C=Cc1ccc([N-]S(=O)(=O)c2ccccc2)cc1)[N-]c1cccc(S(=O)(=O)/N=c2/[n-]ccs2)c1 (cis-trans isomerization)
O=C(C=Cc1ccc([N-]S(=O)(=O)c2ccccc2)cc1)[N-]c1cccc(S(=O)(=O)/N=c2/[n-]ccs2)c1 (3D coordinates assigned)
O=C(C=Cc1ccc([N-]S(=O)(=O)c2ccccc2)cc1)[N-]c1cccc(S(=O)(=O)/N=c2/[n-]ccs2)c1 (optimized conformer: 106.93128798037635 kcal/mol)

>  <smiles>  (7) 
O=C(C=Cc1ccc(NS(=O)(=O)c2ccccc2)cc1)Nc1cccc(S(=O)(=O)N=c2[nH]ccs2)c1

>  <score_type>  (7) 
oracle

>  <origin>  (7) 
adg

>  <m_score__min__energy>  (7) 
-14.880000000000001

>  <m_primary>  (7) 
energy

$$$$
7:0
     RDKit          3D

 40 43  0  0  0  0  0  0  0  0999 V2000
   55.3450   30.4810   44.4760 O   0  0  0  0  0  0  0  0  0  0  0  0
   56.2670   29.7210   44.8730 C   0  0  0  0  0  0  0  0  0  0  0  0
   56.0380   28.4380   45.2470 N   0  0  0  0  0  0  0  0  0  0  0  0
   57.2640   28.0140   45.6020 C   0  0  0  0  0  0  0  0  0  0  0  0
   57.6130   26.7530   46.0790 C   0  0  0  0  0  0  0  0  0  0  0  0
   58.9620   26.5240   46.4030 C   0  0  0  0  0  0  0  0  0  0  0  0
   59.9190   27.5510   46.2450 C   0  0  0  0  0  0  0  0  0  0  0  0
   59.5360   28.8160   45.7620 C   0  0  0  0  0  0  0  0  0  0  0  0
   58.1880   29.0120   45.4460 C   0  0  0  0  0  0  0  0  0  0  0  0
   57.5680   30.1110   44.9750 N   0  0  0  0  0  0  0  0  0  0  0  0
   58.1550   31.4320   44.6800 C   0  0  1  0  0  0  0  0  0  0  0  0
   57.0890   32.5270   44.6030 C   0  0  0  0  0  0  0  0  0  0  0  0
   57.3960   33.4660   45.7590 C   0  0  0  0  0  0  0  0  0  0  0  0
   58.8130   33.2740   46.0710 N   0  0  0  0  0  0  0  0  0  0  0  0
   59.2440   33.7590   47.4030 C   0  0  0  0  0  0  0  0  0  0  0  0
   60.7440   33.7750   47.6230 C   0  0  0  0  0  0  0  0  0  0  0  0
   61.6270   33.7830   46.5280 C   0  0  0  0  0  0  0  0  0  0  0  0
   63.0090   33.8080   46.7340 C   0  0  0  0  0  0  0  0  0  0  0  0
   63.5240   33.8450   48.0320 C   0  0  0  0  0  0  0  0  0  0  0  0
   62.6560   33.8670   49.1260 C   0  0  0  0  0  0  0  0  0  0  0  0
   63.1560   33.9180   50.3860 F   0  0  0  0  0  0  0  0  0  0  0  0
   61.2730   33.8430   48.9240 C   0  0  0  0  0  0  0  0  0  0  0  0
   59.1280   31.8750   45.7770 C   0  0  0  0  0  0  0  0  0  0  0  0
   56.8580   25.9620   46.1984 H   0  0  0  0  0  0  0  0  0  0  0  0
   59.2739   25.5395   46.7817 H   0  0  0  0  0  0  0  0  0  0  0  0
   60.9716   27.3604   46.5015 H   0  0  0  0  0  0  0  0  0  0  0  0
   60.2723   29.6236   45.6372 H   0  0  0  0  0  0  0  0  0  0  0  0
   58.6674   31.3099   43.7143 H   0  0  0  0  0  0  0  0  0  0  0  0
   57.1543   33.0619   43.6440 H   0  0  0  0  0  0  0  0  0  0  0  0
   56.0713   32.1146   44.6681 H   0  0  0  0  0  0  0  0  0  0  0  0
   57.2077   34.5089   45.4643 H   0  0  0  0  0  0  0  0  0  0  0  0
   56.7596   33.2527   46.6305 H   0  0  0  0  0  0  0  0  0  0  0  0
   58.8692   34.7853   47.5305 H   0  0  0  0  0  0  0  0  0  0  0  0
   58.8326   33.0503   48.1368 H   0  0  0  0  0  0  0  0  0  0  0  0
   61.2272   33.7695   45.5033 H   0  0  0  0  0  0  0  0  0  0  0  0
   63.6927   33.7985   45.8723 H   0  0  0  0  0  0  0  0  0  0  0  0
   64.6122   33.8568   48.1924 H   0  0  0  0  0  0  0  0  0  0  0  0
   60.5940   33.8775   49.7887 H   0  0  0  0  0  0  0  0  0  0  0  0
   60.1658   31.7852   45.4235 H   0  0  0  0  0  0  0  0  0  0  0  0
   59.0281   31.2474   46.6748 H   0  0  0  0  0  0  0  0  0  0  0  0
  1  2  2  0
  2  3  1  0
  3  4  1  0
  4  5  2  0
  5  6  1  0
  6  7  2  0
  7  8  1  0
  8  9  2  0
  9 10  1  0
 10 11  1  0
 11 12  1  0
 12 13  1  0
 13 14  1  0
 14 15  1  0
 15 16  1  0
 16 17  2  0
 17 18  1  0
 18 19  2  0
 19 20  1  0
 20 21  1  0
 20 22  2  0
 14 23  1  0
 10  2  1  0
 23 11  1  0
  9  4  1  0
 22 16  1  0
  5 24  1  0
  6 25  1  0
  7 26  1  0
  8 27  1  0
 11 28  1  6
 12 29  1  0
 12 30  1  0
 13 31  1  0
 13 32  1  0
 15 33  1  0
 15 34  1  0
 17 35  1  0
 18 36  1  0
 19 37  1  0
 22 38  1  0
 23 39  1  0
 23 40  1  0
M  CHG  1   3  -1
M  END
>  <UniqueID>  (8) 
7

>  <SMILES>  (8) 
O=c1[n-]c2ccccc2n1[C@H]1CCN(Cc2cccc(F)c2)C1

>  <Energy>  (8) 
90.84277065557899

>  <Genealogy>  (8) 
O=c1[n-]c2ccccc2n1C1CCN(Cc2cccc(F)c2)C1 (protonated)
O=c1[n-]c2ccccc2n1[C@H]1CCN(Cc2cccc(F)c2)C1 (chirality)
O=c1[n-]c2ccccc2n1[C@H]1CCN(Cc2cccc(F)c2)C1 (3D coordinates assigned)
O=c1[n-]c2ccccc2n1[C@H]1CCN(Cc2cccc(F)c2)C1 (nonaromatic ring conformer: 90.84277065557899 kcal/mol)

>  <smiles>  (8) 
O=c1[nH]c2ccccc2n1C1CCN(Cc2cccc(F)c2)C1

>  <score_type>  (8) 
oracle

>  <origin>  (8) 
adg

>  <m_score__min__energy>  (8) 
-10.06

>  <m_primary>  (8) 
energy

$$$$
8:0
     RDKit          3D

 47 50  0  0  0  0  0  0  0  0999 V2000
   64.1780   33.4570   48.2290 C   0  0  0  0  0  0  0  0  0  0  0  0
   63.0140   32.5300   48.4130 C   0  0  0  0  0  0  0  0  0  0  0  0
   62.9560   31.6810   49.5270 C   0  0  0  0  0  0  0  0  0  0  0  0
   61.8750   30.8060   49.6980 C   0  0  0  0  0  0  0  0  0  0  0  0
   61.8230   29.8930   50.8870 C   0  0  0  0  0  0  0  0  0  0  0  0
   60.8730   30.7440   48.7180 C   0  0  0  0  0  0  0  0  0  0  0  0
   60.9340   31.5620   47.5740 C   0  0  0  0  0  0  0  0  0  0  0  0
   59.8280   31.5380   46.5170 C   0  0  1  0  0  0  0  0  0  0  0  0
   59.2460   30.1870   46.4140 N   0  0  0  0  0  0  0  0  0  0  0  0
   58.4880   29.8920   45.2100 C   0  0  0  0  0  0  0  0  0  0  0  0
   58.3520   28.5230   44.8900 C   0  0  0  0  0  0  0  0  0  0  0  0
   57.5840   28.0940   43.8110 C   0  0  0  0  0  0  0  0  0  0  0  0
   56.9130   29.0210   43.0260 C   0  0  0  0  0  0  0  0  0  0  0  0
   57.0070   30.3770   43.3230 C   0  0  0  0  0  0  0  0  0  0  0  0
   57.7670   30.8450   44.4090 C   0  0  0  0  0  0  0  0  0  0  0  0
   57.8110   32.2810   44.5230 N   0  0  0  0  0  0  0  0  0  0  0  0
   58.2010   33.0820   45.4670 C   0  0  0  0  0  0  0  0  0  0  0  0
   58.1910   34.5560   45.1750 C   0  0  0  0  0  0  0  0  0  0  0  0
   59.4810   35.1850   45.6980 C   0  0  0  0  0  0  0  0  0  0  0  0
   59.5550   35.0670   47.2210 C   0  0  0  0  0  0  0  0  0  0  0  0
   59.1130   33.7140   47.7230 C   0  0  0  0  0  0  0  0  0  0  0  0
   59.0650   33.5350   48.9300 O   0  0  0  0  0  0  0  0  0  0  0  0
   58.7020   32.5740   46.7910 C   0  0  2  0  0  0  0  0  0  0  0  0
   62.0080   32.4600   47.4370 C   0  0  0  0  0  0  0  0  0  0  0  0
   64.5622   33.7630   49.2133 H   0  0  0  0  0  0  0  0  0  0  0  0
   64.9724   32.9415   47.6694 H   0  0  0  0  0  0  0  0  0  0  0  0
   63.8534   34.3466   47.6694 H   0  0  0  0  0  0  0  0  0  0  0  0
   63.7649   31.7019   50.2722 H   0  0  0  0  0  0  0  0  0  0  0  0
   61.8570   30.4906   51.8099 H   0  0  0  0  0  0  0  0  0  0  0  0
   60.8902   29.3105   50.8615 H   0  0  0  0  0  0  0  0  0  0  0  0
   62.6836   29.2084   50.8615 H   0  0  0  0  0  0  0  0  0  0  0  0
   60.0303   30.0484   48.8450 H   0  0  0  0  0  0  0  0  0  0  0  0
   60.3015   31.8176   45.5643 H   0  0  0  0  0  0  0  0  0  0  0  0
   58.6260   29.9850   47.2320 H   0  0  0  0  0  0  0  0  0  0  0  0
   60.0400   29.5040   46.4610 H   0  0  0  0  0  0  0  0  0  0  0  0
   58.8672   27.7751   45.5106 H   0  0  0  0  0  0  0  0  0  0  0  0
   57.5091   27.0210   43.5808 H   0  0  0  0  0  0  0  0  0  0  0  0
   56.3082   28.6845   42.1710 H   0  0  0  0  0  0  0  0  0  0  0  0
   56.4726   31.1019   42.6914 H   0  0  0  0  0  0  0  0  0  0  0  0
   58.1193   34.7146   44.0889 H   0  0  0  0  0  0  0  0  0  0  0  0
   57.3270   35.0231   45.6704 H   0  0  0  0  0  0  0  0  0  0  0  0
   60.3430   34.6669   45.2524 H   0  0  0  0  0  0  0  0  0  0  0  0
   59.4949   36.2498   45.4225 H   0  0  0  0  0  0  0  0  0  0  0  0
   60.5949   35.2370   47.5369 H   0  0  0  0  0  0  0  0  0  0  0  0
   58.8726   35.8179   47.6458 H   0  0  0  0  0  0  0  0  0  0  0  0
   57.8949   32.0642   47.3375 H   0  0  0  0  0  0  0  0  0  0  0  0
   62.0599   33.1149   46.5547 H   0  0  0  0  0  0  0  0  0  0  0  0
  1  2  1  0
  2  3  2  0
  3  4  1  0
  4  5  1  0
  4  6  2  0
  6  7  1  0
  7  8  1  0
  8  9  1  0
  9 10  1  0
 10 11  2  0
 11 12  1  0
 12 13  2  0
 13 14  1  0
 14 15  2  0
 15 16  1  0
 16 17  2  0
 17 18  1  0
 18 19  1  0
 19 20  1  0
 20 21  1  0
 21 22  2  0
 21 23  1  0
  7 24  2  0
 24  2  1  0
 23  8  1  0
 15 10  1  0
 23 17  1  0
  1 25  1  0
  1 26  1  0
  1 27  1  0
  3 28  1  0
  5 29  1  0
  5 30  1  0
  5 31  1  0
  6 32  1  0
  8 33  1  6
  9 34  1  0
  9 35  1  0
 11 36  1  0
 12 37  1  0
 13 38  1  0
 14 39  1  0
 18 40  1  0
 18 41  1  0
 19 42  1  0
 19 43  1  0
 20 44  1  0
 20 45  1  0
 23 46  1  1
 24 47  1  0
M  CHG  1   9   1
M  END
>  <UniqueID>  (9) 
8

>  <SMILES>  (9) 
Cc1cc(C)cc([C@H]2[NH2+]c3ccccc3N=C3CCCC(=O)[C@@H]32)c1

>  <Energy>  (9) 
73.28381026758795

>  <Genealogy>  (9) 
Cc1cc(C)cc(C2[NH2+]c3ccccc3N=C3CCCC(=O)C32)c1 (protonated)
Cc1cc(C)cc([C@H]2[NH2+]c3ccccc3N=C3CCCC(=O)[C@@H]32)c1 (chirality)
Cc1cc(C)cc([C@H]2[NH2+]c3ccccc3N=C3CCCC(=O)[C@@H]32)c1 (3D coordinates assigned)
Cc1cc(C)cc([C@H]2[NH2+]c3ccccc3N=C3CCCC(=O)[C@@H]32)c1 (nonaromatic ring conformer: 73.28381026758795 kcal/mol)

>  <smiles>  (9) 
Cc1cc(C)cc(C2Nc3ccccc3N=C3CCCC(=O)C32)c1

>  <score_type>  (9) 
oracle

>  <origin>  (9) 
adg

>  <m_score__min__energy>  (9) 
-5.7300000000000004

>  <m_primary>  (9) 
energy

$$$$
9:0
     RDKit          3D

 48 49  0  0  0  0  0  0  0  0999 V2000
   58.5950   35.3320   51.7920 H   0  0  0  0  0  0  0  0  0  0  0  0
   58.0740   34.6820   52.3680 O   0  0  0  0  0  0  0  0  0  0  0  0
   57.8480   33.3610   51.9810 C   0  0  0  0  0  0  0  0  0  0  0  0
   56.7820   32.6630   52.5610 C   0  0  0  0  0  0  0  0  0  0  0  0
   56.1473   33.1617   53.3083 H   0  0  0  0  0  0  0  0  0  0  0  0
   56.5140   31.3300   52.1980 C   0  0  0  0  0  0  0  0  0  0  0  0
   55.3840   30.5570   52.7710 C   0  0  0  0  0  0  0  0  0  0  0  0
   55.2204   30.6042   53.8577 H   0  0  0  0  0  0  0  0  0  0  0  0
   54.5500   29.8030   52.0360 C   0  0  0  0  0  0  0  0  0  0  0  0
   54.7384   28.7205   51.9838 H   0  0  0  0  0  0  0  0  0  0  0  0
   53.3880   30.3490   51.2900 C   0  0  0  0  0  0  0  0  0  0  0  0
   52.8790   29.7410   50.1230 C   0  0  0  0  0  0  0  0  0  0  0  0
   53.3531   28.8299   49.7291 H   0  0  0  0  0  0  0  0  0  0  0  0
   51.7750   30.2910   49.4650 C   0  0  0  0  0  0  0  0  0  0  0  0
   51.3886   29.8153   48.5516 H   0  0  0  0  0  0  0  0  0  0  0  0
   51.1610   31.4420   49.9630 C   0  0  0  0  0  0  0  0  0  0  0  0
   50.2956   31.8744   49.4394 H   0  0  0  0  0  0  0  0  0  0  0  0
   51.6460   32.0440   51.1260 C   0  0  0  0  0  0  0  0  0  0  0  0
   51.0310   33.1860   51.6240 O   0  0  0  0  0  0  0  0  0  0  0  0
   52.7500   31.4980   51.7890 C   0  0  0  0  0  0  0  0  0  0  0  0
   53.1223   31.9720   52.7092 H   0  0  0  0  0  0  0  0  0  0  0  0
   57.3240   30.7170   51.2320 C   0  0  0  0  0  0  0  0  0  0  0  0
   57.1153   29.6816   50.9250 H   0  0  0  0  0  0  0  0  0  0  0  0
   58.3930   31.4060   50.6550 C   0  0  0  0  0  0  0  0  0  0  0  0
   59.0299   30.9031   49.9124 H   0  0  0  0  0  0  0  0  0  0  0  0
   58.6610   32.7390   51.0170 C   0  0  0  0  0  0  0  0  0  0  0  0
   59.7150   33.4770   50.4510 O   0  0  0  0  0  0  0  0  0  0  0  0
   61.0500   33.0150   50.2370 C   0  0  0  0  0  0  0  0  0  0  0  0
   61.0242   31.9442   49.9865 H   0  0  0  0  0  0  0  0  0  0  0  0
   61.6301   33.1819   51.1566 H   0  0  0  0  0  0  0  0  0  0  0  0
   61.7200   33.7820   49.0910 C   0  0  0  0  0  0  0  0  0  0  0  0
   62.8090   33.6385   49.1497 H   0  0  0  0  0  0  0  0  0  0  0  0
   61.4676   34.8484   49.1866 H   0  0  0  0  0  0  0  0  0  0  0  0
   61.2370   33.2970   47.7780 N   0  0  0  0  0  0  0  0  0  0  0  0
   62.1470   33.6480   46.6610 C   0  0  0  0  0  0  0  0  0  0  0  0
   62.0066   34.7129   46.4239 H   0  0  0  0  0  0  0  0  0  0  0  0
   61.8867   32.9854   45.8225 H   0  0  0  0  0  0  0  0  0  0  0  0
   63.6360   33.4140   46.9610 C   0  0  0  0  0  0  0  0  0  0  0  0
   63.7913   33.3896   48.0497 H   0  0  0  0  0  0  0  0  0  0  0  0
   63.9518   32.4552   46.5240 H   0  0  0  0  0  0  0  0  0  0  0  0
   64.2307   34.2297   46.5240 H   0  0  0  0  0  0  0  0  0  0  0  0
   59.8260   33.6490   47.5070 C   0  0  0  0  0  0  0  0  0  0  0  0
   59.3549   32.8376   46.9328 H   0  0  0  0  0  0  0  0  0  0  0  0
   59.3050   33.7890   48.4656 H   0  0  0  0  0  0  0  0  0  0  0  0
   59.7400   34.9460   46.7060 C   0  0  0  0  0  0  0  0  0  0  0  0
   59.6834   35.8004   47.3966 H   0  0  0  0  0  0  0  0  0  0  0  0
   60.6335   35.0455   46.0722 H   0  0  0  0  0  0  0  0  0  0  0  0
   58.8412   34.9266   46.0722 H   0  0  0  0  0  0  0  0  0  0  0  0
  1  2  1  0
  2  3  1  0
  3  4  2  0
  4  5  1  0
  4  6  1  0
  6  7  1  0
  7  8  1  0
  7  9  2  0
  9 10  1  0
  9 11  1  0
 11 12  2  0
 12 13  1  0
 12 14  1  0
 14 15  1  0
 14 16  2  0
 16 17  1  0
 16 18  1  0
 18 19  1  0
 18 20  2  0
 20 21  1  0
  6 22  2  0
 22 23  1  0
 22 24  1  0
 24 25  1  0
 24 26  2  0
 26 27  1  0
 27 28  1  0
 28 29  1  0
 28 30  1  0
 28 31  1  0
 31 32  1  0
 31 33  1  0
 31 34  1  0
 34 35  1  0
 35 36  1  0
 35 37  1  0
 35 38  1  0
 38 39  1  0
 38 40  1  0
 38 41  1  0
 34 42  1  0
 42 43  1  0
 42 44  1  0
 42 45  1  0
 45 46  1  0
 45 47  1  0
 45 48  1  0
 26  3  1  0
 20 11  1  0
M  CHG  1  19  -1
M  END
>  <UniqueID>  (10) 
9

>  <SMILES>  (10) 
CCN(CC)CCOc1ccc(/C=C/c2cccc([O-])c2)cc1O

>  <Energy>  (10) 
52.8526010917923

>  <Genealogy>  (10) 
CCN(CC)CCOc1ccc(C=Cc2cccc([O-])c2)cc1O (protonated)
CCN(CC)CCOc1ccc(/C=C/c2cccc([O-])c2)cc1O (cis-trans isomerization)
CCN(CC)CCOc1ccc(/C=C/c2cccc([O-])c2)cc1O (3D coordinates assigned)
CCN(CC)CCOc1ccc(/C=C/c2cccc([O-])c2)cc1O (optimized conformer: 52.8526010917923 kcal/mol)

>  <smiles>  (10) 
CCN(CC)CCOc1ccc(C=Cc2cccc(O)c2)cc1O

>  <score_type>  (10) 
oracle

>  <origin>  (10) 
adg

>  <m_score__min__energy>  (10) 
-10.94

>  <m_primary>  (10) 
energy

$$$$
10:0
     RDKit          3D

 54 57  0  0  0  0  0  0  0  0999 V2000
   61.7020   31.0410   48.0430 C   0  0  0  0  0  0  0  0  0  0  0  0
   60.4590   31.0250   48.8910 C   0  0  0  0  0  0  0  0  0  0  0  0
   59.7740   32.2300   49.1280 C   0  0  0  0  0  0  0  0  0  0  0  0
   58.6270   32.2480   49.9250 C   0  0  0  0  0  0  0  0  0  0  0  0
   58.1540   31.0690   50.4960 C   0  0  0  0  0  0  0  0  0  0  0  0
   58.8320   29.8690   50.2820 C   0  0  0  0  0  0  0  0  0  0  0  0
   59.9960   29.8390   49.5010 C   0  0  0  0  0  0  0  0  0  0  0  0
   60.8330   28.2560   49.2830 S   0  0  0  0  0  0  0  0  0  0  0  0
   60.3310   27.9790   47.5420 C   0  0  0  0  0  0  0  0  0  0  0  0
   59.1370   27.0780   47.4170 C   0  0  0  0  0  0  0  0  0  0  0  0
   58.9630   25.9920   48.1950 N   0  0  0  0  0  0  0  0  0  0  0  0
   57.8270   25.4550   47.8630 O   0  0  0  0  0  0  0  0  0  0  0  0
   57.2380   26.1380   46.9100 C   0  0  0  0  0  0  0  0  0  0  0  0
   55.9260   25.7800   46.3540 C   0  0  0  0  0  0  0  0  0  0  0  0
   55.1470   26.6990   45.9900 O   0  0  0  0  0  0  0  0  0  0  0  0
   55.5260   24.4170   46.1750 N   0  0  0  0  0  0  0  0  0  0  0  0
   55.0950   23.8510   44.9010 C   0  0  0  0  0  0  0  0  0  0  0  0
   56.1410   22.9170   44.3990 C   0  0  0  0  0  0  0  0  0  0  0  0
   57.4570   22.8800   44.8080 C   0  0  0  0  0  0  0  0  0  0  0  0
   58.0490   21.8880   44.0590 C   0  0  0  0  0  0  0  0  0  0  0  0
   57.0610   21.3890   43.2360 C   0  0  0  0  0  0  0  0  0  0  0  0
   55.9360   22.0250   43.4600 O   0  0  0  0  0  0  0  0  0  0  0  0
   58.0510   27.2050   46.5590 C   0  0  0  0  0  0  0  0  0  0  0  0
   57.8240   28.2010   45.4900 C   0  0  0  0  0  0  0  0  0  0  0  0
   58.5490   28.1910   44.4590 O   0  0  0  0  0  0  0  0  0  0  0  0
   56.7730   29.1590   45.6050 N   0  0  0  0  0  0  0  0  0  0  0  0
   56.6010   30.4660   44.4850 S   0  0  0  0  0  0  0  0  0  0  0  0
   57.1020   30.0370   43.1370 O   0  0  0  0  0  0  0  0  0  0  0  0
   55.1500   30.8370   44.3760 O   0  0  0  0  0  0  0  0  0  0  0  0
   57.5580   31.8280   45.0520 C   0  0  0  0  0  0  0  0  0  0  0  0
   58.8310   31.6310   45.6040 C   0  0  0  0  0  0  0  0  0  0  0  0
   59.5830   32.7250   46.0380 C   0  0  0  0  0  0  0  0  0  0  0  0
   59.0700   34.0200   45.9210 C   0  0  0  0  0  0  0  0  0  0  0  0
   57.8030   34.2230   45.3640 C   0  0  0  0  0  0  0  0  0  0  0  0
   57.0470   33.1300   44.9350 C   0  0  0  0  0  0  0  0  0  0  0  0
   62.5893   31.0524   48.6931 H   0  0  0  0  0  0  0  0  0  0  0  0
   61.7242   30.1431   47.4080 H   0  0  0  0  0  0  0  0  0  0  0  0
   61.7011   31.9392   47.4080 H   0  0  0  0  0  0  0  0  0  0  0  0
   60.1441   33.1652   48.6825 H   0  0  0  0  0  0  0  0  0  0  0  0
   58.0963   33.1951   50.1020 H   0  0  0  0  0  0  0  0  0  0  0  0
   57.2455   31.0842   51.1159 H   0  0  0  0  0  0  0  0  0  0  0  0
   58.4506   28.9392   50.7293 H   0  0  0  0  0  0  0  0  0  0  0  0
   60.0871   28.9507   47.0878 H   0  0  0  0  0  0  0  0  0  0  0  0
   61.1713   27.4881   47.0292 H   0  0  0  0  0  0  0  0  0  0  0  0
   54.1511   23.3041   45.0423 H   0  0  0  0  0  0  0  0  0  0  0  0
   54.9417   24.6597   44.1712 H   0  0  0  0  0  0  0  0  0  0  0  0
   57.9341   23.5108   45.5725 H   0  0  0  0  0  0  0  0  0  0  0  0
   59.0978   21.5598   44.1072 H   0  0  0  0  0  0  0  0  0  0  0  0
   57.1961   20.5802   42.5028 H   0  0  0  0  0  0  0  0  0  0  0  0
   59.2385   30.6134   45.6956 H   0  0  0  0  0  0  0  0  0  0  0  0
   60.5810   32.5672   46.4728 H   0  0  0  0  0  0  0  0  0  0  0  0
   59.6627   34.8796   46.2670 H   0  0  0  0  0  0  0  0  0  0  0  0
   57.4025   35.2426   45.2640 H   0  0  0  0  0  0  0  0  0  0  0  0
   56.0477   33.2900   44.5040 H   0  0  0  0  0  0  0  0  0  0  0  0
  1  2  1  0
  2  3  2  0
  3  4  1  0
  4  5  2  0
  5  6  1  0
  6  7  2  0
  7  8  1  0
  8  9  1  0
  9 10  1  0
 10 11  2  0
 11 12  1  0
 12 13  1  0
 13 14  1  0
 14 15  2  0
 14 16  1  0
 16 17  1  0
 17 18  1  0
 18 19  2  0
 19 20  1  0
 20 21  2  0
 21 22  1  0
 13 23  2  0
 23 24  1  0
 24 25  2  0
 24 26  1  0
 26 27  1  0
 27 28  2  0
 27 29  2  0
 27 30  1  0
 30 31  2  0
 31 32  1  0
 32 33  2  0
 33 34  1  0
 34 35  2  0
  7  2  1  0
 23 10  1  0
 35 30  1  0
 22 18  1  0
  1 36  1  0
  1 37  1  0
  1 38  1  0
  3 39  1  0
  4 40  1  0
  5 41  1  0
  6 42  1  0
  9 43  1  0
  9 44  1  0
 17 45  1  0
 17 46  1  0
 19 47  1  0
 20 48  1  0
 21 49  1  0
 31 50  1  0
 32 51  1  0
 33 52  1  0
 34 53  1  0
 35 54  1  0
M  CHG  2  16  -1  26  -1
M  END
>  <UniqueID>  (11) 
10

>  <SMILES>  (11) 
Cc1ccccc1SCc1noc(C(=O)[N-]Cc2ccco2)c1C(=O)[N-]S(=O)(=O)c1ccccc1

>  <Energy>  (11) 
111.52168636924601

>  <Genealogy>  (11) 
Cc1ccccc1SCc1noc(C(=O)[N-]Cc2ccco2)c1C(=O)[N-]S(=O)(=O)c1ccccc1 (protonated)
Cc1ccccc1SCc1noc(C(=O)[N-]Cc2ccco2)c1C(=O)[N-]S(=O)(=O)c1ccccc1 (3D coordinates assigned)
Cc1ccccc1SCc1noc(C(=O)[N-]Cc2ccco2)c1C(=O)[N-]S(=O)(=O)c1ccccc1 (optimized conformer: 111.52168636924601 kcal/mol)

>  <smiles>  (11) 
Cc1ccccc1SCc1noc(C(=O)NCc2ccco2)c1C(=O)NS(=O)(=O)c1ccccc1

>  <score_type>  (11) 
oracle

>  <origin>  (11) 
adg

>  <m_score__min__energy>  (11) 
-14.67

>  <m_primary>  (11) 
energy

$$$$
11:0
     RDKit          3D

 46 48  0  0  0  0  0  0  0  0999 V2000
   59.6390   34.5680   48.5490 C   0  0  0  0  0  0  0  0  0  0  0  0
   59.2250   33.9120   47.2650 C   0  0  0  0  0  0  0  0  0  0  0  0
   59.7350   34.3690   46.0410 C   0  0  0  0  0  0  0  0  0  0  0  0
   59.3130   33.7900   44.8410 C   0  0  0  0  0  0  0  0  0  0  0  0
   58.3560   32.7680   44.8530 C   0  0  0  0  0  0  0  0  0  0  0  0
   57.8180   32.0200   43.3110 S   0  0  0  0  0  0  0  0  0  0  0  0
   56.3820   31.1360   44.0290 C   0  0  0  0  0  0  0  0  0  0  0  0
   56.6620   29.7290   44.4930 C   0  0  0  0  0  0  0  0  0  0  0  0
   55.7700   29.1480   45.1670 O   0  0  0  0  0  0  0  0  0  0  0  0
   57.8820   29.0330   44.1800 N   0  0  0  0  0  0  0  0  0  0  0  0
   58.2090   27.7590   44.7610 C   0  0  0  0  0  0  0  0  0  0  0  0
   57.7690   26.5900   44.1220 C   0  0  0  0  0  0  0  0  0  0  0  0
   58.0320   25.3370   44.6770 C   0  0  0  0  0  0  0  0  0  0  0  0
   58.7470   25.2370   45.8710 C   0  0  0  0  0  0  0  0  0  0  0  0
   59.2150   26.3890   46.5050 C   0  0  0  0  0  0  0  0  0  0  0  0
   58.9640   27.6560   45.9540 C   0  0  0  0  0  0  0  0  0  0  0  0
   59.5380   28.8230   46.5680 N   0  0  0  0  0  0  0  0  0  0  0  0
   58.8960   29.3890   47.7540 C   0  0  0  0  0  0  0  0  0  0  0  0
   59.9230   30.1870   48.5630 C   0  0  0  0  0  0  0  0  0  0  0  0
   60.5820   31.1340   47.7430 O   0  0  0  0  0  0  0  0  0  0  0  0
   61.3390   30.4670   46.7490 C   0  0  0  0  0  0  0  0  0  0  0  0
   60.4230   29.6960   45.7940 C   0  0  0  0  0  0  0  0  0  0  0  0
   57.8450   32.3090   46.0720 C   0  0  0  0  0  0  0  0  0  0  0  0
   58.2700   32.8840   47.2730 C   0  0  0  0  0  0  0  0  0  0  0  0
   59.2664   33.9777   49.3991 H   0  0  0  0  0  0  0  0  0  0  0  0
   60.7366   34.6243   48.5947 H   0  0  0  0  0  0  0  0  0  0  0  0
   59.2175   35.5830   48.5947 H   0  0  0  0  0  0  0  0  0  0  0  0
   60.4705   35.1868   46.0254 H   0  0  0  0  0  0  0  0  0  0  0  0
   59.7333   34.1377   43.8858 H   0  0  0  0  0  0  0  0  0  0  0  0
   56.0234   31.7145   44.8932 H   0  0  0  0  0  0  0  0  0  0  0  0
   55.6409   31.0495   43.2207 H   0  0  0  0  0  0  0  0  0  0  0  0
   58.4290   29.3240   43.3430 H   0  0  0  0  0  0  0  0  0  0  0  0
   57.2123   26.6618   43.1760 H   0  0  0  0  0  0  0  0  0  0  0  0
   57.6752   24.4269   44.1725 H   0  0  0  0  0  0  0  0  0  0  0  0
   58.9421   24.2489   46.3132 H   0  0  0  0  0  0  0  0  0  0  0  0
   59.7842   26.3039   47.4424 H   0  0  0  0  0  0  0  0  0  0  0  0
   58.0768   30.0546   47.4443 H   0  0  0  0  0  0  0  0  0  0  0  0
   58.4943   28.5750   48.3754 H   0  0  0  0  0  0  0  0  0  0  0  0
   59.4082   30.7136   49.3801 H   0  0  0  0  0  0  0  0  0  0  0  0
   60.6713   29.4901   48.9685 H   0  0  0  0  0  0  0  0  0  0  0  0
   61.9150   31.2086   46.1761 H   0  0  0  0  0  0  0  0  0  0  0  0
   62.0162   29.7534   47.2411 H   0  0  0  0  0  0  0  0  0  0  0  0
   59.8191   30.4068   45.2108 H   0  0  0  0  0  0  0  0  0  0  0  0
   61.0333   29.0876   45.1103 H   0  0  0  0  0  0  0  0  0  0  0  0
   57.1069   31.4935   46.0852 H   0  0  0  0  0  0  0  0  0  0  0  0
   57.8544   32.5294   48.2277 H   0  0  0  0  0  0  0  0  0  0  0  0
  1  2  1  0
  2  3  2  0
  3  4  1  0
  4  5  2  0
  5  6  1  0
  6  7  1  0
  7  8  1  0
  8  9  2  0
  8 10  1  0
 10 11  1  0
 11 12  2  0
 12 13  1  0
 13 14  2  0
 14 15  1  0
 15 16  2  0
 16 17  1  0
 17 18  1  0
 18 19  1  0
 19 20  1  0
 20 21  1  0
 21 22  1  0
  5 23  1  0
 23 24  2  0
 24  2  1  0
 16 11  1  0
 22 17  1  0
  1 25  1  0
  1 26  1  0
  1 27  1  0
  3 28  1  0
  4 29  1  0
  7 30  1  0
  7 31  1  0
 10 32  1  0
 12 33  1  0
 13 34  1  0
 14 35  1  0
 15 36  1  0
 18 37  1  0
 18 38  1  0
 19 39  1  0
 19 40  1  0
 21 41  1  0
 21 42  1  0
 22 43  1  0
 22 44  1  0
 23 45  1  0
 24 46  1  0
M  END
>  <UniqueID>  (12) 
11

>  <SMILES>  (12) 
Cc1ccc(SCC(=O)Nc2ccccc2N2CCOCC2)cc1

>  <Energy>  (12) 
51.43458479461822

>  <Genealogy>  (12) 
Cc1ccc(SCC(=O)Nc2ccccc2N2CCOCC2)cc1 (3D coordinates assigned)
Cc1ccc(SCC(=O)Nc2ccccc2N2CCOCC2)cc1 (nonaromatic ring conformer: 51.43458479461822 kcal/mol)

>  <smiles>  (12) 
Cc1ccc(SCC(=O)Nc2ccccc2N2CCOCC2)cc1

>  <score_type>  (12) 
oracle

>  <origin>  (12) 
adg

>  <m_score__min__energy>  (12) 
-7.8799999999999999

>  <m_primary>  (12) 
energy

$$$$
12:0
     RDKit          3D

 62 65  0  0  0  0  0  0  0  0999 V2000
   54.9978   31.0740   43.7238 H   0  0  0  0  0  0  0  0  0  0  0  0
   55.7580   30.3730   44.0990 C   0  0  0  0  0  0  0  0  0  0  0  0
   55.4570   29.3320   44.9180 N   0  0  0  0  0  0  0  0  0  0  0  0
   56.5630   28.6200   45.2400 C   0  0  0  0  0  0  0  0  0  0  0  0
   56.5630   27.5760   46.0160 N   0  0  0  0  0  0  0  0  0  0  0  0
   56.2570   26.2300   45.6230 C   0  0  0  0  0  0  0  0  0  0  0  0
   55.2010   25.6650   46.0190 O   0  0  0  0  0  0  0  0  0  0  0  0
   57.1470   25.5610   44.7230 N   0  0  0  0  0  0  0  0  0  0  0  0
   57.0800   24.1860   44.3070 C   0  0  0  0  0  0  0  0  0  0  0  0
   56.3320   23.8050   43.1760 C   0  0  0  0  0  0  0  0  0  0  0  0
   55.7825   24.5663   42.6030 H   0  0  0  0  0  0  0  0  0  0  0  0
   56.2830   22.4680   42.7770 C   0  0  0  0  0  0  0  0  0  0  0  0
   55.7020   22.1816   41.8879 H   0  0  0  0  0  0  0  0  0  0  0  0
   56.9680   21.4960   43.5020 C   0  0  0  0  0  0  0  0  0  0  0  0
   56.9414   20.4462   43.1747 H   0  0  0  0  0  0  0  0  0  0  0  0
   57.6880   21.8520   44.6430 C   0  0  0  0  0  0  0  0  0  0  0  0
   58.2242   21.0782   45.2120 H   0  0  0  0  0  0  0  0  0  0  0  0
   57.7350   23.1910   45.0730 C   0  0  0  0  0  0  0  0  0  0  0  0
   58.5190   23.5380   46.3270 C   0  0  0  0  0  0  0  0  0  0  0  0
   57.9079   23.2685   47.2011 H   0  0  0  0  0  0  0  0  0  0  0  0
   59.4623   22.9745   46.2751 H   0  0  0  0  0  0  0  0  0  0  0  0
   58.8850   24.9690   46.4400 N   0  0  0  0  0  0  0  0  0  0  0  0
   60.2950   25.2450   46.1050 C   0  0  0  0  0  0  0  0  0  0  0  0
   60.9443   24.7200   46.8211 H   0  0  0  0  0  0  0  0  0  0  0  0
   60.4872   24.8930   45.0807 H   0  0  0  0  0  0  0  0  0  0  0  0
   60.5930   26.7590   46.1690 C   0  0  0  0  0  0  0  0  0  0  0  0
   61.3424   26.9395   46.9538 H   0  0  0  0  0  0  0  0  0  0  0  0
   60.9633   27.0718   45.1815 H   0  0  0  0  0  0  0  0  0  0  0  0
   59.3920   27.5500   46.4710 N   0  0  0  0  0  0  0  0  0  0  0  0
   58.7100   27.4490   45.6820 H   0  0  0  0  0  0  0  0  0  0  0  0
   58.7560   27.0930   47.7160 C   0  0  0  0  0  0  0  0  0  0  0  0
   59.4024   27.3663   48.5631 H   0  0  0  0  0  0  0  0  0  0  0  0
   57.7711   27.5780   47.7854 H   0  0  0  0  0  0  0  0  0  0  0  0
   58.5290   25.5650   47.7390 C   0  0  0  0  0  0  0  0  0  0  0  0
   59.1549   25.1182   48.5255 H   0  0  0  0  0  0  0  0  0  0  0  0
   57.4659   25.3672   47.9408 H   0  0  0  0  0  0  0  0  0  0  0  0
   57.9550   29.2420   44.5310 S   0  0  0  0  0  0  0  0  0  0  0  0
   57.1040   30.4800   43.7740 C   0  0  0  0  0  0  0  0  0  0  0  0
   57.8320   31.7360   42.7290 S   0  0  0  0  0  0  0  0  0  0  0  0
   57.6940   33.0360   43.9970 C   0  0  0  0  0  0  0  0  0  0  0  0
   56.6334   33.2121   44.2294 H   0  0  0  0  0  0  0  0  0  0  0  0
   58.1433   33.9673   43.6218 H   0  0  0  0  0  0  0  0  0  0  0  0
   58.4090   32.5960   45.2310 C   0  0  0  0  0  0  0  0  0  0  0  0
   59.5830   33.0560   45.6010 O   0  0  0  0  0  0  0  0  0  0  0  0
   59.8840   32.4750   46.7420 C   0  0  0  0  0  0  0  0  0  0  0  0
   61.1560   32.7150   47.5310 C   0  0  0  0  0  0  0  0  0  0  0  0
   62.0100   33.7770   46.8170 C   0  0  0  0  0  0  0  0  0  0  0  0
   62.5151   34.4052   47.5655 H   0  0  0  0  0  0  0  0  0  0  0  0
   62.7626   33.2797   46.1875 H   0  0  0  0  0  0  0  0  0  0  0  0
   61.3628   34.4054   46.1875 H   0  0  0  0  0  0  0  0  0  0  0  0
   61.9490   31.3970   47.6400 C   0  0  0  0  0  0  0  0  0  0  0  0
   62.0998   31.1464   48.7004 H   0  0  0  0  0  0  0  0  0  0  0  0
   61.3869   30.5892   47.1487 H   0  0  0  0  0  0  0  0  0  0  0  0
   62.9260   31.5152   47.1487 H   0  0  0  0  0  0  0  0  0  0  0  0
   60.8110   33.2120   48.9500 C   0  0  0  0  0  0  0  0  0  0  0  0
   61.2730   32.5464   49.6940 H   0  0  0  0  0  0  0  0  0  0  0  0
   61.1948   34.2341   49.0839 H   0  0  0  0  0  0  0  0  0  0  0  0
   59.7192   33.2098   49.0839 H   0  0  0  0  0  0  0  0  0  0  0  0
   58.8450   31.6240   47.0780 C   0  0  0  0  0  0  0  0  0  0  0  0
   58.7929   30.9888   47.9746 H   0  0  0  0  0  0  0  0  0  0  0  0
   57.9110   31.7110   46.1150 N   0  0  0  0  0  0  0  0  0  0  0  0
   56.9990   31.2040   46.0720 H   0  0  0  0  0  0  0  0  0  0  0  0
  1  2  1  0
  2  3  1  0
  3  4  1  0
  4  5  2  0
  5  6  1  0
  6  7  2  0
  6  8  1  0
  8  9  1  0
  9 10  2  0
 10 11  1  0
 10 12  1  0
 12 13  1  0
 12 14  2  0
 14 15  1  0
 14 16  1  0
 16 17  1  0
 16 18  2  0
 18 19  1  0
 19 20  1  0
 19 21  1  0
 19 22  1  0
 22 23  1  0
 23 24  1  0
 23 25  1  0
 23 26  1  0
 26 27  1  0
 26 28  1  0
 26 29  1  0
 29 30  1  0
 29 31  1  0
 31 32  1  0
 31 33  1  0
 31 34  1  0
 34 35  1  0
 34 36  1  0
  4 37  1  0
 37 38  1  0
 38 39  1  0
 39 40  1  0
 40 41  1  0
 40 42  1  0
 40 43  1  0
 43 44  1  0
 44 45  1  0
 45 46  1  0
 46 47  1  0
 47 48  1  0
 47 49  1  0
 47 50  1  0
 46 51  1  0
 51 52  1  0
 51 53  1  0
 51 54  1  0
 46 55  1  0
 55 56  1  0
 55 57  1  0
 55 58  1  0
 45 59  2  0
 59 60  1  0
 59 61  1  0
 61 62  1  0
 38  2  2  0
 61 43  2  0
 18  9  1  0
 34 22  1  0
M  CHG  3   3  -1   8  -1  61   1
M  END
>  <UniqueID>  (13) 
12

>  <SMILES>  (13) 
CC(C)(C)c1c[nH+]c(CSc2c[n-]/c(=N\C(=O)[N-]c3ccccc3CN3CCNCC3)s2)o1

>  <Energy>  (13) 
132.14681333139455

>  <Genealogy>  (13) 
CC(C)(C)c1c[nH+]c(CSc2c[n-]c(=NC(=O)[N-]c3ccccc3CN3CCNCC3)s2)o1 (protonated)
CC(C)(C)c1c[nH+]c(CSc2c[n-]/c(=N\C(=O)[N-]c3ccccc3CN3CCNCC3)s2)o1 (cis-trans isomerization)
CC(C)(C)c1c[nH+]c(CSc2c[n-]/c(=N\C(=O)[N-]c3ccccc3CN3CCNCC3)s2)o1 (3D coordinates assigned)
CC(C)(C)c1c[nH+]c(CSc2c[n-]/c(=N\C(=O)[N-]c3ccccc3CN3CCNCC3)s2)o1 (nonaromatic ring conformer: 132.14681333139455 kcal/mol)

>  <smiles>  (13) 
CC(C)(C)c1cnc(CSc2c[nH]c(=NC(=O)Nc3ccccc3CN3CCNCC3)s2)o1

>  <score_type>  (13) 
oracle

>  <origin>  (13) 
adg

>  <m_score__min__energy>  (13) 
-9.6899999999999995

>  <m_primary>  (13) 
energy

$$$$
13:0
     RDKit          3D

 54 57  0  0  0  0  0  0  0  0999 V2000
   67.7360   33.3020   50.6940 C   0  0  0  0  0  0  0  0  0  0  0  0
   66.6140   33.0220   49.8040 N   0  0  0  0  0  0  0  0  0  0  0  0
   65.2580   33.0540   50.2740 C   0  0  0  0  0  0  0  0  0  0  0  0
   65.0260   33.2350   51.5030 O   0  0  0  0  0  0  0  0  0  0  0  0
   64.1310   32.8690   49.3330 C   0  0  0  0  0  0  0  0  0  0  0  0
   62.9350   32.2610   49.7490 C   0  0  0  0  0  0  0  0  0  0  0  0
   61.8920   32.0800   48.8350 C   0  0  0  0  0  0  0  0  0  0  0  0
   60.7090   31.4680   49.2780 O   0  0  0  0  0  0  0  0  0  0  0  0
   60.3120   30.1500   48.9980 C   0  0  0  0  0  0  0  0  0  0  0  0
   61.0860   29.0860   49.5250 C   0  0  0  0  0  0  0  0  0  0  0  0
   60.7460   27.7450   49.2640 C   0  0  0  0  0  0  0  0  0  0  0  0
   59.6280   27.5070   48.4710 C   0  0  0  0  0  0  0  0  0  0  0  0
   59.1270   26.3200   48.0870 N   0  0  0  0  0  0  0  0  0  0  0  0
   58.0620   26.7020   47.3360 C   0  0  0  0  0  0  0  0  0  0  0  0
   57.2680   25.8430   46.7700 N   0  0  0  0  0  0  0  0  0  0  0  0
   57.0320   25.7370   45.3600 C   0  0  0  0  0  0  0  0  0  0  0  0
   56.1460   24.9590   44.9070 O   0  0  0  0  0  0  0  0  0  0  0  0
   57.8070   26.5440   44.4650 N   0  0  0  0  0  0  0  0  0  0  0  0
   57.8830   27.9780   44.5010 C   0  0  0  0  0  0  0  0  0  0  0  0
   56.6970   28.7210   44.5330 C   0  0  0  0  0  0  0  0  0  0  0  0
   56.7390   30.1190   44.6050 C   0  0  0  0  0  0  0  0  0  0  0  0
   57.9710   30.7870   44.6740 C   0  0  0  0  0  0  0  0  0  0  0  0
   58.0360   32.5390   44.8480 S   0  0  0  0  0  0  0  0  0  0  0  0
   58.4510   33.1460   43.5370 O   0  0  0  0  0  0  0  0  0  0  0  0
   56.6870   33.0910   45.2250 O   0  0  0  0  0  0  0  0  0  0  0  0
   59.1980   32.9610   46.0640 N   0  0  0  0  0  0  0  0  0  0  0  0
   58.8230   33.4100   47.3670 C   0  0  0  0  0  0  0  0  0  0  0  0
   59.4450   34.6480   47.9290 C   0  0  0  0  0  0  0  0  0  0  0  0
   57.9540   32.7900   48.0330 O   0  0  0  0  0  0  0  0  0  0  0  0
   59.1590   30.0460   44.6610 C   0  0  0  0  0  0  0  0  0  0  0  0
   59.1190   28.6490   44.5760 C   0  0  0  0  0  0  0  0  0  0  0  0
   57.9110   28.0150   47.2480 O   0  0  0  0  0  0  0  0  0  0  0  0
   58.8860   28.5230   47.9520 C   0  0  0  0  0  0  0  0  0  0  0  0
   59.1960   29.8600   48.1740 C   0  0  0  0  0  0  0  0  0  0  0  0
   62.0410   32.5570   47.5230 C   0  0  0  0  0  0  0  0  0  0  0  0
   63.2400   33.1630   47.1450 C   0  0  0  0  0  0  0  0  0  0  0  0
   64.2480   33.2990   48.0460 N   0  0  0  0  0  0  0  0  0  0  0  0
   67.4042   33.2192   51.7395 H   0  0  0  0  0  0  0  0  0  0  0  0
   68.5422   32.5775   50.5067 H   0  0  0  0  0  0  0  0  0  0  0  0
   68.1073   34.3204   50.5067 H   0  0  0  0  0  0  0  0  0  0  0  0
   66.8210   32.7880   48.8040 H   0  0  0  0  0  0  0  0  0  0  0  0
   62.8191   31.9281   50.7910 H   0  0  0  0  0  0  0  0  0  0  0  0
   61.9650   29.3112   50.1469 H   0  0  0  0  0  0  0  0  0  0  0  0
   61.3425   26.9158   49.6721 H   0  0  0  0  0  0  0  0  0  0  0  0
   55.7266   28.2039   44.5014 H   0  0  0  0  0  0  0  0  0  0  0  0
   55.8023   30.6957   44.6075 H   0  0  0  0  0  0  0  0  0  0  0  0
   59.4225   34.6033   49.0279 H   0  0  0  0  0  0  0  0  0  0  0  0
   60.4876   34.7226   47.5863 H   0  0  0  0  0  0  0  0  0  0  0  0
   58.8825   35.5290   47.5863 H   0  0  0  0  0  0  0  0  0  0  0  0
   60.1279   30.5636   44.7178 H   0  0  0  0  0  0  0  0  0  0  0  0
   60.0564   28.0734   44.5678 H   0  0  0  0  0  0  0  0  0  0  0  0
   58.5956   30.6652   47.7254 H   0  0  0  0  0  0  0  0  0  0  0  0
   61.2194   32.4539   46.7989 H   0  0  0  0  0  0  0  0  0  0  0  0
   63.3692   33.5310   46.1165 H   0  0  0  0  0  0  0  0  0  0  0  0
  1  2  1  0
  2  3  1  0
  3  4  2  0
  3  5  1  0
  5  6  2  0
  6  7  1  0
  7  8  1  0
  8  9  1  0
  9 10  2  0
 10 11  1  0
 11 12  2  0
 12 13  1  0
 13 14  1  0
 14 15  2  3
 15 16  1  0
 16 17  2  0
 16 18  1  0
 18 19  1  0
 19 20  2  0
 20 21  1  0
 21 22  2  0
 22 23  1  0
 23 24  2  0
 23 25  2  0
 23 26  1  0
 26 27  1  0
 27 28  1  0
 27 29  2  0
 22 30  1  0
 30 31  2  0
 14 32  1  0
 32 33  1  0
 33 34  2  0
  7 35  2  0
 35 36  1  0
 36 37  2  0
 37  5  1  0
 34  9  1  0
 33 12  1  0
 31 19  1  0
  1 38  1  0
  1 39  1  0
  1 40  1  0
  2 41  1  0
  6 42  1  0
 10 43  1  0
 11 44  1  0
 20 45  1  0
 21 46  1  0
 28 47  1  0
 28 48  1  0
 28 49  1  0
 30 50  1  0
 31 51  1  0
 34 52  1  0
 35 53  1  0
 36 54  1  0
M  CHG  3  13  -1  18  -1  26  -1
M  END
>  <UniqueID>  (14) 
13

>  <SMILES>  (14) 
CNC(=O)c1cc(Oc2ccc3[n-]c(=NC(=O)[N-]c4ccc(S(=O)(=O)[N-]C(C)=O)cc4)oc3c2)ccn1

>  <Energy>  (14) 
106.17731970433796

>  <Genealogy>  (14) 
CNC(=O)c1cc(Oc2ccc3[n-]c(=NC(=O)[N-]c4ccc(S(=O)(=O)[N-]C(C)=O)cc4)oc3c2)ccn1 (protonated)
CNC(=O)c1cc(Oc2ccc3[n-]c(=NC(=O)[N-]c4ccc(S(=O)(=O)[N-]C(C)=O)cc4)oc3c2)ccn1 (3D coordinates assigned)
CNC(=O)c1cc(Oc2ccc3[n-]c(=NC(=O)[N-]c4ccc(S(=O)(=O)[N-]C(C)=O)cc4)oc3c2)ccn1 (optimized conformer: 106.17731970433796 kcal/mol)

>  <smiles>  (14) 
CNC(=O)c1cc(Oc2ccc3[nH]c(=NC(=O)Nc4ccc(S(=O)(=O)NC(C)=O)cc4)oc3c2)ccn1

>  <score_type>  (14) 
oracle

>  <origin>  (14) 
adg

>  <m_score__min__energy>  (14) 
-13.43

>  <m_primary>  (14) 
energy

$$$$
14:0
     RDKit          3D

 69 72  0  0  0  0  0  0  0  0999 V2000
   59.7311   35.3305   44.0919 H   0  0  0  0  0  0  0  0  0  0  0  0
   59.3140   34.7130   44.9010 C   0  0  0  0  0  0  0  0  0  0  0  0
   58.3840   33.7660   44.6220 N   0  0  0  0  0  0  0  0  0  0  0  0
   57.8590   32.9850   45.6070 C   0  0  0  0  0  0  0  0  0  0  0  0
   56.9930   32.0720   45.2970 N   0  0  0  0  0  0  0  0  0  0  0  0
   57.3300   30.6940   45.0830 C   0  0  0  0  0  0  0  0  0  0  0  0
   57.7090   29.8980   46.1740 C   0  0  0  0  0  0  0  0  0  0  0  0
   57.7675   30.3432   47.1782 H   0  0  0  0  0  0  0  0  0  0  0  0
   58.0140   28.5410   45.9980 C   0  0  0  0  0  0  0  0  0  0  0  0
   58.5380   27.7940   47.0990 N   0  0  0  0  0  0  0  0  0  0  0  0
   58.4620   26.7600   47.0760 H   0  0  0  0  0  0  0  0  0  0  0  0
   59.3490   28.4100   48.1500 C   0  0  0  0  0  0  0  0  0  0  0  0
   58.7267   29.1283   48.7040 H   0  0  0  0  0  0  0  0  0  0  0  0
   59.7154   27.6099   48.8100 H   0  0  0  0  0  0  0  0  0  0  0  0
   60.5690   29.1490   47.5760 C   0  0  0  0  0  0  0  0  0  0  0  0
   61.4806   28.6564   47.9452 H   0  0  0  0  0  0  0  0  0  0  0  0
   60.4885   29.1064   46.4798 H   0  0  0  0  0  0  0  0  0  0  0  0
   60.6330   30.8830   48.0360 S   0  0  0  0  0  0  0  0  0  0  0  0
   59.3070   31.2690   48.6350 O   0  0  0  0  0  0  0  0  0  0  0  0
   60.8980   31.7210   46.8170 O   0  0  0  0  0  0  0  0  0  0  0  0
   61.8880   31.1940   49.2640 C   0  0  0  0  0  0  0  0  0  0  0  0
   61.4528   31.0862   50.2685 H   0  0  0  0  0  0  0  0  0  0  0  0
   62.7087   30.4721   49.1405 H   0  0  0  0  0  0  0  0  0  0  0  0
   62.2766   32.2156   49.1405 H   0  0  0  0  0  0  0  0  0  0  0  0
   57.9830   27.9820   44.7110 C   0  0  0  0  0  0  0  0  0  0  0  0
   58.3330   26.6390   44.5190 O   0  0  0  0  0  0  0  0  0  0  0  0
   57.4020   25.5980   44.6420 C   0  0  0  0  0  0  0  0  0  0  0  0
   56.5190   25.5680   45.7300 C   0  0  0  0  0  0  0  0  0  0  0  0
   56.5420   26.3758   46.4762 H   0  0  0  0  0  0  0  0  0  0  0  0
   55.6100   24.5170   45.8710 C   0  0  0  0  0  0  0  0  0  0  0  0
   54.9068   24.5076   46.7168 H   0  0  0  0  0  0  0  0  0  0  0  0
   55.5940   23.4660   44.9270 C   0  0  0  0  0  0  0  0  0  0  0  0
   54.6610   22.3860   45.0500 N   0  0  0  0  0  0  0  0  0  0  0  0
   53.6110   22.3810   46.0210 C   0  0  0  0  0  0  0  0  0  0  0  0
   52.4210   22.3550   45.6140 O   0  0  0  0  0  0  0  0  0  0  0  0
   53.9370   22.6240   47.4070 N   0  0  0  0  0  0  0  0  0  0  0  0
   54.9620   22.6330   47.6240 H   0  0  0  0  0  0  0  0  0  0  0  0
   53.0570   22.4540   48.5360 C   0  0  0  0  0  0  0  0  0  0  0  0
   51.6830   22.1700   48.4030 C   0  0  0  0  0  0  0  0  0  0  0  0
   51.2356   22.0823   47.4019 H   0  0  0  0  0  0  0  0  0  0  0  0
   50.8850   21.9990   49.5420 C   0  0  0  0  0  0  0  0  0  0  0  0
   49.8214   21.7431   49.4270 H   0  0  0  0  0  0  0  0  0  0  0  0
   51.4290   22.1510   50.8330 C   0  0  0  0  0  0  0  0  0  0  0  0
   50.5740   21.9650   52.0330 C   0  0  0  0  0  0  0  0  0  0  0  0
   49.9280   22.9420   52.4980 O   0  0  0  0  0  0  0  0  0  0  0  0
   50.4680   20.6370   52.7370 C   0  0  0  0  0  0  0  0  0  0  0  0
   50.4808   20.7969   53.8252 H   0  0  0  0  0  0  0  0  0  0  0  0
   49.5276   20.1438   52.4498 H   0  0  0  0  0  0  0  0  0  0  0  0
   51.3182   20.0009   52.4498 H   0  0  0  0  0  0  0  0  0  0  0  0
   52.7930   22.4780   50.9590 C   0  0  0  0  0  0  0  0  0  0  0  0
   53.2332   22.6141   51.9578 H   0  0  0  0  0  0  0  0  0  0  0  0
   53.5880   22.6300   49.8240 C   0  0  0  0  0  0  0  0  0  0  0  0
   54.6500   22.8924   49.9394 H   0  0  0  0  0  0  0  0  0  0  0  0
   56.4720   23.5040   43.8360 C   0  0  0  0  0  0  0  0  0  0  0  0
   56.4559   22.6954   43.0904 H   0  0  0  0  0  0  0  0  0  0  0  0
   57.3720   24.5710   43.6920 C   0  0  0  0  0  0  0  0  0  0  0  0
   58.0554   24.6001   42.8305 H   0  0  0  0  0  0  0  0  0  0  0  0
   57.6390   28.7910   43.6140 C   0  0  0  0  0  0  0  0  0  0  0  0
   57.6401   28.3598   42.6020 H   0  0  0  0  0  0  0  0  0  0  0  0
   57.2950   30.1370   43.7890 C   0  0  0  0  0  0  0  0  0  0  0  0
   56.9570   30.9700   42.5840 C   0  0  0  0  0  0  0  0  0  0  0  0
   56.5620   31.9434   42.9102 H   0  0  0  0  0  0  0  0  0  0  0  0
   57.8631   31.1257   41.9800 H   0  0  0  0  0  0  0  0  0  0  0  0
   56.1986   30.4503   41.9800 H   0  0  0  0  0  0  0  0  0  0  0  0
   58.2690   33.1580   46.8950 N   0  0  0  0  0  0  0  0  0  0  0  0
   59.1940   34.0960   47.2140 C   0  0  0  0  0  0  0  0  0  0  0  0
   59.6900   34.3050   48.8830 Cl  0  0  0  0  0  0  0  0  0  0  0  0
   59.7410   34.9030   46.2160 C   0  0  0  0  0  0  0  0  0  0  0  0
   60.4906   35.6703   46.4597 H   0  0  0  0  0  0  0  0  0  0  0  0
  1  2  1  0
  2  3  1  0
  3  4  1  0
  4  5  2  0
  5  6  1  0
  6  7  2  0
  7  8  1  0
  7  9  1  0
  9 10  1  0
 10 11  1  0
 10 12  1  0
 12 13  1  0
 12 14  1  0
 12 15  1  0
 15 16  1  0
 15 17  1  0
 15 18  1  0
 18 19  2  0
 18 20  2  0
 18 21  1  0
 21 22  1  0
 21 23  1  0
 21 24  1  0
  9 25  2  0
 25 26  1  0
 26 27  1  0
 27 28  2  0
 28 29  1  0
 28 30  1  0
 30 31  1  0
 30 32  2  0
 32 33  1  0
 33 34  1  0
 34 35  2  0
 34 36  1  0
 36 37  1  0
 36 38  1  0
 38 39  2  0
 39 40  1  0
 39 41  1  0
 41 42  1  0
 41 43  2  0
 43 44  1  0
 44 45  2  0
 44 46  1  0
 46 47  1  0
 46 48  1  0
 46 49  1  0
 43 50  1  0
 50 51  1  0
 50 52  2  0
 52 53  1  0
 32 54  1  0
 54 55  1  0
 54 56  2  0
 56 57  1  0
 25 58  1  0
 58 59  1  0
 58 60  2  0
 60 61  1  0
 61 62  1  0
 61 63  1  0
 61 64  1  0
  4 65  1  0
 65 66  2  0
 66 67  1  0
 66 68  1  0
 68 69  1  0
 68  2  2  0
 60  6  1  0
 56 27  1  0
 52 38  1  0
M  CHG  2   3  -1  33  -1
M  END
>  <UniqueID>  (15) 
14

>  <SMILES>  (15) 
CC(=O)c1ccc(NC(=O)[N-]c2ccc(Oc3cc(C)c(/N=c4\nc(Cl)cc[n-]4)cc3NCCS(C)(=O)=O)cc2)cc1

>  <Energy>  (15) 
104.0920630325948

>  <Genealogy>  (15) 
CC(=O)c1ccc(NC(=O)[N-]c2ccc(Oc3cc(C)c(N=c4nc(Cl)cc[n-]4)cc3NCCS(C)(=O)=O)cc2)cc1 (protonated)
CC(=O)c1ccc(NC(=O)[N-]c2ccc(Oc3cc(C)c(/N=c4\nc(Cl)cc[n-]4)cc3NCCS(C)(=O)=O)cc2)cc1 (cis-trans isomerization)
CC(=O)c1ccc(NC(=O)[N-]c2ccc(Oc3cc(C)c(/N=c4\nc(Cl)cc[n-]4)cc3NCCS(C)(=O)=O)cc2)cc1 (3D coordinates assigned)
CC(=O)c1ccc(NC(=O)[N-]c2ccc(Oc3cc(C)c(/N=c4\nc(Cl)cc[n-]4)cc3NCCS(C)(=O)=O)cc2)cc1 (optimized conformer: 104.0920630325948 kcal/mol)

>  <smiles>  (15) 
CC(=O)c1ccc(NC(=O)Nc2ccc(Oc3cc(C)c(N=c4nc(Cl)cc[nH]4)cc3NCCS(C)(=O)=O)cc2)cc1

>  <score_type>  (15) 
oracle

>  <origin>  (15) 
adg

>  <m_score__min__energy>  (15) 
-12.85

>  <m_primary>  (15) 
energy

$$$$
15:0
     RDKit          3D

 42 44  0  0  0  0  0  0  0  0999 V2000
   60.1470   28.8800   46.0050 O   0  0  0  0  0  0  0  0  0  0  0  0
   59.3740   29.1720   46.9540 C   0  0  0  0  0  0  0  0  0  0  0  0
   57.8880   29.1420   46.7160 C   0  0  0  0  0  0  0  0  0  0  0  0
   57.5520   29.8220   45.4150 C   0  0  0  0  0  0  0  0  0  0  0  0
   58.4240   30.7910   44.8890 C   0  0  0  0  0  0  0  0  0  0  0  0
   58.1340   31.4200   43.6750 C   0  0  0  0  0  0  0  0  0  0  0  0
   56.9780   31.0790   42.9700 C   0  0  0  0  0  0  0  0  0  0  0  0
   56.1110   30.1080   43.4760 C   0  0  0  0  0  0  0  0  0  0  0  0
   56.3930   29.4740   44.6910 C   0  0  0  0  0  0  0  0  0  0  0  0
   55.5200   28.5040   45.1720 O   0  0  0  0  0  0  0  0  0  0  0  0
   59.9400   29.6540   48.1810 N   0  0  0  0  0  0  0  0  0  0  0  0
   59.3120   30.5600   49.0980 C   0  0  0  0  0  0  0  0  0  0  0  0
   58.4100   30.0970   50.0680 C   0  0  0  0  0  0  0  0  0  0  0  0
   57.7690   30.9980   50.9290 C   0  0  0  0  0  0  0  0  0  0  0  0
   56.5370   30.4130   52.0440 S   0  0  0  0  0  0  0  0  0  0  0  0
   56.8260   28.9780   52.3810 O   0  0  0  0  0  0  0  0  0  0  0  0
   56.5320   31.2270   53.3070 O   0  0  0  0  0  0  0  0  0  0  0  0
   54.9800   30.5220   51.2880 N   0  0  0  0  0  0  0  0  0  0  0  0
   53.7450   30.7040   51.9950 C   0  0  0  0  0  0  0  0  0  0  0  0
   53.4840   30.0620   53.2200 C   0  0  0  0  0  0  0  0  0  0  0  0
   52.2870   30.3050   53.9000 C   0  0  0  0  0  0  0  0  0  0  0  0
   51.3450   31.1900   53.3700 C   0  0  0  0  0  0  0  0  0  0  0  0
   51.5910   31.8200   52.1470 C   0  0  0  0  0  0  0  0  0  0  0  0
   50.6540   32.7010   51.6200 O   0  0  0  0  0  0  0  0  0  0  0  0
   52.7820   31.5700   51.4560 C   0  0  0  0  0  0  0  0  0  0  0  0
   58.0840   32.3610   50.8640 C   0  0  0  0  0  0  0  0  0  0  0  0
   59.0260   32.8190   49.9380 C   0  0  0  0  0  0  0  0  0  0  0  0
   59.6390   31.9220   49.0550 C   0  0  0  0  0  0  0  0  0  0  0  0
   60.5630   32.3930   48.1280 O   0  0  0  0  0  0  0  0  0  0  0  0
   57.5480   28.0966   46.6772 H   0  0  0  0  0  0  0  0  0  0  0  0
   57.3839   29.6726   47.5371 H   0  0  0  0  0  0  0  0  0  0  0  0
   59.3406   31.0560   45.4364 H   0  0  0  0  0  0  0  0  0  0  0  0
   58.8167   32.1840   43.2748 H   0  0  0  0  0  0  0  0  0  0  0  0
   56.7500   31.5755   42.0153 H   0  0  0  0  0  0  0  0  0  0  0  0
   55.2023   29.8404   42.9168 H   0  0  0  0  0  0  0  0  0  0  0  0
   58.2047   29.0197   50.1532 H   0  0  0  0  0  0  0  0  0  0  0  0
   54.2240   29.3670   53.6436 H   0  0  0  0  0  0  0  0  0  0  0  0
   52.0863   29.7978   54.8552 H   0  0  0  0  0  0  0  0  0  0  0  0
   50.4107   31.3908   53.9147 H   0  0  0  0  0  0  0  0  0  0  0  0
   52.9639   32.0549   50.4855 H   0  0  0  0  0  0  0  0  0  0  0  0
   57.5897   33.0720   51.5423 H   0  0  0  0  0  0  0  0  0  0  0  0
   59.2863   33.8872   49.9031 H   0  0  0  0  0  0  0  0  0  0  0  0
  1  2  2  0
  2  3  1  0
  3  4  1  0
  4  5  2  0
  5  6  1  0
  6  7  2  0
  7  8  1  0
  8  9  2  0
  9 10  1  0
  2 11  1  0
 11 12  1  0
 12 13  2  0
 13 14  1  0
 14 15  1  0
 15 16  2  0
 15 17  2  0
 15 18  1  0
 18 19  1  0
 19 20  2  0
 20 21  1  0
 21 22  2  0
 22 23  1  0
 23 24  1  0
 23 25  2  0
 14 26  2  0
 26 27  1  0
 27 28  2  0
 28 29  1  0
  9  4  1  0
 28 12  1  0
 25 19  1  0
  3 30  1  0
  3 31  1  0
  5 32  1  0
  6 33  1  0
  7 34  1  0
  8 35  1  0
 13 36  1  0
 20 37  1  0
 21 38  1  0
 22 39  1  0
 25 40  1  0
 26 41  1  0
 27 42  1  0
M  CHG  5  10  -1  11  -1  18  -1  24  -1  29  -1
M  END
>  <UniqueID>  (16) 
15

>  <SMILES>  (16) 
O=C(Cc1ccccc1[O-])[N-]c1cc(S(=O)(=O)[N-]c2cccc([O-])c2)ccc1[O-]

>  <Energy>  (16) 
48.64213588667246

>  <Genealogy>  (16) 
O=C(Cc1ccccc1[O-])[N-]c1cc(S(=O)(=O)[N-]c2cccc([O-])c2)ccc1[O-] (protonated)
O=C(Cc1ccccc1[O-])[N-]c1cc(S(=O)(=O)[N-]c2cccc([O-])c2)ccc1[O-] (3D coordinates assigned)
O=C(Cc1ccccc1[O-])[N-]c1cc(S(=O)(=O)[N-]c2cccc([O-])c2)ccc1[O-] (optimized conformer: 48.64213588667246 kcal/mol)

>  <smiles>  (16) 
O=C(Cc1ccccc1O)Nc1cc(S(=O)(=O)Nc2cccc(O)c2)ccc1O

>  <score_type>  (16) 
oracle

>  <origin>  (16) 
adg

>  <m_score__min__energy>  (16) 
-18.420000000000002

>  <m_primary>  (16) 
energy

$$$$
16:0
     RDKit          3D

 60 64  0  0  0  0  0  0  0  0999 V2000
   58.3320   32.7030   48.3450 C   0  0  0  0  0  0  0  0  0  0  0  0
   58.6620   33.5330   47.1290 C   0  0  0  0  0  0  0  0  0  0  0  0
   59.2660   34.7900   47.3070 C   0  0  0  0  0  0  0  0  0  0  0  0
   59.6040   35.5790   46.2060 C   0  0  0  0  0  0  0  0  0  0  0  0
   59.3440   35.1290   44.9110 C   0  0  0  0  0  0  0  0  0  0  0  0
   58.7430   33.8850   44.7080 C   0  0  0  0  0  0  0  0  0  0  0  0
   58.5020   33.4560   43.4410 N   0  0  0  0  0  0  0  0  0  0  0  0
   57.9290   32.2520   43.1800 C   0  0  0  0  0  0  0  0  0  0  0  0
   57.7350   31.9020   41.9860 O   0  0  0  0  0  0  0  0  0  0  0  0
   57.5640   31.4010   44.2300 C   0  0  0  0  0  0  0  0  0  0  0  0
   56.9880   30.1560   43.9220 O   0  0  0  0  0  0  0  0  0  0  0  0
   56.1890   29.3720   44.8110 C   0  0  0  0  0  0  0  0  0  0  0  0
   57.0550   28.7000   45.8420 C   0  0  0  0  0  0  0  0  0  0  0  0
   58.0650   29.4110   46.4120 N   0  0  0  0  0  0  0  0  0  0  0  0
   58.8880   28.8860   47.3630 C   0  0  0  0  0  0  0  0  0  0  0  0
   59.9730   29.7250   47.9280 C   0  0  0  0  0  0  0  0  0  0  0  0
   60.2590   29.7220   49.3060 C   0  0  0  0  0  0  0  0  0  0  0  0
   61.2930   30.5110   49.8180 C   0  0  0  0  0  0  0  0  0  0  0  0
   62.0560   31.3310   48.9690 C   0  0  0  0  0  0  0  0  0  0  0  0
   63.1660   32.1420   49.5210 C   0  0  0  0  0  0  0  0  0  0  0  0
   63.0110   32.7300   50.6280 O   0  0  0  0  0  0  0  0  0  0  0  0
   64.4100   32.2770   48.8140 N   0  0  0  0  0  0  0  0  0  0  0  0
   65.5780   32.9300   49.4050 C   0  0  0  0  0  0  0  0  0  0  0  0
   66.0460   32.1720   50.6170 C   0  0  0  0  0  0  0  0  0  0  0  0
   65.7730   32.6670   51.9040 C   0  0  0  0  0  0  0  0  0  0  0  0
   66.1960   31.9630   53.0360 C   0  0  0  0  0  0  0  0  0  0  0  0
   66.8930   30.7590   52.8910 C   0  0  0  0  0  0  0  0  0  0  0  0
   67.3060   30.0780   53.9890 F   0  0  0  0  0  0  0  0  0  0  0  0
   67.1640   30.2580   51.6140 C   0  0  0  0  0  0  0  0  0  0  0  0
   66.7420   30.9590   50.4790 C   0  0  0  0  0  0  0  0  0  0  0  0
   61.7670   31.3350   47.5930 C   0  0  0  0  0  0  0  0  0  0  0  0
   60.7330   30.5470   47.0810 C   0  0  0  0  0  0  0  0  0  0  0  0
   58.7050   27.5520   47.7650 C   0  0  0  0  0  0  0  0  0  0  0  0
   57.6870   26.7950   47.1870 C   0  0  0  0  0  0  0  0  0  0  0  0
   56.8580   27.3600   46.2180 C   0  0  0  0  0  0  0  0  0  0  0  0
   55.8530   26.5900   45.6440 O   0  0  0  0  0  0  0  0  0  0  0  0
   57.7950   31.8250   45.5540 C   0  0  0  0  0  0  0  0  0  0  0  0
   58.3940   33.0720   45.8130 C   0  0  0  0  0  0  0  0  0  0  0  0
   58.5606   33.2780   49.2545 H   0  0  0  0  0  0  0  0  0  0  0  0
   57.2628   32.4448   48.3335 H   0  0  0  0  0  0  0  0  0  0  0  0
   58.9320   31.7811   48.3335 H   0  0  0  0  0  0  0  0  0  0  0  0
   59.4742   35.1553   48.3235 H   0  0  0  0  0  0  0  0  0  0  0  0
   60.0774   36.5599   46.3600 H   0  0  0  0  0  0  0  0  0  0  0  0
   59.6131   35.7557   44.0480 H   0  0  0  0  0  0  0  0  0  0  0  0
   55.4635   30.0254   45.3176 H   0  0  0  0  0  0  0  0  0  0  0  0
   55.6625   28.6003   44.2302 H   0  0  0  0  0  0  0  0  0  0  0  0
   59.6642   29.0938   49.9854 H   0  0  0  0  0  0  0  0  0  0  0  0
   61.5117   30.4899   50.8958 H   0  0  0  0  0  0  0  0  0  0  0  0
   64.4900   31.9380   47.8300 H   0  0  0  0  0  0  0  0  0  0  0  0
   66.3891   32.9628   48.6627 H   0  0  0  0  0  0  0  0  0  0  0  0
   65.3008   33.9505   49.7078 H   0  0  0  0  0  0  0  0  0  0  0  0
   65.2239   33.6129   52.0214 H   0  0  0  0  0  0  0  0  0  0  0  0
   65.9805   32.3562   54.0405 H   0  0  0  0  0  0  0  0  0  0  0  0
   67.7105   29.3100   51.5014 H   0  0  0  0  0  0  0  0  0  0  0  0
   66.9555   30.5598   49.4765 H   0  0  0  0  0  0  0  0  0  0  0  0
   62.3604   31.9643   46.9133 H   0  0  0  0  0  0  0  0  0  0  0  0
   60.5123   30.5710   46.0036 H   0  0  0  0  0  0  0  0  0  0  0  0
   59.3598   27.1086   48.5296 H   0  0  0  0  0  0  0  0  0  0  0  0
   57.5372   25.7499   47.4958 H   0  0  0  0  0  0  0  0  0  0  0  0
   57.5045   31.1753   46.3928 H   0  0  0  0  0  0  0  0  0  0  0  0
  1  2  1  0
  2  3  2  0
  3  4  1  0
  4  5  2  0
  5  6  1  0
  6  7  1  0
  7  8  1  0
  8  9  2  0
  8 10  1  0
 10 11  1  0
 11 12  1  0
 12 13  1  0
 13 14  2  0
 14 15  1  0
 15 16  1  0
 16 17  2  0
 17 18  1  0
 18 19  2  0
 19 20  1  0
 20 21  2  0
 20 22  1  0
 22 23  1  0
 23 24  1  0
 24 25  2  0
 25 26  1  0
 26 27  2  0
 27 28  1  0
 27 29  1  0
 29 30  2  0
 19 31  1  0
 31 32  2  0
 15 33  2  0
 33 34  1  0
 34 35  2  0
 35 36  1  0
 10 37  2  0
 37 38  1  0
 38  2  1  0
 38  6  2  0
 35 13  1  0
 32 16  1  0
 30 24  1  0
  1 39  1  0
  1 40  1  0
  1 41  1  0
  3 42  1  0
  4 43  1  0
  5 44  1  0
 12 45  1  0
 12 46  1  0
 17 47  1  0
 18 48  1  0
 22 49  1  0
 23 50  1  0
 23 51  1  0
 25 52  1  0
 26 53  1  0
 29 54  1  0
 30 55  1  0
 31 56  1  0
 32 57  1  0
 33 58  1  0
 34 59  1  0
 37 60  1  0
M  CHG  2   7  -1  36  -1
M  END
>  <UniqueID>  (17) 
16

>  <SMILES>  (17) 
Cc1cccc2[n-]c(=O)c(OCc3nc(-c4ccc(C(=O)NCc5ccc(F)cc5)cc4)ccc3[O-])cc12

>  <Energy>  (17) 
76.50902003616677

>  <Genealogy>  (17) 
Cc1cccc2[n-]c(=O)c(OCc3nc(-c4ccc(C(=O)NCc5ccc(F)cc5)cc4)ccc3[O-])cc12 (protonated)
Cc1cccc2[n-]c(=O)c(OCc3nc(-c4ccc(C(=O)NCc5ccc(F)cc5)cc4)ccc3[O-])cc12 (3D coordinates assigned)
Cc1cccc2[n-]c(=O)c(OCc3nc(-c4ccc(C(=O)NCc5ccc(F)cc5)cc4)ccc3[O-])cc12 (optimized conformer: 76.50902003616677 kcal/mol)

>  <smiles>  (17) 
Cc1cccc2[nH]c(=O)c(OCc3nc(-c4ccc(C(=O)NCc5ccc(F)cc5)cc4)ccc3O)cc12

>  <score_type>  (17) 
oracle

>  <origin>  (17) 
adg

>  <m_score__min__energy>  (17) 
-12.06

>  <m_primary>  (17) 
energy

$$$$
17:0
     RDKit          3D

 41 43  0  0  0  0  0  0  0  0999 V2000
   61.7756   32.3223   47.3305 H   0  0  0  0  0  0  0  0  0  0  0  0
   60.9950   31.5750   47.1250 C   0  0  0  0  0  0  0  0  0  0  0  0
   59.6460   31.9200   47.2510 C   0  0  0  0  0  0  0  0  0  0  0  0
   59.3663   32.9396   47.5546 H   0  0  0  0  0  0  0  0  0  0  0  0
   58.6520   30.9720   46.9920 C   0  0  0  0  0  0  0  0  0  0  0  0
   57.5919   31.2492   47.0889 H   0  0  0  0  0  0  0  0  0  0  0  0
   59.0020   29.6650   46.6080 C   0  0  0  0  0  0  0  0  0  0  0  0
   57.9490   28.6580   46.3320 C   0  0  0  0  0  0  0  0  0  0  0  0
   56.9060   28.8910   45.4020 C   0  0  0  0  0  0  0  0  0  0  0  0
   56.8490   30.0880   44.5370 C   0  0  0  0  0  0  0  0  0  0  0  0
   56.0510   31.0200   44.8270 O   0  0  0  0  0  0  0  0  0  0  0  0
   57.6310   30.1840   43.3450 N   0  0  0  0  0  0  0  0  0  0  0  0
   57.6120   31.0590   42.7750 H   0  0  0  0  0  0  0  0  0  0  0  0
   58.1610   29.3640   42.9780 H   0  0  0  0  0  0  0  0  0  0  0  0
   55.9090   27.9750   45.2770 N   0  0  0  0  0  0  0  0  0  0  0  0
   55.8980   26.8250   45.9970 C   0  0  0  0  0  0  0  0  0  0  0  0
   54.9220   25.9810   45.8330 N   0  0  0  0  0  0  0  0  0  0  0  0
   55.0660   24.5250   45.8410 C   0  0  0  0  0  0  0  0  0  0  0  0
   55.8359   24.2419   46.5739 H   0  0  0  0  0  0  0  0  0  0  0  0
   54.0995   24.0746   46.1111 H   0  0  0  0  0  0  0  0  0  0  0  0
   55.4780   24.0160   44.4560 C   0  0  0  0  0  0  0  0  0  0  0  0
   54.7196   23.3080   44.0905 H   0  0  0  0  0  0  0  0  0  0  0  0
   55.5582   24.8737   43.7719 H   0  0  0  0  0  0  0  0  0  0  0  0
   56.8110   23.3220   44.5230 C   0  0  0  0  0  0  0  0  0  0  0  0
   57.0130   22.1110   43.8400 C   0  0  0  0  0  0  0  0  0  0  0  0
   56.1862   21.6559   43.2750 H   0  0  0  0  0  0  0  0  0  0  0  0
   58.2620   21.4820   43.8760 C   0  0  0  0  0  0  0  0  0  0  0  0
   58.4130   20.5293   43.3473 H   0  0  0  0  0  0  0  0  0  0  0  0
   59.3180   22.0630   44.5830 C   0  0  0  0  0  0  0  0  0  0  0  0
   60.2989   21.5661   44.6123 H   0  0  0  0  0  0  0  0  0  0  0  0
   59.1290   23.2750   45.2530 C   0  0  0  0  0  0  0  0  0  0  0  0
   59.9621   23.7325   45.8068 H   0  0  0  0  0  0  0  0  0  0  0  0
   57.8810   23.9070   45.2200 C   0  0  0  0  0  0  0  0  0  0  0  0
   57.7375   24.8648   45.7415 H   0  0  0  0  0  0  0  0  0  0  0  0
   56.9010   26.5750   46.8770 N   0  0  0  0  0  0  0  0  0  0  0  0
   57.9150   27.4550   47.0640 C   0  0  0  0  0  0  0  0  0  0  0  0
   58.8080   27.1910   47.9120 O   0  0  0  0  0  0  0  0  0  0  0  0
   60.3600   29.3290   46.4780 C   0  0  0  0  0  0  0  0  0  0  0  0
   60.6452   28.3122   46.1702 H   0  0  0  0  0  0  0  0  0  0  0  0
   61.3510   30.2810   46.7380 C   0  0  0  0  0  0  0  0  0  0  0  0
   62.4124   30.0103   46.6376 H   0  0  0  0  0  0  0  0  0  0  0  0
  1  2  1  0
  2  3  2  0
  3  4  1  0
  3  5  1  0
  5  6  1  0
  5  7  2  0
  7  8  1  0
  8  9  2  0
  9 10  1  0
 10 11  2  0
 10 12  1  0
 12 13  1  0
 12 14  1  0
  9 15  1  0
 15 16  1  0
 16 17  2  0
 17 18  1  0
 18 19  1  0
 18 20  1  0
 18 21  1  0
 21 22  1  0
 21 23  1  0
 21 24  1  0
 24 25  2  0
 25 26  1  0
 25 27  1  0
 27 28  1  0
 27 29  2  0
 29 30  1  0
 29 31  1  0
 31 32  1  0
 31 33  2  0
 33 34  1  0
 16 35  1  0
 35 36  1  0
 36 37  2  0
  7 38  1  0
 38 39  1  0
 38 40  2  0
 40 41  1  0
 40  2  1  0
 36  8  1  0
 33 24  1  0
M  CHG  2  15  -1  35  -1
M  END
>  <UniqueID>  (18) 
17

>  <SMILES>  (18) 
NC(=O)c1[n-]/c(=N/CCc2ccccc2)[n-]c(=O)c1-c1ccccc1

>  <Energy>  (18) 
52.81962155907064

>  <Genealogy>  (18) 
NC(=O)c1[n-]c(=NCCc2ccccc2)[n-]c(=O)c1-c1ccccc1 (protonated)
NC(=O)c1[n-]/c(=N/CCc2ccccc2)[n-]c(=O)c1-c1ccccc1 (cis-trans isomerization)
NC(=O)c1[n-]/c(=N/CCc2ccccc2)[n-]c(=O)c1-c1ccccc1 (3D coordinates assigned)
NC(=O)c1[n-]/c(=N/CCc2ccccc2)[n-]c(=O)c1-c1ccccc1 (optimized conformer: 52.81962155907064 kcal/mol)

>  <smiles>  (18) 
NC(=O)c1[nH]c(=NCCc2ccccc2)[nH]c(=O)c1-c1ccccc1

>  <score_type>  (18) 
oracle

>  <origin>  (18) 
adg

>  <m_score__min__energy>  (18) 
-11.4

>  <m_primary>  (18) 
energy

$$$$
18:0
     RDKit          3D

 34 35  0  0  0  0  0  0  0  0999 V2000
   57.3910   28.2790   43.4330 O   0  0  0  0  0  0  0  0  0  0  0  0
   57.3580   29.2890   44.1920 C   0  0  0  0  0  0  0  0  0  0  0  0
   56.7860   30.5770   43.6780 C   0  0  0  0  0  0  0  0  0  0  0  0
   56.6000   31.5260   44.7730 N   0  0  0  0  0  0  0  0  0  0  0  0
   57.3790   32.7090   45.0070 C   0  0  0  0  0  0  0  0  0  0  0  0
   57.3990   33.5940   44.1150 O   0  0  0  0  0  0  0  0  0  0  0  0
   58.1620   32.9170   46.2460 C   0  0  0  0  0  0  0  0  0  0  0  0
   58.6560   34.1900   46.5740 C   0  0  0  0  0  0  0  0  0  0  0  0
   59.3630   34.3680   47.7650 C   0  0  0  0  0  0  0  0  0  0  0  0
   59.5650   33.2850   48.6220 C   0  0  0  0  0  0  0  0  0  0  0  0
   59.0580   32.0340   48.2690 C   0  0  0  0  0  0  0  0  0  0  0  0
   58.3740   31.8810   47.1060 N   0  0  0  0  0  0  0  0  0  0  0  0
   57.8420   29.1960   45.5390 N   0  0  0  0  0  0  0  0  0  0  0  0
   58.4960   27.9800   46.0210 C   0  0  0  0  0  0  0  0  0  0  0  0
   57.5540   27.1230   46.8760 C   0  0  0  0  0  0  0  0  0  0  0  0
   57.0730   25.9490   46.1370 N   0  0  0  0  0  0  0  0  0  0  0  0
   55.7760   25.7690   45.7470 C   0  0  0  0  0  0  0  0  0  0  0  0
   54.7840   26.7120   45.9940 O   0  0  0  0  0  0  0  0  0  0  0  0
   55.5130   24.5710   45.0930 C   0  0  0  0  0  0  0  0  0  0  0  0
   56.9520   23.6990   45.0060 S   0  0  0  0  0  0  0  0  0  0  0  0
   57.8410   24.8860   45.7930 C   0  0  0  0  0  0  0  0  0  0  0  0
   59.0720   24.7960   46.0470 O   0  0  0  0  0  0  0  0  0  0  0  0
   57.4749   31.0092   42.9372 H   0  0  0  0  0  0  0  0  0  0  0  0
   55.8099   30.3731   43.2136 H   0  0  0  0  0  0  0  0  0  0  0  0
   58.4872   35.0408   45.8976 H   0  0  0  0  0  0  0  0  0  0  0  0
   59.7599   35.3598   48.0273 H   0  0  0  0  0  0  0  0  0  0  0  0
   60.1172   33.4162   49.5643 H   0  0  0  0  0  0  0  0  0  0  0  0
   59.2125   31.1710   48.9333 H   0  0  0  0  0  0  0  0  0  0  0  0
   57.7260   30.0170   46.1730 H   0  0  0  0  0  0  0  0  0  0  0  0
   58.8277   27.3879   45.1554 H   0  0  0  0  0  0  0  0  0  0  0  0
   59.3488   28.2780   46.6486 H   0  0  0  0  0  0  0  0  0  0  0  0
   58.0942   26.7842   47.7723 H   0  0  0  0  0  0  0  0  0  0  0  0
   56.6839   27.7372   47.1511 H   0  0  0  0  0  0  0  0  0  0  0  0
   54.5369   24.2489   44.7011 H   0  0  0  0  0  0  0  0  0  0  0  0
  1  2  2  0
  2  3  1  0
  3  4  1  0
  4  5  1  0
  5  6  2  0
  5  7  1  0
  7  8  2  0
  8  9  1  0
  9 10  2  0
 10 11  1  0
 11 12  2  0
  2 13  1  0
 13 14  1  0
 14 15  1  0
 15 16  1  0
 16 17  1  0
 17 18  1  0
 17 19  2  0
 19 20  1  0
 20 21  1  0
 21 22  2  0
 12  7  1  0
 21 16  1  0
  3 23  1  0
  3 24  1  0
  8 25  1  0
  9 26  1  0
 10 27  1  0
 11 28  1  0
 13 29  1  0
 14 30  1  0
 14 31  1  0
 15 32  1  0
 15 33  1  0
 19 34  1  0
M  CHG  2   4  -1  18  -1
M  END
>  <UniqueID>  (19) 
18

>  <SMILES>  (19) 
O=C(C[N-]C(=O)c1ccccn1)NCCn1c([O-])csc1=O

>  <Energy>  (19) 
60.0312846242611

>  <Genealogy>  (19) 
O=C(C[N-]C(=O)c1ccccn1)NCCn1c([O-])csc1=O (protonated)
O=C(C[N-]C(=O)c1ccccn1)NCCn1c([O-])csc1=O (3D coordinates assigned)
O=C(C[N-]C(=O)c1ccccn1)NCCn1c([O-])csc1=O (optimized conformer: 60.0312846242611 kcal/mol)

>  <smiles>  (19) 
O=C(CNC(=O)c1ccccn1)NCCn1c(O)csc1=O

>  <score_type>  (19) 
oracle

>  <origin>  (19) 
adg

>  <m_score__min__energy>  (19) 
-12.130000000000001

>  <m_primary>  (19) 
energy

$$$$
19:0
     RDKit          3D

 51 55  0  0  0  0  0  0  0  0999 V2000
   61.0370   27.4990   50.1330 C   0  0  0  0  0  0  0  0  0  0  0  0
   60.0610   28.6210   50.3750 C   0  0  0  0  0  0  0  0  0  0  0  0
   59.8490   29.0630   51.6940 C   0  0  0  0  0  0  0  0  0  0  0  0
   58.9840   30.1240   51.9590 C   0  0  0  0  0  0  0  0  0  0  0  0
   58.3250   30.7660   50.9120 C   0  0  0  0  0  0  0  0  0  0  0  0
   58.5140   30.3360   49.5980 C   0  0  0  0  0  0  0  0  0  0  0  0
   59.3530   29.2410   49.3110 C   0  0  0  0  0  0  0  0  0  0  0  0
   59.5210   28.7970   47.8680 C   0  0  0  0  0  0  0  0  0  0  0  0
   58.9490   29.7780   46.9250 N   0  0  0  0  0  0  0  0  0  0  0  0
   57.9010   29.4020   46.1280 C   0  0  0  0  0  0  0  0  0  0  0  0
   57.3170   30.2960   45.2150 C   0  0  0  0  0  0  0  0  0  0  0  0
   56.1810   29.8340   44.3730 C   0  0  0  0  0  0  0  0  0  0  0  0
   55.1500   29.3300   44.8930 O   0  0  0  0  0  0  0  0  0  0  0  0
   56.2380   29.9530   42.9890 O   0  0  0  0  0  0  0  0  0  0  0  0
   57.8360   31.6040   45.1260 C   0  0  0  0  0  0  0  0  0  0  0  0
   57.3380   32.4340   44.3160 O   0  0  0  0  0  0  0  0  0  0  0  0
   58.9130   31.9840   45.9440 C   0  0  0  0  0  0  0  0  0  0  0  0
   59.4710   33.2720   45.8830 C   0  0  0  0  0  0  0  0  0  0  0  0
   60.5520   33.6090   46.6980 C   0  0  0  0  0  0  0  0  0  0  0  0
   61.0760   32.6550   47.5810 C   0  0  0  0  0  0  0  0  0  0  0  0
   62.2040   32.9530   48.4240 N   0  0  0  0  0  0  0  0  0  0  0  0
   63.5430   32.3790   48.2680 C   0  0  0  0  0  0  0  0  0  0  0  0
   64.2940   32.9620   49.4050 C   0  0  0  0  0  0  0  0  0  0  0  0
   65.6300   32.7530   49.7490 C   0  0  0  0  0  0  0  0  0  0  0  0
   66.1410   33.4090   50.8810 C   0  0  0  0  0  0  0  0  0  0  0  0
   65.3150   34.2560   51.6440 C   0  0  0  0  0  0  0  0  0  0  0  0
   63.9730   34.4520   51.2790 C   0  0  0  0  0  0  0  0  0  0  0  0
   63.4870   33.7900   50.1510 C   0  0  0  0  0  0  0  0  0  0  0  0
   62.1190   33.8450   49.5820 C   0  0  0  0  0  0  0  0  0  0  0  0
   60.5130   31.4170   47.6320 N   0  0  0  0  0  0  0  0  0  0  0  0
   59.4600   31.0490   46.8480 C   0  0  0  0  0  0  0  0  0  0  0  0
   61.3838   27.1003   51.0977 H   0  0  0  0  0  0  0  0  0  0  0  0
   60.5422   26.6993   49.5623 H   0  0  0  0  0  0  0  0  0  0  0  0
   61.8975   27.8782   49.5623 H   0  0  0  0  0  0  0  0  0  0  0  0
   60.3713   28.5662   52.5249 H   0  0  0  0  0  0  0  0  0  0  0  0
   58.8215   30.4547   52.9955 H   0  0  0  0  0  0  0  0  0  0  0  0
   57.6550   31.6128   51.1218 H   0  0  0  0  0  0  0  0  0  0  0  0
   58.0018   30.8582   48.7764 H   0  0  0  0  0  0  0  0  0  0  0  0
   60.5935   28.6798   47.6536 H   0  0  0  0  0  0  0  0  0  0  0  0
   58.9867   27.8443   47.7379 H   0  0  0  0  0  0  0  0  0  0  0  0
   57.5077   28.3775   46.2042 H   0  0  0  0  0  0  0  0  0  0  0  0
   59.0540   34.0175   45.1900 H   0  0  0  0  0  0  0  0  0  0  0  0
   60.9901   34.6167   46.6479 H   0  0  0  0  0  0  0  0  0  0  0  0
   63.5125   31.2816   48.3363 H   0  0  0  0  0  0  0  0  0  0  0  0
   63.9971   32.6009   47.2910 H   0  0  0  0  0  0  0  0  0  0  0  0
   66.2686   32.0895   49.1473 H   0  0  0  0  0  0  0  0  0  0  0  0
   67.1912   33.2603   51.1726 H   0  0  0  0  0  0  0  0  0  0  0  0
   65.7222   34.7662   52.5294 H   0  0  0  0  0  0  0  0  0  0  0  0
   63.3201   35.1122   51.8688 H   0  0  0  0  0  0  0  0  0  0  0  0
   61.3753   33.4816   50.3064 H   0  0  0  0  0  0  0  0  0  0  0  0
   61.8010   34.8648   49.3194 H   0  0  0  0  0  0  0  0  0  0  0  0
  1  2  1  0
  2  3  2  0
  3  4  1  0
  4  5  2  0
  5  6  1  0
  6  7  2  0
  7  8  1  0
  8  9  1  0
  9 10  1  0
 10 11  2  0
 11 12  1  0
 12 13  2  0
 12 14  1  0
 11 15  1  0
 15 16  2  0
 15 17  1  0
 17 18  2  0
 18 19  1  0
 19 20  2  0
 20 21  1  0
 21 22  1  0
 22 23  1  0
 23 24  2  0
 24 25  1  0
 25 26  2  0
 26 27  1  0
 27 28  2  0
 28 29  1  0
 20 30  1  0
 30 31  2  0
  7  2  1  0
 31  9  1  0
 31 17  1  0
 29 21  1  0
 28 23  1  0
  1 32  1  0
  1 33  1  0
  1 34  1  0
  3 35  1  0
  4 36  1  0
  5 37  1  0
  6 38  1  0
  8 39  1  0
  8 40  1  0
 10 41  1  0
 18 42  1  0
 19 43  1  0
 22 44  1  0
 22 45  1  0
 24 46  1  0
 25 47  1  0
 26 48  1  0
 27 49  1  0
 29 50  1  0
 29 51  1  0
M  CHG  1  14  -1
M  END
>  <UniqueID>  (20) 
19

>  <SMILES>  (20) 
Cc1ccccc1Cn1cc(C(=O)[O-])c(=O)c2ccc(N3Cc4ccccc4C3)nc21

>  <Energy>  (20) 
76.56746571721519

>  <Genealogy>  (20) 
Cc1ccccc1Cn1cc(C(=O)[O-])c(=O)c2ccc(N3Cc4ccccc4C3)nc21 (protonated)
Cc1ccccc1Cn1cc(C(=O)[O-])c(=O)c2ccc(N3Cc4ccccc4C3)nc21 (3D coordinates assigned)
Cc1ccccc1Cn1cc(C(=O)[O-])c(=O)c2ccc(N3Cc4ccccc4C3)nc21 (nonaromatic ring conformer: 76.56746571721519 kcal/mol)

>  <smiles>  (20) 
Cc1ccccc1Cn1cc(C(=O)O)c(=O)c2ccc(N3Cc4ccccc4C3)nc21

>  <score_type>  (20) 
oracle

>  <origin>  (20) 
adg

>  <m_score__min__energy>  (20) 
-10.33

>  <m_primary>  (20) 
energy

$$$$
20:0
     RDKit          3D

 35 37  0  0  0  0  0  0  0  0999 V2000
   60.6288   26.3884   47.3430 H   0  0  0  0  0  0  0  0  0  0  0  0
   60.2120   27.4020   47.2490 C   0  0  0  0  0  0  0  0  0  0  0  0
   59.5800   28.0010   48.3410 C   0  0  0  0  0  0  0  0  0  0  0  0
   59.4973   27.4567   49.2933 H   0  0  0  0  0  0  0  0  0  0  0  0
   59.0520   29.2910   48.2270 C   0  0  0  0  0  0  0  0  0  0  0  0
   58.5485   29.7557   49.0876 H   0  0  0  0  0  0  0  0  0  0  0  0
   59.1630   29.9950   47.0160 C   0  0  0  0  0  0  0  0  0  0  0  0
   58.5700   31.3680   46.8780 C   0  0  0  0  0  0  0  0  0  0  0  0
   59.3045   32.0421   46.4131 H   0  0  0  0  0  0  0  0  0  0  0  0
   58.3001   31.7581   47.8705 H   0  0  0  0  0  0  0  0  0  0  0  0
   57.4080   31.2900   46.0590 O   0  0  0  0  0  0  0  0  0  0  0  0
   57.4040   31.4090   44.6600 C   0  0  0  0  0  0  0  0  0  0  0  0
   58.1830   32.3750   43.9930 C   0  0  0  0  0  0  0  0  0  0  0  0
   58.8151   33.0636   44.5729 H   0  0  0  0  0  0  0  0  0  0  0  0
   58.1570   32.4630   42.6000 C   0  0  0  0  0  0  0  0  0  0  0  0
   58.7684   33.2199   42.0868 H   0  0  0  0  0  0  0  0  0  0  0  0
   57.3580   31.5940   41.8570 C   0  0  0  0  0  0  0  0  0  0  0  0
   57.3404   31.6663   40.7595 H   0  0  0  0  0  0  0  0  0  0  0  0
   56.5810   30.6330   42.5050 C   0  0  0  0  0  0  0  0  0  0  0  0
   55.9494   29.9531   41.9144 H   0  0  0  0  0  0  0  0  0  0  0  0
   56.5990   30.5270   43.9060 C   0  0  0  0  0  0  0  0  0  0  0  0
   55.7510   29.4830   44.5930 C   0  0  0  0  0  0  0  0  0  0  0  0
   55.3067   28.8233   43.8331 H   0  0  0  0  0  0  0  0  0  0  0  0
   54.9640   29.9932   45.1677 H   0  0  0  0  0  0  0  0  0  0  0  0
   56.5540   28.6790   45.5140 N   0  0  0  0  0  0  0  0  0  0  0  0
   56.5200   27.3820   45.5950 C   0  0  0  0  0  0  0  0  0  0  0  0
   55.4320   26.6940   45.9900 N   0  0  0  0  0  0  0  0  0  0  0  0
   55.6750   25.3460   45.9830 C   0  0  0  0  0  0  0  0  0  0  0  0
   54.7840   24.5250   46.3210 O   0  0  0  0  0  0  0  0  0  0  0  0
   56.9120   24.9240   45.6000 N   0  0  0  0  0  0  0  0  0  0  0  0
   57.7500   26.3150   45.2480 S   0  0  0  0  0  0  0  0  0  0  0  0
   59.7900   29.3820   45.9160 C   0  0  0  0  0  0  0  0  0  0  0  0
   59.8870   30.0300   44.7270 F   0  0  0  0  0  0  0  0  0  0  0  0
   60.3150   28.0900   46.0370 C   0  0  0  0  0  0  0  0  0  0  0  0
   60.8095   27.6155   45.1766 H   0  0  0  0  0  0  0  0  0  0  0  0
  1  2  1  0
  2  3  2  0
  3  4  1  0
  3  5  1  0
  5  6  1  0
  5  7  2  0
  7  8  1  0
  8  9  1  0
  8 10  1  0
  8 11  1  0
 11 12  1  0
 12 13  2  0
 13 14  1  0
 13 15  1  0
 15 16  1  0
 15 17  2  0
 17 18  1  0
 17 19  1  0
 19 20  1  0
 19 21  2  0
 21 22  1  0
 22 23  1  0
 22 24  1  0
 22 25  1  0
 25 26  2  0
 26 27  1  0
 27 28  1  0
 28 29  2  0
 28 30  1  0
 30 31  1  0
  7 32  1  0
 32 33  1  0
 32 34  2  0
 34 35  1  0
 34  2  1  0
 21 12  1  0
 31 26  1  0
M  CHG  2  27  -1  30  -1
M  END
>  <UniqueID>  (21) 
20

>  <SMILES>  (21) 
O=c1[n-]s/c(=N\Cc2ccccc2OCc2ccccc2F)[n-]1

>  <Energy>  (21) 
74.42756954612616

>  <Genealogy>  (21) 
O=c1[n-]sc(=NCc2ccccc2OCc2ccccc2F)[n-]1 (protonated)
O=c1[n-]s/c(=N\Cc2ccccc2OCc2ccccc2F)[n-]1 (cis-trans isomerization)
O=c1[n-]s/c(=N\Cc2ccccc2OCc2ccccc2F)[n-]1 (3D coordinates assigned)
O=c1[n-]s/c(=N\Cc2ccccc2OCc2ccccc2F)[n-]1 (optimized conformer: 74.42756954612616 kcal/mol)

>  <smiles>  (21) 
O=c1[nH]sc(=NCc2ccccc2OCc2ccccc2F)[nH]1

>  <score_type>  (21) 
oracle

>  <origin>  (21) 
adg

>  <m_score__min__energy>  (21) 
-11.1

>  <m_primary>  (21) 
energy

$$$$
21:0
     RDKit          3D

 61 65  0  0  0  0  0  0  0  0999 V2000
   59.5570   34.5970   44.4620 O   0  0  0  0  0  0  0  0  0  0  0  0
   59.0350   33.5390   44.9050 C   0  0  0  0  0  0  0  0  0  0  0  0
   59.0200   33.2960   46.3860 C   0  0  0  0  0  0  0  0  0  0  0  0
   59.7070   34.7360   47.2760 S   0  0  0  0  0  0  0  0  0  0  0  0
   61.3000   33.9610   47.6080 C   0  0  0  0  0  0  0  0  0  0  0  0
   62.0880   33.5760   46.5140 C   0  0  0  0  0  0  0  0  0  0  0  0
   63.3250   32.9620   46.7120 C   0  0  0  0  0  0  0  0  0  0  0  0
   63.7950   32.7410   48.0060 C   0  0  0  0  0  0  0  0  0  0  0  0
   63.0300   33.1350   49.1050 C   0  0  0  0  0  0  0  0  0  0  0  0
   61.7790   33.7560   48.9240 C   0  0  0  0  0  0  0  0  0  0  0  0
   61.0070   34.2070   50.1450 C   0  0  0  0  0  0  0  0  0  0  0  0
   60.5470   33.0930   50.9740 N   0  0  0  0  0  0  0  0  0  0  0  0
   60.1870   31.8050   50.4520 C   0  0  0  0  0  0  0  0  0  0  0  0
   60.5050   31.3740   49.2580 O   0  0  0  0  0  0  0  0  0  0  0  0
   59.9750   30.1780   49.1300 C   0  0  0  0  0  0  0  0  0  0  0  0
   60.0870   29.3640   47.9040 C   0  0  0  0  0  0  0  0  0  0  0  0
   59.5800   28.0530   47.8790 C   0  0  0  0  0  0  0  0  0  0  0  0
   59.6890   27.2750   46.7220 C   0  0  0  0  0  0  0  0  0  0  0  0
   60.3060   27.7980   45.5830 C   0  0  0  0  0  0  0  0  0  0  0  0
   60.8130   29.1000   45.6000 C   0  0  0  0  0  0  0  0  0  0  0  0
   60.7070   29.8820   46.7550 C   0  0  0  0  0  0  0  0  0  0  0  0
   59.3010   29.7870   50.2350 N   0  0  0  0  0  0  0  0  0  0  0  0
   59.4390   30.8270   51.0800 C   0  0  0  0  0  0  0  0  0  0  0  0
   58.7960   30.8860   52.4110 C   0  0  0  0  0  0  0  0  0  0  0  0
   59.3430   31.7150   53.4080 C   0  0  0  0  0  0  0  0  0  0  0  0
   58.7130   31.8500   54.6470 C   0  0  0  0  0  0  0  0  0  0  0  0
   57.5220   31.1730   54.9010 C   0  0  0  0  0  0  0  0  0  0  0  0
   56.9650   30.3480   53.9240 C   0  0  0  0  0  0  0  0  0  0  0  0
   57.5960   30.1860   52.6840 C   0  0  0  0  0  0  0  0  0  0  0  0
   57.0190   29.3100   51.7630 O   0  0  0  0  0  0  0  0  0  0  0  0
   58.4610   32.6120   43.9740 N   0  0  0  0  0  0  0  0  0  0  0  0
   57.7040   31.4310   44.2750 C   0  0  0  0  0  0  0  0  0  0  0  0
   56.6390   31.0010   43.4630 C   0  0  0  0  0  0  0  0  0  0  0  0
   55.9170   29.8510   43.7970 C   0  0  0  0  0  0  0  0  0  0  0  0
   56.2360   29.1340   44.9530 C   0  0  0  0  0  0  0  0  0  0  0  0
   55.5250   27.9850   45.2780 O   0  0  0  0  0  0  0  0  0  0  0  0
   57.2650   29.5800   45.7870 C   0  0  0  0  0  0  0  0  0  0  0  0
   57.9870   30.7310   45.4540 C   0  0  0  0  0  0  0  0  0  0  0  0
   57.9840   33.1274   46.7149 H   0  0  0  0  0  0  0  0  0  0  0  0
   59.6363   32.4124   46.6084 H   0  0  0  0  0  0  0  0  0  0  0  0
   61.7278   33.7596   45.4910 H   0  0  0  0  0  0  0  0  0  0  0  0
   63.9297   32.6521   45.8470 H   0  0  0  0  0  0  0  0  0  0  0  0
   64.7699   32.2556   48.1609 H   0  0  0  0  0  0  0  0  0  0  0  0
   63.4081   32.9587   50.1228 H   0  0  0  0  0  0  0  0  0  0  0  0
   61.6587   34.8511   50.7536 H   0  0  0  0  0  0  0  0  0  0  0  0
   60.1147   34.7437   49.7904 H   0  0  0  0  0  0  0  0  0  0  0  0
   60.7160   33.1830   52.0000 H   0  0  0  0  0  0  0  0  0  0  0  0
   59.0950   27.6369   48.7743 H   0  0  0  0  0  0  0  0  0  0  0  0
   59.2886   26.2505   46.7088 H   0  0  0  0  0  0  0  0  0  0  0  0
   60.3926   27.1854   44.6735 H   0  0  0  0  0  0  0  0  0  0  0  0
   61.2971   29.5114   44.7020 H   0  0  0  0  0  0  0  0  0  0  0  0
   61.1103   30.9054   46.7634 H   0  0  0  0  0  0  0  0  0  0  0  0
   60.2763   32.2622   53.2093 H   0  0  0  0  0  0  0  0  0  0  0  0
   59.1572   32.4911   55.4227 H   0  0  0  0  0  0  0  0  0  0  0  0
   57.0205   31.2893   55.8731 H   0  0  0  0  0  0  0  0  0  0  0  0
   56.0220   29.8200   54.1290 H   0  0  0  0  0  0  0  0  0  0  0  0
   57.3800   29.1720   50.8280 H   0  0  0  0  0  0  0  0  0  0  0  0
   56.3729   31.5719   42.5612 H   0  0  0  0  0  0  0  0  0  0  0  0
   55.0964   29.5102   43.1485 H   0  0  0  0  0  0  0  0  0  0  0  0
   57.5073   29.0257   46.7057 H   0  0  0  0  0  0  0  0  0  0  0  0
   58.7831   31.0888   46.1235 H   0  0  0  0  0  0  0  0  0  0  0  0
  1  2  2  0
  2  3  1  0
  3  4  1  0
  4  5  1  0
  5  6  2  0
  6  7  1  0
  7  8  2  0
  8  9  1  0
  9 10  2  0
 10 11  1  0
 11 12  1  0
 12 13  1  0
 13 14  1  0
 14 15  1  0
 15 16  1  0
 16 17  2  0
 17 18  1  0
 18 19  2  0
 19 20  1  0
 20 21  2  0
 15 22  2  0
 22 23  1  0
 23 24  1  0
 24 25  2  0
 25 26  1  0
 26 27  2  0
 27 28  1  0
 28 29  2  0
 29 30  1  0
  2 31  1  0
 31 32  1  0
 32 33  2  0
 33 34  1  0
 34 35  2  0
 35 36  1  0
 35 37  1  0
 37 38  2  0
 10  5  1  0
 23 13  2  0
 29 24  1  0
 38 32  1  0
 21 16  1  0
  3 39  1  0
  3 40  1  0
  6 41  1  0
  7 42  1  0
  8 43  1  0
  9 44  1  0
 11 45  1  0
 11 46  1  0
 12 47  1  0
 17 48  1  0
 18 49  1  0
 19 50  1  0
 20 51  1  0
 21 52  1  0
 25 53  1  0
 26 54  1  0
 27 55  1  0
 28 56  1  0
 30 57  1  0
 33 58  1  0
 34 59  1  0
 37 60  1  0
 38 61  1  0
M  CHG  2  31  -1  36  -1
M  END
>  <UniqueID>  (22) 
21

>  <SMILES>  (22) 
O=C(CSc1ccccc1CNc1oc(-c2ccccc2)nc1-c1ccccc1O)[N-]c1ccc([O-])cc1

>  <Energy>  (22) 
97.36846432760942

>  <Genealogy>  (22) 
O=C(CSc1ccccc1CNc1oc(-c2ccccc2)nc1-c1ccccc1O)[N-]c1ccc([O-])cc1 (protonated)
O=C(CSc1ccccc1CNc1oc(-c2ccccc2)nc1-c1ccccc1O)[N-]c1ccc([O-])cc1 (3D coordinates assigned)
O=C(CSc1ccccc1CNc1oc(-c2ccccc2)nc1-c1ccccc1O)[N-]c1ccc([O-])cc1 (optimized conformer: 97.36846432760942 kcal/mol)

>  <smiles>  (22) 
O=C(CSc1ccccc1CNc1oc(-c2ccccc2)nc1-c1ccccc1O)Nc1ccc(O)cc1

>  <score_type>  (22) 
oracle

>  <origin>  (22) 
adg

>  <m_score__min__energy>  (22) 
-15.779999999999999

>  <m_primary>  (22) 
energy

$$$$
22:0
     RDKit          3D

 59 62  0  0  0  0  0  0  0  0999 V2000
   63.3930   33.9680   46.0420 C   0  0  0  0  0  0  0  0  0  0  0  0
   63.7790   34.4030   47.3420 O   0  0  0  0  0  0  0  0  0  0  0  0
   63.5630   33.6690   48.5170 C   0  0  0  0  0  0  0  0  0  0  0  0
   64.5010   32.7440   49.0120 C   0  0  0  0  0  0  0  0  0  0  0  0
   64.2400   32.0330   50.1860 C   0  0  0  0  0  0  0  0  0  0  0  0
   63.0460   32.2450   50.8960 C   0  0  0  0  0  0  0  0  0  0  0  0
   62.7720   31.5470   52.1210 N   0  0  0  0  0  0  0  0  0  0  0  0
   61.4250   30.4680   52.2940 S   0  0  0  0  0  0  0  0  0  0  0  0
   61.9090   29.1300   52.7770 O   0  0  0  0  0  0  0  0  0  0  0  0
   60.4580   31.0300   53.2990 O   0  0  0  0  0  0  0  0  0  0  0  0
   60.6540   30.2610   50.7230 C   0  0  0  0  0  0  0  0  0  0  0  0
   59.2670   30.4250   50.6130 C   0  0  0  0  0  0  0  0  0  0  0  0
   58.6220   30.1500   49.4040 C   0  0  0  0  0  0  0  0  0  0  0  0
   59.3600   29.7000   48.3000 C   0  0  0  0  0  0  0  0  0  0  0  0
   58.6670   29.3250   47.0460 C   0  0  0  0  0  0  0  0  0  0  0  0
   58.3130   27.9690   46.7980 C   0  0  0  0  0  0  0  0  0  0  0  0
   58.6810   26.8720   47.7800 C   0  0  0  0  0  0  0  0  0  0  0  0
   57.6470   27.6330   45.5900 C   0  0  0  0  0  0  0  0  0  0  0  0
   57.2060   26.2210   45.2680 C   0  0  0  0  0  0  0  0  0  0  0  0
   55.9510   25.8810   46.0100 C   0  0  0  0  0  0  0  0  0  0  0  0
   54.9770   26.6770   46.0020 O   0  0  0  0  0  0  0  0  0  0  0  0
   55.8650   24.6990   46.7340 O   0  0  0  0  0  0  0  0  0  0  0  0
   57.3310   28.6390   44.6680 C   0  0  0  0  0  0  0  0  0  0  0  0
   57.6810   29.9710   44.9010 C   0  0  0  0  0  0  0  0  0  0  0  0
   57.3640   30.9520   43.9490 C   0  0  0  0  0  0  0  0  0  0  0  0
   57.7130   32.2860   44.1630 C   0  0  0  0  0  0  0  0  0  0  0  0
   58.3780   32.6620   45.3420 C   0  0  0  0  0  0  0  0  0  0  0  0
   58.7590   33.9870   45.5970 O   0  0  0  0  0  0  0  0  0  0  0  0
   59.4360   34.4170   46.7740 C   0  0  0  0  0  0  0  0  0  0  0  0
   58.6810   31.6890   46.3000 C   0  0  0  0  0  0  0  0  0  0  0  0
   58.3500   30.3290   46.0930 C   0  0  0  0  0  0  0  0  0  0  0  0
   60.7510   29.5550   48.4050 C   0  0  0  0  0  0  0  0  0  0  0  0
   61.3960   29.8400   49.6110 C   0  0  0  0  0  0  0  0  0  0  0  0
   62.1060   33.1550   50.3930 C   0  0  0  0  0  0  0  0  0  0  0  0
   62.3670   33.8640   49.2160 C   0  0  0  0  0  0  0  0  0  0  0  0
   62.6653   33.1479   46.1308 H   0  0  0  0  0  0  0  0  0  0  0  0
   62.9360   34.8062   45.4955 H   0  0  0  0  0  0  0  0  0  0  0  0
   64.2796   33.6139   45.4955 H   0  0  0  0  0  0  0  0  0  0  0  0
   65.4449   32.5799   48.4716 H   0  0  0  0  0  0  0  0  0  0  0  0
   64.9740   31.3025   50.5570 H   0  0  0  0  0  0  0  0  0  0  0  0
   63.5010   31.5250   52.8680 H   0  0  0  0  0  0  0  0  0  0  0  0
   58.6846   30.7708   51.4797 H   0  0  0  0  0  0  0  0  0  0  0  0
   57.5339   30.2868   49.3184 H   0  0  0  0  0  0  0  0  0  0  0  0
   58.5565   27.2432   48.8080 H   0  0  0  0  0  0  0  0  0  0  0  0
   58.0251   26.0032   47.6219 H   0  0  0  0  0  0  0  0  0  0  0  0
   59.7281   26.5745   47.6219 H   0  0  0  0  0  0  0  0  0  0  0  0
   57.0212   26.1373   44.1869 H   0  0  0  0  0  0  0  0  0  0  0  0
   57.9994   25.5226   45.5726 H   0  0  0  0  0  0  0  0  0  0  0  0
   56.7972   28.3751   43.7431 H   0  0  0  0  0  0  0  0  0  0  0  0
   56.8363   30.6672   43.0268 H   0  0  0  0  0  0  0  0  0  0  0  0
   57.4667   33.0454   43.4063 H   0  0  0  0  0  0  0  0  0  0  0  0
   58.8868   34.0682   47.6610 H   0  0  0  0  0  0  0  0  0  0  0  0
   60.4536   33.9993   46.7850 H   0  0  0  0  0  0  0  0  0  0  0  0
   59.4905   35.5156   46.7850 H   0  0  0  0  0  0  0  0  0  0  0  0
   59.1857   31.9864   47.2310 H   0  0  0  0  0  0  0  0  0  0  0  0
   61.3350   29.2164   47.5365 H   0  0  0  0  0  0  0  0  0  0  0  0
   62.4882   29.7338   49.6880 H   0  0  0  0  0  0  0  0  0  0  0  0
   61.1574   33.3125   50.9272 H   0  0  0  0  0  0  0  0  0  0  0  0
   61.6249   34.5817   48.8364 H   0  0  0  0  0  0  0  0  0  0  0  0
  1  2  1  0
  2  3  1  0
  3  4  2  0
  4  5  1  0
  5  6  2  0
  6  7  1  0
  7  8  1  0
  8  9  2  0
  8 10  2  0
  8 11  1  0
 11 12  2  0
 12 13  1  0
 13 14  2  0
 14 15  1  0
 15 16  2  0
 16 17  1  0
 16 18  1  0
 18 19  1  0
 19 20  1  0
 20 21  2  0
 20 22  1  0
 18 23  2  0
 23 24  1  0
 24 25  2  0
 25 26  1  0
 26 27  2  0
 27 28  1  0
 28 29  1  0
 27 30  1  0
 30 31  2  0
 14 32  1  0
 32 33  2  0
  6 34  1  0
 34 35  2  0
 35  3  1  0
 33 11  1  0
 31 15  1  0
 31 24  1  0
  1 36  1  0
  1 37  1  0
  1 38  1  0
  4 39  1  0
  5 40  1  0
  7 41  1  0
 12 42  1  0
 13 43  1  0
 17 44  1  0
 17 45  1  0
 17 46  1  0
 19 47  1  0
 19 48  1  0
 23 49  1  0
 25 50  1  0
 26 51  1  0
 29 52  1  0
 29 53  1  0
 29 54  1  0
 30 55  1  0
 32 56  1  0
 33 57  1  0
 34 58  1  0
 35 59  1  0
M  CHG  1  22  -1
M  END
>  <UniqueID>  (23) 
22

>  <SMILES>  (23) 
COc1ccc(NS(=O)(=O)c2ccc(-c3c(C)c(CC(=O)[O-])cc4ccc(OC)cc34)cc2)cc1

>  <Energy>  (23) 
78.02897850431367

>  <Genealogy>  (23) 
COc1ccc(NS(=O)(=O)c2ccc(-c3c(C)c(CC(=O)[O-])cc4ccc(OC)cc34)cc2)cc1 (protonated)
COc1ccc(NS(=O)(=O)c2ccc(-c3c(C)c(CC(=O)[O-])cc4ccc(OC)cc34)cc2)cc1 (3D coordinates assigned)
COc1ccc(NS(=O)(=O)c2ccc(-c3c(C)c(CC(=O)[O-])cc4ccc(OC)cc34)cc2)cc1 (optimized conformer: 78.02897850431367 kcal/mol)

>  <smiles>  (23) 
COc1ccc(NS(=O)(=O)c2ccc(-c3c(C)c(CC(=O)O)cc4ccc(OC)cc34)cc2)cc1

>  <score_type>  (23) 
oracle

>  <origin>  (23) 
adg

>  <m_score__min__energy>  (23) 
-11.949999999999999

>  <m_primary>  (23) 
energy

$$$$
23:0
     RDKit          3D

 72 76  0  0  0  0  0  0  0  0999 V2000
   62.9620   33.9050   48.8380 C   0  0  0  0  0  0  0  0  0  0  0  0
   61.5710   33.5710   49.3100 C   0  0  0  0  0  0  0  0  0  0  0  0
   61.2890   33.6270   50.6870 C   0  0  0  0  0  0  0  0  0  0  0  0
   60.0090   33.3450   51.1640 C   0  0  0  0  0  0  0  0  0  0  0  0
   58.9900   33.0080   50.2730 C   0  0  0  0  0  0  0  0  0  0  0  0
   59.2460   32.9560   48.9020 C   0  0  0  0  0  0  0  0  0  0  0  0
   60.5320   33.2360   48.4010 C   0  0  0  0  0  0  0  0  0  0  0  0
   60.7570   33.1670   46.9030 C   0  0  0  0  0  0  0  0  0  0  0  0
   59.4850   33.2360   46.1580 N   0  0  0  0  0  0  0  0  0  0  0  0
   58.7930   34.4190   46.1520 C   0  0  0  0  0  0  0  0  0  0  0  0
   57.5650   34.5270   45.5020 C   0  0  0  0  0  0  0  0  0  0  0  0
   57.0300   33.4180   44.8590 C   0  0  0  0  0  0  0  0  0  0  0  0
   57.7270   32.2060   44.8550 C   0  0  0  0  0  0  0  0  0  0  0  0
   57.1480   31.0140   44.1970 C   0  0  0  0  0  0  0  0  0  0  0  0
   57.2420   30.9030   42.9460 O   0  0  0  0  0  0  0  0  0  0  0  0
   56.4280   30.0100   44.9260 N   0  0  0  0  0  0  0  0  0  0  0  0
   56.9710   28.7460   45.4110 C   0  0  0  0  0  0  0  0  0  0  0  0
   57.8730   28.9940   46.5370 C   0  0  0  0  0  0  0  0  0  0  0  0
   58.6040   29.2120   47.4710 C   0  0  0  0  0  0  0  0  0  0  0  0
   59.4670   29.4910   48.5890 C   0  0  0  0  0  0  0  0  0  0  0  0
   60.7810   29.9160   48.3640 C   0  0  0  0  0  0  0  0  0  0  0  0
   61.6310   30.1710   49.4410 C   0  0  0  0  0  0  0  0  0  0  0  0
   61.1760   30.0000   50.7580 C   0  0  0  0  0  0  0  0  0  0  0  0
   62.0310   30.2530   51.8390 C   0  0  0  0  0  0  0  0  0  0  0  0
   61.5750   30.0820   53.1470 C   0  0  0  0  0  0  0  0  0  0  0  0
   60.2690   29.6550   53.3900 C   0  0  0  0  0  0  0  0  0  0  0  0
   59.3880   29.3990   52.3200 C   0  0  0  0  0  0  0  0  0  0  0  0
   58.0640   28.9800   52.5410 O   0  0  0  0  0  0  0  0  0  0  0  0
   57.0680   29.7480   53.2140 C   0  0  0  0  0  0  0  0  0  0  0  0
   56.1230   30.3620   52.2210 C   0  0  0  0  0  0  0  0  0  0  0  0
   56.6040   30.9620   51.2180 O   0  0  0  0  0  0  0  0  0  0  0  0
   54.6890   30.3170   52.4040 N   0  0  0  0  0  0  0  0  0  0  0  0
   53.8230   30.7970   51.3170 C   0  0  0  0  0  0  0  0  0  0  0  0
   52.3450   30.5230   51.6290 C   0  0  0  0  0  0  0  0  0  0  0  0
   52.1890   29.1900   52.2220 N   0  0  0  0  0  0  0  0  0  0  0  0
   52.8620   29.0730   53.5310 C   0  0  0  0  0  0  0  0  0  0  0  0
   54.0730   30.0160   53.7030 C   0  0  0  0  0  0  0  0  0  0  0  0
   59.8440   29.5700   50.9950 C   0  0  0  0  0  0  0  0  0  0  0  0
   58.9980   29.3180   49.8970 C   0  0  0  0  0  0  0  0  0  0  0  0
   58.9580   32.1260   45.5370 C   0  0  0  0  0  0  0  0  0  0  0  0
   59.5780   31.0260   45.5640 O   0  0  0  0  0  0  0  0  0  0  0  0
   63.6165   34.0622   49.7080 H   0  0  0  0  0  0  0  0  0  0  0  0
   63.3523   33.0750   48.2307 H   0  0  0  0  0  0  0  0  0  0  0  0
   62.9329   34.8217   48.2307 H   0  0  0  0  0  0  0  0  0  0  0  0
   62.0865   33.8961   51.3952 H   0  0  0  0  0  0  0  0  0  0  0  0
   59.8029   33.3884   52.2437 H   0  0  0  0  0  0  0  0  0  0  0  0
   57.9822   32.7827   50.6519 H   0  0  0  0  0  0  0  0  0  0  0  0
   58.4355   32.6938   48.2061 H   0  0  0  0  0  0  0  0  0  0  0  0
   61.3949   34.0100   46.5988 H   0  0  0  0  0  0  0  0  0  0  0  0
   61.2390   32.2056   46.6718 H   0  0  0  0  0  0  0  0  0  0  0  0
   59.2127   35.2954   46.6674 H   0  0  0  0  0  0  0  0  0  0  0  0
   57.0229   35.4842   45.4982 H   0  0  0  0  0  0  0  0  0  0  0  0
   56.0566   33.4935   44.3523 H   0  0  0  0  0  0  0  0  0  0  0  0
   56.1464   28.0963   45.7397 H   0  0  0  0  0  0  0  0  0  0  0  0
   57.5286   28.2549   44.5999 H   0  0  0  0  0  0  0  0  0  0  0  0
   61.1452   30.0496   47.3347 H   0  0  0  0  0  0  0  0  0  0  0  0
   62.6620   30.5075   49.2572 H   0  0  0  0  0  0  0  0  0  0  0  0
   63.0631   30.5869   51.6564 H   0  0  0  0  0  0  0  0  0  0  0  0
   62.2496   30.2852   53.9918 H   0  0  0  0  0  0  0  0  0  0  0  0
   59.9241   29.5170   54.4254 H   0  0  0  0  0  0  0  0  0  0  0  0
   56.5039   29.0936   53.8949 H   0  0  0  0  0  0  0  0  0  0  0  0
   57.5595   30.5506   53.7833 H   0  0  0  0  0  0  0  0  0  0  0  0
   53.9694   31.8800   51.1921 H   0  0  0  0  0  0  0  0  0  0  0  0
   54.0910   30.2627   50.3936 H   0  0  0  0  0  0  0  0  0  0  0  0
   51.9769   31.2804   52.3367 H   0  0  0  0  0  0  0  0  0  0  0  0
   51.7672   30.5689   50.6941 H   0  0  0  0  0  0  0  0  0  0  0  0
   52.6070   28.4890   51.5640 H   0  0  0  0  0  0  0  0  0  0  0  0
   52.1293   29.3043   54.3182 H   0  0  0  0  0  0  0  0  0  0  0  0
   53.2478   28.0451   53.5990 H   0  0  0  0  0  0  0  0  0  0  0  0
   53.7362   30.9541   54.1683 H   0  0  0  0  0  0  0  0  0  0  0  0
   54.8192   29.5186   54.3400 H   0  0  0  0  0  0  0  0  0  0  0  0
   57.9641   28.9837   50.0680 H   0  0  0  0  0  0  0  0  0  0  0  0
  1  2  1  0
  2  3  2  0
  3  4  1  0
  4  5  2  0
  5  6  1  0
  6  7  2  0
  7  8  1  0
  8  9  1  0
  9 10  1  0
 10 11  2  0
 11 12  1  0
 12 13  2  0
 13 14  1  0
 14 15  2  0
 14 16  1  0
 16 17  1  0
 17 18  1  0
 18 19  3  0
 19 20  1  0
 20 21  2  0
 21 22  1  0
 22 23  2  0
 23 24  1  0
 24 25  2  0
 25 26  1  0
 26 27  2  0
 27 28  1  0
 28 29  1  0
 29 30  1  0
 30 31  2  0
 30 32  1  0
 32 33  1  0
 33 34  1  0
 34 35  1  0
 35 36  1  0
 36 37  1  0
 27 38  1  0
 38 39  2  0
 13 40  1  0
 40 41  2  0
  7  2  1  0
 40  9  1  0
 39 20  1  0
 38 23  1  0
 37 32  1  0
  1 42  1  0
  1 43  1  0
  1 44  1  0
  3 45  1  0
  4 46  1  0
  5 47  1  0
  6 48  1  0
  8 49  1  0
  8 50  1  0
 10 51  1  0
 11 52  1  0
 12 53  1  0
 17 54  1  0
 17 55  1  0
 21 56  1  0
 22 57  1  0
 24 58  1  0
 25 59  1  0
 26 60  1  0
 29 61  1  0
 29 62  1  0
 33 63  1  0
 33 64  1  0
 34 65  1  0
 34 66  1  0
 35 67  1  0
 36 68  1  0
 36 69  1  0
 37 70  1  0
 37 71  1  0
 39 72  1  0
M  CHG  1  16  -1
M  END
>  <UniqueID>  (24) 
23

>  <SMILES>  (24) 
Cc1ccccc1Cn1cccc(C(=O)[N-]CC#Cc2ccc3cccc(OCC(=O)N4CCNCC4)c3c2)c1=O

>  <Energy>  (24) 
90.72920963630139

>  <Genealogy>  (24) 
Cc1ccccc1Cn1cccc(C(=O)[N-]CC#Cc2ccc3cccc(OCC(=O)N4CCNCC4)c3c2)c1=O (protonated)
Cc1ccccc1Cn1cccc(C(=O)[N-]CC#Cc2ccc3cccc(OCC(=O)N4CCNCC4)c3c2)c1=O (3D coordinates assigned)
Cc1ccccc1Cn1cccc(C(=O)[N-]CC#Cc2ccc3cccc(OCC(=O)N4CCNCC4)c3c2)c1=O (nonaromatic ring conformer: 90.72920963630139 kcal/mol)

>  <smiles>  (24) 
Cc1ccccc1Cn1cccc(C(=O)NCC#Cc2ccc3cccc(OCC(=O)N4CCNCC4)c3c2)c1=O

>  <score_type>  (24) 
oracle

>  <origin>  (24) 
adg

>  <m_score__min__energy>  (24) 
-11.369999999999999

>  <m_primary>  (24) 
energy

$$$$
24:0
     RDKit          3D

 34 35  0  0  0  0  0  0  0  0999 V2000
   57.3630   34.1850   45.1900 C   0  0  0  0  0  0  0  0  0  0  0  0
   57.1370   33.4620   46.3790 O   0  0  0  0  0  0  0  0  0  0  0  0
   58.2870   32.7150   46.7360 C   0  0  0  0  0  0  0  0  0  0  0  0
   58.7230   31.8410   45.5610 C   0  0  0  0  0  0  0  0  0  0  0  0
   57.7010   30.8430   45.2600 N   0  0  0  0  0  0  0  0  0  0  0  0
   57.6500   29.5930   45.7590 C   0  0  0  0  0  0  0  0  0  0  0  0
   56.4990   29.0030   45.2750 C   0  0  0  0  0  0  0  0  0  0  0  0
   56.0220   27.6660   45.4880 N   0  0  0  0  0  0  0  0  0  0  0  0
   56.6330   26.7110   46.3650 C   0  0  0  0  0  0  0  0  0  0  0  0
   57.5280   27.0680   47.1790 O   0  0  0  0  0  0  0  0  0  0  0  0
   56.1520   25.3610   46.3670 N   0  0  0  0  0  0  0  0  0  0  0  0
   56.4040   24.3630   45.3670 C   0  0  0  0  0  0  0  0  0  0  0  0
   55.4660   24.0640   44.3600 C   0  0  0  0  0  0  0  0  0  0  0  0
   55.7390   23.0670   43.4170 C   0  0  0  0  0  0  0  0  0  0  0  0
   56.9390   22.3560   43.4760 C   0  0  0  0  0  0  0  0  0  0  0  0
   57.8640   22.6310   44.4860 C   0  0  0  0  0  0  0  0  0  0  0  0
   57.5950   23.6250   45.4330 C   0  0  0  0  0  0  0  0  0  0  0  0
   58.5010   23.8790   46.4110 F   0  0  0  0  0  0  0  0  0  0  0  0
   55.8970   29.9540   44.4760 C   0  0  0  0  0  0  0  0  0  0  0  0
   56.6460   31.0740   44.4930 N   0  0  0  0  0  0  0  0  0  0  0  0
   57.6827   35.2079   45.4380 H   0  0  0  0  0  0  0  0  0  0  0  0
   58.1485   33.6877   44.6021 H   0  0  0  0  0  0  0  0  0  0  0  0
   56.4341   34.2236   44.6021 H   0  0  0  0  0  0  0  0  0  0  0  0
   59.1024   33.4043   47.0005 H   0  0  0  0  0  0  0  0  0  0  0  0
   58.0497   32.0731   47.5972 H   0  0  0  0  0  0  0  0  0  0  0  0
   58.8809   32.4757   44.6766 H   0  0  0  0  0  0  0  0  0  0  0  0
   59.6568   31.3248   45.8285 H   0  0  0  0  0  0  0  0  0  0  0  0
   58.3887   29.1280   46.4284 H   0  0  0  0  0  0  0  0  0  0  0  0
   55.1570   27.3730   44.9800 H   0  0  0  0  0  0  0  0  0  0  0  0
   54.5156   24.6160   44.3146 H   0  0  0  0  0  0  0  0  0  0  0  0
   55.0066   22.8429   42.6275 H   0  0  0  0  0  0  0  0  0  0  0  0
   57.1560   21.5796   42.7276 H   0  0  0  0  0  0  0  0  0  0  0  0
   58.8058   22.0649   44.5368 H   0  0  0  0  0  0  0  0  0  0  0  0
   54.9593   29.8196   43.9169 H   0  0  0  0  0  0  0  0  0  0  0  0
  1  2  1  0
  2  3  1  0
  3  4  1  0
  4  5  1  0
  5  6  1  0
  6  7  2  0
  7  8  1  0
  8  9  1  0
  9 10  2  0
  9 11  1  0
 11 12  1  0
 12 13  2  0
 13 14  1  0
 14 15  2  0
 15 16  1  0
 16 17  2  0
 17 18  1  0
  7 19  1  0
 19 20  2  0
 20  5  1  0
 17 12  1  0
  1 21  1  0
  1 22  1  0
  1 23  1  0
  3 24  1  0
  3 25  1  0
  4 26  1  0
  4 27  1  0
  6 28  1  0
  8 29  1  0
 13 30  1  0
 14 31  1  0
 15 32  1  0
 16 33  1  0
 19 34  1  0
M  CHG  1  11  -1
M  END
>  <UniqueID>  (25) 
24

>  <SMILES>  (25) 
COCCn1cc(NC(=O)[N-]c2ccccc2F)cn1

>  <Energy>  (25) 
68.53784969839991

>  <Genealogy>  (25) 
COCCn1cc(NC(=O)[N-]c2ccccc2F)cn1 (protonated)
COCCn1cc(NC(=O)[N-]c2ccccc2F)cn1 (3D coordinates assigned)
COCCn1cc(NC(=O)[N-]c2ccccc2F)cn1 (optimized conformer: 68.53784969839991 kcal/mol)

>  <smiles>  (25) 
COCCn1cc(NC(=O)Nc2ccccc2F)cn1

>  <score_type>  (25) 
oracle

>  <origin>  (25) 
adg

>  <m_score__min__energy>  (25) 
-8.0600000000000005

>  <m_primary>  (25) 
energy

$$$$
25:0
     RDKit          3D

 30 32  0  0  0  0  0  0  0  0999 V2000
   55.4490   28.9740   44.8670 N   0  0  0  0  0  0  0  0  0  0  0  0
   56.8280   28.9640   44.5050 C   0  0  0  0  0  0  0  0  0  0  0  0
   57.1570   28.6750   43.3240 O   0  0  0  0  0  0  0  0  0  0  0  0
   57.8470   29.3190   45.5070 C   0  0  0  0  0  0  0  0  0  0  0  0
   58.6400   30.4120   45.3760 N   0  0  0  0  0  0  0  0  0  0  0  0
   59.4860   30.3560   46.4220 C   0  0  0  0  0  0  0  0  0  0  0  0
   60.4960   31.2640   46.7260 C   0  0  0  0  0  0  0  0  0  0  0  0
   61.2670   31.0140   47.8750 C   0  0  0  0  0  0  0  0  0  0  0  0
   61.0170   29.9150   48.6550 N   0  0  0  0  0  0  0  0  0  0  0  0
   60.0250   29.0270   48.3510 C   0  0  0  0  0  0  0  0  0  0  0  0
   59.8150   28.0300   49.0920 O   0  0  0  0  0  0  0  0  0  0  0  0
   59.2580   29.2600   47.2100 C   0  0  0  0  0  0  0  0  0  0  0  0
   58.1980   28.5900   46.6450 C   0  0  0  0  0  0  0  0  0  0  0  0
   57.6060   27.3800   47.1360 N   0  0  0  0  0  0  0  0  0  0  0  0
   57.5270   26.1630   46.3710 C   0  0  0  0  0  0  0  0  0  0  0  0
   58.6640   25.3520   46.1770 C   0  0  0  0  0  0  0  0  0  0  0  0
   58.5760   24.1800   45.4220 C   0  0  0  0  0  0  0  0  0  0  0  0
   57.3600   23.8060   44.8480 C   0  0  0  0  0  0  0  0  0  0  0  0
   56.2290   24.6060   45.0220 C   0  0  0  0  0  0  0  0  0  0  0  0
   56.3070   25.7850   45.7790 C   0  0  0  0  0  0  0  0  0  0  0  0
   55.1720   26.5760   45.9530 O   0  0  0  0  0  0  0  0  0  0  0  0
   55.1450   28.7140   45.8310 H   0  0  0  0  0  0  0  0  0  0  0  0
   60.6838   32.1431   46.0920 H   0  0  0  0  0  0  0  0  0  0  0  0
   62.0769   31.7057   48.1500 H   0  0  0  0  0  0  0  0  0  0  0  0
   57.1070   27.4290   48.0530 H   0  0  0  0  0  0  0  0  0  0  0  0
   59.6262   25.6440   46.6229 H   0  0  0  0  0  0  0  0  0  0  0  0
   59.4668   23.5506   45.2796 H   0  0  0  0  0  0  0  0  0  0  0  0
   57.2926   22.8801   44.2580 H   0  0  0  0  0  0  0  0  0  0  0  0
   55.2734   24.3110   44.5640 H   0  0  0  0  0  0  0  0  0  0  0  0
   55.1010   27.5010   45.5450 H   0  0  0  0  0  0  0  0  0  0  0  0
  1  2  1  0
  2  3  2  0
  2  4  1  0
  4  5  1  0
  5  6  1  0
  6  7  1  0
  7  8  2  0
  8  9  1  0
  9 10  1  0
 10 11  2  0
 10 12  1  0
 12 13  1  0
 13 14  1  0
 14 15  1  0
 15 16  2  0
 16 17  1  0
 17 18  2  0
 18 19  1  0
 19 20  2  0
 20 21  1  0
 13  4  2  0
 20 15  1  0
 12  6  2  0
  1 22  1  0
  7 23  1  0
  8 24  1  0
 14 25  1  0
 16 26  1  0
 17 27  1  0
 18 28  1  0
 19 29  1  0
 21 30  1  0
M  CHG  3   1  -1   5  -1   9  -1
M  END
>  <UniqueID>  (26) 
25

>  <SMILES>  (26) 
[NH-]C(=O)c1[n-]c2cc[n-]c(=O)c2c1Nc1ccccc1O

>  <Energy>  (26) 
74.14034885686242

>  <Genealogy>  (26) 
[NH-]C(=O)c1[n-]c2cc[n-]c(=O)c2c1Nc1ccccc1O (protonated)
[NH-]C(=O)c1[n-]c2cc[n-]c(=O)c2c1Nc1ccccc1O (3D coordinates assigned)
[NH-]C(=O)c1[n-]c2cc[n-]c(=O)c2c1Nc1ccccc1O (optimized conformer: 74.14034885686242 kcal/mol)

>  <smiles>  (26) 
NC(=O)c1[nH]c2cc[nH]c(=O)c2c1Nc1ccccc1O

>  <score_type>  (26) 
oracle

>  <origin>  (26) 
adg

>  <m_score__min__energy>  (26) 
-12.9

>  <m_primary>  (26) 
energy

$$$$
26:0
     RDKit          3D

 63 66  0  0  0  0  0  0  0  0999 V2000
   63.3980   32.8870   47.8200 C   0  0  0  0  0  0  0  0  0  0  0  0
   62.2110   33.5520   48.3740 N   0  0  0  0  0  0  0  0  0  0  0  0
   62.3290   34.2560   49.6570 C   0  0  0  0  0  0  0  0  0  0  0  0
   60.9500   33.5260   47.6560 C   0  0  0  0  0  0  0  0  0  0  0  0
   60.8840   33.8950   46.2960 C   0  0  0  0  0  0  0  0  0  0  0  0
   59.6720   33.8520   45.6020 C   0  0  0  0  0  0  0  0  0  0  0  0
   58.4980   33.4240   46.2400 C   0  0  0  0  0  0  0  0  0  0  0  0
   57.2350   33.3200   45.4790 C   0  0  0  0  0  0  0  0  0  0  0  0
   56.6780   34.3600   45.0330 O   0  0  0  0  0  0  0  0  0  0  0  0
   56.6420   32.0380   45.2480 N   0  0  0  0  0  0  0  0  0  0  0  0
   56.8830   31.2550   44.0400 C   0  0  0  0  0  0  0  0  0  0  0  0
   58.3550   30.8390   43.9530 C   0  0  0  0  0  0  0  0  0  0  0  0
   58.8370   30.0510   45.1440 C   0  0  0  0  0  0  0  0  0  0  0  0
   59.8010   30.4250   46.0810 C   0  0  0  0  0  0  0  0  0  0  0  0
   59.9130   29.4760   47.0440 N   0  0  0  0  0  0  0  0  0  0  0  0
   60.8590   29.4970   48.1620 C   0  0  0  0  0  0  0  0  0  0  0  0
   60.1410   29.3790   49.4760 C   0  0  0  0  0  0  0  0  0  0  0  0
   60.6980   28.7730   50.4330 O   0  0  0  0  0  0  0  0  0  0  0  0
   58.8190   29.9190   49.6370 N   0  0  0  0  0  0  0  0  0  0  0  0
   58.2260   30.1360   50.9520 C   0  0  0  0  0  0  0  0  0  0  0  0
   58.4930   31.5450   51.4090 C   0  0  0  0  0  0  0  0  0  0  0  0
   57.4550   32.3360   51.9260 C   0  0  0  0  0  0  0  0  0  0  0  0
   57.7150   33.6350   52.3760 C   0  0  0  0  0  0  0  0  0  0  0  0
   59.0170   34.1480   52.3210 C   0  0  0  0  0  0  0  0  0  0  0  0
   60.0570   33.3620   51.8190 C   0  0  0  0  0  0  0  0  0  0  0  0
   59.7980   32.0620   51.3670 C   0  0  0  0  0  0  0  0  0  0  0  0
   59.0110   28.5160   46.7390 C   0  0  0  0  0  0  0  0  0  0  0  0
   58.7610   27.3240   47.4230 C   0  0  0  0  0  0  0  0  0  0  0  0
   57.7870   26.4570   46.9000 C   0  0  0  0  0  0  0  0  0  0  0  0
   57.0920   26.7910   45.7170 C   0  0  0  0  0  0  0  0  0  0  0  0
   57.3610   27.9980   45.0490 C   0  0  0  0  0  0  0  0  0  0  0  0
   58.3370   28.8380   45.5870 C   0  0  0  0  0  0  0  0  0  0  0  0
   58.5520   33.0600   47.5950 C   0  0  0  0  0  0  0  0  0  0  0  0
   59.7590   33.1190   48.2980 C   0  0  0  0  0  0  0  0  0  0  0  0
   64.0355   32.5299   48.6422 H   0  0  0  0  0  0  0  0  0  0  0  0
   63.0847   32.0330   47.2015 H   0  0  0  0  0  0  0  0  0  0  0  0
   63.9626   33.6002   47.2015 H   0  0  0  0  0  0  0  0  0  0  0  0
   62.2087   33.5380   50.4816 H   0  0  0  0  0  0  0  0  0  0  0  0
   63.3192   34.7302   49.7253 H   0  0  0  0  0  0  0  0  0  0  0  0
   61.5476   35.0272   49.7253 H   0  0  0  0  0  0  0  0  0  0  0  0
   61.7971   34.2203   45.7760 H   0  0  0  0  0  0  0  0  0  0  0  0
   59.6380   34.1566   44.5456 H   0  0  0  0  0  0  0  0  0  0  0  0
   56.2530   30.3535   44.0616 H   0  0  0  0  0  0  0  0  0  0  0  0
   56.6355   31.8706   43.1626 H   0  0  0  0  0  0  0  0  0  0  0  0
   58.4881   30.2219   43.0522 H   0  0  0  0  0  0  0  0  0  0  0  0
   58.9478   31.7651   43.9210 H   0  0  0  0  0  0  0  0  0  0  0  0
   60.3861   31.3557   46.0441 H   0  0  0  0  0  0  0  0  0  0  0  0
   61.5586   28.6546   48.0573 H   0  0  0  0  0  0  0  0  0  0  0  0
   61.4023   30.4533   48.1438 H   0  0  0  0  0  0  0  0  0  0  0  0
   58.3040   30.2730   48.8000 H   0  0  0  0  0  0  0  0  0  0  0  0
   57.1400   29.9712   50.8939 H   0  0  0  0  0  0  0  0  0  0  0  0
   58.6714   29.4321   51.6704 H   0  0  0  0  0  0  0  0  0  0  0  0
   56.4328   31.9329   51.9776 H   0  0  0  0  0  0  0  0  0  0  0  0
   56.8966   34.2535   52.7731 H   0  0  0  0  0  0  0  0  0  0  0  0
   59.2207   35.1700   52.6731 H   0  0  0  0  0  0  0  0  0  0  0  0
   61.0800   33.7644   51.7787 H   0  0  0  0  0  0  0  0  0  0  0  0
   60.6200   31.4435   50.9775 H   0  0  0  0  0  0  0  0  0  0  0  0
   59.3096   27.0720   48.3425 H   0  0  0  0  0  0  0  0  0  0  0  0
   57.5642   25.5113   47.4157 H   0  0  0  0  0  0  0  0  0  0  0  0
   56.3347   26.1016   45.3154 H   0  0  0  0  0  0  0  0  0  0  0  0
   56.8195   28.2718   44.1315 H   0  0  0  0  0  0  0  0  0  0  0  0
   57.6377   32.7259   48.1073 H   0  0  0  0  0  0  0  0  0  0  0  0
   59.7817   32.8454   49.3632 H   0  0  0  0  0  0  0  0  0  0  0  0
  1  2  1  0
  2  3  1  0
  2  4  1  0
  4  5  2  0
  5  6  1  0
  6  7  2  0
  7  8  1  0
  8  9  2  0
  8 10  1  0
 10 11  1  0
 11 12  1  0
 12 13  1  0
 13 14  2  0
 14 15  1  0
 15 16  1  0
 16 17  1  0
 17 18  2  0
 17 19  1  0
 19 20  1  0
 20 21  1  0
 21 22  2  0
 22 23  1  0
 23 24  2  0
 24 25  1  0
 25 26  2  0
 15 27  1  0
 27 28  2  0
 28 29  1  0
 29 30  2  0
 30 31  1  0
 31 32  2  0
  7 33  1  0
 33 34  2  0
 34  4  1  0
 32 13  1  0
 26 21  1  0
 32 27  1  0
  1 35  1  0
  1 36  1  0
  1 37  1  0
  3 38  1  0
  3 39  1  0
  3 40  1  0
  5 41  1  0
  6 42  1  0
 11 43  1  0
 11 44  1  0
 12 45  1  0
 12 46  1  0
 14 47  1  0
 16 48  1  0
 16 49  1  0
 19 50  1  0
 20 51  1  0
 20 52  1  0
 22 53  1  0
 23 54  1  0
 24 55  1  0
 25 56  1  0
 26 57  1  0
 28 58  1  0
 29 59  1  0
 30 60  1  0
 31 61  1  0
 33 62  1  0
 34 63  1  0
M  CHG  1  10  -1
M  END
>  <UniqueID>  (27) 
26

>  <SMILES>  (27) 
CN(C)c1ccc(C(=O)[N-]CCc2cn(CC(=O)NCc3ccccc3)c3ccccc23)cc1

>  <Energy>  (27) 
91.41169226826733

>  <Genealogy>  (27) 
CN(C)c1ccc(C(=O)[N-]CCc2cn(CC(=O)NCc3ccccc3)c3ccccc23)cc1 (protonated)
CN(C)c1ccc(C(=O)[N-]CCc2cn(CC(=O)NCc3ccccc3)c3ccccc23)cc1 (3D coordinates assigned)
CN(C)c1ccc(C(=O)[N-]CCc2cn(CC(=O)NCc3ccccc3)c3ccccc23)cc1 (optimized conformer: 91.41169226826733 kcal/mol)

>  <smiles>  (27) 
CN(C)c1ccc(C(=O)NCCc2cn(CC(=O)NCc3ccccc3)c3ccccc23)cc1

>  <score_type>  (27) 
oracle

>  <origin>  (27) 
adg

>  <m_score__min__energy>  (27) 
-10.25

>  <m_primary>  (27) 
energy

$$$$
27:0
     RDKit          3D

 48 51  0  0  0  0  0  0  0  0999 V2000
   57.7070   24.5680   48.5160 O   0  0  0  0  0  0  0  0  0  0  0  0
   57.5610   25.2250   47.4500 C   0  0  0  0  0  0  0  0  0  0  0  0
   57.5380   26.6570   47.5190 N   0  0  0  0  0  0  0  0  0  0  0  0
   58.5180   27.4450   47.1720 C   0  0  0  0  0  0  0  0  0  0  0  0
   59.6250   27.6000   47.9170 N   0  0  0  0  0  0  0  0  0  0  0  0
   60.4680   28.4020   47.2860 N   0  0  0  0  0  0  0  0  0  0  0  0
   59.8950   28.7870   46.1270 C   0  0  0  0  0  0  0  0  0  0  0  0
   58.6430   28.2110   46.0170 C   0  0  0  0  0  0  0  0  0  0  0  0
   57.6150   28.5980   45.0380 C   0  0  0  0  0  0  0  0  0  0  0  0
   57.4170   27.8810   44.0210 O   0  0  0  0  0  0  0  0  0  0  0  0
   56.9230   29.8400   45.2000 N   0  0  0  0  0  0  0  0  0  0  0  0
   57.4940   31.1530   45.1150 C   0  0  0  0  0  0  0  0  0  0  0  0
   57.3780   31.8580   43.9110 C   0  0  0  0  0  0  0  0  0  0  0  0
   58.0110   33.0910   43.7510 C   0  0  0  0  0  0  0  0  0  0  0  0
   58.7750   33.6270   44.7900 C   0  0  0  0  0  0  0  0  0  0  0  0
   58.9050   32.9380   46.0010 C   0  0  0  0  0  0  0  0  0  0  0  0
   59.7180   33.4890   47.0020 O   0  0  0  0  0  0  0  0  0  0  0  0
   61.0350   33.0980   47.2870 C   0  0  0  0  0  0  0  0  0  0  0  0
   62.0910   33.8310   46.7310 C   0  0  0  0  0  0  0  0  0  0  0  0
   63.4160   33.4760   47.0010 C   0  0  0  0  0  0  0  0  0  0  0  0
   63.6940   32.3940   47.8410 C   0  0  0  0  0  0  0  0  0  0  0  0
   62.6460   31.6700   48.4160 C   0  0  0  0  0  0  0  0  0  0  0  0
   61.3200   32.0210   48.1470 C   0  0  0  0  0  0  0  0  0  0  0  0
   58.2730   31.6900   46.1550 C   0  0  0  0  0  0  0  0  0  0  0  0
   57.4700   24.5290   46.1370 C   0  0  0  0  0  0  0  0  0  0  0  0
   58.6080   23.8420   45.6730 C   0  0  0  0  0  0  0  0  0  0  0  0
   58.5420   23.0240   44.5490 C   0  0  0  0  0  0  0  0  0  0  0  0
   57.3420   22.8730   43.8630 C   0  0  0  0  0  0  0  0  0  0  0  0
   56.2000   23.5620   44.2770 C   0  0  0  0  0  0  0  0  0  0  0  0
   54.7360   23.3620   43.3190 Cl  0  0  0  0  0  0  0  0  0  0  0  0
   56.2510   24.4150   45.4050 C   0  0  0  0  0  0  0  0  0  0  0  0
   55.0540   25.2040   45.7690 C   0  0  0  0  0  0  0  0  0  0  0  0
   53.9410   24.6330   45.9220 O   0  0  0  0  0  0  0  0  0  0  0  0
   55.1460   26.5770   45.9620 O   0  0  0  0  0  0  0  0  0  0  0  0
   59.8260   27.1410   48.8340 H   0  0  0  0  0  0  0  0  0  0  0  0
   60.3533   29.4562   45.3839 H   0  0  0  0  0  0  0  0  0  0  0  0
   56.7842   31.4372   43.0862 H   0  0  0  0  0  0  0  0  0  0  0  0
   57.9081   33.6421   42.8046 H   0  0  0  0  0  0  0  0  0  0  0  0
   59.2774   34.5963   44.6556 H   0  0  0  0  0  0  0  0  0  0  0  0
   61.8768   34.6903   46.0786 H   0  0  0  0  0  0  0  0  0  0  0  0
   64.2407   34.0489   46.5518 H   0  0  0  0  0  0  0  0  0  0  0  0
   64.7368   32.1126   48.0493 H   0  0  0  0  0  0  0  0  0  0  0  0
   62.8651   30.8221   49.0817 H   0  0  0  0  0  0  0  0  0  0  0  0
   60.4977   31.4544   48.6083 H   0  0  0  0  0  0  0  0  0  0  0  0
   58.3893   31.1310   47.0952 H   0  0  0  0  0  0  0  0  0  0  0  0
   59.5633   23.9534   46.2068 H   0  0  0  0  0  0  0  0  0  0  0  0
   59.4421   22.4952   44.2022 H   0  0  0  0  0  0  0  0  0  0  0  0
   57.2919   22.2069   42.9890 H   0  0  0  0  0  0  0  0  0  0  0  0
  1  2  2  0
  2  3  1  0
  3  4  2  3
  4  5  1  0
  5  6  1  0
  6  7  1  0
  7  8  2  0
  8  9  1  0
  9 10  2  0
  9 11  1  0
 11 12  1  0
 12 13  2  0
 13 14  1  0
 14 15  2  0
 15 16  1  0
 16 17  1  0
 17 18  1  0
 18 19  2  0
 19 20  1  0
 20 21  2  0
 21 22  1  0
 22 23  2  0
 16 24  2  0
  2 25  1  0
 25 26  2  0
 26 27  1  0
 27 28  2  0
 28 29  1  0
 29 30  1  0
 29 31  2  0
 31 32  1  0
 32 33  2  0
 32 34  1  0
  8  4  1  0
 24 12  1  0
 31 25  1  0
 23 18  1  0
  5 35  1  0
  7 36  1  0
 13 37  1  0
 14 38  1  0
 15 39  1  0
 19 40  1  0
 20 41  1  0
 21 42  1  0
 22 43  1  0
 23 44  1  0
 24 45  1  0
 26 46  1  0
 27 47  1  0
 28 48  1  0
M  CHG  3   6  -1  11  -1  34  -1
M  END
>  <UniqueID>  (28) 
27

>  <SMILES>  (28) 
O=C(N=c1[nH][n-]cc1C(=O)[N-]c1cccc(Oc2ccccc2)c1)c1cccc(Cl)c1C(=O)[O-]

>  <Energy>  (28) 
114.79585041779256

>  <Genealogy>  (28) 
O=C(N=c1[nH][n-]cc1C(=O)[N-]c1cccc(Oc2ccccc2)c1)c1cccc(Cl)c1C(=O)[O-] (protonated)
O=C(N=c1[nH][n-]cc1C(=O)[N-]c1cccc(Oc2ccccc2)c1)c1cccc(Cl)c1C(=O)[O-] (3D coordinates assigned)
O=C(N=c1[nH][n-]cc1C(=O)[N-]c1cccc(Oc2ccccc2)c1)c1cccc(Cl)c1C(=O)[O-] (optimized conformer: 114.79585041779256 kcal/mol)

>  <smiles>  (28) 
O=C(N=c1[nH][nH]cc1C(=O)Nc1cccc(Oc2ccccc2)c1)c1cccc(Cl)c1C(=O)O

>  <score_type>  (28) 
oracle

>  <origin>  (28) 
adg

>  <m_score__min__energy>  (28) 
-14.51

>  <m_primary>  (28) 
energy

$$$$
28:0
     RDKit          3D

 35 36  0  0  0  0  0  0  0  0999 V2000
   62.3880   33.1930   48.1770 C   0  0  0  0  0  0  0  0  0  0  0  0
   61.0190   32.6920   47.8190 C   0  0  0  0  0  0  0  0  0  0  0  0
   59.8780   33.4180   48.1960 C   0  0  0  0  0  0  0  0  0  0  0  0
   58.6070   32.9600   47.8480 C   0  0  0  0  0  0  0  0  0  0  0  0
   58.4620   31.7830   47.1100 C   0  0  0  0  0  0  0  0  0  0  0  0
   59.5930   31.0550   46.7020 C   0  0  0  0  0  0  0  0  0  0  0  0
   59.4270   29.7990   45.8840 C   0  0  0  0  0  0  0  0  0  0  0  0
   58.0090   29.6310   45.4070 C   0  0  0  0  0  0  0  0  0  0  0  0
   57.1470   28.5630   45.6190 C   0  0  0  0  0  0  0  0  0  0  0  0
   57.4020   27.3260   46.4300 C   0  0  0  0  0  0  0  0  0  0  0  0
   56.5900   26.1410   45.9070 C   0  0  0  0  0  0  0  0  0  0  0  0
   55.2220   26.4440   45.9380 O   0  0  0  0  0  0  0  0  0  0  0  0
   55.9850   28.8230   44.9910 N   0  0  0  0  0  0  0  0  0  0  0  0
   56.0890   29.9740   44.3960 O   0  0  0  0  0  0  0  0  0  0  0  0
   57.2760   30.4970   44.6070 C   0  0  0  0  0  0  0  0  0  0  0  0
   57.7260   31.8040   44.0440 C   0  0  0  0  0  0  0  0  0  0  0  0
   60.8740   31.5120   47.0680 C   0  0  0  0  0  0  0  0  0  0  0  0
   61.9760   30.8170   46.6890 F   0  0  0  0  0  0  0  0  0  0  0  0
   62.4901   33.2304   49.2716 H   0  0  0  0  0  0  0  0  0  0  0  0
   63.1472   32.5144   47.7609 H   0  0  0  0  0  0  0  0  0  0  0  0
   62.5299   34.2013   47.7609 H   0  0  0  0  0  0  0  0  0  0  0  0
   59.9866   34.3514   48.7679 H   0  0  0  0  0  0  0  0  0  0  0  0
   57.7164   33.5275   48.1557 H   0  0  0  0  0  0  0  0  0  0  0  0
   57.4563   31.4236   46.8464 H   0  0  0  0  0  0  0  0  0  0  0  0
   60.0935   29.8513   45.0105 H   0  0  0  0  0  0  0  0  0  0  0  0
   59.6799   28.9382   46.5205 H   0  0  0  0  0  0  0  0  0  0  0  0
   58.4723   27.0777   46.3778 H   0  0  0  0  0  0  0  0  0  0  0  0
   57.0982   27.5234   47.4686 H   0  0  0  0  0  0  0  0  0  0  0  0
   56.8909   25.9222   44.8718 H   0  0  0  0  0  0  0  0  0  0  0  0
   56.7795   25.2650   46.5447 H   0  0  0  0  0  0  0  0  0  0  0  0
   54.8190   25.9710   45.1650 H   0  0  0  0  0  0  0  0  0  0  0  0
   55.1360   28.2160   44.9700 H   0  0  0  0  0  0  0  0  0  0  0  0
   57.9639   32.4950   44.8662 H   0  0  0  0  0  0  0  0  0  0  0  0
   58.6221   31.6478   43.4254 H   0  0  0  0  0  0  0  0  0  0  0  0
   56.9237   32.2325   43.4254 H   0  0  0  0  0  0  0  0  0  0  0  0
  1  2  1  0
  2  3  2  0
  3  4  1  0
  4  5  2  0
  5  6  1  0
  6  7  1  0
  7  8  1  0
  8  9  1  0
  9 10  1  0
 10 11  1  0
 11 12  1  0
  9 13  2  0
 13 14  1  0
 14 15  1  0
 15 16  1  0
  6 17  2  0
 17 18  1  0
 17  2  1  0
 15  8  2  0
  1 19  1  0
  1 20  1  0
  1 21  1  0
  3 22  1  0
  4 23  1  0
  5 24  1  0
  7 25  1  0
  7 26  1  0
 10 27  1  0
 10 28  1  0
 11 29  1  0
 11 30  1  0
 12 31  1  0
 13 32  1  0
 16 33  1  0
 16 34  1  0
 16 35  1  0
M  CHG  1  13   1
M  END
>  <UniqueID>  (29) 
28

>  <SMILES>  (29) 
Cc1cccc(Cc2c(CCO)[nH+]oc2C)c1F

>  <Energy>  (29) 
58.96101508436555

>  <Genealogy>  (29) 
Cc1cccc(Cc2c(CCO)[nH+]oc2C)c1F (protonated)
Cc1cccc(Cc2c(CCO)[nH+]oc2C)c1F (3D coordinates assigned)
Cc1cccc(Cc2c(CCO)[nH+]oc2C)c1F (optimized conformer: 58.96101508436555 kcal/mol)

>  <smiles>  (29) 
Cc1cccc(Cc2c(CCO)noc2C)c1F

>  <score_type>  (29) 
oracle

>  <origin>  (29) 
adg

>  <m_score__min__energy>  (29) 
-6.0099999999999998

>  <m_primary>  (29) 
energy

$$$$
29:0
     RDKit          3D

 65 67  0  0  0  0  0  0  0  0999 V2000
   62.7440   31.7100   47.2580 C   0  0  0  0  0  0  0  0  0  0  0  0
   61.6100   30.7380   47.1540 C   0  0  0  0  0  0  0  0  0  0  0  0
   61.4350   30.1370   46.0570 O   0  0  0  0  0  0  0  0  0  0  0  0
   60.7070   30.4580   48.3030 C   0  0  0  0  0  0  0  0  0  0  0  0
   59.3530   30.1180   48.1140 C   0  0  0  0  0  0  0  0  0  0  0  0
   58.5240   29.8530   49.2090 C   0  0  0  0  0  0  0  0  0  0  0  0
   59.0340   29.9210   50.5170 C   0  0  0  0  0  0  0  0  0  0  0  0
   58.2190   29.6880   51.6740 N   0  0  0  0  0  0  0  0  0  0  0  0
   57.0160   30.3740   52.0460 C   0  0  0  0  0  0  0  0  0  0  0  0
   55.9000   29.7920   52.0070 O   0  0  0  0  0  0  0  0  0  0  0  0
   57.1040   31.7740   52.5720 C   0  0  0  0  0  0  0  0  0  0  0  0
   58.2450   32.4790   51.9720 N   0  0  0  0  0  0  0  0  0  0  0  0
   58.2530   32.6670   50.6480 N   0  0  0  0  0  0  0  0  0  0  0  0
   59.2690   33.3080   50.0080 C   0  0  0  0  0  0  0  0  0  0  0  0
   59.2430   33.4520   48.5350 C   0  0  0  0  0  0  0  0  0  0  0  0
   60.2450   33.9340   47.9410 O   0  0  0  0  0  0  0  0  0  0  0  0
   58.0790   33.0740   47.7810 N   0  0  0  0  0  0  0  0  0  0  0  0
   58.0840   32.8860   46.3520 C   0  0  0  0  0  0  0  0  0  0  0  0
   58.6610   33.8340   45.4950 C   0  0  0  0  0  0  0  0  0  0  0  0
   58.6450   33.6340   44.1140 C   0  0  0  0  0  0  0  0  0  0  0  0
   58.0630   32.4840   43.5530 C   0  0  0  0  0  0  0  0  0  0  0  0
   58.0330   32.3580   42.0520 C   0  0  0  0  0  0  0  0  0  0  0  0
   57.4930   31.5110   44.4170 C   0  0  0  0  0  0  0  0  0  0  0  0
   56.7030   30.0200   43.8580 S   0  0  0  0  0  0  0  0  0  0  0  0
   56.1600   30.1340   42.4620 O   0  0  0  0  0  0  0  0  0  0  0  0
   55.5500   29.7220   44.7740 O   0  0  0  0  0  0  0  0  0  0  0  0
   57.8350   28.7000   43.9450 N   0  0  0  0  0  0  0  0  0  0  0  0
   58.7740   28.8610   45.0640 C   0  0  0  0  0  0  0  0  0  0  0  0
   58.5580   27.7380   46.0980 C   0  0  0  0  0  0  0  0  0  0  0  0
   57.1770   27.0910   45.9490 C   0  0  0  0  0  0  0  0  0  0  0  0
   59.6570   26.6730   45.9790 C   0  0  0  0  0  0  0  0  0  0  0  0
   57.5330   31.7210   45.8060 C   0  0  0  0  0  0  0  0  0  0  0  0
   60.3410   33.7940   50.7650 C   0  0  0  0  0  0  0  0  0  0  0  0
   60.3430   33.6070   52.1410 C   0  0  0  0  0  0  0  0  0  0  0  0
   59.2810   32.9350   52.7430 C   0  0  0  0  0  0  0  0  0  0  0  0
   59.2900   32.7520   53.9910 O   0  0  0  0  0  0  0  0  0  0  0  0
   60.3710   30.2830   50.7080 C   0  0  0  0  0  0  0  0  0  0  0  0
   61.2040   30.5390   49.6170 C   0  0  0  0  0  0  0  0  0  0  0  0
   62.9670   31.9012   48.3181 H   0  0  0  0  0  0  0  0  0  0  0  0
   63.6336   31.2896   46.7662 H   0  0  0  0  0  0  0  0  0  0  0  0
   62.4646   32.6534   46.7662 H   0  0  0  0  0  0  0  0  0  0  0  0
   58.9435   30.0603   47.0947 H   0  0  0  0  0  0  0  0  0  0  0  0
   57.4684   29.5903   49.0458 H   0  0  0  0  0  0  0  0  0  0  0  0
   56.1765   32.3119   52.3263 H   0  0  0  0  0  0  0  0  0  0  0  0
   57.2432   31.7360   53.6625 H   0  0  0  0  0  0  0  0  0  0  0  0
   57.1690   32.9650   48.2820 H   0  0  0  0  0  0  0  0  0  0  0  0
   59.1278   34.7383   45.9126 H   0  0  0  0  0  0  0  0  0  0  0  0
   59.0955   34.3892   43.4531 H   0  0  0  0  0  0  0  0  0  0  0  0
   57.7864   31.3222   41.7759 H   0  0  0  0  0  0  0  0  0  0  0  0
   57.2716   33.0379   41.6421 H   0  0  0  0  0  0  0  0  0  0  0  0
   59.0191   32.6219   41.6421 H   0  0  0  0  0  0  0  0  0  0  0  0
   59.8052   28.8133   44.6842 H   0  0  0  0  0  0  0  0  0  0  0  0
   58.5990   29.8344   45.5456 H   0  0  0  0  0  0  0  0  0  0  0  0
   58.6114   28.1959   47.0967 H   0  0  0  0  0  0  0  0  0  0  0  0
   56.7552   26.8934   46.9455 H   0  0  0  0  0  0  0  0  0  0  0  0
   56.5112   27.7709   45.3973 H   0  0  0  0  0  0  0  0  0  0  0  0
   57.2732   26.1443   45.3973 H   0  0  0  0  0  0  0  0  0  0  0  0
   59.9773   26.3627   46.9845 H   0  0  0  0  0  0  0  0  0  0  0  0
   59.2656   25.8016   45.4336 H   0  0  0  0  0  0  0  0  0  0  0  0
   60.5157   27.0916   45.4336 H   0  0  0  0  0  0  0  0  0  0  0  0
   57.1225   30.9534   46.4785 H   0  0  0  0  0  0  0  0  0  0  0  0
   61.1740   34.3191   50.2748 H   0  0  0  0  0  0  0  0  0  0  0  0
   61.1762   33.9863   52.7509 H   0  0  0  0  0  0  0  0  0  0  0  0
   60.7711   30.3671   51.7292 H   0  0  0  0  0  0  0  0  0  0  0  0
   62.2576   30.8062   49.7861 H   0  0  0  0  0  0  0  0  0  0  0  0
  1  2  1  0
  2  3  2  0
  2  4  1  0
  4  5  2  0
  5  6  1  0
  6  7  2  0
  7  8  1  0
  8  9  1  0
  9 10  2  0
  9 11  1  0
 11 12  1  0
 12 13  1  0
 13 14  2  0
 14 15  1  0
 15 16  2  0
 15 17  1  0
 17 18  1  0
 18 19  2  0
 19 20  1  0
 20 21  2  0
 21 22  1  0
 21 23  1  0
 23 24  1  0
 24 25  2  0
 24 26  2  0
 24 27  1  0
 27 28  1  0
 28 29  1  0
 29 30  1  0
 29 31  1  0
 23 32  2  0
 14 33  1  0
 33 34  2  0
 34 35  1  0
 35 36  2  0
  7 37  1  0
 37 38  2  0
 38  4  1  0
 35 12  1  0
 32 18  1  0
  1 39  1  0
  1 40  1  0
  1 41  1  0
  5 42  1  0
  6 43  1  0
 11 44  1  0
 11 45  1  0
 17 46  1  0
 19 47  1  0
 20 48  1  0
 22 49  1  0
 22 50  1  0
 22 51  1  0
 28 52  1  0
 28 53  1  0
 29 54  1  0
 30 55  1  0
 30 56  1  0
 30 57  1  0
 31 58  1  0
 31 59  1  0
 31 60  1  0
 32 61  1  0
 33 62  1  0
 34 63  1  0
 37 64  1  0
 38 65  1  0
M  CHG  2   8  -1  27  -1
M  END
>  <UniqueID>  (30) 
29

>  <SMILES>  (30) 
CC(=O)c1ccc([N-]C(=O)Cn2nc(C(=O)Nc3ccc(C)c(S(=O)(=O)[N-]CC(C)C)c3)ccc2=O)cc1

>  <Energy>  (30) 
73.18988933846347

>  <Genealogy>  (30) 
CC(=O)c1ccc([N-]C(=O)Cn2nc(C(=O)Nc3ccc(C)c(S(=O)(=O)[N-]CC(C)C)c3)ccc2=O)cc1 (protonated)
CC(=O)c1ccc([N-]C(=O)Cn2nc(C(=O)Nc3ccc(C)c(S(=O)(=O)[N-]CC(C)C)c3)ccc2=O)cc1 (3D coordinates assigned)
CC(=O)c1ccc([N-]C(=O)Cn2nc(C(=O)Nc3ccc(C)c(S(=O)(=O)[N-]CC(C)C)c3)ccc2=O)cc1 (optimized conformer: 73.18988933846347 kcal/mol)

>  <smiles>  (30) 
CC(=O)c1ccc(NC(=O)Cn2nc(C(=O)Nc3ccc(C)c(S(=O)(=O)NCC(C)C)c3)ccc2=O)cc1

>  <score_type>  (30) 
oracle

>  <origin>  (30) 
adg

>  <m_score__min__energy>  (30) 
-12.44

>  <m_primary>  (30) 
energy

$$$$
30:0
     RDKit          3D

 43 44  0  0  0  0  0  0  0  0999 V2000
   59.2410   27.9650   48.3640 H   0  0  0  0  0  0  0  0  0  0  0  0
   60.0280   28.5720   48.5640 O   0  0  0  0  0  0  0  0  0  0  0  0
   59.9470   29.9590   48.4450 C   0  0  0  0  0  0  0  0  0  0  0  0
   60.8310   30.6140   47.5830 C   0  0  0  0  0  0  0  0  0  0  0  0
   61.5764   30.0332   47.0200 H   0  0  0  0  0  0  0  0  0  0  0  0
   60.7740   32.0010   47.4320 C   0  0  0  0  0  0  0  0  0  0  0  0
   61.4827   32.5082   46.7608 H   0  0  0  0  0  0  0  0  0  0  0  0
   59.8190   32.7490   48.1310 C   0  0  0  0  0  0  0  0  0  0  0  0
   59.8020   34.2180   47.9770 C   0  0  0  0  0  0  0  0  0  0  0  0
   59.6275   34.8165   48.8833 H   0  0  0  0  0  0  0  0  0  0  0  0
   59.9810   34.8850   46.8270 C   0  0  0  0  0  0  0  0  0  0  0  0
   60.8925   35.4950   46.7427 H   0  0  0  0  0  0  0  0  0  0  0  0
   59.0700   34.8790   45.6610 C   0  0  0  0  0  0  0  0  0  0  0  0
   59.2900   35.7010   44.7330 O   0  0  0  0  0  0  0  0  0  0  0  0
   58.0030   33.8310   45.4580 C   0  0  0  0  0  0  0  0  0  0  0  0
   57.1294   34.3007   44.9824 H   0  0  0  0  0  0  0  0  0  0  0  0
   57.7433   33.4146   46.4425 H   0  0  0  0  0  0  0  0  0  0  0  0
   58.4920   32.6790   44.5690 C   0  0  0  0  0  0  0  0  0  0  0  0
   59.5451   32.4678   44.8065 H   0  0  0  0  0  0  0  0  0  0  0  0
   58.3782   32.9848   43.5185 H   0  0  0  0  0  0  0  0  0  0  0  0
   57.6810   31.4240   44.7840 C   0  0  0  0  0  0  0  0  0  0  0  0
   56.5080   31.2020   44.0480 C   0  0  0  0  0  0  0  0  0  0  0  0
   56.1501   31.9665   43.3427 H   0  0  0  0  0  0  0  0  0  0  0  0
   55.7930   30.0130   44.2080 C   0  0  0  0  0  0  0  0  0  0  0  0
   54.8747   29.8433   43.6267 H   0  0  0  0  0  0  0  0  0  0  0  0
   56.2400   29.0380   45.1040 C   0  0  0  0  0  0  0  0  0  0  0  0
   55.5200   27.8580   45.2500 O   0  0  0  0  0  0  0  0  0  0  0  0
   57.4080   29.2440   45.8510 C   0  0  0  0  0  0  0  0  0  0  0  0
   57.8220   28.2390   46.7390 O   0  0  0  0  0  0  0  0  0  0  0  0
   58.2270   26.9330   46.3440 C   0  0  0  0  0  0  0  0  0  0  0  0
   58.4166   26.3216   47.2386 H   0  0  0  0  0  0  0  0  0  0  0  0
   57.4309   26.4680   45.7441 H   0  0  0  0  0  0  0  0  0  0  0  0
   59.1466   27.0000   45.7441 H   0  0  0  0  0  0  0  0  0  0  0  0
   58.1260   30.4450   45.6870 C   0  0  0  0  0  0  0  0  0  0  0  0
   59.0423   30.6172   46.2708 H   0  0  0  0  0  0  0  0  0  0  0  0
   58.9530   32.0980   49.0280 C   0  0  0  0  0  0  0  0  0  0  0  0
   58.2335   32.6865   49.6162 H   0  0  0  0  0  0  0  0  0  0  0  0
   59.0000   30.6970   49.1790 C   0  0  0  0  0  0  0  0  0  0  0  0
   58.1300   30.0140   50.0440 O   0  0  0  0  0  0  0  0  0  0  0  0
   58.1550   30.1220   51.4640 C   0  0  0  0  0  0  0  0  0  0  0  0
   57.9283   29.1425   51.9103 H   0  0  0  0  0  0  0  0  0  0  0  0
   59.1530   30.4509   51.7892 H   0  0  0  0  0  0  0  0  0  0  0  0
   57.4030   30.8560   51.7892 H   0  0  0  0  0  0  0  0  0  0  0  0
  1  2  1  0
  2  3  1  0
  3  4  2  0
  4  5  1  0
  4  6  1  0
  6  7  1  0
  6  8  2  0
  8  9  1  0
  9 10  1  0
  9 11  2  0
 11 12  1  0
 11 13  1  0
 13 14  2  0
 13 15  1  0
 15 16  1  0
 15 17  1  0
 15 18  1  0
 18 19  1  0
 18 20  1  0
 18 21  1  0
 21 22  2  0
 22 23  1  0
 22 24  1  0
 24 25  1  0
 24 26  2  0
 26 27  1  0
 26 28  1  0
 28 29  1  0
 29 30  1  0
 30 31  1  0
 30 32  1  0
 30 33  1  0
 28 34  2  0
 34 35  1  0
  8 36  1  0
 36 37  1  0
 36 38  2  0
 38 39  1  0
 39 40  1  0
 40 41  1  0
 40 42  1  0
 40 43  1  0
 38  3  1  0
 34 21  1  0
M  CHG  1  27  -1
M  END
>  <UniqueID>  (31) 
30

>  <SMILES>  (31) 
COc1cc(CCC(=O)/C=C\c2ccc(O)c(OC)c2)ccc1[O-]

>  <Energy>  (31) 
45.662192558253025

>  <Genealogy>  (31) 
COc1cc(CCC(=O)C=Cc2ccc(O)c(OC)c2)ccc1[O-] (protonated)
COc1cc(CCC(=O)/C=C\c2ccc(O)c(OC)c2)ccc1[O-] (cis-trans isomerization)
COc1cc(CCC(=O)/C=C\c2ccc(O)c(OC)c2)ccc1[O-] (3D coordinates assigned)
COc1cc(CCC(=O)/C=C\c2ccc(O)c(OC)c2)ccc1[O-] (optimized conformer: 45.662192558253025 kcal/mol)

>  <smiles>  (31) 
COc1cc(C=CC(=O)CCc2ccc(O)c(OC)c2)ccc1O

>  <score_type>  (31) 
oracle

>  <origin>  (31) 
adg

>  <m_score__min__energy>  (31) 
-10.550000000000001

>  <m_primary>  (31) 
energy

$$$$
31:0
     RDKit          3D

 54 56  0  0  0  0  0  0  0  0999 V2000
   59.5462   30.1839   44.4001 H   0  0  0  0  0  0  0  0  0  0  0  0
   58.9020   29.5040   44.9770 C   0  0  0  0  0  0  0  0  0  0  0  0
   57.7750   29.0620   44.3900 C   0  0  0  0  0  0  0  0  0  0  0  0
   57.8010   27.9870   43.4230 C   0  0  0  0  0  0  0  0  0  0  0  0
   57.8200   27.1250   42.6510 N   0  0  0  0  0  0  0  0  0  0  0  0
   56.4760   29.7050   44.7030 C   0  0  0  0  0  0  0  0  0  0  0  0
   55.5140   28.9970   45.1050 O   0  0  0  0  0  0  0  0  0  0  0  0
   56.2550   31.1070   44.4970 N   0  0  0  0  0  0  0  0  0  0  0  0
   57.2040   32.1570   44.7390 C   0  0  0  0  0  0  0  0  0  0  0  0
   57.9810   32.7120   43.7070 C   0  0  0  0  0  0  0  0  0  0  0  0
   57.8532   32.3592   42.6730 H   0  0  0  0  0  0  0  0  0  0  0  0
   58.8900   33.6840   43.9850 N   0  0  0  0  0  0  0  0  0  0  0  0
   59.0850   34.1410   45.2500 C   0  0  0  0  0  0  0  0  0  0  0  0
   59.8213   34.9357   45.4402 H   0  0  0  0  0  0  0  0  0  0  0  0
   58.3510   33.6020   46.3080 C   0  0  0  0  0  0  0  0  0  0  0  0
   58.5086   33.9640   47.3347 H   0  0  0  0  0  0  0  0  0  0  0  0
   57.4150   32.5990   46.0500 C   0  0  0  0  0  0  0  0  0  0  0  0
   56.8426   32.1555   46.8781 H   0  0  0  0  0  0  0  0  0  0  0  0
   59.3360   29.1400   46.3440 C   0  0  0  0  0  0  0  0  0  0  0  0
   60.1440   28.0210   46.5820 C   0  0  0  0  0  0  0  0  0  0  0  0
   60.5098   27.4201   45.7363 H   0  0  0  0  0  0  0  0  0  0  0  0
   60.4870   27.6650   47.8860 C   0  0  0  0  0  0  0  0  0  0  0  0
   61.1382   26.7949   48.0559 H   0  0  0  0  0  0  0  0  0  0  0  0
   60.0160   28.3970   48.9820 C   0  0  0  0  0  0  0  0  0  0  0  0
   60.3950   27.9360   50.2580 O   0  0  0  0  0  0  0  0  0  0  0  0
   60.3970   28.6770   51.4780 C   0  0  0  0  0  0  0  0  0  0  0  0
   59.3616   28.9372   51.7430 H   0  0  0  0  0  0  0  0  0  0  0  0
   60.8509   28.0569   52.2651 H   0  0  0  0  0  0  0  0  0  0  0  0
   61.1990   29.9360   51.3380 C   0  0  0  0  0  0  0  0  0  0  0  0
   61.1760   30.7960   52.2600 O   0  0  0  0  0  0  0  0  0  0  0  0
   61.9680   30.1700   50.1500 N   0  0  0  0  0  0  0  0  0  0  0  0
   61.8220   29.5530   49.3210 H   0  0  0  0  0  0  0  0  0  0  0  0
   63.0610   31.1380   50.1140 C   0  0  0  0  0  0  0  0  0  0  0  0
   63.0448   31.7417   51.0334 H   0  0  0  0  0  0  0  0  0  0  0  0
   64.0189   30.6023   50.0398 H   0  0  0  0  0  0  0  0  0  0  0  0
   62.9020   32.0410   48.9200 C   0  0  0  0  0  0  0  0  0  0  0  0
   63.8940   32.9820   48.5970 C   0  0  0  0  0  0  0  0  0  0  0  0
   64.7817   33.0854   49.2384 H   0  0  0  0  0  0  0  0  0  0  0  0
   63.7560   33.7870   47.4630 C   0  0  0  0  0  0  0  0  0  0  0  0
   64.5347   34.5233   47.2150 H   0  0  0  0  0  0  0  0  0  0  0  0
   62.6310   33.6590   46.6430 C   0  0  0  0  0  0  0  0  0  0  0  0
   62.5234   34.2956   45.7524 H   0  0  0  0  0  0  0  0  0  0  0  0
   61.6440   32.7220   46.9560 C   0  0  0  0  0  0  0  0  0  0  0  0
   60.7581   32.6217   46.3118 H   0  0  0  0  0  0  0  0  0  0  0  0
   61.7800   31.9110   48.0870 C   0  0  0  0  0  0  0  0  0  0  0  0
   61.0044   31.1681   48.3248 H   0  0  0  0  0  0  0  0  0  0  0  0
   59.1960   29.5320   48.7560 C   0  0  0  0  0  0  0  0  0  0  0  0
   58.7470   30.3010   49.8390 O   0  0  0  0  0  0  0  0  0  0  0  0
   58.6090   31.7170   49.8370 C   0  0  0  0  0  0  0  0  0  0  0  0
   58.5733   32.0834   50.8736 H   0  0  0  0  0  0  0  0  0  0  0  0
   59.4674   32.1683   49.3179 H   0  0  0  0  0  0  0  0  0  0  0  0
   57.6796   31.9941   49.3179 H   0  0  0  0  0  0  0  0  0  0  0  0
   58.8550   29.8790   47.4320 C   0  0  0  0  0  0  0  0  0  0  0  0
   58.2005   30.7444   47.2511 H   0  0  0  0  0  0  0  0  0  0  0  0
  1  2  1  0
  2  3  2  0
  3  4  1  0
  4  5  3  0
  3  6  1  0
  6  7  2  0
  6  8  1  0
  8  9  1  0
  9 10  2  0
 10 11  1  0
 10 12  1  0
 12 13  2  0
 13 14  1  0
 13 15  1  0
 15 16  1  0
 15 17  2  0
 17 18  1  0
  2 19  1  0
 19 20  2  0
 20 21  1  0
 20 22  1  0
 22 23  1  0
 22 24  2  0
 24 25  1  0
 25 26  1  0
 26 27  1  0
 26 28  1  0
 26 29  1  0
 29 30  2  0
 29 31  1  0
 31 32  1  0
 31 33  1  0
 33 34  1  0
 33 35  1  0
 33 36  1  0
 36 37  2  0
 37 38  1  0
 37 39  1  0
 39 40  1  0
 39 41  2  0
 41 42  1  0
 41 43  1  0
 43 44  1  0
 43 45  2  0
 45 46  1  0
 24 47  1  0
 47 48  1  0
 48 49  1  0
 49 50  1  0
 49 51  1  0
 49 52  1  0
 47 53  2  0
 53 54  1  0
 17  9  1  0
 53 19  1  0
 45 36  1  0
M  CHG  1   8  -1
M  END
>  <UniqueID>  (32) 
31

>  <SMILES>  (32) 
COc1cc(/C=C(\C#N)C(=O)[N-]c2cccnc2)ccc1OCC(=O)NCc1ccccc1

>  <Energy>  (32) 
62.700828534875065

>  <Genealogy>  (32) 
COc1cc(C=C(C#N)C(=O)[N-]c2cccnc2)ccc1OCC(=O)NCc1ccccc1 (protonated)
COc1cc(/C=C(\C#N)C(=O)[N-]c2cccnc2)ccc1OCC(=O)NCc1ccccc1 (cis-trans isomerization)
COc1cc(/C=C(\C#N)C(=O)[N-]c2cccnc2)ccc1OCC(=O)NCc1ccccc1 (3D coordinates assigned)
COc1cc(/C=C(\C#N)C(=O)[N-]c2cccnc2)ccc1OCC(=O)NCc1ccccc1 (optimized conformer: 62.700828534875065 kcal/mol)

>  <smiles>  (32) 
COc1cc(C=C(C#N)C(=O)Nc2cccnc2)ccc1OCC(=O)NCc1ccccc1

>  <score_type>  (32) 
oracle

>  <origin>  (32) 
adg

>  <m_score__min__energy>  (32) 
-10.619999999999999

>  <m_primary>  (32) 
energy

$$$$
32:0
     RDKit          3D

 43 44  0  0  0  0  0  0  0  0999 V2000
   63.7880   32.7150   48.8560 C   0  0  0  0  0  0  0  0  0  0  0  0
   62.4420   32.9540   49.2530 O   0  0  0  0  0  0  0  0  0  0  0  0
   61.3550   33.0360   48.3690 C   0  0  0  0  0  0  0  0  0  0  0  0
   61.1730   34.2180   47.6580 C   0  0  0  0  0  0  0  0  0  0  0  0
   60.1290   34.3570   46.7330 C   0  0  0  0  0  0  0  0  0  0  0  0
   59.9940   35.6800   46.0190 C   0  0  0  0  0  0  0  0  0  0  0  0
   59.2210   33.2820   46.5190 C   0  0  0  0  0  0  0  0  0  0  0  0
   57.9580   33.4450   45.2570 S   0  0  0  0  0  0  0  0  0  0  0  0
   57.6060   34.8980   45.1150 O   0  0  0  0  0  0  0  0  0  0  0  0
   56.6900   32.7120   45.5910 O   0  0  0  0  0  0  0  0  0  0  0  0
   58.5550   32.8630   43.7270 N   0  0  0  0  0  0  0  0  0  0  0  0
   57.5760   32.0020   43.0580 C   0  0  0  0  0  0  0  0  0  0  0  0
   57.3900   30.7050   43.8050 C   0  0  0  0  0  0  0  0  0  0  0  0
   58.4980   29.9020   44.1210 C   0  0  0  0  0  0  0  0  0  0  0  0
   58.3180   28.6680   44.7520 C   0  0  0  0  0  0  0  0  0  0  0  0
   57.0310   28.2310   45.0900 C   0  0  0  0  0  0  0  0  0  0  0  0
   56.7940   26.6620   45.8530 S   0  0  0  0  0  0  0  0  0  0  0  0
   55.1030   26.3470   46.0220 N   0  0  0  0  0  0  0  0  0  0  0  0
   57.4050   25.5800   45.0090 O   0  0  0  0  0  0  0  0  0  0  0  0
   57.4420   26.6640   47.2080 O   0  0  0  0  0  0  0  0  0  0  0  0
   55.9300   29.0540   44.8270 C   0  0  0  0  0  0  0  0  0  0  0  0
   56.1080   30.2880   44.1970 C   0  0  0  0  0  0  0  0  0  0  0  0
   59.3900   32.0850   47.2720 C   0  0  0  0  0  0  0  0  0  0  0  0
   58.4710   30.8980   47.1370 C   0  0  0  0  0  0  0  0  0  0  0  0
   60.4570   31.9790   48.1820 C   0  0  0  0  0  0  0  0  0  0  0  0
   64.4195   32.6029   49.7497 H   0  0  0  0  0  0  0  0  0  0  0  0
   63.8353   31.7944   48.2558 H   0  0  0  0  0  0  0  0  0  0  0  0
   64.1493   33.5630   48.2558 H   0  0  0  0  0  0  0  0  0  0  0  0
   61.8615   35.0595   47.8249 H   0  0  0  0  0  0  0  0  0  0  0  0
   59.9114   36.4894   46.7593 H   0  0  0  0  0  0  0  0  0  0  0  0
   60.8796   35.8485   45.3887 H   0  0  0  0  0  0  0  0  0  0  0  0
   59.0926   35.6662   45.3887 H   0  0  0  0  0  0  0  0  0  0  0  0
   56.6113   32.5281   43.0067 H   0  0  0  0  0  0  0  0  0  0  0  0
   57.9467   31.7723   42.0481 H   0  0  0  0  0  0  0  0  0  0  0  0
   59.5124   30.2459   43.8707 H   0  0  0  0  0  0  0  0  0  0  0  0
   59.1896   28.0382   44.9838 H   0  0  0  0  0  0  0  0  0  0  0  0
   54.7160   27.0840   46.6540 H   0  0  0  0  0  0  0  0  0  0  0  0
   54.9204   28.7278   45.1175 H   0  0  0  0  0  0  0  0  0  0  0  0
   55.2397   30.9360   44.0071 H   0  0  0  0  0  0  0  0  0  0  0  0
   58.1906   30.5358   48.1371 H   0  0  0  0  0  0  0  0  0  0  0  0
   57.5657   31.1958   46.5877 H   0  0  0  0  0  0  0  0  0  0  0  0
   58.9860   30.0961   46.5877 H   0  0  0  0  0  0  0  0  0  0  0  0
   60.5879   31.0500   48.7563 H   0  0  0  0  0  0  0  0  0  0  0  0
  1  2  1  0
  2  3  1  0
  3  4  2  0
  4  5  1  0
  5  6  1  0
  5  7  2  0
  7  8  1  0
  8  9  2  0
  8 10  2  0
  8 11  1  0
 11 12  1  0
 12 13  1  0
 13 14  2  0
 14 15  1  0
 15 16  2  0
 16 17  1  0
 17 18  1  0
 17 19  2  0
 17 20  2  0
 16 21  1  0
 21 22  2  0
  7 23  1  0
 23 24  1  0
 23 25  2  0
 25  3  1  0
 22 13  1  0
  1 26  1  0
  1 27  1  0
  1 28  1  0
  4 29  1  0
  6 30  1  0
  6 31  1  0
  6 32  1  0
 12 33  1  0
 12 34  1  0
 14 35  1  0
 15 36  1  0
 18 37  1  0
 21 38  1  0
 22 39  1  0
 24 40  1  0
 24 41  1  0
 24 42  1  0
 25 43  1  0
M  CHG  2  11  -1  18  -1
M  END
>  <UniqueID>  (33) 
32

>  <SMILES>  (33) 
COc1cc(C)c(S(=O)(=O)[N-]Cc2ccc(S([NH-])(=O)=O)cc2)c(C)c1

>  <Energy>  (33) 
41.183925225936484

>  <Genealogy>  (33) 
COc1cc(C)c(S(=O)(=O)[N-]Cc2ccc(S([NH-])(=O)=O)cc2)c(C)c1 (protonated)
COc1cc(C)c(S(=O)(=O)[N-]Cc2ccc(S([NH-])(=O)=O)cc2)c(C)c1 (3D coordinates assigned)
COc1cc(C)c(S(=O)(=O)[N-]Cc2ccc(S([NH-])(=O)=O)cc2)c(C)c1 (optimized conformer: 41.183925225936484 kcal/mol)

>  <smiles>  (33) 
COc1cc(C)c(S(=O)(=O)NCc2ccc(S(N)(=O)=O)cc2)c(C)c1

>  <score_type>  (33) 
oracle

>  <origin>  (33) 
adg

>  <m_score__min__energy>  (33) 
-11.76

>  <m_primary>  (33) 
energy

$$$$
33:0
     RDKit          3D

 41 42  0  0  0  0  0  0  0  0999 V2000
   57.0520   34.2680   45.0220 C   0  0  0  0  0  0  0  0  0  0  0  0
   58.2020   33.9290   45.9250 C   0  0  0  0  0  0  0  0  0  0  0  0
   57.9750   33.3730   47.1950 C   0  0  0  0  0  0  0  0  0  0  0  0
   59.0520   33.0790   48.0380 C   0  0  0  0  0  0  0  0  0  0  0  0
   60.3600   33.3480   47.6240 C   0  0  0  0  0  0  0  0  0  0  0  0
   61.7450   32.9100   48.6800 S   0  0  0  0  0  0  0  0  0  0  0  0
   62.4300   31.6230   47.5690 C   0  0  0  0  0  0  0  0  0  0  0  0
   61.3650   30.6350   47.0930 C   0  0  0  0  0  0  0  0  0  0  0  0
   60.3660   30.4270   48.1340 N   0  0  0  0  0  0  0  0  0  0  0  0
   59.8830   29.1330   48.5000 C   0  0  0  0  0  0  0  0  0  0  0  0
   59.7220   28.8320   49.7140 O   0  0  0  0  0  0  0  0  0  0  0  0
   59.6610   28.1030   47.4400 C   0  0  0  0  0  0  0  0  0  0  0  0
   58.2520   27.7260   47.4210 N   0  0  0  0  0  0  0  0  0  0  0  0
   57.4120   27.8700   46.2690 C   0  0  0  0  0  0  0  0  0  0  0  0
   56.5740   26.9680   45.9980 O   0  0  0  0  0  0  0  0  0  0  0  0
   57.5050   29.0760   45.4030 C   0  0  0  0  0  0  0  0  0  0  0  0
   58.7590   29.6880   45.2010 C   0  0  0  0  0  0  0  0  0  0  0  0
   58.8850   30.7970   44.3600 C   0  0  0  0  0  0  0  0  0  0  0  0
   57.7660   31.3090   43.7040 C   0  0  0  0  0  0  0  0  0  0  0  0
   56.5160   30.7160   43.8900 C   0  0  0  0  0  0  0  0  0  0  0  0
   56.3770   29.6040   44.7300 C   0  0  0  0  0  0  0  0  0  0  0  0
   55.1160   29.0310   44.8680 O   0  0  0  0  0  0  0  0  0  0  0  0
   60.5890   33.9150   46.3660 C   0  0  0  0  0  0  0  0  0  0  0  0
   59.5150   34.2080   45.5200 C   0  0  0  0  0  0  0  0  0  0  0  0
   56.1726   34.5272   45.6298 H   0  0  0  0  0  0  0  0  0  0  0  0
   57.3243   35.1241   44.3872 H   0  0  0  0  0  0  0  0  0  0  0  0
   56.8163   33.4011   44.3872 H   0  0  0  0  0  0  0  0  0  0  0  0
   56.9467   33.1681   47.5277 H   0  0  0  0  0  0  0  0  0  0  0  0
   58.8695   32.6356   49.0280 H   0  0  0  0  0  0  0  0  0  0  0  0
   62.8733   32.1146   46.6905 H   0  0  0  0  0  0  0  0  0  0  0  0
   63.1824   31.0563   48.1371 H   0  0  0  0  0  0  0  0  0  0  0  0
   60.8741   31.0359   46.1940 H   0  0  0  0  0  0  0  0  0  0  0  0
   61.8468   29.6734   46.8624 H   0  0  0  0  0  0  0  0  0  0  0  0
   59.9438   28.5167   46.4608 H   0  0  0  0  0  0  0  0  0  0  0  0
   60.2766   27.2166   47.6531 H   0  0  0  0  0  0  0  0  0  0  0  0
   59.6479   29.2882   45.7109 H   0  0  0  0  0  0  0  0  0  0  0  0
   59.8689   31.2670   44.2152 H   0  0  0  0  0  0  0  0  0  0  0  0
   57.8683   32.1800   43.0401 H   0  0  0  0  0  0  0  0  0  0  0  0
   55.6348   31.1246   43.3737 H   0  0  0  0  0  0  0  0  0  0  0  0
   61.6175   34.1311   46.0412 H   0  0  0  0  0  0  0  0  0  0  0  0
   59.7007   34.6587   44.5339 H   0  0  0  0  0  0  0  0  0  0  0  0
  1  2  1  0
  2  3  2  0
  3  4  1  0
  4  5  2  0
  5  6  1  0
  6  7  1  0
  7  8  1  0
  8  9  1  0
  9 10  1  0
 10 11  2  0
 10 12  1  0
 12 13  1  0
 13 14  1  0
 14 15  2  0
 14 16  1  0
 16 17  2  0
 17 18  1  0
 18 19  2  0
 19 20  1  0
 20 21  2  0
 21 22  1  0
  5 23  1  0
 23 24  2  0
 24  2  1  0
 21 16  1  0
  1 25  1  0
  1 26  1  0
  1 27  1  0
  3 28  1  0
  4 29  1  0
  7 30  1  0
  7 31  1  0
  8 32  1  0
  8 33  1  0
 12 34  1  0
 12 35  1  0
 17 36  1  0
 18 37  1  0
 19 38  1  0
 20 39  1  0
 23 40  1  0
 24 41  1  0
M  CHG  3   9  -1  13  -1  22  -1
M  END
>  <UniqueID>  (34) 
33

>  <SMILES>  (34) 
Cc1ccc(SCC[N-]C(=O)C[N-]C(=O)c2ccccc2[O-])cc1

>  <Energy>  (34) 
30.20456174051683

>  <Genealogy>  (34) 
Cc1ccc(SCC[N-]C(=O)C[N-]C(=O)c2ccccc2[O-])cc1 (protonated)
Cc1ccc(SCC[N-]C(=O)C[N-]C(=O)c2ccccc2[O-])cc1 (3D coordinates assigned)
Cc1ccc(SCC[N-]C(=O)C[N-]C(=O)c2ccccc2[O-])cc1 (optimized conformer: 30.20456174051683 kcal/mol)

>  <smiles>  (34) 
Cc1ccc(SCCNC(=O)CNC(=O)c2ccccc2O)cc1

>  <score_type>  (34) 
oracle

>  <origin>  (34) 
adg

>  <m_score__min__energy>  (34) 
-14.41

>  <m_primary>  (34) 
energy

$$$$
34:0
     RDKit          3D

 38 39  0  0  0  0  0  0  0  0999 V2000
   55.1500   27.5690   45.2590 H   0  0  0  0  0  0  0  0  0  0  0  0
   55.5980   26.9930   45.9620 O   0  0  0  0  0  0  0  0  0  0  0  0
   56.9670   27.0780   46.2100 C   0  0  0  0  0  0  0  0  0  0  0  0
   57.5370   26.3660   47.2710 C   0  0  0  0  0  0  0  0  0  0  0  0
   56.9023   25.7378   47.9133 H   0  0  0  0  0  0  0  0  0  0  0  0
   58.9070   26.4500   47.5170 C   0  0  0  0  0  0  0  0  0  0  0  0
   59.3528   25.8767   48.3432 H   0  0  0  0  0  0  0  0  0  0  0  0
   59.7140   27.2610   46.7160 C   0  0  0  0  0  0  0  0  0  0  0  0
   60.7931   27.3282   46.9188 H   0  0  0  0  0  0  0  0  0  0  0  0
   59.1560   27.9930   45.6510 C   0  0  0  0  0  0  0  0  0  0  0  0
   59.9300   28.8620   44.8650 O   0  0  0  0  0  0  0  0  0  0  0  0
   61.3250   28.7060   44.6230 C   0  0  0  0  0  0  0  0  0  0  0  0
   61.8592   28.6463   45.5827 H   0  0  0  0  0  0  0  0  0  0  0  0
   61.4967   27.7831   44.0497 H   0  0  0  0  0  0  0  0  0  0  0  0
   61.6964   29.5682   44.0497 H   0  0  0  0  0  0  0  0  0  0  0  0
   57.7740   27.8750   45.3840 C   0  0  0  0  0  0  0  0  0  0  0  0
   57.1660   28.5700   44.3280 O   0  0  0  0  0  0  0  0  0  0  0  0
   56.3610   29.7040   44.4900 C   0  0  0  0  0  0  0  0  0  0  0  0
   55.2580   29.6270   45.1010 O   0  0  0  0  0  0  0  0  0  0  0  0
   56.8450   30.9950   43.9750 C   0  0  0  0  0  0  0  0  0  0  0  0
   56.1534   31.6297   43.4015 H   0  0  0  0  0  0  0  0  0  0  0  0
   58.0960   31.4250   44.1790 C   0  0  0  0  0  0  0  0  0  0  0  0
   58.9141   30.9520   43.6160 H   0  0  0  0  0  0  0  0  0  0  0  0
   58.4250   32.5110   45.1310 C   0  0  0  0  0  0  0  0  0  0  0  0
   58.7600   33.7700   44.6080 C   0  0  0  0  0  0  0  0  0  0  0  0
   58.7759   33.9206   43.5185 H   0  0  0  0  0  0  0  0  0  0  0  0
   59.0730   34.8320   45.4570 C   0  0  0  0  0  0  0  0  0  0  0  0
   59.3239   35.8167   45.0359 H   0  0  0  0  0  0  0  0  0  0  0  0
   59.0680   34.6460   46.8390 C   0  0  0  0  0  0  0  0  0  0  0  0
   59.3033   35.4876   47.5071 H   0  0  0  0  0  0  0  0  0  0  0  0
   58.7650   33.3940   47.3760 C   0  0  0  0  0  0  0  0  0  0  0  0
   58.7681   33.2533   48.4670 H   0  0  0  0  0  0  0  0  0  0  0  0
   58.4550   32.3080   46.5320 C   0  0  0  0  0  0  0  0  0  0  0  0
   58.2060   31.0260   47.0490 O   0  0  0  0  0  0  0  0  0  0  0  0
   58.9610   30.4080   48.0870 C   0  0  0  0  0  0  0  0  0  0  0  0
   58.5706   30.7276   49.0645 H   0  0  0  0  0  0  0  0  0  0  0  0
   58.8788   29.3146   47.9990 H   0  0  0  0  0  0  0  0  0  0  0  0
   60.0166   30.7046   47.9990 H   0  0  0  0  0  0  0  0  0  0  0  0
  1  2  1  0
  2  3  1  0
  3  4  2  0
  4  5  1  0
  4  6  1  0
  6  7  1  0
  6  8  2  0
  8  9  1  0
  8 10  1  0
 10 11  1  0
 11 12  1  0
 12 13  1  0
 12 14  1  0
 12 15  1  0
 10 16  2  0
 16 17  1  0
 17 18  1  0
 18 19  2  0
 18 20  1  0
 20 21  1  0
 20 22  2  0
 22 23  1  0
 22 24  1  0
 24 25  2  0
 25 26  1  0
 25 27  1  0
 27 28  1  0
 27 29  2  0
 29 30  1  0
 29 31  1  0
 31 32  1  0
 31 33  2  0
 33 34  1  0
 34 35  1  0
 35 36  1  0
 35 37  1  0
 35 38  1  0
 16  3  1  0
 33 24  1  0
M  END
>  <UniqueID>  (35) 
34

>  <SMILES>  (35) 
COc1ccccc1/C=C/C(=O)Oc1c(O)cccc1OC

>  <Energy>  (35) 
46.84917138312336

>  <Genealogy>  (35) 
COc1ccccc1/C=C/C(=O)Oc1c(O)cccc1OC (cis-trans isomerization)
COc1ccccc1/C=C/C(=O)Oc1c(O)cccc1OC (3D coordinates assigned)
COc1ccccc1/C=C/C(=O)Oc1c(O)cccc1OC (optimized conformer: 46.84917138312336 kcal/mol)

>  <smiles>  (35) 
COc1ccccc1C=CC(=O)Oc1c(O)cccc1OC

>  <score_type>  (35) 
oracle

>  <origin>  (35) 
adg

>  <m_score__min__energy>  (35) 
-7.9400000000000004

>  <m_primary>  (35) 
energy

$$$$
35:0
     RDKit          3D

 49 51  0  0  0  0  0  0  0  0999 V2000
   63.7360   31.7010   48.2020 N   0  0  0  0  0  0  0  0  0  0  0  0
   63.2640   33.3630   48.1550 S   0  0  0  0  0  0  0  0  0  0  0  0
   64.0870   34.0930   47.1330 O   0  0  0  0  0  0  0  0  0  0  0  0
   63.5000   33.9880   49.5010 O   0  0  0  0  0  0  0  0  0  0  0  0
   61.5600   33.4750   47.7290 C   0  0  0  0  0  0  0  0  0  0  0  0
   61.1830   33.9060   46.4520 C   0  0  0  0  0  0  0  0  0  0  0  0
   59.8280   33.9920   46.1080 C   0  0  0  0  0  0  0  0  0  0  0  0
   58.8370   33.6370   47.0380 C   0  0  0  0  0  0  0  0  0  0  0  0
   57.3810   33.7600   46.6770 C   0  0  0  0  0  0  0  0  0  0  0  0
   57.1230   33.6120   44.8730 S   0  0  0  0  0  0  0  0  0  0  0  0
   57.2020   31.8250   44.8540 C   0  0  0  0  0  0  0  0  0  0  0  0
   56.1060   31.0310   44.8500 N   0  0  0  0  0  0  0  0  0  0  0  0
   56.3970   29.7330   44.9160 N   0  0  0  0  0  0  0  0  0  0  0  0
   57.7240   29.4940   44.9750 C   0  0  0  0  0  0  0  0  0  0  0  0
   58.2070   28.2980   45.1040 N   0  0  0  0  0  0  0  0  0  0  0  0
   57.7710   27.1380   44.3270 C   0  0  0  0  0  0  0  0  0  0  0  0
   57.1620   26.0880   45.2580 C   0  0  0  0  0  0  0  0  0  0  0  0
   56.0800   26.6990   46.1520 C   0  0  0  0  0  0  0  0  0  0  0  0
   54.7660   26.2150   45.7400 N   0  0  0  0  0  0  0  0  0  0  0  0
   54.7630   24.4780   45.7280 S   0  0  0  0  0  0  0  0  0  0  0  0
   55.5070   23.9880   44.5160 O   0  0  0  0  0  0  0  0  0  0  0  0
   55.4610   23.9640   46.9560 O   0  0  0  0  0  0  0  0  0  0  0  0
   53.1100   23.8630   45.6740 C   0  0  0  0  0  0  0  0  0  0  0  0
   52.1630   24.4430   44.8160 C   0  0  0  0  0  0  0  0  0  0  0  0
   50.8640   23.9270   44.7540 C   0  0  0  0  0  0  0  0  0  0  0  0
   50.5080   22.8290   45.5420 C   0  0  0  0  0  0  0  0  0  0  0  0
   51.4500   22.2440   46.3930 C   0  0  0  0  0  0  0  0  0  0  0  0
   52.7490   22.7580   46.4590 C   0  0  0  0  0  0  0  0  0  0  0  0
   58.6250   30.9270   44.9340 S   0  0  0  0  0  0  0  0  0  0  0  0
   59.2220   33.2010   48.3170 C   0  0  0  0  0  0  0  0  0  0  0  0
   60.5730   33.1190   48.6590 C   0  0  0  0  0  0  0  0  0  0  0  0
   64.5180   31.5830   47.5200 H   0  0  0  0  0  0  0  0  0  0  0  0
   61.9536   34.1782   45.7158 H   0  0  0  0  0  0  0  0  0  0  0  0
   59.5386   34.3391   45.1051 H   0  0  0  0  0  0  0  0  0  0  0  0
   56.8182   32.9631   47.1851 H   0  0  0  0  0  0  0  0  0  0  0  0
   57.0291   34.7523   46.9957 H   0  0  0  0  0  0  0  0  0  0  0  0
   57.0172   27.4542   43.5910 H   0  0  0  0  0  0  0  0  0  0  0  0
   58.6376   26.7030   43.8076 H   0  0  0  0  0  0  0  0  0  0  0  0
   56.7152   25.2868   44.6511 H   0  0  0  0  0  0  0  0  0  0  0  0
   57.9601   25.6893   45.9014 H   0  0  0  0  0  0  0  0  0  0  0  0
   56.2641   26.4102   47.1973 H   0  0  0  0  0  0  0  0  0  0  0  0
   56.1087   27.7947   46.0593 H   0  0  0  0  0  0  0  0  0  0  0  0
   52.4423   25.3044   44.1915 H   0  0  0  0  0  0  0  0  0  0  0  0
   50.1220   24.3861   44.0842 H   0  0  0  0  0  0  0  0  0  0  0  0
   49.4861   22.4250   45.4925 H   0  0  0  0  0  0  0  0  0  0  0  0
   51.1694   21.3786   47.0113 H   0  0  0  0  0  0  0  0  0  0  0  0
   53.4892   22.2947   47.1279 H   0  0  0  0  0  0  0  0  0  0  0  0
   58.4540   32.9225   49.0536 H   0  0  0  0  0  0  0  0  0  0  0  0
   60.8643   32.7738   49.6620 H   0  0  0  0  0  0  0  0  0  0  0  0
  1  2  1  0
  2  3  2  0
  2  4  2  0
  2  5  1  0
  5  6  2  0
  6  7  1  0
  7  8  2  0
  8  9  1  0
  9 10  1  0
 10 11  1  0
 11 12  2  0
 12 13  1  0
 13 14  1  0
 14 15  2  3
 15 16  1  0
 16 17  1  0
 17 18  1  0
 18 19  1  0
 19 20  1  0
 20 21  2  0
 20 22  2  0
 20 23  1  0
 23 24  2  0
 24 25  1  0
 25 26  2  0
 26 27  1  0
 27 28  2  0
 14 29  1  0
  8 30  1  0
 30 31  2  0
 31  5  1  0
 29 11  1  0
 28 23  1  0
  1 32  1  0
  6 33  1  0
  7 34  1  0
  9 35  1  0
  9 36  1  0
 16 37  1  0
 16 38  1  0
 17 39  1  0
 17 40  1  0
 18 41  1  0
 18 42  1  0
 24 43  1  0
 25 44  1  0
 26 45  1  0
 27 46  1  0
 28 47  1  0
 30 48  1  0
 31 49  1  0
M  CHG  3   1  -1  13  -1  19  -1
M  END
>  <UniqueID>  (36) 
35

>  <SMILES>  (36) 
[NH-]S(=O)(=O)c1ccc(CSc2n[n-]c(=NCCC[N-]S(=O)(=O)c3ccccc3)s2)cc1

>  <Energy>  (36) 
73.23950902560149

>  <Genealogy>  (36) 
[NH-]S(=O)(=O)c1ccc(CSc2n[n-]c(=NCCC[N-]S(=O)(=O)c3ccccc3)s2)cc1 (protonated)
[NH-]S(=O)(=O)c1ccc(CSc2n[n-]c(=NCCC[N-]S(=O)(=O)c3ccccc3)s2)cc1 (3D coordinates assigned)
[NH-]S(=O)(=O)c1ccc(CSc2n[n-]c(=NCCC[N-]S(=O)(=O)c3ccccc3)s2)cc1 (optimized conformer: 73.23950902560149 kcal/mol)

>  <smiles>  (36) 
NS(=O)(=O)c1ccc(CSc2n[nH]c(=NCCCNS(=O)(=O)c3ccccc3)s2)cc1

>  <score_type>  (36) 
oracle

>  <origin>  (36) 
adg

>  <m_score__min__energy>  (36) 
-13.85

>  <m_primary>  (36) 
energy

$$$$
36:0
     RDKit          3D

 30 32  0  0  0  0  0  0  0  0999 V2000
   58.3348   28.0517   47.6693 H   0  0  0  0  0  0  0  0  0  0  0  0
   58.1580   28.7940   46.8770 C   0  0  0  0  0  0  0  0  0  0  0  0
   58.2130   30.0800   47.0600 N   0  0  0  0  0  0  0  0  0  0  0  0
   57.9250   30.6710   45.7980 C   0  0  0  0  0  0  0  0  0  0  0  0
   57.8700   32.0010   45.5390 N   0  0  0  0  0  0  0  0  0  0  0  0
   57.5660   32.4250   44.2760 C   0  0  0  0  0  0  0  0  0  0  0  0
   57.5196   33.5021   44.0578 H   0  0  0  0  0  0  0  0  0  0  0  0
   57.3110   31.4900   43.2490 C   0  0  0  0  0  0  0  0  0  0  0  0
   57.0691   31.8380   42.2339 H   0  0  0  0  0  0  0  0  0  0  0  0
   57.3670   30.1150   43.5270 C   0  0  0  0  0  0  0  0  0  0  0  0
   57.1700   29.3655   42.7463 H   0  0  0  0  0  0  0  0  0  0  0  0
   57.6820   29.7370   44.8310 C   0  0  0  0  0  0  0  0  0  0  0  0
   57.8300   28.4480   45.4790 C   0  0  0  0  0  0  0  0  0  0  0  0
   57.6270   27.2430   44.9340 C   0  0  0  0  0  0  0  0  0  0  0  0
   57.8375   27.1142   43.8620 H   0  0  0  0  0  0  0  0  0  0  0  0
   57.1360   26.0780   45.6940 C   0  0  0  0  0  0  0  0  0  0  0  0
   55.8580   25.8710   46.1780 C   0  0  0  0  0  0  0  0  0  0  0  0
   54.7710   26.7160   45.9970 O   0  0  0  0  0  0  0  0  0  0  0  0
   55.8070   24.7450   46.9160 N   0  0  0  0  0  0  0  0  0  0  0  0
   57.0790   24.2950   46.8760 C   0  0  0  0  0  0  0  0  0  0  0  0
   57.4520   23.2510   47.4740 O   0  0  0  0  0  0  0  0  0  0  0  0
   57.9110   25.0750   46.1510 N   0  0  0  0  0  0  0  0  0  0  0  0
   59.3540   24.9040   45.9740 C   0  0  0  0  0  0  0  0  0  0  0  0
   59.5977   24.9469   44.9022 H   0  0  0  0  0  0  0  0  0  0  0  0
   59.6565   23.9296   46.3852 H   0  0  0  0  0  0  0  0  0  0  0  0
   60.0910   25.9970   46.6970 C   0  0  0  0  0  0  0  0  0  0  0  0
   60.0875   26.0065   47.7970 H   0  0  0  0  0  0  0  0  0  0  0  0
   60.7500   26.9570   46.0420 C   0  0  0  0  0  0  0  0  0  0  0  0
   61.2789   27.7419   46.6026 H   0  0  0  0  0  0  0  0  0  0  0  0
   60.7637   26.9625   44.9421 H   0  0  0  0  0  0  0  0  0  0  0  0
  1  2  1  0
  2  3  2  0
  3  4  1  0
  4  5  2  0
  5  6  1  0
  6  7  1  0
  6  8  2  0
  8  9  1  0
  8 10  1  0
 10 11  1  0
 10 12  2  0
 12 13  1  0
 13 14  2  0
 14 15  1  0
 14 16  1  0
 16 17  2  0
 17 18  1  0
 17 19  1  0
 19 20  1  0
 20 21  2  0
 20 22  1  0
 22 23  1  0
 23 24  1  0
 23 25  1  0
 23 26  1  0
 26 27  1  0
 26 28  2  0
 28 29  1  0
 28 30  1  0
 13  2  1  0
 22 16  1  0
 12  4  1  0
M  CHG  2  18  -1  19  -1
M  END
>  <UniqueID>  (37) 
36

>  <SMILES>  (37) 
C=CCn1c(/C=C2\C=Nc3ncccc32)c([O-])[n-]c1=O

>  <Energy>  (37) 
99.14213277530402

>  <Genealogy>  (37) 
C=CCn1c(C=C2C=Nc3ncccc32)c([O-])[n-]c1=O (protonated)
C=CCn1c(/C=C2\C=Nc3ncccc32)c([O-])[n-]c1=O (cis-trans isomerization)
C=CCn1c(/C=C2\C=Nc3ncccc32)c([O-])[n-]c1=O (3D coordinates assigned)
C=CCn1c(/C=C2\C=Nc3ncccc32)c([O-])[n-]c1=O (nonaromatic ring conformer: 99.14213277530402 kcal/mol)

>  <smiles>  (37) 
C=CCn1c(C=C2C=Nc3ncccc32)c(O)[nH]c1=O

>  <score_type>  (37) 
oracle

>  <origin>  (37) 
adg

>  <m_score__min__energy>  (37) 
-12.43

>  <m_primary>  (37) 
energy

$$$$
37:0
     RDKit          3D

 27 28  0  0  0  0  0  0  0  0999 V2000
   62.4270   33.8250   46.7540 C   0  0  0  0  0  0  0  0  0  0  0  0
   61.1330   33.7010   47.9710 S   0  0  0  0  0  0  0  0  0  0  0  0
   61.4730   34.6150   49.1150 O   0  0  0  0  0  0  0  0  0  0  0  0
   61.0360   32.2930   48.4880 O   0  0  0  0  0  0  0  0  0  0  0  0
   59.6120   34.1880   47.2860 N   0  0  0  0  0  0  0  0  0  0  0  0
   59.0470   35.3320   47.7470 O   0  0  0  0  0  0  0  0  0  0  0  0
   58.9970   33.4870   46.1860 C   0  0  0  0  0  0  0  0  0  0  0  0
   59.0960   33.9640   44.8650 C   0  0  0  0  0  0  0  0  0  0  0  0
   58.5000   33.2690   43.8090 C   0  0  0  0  0  0  0  0  0  0  0  0
   57.7980   32.0770   44.0530 C   0  0  0  0  0  0  0  0  0  0  0  0
   57.1800   31.3410   43.0270 C   0  0  0  0  0  0  0  0  0  0  0  0
   57.2410   31.7450   41.8330 O   0  0  0  0  0  0  0  0  0  0  0  0
   56.5120   30.1850   43.3240 N   0  0  0  0  0  0  0  0  0  0  0  0
   55.8970   29.4460   42.3310 O   0  0  0  0  0  0  0  0  0  0  0  0
   56.4400   29.7390   44.6130 C   0  0  0  0  0  0  0  0  0  0  0  0
   55.8230   28.6750   44.8820 O   0  0  0  0  0  0  0  0  0  0  0  0
   57.0310   30.4380   45.6150 N   0  0  0  0  0  0  0  0  0  0  0  0
   57.7050   31.5890   45.3700 C   0  0  0  0  0  0  0  0  0  0  0  0
   58.3030   32.2870   46.4240 C   0  0  0  0  0  0  0  0  0  0  0  0
   63.3990   33.9181   47.2605 H   0  0  0  0  0  0  0  0  0  0  0  0
   62.4263   32.9227   46.1249 H   0  0  0  0  0  0  0  0  0  0  0  0
   62.2550   34.7108   46.1249 H   0  0  0  0  0  0  0  0  0  0  0  0
   59.5300   35.5310   48.5890 H   0  0  0  0  0  0  0  0  0  0  0  0
   59.6482   34.8934   44.6619 H   0  0  0  0  0  0  0  0  0  0  0  0
   58.5810   33.6569   42.7829 H   0  0  0  0  0  0  0  0  0  0  0  0
   55.3440   28.6220   42.5360 H   0  0  0  0  0  0  0  0  0  0  0  0
   58.2299   31.8939   47.4487 H   0  0  0  0  0  0  0  0  0  0  0  0
  1  2  1  0
  2  3  2  0
  2  4  2  0
  2  5  1  0
  5  6  1  0
  5  7  1  0
  7  8  2  0
  8  9  1  0
  9 10  2  0
 10 11  1  0
 11 12  2  0
 11 13  1  0
 13 14  1  0
 13 15  1  0
 15 16  2  0
 15 17  1  0
 17 18  1  0
 18 19  2  0
 19  7  1  0
 18 10  1  0
  1 20  1  0
  1 21  1  0
  1 22  1  0
  6 23  1  0
  8 24  1  0
  9 25  1  0
 14 26  1  0
 19 27  1  0
M  CHG  1  17  -1
M  END
>  <UniqueID>  (38) 
37

>  <SMILES>  (38) 
CS(=O)(=O)N(O)c1ccc2c(=O)n(O)c(=O)[n-]c2c1

>  <Energy>  (38) 
32.711425046068484

>  <Genealogy>  (38) 
CS(=O)(=O)N(O)c1ccc2c(=O)n(O)c(=O)[n-]c2c1 (protonated)
CS(=O)(=O)N(O)c1ccc2c(=O)n(O)c(=O)[n-]c2c1 (3D coordinates assigned)
CS(=O)(=O)N(O)c1ccc2c(=O)n(O)c(=O)[n-]c2c1 (optimized conformer: 32.711425046068484 kcal/mol)

>  <smiles>  (38) 
CS(=O)(=O)N(O)c1ccc2c(=O)n(O)c(=O)[nH]c2c1

>  <score_type>  (38) 
oracle

>  <origin>  (38) 
adg

>  <m_score__min__energy>  (38) 
-8.6400000000000006

>  <m_primary>  (38) 
energy

$$$$
38:0
     RDKit          3D

 42 44  0  0  0  0  0  0  0  0999 V2000
   59.0630   26.0580   48.2060 O   0  0  0  0  0  0  0  0  0  0  0  0
   58.2730   26.4130   47.2890 C   0  0  0  0  0  0  0  0  0  0  0  0
   56.9470   25.8660   47.2450 N   0  0  0  0  0  0  0  0  0  0  0  0
   56.4330   25.0210   46.3920 C   0  0  0  0  0  0  0  0  0  0  0  0
   57.1070   23.8570   46.1750 N   0  0  0  0  0  0  0  0  0  0  0  0
   56.6810   22.9150   45.2940 C   0  0  0  0  0  0  0  0  0  0  0  0
   55.5070   23.1180   44.5720 C   0  0  0  0  0  0  0  0  0  0  0  0
   54.7680   24.2800   44.7860 C   0  0  0  0  0  0  0  0  0  0  0  0
   55.2080   25.2350   45.7070 C   0  0  0  0  0  0  0  0  0  0  0  0
   54.3940   26.3330   45.9570 O   0  0  0  0  0  0  0  0  0  0  0  0
   58.6750   27.4880   46.3460 C   0  0  0  0  0  0  0  0  0  0  0  0
   57.7240   28.4400   45.9240 C   0  0  0  0  0  0  0  0  0  0  0  0
   58.0720   29.4520   45.0200 C   0  0  0  0  0  0  0  0  0  0  0  0
   56.8560   30.6030   44.4630 S   0  0  0  0  0  0  0  0  0  0  0  0
   56.9200   30.7050   42.9630 O   0  0  0  0  0  0  0  0  0  0  0  0
   55.4890   30.1030   44.8360 O   0  0  0  0  0  0  0  0  0  0  0  0
   57.1020   32.1850   45.1670 N   0  0  0  0  0  0  0  0  0  0  0  0
   57.7360   33.0940   44.1840 C   0  0  0  0  0  0  0  0  0  0  0  0
   58.3420   34.3220   44.8670 C   0  0  0  0  0  0  0  0  0  0  0  0
   59.4580   33.9160   45.8480 C   0  0  0  0  0  0  0  0  0  0  0  0
   59.2850   32.4840   46.3840 C   0  0  0  0  0  0  0  0  0  0  0  0
   57.8020   32.0990   46.4730 C   0  0  0  0  0  0  0  0  0  0  0  0
   59.3870   29.5330   44.5460 C   0  0  0  0  0  0  0  0  0  0  0  0
   60.3410   28.6040   44.9620 C   0  0  0  0  0  0  0  0  0  0  0  0
   59.9940   27.5840   45.8540 C   0  0  0  0  0  0  0  0  0  0  0  0
   60.9570   26.7090   46.2390 F   0  0  0  0  0  0  0  0  0  0  0  0
   57.2626   21.9924   45.1507 H   0  0  0  0  0  0  0  0  0  0  0  0
   55.1671   22.3695   43.8411 H   0  0  0  0  0  0  0  0  0  0  0  0
   53.8348   24.4463   44.2279 H   0  0  0  0  0  0  0  0  0  0  0  0
   56.6952   28.3872   46.3098 H   0  0  0  0  0  0  0  0  0  0  0  0
   58.5322   32.5496   43.6551 H   0  0  0  0  0  0  0  0  0  0  0  0
   56.9625   33.4362   43.4807 H   0  0  0  0  0  0  0  0  0  0  0  0
   58.7628   34.9888   44.1000 H   0  0  0  0  0  0  0  0  0  0  0  0
   57.5494   34.8346   45.4318 H   0  0  0  0  0  0  0  0  0  0  0  0
   60.4251   33.9828   45.3281 H   0  0  0  0  0  0  0  0  0  0  0  0
   59.4103   34.6007   46.7076 H   0  0  0  0  0  0  0  0  0  0  0  0
   59.7974   31.7837   45.7079 H   0  0  0  0  0  0  0  0  0  0  0  0
   59.7181   32.4359   47.3940 H   0  0  0  0  0  0  0  0  0  0  0  0
   57.7296   31.0654   46.8423 H   0  0  0  0  0  0  0  0  0  0  0  0
   57.3166   32.8131   47.1546 H   0  0  0  0  0  0  0  0  0  0  0  0
   59.6687   30.3314   43.8437 H   0  0  0  0  0  0  0  0  0  0  0  0
   61.3724   28.6741   44.5862 H   0  0  0  0  0  0  0  0  0  0  0  0
  1  2  2  0
  2  3  1  0
  3  4  2  3
  4  5  1  0
  5  6  1  0
  6  7  2  0
  7  8  1  0
  8  9  2  0
  9 10  1  0
  2 11  1  0
 11 12  2  0
 12 13  1  0
 13 14  1  0
 14 15  2  0
 14 16  2  0
 14 17  1  0
 17 18  1  0
 18 19  1  0
 19 20  1  0
 20 21  1  0
 21 22  1  0
 13 23  2  0
 23 24  1  0
 24 25  2  0
 25 26  1  0
  9  4  1  0
 25 11  1  0
 22 17  1  0
  6 27  1  0
  7 28  1  0
  8 29  1  0
 12 30  1  0
 18 31  1  0
 18 32  1  0
 19 33  1  0
 19 34  1  0
 20 35  1  0
 20 36  1  0
 21 37  1  0
 21 38  1  0
 22 39  1  0
 22 40  1  0
 23 41  1  0
 24 42  1  0
M  CHG  2   5  -1  10  -1
M  END
>  <UniqueID>  (39) 
38

>  <SMILES>  (39) 
O=C(N=c1[n-]cccc1[O-])c1cc(S(=O)(=O)N2CCCCC2)ccc1F

>  <Energy>  (39) 
62.91306409411653

>  <Genealogy>  (39) 
O=C(N=c1[n-]cccc1[O-])c1cc(S(=O)(=O)N2CCCCC2)ccc1F (protonated)
O=C(N=c1[n-]cccc1[O-])c1cc(S(=O)(=O)N2CCCCC2)ccc1F (3D coordinates assigned)
O=C(N=c1[n-]cccc1[O-])c1cc(S(=O)(=O)N2CCCCC2)ccc1F (nonaromatic ring conformer: 62.91306409411653 kcal/mol)

>  <smiles>  (39) 
O=C(N=c1[nH]cccc1O)c1cc(S(=O)(=O)N2CCCCC2)ccc1F

>  <score_type>  (39) 
oracle

>  <origin>  (39) 
adg

>  <m_score__min__energy>  (39) 
-14.359999999999999

>  <m_primary>  (39) 
energy

$$$$
39:0
     RDKit          3D

 63 65  0  0  0  0  0  0  0  0999 V2000
   58.1560   22.1390   44.4610 C   0  0  0  0  0  0  0  0  0  0  0  0
   56.6750   22.5730   43.4900 S   0  0  0  0  0  0  0  0  0  0  0  0
   56.7080   24.3650   43.8640 C   0  0  0  0  0  0  0  0  0  0  0  0
   57.7230   24.7230   44.9640 C   0  0  0  0  0  0  0  0  0  0  0  0
   57.0800   25.3310   46.2290 C   0  0  1  0  0  0  0  0  0  0  0  0
   57.4580   26.7420   46.3490 N   0  0  0  0  0  0  0  0  0  0  0  0
   57.6220   27.5950   45.2070 C   0  0  0  0  0  0  0  0  0  0  0  0
   57.5060   27.1240   44.0420 O   0  0  0  0  0  0  0  0  0  0  0  0
   57.9770   29.0470   45.3960 C   0  0  1  0  0  0  0  0  0  0  0  0
   56.9410   29.9680   44.7210 C   0  0  0  0  0  0  0  0  0  0  0  0
   57.5190   31.2980   44.3200 C   0  0  0  0  0  0  0  0  0  0  0  0
   57.7870   31.7280   43.0230 C   0  0  0  0  0  0  0  0  0  0  0  0
   58.3770   32.9450   43.0400 N   0  0  0  0  0  0  0  0  0  0  0  0
   58.4890   33.2850   44.3360 C   0  0  0  0  0  0  0  0  0  0  0  0
   59.0570   34.4470   44.8580 C   0  0  0  0  0  0  0  0  0  0  0  0
   59.0870   34.5910   46.2570 C   0  0  0  0  0  0  0  0  0  0  0  0
   58.5550   33.5850   47.0930 C   0  0  0  0  0  0  0  0  0  0  0  0
   57.9880   32.4240   46.5360 C   0  0  0  0  0  0  0  0  0  0  0  0
   57.9760   32.3060   45.1470 C   0  0  0  0  0  0  0  0  0  0  0  0
   58.0980   29.3450   46.8220 N   0  0  0  0  0  0  0  0  0  0  0  0
   59.1940   28.9230   47.6370 C   0  0  0  0  0  0  0  0  0  0  0  0
   58.9700   28.1910   48.6370 O   0  0  0  0  0  0  0  0  0  0  0  0
   60.5320   29.3200   47.3180 N   0  0  0  0  0  0  0  0  0  0  0  0
   60.8570   30.6350   46.7860 C   0  0  0  0  0  0  0  0  0  0  0  0
   61.8900   31.2840   47.6600 C   0  0  0  0  0  0  0  0  0  0  0  0
   61.9600   30.9810   49.0280 C   0  0  0  0  0  0  0  0  0  0  0  0
   62.9110   31.6030   49.8410 C   0  0  0  0  0  0  0  0  0  0  0  0
   63.7900   32.5540   49.3020 C   0  0  0  0  0  0  0  0  0  0  0  0
   64.8430   33.1900   50.1670 C   0  0  0  0  0  0  0  0  0  0  0  0
   66.1690   32.7820   49.7150 N   0  0  0  0  0  0  0  0  0  0  0  0
   63.7180   32.8620   47.9340 C   0  0  0  0  0  0  0  0  0  0  0  0
   62.7680   32.2380   47.1210 C   0  0  0  0  0  0  0  0  0  0  0  0
   55.5830   25.2270   46.1930 C   0  0  0  0  0  0  0  0  0  0  0  0
   55.0210   24.1110   46.3560 O   0  0  0  0  0  0  0  0  0  0  0  0
   54.8070   26.3620   45.9880 O   0  0  0  0  0  0  0  0  0  0  0  0
   57.9238   22.2070   45.5341 H   0  0  0  0  0  0  0  0  0  0  0  0
   58.4662   21.1122   44.2174 H   0  0  0  0  0  0  0  0  0  0  0  0
   58.9714   22.8360   44.2174 H   0  0  0  0  0  0  0  0  0  0  0  0
   56.9752   24.9111   42.9473 H   0  0  0  0  0  0  0  0  0  0  0  0
   55.7092   24.6470   44.2286 H   0  0  0  0  0  0  0  0  0  0  0  0
   58.2590   23.8070   45.2531 H   0  0  0  0  0  0  0  0  0  0  0  0
   58.3936   25.4879   44.5454 H   0  0  0  0  0  0  0  0  0  0  0  0
   57.4476   24.7623   47.0959 H   0  0  0  0  0  0  0  0  0  0  0  0
   57.6960   27.1220   47.2920 H   0  0  0  0  0  0  0  0  0  0  0  0
   58.9460   29.2379   44.9117 H   0  0  0  0  0  0  0  0  0  0  0  0
   56.5573   29.4655   43.8209 H   0  0  0  0  0  0  0  0  0  0  0  0
   56.1419   30.1603   45.4520 H   0  0  0  0  0  0  0  0  0  0  0  0
   57.5518   31.1578   42.1122 H   0  0  0  0  0  0  0  0  0  0  0  0
   58.6930   33.4980   42.2120 H   0  0  0  0  0  0  0  0  0  0  0  0
   59.4678   35.2249   44.1977 H   0  0  0  0  0  0  0  0  0  0  0  0
   59.5284   35.4944   46.7032 H   0  0  0  0  0  0  0  0  0  0  0  0
   58.5840   33.7097   48.1855 H   0  0  0  0  0  0  0  0  0  0  0  0
   57.5675   31.6345   47.1762 H   0  0  0  0  0  0  0  0  0  0  0  0
   61.2531   30.5304   45.7651 H   0  0  0  0  0  0  0  0  0  0  0  0
   59.9502   31.2573   46.7642 H   0  0  0  0  0  0  0  0  0  0  0  0
   61.2626   30.2499   49.4629 H   0  0  0  0  0  0  0  0  0  0  0  0
   62.9707   31.3457   50.9088 H   0  0  0  0  0  0  0  0  0  0  0  0
   64.7562   34.2846   50.1021 H   0  0  0  0  0  0  0  0  0  0  0  0
   64.6999   32.8671   51.2088 H   0  0  0  0  0  0  0  0  0  0  0  0
   66.8660   33.4230   50.1570 H   0  0  0  0  0  0  0  0  0  0  0  0
   66.2280   32.9440   48.6830 H   0  0  0  0  0  0  0  0  0  0  0  0
   64.4120   33.5972   47.5006 H   0  0  0  0  0  0  0  0  0  0  0  0
   62.7077   32.4955   46.0533 H   0  0  0  0  0  0  0  0  0  0  0  0
  1  2  1  0
  2  3  1  0
  3  4  1  0
  4  5  1  0
  5  6  1  0
  6  7  1  0
  7  8  2  0
  7  9  1  0
  9 10  1  0
 10 11  1  0
 11 12  2  0
 12 13  1  0
 13 14  1  0
 14 15  2  0
 15 16  1  0
 16 17  2  0
 17 18  1  0
 18 19  2  0
  9 20  1  0
 20 21  1  0
 21 22  2  0
 21 23  1  0
 23 24  1  0
 24 25  1  0
 25 26  2  0
 26 27  1  0
 27 28  2  0
 28 29  1  0
 29 30  1  0
 28 31  1  0
 31 32  2  0
  5 33  1  0
 33 34  2  0
 33 35  1  0
 19 11  1  0
 32 25  1  0
 19 14  1  0
  1 36  1  0
  1 37  1  0
  1 38  1  0
  3 39  1  0
  3 40  1  0
  4 41  1  0
  4 42  1  0
  5 43  1  1
  6 44  1  0
  9 45  1  6
 10 46  1  0
 10 47  1  0
 12 48  1  0
 13 49  1  0
 15 50  1  0
 16 51  1  0
 17 52  1  0
 18 53  1  0
 24 54  1  0
 24 55  1  0
 26 56  1  0
 27 57  1  0
 29 58  1  0
 29 59  1  0
 30 60  1  0
 30 61  1  0
 31 62  1  0
 32 63  1  0
M  CHG  3  20  -1  23  -1  35  -1
M  END
>  <UniqueID>  (40) 
39

>  <SMILES>  (40) 
CSCC[C@@H](NC(=O)[C@@H](Cc1c[nH]c2ccccc12)[N-]C(=O)[N-]Cc1ccc(CN)cc1)C(=O)[O-]

>  <Energy>  (40) 
79.2972639229198

>  <Genealogy>  (40) 
CSCCC(NC(=O)C(Cc1c[nH]c2ccccc12)[N-]C(=O)[N-]Cc1ccc(CN)cc1)C(=O)[O-] (protonated)
CSCC[C@@H](NC(=O)[C@@H](Cc1c[nH]c2ccccc12)[N-]C(=O)[N-]Cc1ccc(CN)cc1)C(=O)[O-] (chirality)
CSCC[C@@H](NC(=O)[C@@H](Cc1c[nH]c2ccccc12)[N-]C(=O)[N-]Cc1ccc(CN)cc1)C(=O)[O-] (3D coordinates assigned)
CSCC[C@@H](NC(=O)[C@@H](Cc1c[nH]c2ccccc12)[N-]C(=O)[N-]Cc1ccc(CN)cc1)C(=O)[O-] (optimized conformer: 79.2972639229198 kcal/mol)

>  <smiles>  (40) 
CSCCC(NC(=O)C(Cc1c[nH]c2ccccc12)NC(=O)NCc1ccc(CN)cc1)C(=O)O

>  <score_type>  (40) 
oracle

>  <origin>  (40) 
adg

>  <m_score__min__energy>  (40) 
-15.380000000000001

>  <m_primary>  (40) 
energy

$$$$
40:0
     RDKit          3D

 24 24  0  0  1  0  0  0  0  0999 V2000
   56.6220   30.0140   43.0840 C   0  0  0  0  0  0  0  0  0  0  0  0
   56.3310   29.3470   44.2020 C   0  0  0  0  0  0  0  0  0  0  0  0
   55.0410   29.4500   44.6920 O   0  0  0  0  0  0  0  0  0  0  0  0
   57.3440   28.5210   44.9080 C   0  0  1  0  0  0  0  0  0  0  0  0
   56.9710   28.4170   46.2350 O   0  0  0  0  0  0  0  0  0  0  0  0
   57.3540   27.1730   44.3520 N   0  0  0  0  0  0  0  0  0  0  0  0
   57.2710   26.0190   45.1820 C   0  0  0  0  0  0  0  0  0  0  0  0
   58.3100   25.1160   45.1630 C   0  0  0  0  0  0  0  0  0  0  0  0
   58.1980   23.9950   45.9860 C   0  0  0  0  0  0  0  0  0  0  0  0
   57.0770   23.8260   46.7780 C   0  0  0  0  0  0  0  0  0  0  0  0
   57.0250   22.8000   47.5010 O   0  0  0  0  0  0  0  0  0  0  0  0
   56.0720   24.7100   46.7870 N   0  0  0  0  0  0  0  0  0  0  0  0
   56.1670   25.8030   45.9930 C   0  0  0  0  0  0  0  0  0  0  0  0
   55.1380   26.7260   45.9920 O   0  0  0  0  0  0  0  0  0  0  0  0
   57.6353   29.9603   42.6594 H   0  0  0  0  0  0  0  0  0  0  0  0
   55.8486   30.6178   42.5867 H   0  0  0  0  0  0  0  0  0  0  0  0
   54.7670   28.9180   45.5190 H   0  0  0  0  0  0  0  0  0  0  0  0
   58.3349   28.9862   44.7995 H   0  0  0  0  0  0  0  0  0  0  0  0
   56.0020   28.3620   46.3230 H   0  0  0  0  0  0  0  0  0  0  0  0
   57.4220   27.0440   43.3180 H   0  0  0  0  0  0  0  0  0  0  0  0
   59.1924   25.2719   44.5250 H   0  0  0  0  0  0  0  0  0  0  0  0
   59.0022   23.2448   46.0049 H   0  0  0  0  0  0  0  0  0  0  0  0
   55.2290   24.5660   47.3940 H   0  0  0  0  0  0  0  0  0  0  0  0
   55.1680   27.4610   45.3020 H   0  0  0  0  0  0  0  0  0  0  0  0
  1  2  2  0
  2  3  1  0
  2  4  1  0
  4  5  1  0
  4  6  1  0
  6  7  1  0
  7  8  1  0
  8  9  2  0
  9 10  1  0
 10 11  2  0
 10 12  1  0
 12 13  1  0
 13 14  1  0
 13  7  2  0
  1 15  1  0
  1 16  1  0
  3 17  1  0
  4 18  1  1
  5 19  1  0
  6 20  1  0
  8 21  1  0
  9 22  1  0
 12 23  1  0
 14 24  1  0
M  END
>  <smiles>  (41) 
C=C(O)C(O)Nc1ccc(=O)[nH]c1O

>  <score_type>  (41) 
oracle

>  <origin>  (41) 
adg

>  <m_score__min__energy>  (41) 
-6.71

>  <m_primary>  (41) 
energy

$$$$
41:0
     RDKit          3D

 65 69  0  0  0  0  0  0  0  0999 V2000
   60.6140   34.0520   49.7120 O   0  0  0  0  0  0  0  0  0  0  0  0
   59.9400   32.9980   49.5670 C   0  0  0  0  0  0  0  0  0  0  0  0
   59.7990   32.1150   50.6880 N   0  0  0  0  0  0  0  0  0  0  0  0
   58.5690   31.6120   51.2270 C   0  0  0  0  0  0  0  0  0  0  0  0
   57.4920   32.4610   51.5310 C   0  0  0  0  0  0  0  0  0  0  0  0
   56.3030   31.9350   52.0460 C   0  0  0  0  0  0  0  0  0  0  0  0
   56.1870   30.5590   52.2910 C   0  0  0  0  0  0  0  0  0  0  0  0
   54.6970   29.9030   52.9620 S   0  0  0  0  0  0  0  0  0  0  0  0
   54.4890   30.4280   54.3540 O   0  0  0  0  0  0  0  0  0  0  0  0
   54.7830   28.4030   53.0360 O   0  0  0  0  0  0  0  0  0  0  0  0
   53.3560   30.3840   51.9690 N   0  0  0  0  0  0  0  0  0  0  0  0
   52.2730   30.9390   52.4260 C   0  0  0  0  0  0  0  0  0  0  0  0
   51.5450   30.3000   53.4380 C   0  0  0  0  0  0  0  0  0  0  0  0
   50.3810   30.9000   53.9290 C   0  0  0  0  0  0  0  0  0  0  0  0
   49.9530   32.1220   53.4020 C   0  0  0  0  0  0  0  0  0  0  0  0
   50.7020   32.7310   52.3930 C   0  0  0  0  0  0  0  0  0  0  0  0
   51.8340   32.1340   51.9330 N   0  0  0  0  0  0  0  0  0  0  0  0
   57.2790   29.7180   52.0350 C   0  0  0  0  0  0  0  0  0  0  0  0
   58.4620   30.2440   51.5070 C   0  0  0  0  0  0  0  0  0  0  0  0
   59.4300   32.6370   48.2720 N   0  0  0  0  0  0  0  0  0  0  0  0
   59.4350   33.5100   47.1250 C   0  0  0  0  0  0  0  0  0  0  0  0
   60.0200   34.7890   47.2100 C   0  0  0  0  0  0  0  0  0  0  0  0
   59.9500   35.6800   46.1380 C   0  0  0  0  0  0  0  0  0  0  0  0
   59.2780   35.3190   44.9720 C   0  0  0  0  0  0  0  0  0  0  0  0
   58.6710   34.0650   44.8740 C   0  0  0  0  0  0  0  0  0  0  0  0
   58.7430   33.1490   45.9380 C   0  0  0  0  0  0  0  0  0  0  0  0
   58.0680   31.8430   45.7940 C   0  0  0  0  0  0  0  0  0  0  0  0
   56.9440   31.7750   45.2280 O   0  0  0  0  0  0  0  0  0  0  0  0
   58.7350   30.6570   46.2510 N   0  0  0  0  0  0  0  0  0  0  0  0
   58.2140   29.3210   46.2880 C   0  0  0  0  0  0  0  0  0  0  0  0
   58.6370   28.3680   47.2320 C   0  0  0  0  0  0  0  0  0  0  0  0
   58.0530   27.0970   47.2590 C   0  0  0  0  0  0  0  0  0  0  0  0
   57.0570   26.7570   46.3360 C   0  0  0  0  0  0  0  0  0  0  0  0
   56.2910   25.1740   46.4230 S   0  0  0  0  0  0  0  0  0  0  0  0
   56.2670   24.6690   47.8380 O   0  0  0  0  0  0  0  0  0  0  0  0
   54.8790   25.2880   45.9260 O   0  0  0  0  0  0  0  0  0  0  0  0
   57.1620   24.0520   45.4270 N   0  0  0  0  0  0  0  0  0  0  0  0
   57.0230   22.7630   45.4980 C   0  0  0  0  0  0  0  0  0  0  0  0
   57.4210   22.0750   46.6050 N   0  0  0  0  0  0  0  0  0  0  0  0
   57.2750   20.7260   46.6820 C   0  0  0  0  0  0  0  0  0  0  0  0
   56.7090   20.0280   45.6170 C   0  0  0  0  0  0  0  0  0  0  0  0
   56.3060   20.7450   44.4910 C   0  0  0  0  0  0  0  0  0  0  0  0
   56.4700   22.0940   44.4520 N   0  0  0  0  0  0  0  0  0  0  0  0
   56.6650   27.6920   45.3680 C   0  0  0  0  0  0  0  0  0  0  0  0
   57.2480   28.9600   45.3410 C   0  0  0  0  0  0  0  0  0  0  0  0
   57.5843   33.5442   51.3632 H   0  0  0  0  0  0  0  0  0  0  0  0
   55.4556   32.6030   52.2597 H   0  0  0  0  0  0  0  0  0  0  0  0
   51.8856   29.3355   53.8426 H   0  0  0  0  0  0  0  0  0  0  0  0
   49.8037   30.4116   54.7279 H   0  0  0  0  0  0  0  0  0  0  0  0
   49.0359   32.5988   53.7782 H   0  0  0  0  0  0  0  0  0  0  0  0
   50.3766   33.6931   51.9705 H   0  0  0  0  0  0  0  0  0  0  0  0
   57.2050   28.6418   52.2500 H   0  0  0  0  0  0  0  0  0  0  0  0
   59.3152   29.5782   51.3100 H   0  0  0  0  0  0  0  0  0  0  0  0
   59.1150   31.6500   48.1390 H   0  0  0  0  0  0  0  0  0  0  0  0
   60.5383   35.0890   48.1327 H   0  0  0  0  0  0  0  0  0  0  0  0
   60.4261   36.6687   46.2137 H   0  0  0  0  0  0  0  0  0  0  0  0
   59.2255   36.0223   44.1279 H   0  0  0  0  0  0  0  0  0  0  0  0
   58.1313   33.7914   43.9554 H   0  0  0  0  0  0  0  0  0  0  0  0
   59.4294   28.6228   47.9512 H   0  0  0  0  0  0  0  0  0  0  0  0
   58.3781   26.3612   48.0092 H   0  0  0  0  0  0  0  0  0  0  0  0
   57.6028   20.1865   47.5828 H   0  0  0  0  0  0  0  0  0  0  0  0
   56.5830   18.9362   45.6635 H   0  0  0  0  0  0  0  0  0  0  0  0
   55.8561   20.2199   43.6356 H   0  0  0  0  0  0  0  0  0  0  0  0
   55.8960   27.4258   44.6278 H   0  0  0  0  0  0  0  0  0  0  0  0
   56.9457   29.6824   44.5685 H   0  0  0  0  0  0  0  0  0  0  0  0
  1  2  2  0
  2  3  1  0
  3  4  1  0
  4  5  2  0
  5  6  1  0
  6  7  2  0
  7  8  1  0
  8  9  2  0
  8 10  2  0
  8 11  1  0
 11 12  2  3
 12 13  1  0
 13 14  2  0
 14 15  1  0
 15 16  2  0
 16 17  1  0
  7 18  1  0
 18 19  2  0
  2 20  1  0
 20 21  1  0
 21 22  2  0
 22 23  1  0
 23 24  2  0
 24 25  1  0
 25 26  2  0
 26 27  1  0
 27 28  2  0
 27 29  1  0
 29 30  1  0
 30 31  2  0
 31 32  1  0
 32 33  2  0
 33 34  1  0
 34 35  2  0
 34 36  2  0
 34 37  1  0
 37 38  2  3
 38 39  1  0
 39 40  2  0
 40 41  1  0
 41 42  2  0
 42 43  1  0
 33 44  1  0
 44 45  2  0
 19  4  1  0
 26 21  1  0
 45 30  1  0
 17 12  1  0
 43 38  1  0
  5 46  1  0
  6 47  1  0
 13 48  1  0
 14 49  1  0
 15 50  1  0
 16 51  1  0
 18 52  1  0
 19 53  1  0
 20 54  1  0
 22 55  1  0
 23 56  1  0
 24 57  1  0
 25 58  1  0
 31 59  1  0
 32 60  1  0
 40 61  1  0
 41 62  1  0
 42 63  1  0
 44 64  1  0
 45 65  1  0
M  CHG  4   3  -1  17  -1  29  -1  43  -1
M  END
>  <UniqueID>  (42) 
40

>  <SMILES>  (42) 
O=C([N-]c1ccc(S(=O)(=O)N=c2cccc[n-]2)cc1)Nc1ccccc1C(=O)[N-]c1ccc(S(=O)(=O)N=c2nccc[n-]2)cc1

>  <Energy>  (42) 
96.22840112506408

>  <Genealogy>  (42) 
O=C([N-]c1ccc(S(=O)(=O)N=c2cccc[n-]2)cc1)Nc1ccccc1C(=O)[N-]c1ccc(S(=O)(=O)N=c2nccc[n-]2)cc1 (protonated)
O=C([N-]c1ccc(S(=O)(=O)N=c2cccc[n-]2)cc1)Nc1ccccc1C(=O)[N-]c1ccc(S(=O)(=O)N=c2nccc[n-]2)cc1 (3D coordinates assigned)
O=C([N-]c1ccc(S(=O)(=O)N=c2cccc[n-]2)cc1)Nc1ccccc1C(=O)[N-]c1ccc(S(=O)(=O)N=c2nccc[n-]2)cc1 (optimized conformer: 96.22840112506408 kcal/mol)

>  <smiles>  (42) 
O=C(Nc1ccc(S(=O)(=O)N=c2cccc[nH]2)cc1)Nc1ccccc1C(=O)Nc1ccc(S(=O)(=O)N=c2nccc[nH]2)cc1

>  <score_type>  (42) 
oracle

>  <origin>  (42) 
adg

>  <m_score__min__energy>  (42) 
-15.220000000000001

>  <m_primary>  (42) 
energy

$$$$
42:0
     RDKit          3D

 54 56  0  0  0  0  0  0  0  0999 V2000
   59.1200   28.4760   48.2450 C   0  0  0  0  0  0  0  0  0  0  0  0
   58.6100   29.6720   48.8240 O   0  0  0  0  0  0  0  0  0  0  0  0
   59.3360   30.5270   49.6680 C   0  0  0  0  0  0  0  0  0  0  0  0
   60.7280   30.6990   49.5270 C   0  0  0  0  0  0  0  0  0  0  0  0
   61.4310   31.6040   50.3380 C   0  0  0  0  0  0  0  0  0  0  0  0
   62.8520   31.7470   50.1560 N   0  0  0  0  0  0  0  0  0  0  0  0
   63.5960   32.6800   48.8960 S   0  0  0  0  0  0  0  0  0  0  0  0
   62.6590   34.1630   48.5890 C   0  0  0  0  0  0  0  0  0  0  0  0
   63.7050   31.8550   47.6440 O   0  0  0  0  0  0  0  0  0  0  0  0
   64.9790   33.0730   49.3370 O   0  0  0  0  0  0  0  0  0  0  0  0
   60.7210   32.3610   51.2860 C   0  0  0  0  0  0  0  0  0  0  0  0
   59.3450   32.1850   51.4430 C   0  0  0  0  0  0  0  0  0  0  0  0
   58.6520   31.2510   50.6670 C   0  0  0  0  0  0  0  0  0  0  0  0
   57.2360   31.1050   50.8720 N   0  0  0  0  0  0  0  0  0  0  0  0
   56.6750   30.3630   51.7820 C   0  0  0  0  0  0  0  0  0  0  0  0
   57.3680   29.3700   52.4010 N   0  0  0  0  0  0  0  0  0  0  0  0
   56.7970   28.5870   53.3510 C   0  0  0  0  0  0  0  0  0  0  0  0
   57.5680   27.5350   53.9480 N   0  0  0  0  0  0  0  0  0  0  0  0
   58.9730   27.7840   54.2660 C   0  0  0  0  0  0  0  0  0  0  0  0
   57.0780   26.1570   53.8900 C   0  0  0  0  0  0  0  0  0  0  0  0
   55.4640   28.8230   53.7330 C   0  0  0  0  0  0  0  0  0  0  0  0
   54.7200   27.9060   55.0950 S   0  0  0  0  0  0  0  0  0  0  0  0
   54.3610   29.4010   56.0670 C   0  0  0  0  0  0  0  0  0  0  0  0
   54.7580   29.8470   53.0740 C   0  0  0  0  0  0  0  0  0  0  0  0
   53.4240   30.1350   53.3810 O   0  0  0  0  0  0  0  0  0  0  0  0
   52.5480   30.7590   52.4860 C   0  0  0  0  0  0  0  0  0  0  0  0
   52.4190   30.2600   51.1900 C   0  0  0  0  0  0  0  0  0  0  0  0
   51.5380   30.8990   50.3140 C   0  0  0  0  0  0  0  0  0  0  0  0
   51.4050   30.4830   49.1340 O   0  0  0  0  0  0  0  0  0  0  0  0
   50.8280   31.9780   50.7340 N   0  0  0  0  0  0  0  0  0  0  0  0
   50.9600   32.4480   52.0020 C   0  0  0  0  0  0  0  0  0  0  0  0
   50.2900   33.4460   52.3750 O   0  0  0  0  0  0  0  0  0  0  0  0
   51.8110   31.8400   52.8670 N   0  0  0  0  0  0  0  0  0  0  0  0
   55.3860   30.5980   52.1320 N   0  0  0  0  0  0  0  0  0  0  0  0
   59.4169   27.7798   49.0432 H   0  0  0  0  0  0  0  0  0  0  0  0
   58.3425   28.0096   47.6221 H   0  0  0  0  0  0  0  0  0  0  0  0
   59.9948   28.7142   47.6221 H   0  0  0  0  0  0  0  0  0  0  0  0
   61.2718   30.1151   48.7698 H   0  0  0  0  0  0  0  0  0  0  0  0
   63.4950   31.3120   50.8540 H   0  0  0  0  0  0  0  0  0  0  0  0
   62.3706   34.6195   49.5474 H   0  0  0  0  0  0  0  0  0  0  0  0
   63.2731   34.8725   48.0150 H   0  0  0  0  0  0  0  0  0  0  0  0
   61.7545   33.9130   48.0150 H   0  0  0  0  0  0  0  0  0  0  0  0
   61.2527   33.0963   51.9078 H   0  0  0  0  0  0  0  0  0  0  0  0
   58.8004   32.7874   52.1849 H   0  0  0  0  0  0  0  0  0  0  0  0
   59.1033   27.8071   55.3580 H   0  0  0  0  0  0  0  0  0  0  0  0
   59.5932   26.9818   53.8396 H   0  0  0  0  0  0  0  0  0  0  0  0
   59.2797   28.7505   53.8396 H   0  0  0  0  0  0  0  0  0  0  0  0
   56.9415   25.7731   54.9117 H   0  0  0  0  0  0  0  0  0  0  0  0
   56.1159   26.1321   53.3573 H   0  0  0  0  0  0  0  0  0  0  0  0
   57.8084   25.5302   53.3573 H   0  0  0  0  0  0  0  0  0  0  0  0
   54.4180   29.1635   57.1395 H   0  0  0  0  0  0  0  0  0  0  0  0
   55.0973   30.1815   55.8246 H   0  0  0  0  0  0  0  0  0  0  0  0
   53.3506   29.7621   55.8246 H   0  0  0  0  0  0  0  0  0  0  0  0
   52.9979   29.3830   50.8649 H   0  0  0  0  0  0  0  0  0  0  0  0
  1  2  1  0
  2  3  1  0
  3  4  2  0
  4  5  1  0
  5  6  1  0
  6  7  1  0
  7  8  1  0
  7  9  2  0
  7 10  2  0
  5 11  2  0
 11 12  1  0
 12 13  2  0
 13 14  1  0
 14 15  2  3
 15 16  1  0
 16 17  2  0
 17 18  1  0
 18 19  1  0
 18 20  1  0
 17 21  1  0
 21 22  1  0
 22 23  1  0
 21 24  2  0
 24 25  1  0
 25 26  1  0
 26 27  2  0
 27 28  1  0
 28 29  2  0
 28 30  1  0
 30 31  1  0
 31 32  2  0
 31 33  1  0
 24 34  1  0
 13  3  1  0
 34 15  1  0
 33 26  1  0
  1 35  1  0
  1 36  1  0
  1 37  1  0
  4 38  1  0
  6 39  1  0
  8 40  1  0
  8 41  1  0
  8 42  1  0
 11 43  1  0
 12 44  1  0
 19 45  1  0
 19 46  1  0
 19 47  1  0
 20 48  1  0
 20 49  1  0
 20 50  1  0
 23 51  1  0
 23 52  1  0
 23 53  1  0
 27 54  1  0
M  CHG  3  30  -1  33  -1  34  -1
M  END
>  <UniqueID>  (43) 
41

>  <SMILES>  (43) 
COc1cc(NS(C)(=O)=O)ccc1N=c1nc(N(C)C)c(SC)c(Oc2cc(=O)[n-]c(=O)[n-]2)[n-]1

>  <Energy>  (43) 
69.57334372923403

>  <Genealogy>  (43) 
COc1cc(NS(C)(=O)=O)ccc1N=c1nc(N(C)C)c(SC)c(Oc2cc(=O)[n-]c(=O)[n-]2)[n-]1 (protonated)
COc1cc(NS(C)(=O)=O)ccc1N=c1nc(N(C)C)c(SC)c(Oc2cc(=O)[n-]c(=O)[n-]2)[n-]1 (3D coordinates assigned)
COc1cc(NS(C)(=O)=O)ccc1N=c1nc(N(C)C)c(SC)c(Oc2cc(=O)[n-]c(=O)[n-]2)[n-]1 (optimized conformer: 69.57334372923403 kcal/mol)

>  <smiles>  (43) 
COc1cc(NS(C)(=O)=O)ccc1N=c1nc(N(C)C)c(SC)c(Oc2cc(=O)[nH]c(=O)[nH]2)[nH]1

>  <score_type>  (43) 
oracle

>  <origin>  (43) 
adg

>  <m_score__min__energy>  (43) 
-13.369999999999999

>  <m_primary>  (43) 
energy

$$$$
43:0
     RDKit          3D

 56 59  0  0  0  0  0  0  0  0999 V2000
   56.9610   34.5620   44.8890 O   0  0  0  0  0  0  0  0  0  0  0  0
   57.7520   33.5810   44.9080 C   0  0  0  0  0  0  0  0  0  0  0  0
   57.3970   32.3870   44.1950 N   0  0  0  0  0  0  0  0  0  0  0  0
   57.3300   31.1770   44.6760 C   0  0  0  0  0  0  0  0  0  0  0  0
   58.3990   30.5880   45.3980 C   0  0  0  0  0  0  0  0  0  0  0  0
   58.2000   29.3100   45.9030 C   0  0  0  0  0  0  0  0  0  0  0  0
   59.0770   28.5520   46.5820 N   0  0  0  0  0  0  0  0  0  0  0  0
   58.4780   27.3930   46.8400 N   0  0  0  0  0  0  0  0  0  0  0  0
   57.2170   27.4230   46.3430 C   0  0  0  0  0  0  0  0  0  0  0  0
   56.3030   26.2700   46.4010 C   0  0  0  0  0  0  0  0  0  0  0  0
   56.7440   25.1780   46.8450 O   0  0  0  0  0  0  0  0  0  0  0  0
   54.9290   26.3390   45.9960 N   0  0  0  0  0  0  0  0  0  0  0  0
   54.0610   25.2220   45.6250 C   0  0  0  0  0  0  0  0  0  0  0  0
   54.8700   24.0120   45.1280 C   0  0  0  0  0  0  0  0  0  0  0  0
   54.3900   23.4660   43.7790 C   0  0  0  0  0  0  0  0  0  0  0  0
   55.5160   22.9210   43.0310 N   0  0  0  0  0  0  0  0  0  0  0  0
   56.4090   21.9350   43.5510 C   0  0  0  0  0  0  0  0  0  0  0  0
   56.2160   20.7120   43.3160 O   0  0  0  0  0  0  0  0  0  0  0  0
   57.5660   22.3610   44.3500 C   0  0  0  0  0  0  0  0  0  0  0  0
   57.9500   23.6550   44.6280 C   0  0  0  0  0  0  0  0  0  0  0  0
   59.0700   23.5440   45.4280 C   0  0  0  0  0  0  0  0  0  0  0  0
   59.3520   22.2760   45.6260 O   0  0  0  0  0  0  0  0  0  0  0  0
   58.4690   21.5380   44.9930 C   0  0  0  0  0  0  0  0  0  0  0  0
   57.0280   28.6400   45.7240 C   0  0  0  0  0  0  0  0  0  0  0  0
   55.9930   29.2030   44.9860 C   0  0  0  0  0  0  0  0  0  0  0  0
   56.1680   30.4670   44.4980 N   0  0  0  0  0  0  0  0  0  0  0  0
   59.0380   33.7020   45.5350 N   0  0  0  0  0  0  0  0  0  0  0  0
   59.4950   34.9360   46.1740 C   0  0  0  0  0  0  0  0  0  0  0  0
   60.0710   34.6660   47.5700 C   0  0  0  0  0  0  0  0  0  0  0  0
   61.1340   33.5940   47.5490 C   0  0  0  0  0  0  0  0  0  0  0  0
   62.4570   33.9070   47.1910 C   0  0  0  0  0  0  0  0  0  0  0  0
   63.4310   32.9040   47.1460 C   0  0  0  0  0  0  0  0  0  0  0  0
   63.0950   31.5850   47.4620 C   0  0  0  0  0  0  0  0  0  0  0  0
   61.7860   31.2690   47.8350 C   0  0  0  0  0  0  0  0  0  0  0  0
   60.8110   32.2690   47.8860 C   0  0  0  0  0  0  0  0  0  0  0  0
   59.3481   31.1223   45.5519 H   0  0  0  0  0  0  0  0  0  0  0  0
   53.4729   24.9205   46.5044 H   0  0  0  0  0  0  0  0  0  0  0  0
   53.4054   25.5549   44.8068 H   0  0  0  0  0  0  0  0  0  0  0  0
   55.9224   24.3154   45.0259 H   0  0  0  0  0  0  0  0  0  0  0  0
   54.7363   23.2086   45.8674 H   0  0  0  0  0  0  0  0  0  0  0  0
   53.6485   22.6718   43.9508 H   0  0  0  0  0  0  0  0  0  0  0  0
   53.9349   24.2835   43.2006 H   0  0  0  0  0  0  0  0  0  0  0  0
   57.4661   24.5813   44.2848 H   0  0  0  0  0  0  0  0  0  0  0  0
   59.6406   24.3903   45.8381 H   0  0  0  0  0  0  0  0  0  0  0  0
   58.4517   20.4382   44.9776 H   0  0  0  0  0  0  0  0  0  0  0  0
   55.0617   28.6477   44.8007 H   0  0  0  0  0  0  0  0  0  0  0  0
   59.7310   32.9310   45.4100 H   0  0  0  0  0  0  0  0  0  0  0  0
   60.2746   35.3951   45.5483 H   0  0  0  0  0  0  0  0  0  0  0  0
   58.6319   35.6095   46.2810 H   0  0  0  0  0  0  0  0  0  0  0  0
   60.5129   35.5960   47.9572 H   0  0  0  0  0  0  0  0  0  0  0  0
   59.2500   34.3159   48.2129 H   0  0  0  0  0  0  0  0  0  0  0  0
   62.7273   34.9446   46.9453 H   0  0  0  0  0  0  0  0  0  0  0  0
   64.4636   33.1541   46.8612 H   0  0  0  0  0  0  0  0  0  0  0  0
   63.8603   30.7961   47.4172 H   0  0  0  0  0  0  0  0  0  0  0  0
   61.5225   30.2316   48.0889 H   0  0  0  0  0  0  0  0  0  0  0  0
   59.7848   32.0171   48.1918 H   0  0  0  0  0  0  0  0  0  0  0  0
  1  2  2  0
  2  3  1  0
  3  4  2  3
  4  5  1  0
  5  6  2  0
  6  7  1  0
  7  8  1  0
  8  9  2  0
  9 10  1  0
 10 11  2  0
 10 12  1  0
 12 13  1  0
 13 14  1  0
 14 15  1  0
 15 16  1  0
 16 17  1  0
 17 18  2  0
 17 19  1  0
 19 20  1  0
 20 21  2  0
 21 22  1  0
 22 23  1  0
  9 24  1  0
 24 25  2  0
 25 26  1  0
  2 27  1  0
 27 28  1  0
 28 29  1  0
 29 30  1  0
 30 31  2  0
 31 32  1  0
 32 33  2  0
 33 34  1  0
 34 35  2  0
 26  4  1  0
 35 30  1  0
 24  6  1  0
 23 19  2  0
  5 36  1  0
 13 37  1  0
 13 38  1  0
 14 39  1  0
 14 40  1  0
 15 41  1  0
 15 42  1  0
 20 43  1  0
 21 44  1  0
 23 45  1  0
 25 46  1  0
 27 47  1  0
 28 48  1  0
 28 49  1  0
 29 50  1  0
 29 51  1  0
 31 52  1  0
 32 53  1  0
 33 54  1  0
 34 55  1  0
 35 56  1  0
M  CHG  4   7  -1  12  -1  16  -1  26  -1
M  END
>  <UniqueID>  (44) 
42

>  <SMILES>  (44) 
O=C(N=c1cc2[n-]nc(C(=O)[N-]CCC[N-]C(=O)c3ccoc3)c2c[n-]1)NCCc1ccccc1

>  <Energy>  (44) 
119.83934137420414

>  <Genealogy>  (44) 
O=C(N=c1cc2[n-]nc(C(=O)[N-]CCC[N-]C(=O)c3ccoc3)c2c[n-]1)NCCc1ccccc1 (protonated)
O=C(N=c1cc2[n-]nc(C(=O)[N-]CCC[N-]C(=O)c3ccoc3)c2c[n-]1)NCCc1ccccc1 (3D coordinates assigned)
O=C(N=c1cc2[n-]nc(C(=O)[N-]CCC[N-]C(=O)c3ccoc3)c2c[n-]1)NCCc1ccccc1 (optimized conformer: 119.83934137420414 kcal/mol)

>  <smiles>  (44) 
O=C(N=c1cc2[nH]nc(C(=O)NCCCNC(=O)c3ccoc3)c2c[nH]1)NCCc1ccccc1

>  <score_type>  (44) 
oracle

>  <origin>  (44) 
adg

>  <m_score__min__energy>  (44) 
-15.369999999999999

>  <m_primary>  (44) 
energy

$$$$
44:0
     RDKit          3D

 49 51  0  0  0  0  0  0  0  0999 V2000
   63.9120   33.8110   50.7810 C   0  0  0  0  0  0  0  0  0  0  0  0
   63.1820   34.5960   49.8430 O   0  0  0  0  0  0  0  0  0  0  0  0
   62.2210   34.0840   48.9600 C   0  0  0  0  0  0  0  0  0  0  0  0
   62.4850   33.8810   47.5940 C   0  0  0  0  0  0  0  0  0  0  0  0
   61.4920   33.3740   46.7540 C   0  0  0  0  0  0  0  0  0  0  0  0
   60.2180   33.0770   47.2530 C   0  0  0  0  0  0  0  0  0  0  0  0
   59.2240   32.5540   46.3580 N   0  0  0  0  0  0  0  0  0  0  0  0
   58.9200   33.1490   45.0880 C   0  0  0  0  0  0  0  0  0  0  0  0
   59.6290   34.0850   44.6310 O   0  0  0  0  0  0  0  0  0  0  0  0
   57.7670   32.6380   44.2870 C   0  0  0  0  0  0  0  0  0  0  0  0
   57.0860   31.6350   45.0340 O   0  0  0  0  0  0  0  0  0  0  0  0
   57.3360   30.2580   44.9260 C   0  0  0  0  0  0  0  0  0  0  0  0
   57.0400   29.5210   43.7640 C   0  0  0  0  0  0  0  0  0  0  0  0
   57.2990   28.2180   43.7060 O   0  0  0  0  0  0  0  0  0  0  0  0
   57.8370   27.5450   44.7210 C   0  0  0  0  0  0  0  0  0  0  0  0
   58.1200   26.0830   44.5680 C   0  0  0  0  0  0  0  0  0  0  0  0
   56.9140   25.3080   44.8480 N   0  0  0  0  0  0  0  0  0  0  0  0
   56.4630   24.1350   44.1130 C   0  0  0  0  0  0  0  0  0  0  0  0
   55.1620   23.6900   44.8260 C   0  0  0  0  0  0  0  0  0  0  0  0
   54.9820   24.6020   45.9050 O   0  0  0  0  0  0  0  0  0  0  0  0
   56.0000   25.5250   45.9010 C   0  0  0  0  0  0  0  0  0  0  0  0
   56.1040   26.4560   46.7430 O   0  0  0  0  0  0  0  0  0  0  0  0
   58.1620   28.2120   45.9100 C   0  0  0  0  0  0  0  0  0  0  0  0
   57.9060   29.5790   46.0070 C   0  0  0  0  0  0  0  0  0  0  0  0
   58.1900   30.1970   47.0680 O   0  0  0  0  0  0  0  0  0  0  0  0
   59.9520   33.2390   48.6290 C   0  0  0  0  0  0  0  0  0  0  0  0
   58.6980   32.8530   49.1300 O   0  0  0  0  0  0  0  0  0  0  0  0
   58.4760   32.3180   50.4310 C   0  0  0  0  0  0  0  0  0  0  0  0
   60.9580   33.7600   49.4670 C   0  0  0  0  0  0  0  0  0  0  0  0
   63.6348   34.1090   51.8029 H   0  0  0  0  0  0  0  0  0  0  0  0
   63.6747   32.7472   50.6322 H   0  0  0  0  0  0  0  0  0  0  0  0
   64.9902   33.9705   50.6322 H   0  0  0  0  0  0  0  0  0  0  0  0
   63.4775   34.1225   47.1858 H   0  0  0  0  0  0  0  0  0  0  0  0
   61.7126   33.2062   45.6895 H   0  0  0  0  0  0  0  0  0  0  0  0
   58.8090   31.6200   46.5740 H   0  0  0  0  0  0  0  0  0  0  0  0
   57.0764   33.4654   44.0670 H   0  0  0  0  0  0  0  0  0  0  0  0
   58.1339   32.2101   43.3424 H   0  0  0  0  0  0  0  0  0  0  0  0
   56.5907   30.0270   42.8967 H   0  0  0  0  0  0  0  0  0  0  0  0
   58.4512   25.8820   43.5385 H   0  0  0  0  0  0  0  0  0  0  0  0
   58.9086   25.7920   45.2775 H   0  0  0  0  0  0  0  0  0  0  0  0
   56.2598   24.3915   43.0628 H   0  0  0  0  0  0  0  0  0  0  0  0
   57.2211   23.3380   44.1019 H   0  0  0  0  0  0  0  0  0  0  0  0
   54.3086   23.7416   44.1339 H   0  0  0  0  0  0  0  0  0  0  0  0
   55.2284   22.6506   45.1800 H   0  0  0  0  0  0  0  0  0  0  0  0
   58.6115   27.6661   46.7525 H   0  0  0  0  0  0  0  0  0  0  0  0
   58.7820   33.0553   51.1878 H   0  0  0  0  0  0  0  0  0  0  0  0
   57.4077   32.0869   50.5551 H   0  0  0  0  0  0  0  0  0  0  0  0
   59.0668   31.3985   50.5551 H   0  0  0  0  0  0  0  0  0  0  0  0
   60.7471   33.9142   50.5355 H   0  0  0  0  0  0  0  0  0  0  0  0
  1  2  1  0
  2  3  1  0
  3  4  2  0
  4  5  1  0
  5  6  2  0
  6  7  1  0
  7  8  1  0
  8  9  2  0
  8 10  1  0
 10 11  1  0
 11 12  1  0
 12 13  2  0
 13 14  1  0
 14 15  1  0
 15 16  1  0
 16 17  1  0
 17 18  1  0
 18 19  1  0
 19 20  1  0
 20 21  1  0
 21 22  2  0
 15 23  2  0
 23 24  1  0
 24 25  2  0
  6 26  1  0
 26 27  1  0
 27 28  1  0
 26 29  2  0
 29  3  1  0
 24 12  1  0
 21 17  1  0
  1 30  1  0
  1 31  1  0
  1 32  1  0
  4 33  1  0
  5 34  1  0
  7 35  1  0
 10 36  1  0
 10 37  1  0
 13 38  1  0
 16 39  1  0
 16 40  1  0
 18 41  1  0
 18 42  1  0
 19 43  1  0
 19 44  1  0
 23 45  1  0
 28 46  1  0
 28 47  1  0
 28 48  1  0
 29 49  1  0
M  END
>  <UniqueID>  (45) 
43

>  <SMILES>  (45) 
COc1ccc(NC(=O)COc2coc(CN3CCOC3=O)cc2=O)c(OC)c1

>  <Energy>  (45) 
65.65688123026086

>  <Genealogy>  (45) 
COc1ccc(NC(=O)COc2coc(CN3CCOC3=O)cc2=O)c(OC)c1 (3D coordinates assigned)
COc1ccc(NC(=O)COc2coc(CN3CCOC3=O)cc2=O)c(OC)c1 (nonaromatic ring conformer: 65.65688123026086 kcal/mol)

>  <smiles>  (45) 
COc1ccc(NC(=O)COc2coc(CN3CCOC3=O)cc2=O)c(OC)c1

>  <score_type>  (45) 
oracle

>  <origin>  (45) 
adg

>  <m_score__min__energy>  (45) 
-6.6299999999999999

>  <m_primary>  (45) 
energy

$$$$
45:0
     RDKit          3D

 36 37  0  0  0  0  0  0  0  0999 V2000
   60.9871   29.0637   48.2892 H   0  0  0  0  0  0  0  0  0  0  0  0
   60.1630   29.2080   47.5750 C   0  0  0  0  0  0  0  0  0  0  0  0
   59.4330   30.3520   47.6060 N   0  0  0  0  0  0  0  0  0  0  0  0
   58.4090   30.5690   46.7410 C   0  0  0  0  0  0  0  0  0  0  0  0
   57.8352   31.5058   46.7966 H   0  0  0  0  0  0  0  0  0  0  0  0
   58.0790   29.6050   45.7770 C   0  0  0  0  0  0  0  0  0  0  0  0
   56.7380   29.9130   44.6630 S   0  0  0  0  0  0  0  0  0  0  0  0
   55.4560   29.3680   45.2300 O   0  0  0  0  0  0  0  0  0  0  0  0
   56.5790   31.3940   44.4600 O   0  0  0  0  0  0  0  0  0  0  0  0
   57.0520   29.1490   43.1440 N   0  0  0  0  0  0  0  0  0  0  0  0
   57.0020   28.1180   43.3070 H   0  0  0  0  0  0  0  0  0  0  0  0
   58.0400   29.3660   42.8880 H   0  0  0  0  0  0  0  0  0  0  0  0
   58.8170   28.4040   45.7220 C   0  0  0  0  0  0  0  0  0  0  0  0
   58.4950   27.5030   44.8330 N   0  0  0  0  0  0  0  0  0  0  0  0
   57.4030   26.5270   44.8770 C   0  0  0  0  0  0  0  0  0  0  0  0
   56.7150   26.7187   44.0404 H   0  0  0  0  0  0  0  0  0  0  0  0
   57.8317   25.5170   44.7990 H   0  0  0  0  0  0  0  0  0  0  0  0
   56.6310   26.6290   46.1930 C   0  0  0  0  0  0  0  0  0  0  0  0
   57.0871   25.9550   46.9330 H   0  0  0  0  0  0  0  0  0  0  0  0
   56.6727   27.6689   46.5493 H   0  0  0  0  0  0  0  0  0  0  0  0
   55.2360   26.2540   45.9990 N   0  0  0  0  0  0  0  0  0  0  0  0
   54.7810   24.9460   45.6320 C   0  0  0  0  0  0  0  0  0  0  0  0
   53.5980   24.6160   45.9080 O   0  0  0  0  0  0  0  0  0  0  0  0
   55.6660   23.9620   44.9760 C   0  0  0  0  0  0  0  0  0  0  0  0
   55.5190   23.6750   43.6090 C   0  0  0  0  0  0  0  0  0  0  0  0
   54.7478   24.1939   43.0208 H   0  0  0  0  0  0  0  0  0  0  0  0
   56.3480   22.7330   42.9920 C   0  0  0  0  0  0  0  0  0  0  0  0
   56.2331   22.5186   41.9192 H   0  0  0  0  0  0  0  0  0  0  0  0
   57.3220   22.0640   43.7370 C   0  0  0  0  0  0  0  0  0  0  0  0
   57.9777   21.3279   43.2490 H   0  0  0  0  0  0  0  0  0  0  0  0
   57.4640   22.3290   45.1010 C   0  0  0  0  0  0  0  0  0  0  0  0
   58.2281   21.7971   45.6868 H   0  0  0  0  0  0  0  0  0  0  0  0
   56.6360   23.2700   45.7240 C   0  0  0  0  0  0  0  0  0  0  0  0
   56.7950   23.5200   47.0480 F   0  0  0  0  0  0  0  0  0  0  0  0
   59.8710   28.2150   46.6400 C   0  0  0  0  0  0  0  0  0  0  0  0
   60.4612   27.2870   46.6186 H   0  0  0  0  0  0  0  0  0  0  0  0
  1  2  1  0
  2  3  1  0
  3  4  1  0
  4  5  1  0
  4  6  2  0
  6  7  1  0
  7  8  2  0
  7  9  2  0
  7 10  1  0
 10 11  1  0
 10 12  1  0
  6 13  1  0
 13 14  2  0
 14 15  1  0
 15 16  1  0
 15 17  1  0
 15 18  1  0
 18 19  1  0
 18 20  1  0
 18 21  1  0
 21 22  1  0
 22 23  2  0
 22 24  1  0
 24 25  2  0
 25 26  1  0
 25 27  1  0
 27 28  1  0
 27 29  2  0
 29 30  1  0
 29 31  1  0
 31 32  1  0
 31 33  2  0
 33 34  1  0
 13 35  1  0
 35 36  1  0
 35  2  2  0
 33 24  1  0
M  CHG  2   3  -1  21  -1
M  END
>  <UniqueID>  (46) 
44

>  <SMILES>  (46) 
NS(=O)(=O)c1c[n-]cc/c1=N\CC[N-]C(=O)c1ccccc1F

>  <Energy>  (46) 
42.76934472019147

>  <Genealogy>  (46) 
NS(=O)(=O)c1c[n-]ccc1=NCC[N-]C(=O)c1ccccc1F (protonated)
NS(=O)(=O)c1c[n-]cc/c1=N\CC[N-]C(=O)c1ccccc1F (cis-trans isomerization)
NS(=O)(=O)c1c[n-]cc/c1=N\CC[N-]C(=O)c1ccccc1F (3D coordinates assigned)
NS(=O)(=O)c1c[n-]cc/c1=N\CC[N-]C(=O)c1ccccc1F (optimized conformer: 42.76934472019147 kcal/mol)

>  <smiles>  (46) 
NS(=O)(=O)c1c[nH]ccc1=NCCNC(=O)c1ccccc1F

>  <score_type>  (46) 
oracle

>  <origin>  (46) 
adg

>  <m_score__min__energy>  (46) 
-10.66

>  <m_primary>  (46) 
energy

$$$$
46:0
     RDKit          3D

 28 29  0  0  0  0  0  0  0  0999 V2000
   55.1490   29.3960   44.8120 N   0  0  0  0  0  0  0  0  0  0  0  0
   56.7510   29.9330   44.4490 S   0  0  0  0  0  0  0  0  0  0  0  0
   56.9450   29.9670   42.9580 O   0  0  0  0  0  0  0  0  0  0  0  0
   56.9480   31.3210   44.9910 O   0  0  0  0  0  0  0  0  0  0  0  0
   57.9190   28.8340   45.1760 C   0  0  0  0  0  0  0  0  0  0  0  0
   58.9060   29.3240   46.0420 C   0  0  0  0  0  0  0  0  0  0  0  0
   59.8320   28.4500   46.6170 C   0  0  0  0  0  0  0  0  0  0  0  0
   59.7670   27.0810   46.3430 C   0  0  0  0  0  0  0  0  0  0  0  0
   58.7590   26.5750   45.5050 C   0  0  0  0  0  0  0  0  0  0  0  0
   58.6820   25.1800   45.1830 N   0  0  0  0  0  0  0  0  0  0  0  0
   58.0480   24.1610   45.9660 C   0  0  0  0  0  0  0  0  0  0  0  0
   58.3360   22.9560   45.7440 O   0  0  0  0  0  0  0  0  0  0  0  0
   57.0040   24.4880   47.0000 C   0  0  0  0  0  0  0  0  0  0  0  0
   55.6300   24.3220   46.4270 C   0  0  0  0  0  0  0  0  0  0  0  0
   55.0390   23.1340   46.2130 N   0  0  0  0  0  0  0  0  0  0  0  0
   53.8610   23.4740   45.6450 C   0  0  0  0  0  0  0  0  0  0  0  0
   53.0060   22.6180   45.2960 O   0  0  0  0  0  0  0  0  0  0  0  0
   53.6730   24.8000   45.4750 N   0  0  0  0  0  0  0  0  0  0  0  0
   54.8060   25.3220   45.9710 C   0  0  0  0  0  0  0  0  0  0  0  0
   55.0830   26.6830   46.0020 O   0  0  0  0  0  0  0  0  0  0  0  0
   57.8520   27.4600   44.9080 C   0  0  0  0  0  0  0  0  0  0  0  0
   55.2240   28.7420   45.6240 H   0  0  0  0  0  0  0  0  0  0  0  0
   58.9517   30.3992   46.2695 H   0  0  0  0  0  0  0  0  0  0  0  0
   60.6132   28.8398   47.2862 H   0  0  0  0  0  0  0  0  0  0  0  0
   60.5072   26.3976   46.7847 H   0  0  0  0  0  0  0  0  0  0  0  0
   57.1219   23.8124   47.8600 H   0  0  0  0  0  0  0  0  0  0  0  0
   57.1333   25.5328   47.3189 H   0  0  0  0  0  0  0  0  0  0  0  0
   57.0818   27.0738   44.2241 H   0  0  0  0  0  0  0  0  0  0  0  0
  1  2  1  0
  2  3  2  0
  2  4  2  0
  2  5  1  0
  5  6  2  0
  6  7  1  0
  7  8  2  0
  8  9  1  0
  9 10  1  0
 10 11  1  0
 11 12  2  0
 11 13  1  0
 13 14  1  0
 14 15  1  0
 15 16  1  0
 16 17  2  0
 16 18  1  0
 18 19  1  0
 19 20  1  0
  9 21  2  0
 21  5  1  0
 19 14  2  0
  1 22  1  0
  6 23  1  0
  7 24  1  0
  8 25  1  0
 13 26  1  0
 13 27  1  0
 21 28  1  0
M  CHG  5   1  -1  10  -1  15  -1  18  -1  20  -1
M  END
>  <UniqueID>  (47) 
45

>  <SMILES>  (47) 
[NH-]S(=O)(=O)c1cccc([N-]C(=O)Cc2[n-]c(=O)[n-]c2[O-])c1

>  <Energy>  (47) 
61.00385000051441

>  <Genealogy>  (47) 
[NH-]S(=O)(=O)c1cccc([N-]C(=O)Cc2[n-]c(=O)[n-]c2[O-])c1 (protonated)
[NH-]S(=O)(=O)c1cccc([N-]C(=O)Cc2[n-]c(=O)[n-]c2[O-])c1 (3D coordinates assigned)
[NH-]S(=O)(=O)c1cccc([N-]C(=O)Cc2[n-]c(=O)[n-]c2[O-])c1 (optimized conformer: 61.00385000051441 kcal/mol)

>  <smiles>  (47) 
NS(=O)(=O)c1cccc(NC(=O)Cc2[nH]c(=O)[nH]c2O)c1

>  <score_type>  (47) 
oracle

>  <origin>  (47) 
adg

>  <m_score__min__energy>  (47) 
-19.09

>  <m_primary>  (47) 
energy

$$$$
47:0
     RDKit          3D

 45 48  0  0  0  0  0  0  0  0999 V2000
   56.9470   34.6960   45.2310 O   0  0  0  0  0  0  0  0  0  0  0  0
   58.1350   34.4430   44.8970 C   0  0  0  0  0  0  0  0  0  0  0  0
   58.4000   33.2760   44.1070 N   0  0  0  0  0  0  0  0  0  0  0  0
   58.1660   32.0490   44.4650 C   0  0  0  0  0  0  0  0  0  0  0  0
   58.9540   31.3410   45.3140 N   0  0  0  0  0  0  0  0  0  0  0  0
   58.4560   30.0930   45.4990 C   0  0  0  0  0  0  0  0  0  0  0  0
   59.0410   29.1250   46.3120 C   0  0  0  0  0  0  0  0  0  0  0  0
   58.4240   27.8670   46.4190 C   0  0  0  0  0  0  0  0  0  0  0  0
   57.2250   27.5810   45.7180 C   0  0  0  0  0  0  0  0  0  0  0  0
   56.5800   26.2510   45.8270 C   0  0  0  0  0  0  0  0  0  0  0  0
   55.3400   26.1800   46.0510 O   0  0  0  0  0  0  0  0  0  0  0  0
   57.3560   25.0450   45.7290 N   0  0  0  0  0  0  0  0  0  0  0  0
   56.7960   23.7570   45.4150 C   0  0  0  0  0  0  0  0  0  0  0  0
   57.0880   23.1080   44.2000 C   0  0  0  0  0  0  0  0  0  0  0  0
   56.5490   21.8470   43.9280 C   0  0  0  0  0  0  0  0  0  0  0  0
   55.7270   21.2160   44.8680 C   0  0  0  0  0  0  0  0  0  0  0  0
   55.1930   19.9640   44.5970 O   0  0  0  0  0  0  0  0  0  0  0  0
   55.4490   21.8460   46.0840 C   0  0  0  0  0  0  0  0  0  0  0  0
   55.9860   23.1080   46.3590 C   0  0  0  0  0  0  0  0  0  0  0  0
   56.6560   28.5760   44.8920 C   0  0  0  0  0  0  0  0  0  0  0  0
   57.2880   29.8130   44.8060 C   0  0  0  0  0  0  0  0  0  0  0  0
   56.8330   31.1640   43.9170 S   0  0  0  0  0  0  0  0  0  0  0  0
   59.1750   35.2890   45.2940 O   0  0  0  0  0  0  0  0  0  0  0  0
   59.6310   35.3790   46.6380 C   0  0  0  0  0  0  0  0  0  0  0  0
   60.0180   34.0110   47.1150 C   0  0  0  0  0  0  0  0  0  0  0  0
   59.1660   33.2930   47.9700 C   0  0  0  0  0  0  0  0  0  0  0  0
   59.5500   32.0380   48.4550 C   0  0  0  0  0  0  0  0  0  0  0  0
   60.7890   31.4990   48.1000 C   0  0  0  0  0  0  0  0  0  0  0  0
   61.6490   32.2150   47.2640 C   0  0  0  0  0  0  0  0  0  0  0  0
   61.2700   33.4710   46.7770 C   0  0  0  0  0  0  0  0  0  0  0  0
   59.9695   29.3415   46.8606 H   0  0  0  0  0  0  0  0  0  0  0  0
   58.8776   27.0931   47.0556 H   0  0  0  0  0  0  0  0  0  0  0  0
   58.3600   25.0840   46.0140 H   0  0  0  0  0  0  0  0  0  0  0  0
   57.7426   23.5949   43.4621 H   0  0  0  0  0  0  0  0  0  0  0  0
   56.7718   21.3497   42.9725 H   0  0  0  0  0  0  0  0  0  0  0  0
   54.8070   21.3488   46.8260 H   0  0  0  0  0  0  0  0  0  0  0  0
   55.7718   23.5949   47.3219 H   0  0  0  0  0  0  0  0  0  0  0  0
   55.7325   28.3771   44.3285 H   0  0  0  0  0  0  0  0  0  0  0  0
   60.5033   36.0473   46.6875 H   0  0  0  0  0  0  0  0  0  0  0  0
   58.8306   35.7823   47.2757 H   0  0  0  0  0  0  0  0  0  0  0  0
   58.1938   33.7186   48.2593 H   0  0  0  0  0  0  0  0  0  0  0  0
   58.8754   31.4750   49.1167 H   0  0  0  0  0  0  0  0  0  0  0  0
   61.0874   30.5104   48.4790 H   0  0  0  0  0  0  0  0  0  0  0  0
   62.6257   31.7909   46.9880 H   0  0  0  0  0  0  0  0  0  0  0  0
   61.9543   34.0369   46.1278 H   0  0  0  0  0  0  0  0  0  0  0  0
  1  2  2  0
  2  3  1  0
  3  4  2  3
  4  5  1  0
  5  6  1  0
  6  7  2  0
  7  8  1  0
  8  9  2  0
  9 10  1  0
 10 11  2  0
 10 12  1  0
 12 13  1  0
 13 14  2  0
 14 15  1  0
 15 16  2  0
 16 17  1  0
 16 18  1  0
 18 19  2  0
  9 20  1  0
 20 21  2  0
 21 22  1  0
  2 23  1  0
 23 24  1  0
 24 25  1  0
 25 26  2  0
 26 27  1  0
 27 28  2  0
 28 29  1  0
 29 30  2  0
 22  4  1  0
 30 25  1  0
 21  6  1  0
 19 13  1  0
  7 31  1  0
  8 32  1  0
 12 33  1  0
 14 34  1  0
 15 35  1  0
 18 36  1  0
 19 37  1  0
 20 38  1  0
 24 39  1  0
 24 40  1  0
 26 41  1  0
 27 42  1  0
 28 43  1  0
 29 44  1  0
 30 45  1  0
M  CHG  2   5  -1  17  -1
M  END
>  <UniqueID>  (48) 
46

>  <SMILES>  (48) 
O=C(N=c1[n-]c2ccc(C(=O)Nc3ccc([O-])cc3)cc2s1)OCc1ccccc1

>  <Energy>  (48) 
88.37205021360658

>  <Genealogy>  (48) 
O=C(N=c1[n-]c2ccc(C(=O)Nc3ccc([O-])cc3)cc2s1)OCc1ccccc1 (protonated)
O=C(N=c1[n-]c2ccc(C(=O)Nc3ccc([O-])cc3)cc2s1)OCc1ccccc1 (3D coordinates assigned)
O=C(N=c1[n-]c2ccc(C(=O)Nc3ccc([O-])cc3)cc2s1)OCc1ccccc1 (optimized conformer: 88.37205021360658 kcal/mol)

>  <smiles>  (48) 
O=C(N=c1[nH]c2ccc(C(=O)Nc3ccc(O)cc3)cc2s1)OCc1ccccc1

>  <score_type>  (48) 
oracle

>  <origin>  (48) 
adg

>  <m_score__min__energy>  (48) 
-11.42

>  <m_primary>  (48) 
energy

$$$$
48:0
     RDKit          3D

 62 66  0  0  0  0  0  0  0  0999 V2000
   58.4770   33.8400   52.2810 C   0  0  0  0  0  0  0  0  0  0  0  0
   58.4490   32.4220   51.7020 C   0  0  0  0  0  0  0  0  0  0  0  0
   57.0300   31.8440   51.7370 C   0  0  0  0  0  0  0  0  0  0  0  0
   59.0820   32.4110   50.0280 S   0  0  0  0  0  0  0  0  0  0  0  0
   59.8040   31.1130   49.7910 O   0  0  0  0  0  0  0  0  0  0  0  0
   57.9450   32.5490   49.0510 O   0  0  0  0  0  0  0  0  0  0  0  0
   60.1700   33.7440   49.8230 N   0  0  0  0  0  0  0  0  0  0  0  0
   61.5190   33.6580   49.3400 C   0  0  0  0  0  0  0  0  0  0  0  0
   62.5970   33.4400   50.2180 C   0  0  0  0  0  0  0  0  0  0  0  0
   63.9020   33.3450   49.7280 C   0  0  0  0  0  0  0  0  0  0  0  0
   64.1460   33.4550   48.3600 C   0  0  0  0  0  0  0  0  0  0  0  0
   63.0880   33.6620   47.4710 C   0  0  0  0  0  0  0  0  0  0  0  0
   63.3570   33.7650   46.1100 O   0  0  0  0  0  0  0  0  0  0  0  0
   61.7670   33.7690   47.9520 C   0  0  0  0  0  0  0  0  0  0  0  0
   60.6500   33.9140   46.9910 C   0  0  0  0  0  0  0  0  0  0  0  0
   60.3030   35.1500   46.5330 N   0  0  0  0  0  0  0  0  0  0  0  0
   59.2820   35.3240   45.6370 C   0  0  0  0  0  0  0  0  0  0  0  0
   58.5690   34.2550   45.1800 N   0  0  0  0  0  0  0  0  0  0  0  0
   58.9010   33.0260   45.6310 C   0  0  0  0  0  0  0  0  0  0  0  0
   58.2880   31.8780   45.3120 N   0  0  0  0  0  0  0  0  0  0  0  0
   58.9360   30.9150   46.0150 C   0  0  0  0  0  0  0  0  0  0  0  0
   58.5500   29.4820   45.9960 C   0  0  0  0  0  0  0  0  0  0  0  0
   58.4590   28.7700   47.1310 C   0  0  0  0  0  0  0  0  0  0  0  0
   58.0700   27.3210   47.0880 C   0  0  0  0  0  0  0  0  0  0  0  0
   57.0560   27.0840   46.0450 N   0  0  0  0  0  0  0  0  0  0  0  0
   56.0540   26.0660   46.2280 C   0  0  0  0  0  0  0  0  0  0  0  0
   54.8410   26.3380   46.0060 O   0  0  0  0  0  0  0  0  0  0  0  0
   56.4360   24.7750   46.7280 N   0  0  0  0  0  0  0  0  0  0  0  0
   56.7940   23.7060   46.0720 C   0  0  0  0  0  0  0  0  0  0  0  0
   56.6990   23.5910   44.6700 C   0  0  0  0  0  0  0  0  0  0  0  0
   57.1290   22.4180   44.0470 C   0  0  0  0  0  0  0  0  0  0  0  0
   57.6530   21.3750   44.8060 C   0  0  0  0  0  0  0  0  0  0  0  0
   57.7500   21.5240   46.1870 C   0  0  0  0  0  0  0  0  0  0  0  0
   57.3310   22.6740   46.7800 N   0  0  0  0  0  0  0  0  0  0  0  0
   57.0570   27.8680   44.7980 C   0  0  0  0  0  0  0  0  0  0  0  0
   58.2860   28.7820   44.6870 C   0  0  0  0  0  0  0  0  0  0  0  0
   59.9630   31.4750   46.7830 C   0  0  0  0  0  0  0  0  0  0  0  0
   59.9170   32.8270   46.5160 C   0  0  0  0  0  0  0  0  0  0  0  0
   58.4760   33.7875   53.3797 H   0  0  0  0  0  0  0  0  0  0  0  0
   59.3855   34.3576   51.9395 H   0  0  0  0  0  0  0  0  0  0  0  0
   57.5896   34.3931   51.9395 H   0  0  0  0  0  0  0  0  0  0  0  0
   59.0961   31.7884   52.3264 H   0  0  0  0  0  0  0  0  0  0  0  0
   56.7124   31.7147   52.7822 H   0  0  0  0  0  0  0  0  0  0  0  0
   56.3407   32.5330   51.2270 H   0  0  0  0  0  0  0  0  0  0  0  0
   57.0184   30.8695   51.2270 H   0  0  0  0  0  0  0  0  0  0  0  0
   62.4108   33.3437   51.2978 H   0  0  0  0  0  0  0  0  0  0  0  0
   64.7388   33.1830   50.4234 H   0  0  0  0  0  0  0  0  0  0  0  0
   65.1751   33.3786   47.9790 H   0  0  0  0  0  0  0  0  0  0  0  0
   59.0347   36.3355   45.2826 H   0  0  0  0  0  0  0  0  0  0  0  0
   57.4820   31.7670   44.6580 H   0  0  0  0  0  0  0  0  0  0  0  0
   58.6707   29.2512   48.0972 H   0  0  0  0  0  0  0  0  0  0  0  0
   58.9612   26.7143   46.8696 H   0  0  0  0  0  0  0  0  0  0  0  0
   57.6462   27.0398   48.0633 H   0  0  0  0  0  0  0  0  0  0  0  0
   56.2895   24.4186   44.0721 H   0  0  0  0  0  0  0  0  0  0  0  0
   57.0537   22.3176   42.9542 H   0  0  0  0  0  0  0  0  0  0  0  0
   57.9860   20.4455   44.3210 H   0  0  0  0  0  0  0  0  0  0  0  0
   58.1661   20.7104   46.7993 H   0  0  0  0  0  0  0  0  0  0  0  0
   57.0531   27.1747   43.9440 H   0  0  0  0  0  0  0  0  0  0  0  0
   56.1612   28.5064   44.8004 H   0  0  0  0  0  0  0  0  0  0  0  0
   59.1637   28.1758   44.4184 H   0  0  0  0  0  0  0  0  0  0  0  0
   58.0941   29.5399   43.9132 H   0  0  0  0  0  0  0  0  0  0  0  0
   60.6575   30.9497   47.4551 H   0  0  0  0  0  0  0  0  0  0  0  0
  1  2  1  0
  2  3  1  0
  2  4  1  0
  4  5  2  0
  4  6  2  0
  4  7  1  0
  7  8  1  0
  8  9  2  0
  9 10  1  0
 10 11  2  0
 11 12  1  0
 12 13  1  0
 12 14  2  0
 14 15  1  0
 15 16  2  0
 16 17  1  0
 17 18  2  0
 18 19  1  0
 19 20  1  0
 20 21  1  0
 21 22  1  0
 22 23  2  0
 23 24  1  0
 24 25  1  0
 25 26  1  0
 26 27  2  0
 26 28  1  0
 28 29  2  3
 29 30  1  0
 30 31  2  0
 31 32  1  0
 32 33  2  0
 33 34  1  0
 25 35  1  0
 35 36  1  0
 21 37  2  0
 37 38  1  0
 14  8  1  0
 38 15  1  0
 38 19  2  0
 36 22  1  0
 34 29  1  0
  1 39  1  0
  1 40  1  0
  1 41  1  0
  2 42  1  0
  3 43  1  0
  3 44  1  0
  3 45  1  0
  9 46  1  0
 10 47  1  0
 11 48  1  0
 17 49  1  0
 20 50  1  0
 23 51  1  0
 24 52  1  0
 24 53  1  0
 30 54  1  0
 31 55  1  0
 32 56  1  0
 33 57  1  0
 35 58  1  0
 35 59  1  0
 36 60  1  0
 36 61  1  0
 37 62  1  0
M  CHG  3   7  -1  13  -1  34  -1
M  END
>  <UniqueID>  (49) 
47

>  <SMILES>  (49) 
CC(C)S(=O)(=O)[N-]c1cccc([O-])c1-c1ncnc2[nH]c(C3=CCN(C(=O)N=c4cccc[n-]4)CC3)cc12

>  <Energy>  (49) 
115.81571296827248

>  <Genealogy>  (49) 
CC(C)S(=O)(=O)[N-]c1cccc([O-])c1-c1ncnc2[nH]c(C3=CCN(C(=O)N=c4cccc[n-]4)CC3)cc12 (protonated)
CC(C)S(=O)(=O)[N-]c1cccc([O-])c1-c1ncnc2[nH]c(C3=CCN(C(=O)N=c4cccc[n-]4)CC3)cc12 (3D coordinates assigned)
CC(C)S(=O)(=O)[N-]c1cccc([O-])c1-c1ncnc2[nH]c(C3=CCN(C(=O)N=c4cccc[n-]4)CC3)cc12 (nonaromatic ring conformer: 115.81571296827248 kcal/mol)

>  <smiles>  (49) 
CC(C)S(=O)(=O)Nc1cccc(O)c1-c1ncnc2[nH]c(C3=CCN(C(=O)N=c4cccc[nH]4)CC3)cc12

>  <score_type>  (49) 
oracle

>  <origin>  (49) 
adg

>  <m_score__min__energy>  (49) 
-14.17

>  <m_primary>  (49) 
energy

$$$$
49:0
     RDKit          3D

 49 51  0  0  0  0  0  0  0  0999 V2000
   59.9040   30.9440   50.0690 C   0  0  0  0  0  0  0  0  0  0  0  0
   59.2310   30.3870   48.8170 C   0  0  0  0  0  0  0  0  0  0  0  0
   60.1360   29.4870   48.0840 N   0  0  0  0  0  0  0  0  0  0  0  0
   60.8930   30.0010   46.9270 C   0  0  0  0  0  0  0  0  0  0  0  0
   61.5090   31.3450   47.2220 C   0  0  0  0  0  0  0  0  0  0  0  0
   60.8230   32.5300   46.9060 C   0  0  0  0  0  0  0  0  0  0  0  0
   61.3980   33.7740   47.1810 C   0  0  0  0  0  0  0  0  0  0  0  0
   62.6700   33.8450   47.7550 C   0  0  0  0  0  0  0  0  0  0  0  0
   63.3720   32.6710   48.0480 C   0  0  0  0  0  0  0  0  0  0  0  0
   62.7970   31.4260   47.7750 C   0  0  0  0  0  0  0  0  0  0  0  0
   60.4220   28.1810   48.6320 C   0  0  0  0  0  0  0  0  0  0  0  0
   60.4210   28.0140   49.8820 O   0  0  0  0  0  0  0  0  0  0  0  0
   60.7190   27.0020   47.7550 C   0  0  0  0  0  0  0  0  0  0  0  0
   59.5310   26.1730   47.6220 N   0  0  0  0  0  0  0  0  0  0  0  0
   58.8000   26.0550   46.3980 C   0  0  0  0  0  0  0  0  0  0  0  0
   58.8030   24.9680   45.7600 O   0  0  0  0  0  0  0  0  0  0  0  0
   58.0330   27.2000   45.8940 C   0  0  0  0  0  0  0  0  0  0  0  0
   56.6760   27.2260   45.6270 C   0  0  0  0  0  0  0  0  0  0  0  0
   56.4110   28.5100   45.2010 C   0  0  0  0  0  0  0  0  0  0  0  0
   55.1460   28.9800   44.8650 O   0  0  0  0  0  0  0  0  0  0  0  0
   57.5330   29.2620   45.1890 N   0  0  0  0  0  0  0  0  0  0  0  0
   57.6570   30.6480   44.8160 C   0  0  0  0  0  0  0  0  0  0  0  0
   57.7720   31.6490   45.7970 C   0  0  0  0  0  0  0  0  0  0  0  0
   57.8850   32.9920   45.4270 C   0  0  0  0  0  0  0  0  0  0  0  0
   57.8790   33.3510   44.0770 C   0  0  0  0  0  0  0  0  0  0  0  0
   57.7560   32.3650   43.0940 C   0  0  0  0  0  0  0  0  0  0  0  0
   57.6430   31.0200   43.4590 C   0  0  0  0  0  0  0  0  0  0  0  0
   58.5310   28.4630   45.6210 C   0  0  0  0  0  0  0  0  0  0  0  0
   59.4104   30.5355   50.9632 H   0  0  0  0  0  0  0  0  0  0  0  0
   60.9659   30.6570   50.0730 H   0  0  0  0  0  0  0  0  0  0  0  0
   59.8206   32.0408   50.0730 H   0  0  0  0  0  0  0  0  0  0  0  0
   58.3303   29.8286   49.1117 H   0  0  0  0  0  0  0  0  0  0  0  0
   58.9669   31.2281   48.1591 H   0  0  0  0  0  0  0  0  0  0  0  0
   61.6930   29.2882   46.6781 H   0  0  0  0  0  0  0  0  0  0  0  0
   60.1965   30.1185   46.0838 H   0  0  0  0  0  0  0  0  0  0  0  0
   59.8281   32.4783   46.4397 H   0  0  0  0  0  0  0  0  0  0  0  0
   60.8489   34.6976   46.9454 H   0  0  0  0  0  0  0  0  0  0  0  0
   63.1194   34.8243   47.9765 H   0  0  0  0  0  0  0  0  0  0  0  0
   64.3763   32.7273   48.4931 H   0  0  0  0  0  0  0  0  0  0  0  0
   63.3568   30.5050   47.9947 H   0  0  0  0  0  0  0  0  0  0  0  0
   61.0302   27.3558   46.7610 H   0  0  0  0  0  0  0  0  0  0  0  0
   61.5267   26.4080   48.2075 H   0  0  0  0  0  0  0  0  0  0  0  0
   55.9600   26.3976   45.7323 H   0  0  0  0  0  0  0  0  0  0  0  0
   57.7730   31.3733   46.8619 H   0  0  0  0  0  0  0  0  0  0  0  0
   57.9789   33.7682   46.2007 H   0  0  0  0  0  0  0  0  0  0  0  0
   57.9710   34.4083   43.7879 H   0  0  0  0  0  0  0  0  0  0  0  0
   57.7481   32.6477   42.0310 H   0  0  0  0  0  0  0  0  0  0  0  0
   57.5426   30.2486   42.6813 H   0  0  0  0  0  0  0  0  0  0  0  0
   59.5811   28.7687   45.7385 H   0  0  0  0  0  0  0  0  0  0  0  0
  1  2  1  0
  2  3  1  0
  3  4  1  0
  4  5  1  0
  5  6  2  0
  6  7  1  0
  7  8  2  0
  8  9  1  0
  9 10  2  0
  3 11  1  0
 11 12  2  0
 11 13  1  0
 13 14  1  0
 14 15  1  0
 15 16  2  0
 15 17  1  0
 17 18  1  0
 18 19  2  0
 19 20  1  0
 19 21  1  0
 21 22  1  0
 22 23  2  0
 23 24  1  0
 24 25  2  0
 25 26  1  0
 26 27  2  0
 21 28  1  0
 10  5  1  0
 28 17  2  0
 27 22  1  0
  1 29  1  0
  1 30  1  0
  1 31  1  0
  2 32  1  0
  2 33  1  0
  4 34  1  0
  4 35  1  0
  6 36  1  0
  7 37  1  0
  8 38  1  0
  9 39  1  0
 10 40  1  0
 13 41  1  0
 13 42  1  0
 18 43  1  0
 23 44  1  0
 24 45  1  0
 25 46  1  0
 26 47  1  0
 27 48  1  0
 28 49  1  0
M  CHG  2  14  -1  20  -1
M  END
>  <UniqueID>  (50) 
48

>  <SMILES>  (50) 
CCN(Cc1ccccc1)C(=O)C[N-]C(=O)c1cc([O-])n(-c2ccccc2)c1

>  <Energy>  (50) 
75.00000369268051

>  <Genealogy>  (50) 
CCN(Cc1ccccc1)C(=O)C[N-]C(=O)c1cc([O-])n(-c2ccccc2)c1 (protonated)
CCN(Cc1ccccc1)C(=O)C[N-]C(=O)c1cc([O-])n(-c2ccccc2)c1 (3D coordinates assigned)
CCN(Cc1ccccc1)C(=O)C[N-]C(=O)c1cc([O-])n(-c2ccccc2)c1 (optimized conformer: 75.00000369268051 kcal/mol)

>  <smiles>  (50) 
CCN(Cc1ccccc1)C(=O)CNC(=O)c1cc(O)n(-c2ccccc2)c1

>  <score_type>  (50) 
oracle

>  <origin>  (50) 
adg

>  <m_score__min__energy>  (50) 
-12.880000000000001

>  <m_primary>  (50) 
energy

$$$$
50:0
     RDKit          3D

 43 44  0  0  0  0  0  0  0  0999 V2000
   64.6830   31.9513   47.7982 H   0  0  0  0  0  0  0  0  0  0  0  0
   63.7260   32.4930   47.8230 C   0  0  0  0  0  0  0  0  0  0  0  0
   63.3300   33.2620   46.7260 C   0  0  0  0  0  0  0  0  0  0  0  0
   63.9766   33.3270   45.8385 H   0  0  0  0  0  0  0  0  0  0  0  0
   62.1130   33.9490   46.7550 C   0  0  0  0  0  0  0  0  0  0  0  0
   61.8091   34.5602   45.8924 H   0  0  0  0  0  0  0  0  0  0  0  0
   61.2760   33.8630   47.8800 C   0  0  0  0  0  0  0  0  0  0  0  0
   59.9860   34.6380   47.9170 C   0  0  0  0  0  0  0  0  0  0  0  0
   60.1946   35.7011   47.7262 H   0  0  0  0  0  0  0  0  0  0  0  0
   59.5230   34.5194   48.9077 H   0  0  0  0  0  0  0  0  0  0  0  0
   59.0470   34.1230   46.8730 C   0  0  0  0  0  0  0  0  0  0  0  0
   58.0710   32.7590   47.0300 S   0  0  0  0  0  0  0  0  0  0  0  0
   57.4910   32.8710   45.4470 C   0  0  0  0  0  0  0  0  0  0  0  0
   56.6440   32.0690   44.8700 N   0  0  0  0  0  0  0  0  0  0  0  0
   56.8660   30.7100   44.4680 C   0  0  0  0  0  0  0  0  0  0  0  0
   57.4580   30.4910   43.3780 O   0  0  0  0  0  0  0  0  0  0  0  0
   56.4240   29.6400   45.2570 O   0  0  0  0  0  0  0  0  0  0  0  0
   57.1110   28.3940   45.3510 C   0  0  0  0  0  0  0  0  0  0  0  0
   56.8978   27.7940   44.4541 H   0  0  0  0  0  0  0  0  0  0  0  0
   56.7667   27.8636   46.2511 H   0  0  0  0  0  0  0  0  0  0  0  0
   58.6210   28.6240   45.4570 C   0  0  0  0  0  0  0  0  0  0  0  0
   58.8758   29.5756   44.9675 H   0  0  0  0  0  0  0  0  0  0  0  0
   59.1398   27.7883   44.9645 H   0  0  0  0  0  0  0  0  0  0  0  0
   59.0660   28.6800   46.9340 C   0  0  0  0  0  0  0  0  0  0  0  0
   59.8879   27.9623   47.0733 H   0  0  0  0  0  0  0  0  0  0  0  0
   58.1793   28.4387   47.5387 H   0  0  0  0  0  0  0  0  0  0  0  0
   59.5330   30.0110   47.3810 N   0  0  0  0  0  0  0  0  0  0  0  0
   60.7570   30.4520   46.6940 C   0  0  0  0  0  0  0  0  0  0  0  0
   61.5176   30.7261   47.4399 H   0  0  0  0  0  0  0  0  0  0  0  0
   61.1387   29.6349   46.0642 H   0  0  0  0  0  0  0  0  0  0  0  0
   60.5298   31.3248   46.0642 H   0  0  0  0  0  0  0  0  0  0  0  0
   59.6780   30.1080   48.8420 C   0  0  0  0  0  0  0  0  0  0  0  0
   58.8582   29.5596   49.3290 H   0  0  0  0  0  0  0  0  0  0  0  0
   60.6415   29.6720   49.1446 H   0  0  0  0  0  0  0  0  0  0  0  0
   59.6427   31.1650   49.1446 H   0  0  0  0  0  0  0  0  0  0  0  0
   58.0400   33.9230   44.8010 N   0  0  0  0  0  0  0  0  0  0  0  0
   57.8320   34.1730   43.8080 H   0  0  0  0  0  0  0  0  0  0  0  0
   58.9100   34.6190   45.5800 C   0  0  0  0  0  0  0  0  0  0  0  0
   59.4597   35.5005   45.2185 H   0  0  0  0  0  0  0  0  0  0  0  0
   61.6880   33.0980   48.9880 C   0  0  0  0  0  0  0  0  0  0  0  0
   60.9150   33.0160   50.1000 F   0  0  0  0  0  0  0  0  0  0  0  0
   62.9070   32.4120   48.9510 C   0  0  0  0  0  0  0  0  0  0  0  0
   63.2213   31.8065   49.8139 H   0  0  0  0  0  0  0  0  0  0  0  0
  1  2  1  0
  2  3  2  0
  3  4  1  0
  3  5  1  0
  5  6  1  0
  5  7  2  0
  7  8  1  0
  8  9  1  0
  8 10  1  0
  8 11  1  0
 11 12  1  0
 12 13  1  0
 13 14  2  0
 14 15  1  0
 15 16  2  0
 15 17  1  0
 17 18  1  0
 18 19  1  0
 18 20  1  0
 18 21  1  0
 21 22  1  0
 21 23  1  0
 21 24  1  0
 24 25  1  0
 24 26  1  0
 24 27  1  0
 27 28  1  0
 28 29  1  0
 28 30  1  0
 28 31  1  0
 27 32  1  0
 32 33  1  0
 32 34  1  0
 32 35  1  0
 13 36  1  0
 36 37  1  0
 36 38  1  0
 38 39  1  0
  7 40  1  0
 40 41  1  0
 40 42  2  0
 42 43  1  0
 42  2  1  0
 38 11  2  0
M  END
>  <UniqueID>  (51) 
49

>  <SMILES>  (51) 
CN(C)CCCOC(=O)/N=c1/[nH]cc(Cc2ccccc2F)s1

>  <Energy>  (51) 
71.47949882822147

>  <Genealogy>  (51) 
CN(C)CCCOC(=O)/N=c1/[nH]cc(Cc2ccccc2F)s1 (cis-trans isomerization)
CN(C)CCCOC(=O)/N=c1/[nH]cc(Cc2ccccc2F)s1 (3D coordinates assigned)
CN(C)CCCOC(=O)/N=c1/[nH]cc(Cc2ccccc2F)s1 (optimized conformer: 71.47949882822147 kcal/mol)

>  <smiles>  (51) 
CN(C)CCCOC(=O)N=c1[nH]cc(Cc2ccccc2F)s1

>  <score_type>  (51) 
oracle

>  <origin>  (51) 
adg

>  <m_score__min__energy>  (51) 
-7.7000000000000002

>  <m_primary>  (51) 
energy

$$$$
51:0
     RDKit          3D

 53 55  0  0  0  0  0  0  0  0999 V2000
   54.8200   23.7900   45.2340 C   0  0  0  0  0  0  0  0  0  0  0  0
   55.4950   23.6410   46.5880 C   0  0  0  0  0  0  0  0  0  0  0  0
   56.2040   24.8700   46.9200 N   0  0  0  0  0  0  0  0  0  0  0  0
   56.2170   26.0510   46.1070 C   0  0  0  0  0  0  0  0  0  0  0  0
   55.1520   26.7160   45.9950 O   0  0  0  0  0  0  0  0  0  0  0  0
   57.4640   26.5440   45.4200 C   0  0  0  0  0  0  0  0  0  0  0  0
   57.4970   28.0480   45.3950 C   0  0  0  0  0  0  0  0  0  0  0  0
   58.0310   28.7600   46.4800 C   0  0  0  0  0  0  0  0  0  0  0  0
   58.0960   30.1550   46.4440 C   0  0  0  0  0  0  0  0  0  0  0  0
   57.6420   30.8570   45.3210 C   0  0  0  0  0  0  0  0  0  0  0  0
   57.7150   32.2900   45.3260 N   0  0  0  0  0  0  0  0  0  0  0  0
   58.1420   33.1040   46.4240 C   0  0  0  0  0  0  0  0  0  0  0  0
   57.2840   33.4880   47.2650 O   0  0  0  0  0  0  0  0  0  0  0  0
   59.5290   33.4350   46.6170 N   0  0  0  0  0  0  0  0  0  0  0  0
   59.9040   34.7580   47.1310 C   0  0  0  0  0  0  0  0  0  0  0  0
   60.7770   34.6000   48.3800 C   0  0  0  0  0  0  0  0  0  0  0  0
   61.8480   33.6100   48.1690 N   0  0  0  0  0  0  0  0  0  0  0  0
   62.9610   33.5710   49.0810 C   0  0  0  0  0  0  0  0  0  0  0  0
   64.1330   33.4700   48.6260 O   0  0  0  0  0  0  0  0  0  0  0  0
   62.7620   33.6420   50.5450 C   0  0  0  0  0  0  0  0  0  0  0  0
   63.7550   34.1920   51.3780 C   0  0  0  0  0  0  0  0  0  0  0  0
   63.5540   34.2730   52.7590 C   0  0  0  0  0  0  0  0  0  0  0  0
   62.3580   33.8180   53.3210 C   0  0  0  0  0  0  0  0  0  0  0  0
   62.1650   33.8960   54.6610 F   0  0  0  0  0  0  0  0  0  0  0  0
   61.3580   33.2870   52.5000 C   0  0  0  0  0  0  0  0  0  0  0  0
   61.5540   33.2040   51.1180 C   0  0  0  0  0  0  0  0  0  0  0  0
   61.9380   32.8830   46.8960 C   0  0  0  0  0  0  0  0  0  0  0  0
   60.5520   32.3900   46.4610 C   0  0  0  0  0  0  0  0  0  0  0  0
   57.0880   30.1480   44.2420 C   0  0  0  0  0  0  0  0  0  0  0  0
   57.0310   28.7530   44.2730 C   0  0  0  0  0  0  0  0  0  0  0  0
   53.7552   24.0250   45.3790 H   0  0  0  0  0  0  0  0  0  0  0  0
   55.3018   24.6034   44.6716 H   0  0  0  0  0  0  0  0  0  0  0  0
   54.9146   22.8494   44.6716 H   0  0  0  0  0  0  0  0  0  0  0  0
   54.7338   23.4389   47.3560 H   0  0  0  0  0  0  0  0  0  0  0  0
   56.2104   22.8063   46.5491 H   0  0  0  0  0  0  0  0  0  0  0  0
   58.3461   26.1722   45.9620 H   0  0  0  0  0  0  0  0  0  0  0  0
   57.4683   26.1725   44.3846 H   0  0  0  0  0  0  0  0  0  0  0  0
   58.4000   28.2173   47.3627 H   0  0  0  0  0  0  0  0  0  0  0  0
   58.5065   30.7054   47.3034 H   0  0  0  0  0  0  0  0  0  0  0  0
   60.4661   35.3040   46.3590 H   0  0  0  0  0  0  0  0  0  0  0  0
   58.9939   35.3181   47.3919 H   0  0  0  0  0  0  0  0  0  0  0  0
   61.2314   35.5717   48.6236 H   0  0  0  0  0  0  0  0  0  0  0  0
   60.1394   34.2480   49.2043 H   0  0  0  0  0  0  0  0  0  0  0  0
   64.6943   34.5601   50.9396 H   0  0  0  0  0  0  0  0  0  0  0  0
   64.3383   34.6955   53.4043 H   0  0  0  0  0  0  0  0  0  0  0  0
   60.4149   32.9338   52.9426 H   0  0  0  0  0  0  0  0  0  0  0  0
   60.7602   32.7945   50.4760 H   0  0  0  0  0  0  0  0  0  0  0  0
   62.3427   33.5537   46.1237 H   0  0  0  0  0  0  0  0  0  0  0  0
   62.5999   32.0144   47.0279 H   0  0  0  0  0  0  0  0  0  0  0  0
   60.5962   32.0895   45.4038 H   0  0  0  0  0  0  0  0  0  0  0  0
   60.2740   31.5399   47.1013 H   0  0  0  0  0  0  0  0  0  0  0  0
   56.6979   30.6934   43.3700 H   0  0  0  0  0  0  0  0  0  0  0  0
   56.6189   28.2032   43.4140 H   0  0  0  0  0  0  0  0  0  0  0  0
  1  2  1  0
  2  3  1  0
  3  4  1  0
  4  5  2  0
  4  6  1  0
  6  7  1  0
  7  8  2  0
  8  9  1  0
  9 10  2  0
 10 11  1  0
 11 12  1  0
 12 13  2  0
 12 14  1  0
 14 15  1  0
 15 16  1  0
 16 17  1  0
 17 18  1  0
 18 19  2  0
 18 20  1  0
 20 21  2  0
 21 22  1  0
 22 23  2  0
 23 24  1  0
 23 25  1  0
 25 26  2  0
 17 27  1  0
 27 28  1  0
 10 29  1  0
 29 30  2  0
 30  7  1  0
 28 14  1  0
 26 20  1  0
  1 31  1  0
  1 32  1  0
  1 33  1  0
  2 34  1  0
  2 35  1  0
  6 36  1  0
  6 37  1  0
  8 38  1  0
  9 39  1  0
 15 40  1  0
 15 41  1  0
 16 42  1  0
 16 43  1  0
 21 44  1  0
 22 45  1  0
 25 46  1  0
 26 47  1  0
 27 48  1  0
 27 49  1  0
 28 50  1  0
 28 51  1  0
 29 52  1  0
 30 53  1  0
M  CHG  2   3  -1  11  -1
M  END
>  <UniqueID>  (52) 
50

>  <SMILES>  (52) 
CC[N-]C(=O)Cc1ccc([N-]C(=O)N2CCN(C(=O)c3ccc(F)cc3)CC2)cc1

>  <Energy>  (52) 
60.03778967138086

>  <Genealogy>  (52) 
CC[N-]C(=O)Cc1ccc([N-]C(=O)N2CCN(C(=O)c3ccc(F)cc3)CC2)cc1 (protonated)
CC[N-]C(=O)Cc1ccc([N-]C(=O)N2CCN(C(=O)c3ccc(F)cc3)CC2)cc1 (3D coordinates assigned)
CC[N-]C(=O)Cc1ccc([N-]C(=O)N2CCN(C(=O)c3ccc(F)cc3)CC2)cc1 (nonaromatic ring conformer: 60.03778967138086 kcal/mol)

>  <smiles>  (52) 
CCNC(=O)Cc1ccc(NC(=O)N2CCN(C(=O)c3ccc(F)cc3)CC2)cc1

>  <score_type>  (52) 
oracle

>  <origin>  (52) 
adg

>  <m_score__min__energy>  (52) 
-11.83

>  <m_primary>  (52) 
energy

$$$$
52:0
     RDKit          3D

 29 31  0  0  0  0  0  0  0  0999 V2000
   57.2899   29.0543   42.8903 H   0  0  0  0  0  0  0  0  0  0  0  0
   57.5510   29.6970   43.7440 C   0  0  0  0  0  0  0  0  0  0  0  0
   57.9730   29.1330   44.8840 C   0  0  0  0  0  0  0  0  0  0  0  0
   58.0570   27.7020   44.9530 N   0  0  0  0  0  0  0  0  0  0  0  0
   57.1180   26.9080   45.3780 C   0  0  0  0  0  0  0  0  0  0  0  0
   55.8980   27.3540   45.7320 N   0  0  0  0  0  0  0  0  0  0  0  0
   55.1780   26.2950   46.0700 N   0  0  0  0  0  0  0  0  0  0  0  0
   54.1790   26.3390   46.3730 H   0  0  0  0  0  0  0  0  0  0  0  0
   55.9230   25.1820   45.9350 C   0  0  0  0  0  0  0  0  0  0  0  0
   55.4120   23.7950   46.1380 C   0  0  0  0  0  0  0  0  0  0  0  0
   55.3352   23.5865   47.2153 H   0  0  0  0  0  0  0  0  0  0  0  0
   54.4193   23.6984   45.6742 H   0  0  0  0  0  0  0  0  0  0  0  0
   56.1048   23.0774   45.6742 H   0  0  0  0  0  0  0  0  0  0  0  0
   57.1780   25.5260   45.4740 C   0  0  0  0  0  0  0  0  0  0  0  0
   58.0233   24.8625   45.2390 H   0  0  0  0  0  0  0  0  0  0  0  0
   58.2460   29.9760   46.0760 C   0  0  0  0  0  0  0  0  0  0  0  0
   58.4990   29.4340   47.1860 O   0  0  0  0  0  0  0  0  0  0  0  0
   58.1790   31.4530   45.9680 C   0  0  0  0  0  0  0  0  0  0  0  0
   58.5020   32.2770   47.0590 C   0  0  0  0  0  0  0  0  0  0  0  0
   58.8152   31.8262   48.0122 H   0  0  0  0  0  0  0  0  0  0  0  0
   58.4270   33.6670   46.9380 C   0  0  0  0  0  0  0  0  0  0  0  0
   58.6844   34.3072   47.7947 H   0  0  0  0  0  0  0  0  0  0  0  0
   58.0260   34.2450   45.7320 C   0  0  0  0  0  0  0  0  0  0  0  0
   57.9673   35.3397   45.6413 H   0  0  0  0  0  0  0  0  0  0  0  0
   57.6990   33.4370   44.6400 C   0  0  0  0  0  0  0  0  0  0  0  0
   57.3829   33.8970   43.6921 H   0  0  0  0  0  0  0  0  0  0  0  0
   57.7730   32.0380   44.7500 C   0  0  0  0  0  0  0  0  0  0  0  0
   57.4290   31.1600   43.6090 C   0  0  0  0  0  0  0  0  0  0  0  0
   57.0350   31.6490   42.5160 O   0  0  0  0  0  0  0  0  0  0  0  0
  1  2  1  0
  2  3  2  0
  3  4  1  0
  4  5  2  0
  5  6  1  0
  6  7  1  0
  7  8  1  0
  7  9  1  0
  9 10  1  0
 10 11  1  0
 10 12  1  0
 10 13  1  0
  9 14  2  0
 14 15  1  0
  3 16  1  0
 16 17  2  0
 16 18  1  0
 18 19  2  0
 19 20  1  0
 19 21  1  0
 21 22  1  0
 21 23  2  0
 23 24  1  0
 23 25  1  0
 25 26  1  0
 25 27  2  0
 27 28  1  0
 28 29  2  0
 28  2  1  0
 14  5  1  0
 27 18  1  0
M  CHG  1   6  -1
M  END
>  <UniqueID>  (53) 
51

>  <SMILES>  (53) 
Cc1c/c(=N\C2=CC(=O)c3ccccc3C2=O)[n-][nH]1

>  <Energy>  (53) 
69.54569209176104

>  <Genealogy>  (53) 
Cc1cc(=NC2=CC(=O)c3ccccc3C2=O)[n-][nH]1 (protonated)
Cc1c/c(=N\C2=CC(=O)c3ccccc3C2=O)[n-][nH]1 (cis-trans isomerization)
Cc1c/c(=N\C2=CC(=O)c3ccccc3C2=O)[n-][nH]1 (3D coordinates assigned)
Cc1c/c(=N\C2=CC(=O)c3ccccc3C2=O)[n-][nH]1 (nonaromatic ring conformer: 69.54569209176104 kcal/mol)

>  <smiles>  (53) 
Cc1cc(=NC2=CC(=O)c3ccccc3C2=O)[nH][nH]1

>  <score_type>  (53) 
oracle

>  <origin>  (53) 
adg

>  <m_score__min__energy>  (53) 
-9.5800000000000001

>  <m_primary>  (53) 
energy

$$$$
53:0
     RDKit          3D

 42 44  0  0  1  0  0  0  0  0999 V2000
   60.0090   34.7670   46.4620 C   0  0  0  0  0  0  0  0  0  0  0  0
   59.6410   33.9700   47.6690 C   0  0  0  0  0  0  0  0  0  0  0  0
   60.0510   34.5320   48.8870 C   0  0  0  0  0  0  0  0  0  0  0  0
   59.8890   33.8810   50.0880 C   0  0  0  0  0  0  0  0  0  0  0  0
   59.2990   32.6370   50.0500 C   0  0  0  0  0  0  0  0  0  0  0  0
   58.8950   32.0900   48.8600 C   0  0  0  0  0  0  0  0  0  0  0  0
   59.0540   32.7450   47.6250 C   0  0  0  0  0  0  0  0  0  0  0  0
   58.4620   32.0780   46.4900 C   0  0  0  0  0  0  0  0  0  0  0  0
   57.3880   32.7390   45.9410 N   0  0  0  0  0  0  0  0  0  0  0  0
   56.7330   32.3160   44.8660 C   0  0  0  0  0  0  0  0  0  0  0  0
   57.1530   31.1750   44.2910 N   0  0  0  0  0  0  0  0  0  0  0  0
   58.2070   30.4840   44.7910 C   0  0  0  0  0  0  0  0  0  0  0  0
   58.5300   29.4210   44.2120 N   0  0  0  0  0  0  0  0  0  0  0  0
   58.1110   28.1080   44.4550 C   0  0  0  0  0  0  0  0  0  0  0  0
   57.7130   27.8010   45.7630 C   0  0  0  0  0  0  0  0  0  0  0  0
   57.3530   26.5070   46.0510 C   0  0  0  0  0  0  0  0  0  0  0  0
   57.3690   25.4920   45.0850 C   0  0  0  0  0  0  0  0  0  0  0  0
   57.0140   24.1230   45.3900 C   0  0  0  0  0  0  0  0  0  0  0  0
   57.5470   23.1180   44.7180 C   0  0  0  0  0  0  0  0  0  0  0  0
   58.8940   22.6370   44.9960 C   0  0  0  0  0  0  0  0  0  0  0  0
   59.9680   22.2510   45.2380 N   0  0  0  0  0  0  0  0  0  0  0  0
   56.8560   22.4290   43.6670 C   0  0  0  0  0  0  0  0  0  0  0  0
   56.2760   21.8620   42.8060 N   0  0  0  0  0  0  0  0  0  0  0  0
   57.7670   25.8370   43.8060 C   0  0  0  0  0  0  0  0  0  0  0  0
   58.1410   27.1240   43.4620 C   0  0  0  0  0  0  0  0  0  0  0  0
   58.8960   30.9140   45.9020 C   0  0  0  0  0  0  0  0  0  0  0  0
   60.0980   30.2820   46.3640 C   0  0  0  0  0  0  0  0  0  0  0  0
   61.0880   29.7750   46.7600 N   0  0  0  0  0  0  0  0  0  0  0  0
   60.4510   35.7243   46.7755 H   0  0  0  0  0  0  0  0  0  0  0  0
   60.7390   34.2056   45.8605 H   0  0  0  0  0  0  0  0  0  0  0  0
   59.1082   34.9586   45.8605 H   0  0  0  0  0  0  0  0  0  0  0  0
   60.5183   35.5278   48.8817 H   0  0  0  0  0  0  0  0  0  0  0  0
   60.2159   34.3335   51.0358 H   0  0  0  0  0  0  0  0  0  0  0  0
   59.1504   32.0765   50.9847 H   0  0  0  0  0  0  0  0  0  0  0  0
   58.4258   31.0951   48.8710 H   0  0  0  0  0  0  0  0  0  0  0  0
   57.0390   33.6390   46.3770 H   0  0  0  0  0  0  0  0  0  0  0  0
   55.8786   32.8780   44.4608 H   0  0  0  0  0  0  0  0  0  0  0  0
   57.6894   28.5782   46.5411 H   0  0  0  0  0  0  0  0  0  0  0  0
   57.0411   26.2588   47.0762 H   0  0  0  0  0  0  0  0  0  0  0  0
   56.2905   23.9160   46.1923 H   0  0  0  0  0  0  0  0  0  0  0  0
   57.7870   25.0566   43.0310 H   0  0  0  0  0  0  0  0  0  0  0  0
   58.4534   27.3664   42.4355 H   0  0  0  0  0  0  0  0  0  0  0  0
  1  2  1  0
  2  3  2  0
  3  4  1  0
  4  5  2  0
  5  6  1  0
  6  7  2  0
  7  8  1  0
  8  9  1  0
  9 10  1  0
 10 11  2  0
 11 12  1  0
 12 13  2  0
 13 14  1  0
 14 15  2  0
 15 16  1  0
 16 17  2  0
 17 18  1  0
 18 19  2  3
 19 20  1  0
 20 21  3  0
 19 22  1  0
 22 23  3  0
 17 24  1  0
 24 25  2  0
 12 26  1  0
 26 27  1  0
 27 28  3  0
  7  2  1  0
 26  8  2  0
 25 14  1  0
  1 29  1  0
  1 30  1  0
  1 31  1  0
  3 32  1  0
  4 33  1  0
  5 34  1  0
  6 35  1  0
  9 36  1  0
 10 37  1  0
 15 38  1  0
 16 39  1  0
 18 40  1  0
 24 41  1  0
 25 42  1  0
M  END
>  <smiles>  (54) 
Cc1ccccc1-c1[nH]cnc(=Nc2ccc(C=C(C#N)C#N)cc2)c1C#N

>  <score_type>  (54) 
oracle

>  <origin>  (54) 
adg

>  <m_score__min__energy>  (54) 
-8.4499999999999993

>  <m_primary>  (54) 
energy

$$$$
54:0
     RDKit          3D

 63 67  0  0  0  0  0  0  0  0999 V2000
   66.7690   33.1300   50.8000 C   0  0  0  0  0  0  0  0  0  0  0  0
   65.4960   33.6770   51.1260 O   0  0  0  0  0  0  0  0  0  0  0  0
   64.3570   33.5740   50.3120 C   0  0  0  0  0  0  0  0  0  0  0  0
   64.5140   33.0910   49.0090 C   0  0  0  0  0  0  0  0  0  0  0  0
   63.4110   32.9740   48.1580 C   0  0  0  0  0  0  0  0  0  0  0  0
   62.1360   33.3590   48.5970 C   0  0  0  0  0  0  0  0  0  0  0  0
   60.9780   33.2450   47.6890 C   0  0  0  0  0  0  0  0  0  0  0  0
   59.9230   34.1510   47.6620 C   0  0  0  0  0  0  0  0  0  0  0  0
   59.0210   33.6280   46.7660 C   0  0  0  0  0  0  0  0  0  0  0  0
   57.7740   34.1030   46.3710 C   0  0  0  0  0  0  0  0  0  0  0  0
   57.0330   33.3320   45.4610 C   0  0  0  0  0  0  0  0  0  0  0  0
   57.5460   32.1100   44.9800 C   0  0  0  0  0  0  0  0  0  0  0  0
   58.8080   31.6510   45.3980 C   0  0  0  0  0  0  0  0  0  0  0  0
   59.5350   32.4450   46.2940 C   0  0  0  0  0  0  0  0  0  0  0  0
   60.7450   32.2000   46.8450 N   0  0  0  0  0  0  0  0  0  0  0  0
   61.5290   30.9620   46.7480 C   0  0  0  0  0  0  0  0  0  0  0  0
   60.6540   29.7850   47.0480 C   0  0  0  0  0  0  0  0  0  0  0  0
   60.0470   29.7250   48.1510 O   0  0  0  0  0  0  0  0  0  0  0  0
   60.5010   28.7430   46.0750 N   0  0  0  0  0  0  0  0  0  0  0  0
   59.3580   27.8740   46.0090 C   0  0  0  0  0  0  0  0  0  0  0  0
   58.1580   28.3560   45.4680 C   0  0  0  0  0  0  0  0  0  0  0  0
   57.0230   27.5420   45.4250 C   0  0  0  0  0  0  0  0  0  0  0  0
   57.0640   26.2430   45.9500 C   0  0  0  0  0  0  0  0  0  0  0  0
   55.6170   25.2290   45.9390 S   0  0  0  0  0  0  0  0  0  0  0  0
   55.6160   24.3550   47.1610 O   0  0  0  0  0  0  0  0  0  0  0  0
   54.3990   26.1060   45.9930 O   0  0  0  0  0  0  0  0  0  0  0  0
   55.5430   24.2270   44.5080 N   0  0  0  0  0  0  0  0  0  0  0  0
   56.9010   23.8800   44.0480 C   0  0  0  0  0  0  0  0  0  0  0  0
   56.8660   22.6400   43.1410 C   0  0  0  0  0  0  0  0  0  0  0  0
   56.3440   21.4760   43.7710 O   0  0  0  0  0  0  0  0  0  0  0  0
   55.4970   21.7510   44.8790 C   0  0  0  0  0  0  0  0  0  0  0  0
   54.6780   23.0440   44.7090 C   0  0  0  0  0  0  0  0  0  0  0  0
   58.2590   25.7620   46.5020 C   0  0  0  0  0  0  0  0  0  0  0  0
   59.3960   26.5720   46.5370 C   0  0  0  0  0  0  0  0  0  0  0  0
   61.9710   33.8250   49.9080 C   0  0  0  0  0  0  0  0  0  0  0  0
   63.0720   33.9360   50.7610 C   0  0  0  0  0  0  0  0  0  0  0  0
   67.3152   32.8953   51.7255 H   0  0  0  0  0  0  0  0  0  0  0  0
   66.6332   32.2108   50.2113 H   0  0  0  0  0  0  0  0  0  0  0  0
   67.3424   33.8612   50.2113 H   0  0  0  0  0  0  0  0  0  0  0  0
   65.5129   32.8010   48.6510 H   0  0  0  0  0  0  0  0  0  0  0  0
   63.5438   32.5784   47.1402 H   0  0  0  0  0  0  0  0  0  0  0  0
   59.8303   35.0855   48.2347 H   0  0  0  0  0  0  0  0  0  0  0  0
   57.3807   35.0538   46.7599 H   0  0  0  0  0  0  0  0  0  0  0  0
   56.0473   33.6832   45.1217 H   0  0  0  0  0  0  0  0  0  0  0  0
   56.9545   31.5108   44.2721 H   0  0  0  0  0  0  0  0  0  0  0  0
   59.2125   30.6959   45.0318 H   0  0  0  0  0  0  0  0  0  0  0  0
   61.9353   30.8654   45.7304 H   0  0  0  0  0  0  0  0  0  0  0  0
   62.3546   30.9962   47.4741 H   0  0  0  0  0  0  0  0  0  0  0  0
   61.2680   28.6080   45.3780 H   0  0  0  0  0  0  0  0  0  0  0  0
   58.1095   29.3821   45.0746 H   0  0  0  0  0  0  0  0  0  0  0  0
   56.0931   27.9224   44.9771 H   0  0  0  0  0  0  0  0  0  0  0  0
   57.3194   24.7275   43.4852 H   0  0  0  0  0  0  0  0  0  0  0  0
   57.5264   23.6592   44.9256 H   0  0  0  0  0  0  0  0  0  0  0  0
   56.2405   22.8694   42.2657 H   0  0  0  0  0  0  0  0  0  0  0  0
   57.9080   22.4147   42.8701 H   0  0  0  0  0  0  0  0  0  0  0  0
   54.7999   20.9093   45.0038 H   0  0  0  0  0  0  0  0  0  0  0  0
   56.1428   21.8860   45.7592 H   0  0  0  0  0  0  0  0  0  0  0  0
   54.0185   22.9341   43.8355 H   0  0  0  0  0  0  0  0  0  0  0  0
   54.0971   23.2011   45.6298 H   0  0  0  0  0  0  0  0  0  0  0  0
   58.3015   24.7413   46.9098 H   0  0  0  0  0  0  0  0  0  0  0  0
   60.3269   26.1888   46.9804 H   0  0  0  0  0  0  0  0  0  0  0  0
   60.9698   34.1048   50.2674 H   0  0  0  0  0  0  0  0  0  0  0  0
   62.9347   34.3075   51.7872 H   0  0  0  0  0  0  0  0  0  0  0  0
  1  2  1  0
  2  3  1  0
  3  4  2  0
  4  5  1  0
  5  6  2  0
  6  7  1  0
  7  8  2  0
  8  9  1  0
  9 10  2  0
 10 11  1  0
 11 12  2  0
 12 13  1  0
 13 14  2  0
 14 15  1  0
 15 16  1  0
 16 17  1  0
 17 18  2  0
 17 19  1  0
 19 20  1  0
 20 21  2  0
 21 22  1  0
 22 23  2  0
 23 24  1  0
 24 25  2  0
 24 26  2  0
 24 27  1  0
 27 28  1  0
 28 29  1  0
 29 30  1  0
 30 31  1  0
 31 32  1  0
 23 33  1  0
 33 34  2  0
  6 35  1  0
 35 36  2  0
 36  3  1  0
 15  7  1  0
 34 20  1  0
 14  9  1  0
 32 27  1  0
  1 37  1  0
  1 38  1  0
  1 39  1  0
  4 40  1  0
  5 41  1  0
  8 42  1  0
 10 43  1  0
 11 44  1  0
 12 45  1  0
 13 46  1  0
 16 47  1  0
 16 48  1  0
 19 49  1  0
 21 50  1  0
 22 51  1  0
 28 52  1  0
 28 53  1  0
 29 54  1  0
 29 55  1  0
 31 56  1  0
 31 57  1  0
 32 58  1  0
 32 59  1  0
 33 60  1  0
 34 61  1  0
 35 62  1  0
 36 63  1  0
M  END
>  <UniqueID>  (55) 
52

>  <SMILES>  (55) 
COc1ccc(-c2cc3ccccc3n2CC(=O)Nc2ccc(S(=O)(=O)N3CCOCC3)cc2)cc1

>  <Energy>  (55) 
119.29821619190486

>  <Genealogy>  (55) 
COc1ccc(-c2cc3ccccc3n2CC(=O)Nc2ccc(S(=O)(=O)N3CCOCC3)cc2)cc1 (3D coordinates assigned)
COc1ccc(-c2cc3ccccc3n2CC(=O)Nc2ccc(S(=O)(=O)N3CCOCC3)cc2)cc1 (nonaromatic ring conformer: 119.29821619190486 kcal/mol)

>  <smiles>  (55) 
COc1ccc(-c2cc3ccccc3n2CC(=O)Nc2ccc(S(=O)(=O)N3CCOCC3)cc2)cc1

>  <score_type>  (55) 
oracle

>  <origin>  (55) 
adg

>  <m_score__min__energy>  (55) 
-10.6

>  <m_primary>  (55) 
energy

$$$$
55:0
     RDKit          3D

 67 70  0  0  0  0  0  0  0  0999 V2000
   56.4250   21.2560   44.1280 C   0  0  0  0  0  0  0  0  0  0  0  0
   55.6480   22.4490   44.1980 O   0  0  0  0  0  0  0  0  0  0  0  0
   56.1690   23.7200   44.4840 C   0  0  0  0  0  0  0  0  0  0  0  0
   57.2810   24.2420   43.7960 C   0  0  0  0  0  0  0  0  0  0  0  0
   57.7680   25.5130   44.1040 C   0  0  0  0  0  0  0  0  0  0  0  0
   57.1600   26.2820   45.1050 C   0  0  0  0  0  0  0  0  0  0  0  0
   57.6690   27.6670   45.3980 C   0  0  0  0  0  0  0  0  0  0  0  0
   56.5520   28.5800   45.6110 N   0  0  0  0  0  0  0  0  0  0  0  0
   55.9550   29.3610   44.5690 C   0  0  0  0  0  0  0  0  0  0  0  0
   54.8010   29.0660   44.1490 O   0  0  0  0  0  0  0  0  0  0  0  0
   56.6880   30.5100   43.9880 C   0  0  0  0  0  0  0  0  0  0  0  0
   57.0020   30.5380   42.6180 C   0  0  0  0  0  0  0  0  0  0  0  0
   57.6890   31.6250   42.0700 C   0  0  0  0  0  0  0  0  0  0  0  0
   58.0650   32.6990   42.8800 C   0  0  0  0  0  0  0  0  0  0  0  0
   57.7650   32.6840   44.2490 C   0  0  0  0  0  0  0  0  0  0  0  0
   58.1890   34.0530   45.2740 S   0  0  0  0  0  0  0  0  0  0  0  0
   56.9810   34.9230   45.4950 O   0  0  0  0  0  0  0  0  0  0  0  0
   59.2470   34.8670   44.5810 O   0  0  0  0  0  0  0  0  0  0  0  0
   58.7990   33.4820   46.8110 N   0  0  0  0  0  0  0  0  0  0  0  0
   59.5520   32.2120   46.6410 C   0  0  0  0  0  0  0  0  0  0  0  0
   61.0690   32.3860   46.7800 C   0  0  0  0  0  0  0  0  0  0  0  0
   61.3690   33.0220   48.0670 N   0  0  0  0  0  0  0  0  0  0  0  0
   62.5460   32.6590   48.8090 C   0  0  0  0  0  0  0  0  0  0  0  0
   63.7250   33.4080   48.6540 C   0  0  0  0  0  0  0  0  0  0  0  0
   64.8780   33.0680   49.3650 C   0  0  0  0  0  0  0  0  0  0  0  0
   64.8680   31.9730   50.2290 C   0  0  0  0  0  0  0  0  0  0  0  0
   63.7050   31.2120   50.3860 C   0  0  0  0  0  0  0  0  0  0  0  0
   62.5340   31.5460   49.6770 C   0  0  0  0  0  0  0  0  0  0  0  0
   61.3550   30.7900   49.7970 O   0  0  0  0  0  0  0  0  0  0  0  0
   60.2570   31.1330   50.6360 C   0  0  0  0  0  0  0  0  0  0  0  0
   60.4520   34.0350   48.5990 C   0  0  0  0  0  0  0  0  0  0  0  0
   59.5480   34.5690   47.4840 C   0  0  0  0  0  0  0  0  0  0  0  0
   57.0780   31.5940   44.7980 C   0  0  0  0  0  0  0  0  0  0  0  0
   56.0490   25.7670   45.7900 C   0  0  0  0  0  0  0  0  0  0  0  0
   55.5500   24.4870   45.4830 C   0  0  0  0  0  0  0  0  0  0  0  0
   54.4330   23.9450   46.1410 O   0  0  0  0  0  0  0  0  0  0  0  0
   53.1720   23.7020   45.5250 C   0  0  0  0  0  0  0  0  0  0  0  0
   56.6527   20.9064   45.1458 H   0  0  0  0  0  0  0  0  0  0  0  0
   55.8584   20.4803   43.5921 H   0  0  0  0  0  0  0  0  0  0  0  0
   57.3636   21.4606   43.5921 H   0  0  0  0  0  0  0  0  0  0  0  0
   57.7686   23.6447   43.0114 H   0  0  0  0  0  0  0  0  0  0  0  0
   58.6346   25.9136   43.5575 H   0  0  0  0  0  0  0  0  0  0  0  0
   58.2941   27.6404   46.3028 H   0  0  0  0  0  0  0  0  0  0  0  0
   58.2623   28.0198   44.5415 H   0  0  0  0  0  0  0  0  0  0  0  0
   56.7049   29.6983   41.9725 H   0  0  0  0  0  0  0  0  0  0  0  0
   57.9342   31.6346   40.9977 H   0  0  0  0  0  0  0  0  0  0  0  0
   58.5969   33.5571   42.4432 H   0  0  0  0  0  0  0  0  0  0  0  0
   59.2105   31.4981   47.4051 H   0  0  0  0  0  0  0  0  0  0  0  0
   59.3566   31.8502   45.6207 H   0  0  0  0  0  0  0  0  0  0  0  0
   61.5573   31.4014   46.7342 H   0  0  0  0  0  0  0  0  0  0  0  0
   61.4436   33.0177   45.9611 H   0  0  0  0  0  0  0  0  0  0  0  0
   63.7398   34.2678   47.9681 H   0  0  0  0  0  0  0  0  0  0  0  0
   65.7945   33.6641   49.2436 H   0  0  0  0  0  0  0  0  0  0  0  0
   65.7771   31.7073   50.7883 H   0  0  0  0  0  0  0  0  0  0  0  0
   63.7045   30.3480   51.0668 H   0  0  0  0  0  0  0  0  0  0  0  0
   60.5576   31.0391   51.6900 H   0  0  0  0  0  0  0  0  0  0  0  0
   59.9504   32.1697   50.4331 H   0  0  0  0  0  0  0  0  0  0  0  0
   59.4148   30.4552   50.4331 H   0  0  0  0  0  0  0  0  0  0  0  0
   59.8300   33.5842   49.3863 H   0  0  0  0  0  0  0  0  0  0  0  0
   61.0391   34.8674   49.0142 H   0  0  0  0  0  0  0  0  0  0  0  0
   58.8295   35.2797   47.9185 H   0  0  0  0  0  0  0  0  0  0  0  0
   60.1859   35.0586   46.7334 H   0  0  0  0  0  0  0  0  0  0  0  0
   56.8408   31.5845   45.8721 H   0  0  0  0  0  0  0  0  0  0  0  0
   55.5641   26.3683   46.5732 H   0  0  0  0  0  0  0  0  0  0  0  0
   52.4069   23.5546   46.3015 H   0  0  0  0  0  0  0  0  0  0  0  0
   52.8976   24.5638   44.8989 H   0  0  0  0  0  0  0  0  0  0  0  0
   53.2375   22.8000   44.8989 H   0  0  0  0  0  0  0  0  0  0  0  0
  1  2  1  0
  2  3  1  0
  3  4  2  0
  4  5  1  0
  5  6  2  0
  6  7  1  0
  7  8  1  0
  8  9  1  0
  9 10  2  0
  9 11  1  0
 11 12  2  0
 12 13  1  0
 13 14  2  0
 14 15  1  0
 15 16  1  0
 16 17  2  0
 16 18  2  0
 16 19  1  0
 19 20  1  0
 20 21  1  0
 21 22  1  0
 22 23  1  0
 23 24  2  0
 24 25  1  0
 25 26  2  0
 26 27  1  0
 27 28  2  0
 28 29  1  0
 29 30  1  0
 22 31  1  0
 31 32  1  0
 15 33  2  0
  6 34  1  0
 34 35  2  0
 35 36  1  0
 36 37  1  0
 35  3  1  0
 33 11  1  0
 32 19  1  0
 28 23  1  0
  1 38  1  0
  1 39  1  0
  1 40  1  0
  4 41  1  0
  5 42  1  0
  7 43  1  0
  7 44  1  0
 12 45  1  0
 13 46  1  0
 14 47  1  0
 20 48  1  0
 20 49  1  0
 21 50  1  0
 21 51  1  0
 24 52  1  0
 25 53  1  0
 26 54  1  0
 27 55  1  0
 30 56  1  0
 30 57  1  0
 30 58  1  0
 31 59  1  0
 31 60  1  0
 32 61  1  0
 32 62  1  0
 33 63  1  0
 34 64  1  0
 37 65  1  0
 37 66  1  0
 37 67  1  0
M  CHG  1   8  -1
M  END
>  <UniqueID>  (56) 
53

>  <SMILES>  (56) 
COc1ccc(C[N-]C(=O)c2cccc(S(=O)(=O)N3CCN(c4ccccc4OC)CC3)c2)cc1OC

>  <Energy>  (56) 
76.75656022200725

>  <Genealogy>  (56) 
COc1ccc(C[N-]C(=O)c2cccc(S(=O)(=O)N3CCN(c4ccccc4OC)CC3)c2)cc1OC (protonated)
COc1ccc(C[N-]C(=O)c2cccc(S(=O)(=O)N3CCN(c4ccccc4OC)CC3)c2)cc1OC (3D coordinates assigned)
COc1ccc(C[N-]C(=O)c2cccc(S(=O)(=O)N3CCN(c4ccccc4OC)CC3)c2)cc1OC (nonaromatic ring conformer: 76.75656022200725 kcal/mol)

>  <smiles>  (56) 
COc1ccc(CNC(=O)c2cccc(S(=O)(=O)N3CCN(c4ccccc4OC)CC3)c2)cc1OC

>  <score_type>  (56) 
oracle

>  <origin>  (56) 
adg

>  <m_score__min__energy>  (56) 
-11.779999999999999

>  <m_primary>  (56) 
energy

$$$$
56:0
     RDKit          3D

 31 32  0  0  0  0  0  0  0  0999 V2000
   55.2410   30.6560   51.2570 O   0  0  0  0  0  0  0  0  0  0  0  0
   55.3050   30.2950   52.4630 C   0  0  0  0  0  0  0  0  0  0  0  0
   56.2710   30.9560   53.3900 C   0  0  0  0  0  0  0  0  0  0  0  0
   57.5300   31.2760   52.6300 C   0  0  0  0  0  0  0  0  0  0  0  0
   58.1630   30.2890   51.8550 C   0  0  0  0  0  0  0  0  0  0  0  0
   59.2790   30.6120   51.0770 C   0  0  0  0  0  0  0  0  0  0  0  0
   59.7650   31.9230   51.0580 C   0  0  0  0  0  0  0  0  0  0  0  0
   59.1340   32.9140   51.8150 C   0  0  0  0  0  0  0  0  0  0  0  0
   59.6090   34.2190   51.7840 O   0  0  0  0  0  0  0  0  0  0  0  0
   58.0210   32.5930   52.5990 C   0  0  0  0  0  0  0  0  0  0  0  0
   54.5480   29.1730   52.9240 N   0  0  0  0  0  0  0  0  0  0  0  0
   53.1280   29.2660   53.2390 C   0  0  0  0  0  0  0  0  0  0  0  0
   52.4480   30.1290   52.2060 C   0  0  0  0  0  0  0  0  0  0  0  0
   52.4510   29.7410   50.8560 C   0  0  0  0  0  0  0  0  0  0  0  0
   51.7410   30.4810   49.9070 C   0  0  0  0  0  0  0  0  0  0  0  0
   51.0160   31.6100   50.2950 C   0  0  0  0  0  0  0  0  0  0  0  0
   50.3070   32.3370   49.3470 O   0  0  0  0  0  0  0  0  0  0  0  0
   51.0000   32.0020   51.6390 C   0  0  0  0  0  0  0  0  0  0  0  0
   50.2720   33.1230   52.0270 O   0  0  0  0  0  0  0  0  0  0  0  0
   51.7090   31.2630   52.5950 C   0  0  0  0  0  0  0  0  0  0  0  0
   51.6650   31.6510   53.9310 O   0  0  0  0  0  0  0  0  0  0  0  0
   55.8303   31.8840   53.7831 H   0  0  0  0  0  0  0  0  0  0  0  0
   56.5018   30.2849   54.2304 H   0  0  0  0  0  0  0  0  0  0  0  0
   57.7789   29.2583   51.8605 H   0  0  0  0  0  0  0  0  0  0  0  0
   59.7754   29.8336   50.4790 H   0  0  0  0  0  0  0  0  0  0  0  0
   60.6444   32.1745   50.4469 H   0  0  0  0  0  0  0  0  0  0  0  0
   57.5273   33.3751   53.1944 H   0  0  0  0  0  0  0  0  0  0  0  0
   52.6822   28.2604   53.2299 H   0  0  0  0  0  0  0  0  0  0  0  0
   52.9984   29.7110   54.2366 H   0  0  0  0  0  0  0  0  0  0  0  0
   53.0154   28.8498   50.5442 H   0  0  0  0  0  0  0  0  0  0  0  0
   51.7531   30.1734   48.8509 H   0  0  0  0  0  0  0  0  0  0  0  0
  1  2  2  0
  2  3  1  0
  3  4  1  0
  4  5  2  0
  5  6  1  0
  6  7  2  0
  7  8  1  0
  8  9  1  0
  8 10  2  0
  2 11  1  0
 11 12  1  0
 12 13  1  0
 13 14  2  0
 14 15  1  0
 15 16  2  0
 16 17  1  0
 16 18  1  0
 18 19  1  0
 18 20  2  0
 20 21  1  0
 10  4  1  0
 20 13  1  0
  3 22  1  0
  3 23  1  0
  5 24  1  0
  6 25  1  0
  7 26  1  0
 10 27  1  0
 12 28  1  0
 12 29  1  0
 14 30  1  0
 15 31  1  0
M  CHG  5   9  -1  11  -1  17  -1  19  -1  21  -1
M  END
>  <UniqueID>  (57) 
54

>  <SMILES>  (57) 
O=C(Cc1cccc([O-])c1)[N-]Cc1ccc([O-])c([O-])c1[O-]

>  <Energy>  (57) 
27.047024192744203

>  <Genealogy>  (57) 
O=C(Cc1cccc([O-])c1)[N-]Cc1ccc([O-])c([O-])c1[O-] (protonated)
O=C(Cc1cccc([O-])c1)[N-]Cc1ccc([O-])c([O-])c1[O-] (3D coordinates assigned)
O=C(Cc1cccc([O-])c1)[N-]Cc1ccc([O-])c([O-])c1[O-] (optimized conformer: 27.047024192744203 kcal/mol)

>  <smiles>  (57) 
O=C(Cc1cccc(O)c1)NCc1ccc(O)c(O)c1O

>  <score_type>  (57) 
oracle

>  <origin>  (57) 
adg

>  <m_score__min__energy>  (57) 
-18.079999999999998

>  <m_primary>  (57) 
energy

$$$$
57:0
     RDKit          3D

 55 57  0  0  0  0  0  0  0  0999 V2000
   60.2950   30.3000   44.6740 H   0  0  0  0  0  0  0  0  0  0  0  0
   59.4330   29.7540   45.0850 C   0  0  0  0  0  0  0  0  0  0  0  0
   58.6350   30.3920   46.1500 C   0  0  0  0  0  0  0  0  0  0  0  0
   57.4050   30.5840   45.9480 O   0  0  0  0  0  0  0  0  0  0  0  0
   59.2190   30.7730   47.4050 N   0  0  0  0  0  0  0  0  0  0  0  0
   60.1250   30.3420   47.6940 H   0  0  0  0  0  0  0  0  0  0  0  0
   58.5210   31.6700   48.3250 C   0  0  0  0  0  0  0  0  0  0  0  0
   57.4881   31.8073   47.9725 H   0  0  0  0  0  0  0  0  0  0  0  0
   58.5415   31.2144   49.3260 H   0  0  0  0  0  0  0  0  0  0  0  0
   59.2040   33.0480   48.4140 C   0  0  0  0  0  0  0  0  0  0  0  0
   59.1102   33.4260   49.4428 H   0  0  0  0  0  0  0  0  0  0  0  0
   60.2602   32.9246   48.1325 H   0  0  0  0  0  0  0  0  0  0  0  0
   58.5920   34.0270   47.4860 N   0  0  0  0  0  0  0  0  0  0  0  0
   57.4270   33.4520   46.7640 C   0  0  0  0  0  0  0  0  0  0  0  0
   57.6569   32.4116   46.4907 H   0  0  0  0  0  0  0  0  0  0  0  0
   56.5542   33.5048   47.4314 H   0  0  0  0  0  0  0  0  0  0  0  0
   57.0960   34.2370   45.4890 C   0  0  0  0  0  0  0  0  0  0  0  0
   56.2036   33.7990   45.0181 H   0  0  0  0  0  0  0  0  0  0  0  0
   56.9116   35.2867   45.7612 H   0  0  0  0  0  0  0  0  0  0  0  0
   58.2660   34.1870   44.4930 C   0  0  0  0  0  0  0  0  0  0  0  0
   58.1128   33.3372   43.8115 H   0  0  0  0  0  0  0  0  0  0  0  0
   58.2833   35.1435   43.9501 H   0  0  0  0  0  0  0  0  0  0  0  0
   59.6280   34.0210   45.1900 C   0  0  0  0  0  0  0  0  0  0  0  0
   59.8588   32.9490   45.2773 H   0  0  0  0  0  0  0  0  0  0  0  0
   60.3935   34.5331   44.5885 H   0  0  0  0  0  0  0  0  0  0  0  0
   59.6100   34.6460   46.5920 C   0  0  0  0  0  0  0  0  0  0  0  0
   60.6030   34.5168   47.0474 H   0  0  0  0  0  0  0  0  0  0  0  0
   59.3490   35.7085   46.4780 H   0  0  0  0  0  0  0  0  0  0  0  0
   59.1520   28.5370   44.5970 C   0  0  0  0  0  0  0  0  0  0  0  0
   59.5699   28.2640   43.6168 H   0  0  0  0  0  0  0  0  0  0  0  0
   58.3110   27.5360   45.3000 C   0  0  0  0  0  0  0  0  0  0  0  0
   58.9460   26.4600   45.9400 C   0  0  0  0  0  0  0  0  0  0  0  0
   60.0431   26.3843   45.9170 H   0  0  0  0  0  0  0  0  0  0  0  0
   58.2000   25.4840   46.6060 C   0  0  0  0  0  0  0  0  0  0  0  0
   58.7140   24.6539   47.1128 H   0  0  0  0  0  0  0  0  0  0  0  0
   56.7960   25.5570   46.6320 C   0  0  0  0  0  0  0  0  0  0  0  0
   56.0020   24.5980   47.2830 O   0  0  0  0  0  0  0  0  0  0  0  0
   55.9860   23.2000   46.9880 C   0  0  0  0  0  0  0  0  0  0  0  0
   56.7925   22.7041   47.5481 H   0  0  0  0  0  0  0  0  0  0  0  0
   55.0081   22.7896   47.2799 H   0  0  0  0  0  0  0  0  0  0  0  0
   56.1890   22.9610   45.5150 C   0  0  0  0  0  0  0  0  0  0  0  0
   55.3270   23.5560   44.5800 C   0  0  0  0  0  0  0  0  0  0  0  0
   54.5067   24.2025   44.9252 H   0  0  0  0  0  0  0  0  0  0  0  0
   55.5070   23.3300   43.2110 C   0  0  0  0  0  0  0  0  0  0  0  0
   54.8320   23.8032   42.4827 H   0  0  0  0  0  0  0  0  0  0  0  0
   56.5430   22.5040   42.7680 C   0  0  0  0  0  0  0  0  0  0  0  0
   56.6857   22.3301   41.6912 H   0  0  0  0  0  0  0  0  0  0  0  0
   57.3990   21.8980   43.6940 C   0  0  0  0  0  0  0  0  0  0  0  0
   58.2128   21.2455   43.3448 H   0  0  0  0  0  0  0  0  0  0  0  0
   57.2210   22.1210   45.0630 C   0  0  0  0  0  0  0  0  0  0  0  0
   57.8912   21.6371   45.7887 H   0  0  0  0  0  0  0  0  0  0  0  0
   56.1570   26.6220   45.9860 C   0  0  0  0  0  0  0  0  0  0  0  0
   54.7700   26.7090   45.9950 O   0  0  0  0  0  0  0  0  0  0  0  0
   56.9040   27.6020   45.3210 C   0  0  0  0  0  0  0  0  0  0  0  0
   56.3885   28.4293   44.8113 H   0  0  0  0  0  0  0  0  0  0  0  0
  1  2  1  0
  2  3  1  0
  3  4  2  0
  3  5  1  0
  5  6  1  0
  5  7  1  0
  7  8  1  0
  7  9  1  0
  7 10  1  0
 10 11  1  0
 10 12  1  0
 10 13  1  0
 13 14  1  0
 14 15  1  0
 14 16  1  0
 14 17  1  0
 17 18  1  0
 17 19  1  0
 17 20  1  0
 20 21  1  0
 20 22  1  0
 20 23  1  0
 23 24  1  0
 23 25  1  0
 23 26  1  0
 26 27  1  0
 26 28  1  0
  2 29  2  0
 29 30  1  0
 29 31  1  0
 31 32  2  0
 32 33  1  0
 32 34  1  0
 34 35  1  0
 34 36  2  0
 36 37  1  0
 37 38  1  0
 38 39  1  0
 38 40  1  0
 38 41  1  0
 41 42  2  0
 42 43  1  0
 42 44  1  0
 44 45  1  0
 44 46  2  0
 46 47  1  0
 46 48  1  0
 48 49  1  0
 48 50  2  0
 50 51  1  0
 36 52  1  0
 52 53  1  0
 52 54  2  0
 54 55  1  0
 26 13  1  0
 54 31  1  0
 50 41  1  0
M  CHG  1  53  -1
M  END
>  <UniqueID>  (58) 
55

>  <SMILES>  (58) 
O=C(/C=C/c1ccc(OCc2ccccc2)c([O-])c1)NCCN1CCCCC1

>  <Energy>  (58) 
64.61590785691062

>  <Genealogy>  (58) 
O=C(C=Cc1ccc(OCc2ccccc2)c([O-])c1)NCCN1CCCCC1 (protonated)
O=C(/C=C/c1ccc(OCc2ccccc2)c([O-])c1)NCCN1CCCCC1 (cis-trans isomerization)
O=C(/C=C/c1ccc(OCc2ccccc2)c([O-])c1)NCCN1CCCCC1 (3D coordinates assigned)
O=C(/C=C/c1ccc(OCc2ccccc2)c([O-])c1)NCCN1CCCCC1 (nonaromatic ring conformer: 64.61590785691062 kcal/mol)

>  <smiles>  (58) 
O=C(C=Cc1ccc(OCc2ccccc2)c(O)c1)NCCN1CCCCC1

>  <score_type>  (58) 
oracle

>  <origin>  (58) 
adg

>  <m_score__min__energy>  (58) 
-13.01

>  <m_primary>  (58) 
energy

$$$$
58:0
     RDKit          3D

 46 48  0  0  1  0  0  0  0  0999 V2000
   55.0760   25.3390   45.6190 C   0  0  0  0  0  0  0  0  0  0  0  0
   55.4170   26.6820   45.8610 O   0  0  0  0  0  0  0  0  0  0  0  0
   56.7630   27.0010   45.9970 C   0  0  0  0  0  0  0  0  0  0  0  0
   57.6880   26.0970   46.4790 C   0  0  0  0  0  0  0  0  0  0  0  0
   59.0290   26.3890   46.6230 C   0  0  0  0  0  0  0  0  0  0  0  0
   59.4530   27.6690   46.2580 C   0  0  0  0  0  0  0  0  0  0  0  0
   58.5450   28.5880   45.7730 C   0  0  0  0  0  0  0  0  0  0  0  0
   57.1880   28.2800   45.6320 C   0  0  0  0  0  0  0  0  0  0  0  0
   57.9080   33.5660   45.1230 N   0  0  0  0  0  0  0  0  0  0  0  0
   57.5680   32.4990   44.4760 C   0  0  0  0  0  0  0  0  0  0  0  0
   56.8660   30.2990   43.1340 C   0  0  0  0  0  0  0  0  0  0  0  0
   57.3510   31.4120   42.4550 C   0  0  0  0  0  0  0  0  0  0  0  0
   57.7020   32.5170   43.1390 N   0  0  0  0  0  0  0  0  0  0  0  0
   56.7350   30.2980   44.5090 C   0  0  0  0  0  0  0  0  0  0  0  0
   56.2830   29.2580   45.1270 N   0  0  0  0  0  0  0  0  0  0  0  0
   58.8320   33.5420   46.2080 C   0  0  0  0  0  0  0  0  0  0  0  0
   60.1650   33.8740   46.0700 C   0  0  0  0  0  0  0  0  0  0  0  0
   61.0130   33.8290   47.1720 C   0  0  0  0  0  0  0  0  0  0  0  0
   60.5000   33.4460   48.4030 C   0  0  0  0  0  0  0  0  0  0  0  0
   59.1810   33.1110   48.5680 C   0  0  0  0  0  0  0  0  0  0  0  0
   58.6020   32.7240   49.7560 O   0  0  0  0  0  0  0  0  0  0  0  0
   58.8460   31.5290   50.4410 C   0  0  0  0  0  0  0  0  0  0  0  0
   57.7180   31.0040   51.2180 C   0  0  0  0  0  0  0  0  0  0  0  0
   56.7170   31.7960   51.8420 N   0  0  0  0  0  0  0  0  0  0  0  0
   57.6420   29.7320   51.3330 O   0  0  0  0  0  0  0  0  0  0  0  0
   58.3470   33.1620   47.4540 C   0  0  0  0  0  0  0  0  0  0  0  0
   57.0990   31.4290   45.1540 N   0  0  0  0  0  0  0  0  0  0  0  0
   54.9432   24.8160   46.5775 H   0  0  0  0  0  0  0  0  0  0  0  0
   54.1385   25.2964   45.0451 H   0  0  0  0  0  0  0  0  0  0  0  0
   55.8796   24.8543   45.0451 H   0  0  0  0  0  0  0  0  0  0  0  0
   57.3386   25.0933   46.7626 H   0  0  0  0  0  0  0  0  0  0  0  0
   59.7374   25.6420   47.0106 H   0  0  0  0  0  0  0  0  0  0  0  0
   60.5132   27.9450   46.3574 H   0  0  0  0  0  0  0  0  0  0  0  0
   58.8982   29.5904   45.4895 H   0  0  0  0  0  0  0  0  0  0  0  0
   56.5812   29.4019   42.5646 H   0  0  0  0  0  0  0  0  0  0  0  0
   57.4477   31.3892   41.3595 H   0  0  0  0  0  0  0  0  0  0  0  0
   58.0730   33.3770   42.6510 H   0  0  0  0  0  0  0  0  0  0  0  0
   60.5572   34.1746   45.0872 H   0  0  0  0  0  0  0  0  0  0  0  0
   62.0757   34.0935   47.0688 H   0  0  0  0  0  0  0  0  0  0  0  0
   61.1722   33.4101   49.2730 H   0  0  0  0  0  0  0  0  0  0  0  0
   59.1317   30.7667   49.7012 H   0  0  0  0  0  0  0  0  0  0  0  0
   59.6360   31.7562   51.1719 H   0  0  0  0  0  0  0  0  0  0  0  0
   56.6660   31.9580   52.8640 H   0  0  0  0  0  0  0  0  0  0  0  0
   55.9690   32.2580   51.2490 H   0  0  0  0  0  0  0  0  0  0  0  0
   57.2849   32.8967   47.5620 H   0  0  0  0  0  0  0  0  0  0  0  0
   57.0060   31.4470   46.1990 H   0  0  0  0  0  0  0  0  0  0  0  0
  1  2  1  0
  2  3  1  0
  3  4  2  0
  4  5  1  0
  5  6  2  0
  6  7  1  0
  7  8  2  0
  8  9  1  0
  9 10  2  0
 10 11  1  0
 11 12  2  0
 12 13  1  0
 13 14  1  0
 14 15  2  0
 15 16  1  0
 16 17  2  0
 17 18  1  0
 18 19  2  0
 19 20  1  0
 20 21  1  0
 21 22  1  0
 22 23  1  0
 23 24  1  0
 23 25  2  0
 20 26  2  0
 14 27  1  0
  8  3  1  0
 27 10  1  0
 26 16  1  0
  1 28  1  0
  1 29  1  0
  1 30  1  0
  4 31  1  0
  5 32  1  0
  6 33  1  0
  7 34  1  0
 11 35  1  0
 12 36  1  0
 13 37  1  0
 17 38  1  0
 18 39  1  0
 19 40  1  0
 22 41  1  0
 22 42  1  0
 24 43  1  0
 24 44  1  0
 26 45  1  0
 27 46  1  0
M  END
>  <smiles>  (59) 
COc1ccccc1N=c1cc[nH]c(=Nc2cccc(OCC(N)=O)c2)[nH]1

>  <score_type>  (59) 
oracle

>  <origin>  (59) 
adg

>  <m_score__min__energy>  (59) 
-8.2400000000000002

>  <m_primary>  (59) 
energy

$$$$
59:0
     RDKit          3D

 53 57  0  0  0  0  0  0  0  0999 V2000
   53.0820   24.4410   45.9480 O   0  0  0  0  0  0  0  0  0  0  0  0
   54.1890   24.9350   45.6070 C   0  0  0  0  0  0  0  0  0  0  0  0
   54.4750   26.2550   45.9390 O   0  0  0  0  0  0  0  0  0  0  0  0
   55.1360   24.1320   44.8170 C   0  0  0  0  0  0  0  0  0  0  0  0
   54.7340   23.2330   43.9000 N   0  0  0  0  0  0  0  0  0  0  0  0
   55.8850   22.8140   43.3390 C   0  0  0  0  0  0  0  0  0  0  0  0
   55.9210   21.9590   42.4180 O   0  0  0  0  0  0  0  0  0  0  0  0
   56.9950   23.3890   43.8400 N   0  0  0  0  0  0  0  0  0  0  0  0
   56.5210   24.2220   44.7860 C   0  0  0  0  0  0  0  0  0  0  0  0
   57.4050   25.0260   45.6550 C   0  0  0  0  0  0  0  0  0  0  0  0
   57.1870   25.0920   47.0400 C   0  0  0  0  0  0  0  0  0  0  0  0
   58.0480   25.8320   47.8540 C   0  0  0  0  0  0  0  0  0  0  0  0
   59.1450   26.5050   47.3060 C   0  0  0  0  0  0  0  0  0  0  0  0
   59.9680   27.2470   48.1690 O   0  0  0  0  0  0  0  0  0  0  0  0
   60.5920   28.4910   47.8460 C   0  0  0  0  0  0  0  0  0  0  0  0
   60.0930   29.5930   48.7440 C   0  0  0  0  0  0  0  0  0  0  0  0
   60.3730   29.5600   50.1190 C   0  0  0  0  0  0  0  0  0  0  0  0
   59.9110   30.5790   50.9560 C   0  0  0  0  0  0  0  0  0  0  0  0
   59.1780   31.6430   50.4250 C   0  0  0  0  0  0  0  0  0  0  0  0
   58.9110   31.7080   49.0540 C   0  0  0  0  0  0  0  0  0  0  0  0
   58.1950   32.8120   48.5670 O   0  0  0  0  0  0  0  0  0  0  0  0
   58.6180   33.6300   47.4790 C   0  0  0  0  0  0  0  0  0  0  0  0
   58.2130   32.9890   46.1870 C   0  0  0  0  0  0  0  0  0  0  0  0
   58.2460   33.7190   44.9910 C   0  0  0  0  0  0  0  0  0  0  0  0
   57.8520   33.1080   43.7990 C   0  0  0  0  0  0  0  0  0  0  0  0
   57.4280   31.7740   43.8080 C   0  0  0  0  0  0  0  0  0  0  0  0
   57.0300   31.1280   42.6280 C   0  0  0  0  0  0  0  0  0  0  0  0
   56.6180   29.7910   42.6690 C   0  0  0  0  0  0  0  0  0  0  0  0
   56.6000   29.0960   43.8830 C   0  0  0  0  0  0  0  0  0  0  0  0
   56.9930   29.7340   45.0640 C   0  0  0  0  0  0  0  0  0  0  0  0
   57.4080   31.0700   45.0340 C   0  0  0  0  0  0  0  0  0  0  0  0
   57.7940   31.6940   46.1790 N   0  0  0  0  0  0  0  0  0  0  0  0
   59.3750   30.6770   48.2130 C   0  0  0  0  0  0  0  0  0  0  0  0
   59.3850   26.4100   45.9210 C   0  0  0  0  0  0  0  0  0  0  0  0
   58.5220   25.6700   45.1060 C   0  0  0  0  0  0  0  0  0  0  0  0
   56.3346   24.5588   47.4863 H   0  0  0  0  0  0  0  0  0  0  0  0
   57.8614   25.8860   48.9367 H   0  0  0  0  0  0  0  0  0  0  0  0
   61.6804   28.3907   47.9700 H   0  0  0  0  0  0  0  0  0  0  0  0
   60.3454   28.7476   46.8052 H   0  0  0  0  0  0  0  0  0  0  0  0
   60.9583   28.7288   50.5392 H   0  0  0  0  0  0  0  0  0  0  0  0
   60.1248   30.5433   52.0344 H   0  0  0  0  0  0  0  0  0  0  0  0
   58.8078   32.4363   51.0910 H   0  0  0  0  0  0  0  0  0  0  0  0
   58.1473   34.6209   47.5603 H   0  0  0  0  0  0  0  0  0  0  0  0
   59.7120   33.7410   47.5067 H   0  0  0  0  0  0  0  0  0  0  0  0
   58.5803   34.7670   44.9914 H   0  0  0  0  0  0  0  0  0  0  0  0
   57.8747   33.6733   42.8556 H   0  0  0  0  0  0  0  0  0  0  0  0
   57.0417   31.6716   41.6718 H   0  0  0  0  0  0  0  0  0  0  0  0
   56.3072   29.2848   41.7432 H   0  0  0  0  0  0  0  0  0  0  0  0
   56.2759   28.0451   43.9088 H   0  0  0  0  0  0  0  0  0  0  0  0
   56.9758   29.1851   46.0171 H   0  0  0  0  0  0  0  0  0  0  0  0
   59.1734   30.7215   47.1326 H   0  0  0  0  0  0  0  0  0  0  0  0
   60.2540   26.9195   45.4790 H   0  0  0  0  0  0  0  0  0  0  0  0
   58.7215   25.5931   44.0270 H   0  0  0  0  0  0  0  0  0  0  0  0
  1  2  2  0
  2  3  1  0
  2  4  1  0
  4  5  1  0
  5  6  1  0
  6  7  2  0
  6  8  1  0
  8  9  1  0
  9 10  1  0
 10 11  2  0
 11 12  1  0
 12 13  2  0
 13 14  1  0
 14 15  1  0
 15 16  1  0
 16 17  2  0
 17 18  1  0
 18 19  2  0
 19 20  1  0
 20 21  1  0
 21 22  1  0
 22 23  1  0
 23 24  2  0
 24 25  1  0
 25 26  2  0
 26 27  1  0
 27 28  2  0
 28 29  1  0
 29 30  2  0
 30 31  1  0
 31 32  2  0
 20 33  2  0
 13 34  1  0
 34 35  2  0
  9  4  2  0
 35 10  1  0
 33 16  1  0
 32 23  1  0
 31 26  1  0
 11 36  1  0
 12 37  1  0
 15 38  1  0
 15 39  1  0
 17 40  1  0
 18 41  1  0
 19 42  1  0
 22 43  1  0
 22 44  1  0
 24 45  1  0
 25 46  1  0
 27 47  1  0
 28 48  1  0
 29 49  1  0
 30 50  1  0
 33 51  1  0
 34 52  1  0
 35 53  1  0
M  CHG  3   3  -1   5  -1   8  -1
M  END
>  <UniqueID>  (60) 
56

>  <SMILES>  (60) 
O=C([O-])c1[n-]c(=O)[n-]c1-c1ccc(OCc2cccc(OCc3ccc4ccccc4n3)c2)cc1

>  <Energy>  (60) 
95.73189410200479

>  <Genealogy>  (60) 
O=C([O-])c1[n-]c(=O)[n-]c1-c1ccc(OCc2cccc(OCc3ccc4ccccc4n3)c2)cc1 (protonated)
O=C([O-])c1[n-]c(=O)[n-]c1-c1ccc(OCc2cccc(OCc3ccc4ccccc4n3)c2)cc1 (3D coordinates assigned)
O=C([O-])c1[n-]c(=O)[n-]c1-c1ccc(OCc2cccc(OCc3ccc4ccccc4n3)c2)cc1 (optimized conformer: 95.73189410200479 kcal/mol)

>  <smiles>  (60) 
O=C(O)c1[nH]c(=O)[nH]c1-c1ccc(OCc2cccc(OCc3ccc4ccccc4n3)c2)cc1

>  <score_type>  (60) 
oracle

>  <origin>  (60) 
adg

>  <m_score__min__energy>  (60) 
-15.42

>  <m_primary>  (60) 
energy

$$$$
60:0
     RDKit          3D

 27 28  0  0  0  0  0  0  0  0999 V2000
   60.3910   30.8810   47.5600 C   0  0  0  0  0  0  0  0  0  0  0  0
   59.6520   31.5370   46.4240 C   0  0  0  0  0  0  0  0  0  0  0  0
   59.4840   32.9320   46.4460 C   0  0  0  0  0  0  0  0  0  0  0  0
   58.7490   33.5760   45.4480 C   0  0  0  0  0  0  0  0  0  0  0  0
   58.1700   32.8330   44.4190 C   0  0  0  0  0  0  0  0  0  0  0  0
   58.3450   31.4500   44.3710 C   0  0  0  0  0  0  0  0  0  0  0  0
   59.1130   30.7920   45.3430 C   0  0  0  0  0  0  0  0  0  0  0  0
   59.2890   29.3700   45.2260 N   0  0  0  0  0  0  0  0  0  0  0  0
   58.3680   28.3920   45.7290 C   0  0  0  0  0  0  0  0  0  0  0  0
   58.7890   27.2380   46.8770 S   0  0  0  0  0  0  0  0  0  0  0  0
   57.3140   26.4360   46.8870 C   0  0  0  0  0  0  0  0  0  0  0  0
   56.4660   27.0790   45.9940 C   0  0  0  0  0  0  0  0  0  0  0  0
   55.1550   26.6650   45.7960 O   0  0  0  0  0  0  0  0  0  0  0  0
   57.0360   28.1880   45.3410 C   0  0  0  0  0  0  0  0  0  0  0  0
   56.2720   29.0600   44.4250 C   0  0  0  0  0  0  0  0  0  0  0  0
   55.1460   29.7910   44.9030 N   0  0  0  0  0  0  0  0  0  0  0  0
   56.6290   29.1890   43.2240 O   0  0  0  0  0  0  0  0  0  0  0  0
   59.9858   31.2407   48.5173 H   0  0  0  0  0  0  0  0  0  0  0  0
   60.2673   29.7898   47.4963 H   0  0  0  0  0  0  0  0  0  0  0  0
   61.4598   31.1332   47.4963 H   0  0  0  0  0  0  0  0  0  0  0  0
   59.9356   33.5224   47.2569 H   0  0  0  0  0  0  0  0  0  0  0  0
   58.6267   34.6689   45.4734 H   0  0  0  0  0  0  0  0  0  0  0  0
   57.5746   33.3385   43.6444 H   0  0  0  0  0  0  0  0  0  0  0  0
   57.8761   30.8695   43.5628 H   0  0  0  0  0  0  0  0  0  0  0  0
   60.1370   29.0220   44.7250 H   0  0  0  0  0  0  0  0  0  0  0  0
   57.0627   25.5545   47.4951 H   0  0  0  0  0  0  0  0  0  0  0  0
   54.4430   29.3420   45.5320 H   0  0  0  0  0  0  0  0  0  0  0  0
  1  2  1  0
  2  3  2  0
  3  4  1  0
  4  5  2  0
  5  6  1  0
  6  7  2  0
  7  8  1  0
  8  9  1  0
  9 10  1  0
 10 11  1  0
 11 12  2  0
 12 13  1  0
 12 14  1  0
 14 15  1  0
 15 16  1  0
 15 17  2  0
  7  2  1  0
 14  9  2  0
  1 18  1  0
  1 19  1  0
  1 20  1  0
  3 21  1  0
  4 22  1  0
  5 23  1  0
  6 24  1  0
  8 25  1  0
 11 26  1  0
 16 27  1  0
M  CHG  2  13  -1  16  -1
M  END
>  <UniqueID>  (61) 
57

>  <SMILES>  (61) 
Cc1ccccc1Nc1scc([O-])c1C([NH-])=O

>  <Energy>  (61) 
64.66030790917574

>  <Genealogy>  (61) 
Cc1ccccc1Nc1scc([O-])c1C([NH-])=O (protonated)
Cc1ccccc1Nc1scc([O-])c1C([NH-])=O (3D coordinates assigned)
Cc1ccccc1Nc1scc([O-])c1C([NH-])=O (optimized conformer: 64.66030790917574 kcal/mol)

>  <smiles>  (61) 
Cc1ccccc1Nc1scc(O)c1C(N)=O

>  <score_type>  (61) 
oracle

>  <origin>  (61) 
adg

>  <m_score__min__energy>  (61) 
-12.74

>  <m_primary>  (61) 
energy

$$$$
61:0
     RDKit          3D

 54 57  0  0  0  0  0  0  0  0999 V2000
   58.9940   32.9270   47.3640 C   0  0  0  0  0  0  0  0  0  0  0  0
   60.4900   32.7840   47.3550 C   0  0  0  0  0  0  0  0  0  0  0  0
   61.2900   33.7770   46.7650 C   0  0  0  0  0  0  0  0  0  0  0  0
   62.6800   33.6590   46.7690 C   0  0  0  0  0  0  0  0  0  0  0  0
   63.2850   32.5530   47.3650 C   0  0  0  0  0  0  0  0  0  0  0  0
   62.5030   31.5600   47.9600 C   0  0  0  0  0  0  0  0  0  0  0  0
   61.0980   31.6680   47.9640 C   0  0  0  0  0  0  0  0  0  0  0  0
   60.2730   30.6910   48.5520 O   0  0  0  0  0  0  0  0  0  0  0  0
   60.5980   29.3090   48.7110 C   0  0  0  0  0  0  0  0  0  0  0  0
   59.3680   28.4200   48.5020 C   0  0  0  0  0  0  0  0  0  0  0  0
   59.5720   27.2830   47.0840 S   0  0  0  0  0  0  0  0  0  0  0  0
   58.8450   28.3890   45.8690 C   0  0  0  0  0  0  0  0  0  0  0  0
   59.0670   29.7300   45.8910 N   0  0  0  0  0  0  0  0  0  0  0  0
   58.3340   30.1730   44.8540 C   0  0  0  0  0  0  0  0  0  0  0  0
   58.2030   31.4850   44.4070 C   0  0  0  0  0  0  0  0  0  0  0  0
   57.3830   31.7170   43.2880 C   0  0  0  0  0  0  0  0  0  0  0  0
   56.7210   30.6430   42.6500 C   0  0  0  0  0  0  0  0  0  0  0  0
   56.8730   29.3280   43.1270 C   0  0  0  0  0  0  0  0  0  0  0  0
   57.6930   29.1360   44.2410 C   0  0  0  0  0  0  0  0  0  0  0  0
   58.0040   27.9940   44.8770 N   0  0  0  0  0  0  0  0  0  0  0  0
   57.5620   26.6360   44.5430 C   0  0  0  0  0  0  0  0  0  0  0  0
   56.6650   26.0680   45.6160 C   0  0  0  0  0  0  0  0  0  0  0  0
   55.6760   26.7470   46.0110 O   0  0  0  0  0  0  0  0  0  0  0  0
   56.9030   24.7590   46.1820 N   0  0  0  0  0  0  0  0  0  0  0  0
   58.0140   23.9230   45.7060 C   0  0  0  0  0  0  0  0  0  0  0  0
   57.7390   22.4450   45.9980 C   0  0  0  0  0  0  0  0  0  0  0  0
   57.3850   22.2560   47.3530 O   0  0  0  0  0  0  0  0  0  0  0  0
   56.1500   22.8940   47.6100 C   0  0  0  0  0  0  0  0  0  0  0  0
   56.2830   24.4120   47.4690 C   0  0  0  0  0  0  0  0  0  0  0  0
   58.6352   32.9613   48.4033 H   0  0  0  0  0  0  0  0  0  0  0  0
   58.7114   33.8563   46.8477 H   0  0  0  0  0  0  0  0  0  0  0  0
   58.5404   32.0681   46.8477 H   0  0  0  0  0  0  0  0  0  0  0  0
   60.8173   34.6530   46.2970 H   0  0  0  0  0  0  0  0  0  0  0  0
   63.2992   34.4389   46.3017 H   0  0  0  0  0  0  0  0  0  0  0  0
   64.3812   32.4622   47.3667 H   0  0  0  0  0  0  0  0  0  0  0  0
   62.9864   30.6896   48.4277 H   0  0  0  0  0  0  0  0  0  0  0  0
   61.3675   29.0349   47.9743 H   0  0  0  0  0  0  0  0  0  0  0  0
   60.9675   29.1550   49.7356 H   0  0  0  0  0  0  0  0  0  0  0  0
   59.2018   27.8252   49.4122 H   0  0  0  0  0  0  0  0  0  0  0  0
   58.5097   29.0745   48.2899 H   0  0  0  0  0  0  0  0  0  0  0  0
   58.7232   32.3123   44.9119 H   0  0  0  0  0  0  0  0  0  0  0  0
   57.2559   32.7410   42.9067 H   0  0  0  0  0  0  0  0  0  0  0  0
   56.0830   30.8366   41.7751 H   0  0  0  0  0  0  0  0  0  0  0  0
   56.3647   28.4825   42.6404 H   0  0  0  0  0  0  0  0  0  0  0  0
   57.0093   26.6634   43.5923 H   0  0  0  0  0  0  0  0  0  0  0  0
   58.4511   25.9937   44.4599 H   0  0  0  0  0  0  0  0  0  0  0  0
   58.1318   24.0615   44.6211 H   0  0  0  0  0  0  0  0  0  0  0  0
   58.9337   24.2231   46.2296 H   0  0  0  0  0  0  0  0  0  0  0  0
   56.9135   22.0991   45.3585 H   0  0  0  0  0  0  0  0  0  0  0  0
   58.6532   21.8697   45.7901 H   0  0  0  0  0  0  0  0  0  0  0  0
   55.3997   22.5295   46.8929 H   0  0  0  0  0  0  0  0  0  0  0  0
   55.8404   22.6613   48.6395 H   0  0  0  0  0  0  0  0  0  0  0  0
   55.2841   24.8692   47.5241 H   0  0  0  0  0  0  0  0  0  0  0  0
   56.9194   24.7897   48.2829 H   0  0  0  0  0  0  0  0  0  0  0  0
  1  2  1  0
  2  3  2  0
  3  4  1  0
  4  5  2  0
  5  6  1  0
  6  7  2  0
  7  8  1  0
  8  9  1  0
  9 10  1  0
 10 11  1  0
 11 12  1  0
 12 13  2  0
 13 14  1  0
 14 15  2  0
 15 16  1  0
 16 17  2  0
 17 18  1  0
 18 19  2  0
 19 20  1  0
 20 21  1  0
 21 22  1  0
 22 23  2  0
 22 24  1  0
 24 25  1  0
 25 26  1  0
 26 27  1  0
 27 28  1  0
 28 29  1  0
  7  2  1  0
 20 12  1  0
 29 24  1  0
 19 14  1  0
  1 30  1  0
  1 31  1  0
  1 32  1  0
  3 33  1  0
  4 34  1  0
  5 35  1  0
  6 36  1  0
  9 37  1  0
  9 38  1  0
 10 39  1  0
 10 40  1  0
 15 41  1  0
 16 42  1  0
 17 43  1  0
 18 44  1  0
 21 45  1  0
 21 46  1  0
 25 47  1  0
 25 48  1  0
 26 49  1  0
 26 50  1  0
 28 51  1  0
 28 52  1  0
 29 53  1  0
 29 54  1  0
M  END
>  <UniqueID>  (62) 
58

>  <SMILES>  (62) 
Cc1ccccc1OCCSc1nc2ccccc2n1CC(=O)N1CCOCC1

>  <Energy>  (62) 
90.78421277914839

>  <Genealogy>  (62) 
Cc1ccccc1OCCSc1nc2ccccc2n1CC(=O)N1CCOCC1 (3D coordinates assigned)
Cc1ccccc1OCCSc1nc2ccccc2n1CC(=O)N1CCOCC1 (nonaromatic ring conformer: 90.78421277914839 kcal/mol)

>  <smiles>  (62) 
Cc1ccccc1OCCSc1nc2ccccc2n1CC(=O)N1CCOCC1

>  <score_type>  (62) 
oracle

>  <origin>  (62) 
adg

>  <m_score__min__energy>  (62) 
-8.3499999999999996

>  <m_primary>  (62) 
energy

$$$$
62:0
     RDKit          3D

 36 37  0  0  0  0  0  0  0  0999 V2000
   57.3880   28.8030   44.1480 C   0  0  0  0  0  0  0  0  0  0  0  0
   57.8220   27.5710   44.4270 C   0  0  0  0  0  0  0  0  0  0  0  0
   57.7500   27.0050   45.8170 C   0  0  0  0  0  0  0  0  0  0  0  0
   56.9860   25.7550   45.8220 N   0  0  0  0  0  0  0  0  0  0  0  0
   55.6430   25.6420   45.8800 C   0  0  0  0  0  0  0  0  0  0  0  0
   54.7680   26.7160   46.0000 O   0  0  0  0  0  0  0  0  0  0  0  0
   55.2880   24.3110   45.8180 C   0  0  0  0  0  0  0  0  0  0  0  0
   53.9010   23.7560   45.9860 C   0  0  0  0  0  0  0  0  0  0  0  0
   53.0760   23.9810   44.7160 C   0  0  0  0  0  0  0  0  0  0  0  0
   51.5820   23.9940   45.0260 C   0  0  0  0  0  0  0  0  0  0  0  0
   56.4230   23.5810   45.7340 N   0  0  0  0  0  0  0  0  0  0  0  0
   56.5300   22.1500   45.7060 C   0  0  0  0  0  0  0  0  0  0  0  0
   56.1610   21.4430   44.5520 C   0  0  0  0  0  0  0  0  0  0  0  0
   56.2720   20.0510   44.5140 C   0  0  0  0  0  0  0  0  0  0  0  0
   56.7480   19.3560   45.6300 C   0  0  0  0  0  0  0  0  0  0  0  0
   57.1100   20.0540   46.7860 C   0  0  0  0  0  0  0  0  0  0  0  0
   57.0000   21.4470   46.8290 C   0  0  0  0  0  0  0  0  0  0  0  0
   57.3470   22.1290   47.9910 O   0  0  0  0  0  0  0  0  0  0  0  0
   57.4370   24.4810   45.7330 C   0  0  0  0  0  0  0  0  0  0  0  0
   59.0260   24.0690   45.6260 S   0  0  0  0  0  0  0  0  0  0  0  0
   57.4539   29.1898   43.1204 H   0  0  0  0  0  0  0  0  0  0  0  0
   56.9647   29.4308   44.9459 H   0  0  0  0  0  0  0  0  0  0  0  0
   58.2428   26.9551   43.6186 H   0  0  0  0  0  0  0  0  0  0  0  0
   58.7691   26.8080   46.1811 H   0  0  0  0  0  0  0  0  0  0  0  0
   57.2477   27.7321   46.4721 H   0  0  0  0  0  0  0  0  0  0  0  0
   53.9651   22.6769   46.1896 H   0  0  0  0  0  0  0  0  0  0  0  0
   53.4106   24.2717   46.8248 H   0  0  0  0  0  0  0  0  0  0  0  0
   53.3588   24.9461   44.2703 H   0  0  0  0  0  0  0  0  0  0  0  0
   53.2803   23.1571   44.0164 H   0  0  0  0  0  0  0  0  0  0  0  0
   51.4337   23.9953   46.1160 H   0  0  0  0  0  0  0  0  0  0  0  0
   51.1255   24.8962   44.5928 H   0  0  0  0  0  0  0  0  0  0  0  0
   51.1098   23.0999   44.5928 H   0  0  0  0  0  0  0  0  0  0  0  0
   55.7828   21.9867   43.6737 H   0  0  0  0  0  0  0  0  0  0  0  0
   55.9847   19.5013   43.6055 H   0  0  0  0  0  0  0  0  0  0  0  0
   56.8376   18.2601   45.5984 H   0  0  0  0  0  0  0  0  0  0  0  0
   57.4823   19.5057   47.6639 H   0  0  0  0  0  0  0  0  0  0  0  0
  1  2  2  0
  2  3  1  0
  3  4  1  0
  4  5  1  0
  5  6  1  0
  5  7  2  0
  7  8  1  0
  8  9  1  0
  9 10  1  0
  7 11  1  0
 11 12  1  0
 12 13  2  0
 13 14  1  0
 14 15  2  0
 15 16  1  0
 16 17  2  0
 17 18  1  0
 11 19  1  0
 19 20  2  0
 19  4  1  0
 17 12  1  0
  1 21  1  0
  1 22  1  0
  2 23  1  0
  3 24  1  0
  3 25  1  0
  8 26  1  0
  8 27  1  0
  9 28  1  0
  9 29  1  0
 10 30  1  0
 10 31  1  0
 10 32  1  0
 13 33  1  0
 14 34  1  0
 15 35  1  0
 16 36  1  0
M  CHG  2   6  -1  18  -1
M  END
>  <UniqueID>  (63) 
59

>  <SMILES>  (63) 
C=CCn1c([O-])c(CCC)n(-c2ccccc2[O-])c1=S

>  <Energy>  (63) 
68.56170066307503

>  <Genealogy>  (63) 
C=CCn1c([O-])c(CCC)n(-c2ccccc2[O-])c1=S (protonated)
C=CCn1c([O-])c(CCC)n(-c2ccccc2[O-])c1=S (3D coordinates assigned)
C=CCn1c([O-])c(CCC)n(-c2ccccc2[O-])c1=S (optimized conformer: 68.56170066307503 kcal/mol)

>  <smiles>  (63) 
C=CCn1c(O)c(CCC)n(-c2ccccc2O)c1=S

>  <score_type>  (63) 
oracle

>  <origin>  (63) 
adg

>  <m_score__min__energy>  (63) 
-10.789999999999999

>  <m_primary>  (63) 
energy

$$$$
63:0
     RDKit          3D

 43 45  0  0  0  0  0  0  0  0999 V2000
   56.0740   30.0550   43.8150 C   0  0  0  0  0  0  0  0  0  0  0  0
   56.5540   30.1520   45.1850 N   0  0  0  0  0  0  0  0  0  0  0  0
   57.9090   30.4770   45.5140 C   0  0  0  0  0  0  0  0  0  0  0  0
   58.7870   29.5700   45.5170 O   0  0  0  0  0  0  0  0  0  0  0  0
   58.2970   31.8790   45.8040 C   0  0  0  0  0  0  0  0  0  0  0  0
   58.2630   32.8160   44.7540 C   0  0  0  0  0  0  0  0  0  0  0  0
   58.5440   34.1630   44.9900 C   0  0  0  0  0  0  0  0  0  0  0  0
   58.8650   34.5950   46.2750 C   0  0  0  0  0  0  0  0  0  0  0  0
   58.9240   33.6800   47.3270 C   0  0  0  0  0  0  0  0  0  0  0  0
   58.6580   32.3170   47.1070 C   0  0  0  0  0  0  0  0  0  0  0  0
   58.8320   31.3810   48.2410 C   0  0  0  0  0  0  0  0  0  0  0  0
   59.6950   30.2800   48.1250 C   0  0  0  0  0  0  0  0  0  0  0  0
   59.8540   29.3950   49.1950 C   0  0  0  0  0  0  0  0  0  0  0  0
   59.1610   29.6090   50.3900 C   0  0  0  0  0  0  0  0  0  0  0  0
   58.3130   30.7160   50.5250 C   0  0  0  0  0  0  0  0  0  0  0  0
   57.4270   30.9770   52.0220 S   0  0  0  0  0  0  0  0  0  0  0  0
   58.2930   30.5970   53.1900 O   0  0  0  0  0  0  0  0  0  0  0  0
   57.0520   32.4300   52.1310 O   0  0  0  0  0  0  0  0  0  0  0  0
   55.9950   29.9930   51.9970 N   0  0  0  0  0  0  0  0  0  0  0  0
   54.7660   30.4100   52.1060 C   0  0  0  0  0  0  0  0  0  0  0  0
   54.0280   30.8940   51.0080 C   0  0  0  0  0  0  0  0  0  0  0  0
   52.7140   31.3250   51.1990 C   0  0  0  0  0  0  0  0  0  0  0  0
   52.1310   31.2770   52.4730 C   0  0  0  0  0  0  0  0  0  0  0  0
   50.7390   31.7310   52.6830 C   0  0  0  0  0  0  0  0  0  0  0  0
   50.2580   32.6640   51.9860 O   0  0  0  0  0  0  0  0  0  0  0  0
   49.9410   31.1320   53.6510 O   0  0  0  0  0  0  0  0  0  0  0  0
   52.9000   30.7880   53.5400 C   0  0  0  0  0  0  0  0  0  0  0  0
   54.1770   30.3730   53.3310 N   0  0  0  0  0  0  0  0  0  0  0  0
   58.1490   31.5990   49.4480 C   0  0  0  0  0  0  0  0  0  0  0  0
   54.9958   29.8371   43.8188 H   0  0  0  0  0  0  0  0  0  0  0  0
   56.2537   31.0076   43.2952 H   0  0  0  0  0  0  0  0  0  0  0  0
   56.6095   29.2469   43.2952 H   0  0  0  0  0  0  0  0  0  0  0  0
   58.0122   32.4831   43.7360 H   0  0  0  0  0  0  0  0  0  0  0  0
   58.5119   34.8843   44.1601 H   0  0  0  0  0  0  0  0  0  0  0  0
   59.0723   35.6592   46.4607 H   0  0  0  0  0  0  0  0  0  0  0  0
   59.1811   34.0285   48.3382 H   0  0  0  0  0  0  0  0  0  0  0  0
   60.2480   30.1132   47.1888 H   0  0  0  0  0  0  0  0  0  0  0  0
   60.5252   28.5291   49.0967 H   0  0  0  0  0  0  0  0  0  0  0  0
   59.2819   28.9058   51.2272 H   0  0  0  0  0  0  0  0  0  0  0  0
   54.4837   30.9320   50.0076 H   0  0  0  0  0  0  0  0  0  0  0  0
   52.1330   31.7043   50.3454 H   0  0  0  0  0  0  0  0  0  0  0  0
   52.4672   30.7404   54.5502 H   0  0  0  0  0  0  0  0  0  0  0  0
   57.4814   32.4674   49.5495 H   0  0  0  0  0  0  0  0  0  0  0  0
  1  2  1  0
  2  3  1  0
  3  4  2  0
  3  5  1  0
  5  6  2  0
  6  7  1  0
  7  8  2  0
  8  9  1  0
  9 10  2  0
 10 11  1  0
 11 12  2  0
 12 13  1  0
 13 14  2  0
 14 15  1  0
 15 16  1  0
 16 17  2  0
 16 18  2  0
 16 19  1  0
 19 20  2  3
 20 21  1  0
 21 22  2  0
 22 23  1  0
 23 24  1  0
 24 25  2  0
 24 26  1  0
 23 27  2  0
 27 28  1  0
 15 29  2  0
 10  5  1  0
 29 11  1  0
 28 20  1  0
  1 30  1  0
  1 31  1  0
  1 32  1  0
  6 33  1  0
  7 34  1  0
  8 35  1  0
  9 36  1  0
 12 37  1  0
 13 38  1  0
 14 39  1  0
 21 40  1  0
 22 41  1  0
 27 42  1  0
 29 43  1  0
M  CHG  3   2  -1  26  -1  28  -1
M  END
>  <UniqueID>  (64) 
60

>  <SMILES>  (64) 
C[N-]C(=O)c1ccccc1-c1cccc(S(=O)(=O)N=c2ccc(C(=O)[O-])c[n-]2)c1

>  <Energy>  (64) 
61.38567902741234

>  <Genealogy>  (64) 
C[N-]C(=O)c1ccccc1-c1cccc(S(=O)(=O)N=c2ccc(C(=O)[O-])c[n-]2)c1 (protonated)
C[N-]C(=O)c1ccccc1-c1cccc(S(=O)(=O)N=c2ccc(C(=O)[O-])c[n-]2)c1 (3D coordinates assigned)
C[N-]C(=O)c1ccccc1-c1cccc(S(=O)(=O)N=c2ccc(C(=O)[O-])c[n-]2)c1 (optimized conformer: 61.38567902741234 kcal/mol)

>  <smiles>  (64) 
CNC(=O)c1ccccc1-c1cccc(S(=O)(=O)N=c2ccc(C(=O)O)c[nH]2)c1

>  <score_type>  (64) 
oracle

>  <origin>  (64) 
adg

>  <m_score__min__energy>  (64) 
-14.26

>  <m_primary>  (64) 
energy

$$$$
64:0
     RDKit          3D

 38 40  0  0  0  0  0  0  0  0999 V2000
   62.1420   33.8400   47.1300 C   0  0  0  0  0  0  0  0  0  0  0  0
   60.6730   33.9290   46.8580 C   0  0  0  0  0  0  0  0  0  0  0  0
   60.0710   33.8470   45.6200 C   0  0  0  0  0  0  0  0  0  0  0  0
   58.7200   33.9780   45.8920 C   0  0  0  0  0  0  0  0  0  0  0  0
   57.6340   33.9660   44.9050 C   0  0  0  0  0  0  0  0  0  0  0  0
   56.8140   34.9220   44.8730 O   0  0  0  0  0  0  0  0  0  0  0  0
   57.4870   32.8440   44.0250 N   0  0  0  0  0  0  0  0  0  0  0  0
   57.4120   31.4620   44.4060 C   0  0  0  0  0  0  0  0  0  0  0  0
   56.2830   30.6690   44.1300 C   0  0  0  0  0  0  0  0  0  0  0  0
   56.2620   29.3210   44.5000 C   0  0  0  0  0  0  0  0  0  0  0  0
   57.3710   28.7460   45.1370 C   0  0  0  0  0  0  0  0  0  0  0  0
   57.3510   27.0550   45.6300 S   0  0  0  0  0  0  0  0  0  0  0  0
   58.2060   26.8950   46.8560 O   0  0  0  0  0  0  0  0  0  0  0  0
   57.8960   26.1730   44.5410 O   0  0  0  0  0  0  0  0  0  0  0  0
   55.7270   26.5750   45.9960 N   0  0  0  0  0  0  0  0  0  0  0  0
   55.2910   25.3660   45.8270 C   0  0  0  0  0  0  0  0  0  0  0  0
   53.9930   25.0550   45.6120 N   0  0  0  0  0  0  0  0  0  0  0  0
   53.8210   23.7140   45.4720 C   0  0  0  0  0  0  0  0  0  0  0  0
   54.9840   22.9570   45.5750 C   0  0  0  0  0  0  0  0  0  0  0  0
   56.2730   24.0070   45.8500 S   0  0  0  0  0  0  0  0  0  0  0  0
   58.5040   29.5280   45.3900 C   0  0  0  0  0  0  0  0  0  0  0  0
   58.5270   30.8750   45.0190 C   0  0  0  0  0  0  0  0  0  0  0  0
   58.5280   34.1280   47.2190 N   0  0  0  0  0  0  0  0  0  0  0  0
   59.7180   34.0920   47.7960 N   0  0  0  0  0  0  0  0  0  0  0  0
   59.9250   34.2390   49.2330 C   0  0  0  0  0  0  0  0  0  0  0  0
   62.3138   33.8296   48.2165 H   0  0  0  0  0  0  0  0  0  0  0  0
   62.5417   32.9160   46.6867 H   0  0  0  0  0  0  0  0  0  0  0  0
   62.6503   34.7090   46.6867 H   0  0  0  0  0  0  0  0  0  0  0  0
   60.5535   33.7092   44.6411 H   0  0  0  0  0  0  0  0  0  0  0  0
   55.4137   31.1113   43.6213 H   0  0  0  0  0  0  0  0  0  0  0  0
   55.3722   28.7091   44.2906 H   0  0  0  0  0  0  0  0  0  0  0  0
   52.8353   23.2607   45.2907 H   0  0  0  0  0  0  0  0  0  0  0  0
   55.0505   21.8622   45.4914 H   0  0  0  0  0  0  0  0  0  0  0  0
   59.3797   29.0804   45.8828 H   0  0  0  0  0  0  0  0  0  0  0  0
   59.4266   31.4787   45.2095 H   0  0  0  0  0  0  0  0  0  0  0  0
   59.1443   33.6846   49.7745 H   0  0  0  0  0  0  0  0  0  0  0  0
   60.9134   33.8393   49.5039 H   0  0  0  0  0  0  0  0  0  0  0  0
   59.8733   35.3039   49.5039 H   0  0  0  0  0  0  0  0  0  0  0  0
  1  2  1  0
  2  3  2  0
  3  4  1  0
  4  5  1  0
  5  6  2  0
  5  7  1  0
  7  8  1  0
  8  9  2  0
  9 10  1  0
 10 11  2  0
 11 12  1  0
 12 13  2  0
 12 14  2  0
 12 15  1  0
 15 16  2  3
 16 17  1  0
 17 18  1  0
 18 19  2  0
 19 20  1  0
 11 21  1  0
 21 22  2  0
  4 23  2  0
 23 24  1  0
 24 25  1  0
 24  2  1  0
 22  8  1  0
 20 16  1  0
  1 26  1  0
  1 27  1  0
  1 28  1  0
  3 29  1  0
  9 30  1  0
 10 31  1  0
 18 32  1  0
 19 33  1  0
 21 34  1  0
 22 35  1  0
 25 36  1  0
 25 37  1  0
 25 38  1  0
M  CHG  2   7  -1  17  -1
M  END
>  <UniqueID>  (65) 
61

>  <SMILES>  (65) 
Cc1cc(C(=O)[N-]c2ccc(S(=O)(=O)N=c3[n-]ccs3)cc2)nn1C

>  <Energy>  (65) 
103.29269775225332

>  <Genealogy>  (65) 
Cc1cc(C(=O)[N-]c2ccc(S(=O)(=O)N=c3[n-]ccs3)cc2)nn1C (protonated)
Cc1cc(C(=O)[N-]c2ccc(S(=O)(=O)N=c3[n-]ccs3)cc2)nn1C (3D coordinates assigned)
Cc1cc(C(=O)[N-]c2ccc(S(=O)(=O)N=c3[n-]ccs3)cc2)nn1C (optimized conformer: 103.29269775225332 kcal/mol)

>  <smiles>  (65) 
Cc1cc(C(=O)Nc2ccc(S(=O)(=O)N=c3[nH]ccs3)cc2)nn1C

>  <score_type>  (65) 
oracle

>  <origin>  (65) 
adg

>  <m_score__min__energy>  (65) 
-10.81

>  <m_primary>  (65) 
energy

$$$$
65:0
     RDKit          3D

 38 40  0  0  0  0  0  0  0  0999 V2000
   55.7610   30.5480   44.4560 O   0  0  0  0  0  0  0  0  0  0  0  0
   56.4410   29.5210   44.7310 C   0  0  0  0  0  0  0  0  0  0  0  0
   55.8080   28.4410   45.2500 N   0  0  0  0  0  0  0  0  0  0  0  0
   56.4750   27.3060   45.5620 C   0  0  0  0  0  0  0  0  0  0  0  0
   55.7750   26.2210   46.0860 O   0  0  0  0  0  0  0  0  0  0  0  0
   57.8600   27.2310   45.3570 C   0  0  0  0  0  0  0  0  0  0  0  0
   58.6180   25.9530   45.6400 C   0  0  0  0  0  0  0  0  0  0  0  0
   57.9500   24.7850   44.9630 C   0  0  0  0  0  0  0  0  0  0  0  0
   57.8330   23.5520   45.6280 C   0  0  0  0  0  0  0  0  0  0  0  0
   57.1780   22.4790   45.0160 C   0  0  0  0  0  0  0  0  0  0  0  0
   56.6300   22.6300   43.7390 C   0  0  0  0  0  0  0  0  0  0  0  0
   55.9780   21.5630   43.1320 O   0  0  0  0  0  0  0  0  0  0  0  0
   56.7380   23.8540   43.0720 C   0  0  0  0  0  0  0  0  0  0  0  0
   57.3930   24.9290   43.6810 C   0  0  0  0  0  0  0  0  0  0  0  0
   58.5070   28.3590   44.8180 C   0  0  0  0  0  0  0  0  0  0  0  0
   59.7540   28.3200   44.6210 O   0  0  0  0  0  0  0  0  0  0  0  0
   57.7950   29.4930   44.5100 N   0  0  0  0  0  0  0  0  0  0  0  0
   58.4760   30.6490   43.8910 C   0  0  0  0  0  0  0  0  0  0  0  0
   58.5450   31.7990   44.8640 C   0  0  0  0  0  0  0  0  0  0  0  0
   58.1590   33.0890   44.4640 C   0  0  0  0  0  0  0  0  0  0  0  0
   58.2600   34.1630   45.3530 C   0  0  0  0  0  0  0  0  0  0  0  0
   58.7510   33.9600   46.6460 C   0  0  0  0  0  0  0  0  0  0  0  0
   58.8530   35.0280   47.5270 O   0  0  0  0  0  0  0  0  0  0  0  0
   59.1410   32.6790   47.0510 C   0  0  0  0  0  0  0  0  0  0  0  0
   59.0410   31.6020   46.1640 C   0  0  0  0  0  0  0  0  0  0  0  0
   55.1420   26.3380   46.8680 H   0  0  0  0  0  0  0  0  0  0  0  0
   59.6467   26.0507   45.2627 H   0  0  0  0  0  0  0  0  0  0  0  0
   58.6285   25.7775   46.7259 H   0  0  0  0  0  0  0  0  0  0  0  0
   58.2589   23.4308   46.6349 H   0  0  0  0  0  0  0  0  0  0  0  0
   57.0939   21.5154   45.5398 H   0  0  0  0  0  0  0  0  0  0  0  0
   56.3071   23.9716   42.0667 H   0  0  0  0  0  0  0  0  0  0  0  0
   57.4725   25.8914   43.1542 H   0  0  0  0  0  0  0  0  0  0  0  0
   59.4963   30.3568   43.6018 H   0  0  0  0  0  0  0  0  0  0  0  0
   57.9084   30.9652   43.0034 H   0  0  0  0  0  0  0  0  0  0  0  0
   57.7755   33.2548   43.4465 H   0  0  0  0  0  0  0  0  0  0  0  0
   57.9525   35.1700   45.0345 H   0  0  0  0  0  0  0  0  0  0  0  0
   59.5269   32.5184   48.0685 H   0  0  0  0  0  0  0  0  0  0  0  0
   59.3518   30.5969   46.4853 H   0  0  0  0  0  0  0  0  0  0  0  0
  1  2  2  0
  2  3  1  0
  3  4  1  0
  4  5  1  0
  4  6  2  0
  6  7  1  0
  7  8  1  0
  8  9  2  0
  9 10  1  0
 10 11  2  0
 11 12  1  0
 11 13  1  0
 13 14  2  0
  6 15  1  0
 15 16  2  0
 15 17  1  0
 17 18  1  0
 18 19  1  0
 19 20  2  0
 20 21  1  0
 21 22  2  0
 22 23  1  0
 22 24  1  0
 24 25  2  0
 17  2  1  0
 25 19  1  0
 14  8  1  0
  5 26  1  0
  7 27  1  0
  7 28  1  0
  9 29  1  0
 10 30  1  0
 13 31  1  0
 14 32  1  0
 18 33  1  0
 18 34  1  0
 20 35  1  0
 21 36  1  0
 24 37  1  0
 25 38  1  0
M  CHG  3   3  -1  12  -1  23  -1
M  END
>  <UniqueID>  (66) 
62

>  <SMILES>  (66) 
O=c1[n-]c(O)c(Cc2ccc([O-])cc2)c(=O)n1Cc1ccc([O-])cc1

>  <Energy>  (66) 
44.23847612409743

>  <Genealogy>  (66) 
O=c1[n-]c(O)c(Cc2ccc([O-])cc2)c(=O)n1Cc1ccc([O-])cc1 (protonated)
O=c1[n-]c(O)c(Cc2ccc([O-])cc2)c(=O)n1Cc1ccc([O-])cc1 (3D coordinates assigned)
O=c1[n-]c(O)c(Cc2ccc([O-])cc2)c(=O)n1Cc1ccc([O-])cc1 (optimized conformer: 44.23847612409743 kcal/mol)

>  <smiles>  (66) 
O=c1[nH]c(O)c(Cc2ccc(O)cc2)c(=O)n1Cc1ccc(O)cc1

>  <score_type>  (66) 
oracle

>  <origin>  (66) 
adg

>  <m_score__min__energy>  (66) 
-12.65

>  <m_primary>  (66) 
energy

$$$$
66:0
     RDKit          3D

 45 47  0  0  0  0  0  0  0  0999 V2000
   61.6210   34.2180   49.0170 C   0  0  0  0  0  0  0  0  0  0  0  0
   60.6040   34.0070   47.9340 C   0  0  0  0  0  0  0  0  0  0  0  0
   59.2770   33.6910   48.2620 C   0  0  0  0  0  0  0  0  0  0  0  0
   58.3210   33.5290   47.2550 C   0  0  0  0  0  0  0  0  0  0  0  0
   58.6730   33.7070   45.9080 C   0  0  0  0  0  0  0  0  0  0  0  0
   57.6540   33.4970   44.8240 C   0  0  0  0  0  0  0  0  0  0  0  0
   56.6380   32.5480   45.2820 N   0  0  0  0  0  0  0  0  0  0  0  0
   56.7730   31.0630   44.3910 S   0  0  0  0  0  0  0  0  0  0  0  0
   55.4160   30.4240   44.2850 O   0  0  0  0  0  0  0  0  0  0  0  0
   57.2720   31.3490   43.0010 O   0  0  0  0  0  0  0  0  0  0  0  0
   57.8690   29.9530   45.2120 C   0  0  0  0  0  0  0  0  0  0  0  0
   59.1510   30.3820   45.5750 C   0  0  0  0  0  0  0  0  0  0  0  0
   60.0340   29.5010   46.2030 C   0  0  0  0  0  0  0  0  0  0  0  0
   59.6440   28.1850   46.4660 C   0  0  0  0  0  0  0  0  0  0  0  0
   58.3610   27.7350   46.1050 C   0  0  0  0  0  0  0  0  0  0  0  0
   57.9490   26.3360   46.3720 C   0  0  0  0  0  0  0  0  0  0  0  0
   58.1830   25.8140   47.4960 O   0  0  0  0  0  0  0  0  0  0  0  0
   57.3860   25.5380   45.3190 N   0  0  0  0  0  0  0  0  0  0  0  0
   56.2800   24.8450   45.3160 C   0  0  0  0  0  0  0  0  0  0  0  0
   56.3520   23.5470   44.9060 N   0  0  0  0  0  0  0  0  0  0  0  0
   55.2710   22.7270   44.8710 C   0  0  0  0  0  0  0  0  0  0  0  0
   54.0210   23.2040   45.2590 C   0  0  0  0  0  0  0  0  0  0  0  0
   53.8950   24.5330   45.6590 C   0  0  0  0  0  0  0  0  0  0  0  0
   55.0120   25.3740   45.6740 C   0  0  0  0  0  0  0  0  0  0  0  0
   54.8240   26.7140   45.9900 O   0  0  0  0  0  0  0  0  0  0  0  0
   57.4790   28.6310   45.4720 C   0  0  0  0  0  0  0  0  0  0  0  0
   60.0000   34.0270   45.5810 C   0  0  0  0  0  0  0  0  0  0  0  0
   60.9570   34.1870   46.5880 C   0  0  0  0  0  0  0  0  0  0  0  0
   61.1366   34.1175   49.9995 H   0  0  0  0  0  0  0  0  0  0  0  0
   62.4184   33.4662   48.9227 H   0  0  0  0  0  0  0  0  0  0  0  0
   62.0535   35.2250   48.9227 H   0  0  0  0  0  0  0  0  0  0  0  0
   58.9875   33.5702   49.3163 H   0  0  0  0  0  0  0  0  0  0  0  0
   57.2876   33.2606   47.5196 H   0  0  0  0  0  0  0  0  0  0  0  0
   57.1751   34.4570   44.5809 H   0  0  0  0  0  0  0  0  0  0  0  0
   58.1510   33.0960   43.9283 H   0  0  0  0  0  0  0  0  0  0  0  0
   56.8340   32.3180   46.2840 H   0  0  0  0  0  0  0  0  0  0  0  0
   59.4637   31.4155   45.3651 H   0  0  0  0  0  0  0  0  0  0  0  0
   61.0387   29.8436   46.4913 H   0  0  0  0  0  0  0  0  0  0  0  0
   60.3455   27.4959   46.9590 H   0  0  0  0  0  0  0  0  0  0  0  0
   55.3820   21.6851   44.5360 H   0  0  0  0  0  0  0  0  0  0  0  0
   53.1442   22.5398   45.2498 H   0  0  0  0  0  0  0  0  0  0  0  0
   52.9125   24.9221   45.9643 H   0  0  0  0  0  0  0  0  0  0  0  0
   56.4748   28.2913   45.1786 H   0  0  0  0  0  0  0  0  0  0  0  0
   60.2887   34.1526   44.5270 H   0  0  0  0  0  0  0  0  0  0  0  0
   61.9906   34.4550   46.3239 H   0  0  0  0  0  0  0  0  0  0  0  0
  1  2  1  0
  2  3  2  0
  3  4  1  0
  4  5  2  0
  5  6  1  0
  6  7  1  0
  7  8  1  0
  8  9  2  0
  8 10  2  0
  8 11  1  0
 11 12  2  0
 12 13  1  0
 13 14  2  0
 14 15  1  0
 15 16  1  0
 16 17  2  0
 16 18  1  0
 18 19  2  3
 19 20  1  0
 20 21  1  0
 21 22  2  0
 22 23  1  0
 23 24  2  0
 24 25  1  0
 15 26  2  0
  5 27  1  0
 27 28  2  0
 28  2  1  0
 26 11  1  0
 24 19  1  0
  1 29  1  0
  1 30  1  0
  1 31  1  0
  3 32  1  0
  4 33  1  0
  6 34  1  0
  6 35  1  0
  7 36  1  0
 12 37  1  0
 13 38  1  0
 14 39  1  0
 21 40  1  0
 22 41  1  0
 23 42  1  0
 26 43  1  0
 27 44  1  0
 28 45  1  0
M  CHG  2  20  -1  25  -1
M  END
>  <UniqueID>  (67) 
63

>  <SMILES>  (67) 
Cc1ccc(CNS(=O)(=O)c2cccc(C(=O)N=c3[n-]cccc3[O-])c2)cc1

>  <Energy>  (67) 
57.23438806033204

>  <Genealogy>  (67) 
Cc1ccc(CNS(=O)(=O)c2cccc(C(=O)N=c3[n-]cccc3[O-])c2)cc1 (protonated)
Cc1ccc(CNS(=O)(=O)c2cccc(C(=O)N=c3[n-]cccc3[O-])c2)cc1 (3D coordinates assigned)
Cc1ccc(CNS(=O)(=O)c2cccc(C(=O)N=c3[n-]cccc3[O-])c2)cc1 (optimized conformer: 57.23438806033204 kcal/mol)

>  <smiles>  (67) 
Cc1ccc(CNS(=O)(=O)c2cccc(C(=O)N=c3[nH]cccc3O)c2)cc1

>  <score_type>  (67) 
oracle

>  <origin>  (67) 
adg

>  <m_score__min__energy>  (67) 
-14.94

>  <m_primary>  (67) 
energy

$$$$
67:0
     RDKit          3D

 45 47  0  0  0  0  0  0  0  0999 V2000
   59.0907   29.3334   45.8349 H   0  0  0  0  0  0  0  0  0  0  0  0
   58.2060   29.8640   45.4530 C   0  0  0  0  0  0  0  0  0  0  0  0
   58.2130   31.2180   45.3740 N   0  0  0  0  0  0  0  0  0  0  0  0
   57.1370   31.9030   44.9030 C   0  0  0  0  0  0  0  0  0  0  0  0
   57.1430   33.2010   44.8480 N   0  0  0  0  0  0  0  0  0  0  0  0
   57.4610   34.0820   45.9720 C   0  0  0  0  0  0  0  0  0  0  0  0
   56.7287   33.9195   46.7766 H   0  0  0  0  0  0  0  0  0  0  0  0
   57.4221   35.1253   45.6257 H   0  0  0  0  0  0  0  0  0  0  0  0
   58.8440   33.7970   46.4970 C   0  0  0  0  0  0  0  0  0  0  0  0
   59.9790   34.1350   45.7420 C   0  0  0  0  0  0  0  0  0  0  0  0
   59.8600   34.6216   44.7627 H   0  0  0  0  0  0  0  0  0  0  0  0
   61.2590   33.8560   46.2290 C   0  0  0  0  0  0  0  0  0  0  0  0
   62.1432   34.1279   45.6338 H   0  0  0  0  0  0  0  0  0  0  0  0
   61.4200   33.2310   47.4730 C   0  0  0  0  0  0  0  0  0  0  0  0
   63.0350   32.8910   48.0820 S   0  0  0  0  0  0  0  0  0  0  0  0
   63.0090   31.6200   48.8840 O   0  0  0  0  0  0  0  0  0  0  0  0
   63.4930   34.0240   48.9570 O   0  0  0  0  0  0  0  0  0  0  0  0
   64.1470   32.7150   46.7670 N   0  0  0  0  0  0  0  0  0  0  0  0
   64.3840   31.7010   46.6980 H   0  0  0  0  0  0  0  0  0  0  0  0
   65.0250   33.2120   47.0390 H   0  0  0  0  0  0  0  0  0  0  0  0
   60.2900   32.8960   48.2310 C   0  0  0  0  0  0  0  0  0  0  0  0
   60.4105   32.4111   49.2110 H   0  0  0  0  0  0  0  0  0  0  0  0
   59.0090   33.1770   47.7440 C   0  0  0  0  0  0  0  0  0  0  0  0
   58.1258   32.9100   48.3429 H   0  0  0  0  0  0  0  0  0  0  0  0
   56.0370   31.2230   44.4920 N   0  0  0  0  0  0  0  0  0  0  0  0
   55.9780   29.8680   44.5520 C   0  0  0  0  0  0  0  0  0  0  0  0
   54.9270   29.2830   44.1750 O   0  0  0  0  0  0  0  0  0  0  0  0
   57.0760   29.1370   45.0500 C   0  0  0  0  0  0  0  0  0  0  0  0
   57.0490   27.6610   45.1950 C   0  0  0  0  0  0  0  0  0  0  0  0
   58.0630   26.9670   44.9190 O   0  0  0  0  0  0  0  0  0  0  0  0
   55.8560   27.0030   45.6310 N   0  0  0  0  0  0  0  0  0  0  0  0
   55.9040   25.7440   46.3660 C   0  0  0  0  0  0  0  0  0  0  0  0
   56.6566   25.8184   47.1648 H   0  0  0  0  0  0  0  0  0  0  0  0
   54.9131   25.5444   46.8000 H   0  0  0  0  0  0  0  0  0  0  0  0
   56.2710   24.6140   45.4410 C   0  0  0  0  0  0  0  0  0  0  0  0
   57.5830   24.1100   45.4260 C   0  0  0  0  0  0  0  0  0  0  0  0
   58.3282   24.4976   46.1363 H   0  0  0  0  0  0  0  0  0  0  0  0
   57.9430   23.1160   44.5090 C   0  0  0  0  0  0  0  0  0  0  0  0
   58.9686   22.7183   44.5047 H   0  0  0  0  0  0  0  0  0  0  0  0
   57.0020   22.6280   43.5990 C   0  0  0  0  0  0  0  0  0  0  0  0
   57.2875   21.8476   42.8783 H   0  0  0  0  0  0  0  0  0  0  0  0
   55.6980   23.1310   43.6040 C   0  0  0  0  0  0  0  0  0  0  0  0
   54.9582   22.7453   42.8871 H   0  0  0  0  0  0  0  0  0  0  0  0
   55.3320   24.1230   44.5180 C   0  0  0  0  0  0  0  0  0  0  0  0
   54.3063   24.5204   44.5148 H   0  0  0  0  0  0  0  0  0  0  0  0
  1  2  1  0
  2  3  1  0
  3  4  1  0
  4  5  2  0
  5  6  1  0
  6  7  1  0
  6  8  1  0
  6  9  1  0
  9 10  2  0
 10 11  1  0
 10 12  1  0
 12 13  1  0
 12 14  2  0
 14 15  1  0
 15 16  2  0
 15 17  2  0
 15 18  1  0
 18 19  1  0
 18 20  1  0
 14 21  1  0
 21 22  1  0
 21 23  2  0
 23 24  1  0
  4 25  1  0
 25 26  1  0
 26 27  2  0
 26 28  1  0
 28 29  1  0
 29 30  2  0
 29 31  1  0
 31 32  1  0
 32 33  1  0
 32 34  1  0
 32 35  1  0
 35 36  2  0
 36 37  1  0
 36 38  1  0
 38 39  1  0
 38 40  2  0
 40 41  1  0
 40 42  1  0
 42 43  1  0
 42 44  2  0
 44 45  1  0
 28  2  2  0
 44 35  1  0
 23  9  1  0
M  CHG  3   3  -1  25  -1  31  -1
M  END
>  <UniqueID>  (68) 
64

>  <SMILES>  (68) 
NS(=O)(=O)c1ccc(C/N=c2\[n-]cc(C(=O)[N-]Cc3ccccc3)c(=O)[n-]2)cc1

>  <Energy>  (68) 
49.77164426252039

>  <Genealogy>  (68) 
NS(=O)(=O)c1ccc(CN=c2[n-]cc(C(=O)[N-]Cc3ccccc3)c(=O)[n-]2)cc1 (protonated)
NS(=O)(=O)c1ccc(C/N=c2\[n-]cc(C(=O)[N-]Cc3ccccc3)c(=O)[n-]2)cc1 (cis-trans isomerization)
NS(=O)(=O)c1ccc(C/N=c2\[n-]cc(C(=O)[N-]Cc3ccccc3)c(=O)[n-]2)cc1 (3D coordinates assigned)
NS(=O)(=O)c1ccc(C/N=c2\[n-]cc(C(=O)[N-]Cc3ccccc3)c(=O)[n-]2)cc1 (optimized conformer: 49.77164426252039 kcal/mol)

>  <smiles>  (68) 
NS(=O)(=O)c1ccc(CN=c2[nH]cc(C(=O)NCc3ccccc3)c(=O)[nH]2)cc1

>  <score_type>  (68) 
oracle

>  <origin>  (68) 
adg

>  <m_score__min__energy>  (68) 
-13.529999999999999

>  <m_primary>  (68) 
energy

$$$$
68:0
     RDKit          3D

 57 61  0  0  0  0  0  0  0  0999 V2000
   53.1625   32.0422   52.9658 H   0  0  0  0  0  0  0  0  0  0  0  0
   53.3200   31.2930   52.1760 C   0  0  0  0  0  0  0  0  0  0  0  0
   52.3750   31.2960   51.0390 C   0  0  0  0  0  0  0  0  0  0  0  0
   52.3400   30.3950   50.0390 N   0  0  0  0  0  0  0  0  0  0  0  0
   51.3210   30.8230   49.2630 C   0  0  0  0  0  0  0  0  0  0  0  0
   50.9750   30.2270   48.2110 O   0  0  0  0  0  0  0  0  0  0  0  0
   50.7030   31.9390   49.7060 N   0  0  0  0  0  0  0  0  0  0  0  0
   51.3830   32.2240   50.8280 C   0  0  0  0  0  0  0  0  0  0  0  0
   51.1000   33.3120   51.6450 O   0  0  0  0  0  0  0  0  0  0  0  0
   54.3550   30.4500   52.3230 C   0  0  0  0  0  0  0  0  0  0  0  0
   54.3760   29.0980   52.6780 C   0  0  0  0  0  0  0  0  0  0  0  0
   53.4880   28.4888   52.9024 H   0  0  0  0  0  0  0  0  0  0  0  0
   55.6550   28.6510   52.7040 N   0  0  0  0  0  0  0  0  0  0  0  0
   56.4350   29.6690   52.3790 N   0  0  0  0  0  0  0  0  0  0  0  0
   57.7940   29.7130   52.2720 C   0  0  0  0  0  0  0  0  0  0  0  0
   58.5670   28.6900   52.4970 N   0  0  0  0  0  0  0  0  0  0  0  0
   60.0060   28.5910   52.2660 C   0  0  0  0  0  0  0  0  0  0  0  0
   60.1983   28.5303   51.1846 H   0  0  0  0  0  0  0  0  0  0  0  0
   60.3910   27.6888   52.7639 H   0  0  0  0  0  0  0  0  0  0  0  0
   60.7120   29.8210   52.8380 C   0  0  0  0  0  0  0  0  0  0  0  0
   61.4699   29.4929   53.5646 H   0  0  0  0  0  0  0  0  0  0  0  0
   59.9577   30.4591   53.3215 H   0  0  0  0  0  0  0  0  0  0  0  0
   61.3860   30.6220   51.7550 C   0  0  0  0  0  0  0  0  0  0  0  0
   62.1450   31.7560   52.0810 C   0  0  0  0  0  0  0  0  0  0  0  0
   62.2222   32.0798   53.1294 H   0  0  0  0  0  0  0  0  0  0  0  0
   62.8040   32.4770   51.0800 C   0  0  0  0  0  0  0  0  0  0  0  0
   63.3955   33.3662   51.3437 H   0  0  0  0  0  0  0  0  0  0  0  0
   62.7130   32.0700   49.7420 C   0  0  0  0  0  0  0  0  0  0  0  0
   63.5610   32.9630   48.4840 S   0  0  0  0  0  0  0  0  0  0  0  0
   62.7370   34.1440   48.0550 O   0  0  0  0  0  0  0  0  0  0  0  0
   64.8770   33.4610   49.0110 O   0  0  0  0  0  0  0  0  0  0  0  0
   63.8390   31.9300   47.1260 N   0  0  0  0  0  0  0  0  0  0  0  0
   64.5080   32.4280   46.4970 H   0  0  0  0  0  0  0  0  0  0  0  0
   64.3350   31.0830   47.4840 H   0  0  0  0  0  0  0  0  0  0  0  0
   61.9710   30.9280   49.4150 C   0  0  0  0  0  0  0  0  0  0  0  0
   61.9066   30.5974   48.3678 H   0  0  0  0  0  0  0  0  0  0  0  0
   61.3120   30.2070   50.4150 C   0  0  0  0  0  0  0  0  0  0  0  0
   60.7325   29.3100   50.1512 H   0  0  0  0  0  0  0  0  0  0  0  0
   58.3620   30.8970   51.9130 N   0  0  0  0  0  0  0  0  0  0  0  0
   57.5980   32.0080   51.6770 C   0  0  0  0  0  0  0  0  0  0  0  0
   58.1500   33.1360   51.3430 N   0  0  0  0  0  0  0  0  0  0  0  0
   59.4510   33.2670   50.6870 C   0  0  0  0  0  0  0  0  0  0  0  0
   59.9737   34.1447   51.0950 H   0  0  0  0  0  0  0  0  0  0  0  0
   60.0335   32.3528   50.8741 H   0  0  0  0  0  0  0  0  0  0  0  0
   59.2860   33.4380   49.1990 C   0  0  0  0  0  0  0  0  0  0  0  0
   58.6460   32.4490   48.4330 C   0  0  0  0  0  0  0  0  0  0  0  0
   58.2437   31.5503   48.9234 H   0  0  0  0  0  0  0  0  0  0  0  0
   58.5190   32.6040   47.0490 C   0  0  0  0  0  0  0  0  0  0  0  0
   58.0163   31.8278   46.4534 H   0  0  0  0  0  0  0  0  0  0  0  0
   59.0300   33.7440   46.4210 C   0  0  0  0  0  0  0  0  0  0  0  0
   58.8720   33.9340   44.6840 Cl  0  0  0  0  0  0  0  0  0  0  0  0
   59.6690   34.7310   47.1780 C   0  0  0  0  0  0  0  0  0  0  0  0
   60.0700   35.6283   46.6840 H   0  0  0  0  0  0  0  0  0  0  0  0
   59.7990   34.5790   48.5620 C   0  0  0  0  0  0  0  0  0  0  0  0
   60.3050   35.3562   49.1536 H   0  0  0  0  0  0  0  0  0  0  0  0
   56.2420   31.9370   51.7950 N   0  0  0  0  0  0  0  0  0  0  0  0
   55.6880   30.7530   52.1460 C   0  0  0  0  0  0  0  0  0  0  0  0
  1  2  1  0
  2  3  1  0
  3  4  1  0
  4  5  1  0
  5  6  2  0
  5  7  1  0
  7  8  1  0
  8  9  1  0
  2 10  2  3
 10 11  1  0
 11 12  1  0
 11 13  2  0
 13 14  1  0
 14 15  1  0
 15 16  2  3
 16 17  1  0
 17 18  1  0
 17 19  1  0
 17 20  1  0
 20 21  1  0
 20 22  1  0
 20 23  1  0
 23 24  2  0
 24 25  1  0
 24 26  1  0
 26 27  1  0
 26 28  2  0
 28 29  1  0
 29 30  2  0
 29 31  2  0
 29 32  1  0
 32 33  1  0
 32 34  1  0
 28 35  1  0
 35 36  1  0
 35 37  2  0
 37 38  1  0
 15 39  1  0
 39 40  1  0
 40 41  2  0
 41 42  1  0
 42 43  1  0
 42 44  1  0
 42 45  1  0
 45 46  2  0
 46 47  1  0
 46 48  1  0
 48 49  1  0
 48 50  2  0
 50 51  1  0
 50 52  1  0
 52 53  1  0
 52 54  2  0
 54 55  1  0
 40 56  1  0
 56 57  2  0
  8  3  2  0
 57 10  1  0
 57 14  1  0
 37 23  1  0
 54 45  1  0
M  CHG  4   4  -1   7  -1   9  -1  39  -1
M  END
>  <UniqueID>  (69) 
65

>  <SMILES>  (69) 
NS(=O)(=O)c1ccc(CCN=c2[n-]/c(=N\Cc3ccc(Cl)cc3)nc3c(=Cc4[n-]c(=O)[n-]c4[O-])cnn23)cc1

>  <Energy>  (69) 
130.80096681190324

>  <Genealogy>  (69) 
NS(=O)(=O)c1ccc(CCN=c2[n-]c(=NCc3ccc(Cl)cc3)nc3c(=Cc4[n-]c(=O)[n-]c4[O-])cnn23)cc1 (protonated)
NS(=O)(=O)c1ccc(CCN=c2[n-]/c(=N\Cc3ccc(Cl)cc3)nc3c(=Cc4[n-]c(=O)[n-]c4[O-])cnn23)cc1 (cis-trans isomerization)
NS(=O)(=O)c1ccc(CCN=c2[n-]/c(=N\Cc3ccc(Cl)cc3)nc3c(=Cc4[n-]c(=O)[n-]c4[O-])cnn23)cc1 (3D coordinates assigned)
NS(=O)(=O)c1ccc(CCN=c2[n-]/c(=N\Cc3ccc(Cl)cc3)nc3c(=Cc4[n-]c(=O)[n-]c4[O-])cnn23)cc1 (optimized conformer: 130.80096681190324 kcal/mol)

>  <smiles>  (69) 
NS(=O)(=O)c1ccc(CCN=c2[nH]c(=NCc3ccc(Cl)cc3)nc3c(=Cc4[nH]c(=O)[nH]c4O)cnn23)cc1

>  <score_type>  (69) 
oracle

>  <origin>  (69) 
adg

>  <m_score__min__energy>  (69) 
-20.41

>  <m_primary>  (69) 
energy

$$$$
69:0
     RDKit          3D

 46 48  0  0  0  0  0  0  0  0999 V2000
   54.0970   24.1960   45.0850 O   0  0  0  0  0  0  0  0  0  0  0  0
   55.1320   24.2110   45.8060 C   0  0  0  0  0  0  0  0  0  0  0  0
   55.5290   25.3980   46.5100 N   0  0  0  0  0  0  0  0  0  0  0  0
   56.4050   26.3030   46.1720 C   0  0  0  0  0  0  0  0  0  0  0  0
   57.7970   26.1190   46.3110 C   0  0  0  0  0  0  0  0  0  0  0  0
   58.6660   27.1400   45.9230 C   0  0  0  0  0  0  0  0  0  0  0  0
   58.1610   28.3220   45.3840 C   0  0  0  0  0  0  0  0  0  0  0  0
   56.7750   28.4650   45.2200 C   0  0  0  0  0  0  0  0  0  0  0  0
   56.2080   29.6320   44.6890 O   0  0  0  0  0  0  0  0  0  0  0  0
   56.9240   30.7540   44.2450 C   0  0  0  0  0  0  0  0  0  0  0  0
   57.0360   31.0690   42.8800 C   0  0  0  0  0  0  0  0  0  0  0  0
   57.7420   32.2050   42.4780 C   0  0  0  0  0  0  0  0  0  0  0  0
   58.3320   33.0390   43.4300 C   0  0  0  0  0  0  0  0  0  0  0  0
   58.2130   32.7530   44.8020 C   0  0  0  0  0  0  0  0  0  0  0  0
   58.8280   33.6450   45.8140 C   0  0  0  0  0  0  0  0  0  0  0  0
   58.0970   34.2110   46.6710 O   0  0  0  0  0  0  0  0  0  0  0  0
   60.2560   33.8050   45.8480 N   0  0  0  0  0  0  0  0  0  0  0  0
   61.0400   33.8420   46.8880 C   0  0  0  0  0  0  0  0  0  0  0  0
   60.6600   34.1490   48.1550 N   0  0  0  0  0  0  0  0  0  0  0  0
   61.7090   34.1350   49.0200 C   0  0  0  0  0  0  0  0  0  0  0  0
   62.9270   33.8200   48.4340 C   0  0  0  0  0  0  0  0  0  0  0  0
   64.1150   33.7500   49.0810 F   0  0  0  0  0  0  0  0  0  0  0  0
   62.6950   33.5560   46.7900 S   0  0  0  0  0  0  0  0  0  0  0  0
   57.4990   31.6050   45.1980 C   0  0  0  0  0  0  0  0  0  0  0  0
   55.9490   27.4630   45.6250 N   0  0  0  0  0  0  0  0  0  0  0  0
   55.9790   23.0620   45.8610 N   0  0  0  0  0  0  0  0  0  0  0  0
   57.2790   23.0060   45.2030 C   0  0  0  0  0  0  0  0  0  0  0  0
   57.2710   23.8640   43.9360 C   0  0  0  0  0  0  0  0  0  0  0  0
   56.5320   23.1830   42.7840 C   0  0  0  0  0  0  0  0  0  0  0  0
   55.6470   22.2270   43.2990 O   0  0  0  0  0  0  0  0  0  0  0  0
   58.1940   25.1789   46.7217 H   0  0  0  0  0  0  0  0  0  0  0  0
   59.7519   27.0115   46.0429 H   0  0  0  0  0  0  0  0  0  0  0  0
   58.8421   29.1343   45.0902 H   0  0  0  0  0  0  0  0  0  0  0  0
   56.5666   30.4194   42.1266 H   0  0  0  0  0  0  0  0  0  0  0  0
   57.8336   32.4435   41.4081 H   0  0  0  0  0  0  0  0  0  0  0  0
   58.8942   33.9266   43.1044 H   0  0  0  0  0  0  0  0  0  0  0  0
   59.7000   34.4100   48.4630 H   0  0  0  0  0  0  0  0  0  0  0  0
   61.6015   34.3546   50.0925 H   0  0  0  0  0  0  0  0  0  0  0  0
   57.3916   31.3740   46.2681 H   0  0  0  0  0  0  0  0  0  0  0  0
   58.0504   23.3823   45.8911 H   0  0  0  0  0  0  0  0  0  0  0  0
   57.4956   21.9634   44.9274 H   0  0  0  0  0  0  0  0  0  0  0  0
   56.7757   24.8206   44.1587 H   0  0  0  0  0  0  0  0  0  0  0  0
   58.3148   24.0175   43.6247 H   0  0  0  0  0  0  0  0  0  0  0  0
   55.9679   23.9358   42.2139 H   0  0  0  0  0  0  0  0  0  0  0  0
   57.2590   22.6911   42.1211 H   0  0  0  0  0  0  0  0  0  0  0  0
   55.2320   22.6410   44.1000 H   0  0  0  0  0  0  0  0  0  0  0  0
  1  2  2  0
  2  3  1  0
  3  4  2  3
  4  5  1  0
  5  6  2  0
  6  7  1  0
  7  8  2  0
  8  9  1  0
  9 10  1  0
 10 11  2  0
 11 12  1  0
 12 13  2  0
 13 14  1  0
 14 15  1  0
 15 16  2  0
 15 17  1  0
 17 18  2  3
 18 19  1  0
 19 20  1  0
 20 21  2  0
 21 22  1  0
 21 23  1  0
 14 24  2  0
  8 25  1  0
  2 26  1  0
 26 27  1  0
 27 28  1  0
 28 29  1  0
 29 30  1  0
 25  4  1  0
 24 10  1  0
 23 18  1  0
  5 31  1  0
  6 32  1  0
  7 33  1  0
 11 34  1  0
 12 35  1  0
 13 36  1  0
 19 37  1  0
 20 38  1  0
 24 39  1  0
 27 40  1  0
 27 41  1  0
 28 42  1  0
 28 43  1  0
 29 44  1  0
 29 45  1  0
 30 46  1  0
M  CHG  2  25  -1  26  -1
M  END
>  <UniqueID>  (70) 
66

>  <SMILES>  (70) 
O=C(N=c1cccc(Oc2cccc(C(=O)N=c3[nH]cc(F)s3)c2)[n-]1)[N-]CCCO

>  <Energy>  (70) 
92.63881242183491

>  <Genealogy>  (70) 
O=C(N=c1cccc(Oc2cccc(C(=O)N=c3[nH]cc(F)s3)c2)[n-]1)[N-]CCCO (protonated)
O=C(N=c1cccc(Oc2cccc(C(=O)N=c3[nH]cc(F)s3)c2)[n-]1)[N-]CCCO (3D coordinates assigned)
O=C(N=c1cccc(Oc2cccc(C(=O)N=c3[nH]cc(F)s3)c2)[n-]1)[N-]CCCO (optimized conformer: 92.63881242183491 kcal/mol)

>  <smiles>  (70) 
O=C(N=c1cccc(Oc2cccc(C(=O)N=c3[nH]cc(F)s3)c2)[nH]1)NCCCO

>  <score_type>  (70) 
oracle

>  <origin>  (70) 
adg

>  <m_score__min__energy>  (70) 
-11

>  <m_primary>  (70) 
energy

$$$$
70:0
     RDKit          3D

 28 29  0  0  0  0  0  0  0  0999 V2000
   59.6200   33.3710   49.7770 C   0  0  0  0  0  0  0  0  0  0  0  0
   59.1490   32.6340   48.6540 O   0  0  0  0  0  0  0  0  0  0  0  0
   59.0840   33.1380   47.3460 C   0  0  0  0  0  0  0  0  0  0  0  0
   59.5380   34.4280   47.0120 C   0  0  0  0  0  0  0  0  0  0  0  0
   59.4580   34.8810   45.6940 C   0  0  0  0  0  0  0  0  0  0  0  0
   58.9210   34.0610   44.6990 C   0  0  0  0  0  0  0  0  0  0  0  0
   58.4450   32.7770   45.0190 C   0  0  0  0  0  0  0  0  0  0  0  0
   57.8910   31.8870   43.9720 C   0  0  0  0  0  0  0  0  0  0  0  0
   58.1260   32.1480   42.7610 O   0  0  0  0  0  0  0  0  0  0  0  0
   57.0840   30.6920   44.2970 C   0  0  0  0  0  0  0  0  0  0  0  0
   55.7300   30.5060   44.0690 C   0  0  0  0  0  0  0  0  0  0  0  0
   55.3480   29.3090   44.5500 N   0  0  0  0  0  0  0  0  0  0  0  0
   56.4390   28.7350   45.0930 C   0  0  0  0  0  0  0  0  0  0  0  0
   56.4370   27.4150   45.7380 C   0  0  0  0  0  0  0  0  0  0  0  0
   57.5180   26.8830   46.1010 O   0  0  0  0  0  0  0  0  0  0  0  0
   55.2390   26.7480   45.9540 O   0  0  0  0  0  0  0  0  0  0  0  0
   57.5360   29.5670   44.9610 C   0  0  0  0  0  0  0  0  0  0  0  0
   58.5470   32.3210   46.3440 C   0  0  0  0  0  0  0  0  0  0  0  0
   59.3007   32.8714   50.7035 H   0  0  0  0  0  0  0  0  0  0  0  0
   60.7184   33.4219   49.7477 H   0  0  0  0  0  0  0  0  0  0  0  0
   59.2048   34.3892   49.7477 H   0  0  0  0  0  0  0  0  0  0  0  0
   59.9570   35.0809   47.7918 H   0  0  0  0  0  0  0  0  0  0  0  0
   59.8194   35.8879   45.4380 H   0  0  0  0  0  0  0  0  0  0  0  0
   58.8702   34.4210   43.6608 H   0  0  0  0  0  0  0  0  0  0  0  0
   55.0672   31.2282   43.5699 H   0  0  0  0  0  0  0  0  0  0  0  0
   54.3810   28.9140   44.5190 H   0  0  0  0  0  0  0  0  0  0  0  0
   58.5600   29.3729   45.3129 H   0  0  0  0  0  0  0  0  0  0  0  0
   58.2002   31.3083   46.5975 H   0  0  0  0  0  0  0  0  0  0  0  0
  1  2  1  0
  2  3  1  0
  3  4  2  0
  4  5  1  0
  5  6  2  0
  6  7  1  0
  7  8  1  0
  8  9  2  0
  8 10  1  0
 10 11  2  0
 11 12  1  0
 12 13  1  0
 13 14  1  0
 14 15  2  0
 14 16  1  0
 13 17  2  0
  7 18  2  0
 18  3  1  0
 17 10  1  0
  1 19  1  0
  1 20  1  0
  1 21  1  0
  4 22  1  0
  5 23  1  0
  6 24  1  0
 11 25  1  0
 12 26  1  0
 17 27  1  0
 18 28  1  0
M  CHG  1  16  -1
M  END
>  <UniqueID>  (71) 
67

>  <SMILES>  (71) 
COc1cccc(C(=O)c2c[nH]c(C(=O)[O-])c2)c1

>  <Energy>  (71) 
56.96033774348323

>  <Genealogy>  (71) 
COc1cccc(C(=O)c2c[nH]c(C(=O)[O-])c2)c1 (protonated)
COc1cccc(C(=O)c2c[nH]c(C(=O)[O-])c2)c1 (3D coordinates assigned)
COc1cccc(C(=O)c2c[nH]c(C(=O)[O-])c2)c1 (optimized conformer: 56.96033774348323 kcal/mol)

>  <smiles>  (71) 
COc1cccc(C(=O)c2c[nH]c(C(=O)O)c2)c1

>  <score_type>  (71) 
oracle

>  <origin>  (71) 
adg

>  <m_score__min__energy>  (71) 
-9.5700000000000003

>  <m_primary>  (71) 
energy

$$$$
71:0
     RDKit          3D

 44 46  0  0  0  0  0  0  0  0999 V2000
   60.1300   33.1080   48.9170 C   0  0  0  0  0  0  0  0  0  0  0  0
   59.8610   32.2350   47.7310 C   0  0  0  0  0  0  0  0  0  0  0  0
   60.6830   31.2430   47.3360 N   0  0  0  0  0  0  0  0  0  0  0  0
   60.1380   30.7000   46.2330 C   0  0  0  0  0  0  0  0  0  0  0  0
   60.8540   29.3000   45.3690 S   0  0  0  0  0  0  0  0  0  0  0  0
   59.4070   28.2820   45.6490 C   0  0  0  0  0  0  0  0  0  0  0  0
   58.8370   27.5670   44.5890 C   0  0  0  0  0  0  0  0  0  0  0  0
   57.6950   26.7900   44.7990 C   0  0  0  0  0  0  0  0  0  0  0  0
   57.1110   26.7130   46.0760 C   0  0  0  0  0  0  0  0  0  0  0  0
   55.9000   25.8950   46.3040 C   0  0  0  0  0  0  0  0  0  0  0  0
   54.7620   26.3320   45.9850 O   0  0  0  0  0  0  0  0  0  0  0  0
   55.9990   24.6300   46.8720 O   0  0  0  0  0  0  0  0  0  0  0  0
   57.6960   27.4260   47.1380 C   0  0  0  0  0  0  0  0  0  0  0  0
   58.8380   28.2050   46.9250 C   0  0  0  0  0  0  0  0  0  0  0  0
   58.9500   31.3390   45.9150 C   0  0  0  0  0  0  0  0  0  0  0  0
   58.0630   31.0220   44.7800 C   0  0  0  0  0  0  0  0  0  0  0  0
   57.0070   30.1130   44.9420 C   0  0  0  0  0  0  0  0  0  0  0  0
   56.1530   29.8290   43.8700 C   0  0  0  0  0  0  0  0  0  0  0  0
   56.3470   30.4530   42.6360 C   0  0  0  0  0  0  0  0  0  0  0  0
   57.3930   31.3650   42.4700 C   0  0  0  0  0  0  0  0  0  0  0  0
   58.2490   31.6510   43.5370 C   0  0  0  0  0  0  0  0  0  0  0  0
   58.7670   32.3230   46.8790 C   0  0  0  0  0  0  0  0  0  0  0  0
   57.6800   33.3680   46.9160 C   0  0  0  0  0  0  0  0  0  0  0  0
   57.6670   34.2260   45.6460 C   0  0  0  0  0  0  0  0  0  0  0  0
   59.0400   34.7090   45.2920 C   0  0  0  0  0  0  0  0  0  0  0  0
   59.6030   34.3040   44.2410 O   0  0  0  0  0  0  0  0  0  0  0  0
   59.6790   35.6420   46.0990 O   0  0  0  0  0  0  0  0  0  0  0  0
   59.9539   32.5366   49.8403 H   0  0  0  0  0  0  0  0  0  0  0  0
   61.1752   33.4499   48.8911 H   0  0  0  0  0  0  0  0  0  0  0  0
   59.4585   33.9789   48.8911 H   0  0  0  0  0  0  0  0  0  0  0  0
   61.5730   30.9470   47.7960 H   0  0  0  0  0  0  0  0  0  0  0  0
   59.2896   27.6171   43.5877 H   0  0  0  0  0  0  0  0  0  0  0  0
   57.2498   26.2349   43.9601 H   0  0  0  0  0  0  0  0  0  0  0  0
   57.2523   27.3706   48.1430 H   0  0  0  0  0  0  0  0  0  0  0  0
   59.2895   28.7580   47.7619 H   0  0  0  0  0  0  0  0  0  0  0  0
   56.8497   29.6222   45.9138 H   0  0  0  0  0  0  0  0  0  0  0  0
   55.3279   29.1132   43.9998 H   0  0  0  0  0  0  0  0  0  0  0  0
   55.6762   30.2267   41.7941 H   0  0  0  0  0  0  0  0  0  0  0  0
   57.5427   31.8583   41.4983 H   0  0  0  0  0  0  0  0  0  0  0  0
   59.0705   32.3703   43.4036 H   0  0  0  0  0  0  0  0  0  0  0  0
   56.7067   32.8651   47.0151 H   0  0  0  0  0  0  0  0  0  0  0  0
   57.8737   34.0305   47.7725 H   0  0  0  0  0  0  0  0  0  0  0  0
   57.2745   33.6244   44.8129 H   0  0  0  0  0  0  0  0  0  0  0  0
   57.0307   35.1041   45.8308 H   0  0  0  0  0  0  0  0  0  0  0  0
  1  2  1  0
  2  3  1  0
  3  4  1  0
  4  5  1  0
  5  6  1  0
  6  7  2  0
  7  8  1  0
  8  9  2  0
  9 10  1  0
 10 11  2  0
 10 12  1  0
  9 13  1  0
 13 14  2  0
  4 15  2  0
 15 16  1  0
 16 17  2  0
 17 18  1  0
 18 19  2  0
 19 20  1  0
 20 21  2  0
 15 22  1  0
 22 23  1  0
 23 24  1  0
 24 25  1  0
 25 26  2  0
 25 27  1  0
 22  2  2  0
 14  6  1  0
 21 16  1  0
  1 28  1  0
  1 29  1  0
  1 30  1  0
  3 31  1  0
  7 32  1  0
  8 33  1  0
 13 34  1  0
 14 35  1  0
 17 36  1  0
 18 37  1  0
 19 38  1  0
 20 39  1  0
 21 40  1  0
 23 41  1  0
 23 42  1  0
 24 43  1  0
 24 44  1  0
M  CHG  2  12  -1  27  -1
M  END
>  <UniqueID>  (72) 
68

>  <SMILES>  (72) 
Cc1[nH]c(Sc2ccc(C(=O)[O-])cc2)c(-c2ccccc2)c1CCC(=O)[O-]

>  <Energy>  (72) 
67.10310674056844

>  <Genealogy>  (72) 
Cc1[nH]c(Sc2ccc(C(=O)[O-])cc2)c(-c2ccccc2)c1CCC(=O)[O-] (protonated)
Cc1[nH]c(Sc2ccc(C(=O)[O-])cc2)c(-c2ccccc2)c1CCC(=O)[O-] (3D coordinates assigned)
Cc1[nH]c(Sc2ccc(C(=O)[O-])cc2)c(-c2ccccc2)c1CCC(=O)[O-] (optimized conformer: 67.10310674056844 kcal/mol)

>  <smiles>  (72) 
Cc1[nH]c(Sc2ccc(C(=O)O)cc2)c(-c2ccccc2)c1CCC(=O)O

>  <score_type>  (72) 
oracle

>  <origin>  (72) 
adg

>  <m_score__min__energy>  (72) 
-12.24

>  <m_primary>  (72) 
energy

$$$$
72:0
     RDKit          3D

 50 52  0  0  0  0  0  0  0  0999 V2000
   52.1210   30.1470   50.4940 C   0  0  0  0  0  0  0  0  0  0  0  0
   52.3010   30.2380   52.0060 C   0  0  0  0  0  0  0  0  0  0  0  0
   53.7580   30.1710   52.3750 C   0  0  0  0  0  0  0  0  0  0  0  0
   54.1650   29.4770   53.5250 C   0  0  0  0  0  0  0  0  0  0  0  0
   55.5130   29.4500   53.8900 C   0  0  0  0  0  0  0  0  0  0  0  0
   56.4640   30.1140   53.1120 C   0  0  0  0  0  0  0  0  0  0  0  0
   56.0750   30.8050   51.9510 C   0  0  0  0  0  0  0  0  0  0  0  0
   57.0280   31.5300   51.1560 N   0  0  0  0  0  0  0  0  0  0  0  0
   58.1410   30.9240   50.4880 C   0  0  0  0  0  0  0  0  0  0  0  0
   58.1360   29.6910   50.2210 O   0  0  0  0  0  0  0  0  0  0  0  0
   59.2570   31.7360   50.1130 N   0  0  0  0  0  0  0  0  0  0  0  0
   59.1490   32.9500   49.3110 C   0  0  0  0  0  0  0  0  0  0  0  0
   60.4160   33.2100   48.5190 C   0  0  0  0  0  0  0  0  0  0  0  0
   61.5900   33.5400   49.2200 C   0  0  0  0  0  0  0  0  0  0  0  0
   62.7760   33.8150   48.5370 C   0  0  0  0  0  0  0  0  0  0  0  0
   62.8100   33.7630   47.1450 C   0  0  0  0  0  0  0  0  0  0  0  0
   61.6600   33.4270   46.4290 C   0  0  0  0  0  0  0  0  0  0  0  0
   60.4610   33.1340   47.1000 C   0  0  0  0  0  0  0  0  0  0  0  0
   59.2730   32.7850   46.2920 C   0  0  0  0  0  0  0  0  0  0  0  0
   58.5200   33.8000   45.6810 C   0  0  0  0  0  0  0  0  0  0  0  0
   57.3750   33.4810   44.9480 C   0  0  0  0  0  0  0  0  0  0  0  0
   56.9790   32.1490   44.8110 C   0  0  0  0  0  0  0  0  0  0  0  0
   57.7350   31.1250   45.3990 C   0  0  0  0  0  0  0  0  0  0  0  0
   57.2300   29.4460   45.2440 S   0  0  0  0  0  0  0  0  0  0  0  0
   55.5160   29.3780   45.0340 N   0  0  0  0  0  0  0  0  0  0  0  0
   57.6140   28.6850   46.4810 O   0  0  0  0  0  0  0  0  0  0  0  0
   57.9060   28.8140   44.0600 O   0  0  0  0  0  0  0  0  0  0  0  0
   58.8800   31.4460   46.1410 C   0  0  0  0  0  0  0  0  0  0  0  0
   54.7160   30.8470   51.6030 C   0  0  0  0  0  0  0  0  0  0  0  0
   51.1603   29.6613   50.2677 H   0  0  0  0  0  0  0  0  0  0  0  0
   52.1312   31.1586   50.0620 H   0  0  0  0  0  0  0  0  0  0  0  0
   52.9417   29.5555   50.0620 H   0  0  0  0  0  0  0  0  0  0  0  0
   51.8820   31.1906   52.3625 H   0  0  0  0  0  0  0  0  0  0  0  0
   51.7789   29.3910   52.4751 H   0  0  0  0  0  0  0  0  0  0  0  0
   53.4198   28.9525   54.1411 H   0  0  0  0  0  0  0  0  0  0  0  0
   55.8263   28.9045   54.7924 H   0  0  0  0  0  0  0  0  0  0  0  0
   57.5230   30.0963   53.4092 H   0  0  0  0  0  0  0  0  0  0  0  0
   56.9050   32.5620   51.0490 H   0  0  0  0  0  0  0  0  0  0  0  0
   58.3067   32.8423   48.6118 H   0  0  0  0  0  0  0  0  0  0  0  0
   58.9882   33.7990   49.9916 H   0  0  0  0  0  0  0  0  0  0  0  0
   61.5733   33.5819   50.3191 H   0  0  0  0  0  0  0  0  0  0  0  0
   63.6857   34.0733   49.0989 H   0  0  0  0  0  0  0  0  0  0  0  0
   63.7445   33.9871   46.6097 H   0  0  0  0  0  0  0  0  0  0  0  0
   61.6927   33.3913   45.3301 H   0  0  0  0  0  0  0  0  0  0  0  0
   58.8329   34.8499   45.7799 H   0  0  0  0  0  0  0  0  0  0  0  0
   56.7839   34.2806   44.4776 H   0  0  0  0  0  0  0  0  0  0  0  0
   56.0716   31.9024   44.2403 H   0  0  0  0  0  0  0  0  0  0  0  0
   55.1670   28.5930   45.6290 H   0  0  0  0  0  0  0  0  0  0  0  0
   59.4731   30.6452   46.6069 H   0  0  0  0  0  0  0  0  0  0  0  0
   54.3983   31.4153   50.7164 H   0  0  0  0  0  0  0  0  0  0  0  0
  1  2  1  0
  2  3  1  0
  3  4  2  0
  4  5  1  0
  5  6  2  0
  6  7  1  0
  7  8  1  0
  8  9  1  0
  9 10  2  0
  9 11  1  0
 11 12  1  0
 12 13  1  0
 13 14  2  0
 14 15  1  0
 15 16  2  0
 16 17  1  0
 17 18  2  0
 18 19  1  0
 19 20  2  0
 20 21  1  0
 21 22  2  0
 22 23  1  0
 23 24  1  0
 24 25  1  0
 24 26  2  0
 24 27  2  0
 23 28  2  0
  7 29  2  0
 29  3  1  0
 18 13  1  0
 28 19  1  0
  1 30  1  0
  1 31  1  0
  1 32  1  0
  2 33  1  0
  2 34  1  0
  4 35  1  0
  5 36  1  0
  6 37  1  0
  8 38  1  0
 12 39  1  0
 12 40  1  0
 14 41  1  0
 15 42  1  0
 16 43  1  0
 17 44  1  0
 20 45  1  0
 21 46  1  0
 22 47  1  0
 25 48  1  0
 28 49  1  0
 29 50  1  0
M  CHG  2  11  -1  25  -1
M  END
>  <UniqueID>  (73) 
69

>  <SMILES>  (73) 
CCc1cccc(NC(=O)[N-]Cc2ccccc2-c2cccc(S([NH-])(=O)=O)c2)c1

>  <Energy>  (73) 
56.36971076147739

>  <Genealogy>  (73) 
CCc1cccc(NC(=O)[N-]Cc2ccccc2-c2cccc(S([NH-])(=O)=O)c2)c1 (protonated)
CCc1cccc(NC(=O)[N-]Cc2ccccc2-c2cccc(S([NH-])(=O)=O)c2)c1 (3D coordinates assigned)
CCc1cccc(NC(=O)[N-]Cc2ccccc2-c2cccc(S([NH-])(=O)=O)c2)c1 (optimized conformer: 56.36971076147739 kcal/mol)

>  <smiles>  (73) 
CCc1cccc(NC(=O)NCc2ccccc2-c2cccc(S(N)(=O)=O)c2)c1

>  <score_type>  (73) 
oracle

>  <origin>  (73) 
adg

>  <m_score__min__energy>  (73) 
-12.94

>  <m_primary>  (73) 
energy

$$$$
73:0
     RDKit          3D

 45 47  0  0  0  0  0  0  0  0999 V2000
   54.5970   21.5940   44.6780 H   0  0  0  0  0  0  0  0  0  0  0  0
   55.5730   21.2740   44.4830 N   0  0  0  0  0  0  0  0  0  0  0  0
   56.2340   22.3620   43.3140 S   0  0  0  0  0  0  0  0  0  0  0  0
   55.2030   22.6550   42.2610 O   0  0  0  0  0  0  0  0  0  0  0  0
   57.4260   21.7240   42.6570 O   0  0  0  0  0  0  0  0  0  0  0  0
   56.7190   23.8540   44.1090 C   0  0  0  0  0  0  0  0  0  0  0  0
   56.4520   24.0480   45.4710 C   0  0  0  0  0  0  0  0  0  0  0  0
   55.9225   23.2705   46.0412 H   0  0  0  0  0  0  0  0  0  0  0  0
   56.8550   25.2240   46.1080 C   0  0  0  0  0  0  0  0  0  0  0  0
   56.6219   25.3784   47.1719 H   0  0  0  0  0  0  0  0  0  0  0  0
   57.5580   26.2120   45.3940 C   0  0  0  0  0  0  0  0  0  0  0  0
   57.9780   27.4380   46.0130 N   0  0  0  0  0  0  0  0  0  0  0  0
   58.6470   28.4130   45.4630 C   0  0  0  0  0  0  0  0  0  0  0  0
   59.6476   28.1913   45.0635 H   0  0  0  0  0  0  0  0  0  0  0  0
   58.1420   29.8020   45.3430 C   0  0  0  0  0  0  0  0  0  0  0  0
   56.8430   30.0280   44.8830 C   0  0  0  0  0  0  0  0  0  0  0  0
   56.0140   28.9600   44.5520 O   0  0  0  0  0  0  0  0  0  0  0  0
   56.3790   28.0170   44.4920 H   0  0  0  0  0  0  0  0  0  0  0  0
   56.3800   31.2960   44.7710 N   0  0  0  0  0  0  0  0  0  0  0  0
   57.1510   32.3680   45.0850 C   0  0  0  0  0  0  0  0  0  0  0  0
   56.6600   33.5220   44.9690 O   0  0  0  0  0  0  0  0  0  0  0  0
   58.4420   32.1900   45.5200 N   0  0  0  0  0  0  0  0  0  0  0  0
   59.2950   33.3550   45.8300 C   0  0  0  0  0  0  0  0  0  0  0  0
   58.7567   34.2777   45.5677 H   0  0  0  0  0  0  0  0  0  0  0  0
   60.2251   33.2797   45.2475 H   0  0  0  0  0  0  0  0  0  0  0  0
   59.6400   33.3820   47.2980 C   0  0  0  0  0  0  0  0  0  0  0  0
   60.7880   34.0530   47.7480 C   0  0  0  0  0  0  0  0  0  0  0  0
   61.4527   34.5461   47.0234 H   0  0  0  0  0  0  0  0  0  0  0  0
   61.0910   34.0980   49.1110 C   0  0  0  0  0  0  0  0  0  0  0  0
   61.9999   34.6146   49.4530 H   0  0  0  0  0  0  0  0  0  0  0  0
   60.2410   33.4870   50.0460 C   0  0  0  0  0  0  0  0  0  0  0  0
   60.5850   33.5040   51.5060 C   0  0  0  0  0  0  0  0  0  0  0  0
   59.6609   33.4583   52.1010 H   0  0  0  0  0  0  0  0  0  0  0  0
   61.2175   32.6360   51.7438 H   0  0  0  0  0  0  0  0  0  0  0  0
   61.1288   34.4301   51.7438 H   0  0  0  0  0  0  0  0  0  0  0  0
   59.1020   32.8040   49.5970 C   0  0  0  0  0  0  0  0  0  0  0  0
   58.4443   32.3011   50.3213 H   0  0  0  0  0  0  0  0  0  0  0  0
   58.7980   32.7590   48.2330 C   0  0  0  0  0  0  0  0  0  0  0  0
   57.8947   32.2329   47.8907 H   0  0  0  0  0  0  0  0  0  0  0  0
   58.9510   30.9190   45.6290 C   0  0  0  0  0  0  0  0  0  0  0  0
   60.1540   30.7430   45.9700 O   0  0  0  0  0  0  0  0  0  0  0  0
   57.7970   26.0280   44.0260 C   0  0  0  0  0  0  0  0  0  0  0  0
   58.3058   26.8146   43.4494 H   0  0  0  0  0  0  0  0  0  0  0  0
   57.3930   24.8510   43.3890 C   0  0  0  0  0  0  0  0  0  0  0  0
   57.6045   24.7064   42.3193 H   0  0  0  0  0  0  0  0  0  0  0  0
  1  2  1  0
  2  3  1  0
  3  4  2  0
  3  5  2  0
  3  6  1  0
  6  7  2  0
  7  8  1  0
  7  9  1  0
  9 10  1  0
  9 11  2  0
 11 12  1  0
 12 13  2  0
 13 14  1  0
 13 15  1  0
 15 16  2  0
 16 17  1  0
 17 18  1  0
 16 19  1  0
 19 20  1  0
 20 21  2  0
 20 22  1  0
 22 23  1  0
 23 24  1  0
 23 25  1  0
 23 26  1  0
 26 27  2  0
 27 28  1  0
 27 29  1  0
 29 30  1  0
 29 31  2  0
 31 32  1  0
 32 33  1  0
 32 34  1  0
 32 35  1  0
 31 36  1  0
 36 37  1  0
 36 38  2  0
 38 39  1  0
 22 40  1  0
 40 41  2  0
 11 42  1  0
 42 43  1  0
 42 44  2  0
 44 45  1  0
 44  6  1  0
 40 15  1  0
 38 26  1  0
M  CHG  2   2  -1  19  -1
M  END
>  <UniqueID>  (74) 
70

>  <SMILES>  (74) 
Cc1ccc(Cn2c(=O)[n-]c(O)c(/C=N\c3ccc(S([NH-])(=O)=O)cc3)c2=O)cc1

>  <Energy>  (74) 
62.56241597750626

>  <Genealogy>  (74) 
Cc1ccc(Cn2c(=O)[n-]c(O)c(C=Nc3ccc(S([NH-])(=O)=O)cc3)c2=O)cc1 (protonated)
Cc1ccc(Cn2c(=O)[n-]c(O)c(/C=N\c3ccc(S([NH-])(=O)=O)cc3)c2=O)cc1 (cis-trans isomerization)
Cc1ccc(Cn2c(=O)[n-]c(O)c(/C=N\c3ccc(S([NH-])(=O)=O)cc3)c2=O)cc1 (3D coordinates assigned)
Cc1ccc(Cn2c(=O)[n-]c(O)c(/C=N\c3ccc(S([NH-])(=O)=O)cc3)c2=O)cc1 (optimized conformer: 62.56241597750626 kcal/mol)

>  <smiles>  (74) 
Cc1ccc(Cn2c(=O)[nH]c(O)c(C=Nc3ccc(S(N)(=O)=O)cc3)c2=O)cc1

>  <score_type>  (74) 
oracle

>  <origin>  (74) 
adg

>  <m_score__min__energy>  (74) 
-11.84

>  <m_primary>  (74) 
energy

$$$$
74:0
     RDKit          3D

 53 56  0  0  0  0  0  0  0  0999 V2000
   57.9493   28.8652   43.3667 H   0  0  0  0  0  0  0  0  0  0  0  0
   57.3140   29.5840   43.9050 C   0  0  0  0  0  0  0  0  0  0  0  0
   56.2530   29.0720   44.7980 C   0  0  0  0  0  0  0  0  0  0  0  0
   55.1610   29.6920   44.9040 O   0  0  0  0  0  0  0  0  0  0  0  0
   56.4690   27.9140   45.6150 N   0  0  0  0  0  0  0  0  0  0  0  0
   57.7060   27.5360   46.2370 C   0  0  0  0  0  0  0  0  0  0  0  0
   58.5570   28.5080   46.7950 C   0  0  0  0  0  0  0  0  0  0  0  0
   58.2482   29.5637   46.8051 H   0  0  0  0  0  0  0  0  0  0  0  0
   59.7910   28.1410   47.3360 C   0  0  0  0  0  0  0  0  0  0  0  0
   60.4440   28.9053   47.7825 H   0  0  0  0  0  0  0  0  0  0  0  0
   60.1970   26.8060   47.3110 C   0  0  0  0  0  0  0  0  0  0  0  0
   61.1681   26.5183   47.7401 H   0  0  0  0  0  0  0  0  0  0  0  0
   59.3700   25.8350   46.7410 C   0  0  0  0  0  0  0  0  0  0  0  0
   59.6966   24.7848   46.7185 H   0  0  0  0  0  0  0  0  0  0  0  0
   58.1260   26.1890   46.1970 C   0  0  0  0  0  0  0  0  0  0  0  0
   57.2930   25.1650   45.6240 N   0  0  0  0  0  0  0  0  0  0  0  0
   57.7510   24.3720   44.4810 C   0  0  0  0  0  0  0  0  0  0  0  0
   58.5071   24.9400   43.9191 H   0  0  0  0  0  0  0  0  0  0  0  0
   58.1936   23.4309   44.8394 H   0  0  0  0  0  0  0  0  0  0  0  0
   56.5610   24.0640   43.5690 C   0  0  0  0  0  0  0  0  0  0  0  0
   56.2093   24.9983   43.1071 H   0  0  0  0  0  0  0  0  0  0  0  0
   56.8847   23.3525   42.7950 H   0  0  0  0  0  0  0  0  0  0  0  0
   55.5000   23.4820   44.3060 O   0  0  0  0  0  0  0  0  0  0  0  0
   54.9980   24.4140   45.2460 C   0  0  0  0  0  0  0  0  0  0  0  0
   54.7030   25.3335   44.7193 H   0  0  0  0  0  0  0  0  0  0  0  0
   54.1308   23.9678   45.7548 H   0  0  0  0  0  0  0  0  0  0  0  0
   56.0590   24.7560   46.2960 C   0  0  0  0  0  0  0  0  0  0  0  0
   55.6963   25.5785   46.9300 H   0  0  0  0  0  0  0  0  0  0  0  0
   56.2561   23.8724   46.9208 H   0  0  0  0  0  0  0  0  0  0  0  0
   57.5270   30.8960   43.7300 C   0  0  0  0  0  0  0  0  0  0  0  0
   57.4275   31.3093   42.7155 H   0  0  0  0  0  0  0  0  0  0  0  0
   57.8900   31.8200   44.8330 C   0  0  0  0  0  0  0  0  0  0  0  0
   57.1350   32.9710   45.1320 C   0  0  0  0  0  0  0  0  0  0  0  0
   56.2270   33.1958   44.5532 H   0  0  0  0  0  0  0  0  0  0  0  0
   57.5340   33.8280   46.1600 C   0  0  0  0  0  0  0  0  0  0  0  0
   56.9403   34.7262   46.3854 H   0  0  0  0  0  0  0  0  0  0  0  0
   58.6830   33.5500   46.9030 C   0  0  0  0  0  0  0  0  0  0  0  0
   58.9936   34.2332   47.7072 H   0  0  0  0  0  0  0  0  0  0  0  0
   59.4420   32.4050   46.6290 C   0  0  0  0  0  0  0  0  0  0  0  0
   60.6350   32.1520   47.3920 N   0  0  0  0  0  0  0  0  0  0  0  0
   60.6720   31.2770   47.9640 H   0  0  0  0  0  0  0  0  0  0  0  0
   61.8220   32.9570   47.3140 C   0  0  0  0  0  0  0  0  0  0  0  0
   61.9520   33.8190   46.4030 O   0  0  0  0  0  0  0  0  0  0  0  0
   62.9160   32.7510   48.2760 C   0  0  0  0  0  0  0  0  0  0  0  0
   62.8990   31.8470   49.2290 O   0  0  0  0  0  0  0  0  0  0  0  0
   64.0220   31.9280   49.9040 C   0  0  0  0  0  0  0  0  0  0  0  0
   64.2926   31.2942   50.7614 H   0  0  0  0  0  0  0  0  0  0  0  0
   64.8120   32.9290   49.3750 C   0  0  0  0  0  0  0  0  0  0  0  0
   65.8087   33.2380   49.7231 H   0  0  0  0  0  0  0  0  0  0  0  0
   64.1000   33.4630   48.3230 C   0  0  0  0  0  0  0  0  0  0  0  0
   64.4091   34.2841   47.6594 H   0  0  0  0  0  0  0  0  0  0  0  0
   59.0540   31.5570   45.5750 C   0  0  0  0  0  0  0  0  0  0  0  0
   59.6687   30.6785   45.3293 H   0  0  0  0  0  0  0  0  0  0  0  0
  1  2  1  0
  2  3  1  0
  3  4  2  0
  3  5  1  0
  5  6  1  0
  6  7  2  0
  7  8  1  0
  7  9  1  0
  9 10  1  0
  9 11  2  0
 11 12  1  0
 11 13  1  0
 13 14  1  0
 13 15  2  0
 15 16  1  0
 16 17  1  0
 17 18  1  0
 17 19  1  0
 17 20  1  0
 20 21  1  0
 20 22  1  0
 20 23  1  0
 23 24  1  0
 24 25  1  0
 24 26  1  0
 24 27  1  0
 27 28  1  0
 27 29  1  0
  2 30  2  0
 30 31  1  0
 30 32  1  0
 32 33  2  0
 33 34  1  0
 33 35  1  0
 35 36  1  0
 35 37  2  0
 37 38  1  0
 37 39  1  0
 39 40  1  0
 40 41  1  0
 40 42  1  0
 42 43  2  0
 42 44  1  0
 44 45  1  0
 45 46  1  0
 46 47  1  0
 46 48  2  0
 48 49  1  0
 48 50  1  0
 50 51  1  0
 39 52  2  0
 52 53  1  0
 15  6  1  0
 27 16  1  0
 52 32  1  0
 50 44  2  0
M  CHG  1   5  -1
M  END
>  <UniqueID>  (75) 
71

>  <SMILES>  (75) 
O=C(/C=C/c1cccc(NC(=O)c2ccco2)c1)[N-]c1ccccc1N1CCOCC1

>  <Energy>  (75) 
97.53950022863464

>  <Genealogy>  (75) 
O=C(C=Cc1cccc(NC(=O)c2ccco2)c1)[N-]c1ccccc1N1CCOCC1 (protonated)
O=C(/C=C/c1cccc(NC(=O)c2ccco2)c1)[N-]c1ccccc1N1CCOCC1 (cis-trans isomerization)
O=C(/C=C/c1cccc(NC(=O)c2ccco2)c1)[N-]c1ccccc1N1CCOCC1 (3D coordinates assigned)
O=C(/C=C/c1cccc(NC(=O)c2ccco2)c1)[N-]c1ccccc1N1CCOCC1 (nonaromatic ring conformer: 97.53950022863464 kcal/mol)

>  <smiles>  (75) 
O=C(C=Cc1cccc(NC(=O)c2ccco2)c1)Nc1ccccc1N1CCOCC1

>  <score_type>  (75) 
oracle

>  <origin>  (75) 
adg

>  <m_score__min__energy>  (75) 
-10.800000000000001

>  <m_primary>  (75) 
energy

$$$$
75:0
     RDKit          3D

 44 46  0  0  0  0  0  0  0  0999 V2000
   64.9380   33.3600   50.1470 C   0  0  0  0  0  0  0  0  0  0  0  0
   63.8110   33.0370   48.8080 S   0  0  0  0  0  0  0  0  0  0  0  0
   63.4990   31.5680   48.7240 O   0  0  0  0  0  0  0  0  0  0  0  0
   64.4610   33.4640   47.5220 O   0  0  0  0  0  0  0  0  0  0  0  0
   62.3470   33.9450   49.0240 N   0  0  0  0  0  0  0  0  0  0  0  0
   61.2170   33.9040   48.1310 C   0  0  0  0  0  0  0  0  0  0  0  0
   59.9580   33.5530   48.6440 C   0  0  0  0  0  0  0  0  0  0  0  0
   58.8390   33.4970   47.8080 C   0  0  0  0  0  0  0  0  0  0  0  0
   58.9620   33.7930   46.4460 C   0  0  0  0  0  0  0  0  0  0  0  0
   57.5610   33.7080   45.3840 S   0  0  0  0  0  0  0  0  0  0  0  0
   56.2950   33.5710   46.1840 O   0  0  0  0  0  0  0  0  0  0  0  0
   57.4900   34.9690   44.5690 O   0  0  0  0  0  0  0  0  0  0  0  0
   57.7050   32.3490   44.3160 N   0  0  0  0  0  0  0  0  0  0  0  0
   57.7410   30.9760   44.7260 C   0  0  0  0  0  0  0  0  0  0  0  0
   56.7120   30.0720   44.4040 C   0  0  0  0  0  0  0  0  0  0  0  0
   56.7820   28.7430   44.8330 C   0  0  0  0  0  0  0  0  0  0  0  0
   57.8800   28.3010   45.5840 C   0  0  0  0  0  0  0  0  0  0  0  0
   57.9860   26.6240   46.1120 S   0  0  0  0  0  0  0  0  0  0  0  0
   58.3620   25.7670   44.9370 O   0  0  0  0  0  0  0  0  0  0  0  0
   59.0280   26.4690   47.1830 O   0  0  0  0  0  0  0  0  0  0  0  0
   56.4530   26.0990   46.7310 N   0  0  0  0  0  0  0  0  0  0  0  0
   55.6690   25.2580   46.1280 C   0  0  0  0  0  0  0  0  0  0  0  0
   54.3690   25.5270   45.8950 N   0  0  0  0  0  0  0  0  0  0  0  0
   53.7490   24.4990   45.2570 C   0  0  0  0  0  0  0  0  0  0  0  0
   54.5590   23.4020   44.9790 C   0  0  0  0  0  0  0  0  0  0  0  0
   56.1050   23.7340   45.5530 S   0  0  0  0  0  0  0  0  0  0  0  0
   58.9010   29.2010   45.9100 C   0  0  0  0  0  0  0  0  0  0  0  0
   58.8330   30.5280   45.4780 C   0  0  0  0  0  0  0  0  0  0  0  0
   60.2110   34.1520   45.9270 C   0  0  0  0  0  0  0  0  0  0  0  0
   61.3320   34.2080   46.7610 C   0  0  0  0  0  0  0  0  0  0  0  0
   64.4201   33.2116   51.1060 H   0  0  0  0  0  0  0  0  0  0  0  0
   65.7927   32.6706   50.0813 H   0  0  0  0  0  0  0  0  0  0  0  0
   65.2978   34.3974   50.0813 H   0  0  0  0  0  0  0  0  0  0  0  0
   62.2920   34.5450   49.8770 H   0  0  0  0  0  0  0  0  0  0  0  0
   59.8512   33.3199   49.7137 H   0  0  0  0  0  0  0  0  0  0  0  0
   57.8586   33.2193   48.2223 H   0  0  0  0  0  0  0  0  0  0  0  0
   55.8492   30.4121   43.8125 H   0  0  0  0  0  0  0  0  0  0  0  0
   55.9728   28.0420   44.5803 H   0  0  0  0  0  0  0  0  0  0  0  0
   52.6848   24.5319   44.9807 H   0  0  0  0  0  0  0  0  0  0  0  0
   54.2432   22.4783   44.4720 H   0  0  0  0  0  0  0  0  0  0  0  0
   59.7598   28.8625   46.5083 H   0  0  0  0  0  0  0  0  0  0  0  0
   59.6444   31.2263   45.7310 H   0  0  0  0  0  0  0  0  0  0  0  0
   60.3114   34.3912   44.8580 H   0  0  0  0  0  0  0  0  0  0  0  0
   62.3098   34.4913   46.3442 H   0  0  0  0  0  0  0  0  0  0  0  0
  1  2  1  0
  2  3  2  0
  2  4  2  0
  2  5  1  0
  5  6  1  0
  6  7  2  0
  7  8  1  0
  8  9  2  0
  9 10  1  0
 10 11  2  0
 10 12  2  0
 10 13  1  0
 13 14  1  0
 14 15  2  0
 15 16  1  0
 16 17  2  0
 17 18  1  0
 18 19  2  0
 18 20  2  0
 18 21  1  0
 21 22  2  3
 22 23  1  0
 23 24  1  0
 24 25  2  0
 25 26  1  0
 17 27  1  0
 27 28  2  0
  9 29  1  0
 29 30  2  0
 30  6  1  0
 28 14  1  0
 26 22  1  0
  1 31  1  0
  1 32  1  0
  1 33  1  0
  5 34  1  0
  7 35  1  0
  8 36  1  0
 15 37  1  0
 16 38  1  0
 24 39  1  0
 25 40  1  0
 27 41  1  0
 28 42  1  0
 29 43  1  0
 30 44  1  0
M  CHG  2  13  -1  23  -1
M  END
>  <UniqueID>  (76) 
72

>  <SMILES>  (76) 
CS(=O)(=O)Nc1ccc(S(=O)(=O)[N-]c2ccc(S(=O)(=O)N=c3[n-]ccs3)cc2)cc1

>  <Energy>  (76) 
81.45706691122251

>  <Genealogy>  (76) 
CS(=O)(=O)Nc1ccc(S(=O)(=O)[N-]c2ccc(S(=O)(=O)N=c3[n-]ccs3)cc2)cc1 (protonated)
CS(=O)(=O)Nc1ccc(S(=O)(=O)[N-]c2ccc(S(=O)(=O)N=c3[n-]ccs3)cc2)cc1 (3D coordinates assigned)
CS(=O)(=O)Nc1ccc(S(=O)(=O)[N-]c2ccc(S(=O)(=O)N=c3[n-]ccs3)cc2)cc1 (optimized conformer: 81.45706691122251 kcal/mol)

>  <smiles>  (76) 
CS(=O)(=O)Nc1ccc(S(=O)(=O)Nc2ccc(S(=O)(=O)N=c3[nH]ccs3)cc2)cc1

>  <score_type>  (76) 
oracle

>  <origin>  (76) 
adg

>  <m_score__min__energy>  (76) 
-11.65

>  <m_primary>  (76) 
energy

$$$$
76:0
     RDKit          3D

 54 56  0  0  0  0  0  0  0  0999 V2000
   52.9520   23.7000   43.3500 O   0  0  0  0  0  0  0  0  0  0  0  0
   52.9220   24.0210   44.5690 C   0  0  0  0  0  0  0  0  0  0  0  0
   51.7250   24.4770   45.1070 O   0  0  0  0  0  0  0  0  0  0  0  0
   54.1470   23.9120   45.4040 C   0  0  0  0  0  0  0  0  0  0  0  0
   54.7260   22.6470   45.6270 C   0  0  0  0  0  0  0  0  0  0  0  0
   55.8800   22.5140   46.4100 C   0  0  0  0  0  0  0  0  0  0  0  0
   56.5590   20.9130   46.7020 S   0  0  0  0  0  0  0  0  0  0  0  0
   57.7160   21.0390   47.6520 O   0  0  0  0  0  0  0  0  0  0  0  0
   55.5260   20.0140   47.3250 O   0  0  0  0  0  0  0  0  0  0  0  0
   57.1160   20.2160   45.2090 N   0  0  0  0  0  0  0  0  0  0  0  0
   56.4200   20.8430   44.0810 C   0  0  0  0  0  0  0  0  0  0  0  0
   57.3730   21.7480   43.2840 C   0  0  0  0  0  0  0  0  0  0  0  0
   58.3070   22.5610   44.1520 C   0  0  0  0  0  0  0  0  0  0  0  0
   59.2460   21.9850   44.7690 O   0  0  0  0  0  0  0  0  0  0  0  0
   58.1610   23.9920   44.2680 N   0  0  0  0  0  0  0  0  0  0  0  0
   57.3520   24.7640   43.3170 C   0  0  0  0  0  0  0  0  0  0  0  0
   57.9670   26.1570   43.1030 C   0  0  0  0  0  0  0  0  0  0  0  0
   58.3070   26.8730   44.3600 N   0  0  0  0  0  0  0  0  0  0  0  0
   57.3940   28.3560   44.5040 S   0  0  0  0  0  0  0  0  0  0  0  0
   56.9760   28.8310   43.1380 O   0  0  0  0  0  0  0  0  0  0  0  0
   56.1610   28.1250   45.3310 O   0  0  0  0  0  0  0  0  0  0  0  0
   58.3840   29.5780   45.2960 C   0  0  0  0  0  0  0  0  0  0  0  0
   58.0960   30.9420   45.1490 C   0  0  0  0  0  0  0  0  0  0  0  0
   58.8990   31.9020   45.7730 C   0  0  0  0  0  0  0  0  0  0  0  0
   59.9940   31.5030   46.5490 C   0  0  0  0  0  0  0  0  0  0  0  0
   61.0900   32.8140   47.4020 Br  0  0  0  0  0  0  0  0  0  0  0  0
   60.2850   30.1430   46.6970 C   0  0  0  0  0  0  0  0  0  0  0  0
   59.4850   29.1830   46.0710 C   0  0  0  0  0  0  0  0  0  0  0  0
   58.1450   26.0740   45.5900 C   0  0  0  0  0  0  0  0  0  0  0  0
   58.7510   24.6790   45.4230 C   0  0  0  0  0  0  0  0  0  0  0  0
   56.4610   23.6490   46.9860 C   0  0  0  0  0  0  0  0  0  0  0  0
   55.8990   24.9080   46.7720 C   0  0  0  0  0  0  0  0  0  0  0  0
   54.7500   25.0480   45.9880 C   0  0  0  0  0  0  0  0  0  0  0  0
   54.2240   26.3220   45.8000 O   0  0  0  0  0  0  0  0  0  0  0  0
   54.2662   21.7528   45.1808 H   0  0  0  0  0  0  0  0  0  0  0  0
   58.1350   20.4370   45.1430 H   0  0  0  0  0  0  0  0  0  0  0  0
   56.0295   20.0577   43.4171 H   0  0  0  0  0  0  0  0  0  0  0  0
   55.5969   21.4581   44.4736 H   0  0  0  0  0  0  0  0  0  0  0  0
   57.9793   21.1145   42.6199 H   0  0  0  0  0  0  0  0  0  0  0  0
   56.7481   22.4620   42.7275 H   0  0  0  0  0  0  0  0  0  0  0  0
   57.3156   24.2315   42.3552 H   0  0  0  0  0  0  0  0  0  0  0  0
   56.3357   24.8793   43.7219 H   0  0  0  0  0  0  0  0  0  0  0  0
   58.8878   26.0405   42.5126 H   0  0  0  0  0  0  0  0  0  0  0  0
   57.2055   26.7631   42.5903 H   0  0  0  0  0  0  0  0  0  0  0  0
   57.2357   31.2582   44.5409 H   0  0  0  0  0  0  0  0  0  0  0  0
   58.6702   32.9713   45.6541 H   0  0  0  0  0  0  0  0  0  0  0  0
   61.1447   29.8285   47.3069 H   0  0  0  0  0  0  0  0  0  0  0  0
   59.7192   28.1144   46.1862 H   0  0  0  0  0  0  0  0  0  0  0  0
   58.6495   26.5879   46.4215 H   0  0  0  0  0  0  0  0  0  0  0  0
   57.0703   25.9660   45.7981 H   0  0  0  0  0  0  0  0  0  0  0  0
   59.8365   24.7726   45.2717 H   0  0  0  0  0  0  0  0  0  0  0  0
   58.5412   24.0915   46.3290 H   0  0  0  0  0  0  0  0  0  0  0  0
   57.3623   23.5486   47.6086 H   0  0  0  0  0  0  0  0  0  0  0  0
   56.3634   25.7971   47.2235 H   0  0  0  0  0  0  0  0  0  0  0  0
  1  2  2  0
  2  3  1  0
  2  4  1  0
  4  5  2  0
  5  6  1  0
  6  7  1  0
  7  8  2  0
  7  9  2  0
  7 10  1  0
 10 11  1  0
 11 12  1  0
 12 13  1  0
 13 14  2  0
 13 15  1  0
 15 16  1  0
 16 17  1  0
 17 18  1  0
 18 19  1  0
 19 20  2  0
 19 21  2  0
 19 22  1  0
 22 23  2  0
 23 24  1  0
 24 25  2  0
 25 26  1  0
 25 27  1  0
 27 28  2  0
 18 29  1  0
 29 30  1  0
  6 31  2  0
 31 32  1  0
 32 33  2  0
 33 34  1  0
 33  4  1  0
 30 15  1  0
 28 22  1  0
  5 35  1  0
 10 36  1  0
 11 37  1  0
 11 38  1  0
 12 39  1  0
 12 40  1  0
 16 41  1  0
 16 42  1  0
 17 43  1  0
 17 44  1  0
 23 45  1  0
 24 46  1  0
 27 47  1  0
 28 48  1  0
 29 49  1  0
 29 50  1  0
 30 51  1  0
 30 52  1  0
 31 53  1  0
 32 54  1  0
M  CHG  2   3  -1  34  -1
M  END
>  <UniqueID>  (77) 
73

>  <SMILES>  (77) 
O=C([O-])c1cc(S(=O)(=O)NCCC(=O)N2CCN(S(=O)(=O)c3ccc(Br)cc3)CC2)ccc1[O-]

>  <Energy>  (77) 
60.69532846535527

>  <Genealogy>  (77) 
O=C([O-])c1cc(S(=O)(=O)NCCC(=O)N2CCN(S(=O)(=O)c3ccc(Br)cc3)CC2)ccc1[O-] (protonated)
O=C([O-])c1cc(S(=O)(=O)NCCC(=O)N2CCN(S(=O)(=O)c3ccc(Br)cc3)CC2)ccc1[O-] (3D coordinates assigned)
O=C([O-])c1cc(S(=O)(=O)NCCC(=O)N2CCN(S(=O)(=O)c3ccc(Br)cc3)CC2)ccc1[O-] (nonaromatic ring conformer: 60.69532846535527 kcal/mol)

>  <smiles>  (77) 
O=C(O)c1cc(S(=O)(=O)NCCC(=O)N2CCN(S(=O)(=O)c3ccc(Br)cc3)CC2)ccc1O

>  <score_type>  (77) 
oracle

>  <origin>  (77) 
adg

>  <m_score__min__energy>  (77) 
-16.93

>  <m_primary>  (77) 
energy

$$$$
77:0
     RDKit          3D

 31 32  0  0  0  0  0  0  0  0999 V2000
   57.5480   32.3250   41.1180 C   0  0  0  0  0  0  0  0  0  0  0  0
   57.6070   32.0460   42.5920 C   0  0  0  0  0  0  0  0  0  0  0  0
   58.2070   32.9720   43.4580 C   0  0  0  0  0  0  0  0  0  0  0  0
   58.2380   32.7330   44.8380 C   0  0  0  0  0  0  0  0  0  0  0  0
   58.8540   33.7420   45.7640 C   0  0  0  0  0  0  0  0  0  0  0  0
   57.6260   31.5820   45.3570 C   0  0  0  0  0  0  0  0  0  0  0  0
   57.0050   30.6530   44.5040 C   0  0  0  0  0  0  0  0  0  0  0  0
   56.3590   29.4380   45.0540 C   0  0  0  0  0  0  0  0  0  0  0  0
   55.2720   29.0270   44.5650 O   0  0  0  0  0  0  0  0  0  0  0  0
   56.9990   28.6990   46.1060 N   0  0  0  0  0  0  0  0  0  0  0  0
   57.4620   27.3410   46.0440 C   0  0  0  0  0  0  0  0  0  0  0  0
   58.8240   27.0370   45.8730 C   0  0  0  0  0  0  0  0  0  0  0  0
   59.2280   25.7040   45.7910 C   0  0  0  0  0  0  0  0  0  0  0  0
   58.3080   24.7060   45.8610 N   0  0  0  0  0  0  0  0  0  0  0  0
   56.9820   24.9660   46.0040 C   0  0  0  0  0  0  0  0  0  0  0  0
   56.1640   24.0100   46.0580 O   0  0  0  0  0  0  0  0  0  0  0  0
   56.5280   26.2890   46.0910 C   0  0  0  0  0  0  0  0  0  0  0  0
   55.1610   26.5370   46.2290 O   0  0  0  0  0  0  0  0  0  0  0  0
   56.9980   30.8990   43.1180 C   0  0  0  0  0  0  0  0  0  0  0  0
   57.3229   33.3893   40.9550 H   0  0  0  0  0  0  0  0  0  0  0  0
   58.5176   32.0809   40.6595 H   0  0  0  0  0  0  0  0  0  0  0  0
   56.7602   31.7092   40.6595 H   0  0  0  0  0  0  0  0  0  0  0  0
   58.6555   33.8905   43.0515 H   0  0  0  0  0  0  0  0  0  0  0  0
   58.6712   33.4425   46.8065 H   0  0  0  0  0  0  0  0  0  0  0  0
   59.9376   33.7933   45.5819 H   0  0  0  0  0  0  0  0  0  0  0  0
   58.4045   34.7293   45.5819 H   0  0  0  0  0  0  0  0  0  0  0  0
   57.6322   31.4047   46.4426 H   0  0  0  0  0  0  0  0  0  0  0  0
   59.5668   27.8454   45.8043 H   0  0  0  0  0  0  0  0  0  0  0  0
   60.2937   25.4602   45.6694 H   0  0  0  0  0  0  0  0  0  0  0  0
   54.7760   27.4750   46.2240 H   0  0  0  0  0  0  0  0  0  0  0  0
   56.5092   30.1832   42.4407 H   0  0  0  0  0  0  0  0  0  0  0  0
  1  2  1  0
  2  3  2  0
  3  4  1  0
  4  5  1  0
  4  6  2  0
  6  7  1  0
  7  8  1  0
  8  9  2  0
  8 10  1  0
 10 11  1  0
 11 12  1  0
 12 13  2  0
 13 14  1  0
 14 15  1  0
 15 16  2  0
 15 17  1  0
 17 18  1  0
  7 19  2  0
 19  2  1  0
 17 11  2  0
  1 20  1  0
  1 21  1  0
  1 22  1  0
  3 23  1  0
  5 24  1  0
  5 25  1  0
  5 26  1  0
  6 27  1  0
 12 28  1  0
 13 29  1  0
 18 30  1  0
 19 31  1  0
M  CHG  2  10  -1  14  -1
M  END
>  <UniqueID>  (78) 
74

>  <SMILES>  (78) 
Cc1cc(C)cc(C(=O)[N-]c2cc[n-]c(=O)c2O)c1

>  <Energy>  (78) 
35.903294543758065

>  <Genealogy>  (78) 
Cc1cc(C)cc(C(=O)[N-]c2cc[n-]c(=O)c2O)c1 (protonated)
Cc1cc(C)cc(C(=O)[N-]c2cc[n-]c(=O)c2O)c1 (3D coordinates assigned)
Cc1cc(C)cc(C(=O)[N-]c2cc[n-]c(=O)c2O)c1 (optimized conformer: 35.903294543758065 kcal/mol)

>  <smiles>  (78) 
Cc1cc(C)cc(C(=O)Nc2cc[nH]c(=O)c2O)c1

>  <score_type>  (78) 
oracle

>  <origin>  (78) 
adg

>  <m_score__min__energy>  (78) 
-11.51

>  <m_primary>  (78) 
energy

$$$$
78:0
     RDKit          3D

 52 55  0  0  0  0  0  0  0  0999 V2000
   57.8285   34.6607   45.9868 H   0  0  0  0  0  0  0  0  0  0  0  0
   57.8350   33.7890   45.3160 C   0  0  0  0  0  0  0  0  0  0  0  0
   58.5160   33.8480   44.0990 C   0  0  0  0  0  0  0  0  0  0  0  0
   59.0415   34.7666   43.7990 H   0  0  0  0  0  0  0  0  0  0  0  0
   58.5220   32.7250   43.2660 C   0  0  0  0  0  0  0  0  0  0  0  0
   59.0609   32.7566   42.3075 H   0  0  0  0  0  0  0  0  0  0  0  0
   57.8630   31.5920   43.6370 N   0  0  0  0  0  0  0  0  0  0  0  0
   57.8910   30.7610   43.0020 H   0  0  0  0  0  0  0  0  0  0  0  0
   57.1650   31.5180   44.8070 C   0  0  0  0  0  0  0  0  0  0  0  0
   56.5300   30.2800   45.1690 N   0  0  0  0  0  0  0  0  0  0  0  0
   56.9850   29.0860   44.9270 C   0  0  0  0  0  0  0  0  0  0  0  0
   57.3670   28.7020   43.6900 N   0  0  0  0  0  0  0  0  0  0  0  0
   57.7740   27.4030   43.6660 C   0  0  0  0  0  0  0  0  0  0  0  0
   58.2700   26.7710   42.4030 C   0  0  0  0  0  0  0  0  0  0  0  0
   58.9317   25.9278   42.6502 H   0  0  0  0  0  0  0  0  0  0  0  0
   57.4148   26.4059   41.8153 H   0  0  0  0  0  0  0  0  0  0  0  0
   58.8279   27.5149   41.8153 H   0  0  0  0  0  0  0  0  0  0  0  0
   57.6980   26.7360   44.8950 C   0  0  0  0  0  0  0  0  0  0  0  0
   58.1780   25.3710   45.1910 C   0  0  0  0  0  0  0  0  0  0  0  0
   57.7670   24.4120   44.4890 O   0  0  0  0  0  0  0  0  0  0  0  0
   59.1160   25.1030   46.2400 N   0  0  0  0  0  0  0  0  0  0  0  0
   60.4850   25.6050   46.2800 C   0  0  0  0  0  0  0  0  0  0  0  0
   61.0534   25.0623   47.0497 H   0  0  0  0  0  0  0  0  0  0  0  0
   60.9626   25.4535   45.3008 H   0  0  0  0  0  0  0  0  0  0  0  0
   60.4650   27.0700   46.6100 C   0  0  0  0  0  0  0  0  0  0  0  0
   60.5640   28.0240   45.5840 C   0  0  0  0  0  0  0  0  0  0  0  0
   60.6837   27.6961   44.5409 H   0  0  0  0  0  0  0  0  0  0  0  0
   60.5110   29.3890   45.8830 C   0  0  0  0  0  0  0  0  0  0  0  0
   60.5943   30.1294   45.0737 H   0  0  0  0  0  0  0  0  0  0  0  0
   60.3520   29.8210   47.2110 C   0  0  0  0  0  0  0  0  0  0  0  0
   60.3020   31.2310   47.5140 N   0  0  0  0  0  0  0  0  0  0  0  0
   59.2570   31.7530   48.3640 C   0  0  0  0  0  0  0  0  0  0  0  0
   58.5250   30.9680   49.0260 O   0  0  0  0  0  0  0  0  0  0  0  0
   58.9770   33.2280   48.4180 C   0  0  0  0  0  0  0  0  0  0  0  0
   58.5879   33.4809   49.4153 H   0  0  0  0  0  0  0  0  0  0  0  0
   58.2409   33.4666   47.6362 H   0  0  0  0  0  0  0  0  0  0  0  0
   60.2380   34.0520   48.1540 C   0  0  0  0  0  0  0  0  0  0  0  0
   60.9095   33.9718   49.0216 H   0  0  0  0  0  0  0  0  0  0  0  0
   59.9467   35.1001   47.9911 H   0  0  0  0  0  0  0  0  0  0  0  0
   60.9660   33.5460   46.9080 C   0  0  0  0  0  0  0  0  0  0  0  0
   61.8452   34.1795   46.7190 H   0  0  0  0  0  0  0  0  0  0  0  0
   60.2791   33.5892   46.0499 H   0  0  0  0  0  0  0  0  0  0  0  0
   61.4210   32.0970   47.1100 C   0  0  0  0  0  0  0  0  0  0  0  0
   62.1936   32.0709   47.8926 H   0  0  0  0  0  0  0  0  0  0  0  0
   61.8182   31.7239   46.1545 H   0  0  0  0  0  0  0  0  0  0  0  0
   60.2540   28.8650   48.2370 C   0  0  0  0  0  0  0  0  0  0  0  0
   60.1398   29.1923   49.2809 H   0  0  0  0  0  0  0  0  0  0  0  0
   60.3010   27.5000   47.9370 C   0  0  0  0  0  0  0  0  0  0  0  0
   60.2090   26.7590   48.7447 H   0  0  0  0  0  0  0  0  0  0  0  0
   57.1200   27.8250   46.0420 S   0  0  0  0  0  0  0  0  0  0  0  0
   57.1620   32.6210   45.6800 C   0  0  0  0  0  0  0  0  0  0  0  0
   56.6331   32.5638   46.6428 H   0  0  0  0  0  0  0  0  0  0  0  0
  1  2  1  0
  2  3  2  0
  3  4  1  0
  3  5  1  0
  5  6  1  0
  5  7  2  0
  7  8  1  0
  7  9  1  0
  9 10  1  0
 10 11  2  0
 11 12  1  0
 12 13  1  0
 13 14  1  0
 14 15  1  0
 14 16  1  0
 14 17  1  0
 13 18  2  0
 18 19  1  0
 19 20  2  0
 19 21  1  0
 21 22  1  0
 22 23  1  0
 22 24  1  0
 22 25  1  0
 25 26  2  0
 26 27  1  0
 26 28  1  0
 28 29  1  0
 28 30  2  0
 30 31  1  0
 31 32  1  0
 32 33  2  0
 32 34  1  0
 34 35  1  0
 34 36  1  0
 34 37  1  0
 37 38  1  0
 37 39  1  0
 37 40  1  0
 40 41  1  0
 40 42  1  0
 40 43  1  0
 43 44  1  0
 43 45  1  0
 30 46  1  0
 46 47  1  0
 46 48  2  0
 48 49  1  0
 18 50  1  0
  9 51  2  0
 51 52  1  0
 51  2  1  0
 50 11  1  0
 48 25  1  0
 43 31  1  0
M  CHG  3   7   1  12  -1  21  -1
M  END
>  <UniqueID>  (79) 
75

>  <SMILES>  (79) 
Cc1[n-]/c(=N/c2cccc[nH+]2)sc1C(=O)[N-]Cc1ccc(N2CCCCC2=O)cc1

>  <Energy>  (79) 
97.06910464384818

>  <Genealogy>  (79) 
Cc1[n-]c(=Nc2cccc[nH+]2)sc1C(=O)[N-]Cc1ccc(N2CCCCC2=O)cc1 (protonated)
Cc1[n-]/c(=N/c2cccc[nH+]2)sc1C(=O)[N-]Cc1ccc(N2CCCCC2=O)cc1 (cis-trans isomerization)
Cc1[n-]/c(=N/c2cccc[nH+]2)sc1C(=O)[N-]Cc1ccc(N2CCCCC2=O)cc1 (3D coordinates assigned)
Cc1[n-]/c(=N/c2cccc[nH+]2)sc1C(=O)[N-]Cc1ccc(N2CCCCC2=O)cc1 (nonaromatic ring conformer: 97.06910464384818 kcal/mol)

>  <smiles>  (79) 
Cc1[nH]c(=Nc2ccccn2)sc1C(=O)NCc1ccc(N2CCCCC2=O)cc1

>  <score_type>  (79) 
oracle

>  <origin>  (79) 
adg

>  <m_score__min__energy>  (79) 
-10.59

>  <m_primary>  (79) 
energy

$$$$
79:0
     RDKit          3D

 42 45  0  0  0  0  0  0  0  0999 V2000
   55.9117   22.4619   47.4572 H   0  0  0  0  0  0  0  0  0  0  0  0
   56.1340   23.4790   47.1020 C   0  0  0  0  0  0  0  0  0  0  0  0
   57.4040   23.9520   46.9750 N   0  0  0  0  0  0  0  0  0  0  0  0
   57.1990   25.1970   46.5240 C   0  0  0  0  0  0  0  0  0  0  0  0
   58.1190   26.1830   46.2020 C   0  0  0  0  0  0  0  0  0  0  0  0
   59.3580   25.9870   46.3140 O   0  0  0  0  0  0  0  0  0  0  0  0
   57.6410   27.3810   45.7580 N   0  0  0  0  0  0  0  0  0  0  0  0
   56.2930   27.6110   45.6290 C   0  0  0  0  0  0  0  0  0  0  0  0
   55.8870   28.7670   45.1970 N   0  0  0  0  0  0  0  0  0  0  0  0
   56.3200   29.3980   43.9500 C   0  0  0  0  0  0  0  0  0  0  0  0
   55.6669   30.2576   43.7390 H   0  0  0  0  0  0  0  0  0  0  0  0
   56.2566   28.6506   43.1454 H   0  0  0  0  0  0  0  0  0  0  0  0
   57.7730   29.8860   44.0400 C   0  0  0  0  0  0  0  0  0  0  0  0
   58.0108   30.4688   43.1379 H   0  0  0  0  0  0  0  0  0  0  0  0
   58.4280   29.0061   44.1218 H   0  0  0  0  0  0  0  0  0  0  0  0
   57.9910   30.7520   45.2540 C   0  0  0  0  0  0  0  0  0  0  0  0
   58.6690   30.2470   46.3720 C   0  0  0  0  0  0  0  0  0  0  0  0
   59.0675   29.2219   46.3537 H   0  0  0  0  0  0  0  0  0  0  0  0
   58.8410   31.0400   47.5100 C   0  0  0  0  0  0  0  0  0  0  0  0
   59.3921   30.6420   48.3748 H   0  0  0  0  0  0  0  0  0  0  0  0
   58.3170   32.3370   47.5570 C   0  0  0  0  0  0  0  0  0  0  0  0
   58.5230   33.1170   48.7440 N   0  0  0  0  0  0  0  0  0  0  0  0
   59.7480   33.7650   49.1120 C   0  0  0  0  0  0  0  0  0  0  0  0
   59.7830   34.4890   50.1430 O   0  0  0  0  0  0  0  0  0  0  0  0
   60.9810   33.5160   48.3220 C   0  0  0  0  0  0  0  0  0  0  0  0
   61.9640   32.6560   48.8500 C   0  0  0  0  0  0  0  0  0  0  0  0
   61.7996   32.1773   49.8266 H   0  0  0  0  0  0  0  0  0  0  0  0
   63.1450   32.4040   48.1480 C   0  0  0  0  0  0  0  0  0  0  0  0
   63.9048   31.7326   48.5745 H   0  0  0  0  0  0  0  0  0  0  0  0
   63.3620   33.0020   46.9080 C   0  0  0  0  0  0  0  0  0  0  0  0
   64.2953   32.8070   46.3594 H   0  0  0  0  0  0  0  0  0  0  0  0
   62.3960   33.8480   46.3620 C   0  0  0  0  0  0  0  0  0  0  0  0
   62.5693   34.3121   45.3799 H   0  0  0  0  0  0  0  0  0  0  0  0
   61.2070   34.1110   47.0550 C   0  0  0  0  0  0  0  0  0  0  0  0
   60.0190   35.1390   46.2570 Cl  0  0  0  0  0  0  0  0  0  0  0  0
   57.6610   32.8600   46.4240 C   0  0  0  0  0  0  0  0  0  0  0  0
   57.2110   34.1740   46.4000 O   0  0  0  0  0  0  0  0  0  0  0  0
   57.4860   32.0610   45.2880 C   0  0  0  0  0  0  0  0  0  0  0  0
   56.9489   32.4619   44.4158 H   0  0  0  0  0  0  0  0  0  0  0  0
   55.3960   26.6240   45.9550 N   0  0  0  0  0  0  0  0  0  0  0  0
   55.8770   25.4370   46.3950 C   0  0  0  0  0  0  0  0  0  0  0  0
   55.1600   24.3660   46.7540 N   0  0  0  0  0  0  0  0  0  0  0  0
  1  2  1  0
  2  3  2  0
  3  4  1  0
  4  5  1  0
  5  6  2  0
  5  7  1  0
  7  8  1  0
  8  9  2  0
  9 10  1  0
 10 11  1  0
 10 12  1  0
 10 13  1  0
 13 14  1  0
 13 15  1  0
 13 16  1  0
 16 17  2  0
 17 18  1  0
 17 19  1  0
 19 20  1  0
 19 21  2  0
 21 22  1  0
 22 23  1  0
 23 24  2  0
 23 25  1  0
 25 26  2  0
 26 27  1  0
 26 28  1  0
 28 29  1  0
 28 30  2  0
 30 31  1  0
 30 32  1  0
 32 33  1  0
 32 34  2  0
 34 35  1  0
 21 36  1  0
 36 37  1  0
 36 38  2  0
 38 39  1  0
  8 40  1  0
 40 41  1  0
 41 42  1  0
 42  2  1  0
 41  4  2  0
 38 16  1  0
 34 25  1  0
M  CHG  5   7  -1  22  -1  37  -1  40  -1  42  -1
M  END
>  <UniqueID>  (80) 
76

>  <SMILES>  (80) 
O=C([N-]c1ccc(CC/N=c2/[n-]c(=O)c3nc[n-]c3[n-]2)cc1[O-])c1ccccc1Cl

>  <Energy>  (80) 
92.6625028011975

>  <Genealogy>  (80) 
O=C([N-]c1ccc(CCN=c2[n-]c(=O)c3nc[n-]c3[n-]2)cc1[O-])c1ccccc1Cl (protonated)
O=C([N-]c1ccc(CC/N=c2/[n-]c(=O)c3nc[n-]c3[n-]2)cc1[O-])c1ccccc1Cl (cis-trans isomerization)
O=C([N-]c1ccc(CC/N=c2/[n-]c(=O)c3nc[n-]c3[n-]2)cc1[O-])c1ccccc1Cl (3D coordinates assigned)
O=C([N-]c1ccc(CC/N=c2/[n-]c(=O)c3nc[n-]c3[n-]2)cc1[O-])c1ccccc1Cl (optimized conformer: 92.6625028011975 kcal/mol)

>  <smiles>  (80) 
O=C(Nc1ccc(CCN=c2[nH]c(=O)c3nc[nH]c3[nH]2)cc1O)c1ccccc1Cl

>  <score_type>  (80) 
oracle

>  <origin>  (80) 
adg

>  <m_score__min__energy>  (80) 
-18.43

>  <m_primary>  (80) 
energy

$$$$
80:0
     RDKit          3D

 47 51  0  0  0  0  0  0  0  0999 V2000
   55.0920   26.2680   45.9400 N   0  0  0  0  0  0  0  0  0  0  0  0
   56.2370   25.7530   46.6170 C   0  0  0  0  0  0  0  0  0  0  0  0
   56.0810   24.9120   47.5430 O   0  0  0  0  0  0  0  0  0  0  0  0
   57.5960   26.1800   46.2120 C   0  0  0  0  0  0  0  0  0  0  0  0
   58.7030   25.4670   46.7100 C   0  0  0  0  0  0  0  0  0  0  0  0
   60.0040   25.8970   46.4460 C   0  0  0  0  0  0  0  0  0  0  0  0
   60.2210   27.0470   45.6890 C   0  0  0  0  0  0  0  0  0  0  0  0
   59.1370   27.7560   45.1690 C   0  0  0  0  0  0  0  0  0  0  0  0
   57.8250   27.3160   45.3910 C   0  0  0  0  0  0  0  0  0  0  0  0
   56.7610   28.0270   44.7400 N   0  0  0  0  0  0  0  0  0  0  0  0
   56.3970   29.3970   44.9710 C   0  0  0  0  0  0  0  0  0  0  0  0
   55.1870   29.7260   44.8540 O   0  0  0  0  0  0  0  0  0  0  0  0
   57.3940   30.4250   45.3460 C   0  0  0  0  0  0  0  0  0  0  0  0
   57.5110   31.6090   44.5680 C   0  0  0  0  0  0  0  0  0  0  0  0
   58.4650   32.5900   44.8920 C   0  0  0  0  0  0  0  0  0  0  0  0
   59.2740   32.3650   46.0010 C   0  0  0  0  0  0  0  0  0  0  0  0
   60.2400   33.1570   46.4860 N   0  0  0  0  0  0  0  0  0  0  0  0
   60.6830   32.4530   47.5620 C   0  0  0  0  0  0  0  0  0  0  0  0
   61.7650   32.9240   48.4330 C   0  0  0  0  0  0  0  0  0  0  0  0
   61.8750   34.1870   48.9790 C   0  0  0  0  0  0  0  0  0  0  0  0
   63.0380   34.1740   49.7200 C   0  0  0  0  0  0  0  0  0  0  0  0
   63.5670   32.8990   49.5790 C   0  0  0  0  0  0  0  0  0  0  0  0
   64.8150   32.3770   50.1820 C   0  0  0  0  0  0  0  0  0  0  0  0
   66.0110   33.1040   50.0390 C   0  0  0  0  0  0  0  0  0  0  0  0
   67.2010   32.6300   50.6010 C   0  0  0  0  0  0  0  0  0  0  0  0
   67.2090   31.4270   51.3100 C   0  0  0  0  0  0  0  0  0  0  0  0
   66.0290   30.6960   51.4600 C   0  0  0  0  0  0  0  0  0  0  0  0
   64.8360   31.1660   50.8990 C   0  0  0  0  0  0  0  0  0  0  0  0
   62.7810   32.1820   48.8050 O   0  0  0  0  0  0  0  0  0  0  0  0
   60.0430   31.2720   47.7680 N   0  0  0  0  0  0  0  0  0  0  0  0
   59.1570   31.2440   46.7620 C   0  0  0  0  0  0  0  0  0  0  0  0
   58.2250   30.2510   46.4770 C   0  0  0  0  0  0  0  0  0  0  0  0
   55.1690   27.0980   45.3120 H   0  0  0  0  0  0  0  0  0  0  0  0
   58.5408   24.5617   47.3134 H   0  0  0  0  0  0  0  0  0  0  0  0
   60.8602   25.3271   46.8362 H   0  0  0  0  0  0  0  0  0  0  0  0
   61.2471   27.3960   45.5013 H   0  0  0  0  0  0  0  0  0  0  0  0
   59.3140   28.6679   44.5799 H   0  0  0  0  0  0  0  0  0  0  0  0
   56.8481   31.7594   43.7032 H   0  0  0  0  0  0  0  0  0  0  0  0
   58.5680   33.5042   44.2890 H   0  0  0  0  0  0  0  0  0  0  0  0
   61.1793   35.0292   48.8498 H   0  0  0  0  0  0  0  0  0  0  0  0
   63.4603   35.0051   50.3039 H   0  0  0  0  0  0  0  0  0  0  0  0
   66.0103   34.0521   49.4812 H   0  0  0  0  0  0  0  0  0  0  0  0
   68.1312   33.2054   50.4844 H   0  0  0  0  0  0  0  0  0  0  0  0
   68.1457   31.0550   51.7507 H   0  0  0  0  0  0  0  0  0  0  0  0
   66.0369   29.7492   52.0199 H   0  0  0  0  0  0  0  0  0  0  0  0
   63.9094   30.5856   51.0191 H   0  0  0  0  0  0  0  0  0  0  0  0
   58.1372   29.3574   47.1124 H   0  0  0  0  0  0  0  0  0  0  0  0
  1  2  1  0
  2  3  2  0
  2  4  1  0
  4  5  2  0
  5  6  1  0
  6  7  2  0
  7  8  1  0
  8  9  2  0
  9 10  1  0
 10 11  1  0
 11 12  2  0
 11 13  1  0
 13 14  2  0
 14 15  1  0
 15 16  2  0
 16 17  1  0
 17 18  1  0
 18 19  1  0
 19 20  2  0
 20 21  1  0
 21 22  2  0
 22 23  1  0
 23 24  2  0
 24 25  1  0
 25 26  2  0
 26 27  1  0
 27 28  2  0
 22 29  1  0
 18 30  2  0
 30 31  1  0
 31 32  2  0
  9  4  1  0
 32 13  1  0
 31 16  1  0
 29 19  1  0
 28 23  1  0
  1 33  1  0
  5 34  1  0
  6 35  1  0
  7 36  1  0
  8 37  1  0
 14 38  1  0
 15 39  1  0
 20 40  1  0
 21 41  1  0
 24 42  1  0
 25 43  1  0
 26 44  1  0
 27 45  1  0
 28 46  1  0
 32 47  1  0
M  CHG  3   1  -1  10  -1  17  -1
M  END
>  <UniqueID>  (81) 
77

>  <SMILES>  (81) 
[NH-]C(=O)c1ccccc1[N-]C(=O)c1ccc2[n-]c(-c3ccc(-c4ccccc4)o3)nc2c1

>  <Energy>  (81) 
126.94257473652854

>  <Genealogy>  (81) 
[NH-]C(=O)c1ccccc1[N-]C(=O)c1ccc2[n-]c(-c3ccc(-c4ccccc4)o3)nc2c1 (protonated)
[NH-]C(=O)c1ccccc1[N-]C(=O)c1ccc2[n-]c(-c3ccc(-c4ccccc4)o3)nc2c1 (3D coordinates assigned)
[NH-]C(=O)c1ccccc1[N-]C(=O)c1ccc2[n-]c(-c3ccc(-c4ccccc4)o3)nc2c1 (optimized conformer: 126.94257473652854 kcal/mol)

>  <smiles>  (81) 
NC(=O)c1ccccc1NC(=O)c1ccc2[nH]c(-c3ccc(-c4ccccc4)o3)nc2c1

>  <score_type>  (81) 
oracle

>  <origin>  (81) 
adg

>  <m_score__min__energy>  (81) 
-14.779999999999999

>  <m_primary>  (81) 
energy

$$$$
81:0
     RDKit          3D

 62 65  0  0  0  0  0  0  0  0999 V2000
   59.8880   34.5780   48.9690 C   0  0  0  0  0  0  0  0  0  0  0  0
   59.5130   34.4120   47.5320 C   0  0  0  0  0  0  0  0  0  0  0  0
   58.2490   34.4990   47.0720 N   0  0  0  0  0  0  0  0  0  0  0  0
   58.2910   34.2910   45.7650 N   0  0  0  0  0  0  0  0  0  0  0  0
   57.1070   34.2220   44.9190 C   0  0  0  0  0  0  0  0  0  0  0  0
   59.5540   34.0440   45.3750 C   0  0  0  0  0  0  0  0  0  0  0  0
   60.3700   34.1350   46.4850 C   0  0  0  0  0  0  0  0  0  0  0  0
   61.8440   33.8530   46.5410 C   0  0  0  0  0  0  0  0  0  0  0  0
   62.1840   32.8140   47.6110 C   0  0  0  0  0  0  0  0  0  0  0  0
   61.9490   31.4570   47.1110 N   0  0  0  0  0  0  0  0  0  0  0  0
   60.6800   30.8060   47.2700 C   0  0  0  0  0  0  0  0  0  0  0  0
   59.6190   31.4450   47.0440 O   0  0  0  0  0  0  0  0  0  0  0  0
   60.5960   29.3330   47.6270 C   0  0  2  0  0  0  0  0  0  0  0  0
   59.4630   28.6290   46.8780 C   0  0  0  0  0  0  0  0  0  0  0  0
   59.2060   27.2640   47.3770 N   0  0  0  0  0  0  0  0  0  0  0  0
   58.2510   26.4460   46.6670 C   0  0  0  0  0  0  0  0  0  0  0  0
   58.6700   25.3080   45.9420 C   0  0  0  0  0  0  0  0  0  0  0  0
   57.7440   24.5290   45.2420 C   0  0  0  0  0  0  0  0  0  0  0  0
   56.3930   24.8700   45.2500 C   0  0  0  0  0  0  0  0  0  0  0  0
   55.9610   25.9940   45.9610 C   0  0  0  0  0  0  0  0  0  0  0  0
   54.6140   26.3320   45.9630 O   0  0  0  0  0  0  0  0  0  0  0  0
   56.8810   26.7740   46.6700 C   0  0  0  0  0  0  0  0  0  0  0  0
   59.7890   26.7210   48.6270 C   0  0  0  0  0  0  0  0  0  0  0  0
   60.7170   27.6850   49.3870 C   0  0  0  0  0  0  0  0  0  0  0  0
   60.4660   29.1010   49.0800 N   0  0  0  0  0  0  0  0  0  0  0  0
   59.3000   29.7590   49.7500 C   0  0  0  0  0  0  0  0  0  0  0  0
   59.6010   31.0110   50.5250 C   0  0  0  0  0  0  0  0  0  0  0  0
   60.8330   31.6130   50.7070 C   0  0  0  0  0  0  0  0  0  0  0  0
   60.6660   32.7570   51.4000 N   0  0  0  0  0  0  0  0  0  0  0  0
   59.3780   32.8720   51.6820 N   0  0  0  0  0  0  0  0  0  0  0  0
   58.7810   34.0460   52.3070 C   0  0  0  0  0  0  0  0  0  0  0  0
   58.6970   31.8330   51.1660 C   0  0  0  0  0  0  0  0  0  0  0  0
   59.0681   34.2151   49.6062 H   0  0  0  0  0  0  0  0  0  0  0  0
   60.7995   33.9993   49.1793 H   0  0  0  0  0  0  0  0  0  0  0  0
   60.0724   35.6418   49.1793 H   0  0  0  0  0  0  0  0  0  0  0  0
   56.2078   34.1696   45.5504 H   0  0  0  0  0  0  0  0  0  0  0  0
   57.0574   35.1188   44.2839 H   0  0  0  0  0  0  0  0  0  0  0  0
   57.1619   33.3255   44.2839 H   0  0  0  0  0  0  0  0  0  0  0  0
   59.8800   33.8103   44.3507 H   0  0  0  0  0  0  0  0  0  0  0  0
   62.1716   33.4752   45.5612 H   0  0  0  0  0  0  0  0  0  0  0  0
   62.3615   34.7892   46.7973 H   0  0  0  0  0  0  0  0  0  0  0  0
   63.2429   32.9172   47.8904 H   0  0  0  0  0  0  0  0  0  0  0  0
   61.5391   32.9843   48.4857 H   0  0  0  0  0  0  0  0  0  0  0  0
   62.7610   30.9190   46.7370 H   0  0  0  0  0  0  0  0  0  0  0  0
   61.5532   28.8959   47.3066 H   0  0  0  0  0  0  0  0  0  0  0  0
   58.5444   29.2232   46.9921 H   0  0  0  0  0  0  0  0  0  0  0  0
   59.7669   28.5436   45.8243 H   0  0  0  0  0  0  0  0  0  0  0  0
   59.7348   25.0324   45.9282 H   0  0  0  0  0  0  0  0  0  0  0  0
   58.0829   23.6442   44.6832 H   0  0  0  0  0  0  0  0  0  0  0  0
   55.6669   24.2556   44.6975 H   0  0  0  0  0  0  0  0  0  0  0  0
   56.5315   27.6510   47.2346 H   0  0  0  0  0  0  0  0  0  0  0  0
   58.9615   26.4452   49.2972 H   0  0  0  0  0  0  0  0  0  0  0  0
   60.4137   25.8665   48.3277 H   0  0  0  0  0  0  0  0  0  0  0  0
   60.5711   27.5311   50.4664 H   0  0  0  0  0  0  0  0  0  0  0  0
   61.7466   27.4617   49.0705 H   0  0  0  0  0  0  0  0  0  0  0  0
   58.5657   30.0142   48.9718 H   0  0  0  0  0  0  0  0  0  0  0  0
   58.9382   29.0325   50.4925 H   0  0  0  0  0  0  0  0  0  0  0  0
   61.7947   31.2210   50.3444 H   0  0  0  0  0  0  0  0  0  0  0  0
   58.8324   33.9450   53.4011 H   0  0  0  0  0  0  0  0  0  0  0  0
   59.3307   34.9465   51.9957 H   0  0  0  0  0  0  0  0  0  0  0  0
   57.7295   34.1323   51.9957 H   0  0  0  0  0  0  0  0  0  0  0  0
   57.6121   31.6680   51.2416 H   0  0  0  0  0  0  0  0  0  0  0  0
  1  2  1  0
  2  3  2  0
  3  4  1  0
  4  5  1  0
  4  6  1  0
  6  7  2  0
  7  8  1  0
  8  9  1  0
  9 10  1  0
 10 11  1  0
 11 12  2  0
 11 13  1  0
 13 14  1  0
 14 15  1  0
 15 16  1  0
 16 17  2  0
 17 18  1  0
 18 19  2  0
 19 20  1  0
 20 21  1  0
 20 22  2  0
 15 23  1  0
 23 24  1  0
 24 25  1  0
 25 26  1  0
 26 27  1  0
 27 28  1  0
 28 29  2  0
 29 30  1  0
 30 31  1  0
 30 32  1  0
  7  2  1  0
 25 13  1  0
 32 27  2  0
 22 16  1  0
  1 33  1  0
  1 34  1  0
  1 35  1  0
  5 36  1  0
  5 37  1  0
  5 38  1  0
  6 39  1  0
  8 40  1  0
  8 41  1  0
  9 42  1  0
  9 43  1  0
 10 44  1  0
 13 45  1  6
 14 46  1  0
 14 47  1  0
 17 48  1  0
 18 49  1  0
 19 50  1  0
 22 51  1  0
 23 52  1  0
 23 53  1  0
 24 54  1  0
 24 55  1  0
 26 56  1  0
 26 57  1  0
 28 58  1  0
 31 59  1  0
 31 60  1  0
 31 61  1  0
 32 62  1  0
M  CHG  1  21  -1
M  END
>  <UniqueID>  (82) 
78

>  <SMILES>  (82) 
Cc1nn(C)cc1CCNC(=O)[C@@H]1CN(c2cccc([O-])c2)CCN1Cc1cnn(C)c1

>  <Energy>  (82) 
140.16409648418642

>  <Genealogy>  (82) 
Cc1nn(C)cc1CCNC(=O)C1CN(c2cccc([O-])c2)CCN1Cc1cnn(C)c1 (protonated)
Cc1nn(C)cc1CCNC(=O)[C@@H]1CN(c2cccc([O-])c2)CCN1Cc1cnn(C)c1 (chirality)
Cc1nn(C)cc1CCNC(=O)[C@@H]1CN(c2cccc([O-])c2)CCN1Cc1cnn(C)c1 (3D coordinates assigned)
Cc1nn(C)cc1CCNC(=O)[C@@H]1CN(c2cccc([O-])c2)CCN1Cc1cnn(C)c1 (nonaromatic ring conformer: 140.16409648418642 kcal/mol)

>  <smiles>  (82) 
Cc1nn(C)cc1CCNC(=O)C1CN(c2cccc(O)c2)CCN1Cc1cnn(C)c1

>  <score_type>  (82) 
oracle

>  <origin>  (82) 
adg

>  <m_score__min__energy>  (82) 
-11.880000000000001

>  <m_primary>  (82) 
energy

$$$$
82:0
     RDKit          3D

 50 52  0  0  0  0  0  0  0  0999 V2000
   64.4200   32.6420   48.2990 N   0  0  0  0  0  0  0  0  0  0  0  0
   62.8620   33.2850   47.9170 S   0  0  0  0  0  0  0  0  0  0  0  0
   62.9100   33.9520   46.5710 O   0  0  0  0  0  0  0  0  0  0  0  0
   62.4710   34.3070   48.9480 O   0  0  0  0  0  0  0  0  0  0  0  0
   61.6820   31.9790   47.8880 C   0  0  0  0  0  0  0  0  0  0  0  0
   60.8630   31.7400   49.0000 C   0  0  0  0  0  0  0  0  0  0  0  0
   59.9380   30.6920   48.9810 C   0  0  0  0  0  0  0  0  0  0  0  0
   59.8190   29.8720   47.8440 C   0  0  0  0  0  0  0  0  0  0  0  0
   58.9080   28.7640   47.7980 N   0  0  0  0  0  0  0  0  0  0  0  0
   59.1440   27.4980   47.1710 C   0  0  0  0  0  0  0  0  0  0  0  0
   59.1540   26.4350   47.8470 O   0  0  0  0  0  0  0  0  0  0  0  0
   59.3390   27.4330   45.6890 C   0  0  0  0  0  0  0  0  0  0  0  0
   58.1290   26.8840   45.0400 N   0  0  0  0  0  0  0  0  0  0  0  0
   56.8870   27.3930   45.6560 C   0  0  0  0  0  0  0  0  0  0  0  0
   56.6610   28.8960   45.3690 C   0  0  0  0  0  0  0  0  0  0  0  0
   57.4370   29.3630   44.2010 N   0  0  0  0  0  0  0  0  0  0  0  0
   56.9460   30.6760   43.7390 C   0  0  0  0  0  0  0  0  0  0  0  0
   57.6360   31.7830   44.4920 C   0  0  0  0  0  0  0  0  0  0  0  0
   58.1230   32.9030   43.7990 C   0  0  0  0  0  0  0  0  0  0  0  0
   58.7430   33.9460   44.4940 C   0  0  0  0  0  0  0  0  0  0  0  0
   58.8790   33.8810   45.8850 C   0  0  0  0  0  0  0  0  0  0  0  0
   59.6540   35.1910   46.7550 Cl  0  0  0  0  0  0  0  0  0  0  0  0
   58.3960   32.7670   46.5810 C   0  0  0  0  0  0  0  0  0  0  0  0
   57.7750   31.7220   45.8890 C   0  0  0  0  0  0  0  0  0  0  0  0
   57.3970   28.3600   43.1230 C   0  0  0  0  0  0  0  0  0  0  0  0
   58.1280   27.0770   43.5680 C   0  0  0  0  0  0  0  0  0  0  0  0
   60.6610   30.0960   46.7480 C   0  0  0  0  0  0  0  0  0  0  0  0
   61.5830   31.1460   46.7660 C   0  0  0  0  0  0  0  0  0  0  0  0
   64.4740   31.6920   47.8660 H   0  0  0  0  0  0  0  0  0  0  0  0
   65.1250   33.2370   47.8100 H   0  0  0  0  0  0  0  0  0  0  0  0
   60.9484   32.3794   49.8910 H   0  0  0  0  0  0  0  0  0  0  0  0
   59.3007   30.5078   49.8585 H   0  0  0  0  0  0  0  0  0  0  0  0
   59.5315   28.4448   45.3028 H   0  0  0  0  0  0  0  0  0  0  0  0
   60.1946   26.7782   45.4672 H   0  0  0  0  0  0  0  0  0  0  0  0
   56.0349   26.8245   45.2551 H   0  0  0  0  0  0  0  0  0  0  0  0
   56.9769   27.2688   46.7453 H   0  0  0  0  0  0  0  0  0  0  0  0
   55.5914   29.0626   45.1736 H   0  0  0  0  0  0  0  0  0  0  0  0
   56.9997   29.4630   46.2487 H   0  0  0  0  0  0  0  0  0  0  0  0
   57.1529   30.7837   42.6640 H   0  0  0  0  0  0  0  0  0  0  0  0
   55.8629   30.7387   43.9208 H   0  0  0  0  0  0  0  0  0  0  0  0
   58.0164   32.9601   42.7057 H   0  0  0  0  0  0  0  0  0  0  0  0
   59.1248   34.8199   43.9457 H   0  0  0  0  0  0  0  0  0  0  0  0
   58.5049   32.7131   47.6743 H   0  0  0  0  0  0  0  0  0  0  0  0
   57.3942   30.8496   46.4402 H   0  0  0  0  0  0  0  0  0  0  0  0
   56.3496   28.1195   42.8880 H   0  0  0  0  0  0  0  0  0  0  0  0
   57.8954   28.7684   42.2315 H   0  0  0  0  0  0  0  0  0  0  0  0
   57.6316   26.2127   43.1026 H   0  0  0  0  0  0  0  0  0  0  0  0
   59.1769   27.1721   43.2505 H   0  0  0  0  0  0  0  0  0  0  0  0
   60.5963   29.4410   45.8667 H   0  0  0  0  0  0  0  0  0  0  0  0
   62.2334   31.3191   45.8959 H   0  0  0  0  0  0  0  0  0  0  0  0
  1  2  1  0
  2  3  2  0
  2  4  2  0
  2  5  1  0
  5  6  2  0
  6  7  1  0
  7  8  2  0
  8  9  1  0
  9 10  1  0
 10 11  2  0
 10 12  1  0
 12 13  1  0
 13 14  1  0
 14 15  1  0
 15 16  1  0
 16 17  1  0
 17 18  1  0
 18 19  2  0
 19 20  1  0
 20 21  2  0
 21 22  1  0
 21 23  1  0
 23 24  2  0
 16 25  1  0
 25 26  1  0
  8 27  1  0
 27 28  2  0
 28  5  1  0
 26 13  1  0
 24 18  1  0
  1 29  1  0
  1 30  1  0
  6 31  1  0
  7 32  1  0
 12 33  1  0
 12 34  1  0
 14 35  1  0
 14 36  1  0
 15 37  1  0
 15 38  1  0
 17 39  1  0
 17 40  1  0
 19 41  1  0
 20 42  1  0
 23 43  1  0
 24 44  1  0
 25 45  1  0
 25 46  1  0
 26 47  1  0
 26 48  1  0
 27 49  1  0
 28 50  1  0
M  CHG  1   9  -1
M  END
>  <UniqueID>  (83) 
79

>  <SMILES>  (83) 
NS(=O)(=O)c1ccc([N-]C(=O)CN2CCN(Cc3ccc(Cl)cc3)CC2)cc1

>  <Energy>  (83) 
62.944658909759355

>  <Genealogy>  (83) 
NS(=O)(=O)c1ccc([N-]C(=O)CN2CCN(Cc3ccc(Cl)cc3)CC2)cc1 (protonated)
NS(=O)(=O)c1ccc([N-]C(=O)CN2CCN(Cc3ccc(Cl)cc3)CC2)cc1 (3D coordinates assigned)
NS(=O)(=O)c1ccc([N-]C(=O)CN2CCN(Cc3ccc(Cl)cc3)CC2)cc1 (nonaromatic ring conformer: 62.944658909759355 kcal/mol)

>  <smiles>  (83) 
NS(=O)(=O)c1ccc(NC(=O)CN2CCN(Cc3ccc(Cl)cc3)CC2)cc1

>  <score_type>  (83) 
oracle

>  <origin>  (83) 
adg

>  <m_score__min__energy>  (83) 
-10.68

>  <m_primary>  (83) 
energy

$$$$
83:0
     RDKit          3D

 44 46  0  0  0  0  0  0  0  0999 V2000
   61.6061   30.4641   46.0372 H   0  0  0  0  0  0  0  0  0  0  0  0
   60.7570   29.8040   46.2680 C   0  0  0  0  0  0  0  0  0  0  0  0
   60.1550   29.8730   47.4850 N   0  0  0  0  0  0  0  0  0  0  0  0
   59.1030   29.0740   47.8060 C   0  0  0  0  0  0  0  0  0  0  0  0
   58.6365   29.1533   48.7990 H   0  0  0  0  0  0  0  0  0  0  0  0
   58.6130   28.1520   46.8770 C   0  0  0  0  0  0  0  0  0  0  0  0
   57.7627   27.5036   47.1350 H   0  0  0  0  0  0  0  0  0  0  0  0
   59.2140   28.0600   45.6130 C   0  0  0  0  0  0  0  0  0  0  0  0
   58.7180   27.0610   44.5980 C   0  0  0  0  0  0  0  0  0  0  0  0
   58.1604   26.2697   45.1204 H   0  0  0  0  0  0  0  0  0  0  0  0
   59.5904   26.6478   44.0705 H   0  0  0  0  0  0  0  0  0  0  0  0
   57.7970   27.7140   43.5580 C   0  0  0  0  0  0  0  0  0  0  0  0
   56.7880   27.2875   43.6576 H   0  0  0  0  0  0  0  0  0  0  0  0
   58.2122   27.5149   42.5590 H   0  0  0  0  0  0  0  0  0  0  0  0
   57.7190   29.1640   43.7390 N   0  0  0  0  0  0  0  0  0  0  0  0
   58.4950   29.7710   43.3940 H   0  0  0  0  0  0  0  0  0  0  0  0
   56.6210   29.7700   44.4380 C   0  0  0  0  0  0  0  0  0  0  0  0
   55.8320   29.0500   45.1080 O   0  0  0  0  0  0  0  0  0  0  0  0
   56.4370   31.1930   44.4510 N   0  0  0  0  0  0  0  0  0  0  0  0
   57.1770   32.0650   45.0710 C   0  0  0  0  0  0  0  0  0  0  0  0
   57.7550   31.7780   46.2720 N   0  0  0  0  0  0  0  0  0  0  0  0
   58.5470   32.6690   46.9240 C   0  0  0  0  0  0  0  0  0  0  0  0
   58.9925   32.4002   47.8932 H   0  0  0  0  0  0  0  0  0  0  0  0
   58.7980   33.9300   46.3650 C   0  0  0  0  0  0  0  0  0  0  0  0
   59.7060   34.9090   47.0580 C   0  0  0  0  0  0  0  0  0  0  0  0
   60.0246   35.6795   46.3405 H   0  0  0  0  0  0  0  0  0  0  0  0
   59.1611   35.3746   47.8924 H   0  0  0  0  0  0  0  0  0  0  0  0
   60.9180   34.2020   47.5980 C   0  0  0  0  0  0  0  0  0  0  0  0
   61.0060   33.8890   48.9640 C   0  0  0  0  0  0  0  0  0  0  0  0
   60.1972   34.1868   49.6475 H   0  0  0  0  0  0  0  0  0  0  0  0
   62.1180   33.2000   49.4590 C   0  0  0  0  0  0  0  0  0  0  0  0
   62.1858   32.9646   50.5314 H   0  0  0  0  0  0  0  0  0  0  0  0
   63.1440   32.8100   48.5920 C   0  0  0  0  0  0  0  0  0  0  0  0
   64.0190   32.2699   48.9828 H   0  0  0  0  0  0  0  0  0  0  0  0
   63.0570   33.1070   47.2280 C   0  0  0  0  0  0  0  0  0  0  0  0
   64.0490   32.7220   46.3880 F   0  0  0  0  0  0  0  0  0  0  0  0
   61.9470   33.7960   46.7310 C   0  0  0  0  0  0  0  0  0  0  0  0
   61.8785   34.0215   45.6565 H   0  0  0  0  0  0  0  0  0  0  0  0
   58.2350   34.2360   45.1180 C   0  0  0  0  0  0  0  0  0  0  0  0
   58.4337   35.2116   44.6504 H   0  0  0  0  0  0  0  0  0  0  0  0
   57.4230   33.3050   44.4690 C   0  0  0  0  0  0  0  0  0  0  0  0
   56.9792   33.5436   43.4912 H   0  0  0  0  0  0  0  0  0  0  0  0
   60.2990   28.8960   45.3100 C   0  0  0  0  0  0  0  0  0  0  0  0
   60.7857   28.8371   44.3253 H   0  0  0  0  0  0  0  0  0  0  0  0
  1  2  1  0
  2  3  2  0
  3  4  1  0
  4  5  1  0
  4  6  2  0
  6  7  1  0
  6  8  1  0
  8  9  1  0
  9 10  1  0
  9 11  1  0
  9 12  1  0
 12 13  1  0
 12 14  1  0
 12 15  1  0
 15 16  1  0
 15 17  1  0
 17 18  2  0
 17 19  1  0
 19 20  2  0
 20 21  1  0
 21 22  1  0
 22 23  1  0
 22 24  2  0
 24 25  1  0
 25 26  1  0
 25 27  1  0
 25 28  1  0
 28 29  2  0
 29 30  1  0
 29 31  1  0
 31 32  1  0
 31 33  2  0
 33 34  1  0
 33 35  1  0
 35 36  1  0
 35 37  2  0
 37 38  1  0
 24 39  1  0
 39 40  1  0
 39 41  2  0
 41 42  1  0
  8 43  2  0
 43 44  1  0
 43  2  1  0
 41 20  1  0
 37 28  1  0
M  CHG  1  21  -1
M  END
>  <UniqueID>  (84) 
80

>  <SMILES>  (84) 
O=C(/N=c1/ccc(Cc2cccc(F)c2)c[n-]1)NCCc1ccncc1

>  <Energy>  (84) 
46.8653933068172

>  <Genealogy>  (84) 
O=C(N=c1ccc(Cc2cccc(F)c2)c[n-]1)NCCc1ccncc1 (protonated)
O=C(/N=c1/ccc(Cc2cccc(F)c2)c[n-]1)NCCc1ccncc1 (cis-trans isomerization)
O=C(/N=c1/ccc(Cc2cccc(F)c2)c[n-]1)NCCc1ccncc1 (3D coordinates assigned)
O=C(/N=c1/ccc(Cc2cccc(F)c2)c[n-]1)NCCc1ccncc1 (optimized conformer: 46.8653933068172 kcal/mol)

>  <smiles>  (84) 
O=C(N=c1ccc(Cc2cccc(F)c2)c[nH]1)NCCc1ccncc1

>  <score_type>  (84) 
oracle

>  <origin>  (84) 
adg

>  <m_score__min__energy>  (84) 
-10.31

>  <m_primary>  (84) 
energy

$$$$
84:0
     RDKit          3D

 51 53  0  0  0  0  0  0  0  0999 V2000
   55.1450   28.9960   44.5180 O   0  0  0  0  0  0  0  0  0  0  0  0
   56.3460   29.3530   44.6600 C   0  0  0  0  0  0  0  0  0  0  0  0
   57.4450   28.4390   44.2240 C   0  0  0  0  0  0  0  0  0  0  0  0
   57.2810   27.1670   44.8370 O   0  0  0  0  0  0  0  0  0  0  0  0
   57.1600   26.9930   46.2190 C   0  0  0  0  0  0  0  0  0  0  0  0
   56.1650   26.3880   46.7010 O   0  0  0  0  0  0  0  0  0  0  0  0
   58.1960   27.5550   47.1440 C   0  0  0  0  0  0  0  0  0  0  0  0
   58.1460   29.0190   47.1740 N   0  0  0  0  0  0  0  0  0  0  0  0
   59.2650   29.8680   47.5030 C   0  0  0  0  0  0  0  0  0  0  0  0
   59.5830   30.2020   48.8340 C   0  0  0  0  0  0  0  0  0  0  0  0
   60.6770   31.0240   49.1150 C   0  0  0  0  0  0  0  0  0  0  0  0
   61.4760   31.5190   48.0760 C   0  0  0  0  0  0  0  0  0  0  0  0
   62.8850   32.5180   48.4270 S   0  0  0  0  0  0  0  0  0  0  0  0
   63.4770   33.0640   47.1580 O   0  0  0  0  0  0  0  0  0  0  0  0
   63.9220   31.6790   49.1160 O   0  0  0  0  0  0  0  0  0  0  0  0
   62.4360   33.8340   49.4660 N   0  0  0  0  0  0  0  0  0  0  0  0
   61.5320   33.7490   50.3930 C   0  0  0  0  0  0  0  0  0  0  0  0
   61.9120   33.4920   51.6720 N   0  0  0  0  0  0  0  0  0  0  0  0
   60.9970   33.3990   52.6700 C   0  0  0  0  0  0  0  0  0  0  0  0
   59.6410   33.5650   52.3890 C   0  0  0  0  0  0  0  0  0  0  0  0
   59.2640   33.8260   51.0730 C   0  0  0  0  0  0  0  0  0  0  0  0
   60.2110   33.9150   50.1040 N   0  0  0  0  0  0  0  0  0  0  0  0
   61.1690   31.1860   46.7530 C   0  0  0  0  0  0  0  0  0  0  0  0
   60.0660   30.3760   46.4670 C   0  0  0  0  0  0  0  0  0  0  0  0
   56.6570   30.6430   45.1910 N   0  0  0  0  0  0  0  0  0  0  0  0
   57.0960   31.7580   44.3670 C   0  0  0  0  0  0  0  0  0  0  0  0
   57.8600   32.7290   45.2190 C   0  0  0  0  0  0  0  0  0  0  0  0
   58.7690   33.6220   44.6270 C   0  0  0  0  0  0  0  0  0  0  0  0
   59.5130   34.5010   45.4200 C   0  0  0  0  0  0  0  0  0  0  0  0
   59.3640   34.4860   46.8090 C   0  0  0  0  0  0  0  0  0  0  0  0
   60.0920   35.3330   47.5780 F   0  0  0  0  0  0  0  0  0  0  0  0
   58.4710   33.5930   47.4070 C   0  0  0  0  0  0  0  0  0  0  0  0
   57.7270   32.7100   46.6170 C   0  0  0  0  0  0  0  0  0  0  0  0
   57.4135   28.3248   43.1304 H   0  0  0  0  0  0  0  0  0  0  0  0
   58.4139   28.8655   44.5228 H   0  0  0  0  0  0  0  0  0  0  0  0
   58.0171   27.1696   48.1586 H   0  0  0  0  0  0  0  0  0  0  0  0
   59.1881   27.2492   46.7804 H   0  0  0  0  0  0  0  0  0  0  0  0
   57.2460   29.4690   46.8870 H   0  0  0  0  0  0  0  0  0  0  0  0
   58.9659   29.8131   49.6574 H   0  0  0  0  0  0  0  0  0  0  0  0
   60.9124   31.2840   50.1576 H   0  0  0  0  0  0  0  0  0  0  0  0
   61.3246   33.1929   53.6997 H   0  0  0  0  0  0  0  0  0  0  0  0
   58.8873   33.4917   53.1869 H   0  0  0  0  0  0  0  0  0  0  0  0
   58.2019   33.9596   50.8199 H   0  0  0  0  0  0  0  0  0  0  0  0
   61.7983   31.5632   45.9334 H   0  0  0  0  0  0  0  0  0  0  0  0
   59.8233   30.1344   45.4216 H   0  0  0  0  0  0  0  0  0  0  0  0
   57.7448   31.3864   43.5602 H   0  0  0  0  0  0  0  0  0  0  0  0
   56.2216   32.2599   43.9272 H   0  0  0  0  0  0  0  0  0  0  0  0
   58.8959   33.6296   43.5344 H   0  0  0  0  0  0  0  0  0  0  0  0
   60.2159   35.2046   44.9500 H   0  0  0  0  0  0  0  0  0  0  0  0
   58.3528   33.5843   48.5006 H   0  0  0  0  0  0  0  0  0  0  0  0
   57.0357   31.9986   47.0923 H   0  0  0  0  0  0  0  0  0  0  0  0
  1  2  2  0
  2  3  1  0
  3  4  1  0
  4  5  1  0
  5  6  2  0
  5  7  1  0
  7  8  1  0
  8  9  1  0
  9 10  2  0
 10 11  1  0
 11 12  2  0
 12 13  1  0
 13 14  2  0
 13 15  2  0
 13 16  1  0
 16 17  2  3
 17 18  1  0
 18 19  2  0
 19 20  1  0
 20 21  2  0
 21 22  1  0
 12 23  1  0
 23 24  2  0
  2 25  1  0
 25 26  1  0
 26 27  1  0
 27 28  2  0
 28 29  1  0
 29 30  2  0
 30 31  1  0
 30 32  1  0
 32 33  2  0
 24  9  1  0
 33 27  1  0
 22 17  1  0
  3 34  1  0
  3 35  1  0
  7 36  1  0
  7 37  1  0
  8 38  1  0
 10 39  1  0
 11 40  1  0
 19 41  1  0
 20 42  1  0
 21 43  1  0
 23 44  1  0
 24 45  1  0
 26 46  1  0
 26 47  1  0
 28 48  1  0
 29 49  1  0
 32 50  1  0
 33 51  1  0
M  CHG  2  22  -1  25  -1
M  END
>  <UniqueID>  (85) 
81

>  <SMILES>  (85) 
O=C(COC(=O)CNc1ccc(S(=O)(=O)N=c2nccc[n-]2)cc1)[N-]Cc1ccc(F)cc1

>  <Energy>  (85) 
46.60128518663993

>  <Genealogy>  (85) 
O=C(COC(=O)CNc1ccc(S(=O)(=O)N=c2nccc[n-]2)cc1)[N-]Cc1ccc(F)cc1 (protonated)
O=C(COC(=O)CNc1ccc(S(=O)(=O)N=c2nccc[n-]2)cc1)[N-]Cc1ccc(F)cc1 (3D coordinates assigned)
O=C(COC(=O)CNc1ccc(S(=O)(=O)N=c2nccc[n-]2)cc1)[N-]Cc1ccc(F)cc1 (optimized conformer: 46.60128518663993 kcal/mol)

>  <smiles>  (85) 
O=C(COC(=O)CNc1ccc(S(=O)(=O)N=c2nccc[nH]2)cc1)NCc1ccc(F)cc1

>  <score_type>  (85) 
oracle

>  <origin>  (85) 
adg

>  <m_score__min__energy>  (85) 
-10.869999999999999

>  <m_primary>  (85) 
energy

$$$$
85:0
     RDKit          3D

 44 47  0  0  0  0  0  0  0  0999 V2000
   64.4090   32.6350   48.8810 O   0  0  0  0  0  0  0  0  0  0  0  0
   63.1590   32.7960   48.8210 C   0  0  0  0  0  0  0  0  0  0  0  0
   62.5930   34.0830   49.0970 N   0  0  0  0  0  0  0  0  0  0  0  0
   61.2200   34.2840   49.5470 C   0  0  0  0  0  0  0  0  0  0  0  0
   60.2590   34.0220   48.4210 C   0  0  0  0  0  0  0  0  0  0  0  0
   60.4860   34.5900   47.1560 C   0  0  0  0  0  0  0  0  0  0  0  0
   59.6080   34.3340   46.1000 C   0  0  0  0  0  0  0  0  0  0  0  0
   58.4990   33.5060   46.2960 C   0  0  0  0  0  0  0  0  0  0  0  0
   58.2680   32.9320   47.5500 C   0  0  0  0  0  0  0  0  0  0  0  0
   59.1450   33.1870   48.6100 C   0  0  0  0  0  0  0  0  0  0  0  0
   62.2810   31.6570   48.4660 C   0  0  0  0  0  0  0  0  0  0  0  0
   61.6240   30.9200   49.4690 C   0  0  0  0  0  0  0  0  0  0  0  0
   60.7980   29.8430   49.1320 C   0  0  0  0  0  0  0  0  0  0  0  0
   60.6190   29.4820   47.7890 C   0  0  0  0  0  0  0  0  0  0  0  0
   59.7370   28.3470   47.4340 C   0  0  0  0  0  0  0  0  0  0  0  0
   60.0770   27.0570   47.8850 C   0  0  0  0  0  0  0  0  0  0  0  0
   61.2280   26.8530   48.6400 O   0  0  0  0  0  0  0  0  0  0  0  0
   59.2580   25.9660   47.5910 C   0  0  0  0  0  0  0  0  0  0  0  0
   58.0900   26.1370   46.8520 C   0  0  0  0  0  0  0  0  0  0  0  0
   57.7310   27.4080   46.3830 C   0  0  0  0  0  0  0  0  0  0  0  0
   56.5580   27.5720   45.6280 C   0  0  0  0  0  0  0  0  0  0  0  0
   56.2030   28.8310   45.1430 C   0  0  0  0  0  0  0  0  0  0  0  0
   55.0410   28.9840   44.3960 O   0  0  0  0  0  0  0  0  0  0  0  0
   57.0160   29.9350   45.4020 C   0  0  0  0  0  0  0  0  0  0  0  0
   58.1850   29.7900   46.1520 C   0  0  0  0  0  0  0  0  0  0  0  0
   58.5570   28.5290   46.6660 C   0  0  0  0  0  0  0  0  0  0  0  0
   61.2640   30.2180   46.7860 C   0  0  0  0  0  0  0  0  0  0  0  0
   62.0900   31.2940   47.1210 C   0  0  0  0  0  0  0  0  0  0  0  0
   61.0049   33.5936   50.3759 H   0  0  0  0  0  0  0  0  0  0  0  0
   61.1022   35.3246   49.8836 H   0  0  0  0  0  0  0  0  0  0  0  0
   61.3594   35.2394   46.9964 H   0  0  0  0  0  0  0  0  0  0  0  0
   59.7896   34.7845   45.1131 H   0  0  0  0  0  0  0  0  0  0  0  0
   57.8080   33.3060   45.4638 H   0  0  0  0  0  0  0  0  0  0  0  0
   57.3959   32.2793   47.7033 H   0  0  0  0  0  0  0  0  0  0  0  0
   58.9617   32.7322   49.5946 H   0  0  0  0  0  0  0  0  0  0  0  0
   61.7612   31.1931   50.5257 H   0  0  0  0  0  0  0  0  0  0  0  0
   60.2864   29.2765   49.9241 H   0  0  0  0  0  0  0  0  0  0  0  0
   59.5372   24.9629   47.9458 H   0  0  0  0  0  0  0  0  0  0  0  0
   57.4468   25.2713   46.6356 H   0  0  0  0  0  0  0  0  0  0  0  0
   55.9162   26.7036   45.4181 H   0  0  0  0  0  0  0  0  0  0  0  0
   56.7346   30.9248   45.0133 H   0  0  0  0  0  0  0  0  0  0  0  0
   58.8217   30.6663   46.3440 H   0  0  0  0  0  0  0  0  0  0  0  0
   61.1193   29.9473   45.7297 H   0  0  0  0  0  0  0  0  0  0  0  0
   62.5951   31.8619   46.3258 H   0  0  0  0  0  0  0  0  0  0  0  0
  1  2  2  0
  2  3  1  0
  3  4  1  0
  4  5  1  0
  5  6  2  0
  6  7  1  0
  7  8  2  0
  8  9  1  0
  9 10  2  0
  2 11  1  0
 11 12  2  0
 12 13  1  0
 13 14  2  0
 14 15  1  0
 15 16  2  0
 16 17  1  0
 16 18  1  0
 18 19  2  0
 19 20  1  0
 20 21  2  0
 21 22  1  0
 22 23  1  0
 22 24  2  0
 24 25  1  0
 25 26  2  0
 14 27  1  0
 27 28  2  0
 10  5  1  0
 28 11  1  0
 26 15  1  0
 26 20  1  0
  4 29  1  0
  4 30  1  0
  6 31  1  0
  7 32  1  0
  8 33  1  0
  9 34  1  0
 10 35  1  0
 12 36  1  0
 13 37  1  0
 18 38  1  0
 19 39  1  0
 21 40  1  0
 24 41  1  0
 25 42  1  0
 27 43  1  0
 28 44  1  0
M  CHG  3   3  -1  17  -1  23  -1
M  END
>  <UniqueID>  (86) 
82

>  <SMILES>  (86) 
O=C([N-]Cc1ccccc1)c1ccc(-c2c([O-])ccc3cc([O-])ccc23)cc1

>  <Energy>  (86) 
60.324008324888304

>  <Genealogy>  (86) 
O=C([N-]Cc1ccccc1)c1ccc(-c2c([O-])ccc3cc([O-])ccc23)cc1 (protonated)
O=C([N-]Cc1ccccc1)c1ccc(-c2c([O-])ccc3cc([O-])ccc23)cc1 (3D coordinates assigned)
O=C([N-]Cc1ccccc1)c1ccc(-c2c([O-])ccc3cc([O-])ccc23)cc1 (optimized conformer: 60.324008324888304 kcal/mol)

>  <smiles>  (86) 
O=C(NCc1ccccc1)c1ccc(-c2c(O)ccc3cc(O)ccc23)cc1

>  <score_type>  (86) 
oracle

>  <origin>  (86) 
adg

>  <m_score__min__energy>  (86) 
-12.91

>  <m_primary>  (86) 
energy

$$$$
86:0
     RDKit          3D

 34 35  0  0  0  0  0  0  0  0999 V2000
   55.5100   26.3420   45.9980 N   0  0  0  0  0  0  0  0  0  0  0  0
   56.7190   25.6060   46.3560 C   0  0  0  0  0  0  0  0  0  0  0  0
   57.5250   25.2710   45.0960 C   0  0  0  0  0  0  0  0  0  0  0  0
   57.7600   26.5070   44.2200 C   0  0  0  0  0  0  0  0  0  0  0  0
   58.3130   27.6130   45.0020 N   0  0  0  0  0  0  0  0  0  0  0  0
   57.5120   28.7080   45.4670 C   0  0  0  0  0  0  0  0  0  0  0  0
   56.2700   28.7250   45.2510 O   0  0  0  0  0  0  0  0  0  0  0  0
   58.1360   29.8120   46.2620 C   0  0  0  0  0  0  0  0  0  0  0  0
   58.1720   31.0710   45.4500 C   0  0  0  0  0  0  0  0  0  0  0  0
   57.6410   31.2450   44.1750 C   0  0  0  0  0  0  0  0  0  0  0  0
   57.7840   32.5290   43.7750 N   0  0  0  0  0  0  0  0  0  0  0  0
   58.3900   33.1700   44.7910 C   0  0  0  0  0  0  0  0  0  0  0  0
   58.7340   34.5200   44.8510 C   0  0  0  0  0  0  0  0  0  0  0  0
   59.3550   34.9880   46.0230 C   0  0  0  0  0  0  0  0  0  0  0  0
   59.6110   34.1080   47.0970 C   0  0  0  0  0  0  0  0  0  0  0  0
   59.2510   32.7510   47.0100 C   0  0  0  0  0  0  0  0  0  0  0  0
   58.6380   32.3140   45.8340 C   0  0  0  0  0  0  0  0  0  0  0  0
   55.6080   26.6710   45.0100 H   0  0  0  0  0  0  0  0  0  0  0  0
   55.4720   27.2000   46.5930 H   0  0  0  0  0  0  0  0  0  0  0  0
   57.3342   26.2221   47.0282 H   0  0  0  0  0  0  0  0  0  0  0  0
   56.4347   24.6707   46.8605 H   0  0  0  0  0  0  0  0  0  0  0  0
   58.4993   24.8583   45.3968 H   0  0  0  0  0  0  0  0  0  0  0  0
   56.9489   24.5417   44.5076 H   0  0  0  0  0  0  0  0  0  0  0  0
   58.4650   26.2482   43.4163 H   0  0  0  0  0  0  0  0  0  0  0  0
   56.7940   26.8256   43.8013 H   0  0  0  0  0  0  0  0  0  0  0  0
   59.3230   27.5740   45.2680 H   0  0  0  0  0  0  0  0  0  0  0  0
   57.5450   29.9833   47.1738 H   0  0  0  0  0  0  0  0  0  0  0  0
   59.1636   29.5267   46.5317 H   0  0  0  0  0  0  0  0  0  0  0  0
   57.1713   30.4501   43.5771 H   0  0  0  0  0  0  0  0  0  0  0  0
   57.4730   32.9390   42.8670 H   0  0  0  0  0  0  0  0  0  0  0  0
   58.5265   35.1969   44.0091 H   0  0  0  0  0  0  0  0  0  0  0  0
   59.6431   36.0466   46.1034 H   0  0  0  0  0  0  0  0  0  0  0  0
   60.0958   34.4866   48.0090 H   0  0  0  0  0  0  0  0  0  0  0  0
   59.4459   32.0570   47.8409 H   0  0  0  0  0  0  0  0  0  0  0  0
  1  2  1  0
  2  3  1  0
  3  4  1  0
  4  5  1  0
  5  6  1  0
  6  7  2  0
  6  8  1  0
  8  9  1  0
  9 10  2  0
 10 11  1  0
 11 12  1  0
 12 13  2  0
 13 14  1  0
 14 15  2  0
 15 16  1  0
 16 17  2  0
 17  9  1  0
 17 12  1  0
  1 18  1  0
  1 19  1  0
  2 20  1  0
  2 21  1  0
  3 22  1  0
  3 23  1  0
  4 24  1  0
  4 25  1  0
  5 26  1  0
  8 27  1  0
  8 28  1  0
 10 29  1  0
 11 30  1  0
 13 31  1  0
 14 32  1  0
 15 33  1  0
 16 34  1  0
M  END
>  <UniqueID>  (87) 
83

>  <SMILES>  (87) 
NCCCNC(=O)Cc1c[nH]c2ccccc12

>  <Energy>  (87) 
56.241727118489806

>  <Genealogy>  (87) 
NCCCNC(=O)Cc1c[nH]c2ccccc12 (3D coordinates assigned)
NCCCNC(=O)Cc1c[nH]c2ccccc12 (optimized conformer: 56.241727118489806 kcal/mol)

>  <smiles>  (87) 
NCCCNC(=O)Cc1c[nH]c2ccccc12

>  <score_type>  (87) 
oracle

>  <origin>  (87) 
adg

>  <m_score__min__energy>  (87) 
-7.3799999999999999

>  <m_primary>  (87) 
energy

$$$$
87:0
     RDKit          3D

 42 44  0  0  0  0  0  0  0  0999 V2000
   58.3220   33.0020   50.8670 O   0  0  0  0  0  0  0  0  0  0  0  0
   59.0520   32.8470   49.8530 C   0  0  0  0  0  0  0  0  0  0  0  0
   60.2340   33.6440   49.7280 N   0  0  0  0  0  0  0  0  0  0  0  0
   61.2500   33.5160   48.7230 C   0  0  0  0  0  0  0  0  0  0  0  0
   62.4440   32.8630   49.0550 C   0  0  0  0  0  0  0  0  0  0  0  0
   63.4580   32.7140   48.1040 C   0  0  0  0  0  0  0  0  0  0  0  0
   63.2790   33.2020   46.8070 C   0  0  0  0  0  0  0  0  0  0  0  0
   62.0800   33.8290   46.4580 C   0  0  0  0  0  0  0  0  0  0  0  0
   61.0630   33.9790   47.4060 C   0  0  0  0  0  0  0  0  0  0  0  0
   58.6450   31.9770   48.7880 N   0  0  0  0  0  0  0  0  0  0  0  0
   58.3030   32.3380   47.4410 C   0  0  0  0  0  0  0  0  0  0  0  0
   57.4130   33.3920   47.1570 C   0  0  0  0  0  0  0  0  0  0  0  0
   57.0920   33.7090   45.8340 C   0  0  0  0  0  0  0  0  0  0  0  0
   57.6380   32.9700   44.7840 C   0  0  0  0  0  0  0  0  0  0  0  0
   58.4990   31.9050   45.0540 C   0  0  0  0  0  0  0  0  0  0  0  0
   58.8320   31.5840   46.3760 C   0  0  0  0  0  0  0  0  0  0  0  0
   59.9210   30.1820   46.6840 S   0  0  0  0  0  0  0  0  0  0  0  0
   59.2920   29.1800   45.2890 C   0  0  0  0  0  0  0  0  0  0  0  0
   58.4670   28.0140   45.7840 C   0  0  0  0  0  0  0  0  0  0  0  0
   59.1220   27.0060   46.5160 C   0  0  0  0  0  0  0  0  0  0  0  0
   58.4090   25.9390   47.0570 C   0  0  0  0  0  0  0  0  0  0  0  0
   57.0320   25.8560   46.8780 C   0  0  0  0  0  0  0  0  0  0  0  0
   56.3550   26.8400   46.1560 C   0  0  0  0  0  0  0  0  0  0  0  0
   54.9800   26.7130   45.9800 O   0  0  0  0  0  0  0  0  0  0  0  0
   57.0560   27.9330   45.6000 C   0  0  0  0  0  0  0  0  0  0  0  0
   56.2970   28.9690   44.8570 C   0  0  0  0  0  0  0  0  0  0  0  0
   55.1430   29.3010   45.2360 O   0  0  0  0  0  0  0  0  0  0  0  0
   56.8260   29.5650   43.7190 O   0  0  0  0  0  0  0  0  0  0  0  0
   62.5848   32.4648   50.0707 H   0  0  0  0  0  0  0  0  0  0  0  0
   64.3979   32.2120   48.3772 H   0  0  0  0  0  0  0  0  0  0  0  0
   64.0807   33.0928   46.0618 H   0  0  0  0  0  0  0  0  0  0  0  0
   61.9357   34.2057   45.4346 H   0  0  0  0  0  0  0  0  0  0  0  0
   60.1150   34.4596   47.1226 H   0  0  0  0  0  0  0  0  0  0  0  0
   56.9680   33.9690   47.9810 H   0  0  0  0  0  0  0  0  0  0  0  0
   56.4074   34.5430   45.6202 H   0  0  0  0  0  0  0  0  0  0  0  0
   57.3900   33.2266   43.7435 H   0  0  0  0  0  0  0  0  0  0  0  0
   58.9177   31.3154   44.2251 H   0  0  0  0  0  0  0  0  0  0  0  0
   58.6662   29.8147   44.6444 H   0  0  0  0  0  0  0  0  0  0  0  0
   60.1515   28.7858   44.7269 H   0  0  0  0  0  0  0  0  0  0  0  0
   60.2108   27.0617   46.6626 H   0  0  0  0  0  0  0  0  0  0  0  0
   58.9360   25.1599   47.6273 H   0  0  0  0  0  0  0  0  0  0  0  0
   56.4741   25.0109   47.3075 H   0  0  0  0  0  0  0  0  0  0  0  0
  1  2  2  0
  2  3  1  0
  3  4  1  0
  4  5  2  0
  5  6  1  0
  6  7  2  0
  7  8  1  0
  8  9  2  0
  2 10  1  0
 10 11  1  0
 11 12  2  0
 12 13  1  0
 13 14  2  0
 14 15  1  0
 15 16  2  0
 16 17  1  0
 17 18  1  0
 18 19  1  0
 19 20  2  0
 20 21  1  0
 21 22  2  0
 22 23  1  0
 23 24  1  0
 23 25  2  0
 25 26  1  0
 26 27  2  0
 26 28  1  0
  9  4  1  0
 16 11  1  0
 25 19  1  0
  5 29  1  0
  6 30  1  0
  7 31  1  0
  8 32  1  0
  9 33  1  0
 12 34  1  0
 13 35  1  0
 14 36  1  0
 15 37  1  0
 18 38  1  0
 18 39  1  0
 20 40  1  0
 21 41  1  0
 22 42  1  0
M  CHG  4   3  -1  10  -1  24  -1  28  -1
M  END
>  <UniqueID>  (88) 
84

>  <SMILES>  (88) 
O=C([N-]c1ccccc1)[N-]c1ccccc1SCc1cccc([O-])c1C(=O)[O-]

>  <Energy>  (88) 
50.26755786069374

>  <Genealogy>  (88) 
O=C([N-]c1ccccc1)[N-]c1ccccc1SCc1cccc([O-])c1C(=O)[O-] (protonated)
O=C([N-]c1ccccc1)[N-]c1ccccc1SCc1cccc([O-])c1C(=O)[O-] (3D coordinates assigned)
O=C([N-]c1ccccc1)[N-]c1ccccc1SCc1cccc([O-])c1C(=O)[O-] (optimized conformer: 50.26755786069374 kcal/mol)

>  <smiles>  (88) 
O=C(Nc1ccccc1)Nc1ccccc1SCc1cccc(O)c1C(=O)O

>  <score_type>  (88) 
oracle

>  <origin>  (88) 
adg

>  <m_score__min__energy>  (88) 
-16.25

>  <m_primary>  (88) 
energy

$$$$
88:0
     RDKit          3D

 37 39  0  0  0  0  0  0  0  0999 V2000
   56.5200   18.8590   43.4670 H   0  0  0  0  0  0  0  0  0  0  0  0
   55.9010   19.7000   43.4030 N   0  0  0  0  0  0  0  0  0  0  0  0
   56.2680   20.8450   43.8800 C   0  0  0  0  0  0  0  0  0  0  0  0
   56.1740   21.9570   43.1070 N   0  0  0  0  0  0  0  0  0  0  0  0
   56.5530   23.1730   43.5790 C   0  0  0  0  0  0  0  0  0  0  0  0
   56.4675   24.0621   42.9370 H   0  0  0  0  0  0  0  0  0  0  0  0
   57.0530   23.2970   44.8830 C   0  0  0  0  0  0  0  0  0  0  0  0
   57.4670   24.6130   45.4290 C   0  0  0  0  0  0  0  0  0  0  0  0
   56.5440   25.6720   45.4820 C   0  0  0  0  0  0  0  0  0  0  0  0
   55.5162   25.5177   45.1216 H   0  0  0  0  0  0  0  0  0  0  0  0
   56.9200   26.9180   45.9880 C   0  0  0  0  0  0  0  0  0  0  0  0
   56.1890   27.7395   46.0162 H   0  0  0  0  0  0  0  0  0  0  0  0
   58.2250   27.1290   46.4610 C   0  0  0  0  0  0  0  0  0  0  0  0
   58.6310   28.4550   46.9970 C   0  0  0  0  0  0  0  0  0  0  0  0
   59.0850   28.5470   48.3240 C   0  0  0  0  0  0  0  0  0  0  0  0
   59.1237   27.6444   48.9515 H   0  0  0  0  0  0  0  0  0  0  0  0
   59.4760   29.7410   48.8370 N   0  0  0  0  0  0  0  0  0  0  0  0
   59.4390   30.8800   48.1020 C   0  0  0  0  0  0  0  0  0  0  0  0
   59.7655   31.8312   48.5478 H   0  0  0  0  0  0  0  0  0  0  0  0
   58.9880   30.8490   46.7820 C   0  0  0  0  0  0  0  0  0  0  0  0
   58.9588   31.7741   46.1876 H   0  0  0  0  0  0  0  0  0  0  0  0
   58.5700   29.6300   46.2120 C   0  0  0  0  0  0  0  0  0  0  0  0
   58.1080   29.5600   44.9940 N   0  0  0  0  0  0  0  0  0  0  0  0
   56.5870   30.1710   44.4180 S   0  0  0  0  0  0  0  0  0  0  0  0
   56.4090   31.5990   44.8520 O   0  0  0  0  0  0  0  0  0  0  0  0
   55.4620   29.3280   44.9480 O   0  0  0  0  0  0  0  0  0  0  0  0
   56.5810   30.0990   42.6430 C   0  0  0  0  0  0  0  0  0  0  0  0
   56.4937   29.0515   42.3188 H   0  0  0  0  0  0  0  0  0  0  0  0
   55.7278   30.6751   42.2555 H   0  0  0  0  0  0  0  0  0  0  0  0
   57.5178   30.5259   42.2555 H   0  0  0  0  0  0  0  0  0  0  0  0
   59.1510   26.0750   46.4070 C   0  0  0  0  0  0  0  0  0  0  0  0
   60.1787   26.2326   46.7662 H   0  0  0  0  0  0  0  0  0  0  0  0
   58.7770   24.8260   45.9000 C   0  0  0  0  0  0  0  0  0  0  0  0
   59.6860   23.8180   45.9080 F   0  0  0  0  0  0  0  0  0  0  0  0
   57.1340   22.1350   45.6640 C   0  0  0  0  0  0  0  0  0  0  0  0
   57.5124   22.1917   46.6953 H   0  0  0  0  0  0  0  0  0  0  0  0
   56.7460   20.9400   45.1490 N   0  0  0  0  0  0  0  0  0  0  0  0
  1  2  1  0
  2  3  2  3
  3  4  1  0
  4  5  2  0
  5  6  1  0
  5  7  1  0
  7  8  1  0
  8  9  2  0
  9 10  1  0
  9 11  1  0
 11 12  1  0
 11 13  2  0
 13 14  1  0
 14 15  2  0
 15 16  1  0
 15 17  1  0
 17 18  1  0
 18 19  1  0
 18 20  2  0
 20 21  1  0
 20 22  1  0
 22 23  2  0
 23 24  1  0
 24 25  2  0
 24 26  2  0
 24 27  1  0
 27 28  1  0
 27 29  1  0
 27 30  1  0
 13 31  1  0
 31 32  1  0
 31 33  2  0
 33 34  1  0
  7 35  2  0
 35 36  1  0
 35 37  1  0
 37  3  1  0
 33  8  1  0
 22 14  1  0
M  CHG  2  17  -1  37  -1
M  END
>  <UniqueID>  (89) 
85

>  <SMILES>  (89) 
CS(=O)(=O)/N=c1\cc[n-]cc1-c1ccc(-c2cnc(=N)[n-]c2)c(F)c1

>  <Energy>  (89) 
55.86177161802706

>  <Genealogy>  (89) 
CS(=O)(=O)N=c1cc[n-]cc1-c1ccc(-c2cnc(=N)[n-]c2)c(F)c1 (protonated)
CS(=O)(=O)/N=c1\cc[n-]cc1-c1ccc(-c2cnc(=N)[n-]c2)c(F)c1 (cis-trans isomerization)
CS(=O)(=O)/N=c1\cc[n-]cc1-c1ccc(-c2cnc(=N)[n-]c2)c(F)c1 (3D coordinates assigned)
CS(=O)(=O)/N=c1\cc[n-]cc1-c1ccc(-c2cnc(=N)[n-]c2)c(F)c1 (optimized conformer: 55.86177161802706 kcal/mol)

>  <smiles>  (89) 
CS(=O)(=O)N=c1cc[nH]cc1-c1ccc(-c2cnc(=N)[nH]c2)c(F)c1

>  <score_type>  (89) 
oracle

>  <origin>  (89) 
adg

>  <m_score__min__energy>  (89) 
-10.23

>  <m_primary>  (89) 
energy

$$$$
89:0
     RDKit          3D

 58 61  0  0  0  0  0  0  0  0999 V2000
   55.8660   28.5770   45.2560 O   0  0  0  0  0  0  0  0  0  0  0  0
   56.4110   27.4810   45.5660 C   0  0  0  0  0  0  0  0  0  0  0  0
   57.8970   27.3150   45.4510 C   0  0  0  0  0  0  0  0  0  0  0  0
   58.6440   28.4320   46.1330 C   0  0  0  0  0  0  0  0  0  0  0  0
   58.4930   28.6520   47.5090 C   0  0  0  0  0  0  0  0  0  0  0  0
   59.1990   29.6750   48.1440 C   0  0  0  0  0  0  0  0  0  0  0  0
   60.0640   30.5190   47.4150 C   0  0  0  0  0  0  0  0  0  0  0  0
   60.8130   31.5750   48.0740 N   0  0  0  0  0  0  0  0  0  0  0  0
   62.2780   31.6590   47.8660 C   0  0  0  0  0  0  0  0  0  0  0  0
   62.8010   33.0780   47.5410 C   0  0  0  0  0  0  0  0  0  0  0  0
   61.8710   33.8850   46.6150 C   0  0  0  0  0  0  0  0  0  0  0  0
   60.5770   34.1830   47.2500 N   0  0  0  0  0  0  0  0  0  0  0  0
   59.5620   34.9210   46.5300 C   0  0  0  0  0  0  0  0  0  0  0  0
   59.8250   36.0640   46.0670 O   0  0  0  0  0  0  0  0  0  0  0  0
   58.2770   34.3300   46.2880 N   0  0  0  0  0  0  0  0  0  0  0  0
   57.9530   33.3410   45.3000 C   0  0  0  0  0  0  0  0  0  0  0  0
   57.2470   32.1660   45.6180 C   0  0  0  0  0  0  0  0  0  0  0  0
   56.9820   31.2140   44.6280 C   0  0  0  0  0  0  0  0  0  0  0  0
   57.4290   31.4210   43.3200 C   0  0  0  0  0  0  0  0  0  0  0  0
   58.1460   32.5780   43.0020 C   0  0  0  0  0  0  0  0  0  0  0  0
   58.4150   33.5290   43.9900 C   0  0  0  0  0  0  0  0  0  0  0  0
   60.4460   33.9650   48.6980 C   0  0  0  0  0  0  0  0  0  0  0  0
   60.1400   32.4880   49.0190 C   0  0  0  0  0  0  0  0  0  0  0  0
   60.2040   30.2920   46.0310 C   0  0  0  0  0  0  0  0  0  0  0  0
   59.5030   29.2620   45.3990 C   0  0  0  0  0  0  0  0  0  0  0  0
   55.6280   26.4110   46.1020 N   0  0  0  0  0  0  0  0  0  0  0  0
   56.2020   25.2010   46.6770 C   0  0  0  0  0  0  0  0  0  0  0  0
   56.4580   24.1910   45.6040 C   0  0  0  0  0  0  0  0  0  0  0  0
   56.3060   24.3910   44.2390 C   0  0  0  0  0  0  0  0  0  0  0  0
   56.6300   23.2600   43.4800 C   0  0  0  0  0  0  0  0  0  0  0  0
   57.0350   22.1730   44.2430 C   0  0  0  0  0  0  0  0  0  0  0  0
   56.9900   22.6190   45.8640 S   0  0  0  0  0  0  0  0  0  0  0  0
   58.1847   26.3601   45.9151 H   0  0  0  0  0  0  0  0  0  0  0  0
   58.1594   27.3332   44.3829 H   0  0  0  0  0  0  0  0  0  0  0  0
   57.8132   28.0138   48.0926 H   0  0  0  0  0  0  0  0  0  0  0  0
   59.0796   29.8254   49.2271 H   0  0  0  0  0  0  0  0  0  0  0  0
   62.7755   31.3116   48.7835 H   0  0  0  0  0  0  0  0  0  0  0  0
   62.5052   31.0343   46.9896 H   0  0  0  0  0  0  0  0  0  0  0  0
   62.9152   33.6305   48.4853 H   0  0  0  0  0  0  0  0  0  0  0  0
   63.7555   32.9541   47.0085 H   0  0  0  0  0  0  0  0  0  0  0  0
   62.3650   34.8330   46.3555 H   0  0  0  0  0  0  0  0  0  0  0  0
   61.6758   33.2772   45.7192 H   0  0  0  0  0  0  0  0  0  0  0  0
   56.9023   31.9956   46.6486 H   0  0  0  0  0  0  0  0  0  0  0  0
   56.4213   30.3016   44.8791 H   0  0  0  0  0  0  0  0  0  0  0  0
   57.2167   30.6738   42.5412 H   0  0  0  0  0  0  0  0  0  0  0  0
   58.4989   32.7401   41.9728 H   0  0  0  0  0  0  0  0  0  0  0  0
   58.9928   34.4305   43.7382 H   0  0  0  0  0  0  0  0  0  0  0  0
   61.3877   34.2505   49.1896 H   0  0  0  0  0  0  0  0  0  0  0  0
   59.6115   34.5796   49.0666 H   0  0  0  0  0  0  0  0  0  0  0  0
   60.4869   32.2652   50.0388 H   0  0  0  0  0  0  0  0  0  0  0  0
   59.0543   32.3349   48.9307 H   0  0  0  0  0  0  0  0  0  0  0  0
   60.8741   30.9343   45.4407 H   0  0  0  0  0  0  0  0  0  0  0  0
   59.6259   29.1011   44.3178 H   0  0  0  0  0  0  0  0  0  0  0  0
   57.1504   25.4500   47.1755 H   0  0  0  0  0  0  0  0  0  0  0  0
   55.4944   24.7791   47.4059 H   0  0  0  0  0  0  0  0  0  0  0  0
   55.9661   25.3401   43.7989 H   0  0  0  0  0  0  0  0  0  0  0  0
   56.5694   23.2349   42.3820 H   0  0  0  0  0  0  0  0  0  0  0  0
   57.3341   21.1886   43.8539 H   0  0  0  0  0  0  0  0  0  0  0  0
  1  2  2  0
  2  3  1  0
  3  4  1  0
  4  5  2  0
  5  6  1  0
  6  7  2  0
  7  8  1  0
  8  9  1  0
  9 10  1  0
 10 11  1  0
 11 12  1  0
 12 13  1  0
 13 14  2  0
 13 15  1  0
 15 16  1  0
 16 17  2  0
 17 18  1  0
 18 19  2  0
 19 20  1  0
 20 21  2  0
 12 22  1  0
 22 23  1  0
  7 24  1  0
 24 25  2  0
  2 26  1  0
 26 27  1  0
 27 28  1  0
 28 29  2  0
 29 30  1  0
 30 31  2  0
 31 32  1  0
 25  4  1  0
 32 28  1  0
 23  8  1  0
 21 16  1  0
  3 33  1  0
  3 34  1  0
  5 35  1  0
  6 36  1  0
  9 37  1  0
  9 38  1  0
 10 39  1  0
 10 40  1  0
 11 41  1  0
 11 42  1  0
 17 43  1  0
 18 44  1  0
 19 45  1  0
 20 46  1  0
 21 47  1  0
 22 48  1  0
 22 49  1  0
 23 50  1  0
 23 51  1  0
 24 52  1  0
 25 53  1  0
 27 54  1  0
 27 55  1  0
 29 56  1  0
 30 57  1  0
 31 58  1  0
M  CHG  2  15  -1  26  -1
M  END
>  <UniqueID>  (90) 
86

>  <SMILES>  (90) 
O=C(Cc1ccc(N2CCCN(C(=O)[N-]c3ccccc3)CC2)cc1)[N-]Cc1cccs1

>  <Energy>  (90) 
95.99443548696011

>  <Genealogy>  (90) 
O=C(Cc1ccc(N2CCCN(C(=O)[N-]c3ccccc3)CC2)cc1)[N-]Cc1cccs1 (protonated)
O=C(Cc1ccc(N2CCCN(C(=O)[N-]c3ccccc3)CC2)cc1)[N-]Cc1cccs1 (3D coordinates assigned)
O=C(Cc1ccc(N2CCCN(C(=O)[N-]c3ccccc3)CC2)cc1)[N-]Cc1cccs1 (nonaromatic ring conformer: 95.99443548696011 kcal/mol)

>  <smiles>  (90) 
O=C(Cc1ccc(N2CCCN(C(=O)Nc3ccccc3)CC2)cc1)NCc1cccs1

>  <score_type>  (90) 
oracle

>  <origin>  (90) 
adg

>  <m_score__min__energy>  (90) 
-10.380000000000001

>  <m_primary>  (90) 
energy

$$$$
90:0
     RDKit          3D

 59 61  0  0  0  0  0  0  0  0999 V2000
   63.3880   31.6010   47.1240 C   0  0  0  0  0  0  0  0  0  0  0  0
   63.0400   32.2820   48.4530 C   0  0  0  0  0  0  0  0  0  0  0  0
   64.1430   33.2760   48.8340 C   0  0  0  0  0  0  0  0  0  0  0  0
   61.7460   32.9680   48.3520 N   0  0  0  0  0  0  0  0  0  0  0  0
   61.4530   33.9140   47.3110 C   0  0  0  0  0  0  0  0  0  0  0  0
   62.3150   34.1710   46.4290 O   0  0  0  0  0  0  0  0  0  0  0  0
   60.0930   34.5380   47.2150 C   0  0  0  0  0  0  0  0  0  0  0  0
   59.2580   33.8530   46.2250 N   0  0  0  0  0  0  0  0  0  0  0  0
   59.4100   34.0600   44.7910 C   0  0  0  0  0  0  0  0  0  0  0  0
   58.1620   33.4470   44.1240 C   0  0  0  0  0  0  0  0  0  0  0  0
   57.1320   33.2750   45.2570 C   0  0  1  0  0  0  0  0  0  0  0  0
   56.2790   32.0760   45.2110 N   0  0  0  0  0  0  0  0  0  0  0  0
   56.9960   30.5930   44.6320 S   0  0  0  0  0  0  0  0  0  0  0  0
   55.9580   29.5100   44.7090 O   0  0  0  0  0  0  0  0  0  0  0  0
   57.3710   30.7630   43.1860 O   0  0  0  0  0  0  0  0  0  0  0  0
   58.3980   30.0540   45.5590 C   0  0  0  0  0  0  0  0  0  0  0  0
   59.5590   29.6520   44.8890 C   0  0  0  0  0  0  0  0  0  0  0  0
   60.7060   29.3160   45.6120 C   0  0  0  0  0  0  0  0  0  0  0  0
   60.7000   29.3770   47.0070 C   0  0  0  0  0  0  0  0  0  0  0  0
   59.5500   29.7990   47.6880 C   0  0  0  0  0  0  0  0  0  0  0  0
   59.5580   29.9260   49.4510 S   0  0  0  0  0  0  0  0  0  0  0  0
   60.4840   28.8820   50.0120 O   0  0  0  0  0  0  0  0  0  0  0  0
   58.1750   29.6450   49.9680 O   0  0  0  0  0  0  0  0  0  0  0  0
   60.0450   31.5140   49.9950 N   0  0  0  0  0  0  0  0  0  0  0  0
   60.9250   31.4070   51.1670 C   0  0  0  0  0  0  0  0  0  0  0  0
   61.3400   32.8110   51.6540 C   0  0  0  0  0  0  0  0  0  0  0  0
   60.6990   33.8400   50.9230 O   0  0  0  0  0  0  0  0  0  0  0  0
   59.2970   33.6640   50.9800 C   0  0  0  0  0  0  0  0  0  0  0  0
   58.8700   32.3450   50.3020 C   0  0  0  0  0  0  0  0  0  0  0  0
   58.3990   30.1350   46.9600 C   0  0  0  0  0  0  0  0  0  0  0  0
   57.9470   33.3750   46.4840 C   0  0  0  0  0  0  0  0  0  0  0  0
   57.4950   33.1910   47.6460 O   0  0  0  0  0  0  0  0  0  0  0  0
   63.8802   30.6377   47.3235 H   0  0  0  0  0  0  0  0  0  0  0  0
   62.4669   31.4297   46.5476 H   0  0  0  0  0  0  0  0  0  0  0  0
   64.0665   32.2471   46.5476 H   0  0  0  0  0  0  0  0  0  0  0  0
   62.9657   31.5148   49.2378 H   0  0  0  0  0  0  0  0  0  0  0  0
   64.2153   33.3412   49.9297 H   0  0  0  0  0  0  0  0  0  0  0  0
   65.1038   32.9329   48.4229 H   0  0  0  0  0  0  0  0  0  0  0  0
   63.9013   34.2672   48.4229 H   0  0  0  0  0  0  0  0  0  0  0  0
   61.0130   32.7840   49.0740 H   0  0  0  0  0  0  0  0  0  0  0  0
   59.6027   34.4800   48.1980 H   0  0  0  0  0  0  0  0  0  0  0  0
   60.2144   35.5849   46.8998 H   0  0  0  0  0  0  0  0  0  0  0  0
   59.4710   35.1352   44.5669 H   0  0  0  0  0  0  0  0  0  0  0  0
   60.3315   33.5898   44.4173 H   0  0  0  0  0  0  0  0  0  0  0  0
   57.7707   34.1211   43.3478 H   0  0  0  0  0  0  0  0  0  0  0  0
   58.3908   32.4902   43.6319 H   0  0  0  0  0  0  0  0  0  0  0  0
   56.3525   34.0472   45.1786 H   0  0  0  0  0  0  0  0  0  0  0  0
   59.5684   29.6005   43.7902 H   0  0  0  0  0  0  0  0  0  0  0  0
   61.6167   29.0024   45.0808 H   0  0  0  0  0  0  0  0  0  0  0  0
   61.5997   29.0933   47.5727 H   0  0  0  0  0  0  0  0  0  0  0  0
   60.3914   30.8855   51.9752 H   0  0  0  0  0  0  0  0  0  0  0  0
   61.8274   30.8438   50.8870 H   0  0  0  0  0  0  0  0  0  0  0  0
   61.0725   32.9112   52.7163 H   0  0  0  0  0  0  0  0  0  0  0  0
   62.4248   32.9144   51.5037 H   0  0  0  0  0  0  0  0  0  0  0  0
   58.9808   33.6443   52.0334 H   0  0  0  0  0  0  0  0  0  0  0  0
   58.8200   34.4993   50.4463 H   0  0  0  0  0  0  0  0  0  0  0  0
   58.2026   31.7909   50.9784 H   0  0  0  0  0  0  0  0  0  0  0  0
   58.3496   32.5826   49.3625 H   0  0  0  0  0  0  0  0  0  0  0  0
   57.4928   30.4636   47.4899 H   0  0  0  0  0  0  0  0  0  0  0  0
  1  2  1  0
  2  3  1  0
  2  4  1  0
  4  5  1  0
  5  6  2  0
  5  7  1  0
  7  8  1  0
  8  9  1  0
  9 10  1  0
 10 11  1  0
 11 12  1  0
 12 13  1  0
 13 14  2  0
 13 15  2  0
 13 16  1  0
 16 17  2  0
 17 18  1  0
 18 19  2  0
 19 20  1  0
 20 21  1  0
 21 22  2  0
 21 23  2  0
 21 24  1  0
 24 25  1  0
 25 26  1  0
 26 27  1  0
 27 28  1  0
 28 29  1  0
 20 30  2  0
 11 31  1  0
 31 32  2  0
 31  8  1  0
 30 16  1  0
 29 24  1  0
  1 33  1  0
  1 34  1  0
  1 35  1  0
  2 36  1  0
  3 37  1  0
  3 38  1  0
  3 39  1  0
  4 40  1  0
  7 41  1  0
  7 42  1  0
  9 43  1  0
  9 44  1  0
 10 45  1  0
 10 46  1  0
 11 47  1  1
 17 48  1  0
 18 49  1  0
 19 50  1  0
 25 51  1  0
 25 52  1  0
 26 53  1  0
 26 54  1  0
 28 55  1  0
 28 56  1  0
 29 57  1  0
 29 58  1  0
 30 59  1  0
M  CHG  1  12  -1
M  END
>  <UniqueID>  (91) 
87

>  <SMILES>  (91) 
CC(C)NC(=O)CN1CC[C@@H]([N-]S(=O)(=O)c2cccc(S(=O)(=O)N3CCOCC3)c2)C1=O

>  <Energy>  (91) 
65.81835024248242

>  <Genealogy>  (91) 
CC(C)NC(=O)CN1CCC([N-]S(=O)(=O)c2cccc(S(=O)(=O)N3CCOCC3)c2)C1=O (protonated)
CC(C)NC(=O)CN1CC[C@@H]([N-]S(=O)(=O)c2cccc(S(=O)(=O)N3CCOCC3)c2)C1=O (chirality)
CC(C)NC(=O)CN1CC[C@@H]([N-]S(=O)(=O)c2cccc(S(=O)(=O)N3CCOCC3)c2)C1=O (3D coordinates assigned)
CC(C)NC(=O)CN1CC[C@@H]([N-]S(=O)(=O)c2cccc(S(=O)(=O)N3CCOCC3)c2)C1=O (nonaromatic ring conformer: 65.81835024248242 kcal/mol)

>  <smiles>  (91) 
CC(C)NC(=O)CN1CCC(NS(=O)(=O)c2cccc(S(=O)(=O)N3CCOCC3)c2)C1=O

>  <score_type>  (91) 
oracle

>  <origin>  (91) 
adg

>  <m_score__min__energy>  (91) 
-11.25

>  <m_primary>  (91) 
energy

$$$$
91:0
     RDKit          3D

 43 45  0  0  0  0  0  0  0  0999 V2000
   55.1590   27.4410   46.0770 H   0  0  0  0  0  0  0  0  0  0  0  0
   55.1430   26.4000   45.9970 N   0  0  0  0  0  0  0  0  0  0  0  0
   56.7870   25.8680   45.9660 S   0  0  0  0  0  0  0  0  0  0  0  0
   57.2210   25.6730   44.5390 O   0  0  0  0  0  0  0  0  0  0  0  0
   56.9050   24.5570   46.6890 O   0  0  0  0  0  0  0  0  0  0  0  0
   57.8090   27.0680   46.7500 C   0  0  0  0  0  0  0  0  0  0  0  0
   57.6490   28.4260   46.4490 C   0  0  0  0  0  0  0  0  0  0  0  0
   56.8812   28.7396   45.7265 H   0  0  0  0  0  0  0  0  0  0  0  0
   58.4600   29.3850   47.0620 C   0  0  0  0  0  0  0  0  0  0  0  0
   58.3240   30.4496   46.8210 H   0  0  0  0  0  0  0  0  0  0  0  0
   59.4490   28.9990   47.9850 C   0  0  0  0  0  0  0  0  0  0  0  0
   60.3130   30.0170   48.6380 C   0  0  0  0  0  0  0  0  0  0  0  0
   61.3040   29.6280   49.5550 C   0  0  0  0  0  0  0  0  0  0  0  0
   61.4413   28.5626   49.7917 H   0  0  0  0  0  0  0  0  0  0  0  0
   62.1160   30.5850   50.1680 C   0  0  0  0  0  0  0  0  0  0  0  0
   62.8910   30.2702   50.8823 H   0  0  0  0  0  0  0  0  0  0  0  0
   61.9470   31.9390   49.8770 C   0  0  0  0  0  0  0  0  0  0  0  0
   62.5898   32.6863   50.3652 H   0  0  0  0  0  0  0  0  0  0  0  0
   60.9620   32.3560   48.9650 C   0  0  0  0  0  0  0  0  0  0  0  0
   60.7850   33.7950   48.6530 C   0  0  0  0  0  0  0  0  0  0  0  0
   61.6910   34.6160   48.9630 O   0  0  0  0  0  0  0  0  0  0  0  0
   59.5460   34.2550   48.0840 N   0  0  0  0  0  0  0  0  0  0  0  0
   59.0700   34.0730   46.8830 C   0  0  0  0  0  0  0  0  0  0  0  0
   59.4530   34.8530   45.7740 C   0  0  0  0  0  0  0  0  0  0  0  0
   60.1817   35.6681   45.8952 H   0  0  0  0  0  0  0  0  0  0  0  0
   58.9010   34.5840   44.5200 C   0  0  0  0  0  0  0  0  0  0  0  0
   59.1915   35.1950   43.6527 H   0  0  0  0  0  0  0  0  0  0  0  0
   58.0070   33.5720   44.3640 N   0  0  0  0  0  0  0  0  0  0  0  0
   57.6100   33.3910   43.4150 H   0  0  0  0  0  0  0  0  0  0  0  0
   57.6260   32.7840   45.4070 C   0  0  0  0  0  0  0  0  0  0  0  0
   56.7060   31.7510   45.1680 O   0  0  0  0  0  0  0  0  0  0  0  0
   56.8130   30.8030   44.1110 C   0  0  0  0  0  0  0  0  0  0  0  0
   56.9269   29.7939   44.5337 H   0  0  0  0  0  0  0  0  0  0  0  0
   55.9049   30.8407   43.4914 H   0  0  0  0  0  0  0  0  0  0  0  0
   57.6899   31.0421   43.4914 H   0  0  0  0  0  0  0  0  0  0  0  0
   58.1630   33.0240   46.6850 C   0  0  0  0  0  0  0  0  0  0  0  0
   57.8697   32.3858   47.5316 H   0  0  0  0  0  0  0  0  0  0  0  0
   60.1510   31.3840   48.3480 C   0  0  0  0  0  0  0  0  0  0  0  0
   59.3799   31.6981   47.6291 H   0  0  0  0  0  0  0  0  0  0  0  0
   59.6080   27.6320   48.2780 C   0  0  0  0  0  0  0  0  0  0  0  0
   60.3768   27.3141   48.9977 H   0  0  0  0  0  0  0  0  0  0  0  0
   58.7970   26.6750   47.6620 C   0  0  0  0  0  0  0  0  0  0  0  0
   58.9350   25.6087   47.8942 H   0  0  0  0  0  0  0  0  0  0  0  0
  1  2  1  0
  2  3  1  0
  3  4  2  0
  3  5  2  0
  3  6  1  0
  6  7  2  0
  7  8  1  0
  7  9  1  0
  9 10  1  0
  9 11  2  0
 11 12  1  0
 12 13  2  0
 13 14  1  0
 13 15  1  0
 15 16  1  0
 15 17  2  0
 17 18  1  0
 17 19  1  0
 19 20  1  0
 20 21  2  0
 20 22  1  0
 22 23  2  0
 23 24  1  0
 24 25  1  0
 24 26  2  0
 26 27  1  0
 26 28  1  0
 28 29  1  0
 28 30  1  0
 30 31  1  0
 31 32  1  0
 32 33  1  0
 32 34  1  0
 32 35  1  0
 30 36  2  0
 36 37  1  0
 19 38  2  0
 38 39  1  0
 11 40  1  0
 40 41  1  0
 40 42  2  0
 42 43  1  0
 42  6  1  0
 38 12  1  0
 36 23  1  0
M  CHG  1   2  -1
M  END
>  <UniqueID>  (92) 
88

>  <SMILES>  (92) 
COc1c/c(=N/C(=O)c2cccc(-c3ccc(S([NH-])(=O)=O)cc3)c2)cc[nH]1

>  <Energy>  (92) 
58.75031465567062

>  <Genealogy>  (92) 
COc1cc(=NC(=O)c2cccc(-c3ccc(S([NH-])(=O)=O)cc3)c2)cc[nH]1 (protonated)
COc1c/c(=N/C(=O)c2cccc(-c3ccc(S([NH-])(=O)=O)cc3)c2)cc[nH]1 (cis-trans isomerization)
COc1c/c(=N/C(=O)c2cccc(-c3ccc(S([NH-])(=O)=O)cc3)c2)cc[nH]1 (3D coordinates assigned)
COc1c/c(=N/C(=O)c2cccc(-c3ccc(S([NH-])(=O)=O)cc3)c2)cc[nH]1 (optimized conformer: 58.75031465567062 kcal/mol)

>  <smiles>  (92) 
COc1cc(=NC(=O)c2cccc(-c3ccc(S(N)(=O)=O)cc3)c2)cc[nH]1

>  <score_type>  (92) 
oracle

>  <origin>  (92) 
adg

>  <m_score__min__energy>  (92) 
-11.130000000000001

>  <m_primary>  (92) 
energy

$$$$
