0:0
     RDKit          3D

 55 58  0  0  0  0  0  0  0  0999 V2000
   62.9660   33.8060   46.7490 C   0  0  0  0  0  0  0  0  0  0  0  0
   61.5410   34.1540   47.1770 C   0  0  0  0  0  0  0  0  0  0  0  0
   60.7090   32.9140   47.3920 C   0  0  0  0  0  0  0  0  0  0  0  0
   59.9750   32.3240   46.3470 C   0  0  0  0  0  0  0  0  0  0  0  0
   59.1640   31.2670   46.7530 C   0  0  0  0  0  0  0  0  0  0  0  0
   58.2520   30.4750   45.8950 C   0  0  0  0  0  0  0  0  0  0  0  0
   57.8690   29.1870   46.3070 C   0  0  0  0  0  0  0  0  0  0  0  0
   56.9930   28.4070   45.5320 C   0  0  0  0  0  0  0  0  0  0  0  0
   56.5880   27.0550   45.9860 C   0  0  0  0  0  0  0  0  0  0  0  0
   55.2120   26.6830   46.0200 N   0  0  0  0  0  0  0  0  0  0  0  0
   57.4580   26.2170   46.3470 O   0  0  0  0  0  0  0  0  0  0  0  0
   56.5060   28.9310   44.3270 C   0  0  0  0  0  0  0  0  0  0  0  0
   56.8910   30.2020   43.8980 C   0  0  0  0  0  0  0  0  0  0  0  0
   57.7720   30.9830   44.6680 C   0  0  0  0  0  0  0  0  0  0  0  0
   58.2040   32.2460   44.2310 O   0  0  0  0  0  0  0  0  0  0  0  0
   58.1100   32.7190   42.8900 C   0  0  0  0  0  0  0  0  0  0  0  0
   59.3250   31.0960   48.4190 S   0  0  0  0  0  0  0  0  0  0  0  0
   60.4570   32.3200   48.6350 C   0  0  0  0  0  0  0  0  0  0  0  0
   60.9790   32.7180   49.9540 C   0  0  0  0  0  0  0  0  0  0  0  0
   60.1590   32.9140   50.8900 O   0  0  0  0  0  0  0  0  0  0  0  0
   62.3920   32.8540   50.2070 N   0  0  0  0  0  0  0  0  0  0  0  0
   63.3750   32.0380   49.4780 C   0  0  0  0  0  0  0  0  0  0  0  0
   64.3740   31.4340   50.4680 C   0  0  0  0  0  0  0  0  0  0  0  0
   65.0800   32.5220   51.3280 C   0  0  0  0  0  0  0  0  0  0  0  0
   64.3640   33.8960   51.2960 C   0  0  0  0  0  0  0  0  0  0  0  0
   62.8390   33.7420   51.2900 C   0  0  0  0  0  0  0  0  0  0  0  0
   65.2030   32.0590   52.7140 N   0  0  0  0  0  0  0  0  0  0  0  0
   66.5820   31.9770   53.0380 C   0  0  0  0  0  0  0  0  0  0  0  0
   67.0090   31.6120   54.1640 O   0  0  0  0  0  0  0  0  0  0  0  0
   67.4280   32.3500   51.9690 N   0  0  0  0  0  0  0  0  0  0  0  0
   66.5280   32.6820   50.9230 C   0  0  0  0  0  0  0  0  0  0  0  0
   66.9140   33.0570   49.7850 O   0  0  0  0  0  0  0  0  0  0  0  0
   63.5901   33.6536   47.6419 H   0  0  0  0  0  0  0  0  0  0  0  0
   62.9538   32.8844   46.1485 H   0  0  0  0  0  0  0  0  0  0  0  0
   63.3799   34.6295   46.1485 H   0  0  0  0  0  0  0  0  0  0  0  0
   61.5795   34.7257   48.1160 H   0  0  0  0  0  0  0  0  0  0  0  0
   61.0755   34.7469   46.3759 H   0  0  0  0  0  0  0  0  0  0  0  0
   60.0360   32.6665   45.3035 H   0  0  0  0  0  0  0  0  0  0  0  0
   58.2613   28.7825   47.2517 H   0  0  0  0  0  0  0  0  0  0  0  0
   54.5600   27.0980   46.7220 H   0  0  0  0  0  0  0  0  0  0  0  0
   55.8140   28.3351   43.7137 H   0  0  0  0  0  0  0  0  0  0  0  0
   56.5016   30.5971   42.9481 H   0  0  0  0  0  0  0  0  0  0  0  0
   57.8956   33.7979   42.8959 H   0  0  0  0  0  0  0  0  0  0  0  0
   59.0618   32.5372   42.3695 H   0  0  0  0  0  0  0  0  0  0  0  0
   57.3000   32.1870   42.3695 H   0  0  0  0  0  0  0  0  0  0  0  0
   62.8553   31.2296   48.9429 H   0  0  0  0  0  0  0  0  0  0  0  0
   63.9123   32.6706   48.7561 H   0  0  0  0  0  0  0  0  0  0  0  0
   63.8372   30.7462   51.1378 H   0  0  0  0  0  0  0  0  0  0  0  0
   65.1468   30.9071   49.8890 H   0  0  0  0  0  0  0  0  0  0  0  0
   64.6603   34.4729   52.1845 H   0  0  0  0  0  0  0  0  0  0  0  0
   64.6594   34.4145   50.3720 H   0  0  0  0  0  0  0  0  0  0  0  0
   62.5185   33.3198   52.2538 H   0  0  0  0  0  0  0  0  0  0  0  0
   62.3923   34.7343   51.1296 H   0  0  0  0  0  0  0  0  0  0  0  0
   64.4130   31.8420   53.3610 H   0  0  0  0  0  0  0  0  0  0  0  0
   68.4710   32.3750   51.9530 H   0  0  0  0  0  0  0  0  0  0  0  0
  1  2  1  0
  2  3  1  0
  3  4  1  0
  4  5  2  0
  5  6  1  0
  6  7  2  0
  7  8  1  0
  8  9  1  0
  9 10  1  0
  9 11  2  0
  8 12  2  0
 12 13  1  0
 13 14  2  0
 14 15  1  0
 15 16  1  0
  5 17  1  0
 17 18  1  0
 18 19  1  0
 19 20  2  0
 19 21  1  0
 21 22  1  0
 22 23  1  0
 23 24  1  0
 24 25  1  0
 25 26  1  0
 24 27  1  0
 27 28  1  0
 28 29  2  0
 28 30  1  0
 30 31  1  0
 31 32  2  0
 18  3  2  0
 26 21  1  0
 14  6  1  0
 31 24  1  0
  1 33  1  0
  1 34  1  0
  1 35  1  0
  2 36  1  0
  2 37  1  0
  4 38  1  0
  7 39  1  0
 10 40  1  0
 12 41  1  0
 13 42  1  0
 16 43  1  0
 16 44  1  0
 16 45  1  0
 22 46  1  0
 22 47  1  0
 23 48  1  0
 23 49  1  0
 25 50  1  0
 25 51  1  0
 26 52  1  0
 26 53  1  0
 27 54  1  0
 30 55  1  0
M  CHG  1  10  -1
M  END
>  <UniqueID>  (1) 
1

>  <SMILES>  (1) 
CCc1cc(-c2cc(C([NH-])=O)ccc2OC)sc1C(=O)N1CCC2(CC1)NC(=O)NC2=O

>  <Energy>  (1) 
110.98114002760954

>  <Genealogy>  (1) 
CCc1cc(-c2cc(C([NH-])=O)ccc2OC)sc1C(=O)N1CCC2(CC1)NC(=O)NC2=O (protonated)
CCc1cc(-c2cc(C([NH-])=O)ccc2OC)sc1C(=O)N1CCC2(CC1)NC(=O)NC2=O (3D coordinates assigned)
CCc1cc(-c2cc(C([NH-])=O)ccc2OC)sc1C(=O)N1CCC2(CC1)NC(=O)NC2=O (nonaromatic ring conformer: 110.98114002760954 kcal/mol)

>  <smiles>  (1) 
CCc1cc(-c2cc(C(N)=O)ccc2OC)sc1C(=O)N1CCC2(CC1)NC(=O)NC2=O

>  <score_type>  (1) 
oracle

>  <origin>  (1) 
adg

>  <m_score__min__energy>  (1) 
-11.9

>  <m_primary>  (1) 
energy

$$$$
1:0
     RDKit          3D

 26 27  0  0  0  0  0  0  0  0999 V2000
   55.5034   28.4179   43.6714 H   0  0  0  0  0  0  0  0  0  0  0  0
   55.7330   29.4370   44.0160 C   0  0  0  0  0  0  0  0  0  0  0  0
   55.0844   30.2758   43.7233 H   0  0  0  0  0  0  0  0  0  0  0  0
   56.8050   29.6570   44.7940 C   0  0  0  0  0  0  0  0  0  0  0  0
   57.0200   30.9460   45.1780 N   0  0  0  0  0  0  0  0  0  0  0  0
   58.0790   31.3360   45.9320 C   0  0  0  0  0  0  0  0  0  0  0  0
   58.2380   32.6800   46.2890 O   0  0  0  0  0  0  0  0  0  0  0  0
   57.5610   33.7400   45.6240 C   0  0  0  0  0  0  0  0  0  0  0  0
   57.1256   34.4217   46.3694 H   0  0  0  0  0  0  0  0  0  0  0  0
   58.2739   34.2924   44.9942 H   0  0  0  0  0  0  0  0  0  0  0  0
   56.7600   33.3255   44.9942 H   0  0  0  0  0  0  0  0  0  0  0  0
   59.0090   30.3870   46.3510 C   0  0  0  0  0  0  0  0  0  0  0  0
   60.1340   30.7700   47.1670 C   0  0  0  0  0  0  0  0  0  0  0  0
   61.0360   31.0780   47.8230 N   0  0  0  0  0  0  0  0  0  0  0  0
   58.8310   29.0500   45.9920 C   0  0  0  0  0  0  0  0  0  0  0  0
   59.5601   28.2994   46.3312 H   0  0  0  0  0  0  0  0  0  0  0  0
   57.7310   28.6400   45.2000 C   0  0  0  0  0  0  0  0  0  0  0  0
   57.5530   27.3260   44.8960 C   0  0  0  0  0  0  0  0  0  0  0  0
   57.6923   27.0324   43.8451 H   0  0  0  0  0  0  0  0  0  0  0  0
   57.1890   26.2560   45.8510 C   0  0  0  0  0  0  0  0  0  0  0  0
   58.0230   25.3040   46.3090 N   0  0  0  0  0  0  0  0  0  0  0  0
   57.2170   24.5050   47.0410 C   0  0  0  0  0  0  0  0  0  0  0  0
   57.6430   23.4910   47.6520 O   0  0  0  0  0  0  0  0  0  0  0  0
   55.9190   24.8740   47.0600 N   0  0  0  0  0  0  0  0  0  0  0  0
   55.9170   25.9750   46.2920 C   0  0  0  0  0  0  0  0  0  0  0  0
   54.7740   26.7080   45.9980 O   0  0  0  0  0  0  0  0  0  0  0  0
  1  2  1  0
  2  3  1  0
  2  4  2  0
  4  5  1  0
  5  6  2  0
  6  7  1  0
  7  8  1  0
  8  9  1  0
  8 10  1  0
  8 11  1  0
  6 12  1  0
 12 13  1  0
 13 14  3  0
 12 15  2  0
 15 16  1  0
 15 17  1  0
 17 18  2  0
 18 19  1  0
 18 20  1  0
 20 21  1  0
 21 22  1  0
 22 23  2  0
 22 24  1  0
 24 25  1  0
 25 26  1  0
 17  4  1  0
 25 20  2  0
M  CHG  3  21  -1  24  -1  26  -1
M  END
>  <UniqueID>  (2) 
2

>  <SMILES>  (2) 
C=c1nc(OC)c(C#N)c/c1=C\c1[n-]c(=O)[n-]c1[O-]

>  <Energy>  (2) 
67.98936023381862

>  <Genealogy>  (2) 
C=c1nc(OC)c(C#N)cc1=Cc1[n-]c(=O)[n-]c1[O-] (protonated)
C=c1nc(OC)c(C#N)c/c1=C\c1[n-]c(=O)[n-]c1[O-] (cis-trans isomerization)
C=c1nc(OC)c(C#N)c/c1=C\c1[n-]c(=O)[n-]c1[O-] (3D coordinates assigned)
C=c1nc(OC)c(C#N)c/c1=C\c1[n-]c(=O)[n-]c1[O-] (optimized conformer: 67.98936023381862 kcal/mol)

>  <smiles>  (2) 
C=c1nc(OC)c(C#N)cc1=Cc1[nH]c(=O)[nH]c1O

>  <score_type>  (2) 
oracle

>  <origin>  (2) 
adg

>  <m_score__min__energy>  (2) 
-15.199999999999999

>  <m_primary>  (2) 
energy

$$$$
2:0
     RDKit          3D

 60 63  0  0  0  0  0  0  0  0999 V2000
   55.6130   28.8890   45.2170 N   0  0  0  0  0  0  0  0  0  0  0  0
   57.0010   28.6440   45.6280 C   0  0  1  0  0  0  0  0  0  0  0  0
   57.5150   27.3140   45.0400 C   0  0  0  0  0  0  0  0  0  0  0  0
   57.1860   26.1130   45.8840 C   0  0  0  0  0  0  0  0  0  0  0  0
   58.3150   25.0270   46.5110 S   0  0  0  0  0  0  0  0  0  0  0  0
   57.1270   24.0860   47.2360 C   0  0  0  0  0  0  0  0  0  0  0  0
   57.3590   23.0470   47.9080 O   0  0  0  0  0  0  0  0  0  0  0  0
   55.8820   24.5620   47.0240 N   0  0  0  0  0  0  0  0  0  0  0  0
   55.9140   25.6950   46.2710 C   0  0  0  0  0  0  0  0  0  0  0  0
   54.7540   26.3780   45.9200 O   0  0  0  0  0  0  0  0  0  0  0  0
   57.9040   29.8110   45.2750 C   0  0  0  0  0  0  0  0  0  0  0  0
   57.4030   30.9470   45.0610 O   0  0  0  0  0  0  0  0  0  0  0  0
   59.3160   29.6500   45.1080 N   0  0  0  0  0  0  0  0  0  0  0  0
   60.3190   29.8590   46.1470 C   0  0  0  0  0  0  0  0  0  0  0  0
   60.1560   31.2520   46.7590 C   0  0  0  0  0  0  0  0  0  0  0  0
   59.6720   31.1590   48.1840 C   0  0  0  0  0  0  0  0  0  0  0  0
   60.3950   30.4150   49.1290 C   0  0  0  0  0  0  0  0  0  0  0  0
   59.9840   30.3810   50.4650 C   0  0  0  0  0  0  0  0  0  0  0  0
   58.8540   31.1040   50.8770 C   0  0  0  0  0  0  0  0  0  0  0  0
   58.3980   31.0460   52.3120 C   0  0  0  0  0  0  0  0  0  0  0  0
   57.6150   29.7860   52.5900 C   0  0  0  0  0  0  0  0  0  0  0  0
   58.2340   28.6890   52.6830 O   0  0  0  0  0  0  0  0  0  0  0  0
   56.1760   29.7990   52.7040 N   0  0  0  0  0  0  0  0  0  0  0  0
   55.4490   28.5810   53.1010 C   0  0  0  0  0  0  0  0  0  0  0  0
   54.1570   28.9220   53.8420 C   0  0  0  0  0  0  0  0  0  0  0  0
   53.3290   29.8660   53.0240 C   0  0  0  0  0  0  0  0  0  0  0  0
   51.9290   29.7790   53.0290 C   0  0  0  0  0  0  0  0  0  0  0  0
   51.1650   30.6900   52.2970 C   0  0  0  0  0  0  0  0  0  0  0  0
   51.7940   31.7020   51.5660 C   0  0  0  0  0  0  0  0  0  0  0  0
   51.0340   32.6140   50.8450 O   0  0  0  0  0  0  0  0  0  0  0  0
   53.1890   31.8020   51.5660 C   0  0  0  0  0  0  0  0  0  0  0  0
   53.9650   30.8820   52.2890 C   0  0  0  0  0  0  0  0  0  0  0  0
   55.4670   31.0400   52.3350 C   0  0  0  0  0  0  0  0  0  0  0  0
   58.1280   31.8440   49.9310 C   0  0  0  0  0  0  0  0  0  0  0  0
   58.5380   31.8770   48.5960 C   0  0  0  0  0  0  0  0  0  0  0  0
   55.5970   29.7170   44.5770 H   0  0  0  0  0  0  0  0  0  0  0  0
   55.2480   28.0730   44.6730 H   0  0  0  0  0  0  0  0  0  0  0  0
   57.0218   28.5536   46.7241 H   0  0  0  0  0  0  0  0  0  0  0  0
   57.0625   27.1753   44.0470 H   0  0  0  0  0  0  0  0  0  0  0  0
   58.6118   27.3848   44.9949 H   0  0  0  0  0  0  0  0  0  0  0  0
   54.7680   27.0860   45.1950 H   0  0  0  0  0  0  0  0  0  0  0  0
   60.1937   29.0991   46.9324 H   0  0  0  0  0  0  0  0  0  0  0  0
   61.3219   29.7747   45.7030 H   0  0  0  0  0  0  0  0  0  0  0  0
   61.1266   31.7693   46.7411 H   0  0  0  0  0  0  0  0  0  0  0  0
   59.4129   31.8102   46.1706 H   0  0  0  0  0  0  0  0  0  0  0  0
   61.2895   29.8558   48.8172 H   0  0  0  0  0  0  0  0  0  0  0  0
   60.5491   29.7847   51.1966 H   0  0  0  0  0  0  0  0  0  0  0  0
   59.2798   31.0719   52.9691 H   0  0  0  0  0  0  0  0  0  0  0  0
   57.7439   31.9095   52.5028 H   0  0  0  0  0  0  0  0  0  0  0  0
   55.2025   28.0010   52.1994 H   0  0  0  0  0  0  0  0  0  0  0  0
   56.0924   27.9972   53.7757 H   0  0  0  0  0  0  0  0  0  0  0  0
   53.5860   27.9991   54.0217 H   0  0  0  0  0  0  0  0  0  0  0  0
   54.4068   29.3998   54.8008 H   0  0  0  0  0  0  0  0  0  0  0  0
   51.4311   28.9901   53.6118 H   0  0  0  0  0  0  0  0  0  0  0  0
   50.0678   30.6114   52.2955 H   0  0  0  0  0  0  0  0  0  0  0  0
   53.6804   32.6050   50.9970 H   0  0  0  0  0  0  0  0  0  0  0  0
   55.8148   31.3579   51.3410 H   0  0  0  0  0  0  0  0  0  0  0  0
   55.6914   31.7855   53.1121 H   0  0  0  0  0  0  0  0  0  0  0  0
   57.2318   32.4007   50.2423 H   0  0  0  0  0  0  0  0  0  0  0  0
   57.9693   32.4687   47.8636 H   0  0  0  0  0  0  0  0  0  0  0  0
  1  2  1  0
  2  3  1  0
  3  4  1  0
  4  5  1  0
  5  6  1  0
  6  7  2  0
  6  8  1  0
  8  9  1  0
  9 10  1  0
  2 11  1  0
 11 12  2  0
 11 13  1  0
 13 14  1  0
 14 15  1  0
 15 16  1  0
 16 17  2  0
 17 18  1  0
 18 19  2  0
 19 20  1  0
 20 21  1  0
 21 22  2  0
 21 23  1  0
 23 24  1  0
 24 25  1  0
 25 26  1  0
 26 27  2  0
 27 28  1  0
 28 29  2  0
 29 30  1  0
 29 31  1  0
 31 32  2  0
 32 33  1  0
 19 34  1  0
 34 35  2  0
  9  4  2  0
 35 16  1  0
 33 23  1  0
 32 26  1  0
  1 36  1  0
  1 37  1  0
  2 38  1  1
  3 39  1  0
  3 40  1  0
 10 41  1  0
 14 42  1  0
 14 43  1  0
 15 44  1  0
 15 45  1  0
 17 46  1  0
 18 47  1  0
 20 48  1  0
 20 49  1  0
 24 50  1  0
 24 51  1  0
 25 52  1  0
 25 53  1  0
 27 54  1  0
 28 55  1  0
 31 56  1  0
 33 57  1  0
 33 58  1  0
 34 59  1  0
 35 60  1  0
M  CHG  3   8  -1  13  -1  30  -1
M  END
>  <UniqueID>  (3) 
3

>  <SMILES>  (3) 
N[C@@H](Cc1sc(=O)[n-]c1O)C(=O)[N-]CCc1ccc(CC(=O)N2CCc3ccc([O-])cc3C2)cc1

>  <Energy>  (3) 
89.46131381351744

>  <Genealogy>  (3) 
NC(Cc1sc(=O)[n-]c1O)C(=O)[N-]CCc1ccc(CC(=O)N2CCc3ccc([O-])cc3C2)cc1 (protonated)
N[C@@H](Cc1sc(=O)[n-]c1O)C(=O)[N-]CCc1ccc(CC(=O)N2CCc3ccc([O-])cc3C2)cc1 (chirality)
N[C@@H](Cc1sc(=O)[n-]c1O)C(=O)[N-]CCc1ccc(CC(=O)N2CCc3ccc([O-])cc3C2)cc1 (3D coordinates assigned)
N[C@@H](Cc1sc(=O)[n-]c1O)C(=O)[N-]CCc1ccc(CC(=O)N2CCc3ccc([O-])cc3C2)cc1 (nonaromatic ring conformer: 89.46131381351744 kcal/mol)

>  <smiles>  (3) 
NC(Cc1sc(=O)[nH]c1O)C(=O)NCCc1ccc(CC(=O)N2CCc3ccc(O)cc3C2)cc1

>  <score_type>  (3) 
oracle

>  <origin>  (3) 
adg

>  <m_score__min__energy>  (3) 
-17.32

>  <m_primary>  (3) 
energy

$$$$
3:0
     RDKit          3D

 56 59  0  0  0  0  0  0  0  0999 V2000
   61.8060   34.2570   47.8450 O   0  0  0  0  0  0  0  0  0  0  0  0
   60.5950   33.9430   47.6850 C   0  0  0  0  0  0  0  0  0  0  0  0
   60.0520   32.8490   48.4370 N   0  0  0  0  0  0  0  0  0  0  0  0
   60.4320   32.6340   49.8290 C   0  0  0  0  0  0  0  0  0  0  0  0
   59.4010   31.7680   50.5030 C   0  0  0  0  0  0  0  0  0  0  0  0
   58.1260   32.2790   50.7960 C   0  0  0  0  0  0  0  0  0  0  0  0
   57.1410   31.4500   51.3390 C   0  0  0  0  0  0  0  0  0  0  0  0
   57.4230   30.1040   51.6140 C   0  0  0  0  0  0  0  0  0  0  0  0
   56.4330   29.2280   52.1630 N   0  0  0  0  0  0  0  0  0  0  0  0
   55.3540   29.6450   53.4570 S   0  0  0  0  0  0  0  0  0  0  0  0
   56.0920   30.4920   54.4550 O   0  0  0  0  0  0  0  0  0  0  0  0
   54.9090   28.3830   54.1430 O   0  0  0  0  0  0  0  0  0  0  0  0
   53.9350   30.5290   52.8990 C   0  0  0  0  0  0  0  0  0  0  0  0
   53.8530   30.9840   51.5740 C   0  0  0  0  0  0  0  0  0  0  0  0
   52.7390   31.7140   51.1490 C   0  0  0  0  0  0  0  0  0  0  0  0
   51.6990   31.9880   52.0420 C   0  0  0  0  0  0  0  0  0  0  0  0
   50.5920   32.7130   51.6190 O   0  0  0  0  0  0  0  0  0  0  0  0
   51.7740   31.5330   53.3630 C   0  0  0  0  0  0  0  0  0  0  0  0
   52.8890   30.8060   53.7910 C   0  0  0  0  0  0  0  0  0  0  0  0
   58.6770   29.5820   51.2770 C   0  0  0  0  0  0  0  0  0  0  0  0
   59.6630   30.4090   50.7300 C   0  0  0  0  0  0  0  0  0  0  0  0
   59.7280   34.6830   46.6820 C   0  0  0  0  0  0  0  0  0  0  0  0
   60.0270   34.2230   45.2200 C   0  0  0  0  0  0  0  0  0  0  0  0
   58.8230   33.5960   44.5040 C   0  0  0  0  0  0  0  0  0  0  0  0
   58.1180   32.6770   45.4090 N   0  0  0  0  0  0  0  0  0  0  0  0
   57.8220   31.3170   45.0220 C   0  0  0  0  0  0  0  0  0  0  0  0
   58.7680   30.3420   45.1300 N   0  0  0  0  0  0  0  0  0  0  0  0
   58.5010   29.0590   44.7770 C   0  0  0  0  0  0  0  0  0  0  0  0
   57.2400   28.7200   44.2940 C   0  0  0  0  0  0  0  0  0  0  0  0
   56.2780   29.7220   44.1900 C   0  0  0  0  0  0  0  0  0  0  0  0
   56.5840   30.9940   44.5520 N   0  0  0  0  0  0  0  0  0  0  0  0
   57.6830   33.1630   46.7270 C   0  0  0  0  0  0  0  0  0  0  0  0
   58.2210   34.5740   47.0200 C   0  0  0  0  0  0  0  0  0  0  0  0
   59.2030   32.3570   48.0730 H   0  0  0  0  0  0  0  0  0  0  0  0
   61.4119   32.1358   49.8688 H   0  0  0  0  0  0  0  0  0  0  0  0
   60.4918   33.6028   50.3465 H   0  0  0  0  0  0  0  0  0  0  0  0
   57.9017   33.3373   50.5970 H   0  0  0  0  0  0  0  0  0  0  0  0
   56.1405   31.8547   51.5516 H   0  0  0  0  0  0  0  0  0  0  0  0
   54.6676   30.7656   50.8678 H   0  0  0  0  0  0  0  0  0  0  0  0
   52.6808   32.0731   50.1109 H   0  0  0  0  0  0  0  0  0  0  0  0
   50.9551   31.7474   54.0654 H   0  0  0  0  0  0  0  0  0  0  0  0
   52.9459   30.4503   54.8304 H   0  0  0  0  0  0  0  0  0  0  0  0
   58.8882   28.5153   51.4433 H   0  0  0  0  0  0  0  0  0  0  0  0
   60.6487   29.9917   50.4766 H   0  0  0  0  0  0  0  0  0  0  0  0
   59.9916   35.7485   46.7537 H   0  0  0  0  0  0  0  0  0  0  0  0
   60.3552   35.0995   44.6420 H   0  0  0  0  0  0  0  0  0  0  0  0
   60.8006   33.4435   45.2837 H   0  0  0  0  0  0  0  0  0  0  0  0
   58.1342   34.3923   44.1855 H   0  0  0  0  0  0  0  0  0  0  0  0
   59.1784   33.0349   43.6272 H   0  0  0  0  0  0  0  0  0  0  0  0
   59.2798   28.2881   44.8724 H   0  0  0  0  0  0  0  0  0  0  0  0
   57.0088   27.6851   44.0014 H   0  0  0  0  0  0  0  0  0  0  0  0
   55.2719   29.4829   43.8151 H   0  0  0  0  0  0  0  0  0  0  0  0
   56.5836   33.1885   46.7523 H   0  0  0  0  0  0  0  0  0  0  0  0
   58.0796   32.4794   47.4922 H   0  0  0  0  0  0  0  0  0  0  0  0
   57.6640   35.3030   46.4131 H   0  0  0  0  0  0  0  0  0  0  0  0
   58.0901   34.7796   48.0926 H   0  0  0  0  0  0  0  0  0  0  0  0
  1  2  2  0
  2  3  1  0
  3  4  1  0
  4  5  1  0
  5  6  2  0
  6  7  1  0
  7  8  2  0
  8  9  1  0
  9 10  1  0
 10 11  2  0
 10 12  2  0
 10 13  1  0
 13 14  2  0
 14 15  1  0
 15 16  2  0
 16 17  1  0
 16 18  1  0
 18 19  2  0
  8 20  1  0
 20 21  2  0
  2 22  1  0
 22 23  1  0
 23 24  1  0
 24 25  1  0
 25 26  1  0
 26 27  2  0
 27 28  1  0
 28 29  2  0
 29 30  1  0
 30 31  2  0
 25 32  1  0
 32 33  1  0
 21  5  1  0
 33 22  1  0
 19 13  1  0
 31 26  1  0
  3 34  1  0
  4 35  1  0
  4 36  1  0
  6 37  1  0
  7 38  1  0
 14 39  1  0
 15 40  1  0
 18 41  1  0
 19 42  1  0
 20 43  1  0
 21 44  1  0
 22 45  1  0
 23 46  1  0
 23 47  1  0
 24 48  1  0
 24 49  1  0
 28 50  1  0
 29 51  1  0
 30 52  1  0
 32 53  1  0
 32 54  1  0
 33 55  1  0
 33 56  1  0
M  CHG  2   9  -1  17  -1
M  END
>  <UniqueID>  (4) 
4

>  <SMILES>  (4) 
O=C(NCc1ccc([N-]S(=O)(=O)c2ccc([O-])cc2)cc1)C1CCN(c2ncccn2)CC1

>  <Energy>  (4) 
66.16105403113939

>  <Genealogy>  (4) 
O=C(NCc1ccc([N-]S(=O)(=O)c2ccc([O-])cc2)cc1)C1CCN(c2ncccn2)CC1 (protonated)
O=C(NCc1ccc([N-]S(=O)(=O)c2ccc([O-])cc2)cc1)C1CCN(c2ncccn2)CC1 (3D coordinates assigned)
O=C(NCc1ccc([N-]S(=O)(=O)c2ccc([O-])cc2)cc1)C1CCN(c2ncccn2)CC1 (nonaromatic ring conformer: 66.16105403113939 kcal/mol)

>  <smiles>  (4) 
O=C(NCc1ccc(NS(=O)(=O)c2ccc(O)cc2)cc1)C1CCN(c2ncccn2)CC1

>  <score_type>  (4) 
oracle

>  <origin>  (4) 
adg

>  <m_score__min__energy>  (4) 
-14.57

>  <m_primary>  (4) 
energy

$$$$
4:0
     RDKit          3D

 51 54  0  0  0  0  0  0  0  0999 V2000
   60.4310   29.7960   45.6320 C   0  0  0  0  0  0  0  0  0  0  0  0
   59.4100   28.6890   45.6240 C   0  0  0  0  0  0  0  0  0  0  0  0
   59.7590   27.4550   46.1980 C   0  0  0  0  0  0  0  0  0  0  0  0
   58.8660   26.3860   46.1940 C   0  0  0  0  0  0  0  0  0  0  0  0
   57.6000   26.5190   45.6060 C   0  0  0  0  0  0  0  0  0  0  0  0
   56.6300   25.3970   45.6110 C   0  0  0  0  0  0  0  0  0  0  0  0
   57.0550   24.1520   45.2610 N   0  0  0  0  0  0  0  0  0  0  0  0
   56.2240   23.1090   45.2430 N   0  0  0  0  0  0  0  0  0  0  0  0
   54.9180   23.2570   45.5790 C   0  0  0  0  0  0  0  0  0  0  0  0
   54.1410   22.2670   45.5490 O   0  0  0  0  0  0  0  0  0  0  0  0
   54.4550   24.4760   45.9520 N   0  0  0  0  0  0  0  0  0  0  0  0
   55.2810   25.5520   45.9840 C   0  0  0  0  0  0  0  0  0  0  0  0
   54.8320   26.6640   46.3700 O   0  0  0  0  0  0  0  0  0  0  0  0
   57.2300   27.7570   45.0600 C   0  0  0  0  0  0  0  0  0  0  0  0
   58.1140   28.8530   45.0630 C   0  0  0  0  0  0  0  0  0  0  0  0
   57.6420   30.1380   44.4820 C   0  0  0  0  0  0  0  0  0  0  0  0
   57.7210   30.3470   43.2410 O   0  0  0  0  0  0  0  0  0  0  0  0
   57.0750   31.1370   45.3400 N   0  0  0  0  0  0  0  0  0  0  0  0
   57.7720   32.2220   45.9690 C   0  0  0  0  0  0  0  0  0  0  0  0
   58.0770   33.4100   45.2810 C   0  0  0  0  0  0  0  0  0  0  0  0
   58.7800   34.4340   45.9240 C   0  0  0  0  0  0  0  0  0  0  0  0
   59.1930   34.2770   47.2480 C   0  0  0  0  0  0  0  0  0  0  0  0
   58.9160   33.0880   47.9360 C   0  0  0  0  0  0  0  0  0  0  0  0
   59.4420   32.9110   49.6070 S   0  0  0  0  0  0  0  0  0  0  0  0
   60.8680   32.4330   49.6560 O   0  0  0  0  0  0  0  0  0  0  0  0
   59.3580   34.2520   50.2820 O   0  0  0  0  0  0  0  0  0  0  0  0
   58.4030   31.7720   50.4270 N   0  0  0  0  0  0  0  0  0  0  0  0
   59.1730   30.5770   50.8170 C   0  0  0  0  0  0  0  0  0  0  0  0
   58.3740   29.7050   51.8080 C   0  0  0  0  0  0  0  0  0  0  0  0
   57.0120   30.0810   51.8230 O   0  0  0  0  0  0  0  0  0  0  0  0
   56.8800   31.3970   52.3330 C   0  0  0  0  0  0  0  0  0  0  0  0
   57.8040   32.4030   51.6110 C   0  0  0  0  0  0  0  0  0  0  0  0
   58.2120   32.0620   47.2890 C   0  0  0  0  0  0  0  0  0  0  0  0
   60.6759   30.0615   46.6710 H   0  0  0  0  0  0  0  0  0  0  0  0
   61.3417   29.4586   45.1154 H   0  0  0  0  0  0  0  0  0  0  0  0
   60.0212   30.6765   45.1154 H   0  0  0  0  0  0  0  0  0  0  0  0
   60.7511   27.3314   46.6569 H   0  0  0  0  0  0  0  0  0  0  0  0
   59.1560   25.4305   46.6555 H   0  0  0  0  0  0  0  0  0  0  0  0
   56.2285   27.8740   44.6204 H   0  0  0  0  0  0  0  0  0  0  0  0
   57.7619   33.5342   44.2345 H   0  0  0  0  0  0  0  0  0  0  0  0
   59.0080   35.3654   45.3849 H   0  0  0  0  0  0  0  0  0  0  0  0
   59.7374   35.0887   47.7527 H   0  0  0  0  0  0  0  0  0  0  0  0
   59.3989   29.9850   49.9178 H   0  0  0  0  0  0  0  0  0  0  0  0
   60.1026   30.9028   51.3067 H   0  0  0  0  0  0  0  0  0  0  0  0
   58.4535   28.6504   51.5055 H   0  0  0  0  0  0  0  0  0  0  0  0
   58.7897   29.8468   52.8165 H   0  0  0  0  0  0  0  0  0  0  0  0
   55.8367   31.7219   52.2068 H   0  0  0  0  0  0  0  0  0  0  0  0
   57.1698   31.3766   53.3939 H   0  0  0  0  0  0  0  0  0  0  0  0
   57.2163   33.2791   51.2993 H   0  0  0  0  0  0  0  0  0  0  0  0
   58.6041   32.7168   52.2976 H   0  0  0  0  0  0  0  0  0  0  0  0
   58.0035   31.1232   47.8230 H   0  0  0  0  0  0  0  0  0  0  0  0
  1  2  1  0
  2  3  2  0
  3  4  1  0
  4  5  2  0
  5  6  1  0
  6  7  2  0
  7  8  1  0
  8  9  1  0
  9 10  2  0
  9 11  1  0
 11 12  1  0
 12 13  2  0
  5 14  1  0
 14 15  2  0
 15 16  1  0
 16 17  2  0
 16 18  1  0
 18 19  1  0
 19 20  2  0
 20 21  1  0
 21 22  2  0
 22 23  1  0
 23 24  1  0
 24 25  2  0
 24 26  2  0
 24 27  1  0
 27 28  1  0
 28 29  1  0
 29 30  1  0
 30 31  1  0
 31 32  1  0
 23 33  2  0
 15  2  1  0
 33 19  1  0
 12  6  1  0
 32 27  1  0
  1 34  1  0
  1 35  1  0
  1 36  1  0
  3 37  1  0
  4 38  1  0
 14 39  1  0
 20 40  1  0
 21 41  1  0
 22 42  1  0
 28 43  1  0
 28 44  1  0
 29 45  1  0
 29 46  1  0
 31 47  1  0
 31 48  1  0
 32 49  1  0
 32 50  1  0
 33 51  1  0
M  CHG  3   8  -1  11  -1  18  -1
M  END
>  <UniqueID>  (5) 
5

>  <SMILES>  (5) 
Cc1ccc(-c2n[n-]c(=O)[n-]c2=O)cc1C(=O)[N-]c1cccc(S(=O)(=O)N2CCOCC2)c1

>  <Energy>  (5) 
78.1575658204538

>  <Genealogy>  (5) 
Cc1ccc(-c2n[n-]c(=O)[n-]c2=O)cc1C(=O)[N-]c1cccc(S(=O)(=O)N2CCOCC2)c1 (protonated)
Cc1ccc(-c2n[n-]c(=O)[n-]c2=O)cc1C(=O)[N-]c1cccc(S(=O)(=O)N2CCOCC2)c1 (3D coordinates assigned)
Cc1ccc(-c2n[n-]c(=O)[n-]c2=O)cc1C(=O)[N-]c1cccc(S(=O)(=O)N2CCOCC2)c1 (nonaromatic ring conformer: 78.1575658204538 kcal/mol)

>  <smiles>  (5) 
Cc1ccc(-c2n[nH]c(=O)[nH]c2=O)cc1C(=O)Nc1cccc(S(=O)(=O)N2CCOCC2)c1

>  <score_type>  (5) 
oracle

>  <origin>  (5) 
adg

>  <m_score__min__energy>  (5) 
-15.619999999999999

>  <m_primary>  (5) 
energy

$$$$
5:0
     RDKit          3D

 48 50  0  0  0  0  0  0  0  0999 V2000
   60.6550   26.8200   48.0960 O   0  0  0  0  0  0  0  0  0  0  0  0
   60.2860   27.5980   47.1730 C   0  0  0  0  0  0  0  0  0  0  0  0
   59.9550   27.0250   45.8180 C   0  0  0  0  0  0  0  0  0  0  0  0
   58.6870   26.2120   45.8610 C   0  0  0  0  0  0  0  0  0  0  0  0
   58.7450   24.8110   45.7790 C   0  0  0  0  0  0  0  0  0  0  0  0
   57.5690   24.0550   45.7890 C   0  0  0  0  0  0  0  0  0  0  0  0
   56.3280   24.6920   45.8720 C   0  0  0  0  0  0  0  0  0  0  0  0
   56.2560   26.0870   45.9410 C   0  0  0  0  0  0  0  0  0  0  0  0
   55.0120   26.7080   46.0170 O   0  0  0  0  0  0  0  0  0  0  0  0
   57.4360   26.8470   45.9320 C   0  0  0  0  0  0  0  0  0  0  0  0
   60.2310   29.0180   47.4240 N   0  0  0  0  0  0  0  0  0  0  0  0
   60.3020   29.9890   46.3220 C   0  0  0  0  0  0  0  0  0  0  0  0
   61.0530   31.2520   46.7590 C   0  0  0  0  0  0  0  0  0  0  0  0
   60.5560   31.7620   48.0420 N   0  0  0  0  0  0  0  0  0  0  0  0
   61.0500   33.0250   48.5200 C   0  0  0  0  0  0  0  0  0  0  0  0
   62.2840   33.2690   48.4640 O   0  0  0  0  0  0  0  0  0  0  0  0
   60.1700   34.0390   49.0230 N   0  0  0  0  0  0  0  0  0  0  0  0
   59.3390   34.9040   48.1960 C   0  0  0  0  0  0  0  0  0  0  0  0
   58.9810   34.1840   46.9290 C   0  0  0  0  0  0  0  0  0  0  0  0
   58.0230   33.1570   46.9440 C   0  0  0  0  0  0  0  0  0  0  0  0
   57.6650   32.5110   45.7560 C   0  0  0  0  0  0  0  0  0  0  0  0
   58.2510   32.8930   44.5450 C   0  0  0  0  0  0  0  0  0  0  0  0
   57.7590   32.0110   42.9240 Br  0  0  0  0  0  0  0  0  0  0  0  0
   59.1930   33.9270   44.5210 C   0  0  0  0  0  0  0  0  0  0  0  0
   59.5530   34.5750   45.7070 C   0  0  0  0  0  0  0  0  0  0  0  0
   59.6400   30.9590   48.8590 C   0  0  0  0  0  0  0  0  0  0  0  0
   60.0370   29.4810   48.8070 C   0  0  0  0  0  0  0  0  0  0  0  0
   59.8273   27.8500   45.1018 H   0  0  0  0  0  0  0  0  0  0  0  0
   60.7795   26.3654   45.5097 H   0  0  0  0  0  0  0  0  0  0  0  0
   59.7198   24.3065   45.7066 H   0  0  0  0  0  0  0  0  0  0  0  0
   57.6207   22.9577   45.7315 H   0  0  0  0  0  0  0  0  0  0  0  0
   55.4047   24.0942   45.8831 H   0  0  0  0  0  0  0  0  0  0  0  0
   54.3790   26.7210   45.2260 H   0  0  0  0  0  0  0  0  0  0  0  0
   57.3809   27.9445   45.9807 H   0  0  0  0  0  0  0  0  0  0  0  0
   60.8290   29.5318   45.4715 H   0  0  0  0  0  0  0  0  0  0  0  0
   59.2787   30.2692   46.0315 H   0  0  0  0  0  0  0  0  0  0  0  0
   62.1222   31.0141   46.8600 H   0  0  0  0  0  0  0  0  0  0  0  0
   60.8923   32.0279   45.9960 H   0  0  0  0  0  0  0  0  0  0  0  0
   58.4207   35.1638   48.7431 H   0  0  0  0  0  0  0  0  0  0  0  0
   59.8915   35.8238   47.9536 H   0  0  0  0  0  0  0  0  0  0  0  0
   57.5527   32.8597   47.8929 H   0  0  0  0  0  0  0  0  0  0  0  0
   56.9211   31.7009   45.7744 H   0  0  0  0  0  0  0  0  0  0  0  0
   59.6511   34.2307   43.5682 H   0  0  0  0  0  0  0  0  0  0  0  0
   60.2869   35.3940   45.6828 H   0  0  0  0  0  0  0  0  0  0  0  0
   59.6814   31.3093   49.9009 H   0  0  0  0  0  0  0  0  0  0  0  0
   58.6191   31.0690   48.4643 H   0  0  0  0  0  0  0  0  0  0  0  0
   60.9758   29.3443   49.3637 H   0  0  0  0  0  0  0  0  0  0  0  0
   59.2236   28.8915   49.2551 H   0  0  0  0  0  0  0  0  0  0  0  0
  1  2  2  0
  2  3  1  0
  3  4  1  0
  4  5  2  0
  5  6  1  0
  6  7  2  0
  7  8  1  0
  8  9  1  0
  8 10  2  0
  2 11  1  0
 11 12  1  0
 12 13  1  0
 13 14  1  0
 14 15  1  0
 15 16  2  0
 15 17  1  0
 17 18  1  0
 18 19  1  0
 19 20  2  0
 20 21  1  0
 21 22  2  0
 22 23  1  0
 22 24  1  0
 24 25  2  0
 14 26  1  0
 26 27  1  0
 10  4  1  0
 27 11  1  0
 25 19  1  0
  3 28  1  0
  3 29  1  0
  5 30  1  0
  6 31  1  0
  7 32  1  0
  9 33  1  0
 10 34  1  0
 12 35  1  0
 12 36  1  0
 13 37  1  0
 13 38  1  0
 18 39  1  0
 18 40  1  0
 20 41  1  0
 21 42  1  0
 24 43  1  0
 25 44  1  0
 26 45  1  0
 26 46  1  0
 27 47  1  0
 27 48  1  0
M  CHG  1  17  -1
M  END
>  <UniqueID>  (6) 
6

>  <SMILES>  (6) 
O=C(Cc1cccc(O)c1)N1CCN(C(=O)[N-]Cc2ccc(Br)cc2)CC1

>  <Energy>  (6) 
50.528668413143905

>  <Genealogy>  (6) 
O=C(Cc1cccc(O)c1)N1CCN(C(=O)[N-]Cc2ccc(Br)cc2)CC1 (protonated)
O=C(Cc1cccc(O)c1)N1CCN(C(=O)[N-]Cc2ccc(Br)cc2)CC1 (3D coordinates assigned)
O=C(Cc1cccc(O)c1)N1CCN(C(=O)[N-]Cc2ccc(Br)cc2)CC1 (nonaromatic ring conformer: 50.528668413143905 kcal/mol)

>  <smiles>  (6) 
O=C(Cc1cccc(O)c1)N1CCN(C(=O)NCc2ccc(Br)cc2)CC1

>  <score_type>  (6) 
oracle

>  <origin>  (6) 
adg

>  <m_score__min__energy>  (6) 
-10.58

>  <m_primary>  (6) 
energy

$$$$
6:0
     RDKit          3D

 57 60  0  0  0  0  0  0  0  0999 V2000
   60.3876   30.5025   47.7369 H   0  0  0  0  0  0  0  0  0  0  0  0
   59.8650   29.8340   47.0370 C   0  0  0  0  0  0  0  0  0  0  0  0
   60.0065   28.7454   47.1068 H   0  0  0  0  0  0  0  0  0  0  0  0
   59.0540   30.3470   46.0970 C   0  0  0  0  0  0  0  0  0  0  0  0
   58.3150   29.6430   45.1300 C   0  0  0  0  0  0  0  0  0  0  0  0
   58.3270   28.3410   44.7780 C   0  0  0  0  0  0  0  0  0  0  0  0
   58.9660   28.0555   43.9294 H   0  0  0  0  0  0  0  0  0  0  0  0
   57.5560   27.2660   45.4340 C   0  0  0  0  0  0  0  0  0  0  0  0
   56.1730   27.4010   45.6200 C   0  0  0  0  0  0  0  0  0  0  0  0
   55.5220   28.5690   45.2360 O   0  0  0  0  0  0  0  0  0  0  0  0
   55.4620   26.3890   46.1860 N   0  0  0  0  0  0  0  0  0  0  0  0
   54.4320   26.5040   46.3280 H   0  0  0  0  0  0  0  0  0  0  0  0
   56.0700   25.2320   46.5610 C   0  0  0  0  0  0  0  0  0  0  0  0
   55.3980   24.3070   47.0870 O   0  0  0  0  0  0  0  0  0  0  0  0
   57.4030   25.0680   46.3630 N   0  0  0  0  0  0  0  0  0  0  0  0
   58.1540   26.0480   45.8000 C   0  0  0  0  0  0  0  0  0  0  0  0
   59.3830   25.8500   45.6050 O   0  0  0  0  0  0  0  0  0  0  0  0
   57.4880   30.5740   44.5230 C   0  0  0  0  0  0  0  0  0  0  0  0
   56.7384   30.3734   43.7434 H   0  0  0  0  0  0  0  0  0  0  0  0
   57.7830   31.8010   45.0820 C   0  0  0  0  0  0  0  0  0  0  0  0
   57.1050   33.0870   44.7150 C   0  0  0  0  0  0  0  0  0  0  0  0
   56.8208   33.6260   45.6308 H   0  0  0  0  0  0  0  0  0  0  0  0
   57.7929   33.7081   44.1225 H   0  0  0  0  0  0  0  0  0  0  0  0
   56.2039   32.8703   44.1225 H   0  0  0  0  0  0  0  0  0  0  0  0
   58.7280   31.6640   46.0380 N   0  0  0  0  0  0  0  0  0  0  0  0
   59.2240   32.7180   46.8830 C   0  0  0  0  0  0  0  0  0  0  0  0
   59.8780   33.8190   46.3120 C   0  0  0  0  0  0  0  0  0  0  0  0
   60.0073   33.8744   45.2210 H   0  0  0  0  0  0  0  0  0  0  0  0
   60.3660   34.8460   47.1240 C   0  0  0  0  0  0  0  0  0  0  0  0
   60.8778   35.7079   46.6711 H   0  0  0  0  0  0  0  0  0  0  0  0
   60.2050   34.7800   48.5110 C   0  0  0  0  0  0  0  0  0  0  0  0
   60.5872   35.5918   49.1473 H   0  0  0  0  0  0  0  0  0  0  0  0
   59.5590   33.6840   49.0910 C   0  0  0  0  0  0  0  0  0  0  0  0
   59.4334   33.6360   50.1828 H   0  0  0  0  0  0  0  0  0  0  0  0
   59.0680   32.6400   48.2800 C   0  0  0  0  0  0  0  0  0  0  0  0
   58.4310   31.5130   48.8180 O   0  0  0  0  0  0  0  0  0  0  0  0
   58.4530   31.1410   50.1940 C   0  0  0  0  0  0  0  0  0  0  0  0
   58.7351   32.0111   50.8050 H   0  0  0  0  0  0  0  0  0  0  0  0
   57.4551   30.7903   50.4960 H   0  0  0  0  0  0  0  0  0  0  0  0
   59.3910   30.1100   50.3840 O   0  0  0  0  0  0  0  0  0  0  0  0
   60.7990   30.7480   51.0900 S   0  0  0  0  0  0  0  0  0  0  0  0
   60.6750   32.2430   51.1330 O   0  0  0  0  0  0  0  0  0  0  0  0
   60.9780   30.2410   52.4950 O   0  0  0  0  0  0  0  0  0  0  0  0
   62.2270   30.3080   50.1100 C   0  0  0  0  0  0  0  0  0  0  0  0
   63.0341   29.9684   50.7758 H   0  0  0  0  0  0  0  0  0  0  0  0
   61.9506   29.5022   49.4141 H   0  0  0  0  0  0  0  0  0  0  0  0
   62.7010   31.4970   49.3210 C   0  0  0  0  0  0  0  0  0  0  0  0
   62.5510   31.5270   47.9240 C   0  0  0  0  0  0  0  0  0  0  0  0
   62.1083   30.6657   47.4023 H   0  0  0  0  0  0  0  0  0  0  0  0
   62.9620   32.6470   47.1940 C   0  0  0  0  0  0  0  0  0  0  0  0
   62.8431   32.6648   46.1006 H   0  0  0  0  0  0  0  0  0  0  0  0
   63.5240   33.7440   47.8540 C   0  0  0  0  0  0  0  0  0  0  0  0
   63.8462   34.6248   47.2792 H   0  0  0  0  0  0  0  0  0  0  0  0
   63.6770   33.7230   49.2440 C   0  0  0  0  0  0  0  0  0  0  0  0
   64.1245   34.5848   49.7608 H   0  0  0  0  0  0  0  0  0  0  0  0
   63.2610   32.6060   49.9780 C   0  0  0  0  0  0  0  0  0  0  0  0
   63.3727   32.5962   51.0723 H   0  0  0  0  0  0  0  0  0  0  0  0
  1  2  1  0
  2  3  1  0
  2  4  2  0
  4  5  1  0
  5  6  2  0
  6  7  1  0
  6  8  1  0
  8  9  2  0
  9 10  1  0
  9 11  1  0
 11 12  1  0
 11 13  1  0
 13 14  2  0
 13 15  1  0
 15 16  1  0
 16 17  2  0
  5 18  1  0
 18 19  1  0
 18 20  2  0
 20 21  1  0
 21 22  1  0
 21 23  1  0
 21 24  1  0
 20 25  1  0
 25 26  1  0
 26 27  2  0
 27 28  1  0
 27 29  1  0
 29 30  1  0
 29 31  2  0
 31 32  1  0
 31 33  1  0
 33 34  1  0
 33 35  2  0
 35 36  1  0
 36 37  1  0
 37 38  1  0
 37 39  1  0
 37 40  1  0
 40 41  1  0
 41 42  2  0
 41 43  2  0
 41 44  1  0
 44 45  1  0
 44 46  1  0
 44 47  1  0
 47 48  2  0
 48 49  1  0
 48 50  1  0
 50 51  1  0
 50 52  2  0
 52 53  1  0
 52 54  1  0
 54 55  1  0
 54 56  2  0
 56 57  1  0
 25  4  1  0
 35 26  1  0
 56 47  1  0
 16  8  1  0
M  CHG  2  10  -1  15  -1
M  END
>  <UniqueID>  (7) 
7

>  <SMILES>  (7) 
C=c1/c(=C\c2c([O-])[nH]c(=O)[n-]c2=O)cc(C)n1-c1ccccc1OCOS(=O)(=O)Cc1ccccc1

>  <Energy>  (7) 
106.51271457811373

>  <Genealogy>  (7) 
C=c1c(=Cc2c([O-])[nH]c(=O)[n-]c2=O)cc(C)n1-c1ccccc1OCOS(=O)(=O)Cc1ccccc1 (protonated)
C=c1/c(=C\c2c([O-])[nH]c(=O)[n-]c2=O)cc(C)n1-c1ccccc1OCOS(=O)(=O)Cc1ccccc1 (cis-trans isomerization)
C=c1/c(=C\c2c([O-])[nH]c(=O)[n-]c2=O)cc(C)n1-c1ccccc1OCOS(=O)(=O)Cc1ccccc1 (3D coordinates assigned)
C=c1/c(=C\c2c([O-])[nH]c(=O)[n-]c2=O)cc(C)n1-c1ccccc1OCOS(=O)(=O)Cc1ccccc1 (optimized conformer: 106.51271457811373 kcal/mol)

>  <smiles>  (7) 
C=c1c(=Cc2c(O)[nH]c(=O)[nH]c2=O)cc(C)n1-c1ccccc1OCOS(=O)(=O)Cc1ccccc1

>  <score_type>  (7) 
oracle

>  <origin>  (7) 
adg

>  <m_score__min__energy>  (7) 
-14.9

>  <m_primary>  (7) 
energy

$$$$
7:0
     RDKit          3D

 42 44  0  0  0  0  0  0  0  0999 V2000
   55.0570   31.3850   52.0180 C   0  0  0  0  0  0  0  0  0  0  0  0
   54.6460   30.1890   52.4680 C   0  0  0  0  0  0  0  0  0  0  0  0
   53.3220   29.8080   52.7430 C   0  0  0  0  0  0  0  0  0  0  0  0
   52.1490   30.3850   52.4180 C   0  0  0  0  0  0  0  0  0  0  0  0
   51.7550   30.8300   51.0710 C   0  0  0  0  0  0  0  0  0  0  0  0
   51.7080   30.0390   49.9810 N   0  0  0  0  0  0  0  0  0  0  0  0
   51.1620   30.8380   49.0400 C   0  0  0  0  0  0  0  0  0  0  0  0
   50.9600   30.4530   47.8580 O   0  0  0  0  0  0  0  0  0  0  0  0
   50.8310   32.0750   49.4680 N   0  0  0  0  0  0  0  0  0  0  0  0
   51.2010   32.0480   50.7580 C   0  0  0  0  0  0  0  0  0  0  0  0
   51.0270   33.1110   51.6350 O   0  0  0  0  0  0  0  0  0  0  0  0
   53.4020   28.6300   53.4660 C   0  0  0  0  0  0  0  0  0  0  0  0
   54.7370   28.2950   53.5410 C   0  0  0  0  0  0  0  0  0  0  0  0
   55.2690   27.0750   54.2320 C   0  0  0  0  0  0  0  0  0  0  0  0
   55.4940   29.2310   52.9270 N   0  0  0  0  0  0  0  0  0  0  0  0
   56.9300   29.2240   52.8440 C   0  0  0  0  0  0  0  0  0  0  0  0
   57.6120   28.8510   53.8360 O   0  0  0  0  0  0  0  0  0  0  0  0
   57.5830   29.6110   51.6260 N   0  0  0  0  0  0  0  0  0  0  0  0
   58.9900   29.9960   51.5730 C   0  0  0  0  0  0  0  0  0  0  0  0
   59.1700   31.1170   50.5920 C   0  0  0  0  0  0  0  0  0  0  0  0
   58.8800   32.4570   50.7680 C   0  0  0  0  0  0  0  0  0  0  0  0
   58.3570   33.1030   52.0090 C   0  0  0  0  0  0  0  0  0  0  0  0
   59.0470   33.1100   49.6020 N   0  0  0  0  0  0  0  0  0  0  0  0
   59.4320   32.2370   48.6820 N   0  0  0  0  0  0  0  0  0  0  0  0
   59.5080   31.0200   49.2550 C   0  0  0  0  0  0  0  0  0  0  0  0
   59.8460   29.7700   48.5110 C   0  0  0  0  0  0  0  0  0  0  0  0
   56.1269   31.5670   51.8384 H   0  0  0  0  0  0  0  0  0  0  0  0
   54.3239   32.1830   51.8289 H   0  0  0  0  0  0  0  0  0  0  0  0
   51.4222   30.5369   53.2296 H   0  0  0  0  0  0  0  0  0  0  0  0
   52.5606   28.0685   53.8982 H   0  0  0  0  0  0  0  0  0  0  0  0
   55.2081   27.2147   55.3214 H   0  0  0  0  0  0  0  0  0  0  0  0
   54.6713   26.1987   53.9407 H   0  0  0  0  0  0  0  0  0  0  0  0
   56.3179   26.9167   53.9407 H   0  0  0  0  0  0  0  0  0  0  0  0
   56.9990   29.7620   50.7720 H   0  0  0  0  0  0  0  0  0  0  0  0
   59.3167   30.3264   52.5701 H   0  0  0  0  0  0  0  0  0  0  0  0
   59.5926   29.1326   51.2547 H   0  0  0  0  0  0  0  0  0  0  0  0
   58.7708   32.5919   52.8908 H   0  0  0  0  0  0  0  0  0  0  0  0
   58.6556   34.1616   52.0251 H   0  0  0  0  0  0  0  0  0  0  0  0
   57.2595   33.0313   52.0251 H   0  0  0  0  0  0  0  0  0  0  0  0
   60.0639   28.9643   49.2276 H   0  0  0  0  0  0  0  0  0  0  0  0
   58.9945   29.4780   47.8787 H   0  0  0  0  0  0  0  0  0  0  0  0
   60.7286   29.9469   47.8787 H   0  0  0  0  0  0  0  0  0  0  0  0
  1  2  2  0
  2  3  1  0
  3  4  2  3
  4  5  1  0
  5  6  1  0
  6  7  1  0
  7  8  2  0
  7  9  1  0
  9 10  1  0
 10 11  1  0
  3 12  1  0
 12 13  2  0
 13 14  1  0
 13 15  1  0
 15 16  1  0
 16 17  2  0
 16 18  1  0
 18 19  1  0
 19 20  1  0
 20 21  1  0
 21 22  1  0
 21 23  2  0
 23 24  1  0
 24 25  1  0
 25 26  1  0
 15  2  1  0
 25 20  2  0
 10  5  2  0
  1 27  1  0
  1 28  1  0
  4 29  1  0
 12 30  1  0
 14 31  1  0
 14 32  1  0
 14 33  1  0
 18 34  1  0
 19 35  1  0
 19 36  1  0
 22 37  1  0
 22 38  1  0
 22 39  1  0
 26 40  1  0
 26 41  1  0
 26 42  1  0
M  CHG  4   6  -1   9  -1  11  -1  24  -1
M  END
>  <UniqueID>  (8) 
8

>  <SMILES>  (8) 
C=c1c(=Cc2[n-]c(=O)[n-]c2[O-])cc(C)n1C(=O)NCc1c(C)n[n-]c1C

>  <Energy>  (8) 
140.77145295902076

>  <Genealogy>  (8) 
C=c1c(=Cc2[n-]c(=O)[n-]c2[O-])cc(C)n1C(=O)NCc1c(C)n[n-]c1C (protonated)
C=c1c(=Cc2[n-]c(=O)[n-]c2[O-])cc(C)n1C(=O)NCc1c(C)n[n-]c1C (3D coordinates assigned)
C=c1c(=Cc2[n-]c(=O)[n-]c2[O-])cc(C)n1C(=O)NCc1c(C)n[n-]c1C (optimized conformer: 140.77145295902076 kcal/mol)

>  <smiles>  (8) 
C=c1c(=Cc2[nH]c(=O)[nH]c2O)cc(C)n1C(=O)NCc1c(C)n[nH]c1C

>  <score_type>  (8) 
oracle

>  <origin>  (8) 
adg

>  <m_score__min__energy>  (8) 
-16.43

>  <m_primary>  (8) 
energy

$$$$
8:0
     RDKit          3D

 66 69  0  0  0  0  0  0  0  0999 V2000
   56.6640   31.6920   52.6790 C   0  0  0  0  0  0  0  0  0  0  0  0
   56.7600   30.3750   51.9880 C   0  0  0  0  0  0  0  0  0  0  0  0
   56.0170   29.4270   52.3570 O   0  0  0  0  0  0  0  0  0  0  0  0
   57.6890   30.2020   50.9110 N   0  0  0  0  0  0  0  0  0  0  0  0
   58.8390   31.0210   50.6590 C   0  0  0  0  0  0  0  0  0  0  0  0
   60.1060   30.5290   50.9890 C   0  0  0  0  0  0  0  0  0  0  0  0
   61.2460   31.3150   50.7990 C   0  0  0  0  0  0  0  0  0  0  0  0
   61.1290   32.6250   50.2990 C   0  0  0  0  0  0  0  0  0  0  0  0
   62.2310   33.4780   50.1230 O   0  0  0  0  0  0  0  0  0  0  0  0
   63.4500   33.1470   49.4550 C   0  0  0  0  0  0  0  0  0  0  0  0
   63.2030   32.1590   48.3090 C   0  0  0  0  0  0  0  0  0  0  0  0
   62.0240   32.5300   47.5140 N   0  0  0  0  0  0  0  0  0  0  0  0
   61.8650   33.8210   47.0850 C   0  0  0  0  0  0  0  0  0  0  0  0
   60.7580   34.1800   46.3130 C   0  0  0  0  0  0  0  0  0  0  0  0
   59.7890   33.2180   46.0000 C   0  0  0  0  0  0  0  0  0  0  0  0
   58.5760   33.5890   45.1890 C   0  0  0  0  0  0  0  0  0  0  0  0
   57.3410   32.9570   45.7520 C   0  0  0  0  0  0  0  0  0  0  0  0
   56.8900   33.3550   46.8600 O   0  0  0  0  0  0  0  0  0  0  0  0
   56.6540   31.9530   44.9920 N   0  0  0  0  0  0  0  0  0  0  0  0
   57.0130   30.5720   44.8210 C   0  0  0  0  0  0  0  0  0  0  0  0
   56.9710   30.0280   43.5330 C   0  0  0  0  0  0  0  0  0  0  0  0
   57.3410   28.7000   43.3090 C   0  0  0  0  0  0  0  0  0  0  0  0
   57.7770   27.9060   44.3690 C   0  0  0  0  0  0  0  0  0  0  0  0
   57.8500   28.4410   45.6630 C   0  0  0  0  0  0  0  0  0  0  0  0
   58.4600   27.4780   47.0060 S   0  0  0  0  0  0  0  0  0  0  0  0
   59.8410   26.9580   46.7170 O   0  0  0  0  0  0  0  0  0  0  0  0
   58.5340   28.3510   48.2270 O   0  0  0  0  0  0  0  0  0  0  0  0
   57.3920   26.1500   47.3270 N   0  0  0  0  0  0  0  0  0  0  0  0
   56.9340   25.1850   46.3650 C   0  0  0  0  0  0  0  0  0  0  0  0
   57.7360   24.0980   45.9660 C   0  0  0  0  0  0  0  0  0  0  0  0
   57.2700   23.1870   45.0170 C   0  0  0  0  0  0  0  0  0  0  0  0
   55.9980   23.3390   44.4640 C   0  0  0  0  0  0  0  0  0  0  0  0
   55.1890   24.4050   44.8600 C   0  0  0  0  0  0  0  0  0  0  0  0
   55.6470   25.3300   45.8060 C   0  0  0  0  0  0  0  0  0  0  0  0
   54.8100   26.3810   46.1760 O   0  0  0  0  0  0  0  0  0  0  0  0
   57.4630   29.7690   45.8860 C   0  0  0  0  0  0  0  0  0  0  0  0
   59.9710   31.9010   46.4420 C   0  0  0  0  0  0  0  0  0  0  0  0
   61.0980   31.5750   47.1980 C   0  0  0  0  0  0  0  0  0  0  0  0
   59.8610   33.1140   49.9680 C   0  0  0  0  0  0  0  0  0  0  0  0
   58.7220   32.3270   50.1550 C   0  0  0  0  0  0  0  0  0  0  0  0
   56.6753   31.5364   53.7679 H   0  0  0  0  0  0  0  0  0  0  0  0
   57.5187   32.3211   52.3896 H   0  0  0  0  0  0  0  0  0  0  0  0
   55.7271   32.1905   52.3896 H   0  0  0  0  0  0  0  0  0  0  0  0
   60.2062   29.5143   51.4018 H   0  0  0  0  0  0  0  0  0  0  0  0
   62.2387   30.9078   51.0413 H   0  0  0  0  0  0  0  0  0  0  0  0
   63.8965   34.0657   49.0468 H   0  0  0  0  0  0  0  0  0  0  0  0
   64.1286   32.6758   50.1813 H   0  0  0  0  0  0  0  0  0  0  0  0
   64.0857   32.1469   47.6527 H   0  0  0  0  0  0  0  0  0  0  0  0
   63.0222   31.1660   48.7463 H   0  0  0  0  0  0  0  0  0  0  0  0
   62.6149   34.5807   47.3505 H   0  0  0  0  0  0  0  0  0  0  0  0
   60.6475   35.2133   45.9524 H   0  0  0  0  0  0  0  0  0  0  0  0
   58.4572   34.6825   45.1990 H   0  0  0  0  0  0  0  0  0  0  0  0
   58.7177   33.2264   44.1602 H   0  0  0  0  0  0  0  0  0  0  0  0
   56.6434   30.6521   42.6885 H   0  0  0  0  0  0  0  0  0  0  0  0
   57.2883   28.2795   42.2939 H   0  0  0  0  0  0  0  0  0  0  0  0
   58.0639   26.8593   44.1900 H   0  0  0  0  0  0  0  0  0  0  0  0
   58.7359   23.9663   46.4052 H   0  0  0  0  0  0  0  0  0  0  0  0
   57.9073   22.3468   44.7041 H   0  0  0  0  0  0  0  0  0  0  0  0
   55.6332   22.6192   43.7165 H   0  0  0  0  0  0  0  0  0  0  0  0
   54.1847   24.5193   44.4260 H   0  0  0  0  0  0  0  0  0  0  0  0
   54.7700   26.7360   47.1230 H   0  0  0  0  0  0  0  0  0  0  0  0
   57.5112   30.1877   46.9020 H   0  0  0  0  0  0  0  0  0  0  0  0
   59.2291   31.1275   46.1943 H   0  0  0  0  0  0  0  0  0  0  0  0
   61.2425   30.5405   47.5427 H   0  0  0  0  0  0  0  0  0  0  0  0
   59.7596   34.1289   49.5561 H   0  0  0  0  0  0  0  0  0  0  0  0
   57.7297   32.7316   49.9066 H   0  0  0  0  0  0  0  0  0  0  0  0
  1  2  1  0
  2  3  2  0
  2  4  1  0
  4  5  1  0
  5  6  2  0
  6  7  1  0
  7  8  2  0
  8  9  1  0
  9 10  1  0
 10 11  1  0
 11 12  1  0
 12 13  2  0
 13 14  1  0
 14 15  2  0
 15 16  1  0
 16 17  1  0
 17 18  2  0
 17 19  1  0
 19 20  1  0
 20 21  2  0
 21 22  1  0
 22 23  2  0
 23 24  1  0
 24 25  1  0
 25 26  2  0
 25 27  2  0
 25 28  1  0
 28 29  1  0
 29 30  2  0
 30 31  1  0
 31 32  2  0
 32 33  1  0
 33 34  2  0
 34 35  1  0
 24 36  2  0
 15 37  1  0
 37 38  2  0
  8 39  1  0
 39 40  2  0
 40  5  1  0
 38 12  1  0
 36 20  1  0
 34 29  1  0
  1 41  1  0
  1 42  1  0
  1 43  1  0
  6 44  1  0
  7 45  1  0
 10 46  1  0
 10 47  1  0
 11 48  1  0
 11 49  1  0
 13 50  1  0
 14 51  1  0
 16 52  1  0
 16 53  1  0
 21 54  1  0
 22 55  1  0
 23 56  1  0
 30 57  1  0
 31 58  1  0
 32 59  1  0
 33 60  1  0
 35 61  1  0
 36 62  1  0
 37 63  1  0
 38 64  1  0
 39 65  1  0
 40 66  1  0
M  CHG  4   4  -1  12   1  19  -1  28  -1
M  END
>  <UniqueID>  (9) 
9

>  <SMILES>  (9) 
CC(=O)[N-]c1ccc(OCC[n+]2ccc(CC(=O)[N-]c3cccc(S(=O)(=O)[N-]c4ccccc4O)c3)cc2)cc1

>  <Energy>  (9) 
71.55010506788686

>  <Genealogy>  (9) 
CC(=O)[N-]c1ccc(OCC[n+]2ccc(CC(=O)[N-]c3cccc(S(=O)(=O)[N-]c4ccccc4O)c3)cc2)cc1 (protonated)
CC(=O)[N-]c1ccc(OCC[n+]2ccc(CC(=O)[N-]c3cccc(S(=O)(=O)[N-]c4ccccc4O)c3)cc2)cc1 (3D coordinates assigned)
CC(=O)[N-]c1ccc(OCC[n+]2ccc(CC(=O)[N-]c3cccc(S(=O)(=O)[N-]c4ccccc4O)c3)cc2)cc1 (optimized conformer: 71.55010506788686 kcal/mol)

>  <smiles>  (9) 
CC(=O)Nc1ccc(OCC[n+]2ccc(CC(=O)Nc3cccc(S(=O)(=O)Nc4ccccc4O)c3)cc2)cc1

>  <score_type>  (9) 
oracle

>  <origin>  (9) 
adg

>  <m_score__min__energy>  (9) 
-14.699999999999999

>  <m_primary>  (9) 
energy

$$$$
9:0
     RDKit          3D

 57 61  0  0  0  0  0  0  0  0999 V2000
   55.7370   30.8750   44.5170 O   0  0  0  0  0  0  0  0  0  0  0  0
   56.9540   30.5520   44.5690 C   0  0  0  0  0  0  0  0  0  0  0  0
   57.3560   29.2900   44.0220 N   0  0  0  0  0  0  0  0  0  0  0  0
   58.1810   28.3130   44.6750 C   0  0  0  0  0  0  0  0  0  0  0  0
   59.5550   28.5270   44.8790 C   0  0  0  0  0  0  0  0  0  0  0  0
   60.3230   27.5660   45.5400 C   0  0  0  0  0  0  0  0  0  0  0  0
   59.7320   26.3830   45.9920 C   0  0  0  0  0  0  0  0  0  0  0  0
   58.3630   26.1420   45.7760 C   0  0  0  0  0  0  0  0  0  0  0  0
   57.7370   24.8920   46.2730 C   0  0  0  0  0  0  0  0  0  0  0  0
   57.7450   24.6310   47.5060 O   0  0  0  0  0  0  0  0  0  0  0  0
   57.1140   23.9620   45.3760 N   0  0  0  0  0  0  0  0  0  0  0  0
   55.6610   23.9860   45.2120 C   0  0  0  0  0  0  0  0  0  0  0  0
   55.1630   22.5920   44.8140 C   0  0  0  0  0  0  0  0  0  0  0  0
   55.8980   22.0890   43.7130 O   0  0  0  0  0  0  0  0  0  0  0  0
   57.2470   21.8870   44.0910 C   0  0  0  0  0  0  0  0  0  0  0  0
   57.9260   23.2220   44.4090 C   0  0  0  0  0  0  0  0  0  0  0  0
   57.5980   27.1160   45.1090 C   0  0  0  0  0  0  0  0  0  0  0  0
   57.9220   31.4760   45.2120 C   0  0  0  0  0  0  0  0  0  0  0  0
   58.1750   32.7130   44.6060 C   0  0  0  0  0  0  0  0  0  0  0  0
   59.1280   33.5570   45.1690 C   0  0  0  0  0  0  0  0  0  0  0  0
   59.3790   34.6710   44.6400 O   0  0  0  0  0  0  0  0  0  0  0  0
   59.7920   33.1760   46.2870 N   0  0  0  0  0  0  0  0  0  0  0  0
   59.5380   31.9850   46.8880 C   0  0  0  0  0  0  0  0  0  0  0  0
   60.2320   31.6180   48.0530 C   0  0  0  0  0  0  0  0  0  0  0  0
   61.2870   32.4380   48.5880 N   0  0  0  0  0  0  0  0  0  0  0  0
   62.6760   31.9630   48.5360 C   0  0  0  0  0  0  0  0  0  0  0  0
   63.6730   33.1210   48.2800 C   0  0  0  0  0  0  0  0  0  0  0  0
   63.0650   34.4010   48.2390 O   0  0  0  0  0  0  0  0  0  0  0  0
   62.2270   34.5720   49.3620 C   0  0  0  0  0  0  0  0  0  0  0  0
   60.9610   33.7430   49.1720 C   0  0  0  0  0  0  0  0  0  0  0  0
   59.9000   30.4190   48.6850 C   0  0  0  0  0  0  0  0  0  0  0  0
   58.9010   29.6190   48.1460 C   0  0  0  0  0  0  0  0  0  0  0  0
   58.2740   30.0040   47.0070 N   0  0  0  0  0  0  0  0  0  0  0  0
   58.5810   31.1410   46.3700 N   0  0  0  0  0  0  0  0  0  0  0  0
   60.0262   29.4529   44.5175 H   0  0  0  0  0  0  0  0  0  0  0  0
   61.3964   27.7407   45.7054 H   0  0  0  0  0  0  0  0  0  0  0  0
   60.3415   25.6351   46.5203 H   0  0  0  0  0  0  0  0  0  0  0  0
   55.1909   24.2853   46.1604 H   0  0  0  0  0  0  0  0  0  0  0  0
   55.3951   24.7065   44.4244 H   0  0  0  0  0  0  0  0  0  0  0  0
   55.2816   21.9095   45.6684 H   0  0  0  0  0  0  0  0  0  0  0  0
   54.1040   22.6657   44.5259 H   0  0  0  0  0  0  0  0  0  0  0  0
   57.2796   21.2439   44.9828 H   0  0  0  0  0  0  0  0  0  0  0  0
   57.7804   21.4092   43.2560 H   0  0  0  0  0  0  0  0  0  0  0  0
   58.9230   23.0346   44.8342 H   0  0  0  0  0  0  0  0  0  0  0  0
   58.0270   23.8120   43.4861 H   0  0  0  0  0  0  0  0  0  0  0  0
   56.5285   26.9351   44.9261 H   0  0  0  0  0  0  0  0  0  0  0  0
   57.6291   33.0129   43.6993 H   0  0  0  0  0  0  0  0  0  0  0  0
   62.9246   31.4851   49.4950 H   0  0  0  0  0  0  0  0  0  0  0  0
   62.7614   31.2491   47.7035 H   0  0  0  0  0  0  0  0  0  0  0  0
   64.4218   33.1184   49.0858 H   0  0  0  0  0  0  0  0  0  0  0  0
   64.1193   32.9465   47.2899 H   0  0  0  0  0  0  0  0  0  0  0  0
   62.7533   34.2380   50.2684 H   0  0  0  0  0  0  0  0  0  0  0  0
   61.9616   35.6343   49.4675 H   0  0  0  0  0  0  0  0  0  0  0  0
   60.4766   33.5924   50.1480 H   0  0  0  0  0  0  0  0  0  0  0  0
   60.2826   34.2787   48.4918 H   0  0  0  0  0  0  0  0  0  0  0  0
   60.4246   30.1105   49.6013 H   0  0  0  0  0  0  0  0  0  0  0  0
   58.6197   28.6776   48.6406 H   0  0  0  0  0  0  0  0  0  0  0  0
  1  2  2  0
  2  3  1  0
  3  4  1  0
  4  5  2  0
  5  6  1  0
  6  7  2  0
  7  8  1  0
  8  9  1  0
  9 10  2  0
  9 11  1  0
 11 12  1  0
 12 13  1  0
 13 14  1  0
 14 15  1  0
 15 16  1  0
  8 17  2  0
  2 18  1  0
 18 19  2  0
 19 20  1  0
 20 21  2  0
 20 22  1  0
 22 23  2  0
 23 24  1  0
 24 25  1  0
 25 26  1  0
 26 27  1  0
 27 28  1  0
 28 29  1  0
 29 30  1  0
 24 31  2  0
 31 32  1  0
 32 33  2  0
 33 34  1  0
 17  4  1  0
 34 18  1  0
 16 11  1  0
 34 23  1  0
 30 25  1  0
  5 35  1  0
  6 36  1  0
  7 37  1  0
 12 38  1  0
 12 39  1  0
 13 40  1  0
 13 41  1  0
 15 42  1  0
 15 43  1  0
 16 44  1  0
 16 45  1  0
 17 46  1  0
 19 47  1  0
 26 48  1  0
 26 49  1  0
 27 50  1  0
 27 51  1  0
 29 52  1  0
 29 53  1  0
 30 54  1  0
 30 55  1  0
 31 56  1  0
 32 57  1  0
M  CHG  1   3  -1
M  END
>  <UniqueID>  (10) 
10

>  <SMILES>  (10) 
O=C([N-]c1cccc(C(=O)N2CCOCC2)c1)c1cc(=O)nc2c(N3CCOCC3)ccnn12

>  <Energy>  (10) 
92.58292684228691

>  <Genealogy>  (10) 
O=C([N-]c1cccc(C(=O)N2CCOCC2)c1)c1cc(=O)nc2c(N3CCOCC3)ccnn12 (protonated)
O=C([N-]c1cccc(C(=O)N2CCOCC2)c1)c1cc(=O)nc2c(N3CCOCC3)ccnn12 (3D coordinates assigned)
O=C([N-]c1cccc(C(=O)N2CCOCC2)c1)c1cc(=O)nc2c(N3CCOCC3)ccnn12 (nonaromatic ring conformer: 92.58292684228691 kcal/mol)

>  <smiles>  (10) 
O=C(Nc1cccc(C(=O)N2CCOCC2)c1)c1cc(=O)nc2c(N3CCOCC3)ccnn12

>  <score_type>  (10) 
oracle

>  <origin>  (10) 
adg

>  <m_score__min__energy>  (10) 
-10.890000000000001

>  <m_primary>  (10) 
energy

$$$$
10:0
     RDKit          3D

 59 64  0  0  1  0  0  0  0  0999 V2000
   59.6180   30.4610   48.5560 O   0  0  0  0  0  0  0  0  0  0  0  0
   59.3220   31.0120   49.6900 C   0  0  0  0  0  0  0  0  0  0  0  0
   59.0570   32.3800   49.6170 N   0  0  0  0  0  0  0  0  0  0  0  0
   59.1140   33.0720   48.3500 C   0  0  0  0  0  0  0  0  0  0  0  0
   59.8760   34.2200   48.3190 C   0  0  0  0  0  0  0  0  0  0  0  0
   59.9690   34.9260   47.1380 C   0  0  0  0  0  0  0  0  0  0  0  0
   59.2880   34.4410   46.0420 C   0  0  0  0  0  0  0  0  0  0  0  0
   58.5250   33.2930   46.0650 C   0  0  0  0  0  0  0  0  0  0  0  0
   57.8380   32.8580   44.8590 C   0  0  0  0  0  0  0  0  0  0  0  0
   57.3410   33.7980   44.1460 O   0  0  0  0  0  0  0  0  0  0  0  0
   57.7140   31.4930   44.4730 N   0  0  0  0  0  0  0  0  0  0  0  0
   58.2970   30.4760   45.3230 C   0  0  0  0  0  0  0  0  0  0  0  0
   57.2820   29.3730   45.4970 C   0  0  0  0  0  0  0  0  0  0  0  0
   56.1280   29.6010   44.7960 O   0  0  0  0  0  0  0  0  0  0  0  0
   56.3540   29.8400   43.4380 C   0  0  0  0  0  0  0  0  0  0  0  0
   57.0110   31.2030   43.2410 C   0  0  0  0  0  0  0  0  0  0  0  0
   58.4340   32.5880   47.2500 C   0  0  0  0  0  0  0  0  0  0  0  0
   59.3180   30.1360   50.8230 C   0  0  0  0  0  0  0  0  0  0  0  0
   60.3890   29.2980   51.0440 N   0  0  0  0  0  0  0  0  0  0  0  0
   60.1520   28.5890   52.1260 N   0  0  0  0  0  0  0  0  0  0  0  0
   58.9670   28.9200   52.6340 N   0  0  0  0  0  0  0  0  0  0  0  0
   58.4420   29.8690   51.8450 C   0  0  0  0  0  0  0  0  0  0  0  0
   57.2370   30.4230   52.0700 N   0  0  0  0  0  0  0  0  0  0  0  0
   56.5460   30.0010   53.1290 C   0  0  0  0  0  0  0  0  0  0  0  0
   55.4140   30.4920   53.3750 N   0  0  0  0  0  0  0  0  0  0  0  0
   54.1560   29.8400   53.4640 C   0  0  0  0  0  0  0  0  0  0  0  0
   53.1240   30.4260   52.5720 C   0  0  0  0  0  0  0  0  0  0  0  0
   52.0690   31.2230   52.8280 C   0  0  0  0  0  0  0  0  0  0  0  0
   51.2810   31.6200   51.8170 C   0  0  0  0  0  0  0  0  0  0  0  0
   51.5990   31.1860   50.5580 C   0  0  0  0  0  0  0  0  0  0  0  0
   51.0240   31.3910   49.2940 N   0  0  0  0  0  0  0  0  0  0  0  0
   50.5860   32.5020   48.9890 O   0  0  0  0  0  0  0  0  0  0  0  0
   50.9620   30.3480   48.4270 O   0  0  0  0  0  0  0  0  0  0  0  0
   53.0980   30.1630   50.8540 S   0  0  0  0  0  0  0  0  0  0  0  0
   57.0780   29.0130   53.9630 C   0  0  0  0  0  0  0  0  0  0  0  0
   56.4150   28.2820   55.3910 S   0  0  0  0  0  0  0  0  0  0  0  0
   57.8760   27.1980   55.6360 C   0  0  0  0  0  0  0  0  0  0  0  0
   58.7360   27.5020   54.5930 C   0  0  0  0  0  0  0  0  0  0  0  0
   58.2970   28.4440   53.7450 C   0  0  0  0  0  0  0  0  0  0  0  0
   58.8370   32.9330   50.4290 H   0  0  0  0  0  0  0  0  0  0  0  0
   60.4011   34.5673   49.2210 H   0  0  0  0  0  0  0  0  0  0  0  0
   60.5674   35.8467   47.0727 H   0  0  0  0  0  0  0  0  0  0  0  0
   59.3571   35.0005   45.0975 H   0  0  0  0  0  0  0  0  0  0  0  0
   59.2073   30.0746   44.8537 H   0  0  0  0  0  0  0  0  0  0  0  0
   58.5664   30.9039   46.2999 H   0  0  0  0  0  0  0  0  0  0  0  0
   57.7251   28.4287   45.1477 H   0  0  0  0  0  0  0  0  0  0  0  0
   57.0191   29.3289   46.5642 H   0  0  0  0  0  0  0  0  0  0  0  0
   57.0150   29.0575   43.0372 H   0  0  0  0  0  0  0  0  0  0  0  0
   55.3902   29.8280   42.9079 H   0  0  0  0  0  0  0  0  0  0  0  0
   57.7169   31.1681   42.3981 H   0  0  0  0  0  0  0  0  0  0  0  0
   56.2654   31.9787   43.0122 H   0  0  0  0  0  0  0  0  0  0  0  0
   57.8364   31.6668   47.3152 H   0  0  0  0  0  0  0  0  0  0  0  0
   56.8140   31.1420   51.4700 H   0  0  0  0  0  0  0  0  0  0  0  0
   54.2914   28.7825   53.1931 H   0  0  0  0  0  0  0  0  0  0  0  0
   53.7993   29.9620   54.4974 H   0  0  0  0  0  0  0  0  0  0  0  0
   51.8550   31.5459   53.8575 H   0  0  0  0  0  0  0  0  0  0  0  0
   50.4115   32.2703   51.9933 H   0  0  0  0  0  0  0  0  0  0  0  0
   58.0349   26.4637   56.4395 H   0  0  0  0  0  0  0  0  0  0  0  0
   59.7099   27.0059   54.4692 H   0  0  0  0  0  0  0  0  0  0  0  0
  1  2  2  0
  2  3  1  0
  3  4  1  0
  4  5  2  0
  5  6  1  0
  6  7  2  0
  7  8  1  0
  8  9  1  0
  9 10  2  0
  9 11  1  0
 11 12  1  0
 12 13  1  0
 13 14  1  0
 14 15  1  0
 15 16  1  0
  8 17  2  0
  2 18  1  0
 18 19  1  0
 19 20  2  0
 20 21  1  0
 21 22  1  0
 22 23  1  0
 23 24  1  0
 24 25  2  0
 25 26  1  0
 26 27  1  0
 27 28  2  0
 28 29  1  0
 29 30  2  0
 30 31  1  0
 31 32  2  0
 31 33  1  0
 30 34  1  0
 24 35  1  0
 35 36  1  0
 36 37  1  0
 37 38  2  0
 38 39  1  0
 17  4  1  0
 22 18  2  0
 34 27  1  0
 39 35  2  0
 16 11  1  0
 39 21  1  0
  3 40  1  0
  5 41  1  0
  6 42  1  0
  7 43  1  0
 12 44  1  0
 12 45  1  0
 13 46  1  0
 13 47  1  0
 15 48  1  0
 15 49  1  0
 16 50  1  0
 16 51  1  0
 17 52  1  0
 23 53  1  0
 26 54  1  0
 26 55  1  0
 28 56  1  0
 29 57  1  0
 37 58  1  0
 38 59  1  0
M  CHG  2  31   1  33  -1
M  END
>  <smiles>  (11) 
O=C(Nc1cccc(C(=O)N2CCOCC2)c1)c1nnn2c1[nH]c(=NCc1ccc([N+](=O)[O-])s1)c1sccc12

>  <score_type>  (11) 
oracle

>  <origin>  (11) 
adg

>  <m_score__min__energy>  (11) 
-11.19

>  <m_primary>  (11) 
energy

$$$$
11:0
     RDKit          3D

 50 52  0  0  0  0  0  0  0  0999 V2000
   60.7130   28.7930   49.3070 C   0  0  0  0  0  0  0  0  0  0  0  0
   60.1080   30.1550   49.4830 C   0  0  0  0  0  0  0  0  0  0  0  0
   59.2300   30.6660   48.5190 C   0  0  0  0  0  0  0  0  0  0  0  0
   58.6150   31.9080   48.7020 C   0  0  0  0  0  0  0  0  0  0  0  0
   57.7580   32.3870   47.7000 O   0  0  0  0  0  0  0  0  0  0  0  0
   58.1480   32.7770   46.4100 C   0  0  0  0  0  0  0  0  0  0  0  0
   58.6500   34.0690   46.1630 C   0  0  0  0  0  0  0  0  0  0  0  0
   58.9650   34.4680   44.8620 C   0  0  0  0  0  0  0  0  0  0  0  0
   58.7660   33.5920   43.7950 C   0  0  0  0  0  0  0  0  0  0  0  0
   58.2580   32.3110   44.0260 C   0  0  0  0  0  0  0  0  0  0  0  0
   57.9640   31.8870   45.3300 C   0  0  0  0  0  0  0  0  0  0  0  0
   57.4400   30.5650   45.5330 N   0  0  0  0  0  0  0  0  0  0  0  0
   56.2920   30.0580   44.8350 C   0  0  0  0  0  0  0  0  0  0  0  0
   55.5440   30.8400   44.1910 O   0  0  0  0  0  0  0  0  0  0  0  0
   55.8940   28.6900   44.9920 N   0  0  0  0  0  0  0  0  0  0  0  0
   56.5220   27.7230   45.6040 C   0  0  0  0  0  0  0  0  0  0  0  0
   57.8520   27.8880   45.8450 N   0  0  0  0  0  0  0  0  0  0  0  0
   58.6080   26.9430   46.4650 C   0  0  0  0  0  0  0  0  0  0  0  0
   58.0260   25.7490   46.8840 C   0  0  0  0  0  0  0  0  0  0  0  0
   56.6630   25.5500   46.6810 C   0  0  0  0  0  0  0  0  0  0  0  0
   55.8910   26.5350   46.0590 C   0  0  0  0  0  0  0  0  0  0  0  0
   54.5200   26.3340   45.9590 O   0  0  0  0  0  0  0  0  0  0  0  0
   58.9070   32.6600   49.8530 C   0  0  0  0  0  0  0  0  0  0  0  0
   59.7820   32.1610   50.8300 C   0  0  0  0  0  0  0  0  0  0  0  0
   60.0590   32.9510   52.0530 C   0  0  0  0  0  0  0  0  0  0  0  0
   61.2390   33.3370   52.2760 O   0  0  0  0  0  0  0  0  0  0  0  0
   59.0150   33.3010   52.9820 N   0  0  0  0  0  0  0  0  0  0  0  0
   57.9230   32.3750   53.2900 C   0  0  0  0  0  0  0  0  0  0  0  0
   59.0720   34.5920   53.6680 C   0  0  0  0  0  0  0  0  0  0  0  0
   60.3610   30.8930   50.6490 C   0  0  0  0  0  0  0  0  0  0  0  0
   60.9102   28.3491   50.2939 H   0  0  0  0  0  0  0  0  0  0  0  0
   60.0153   28.1512   48.7490 H   0  0  0  0  0  0  0  0  0  0  0  0
   61.6569   28.8804   48.7490 H   0  0  0  0  0  0  0  0  0  0  0  0
   59.0222   30.0843   47.6088 H   0  0  0  0  0  0  0  0  0  0  0  0
   58.7950   34.7684   46.9996 H   0  0  0  0  0  0  0  0  0  0  0  0
   59.3704   35.4740   44.6787 H   0  0  0  0  0  0  0  0  0  0  0  0
   59.0093   33.9100   42.7704 H   0  0  0  0  0  0  0  0  0  0  0  0
   58.0875   31.6302   43.1789 H   0  0  0  0  0  0  0  0  0  0  0  0
   57.8150   30.0000   46.3280 H   0  0  0  0  0  0  0  0  0  0  0  0
   59.6799   27.1216   46.6357 H   0  0  0  0  0  0  0  0  0  0  0  0
   58.6357   24.9727   47.3694 H   0  0  0  0  0  0  0  0  0  0  0  0
   56.1915   24.6129   47.0118 H   0  0  0  0  0  0  0  0  0  0  0  0
   58.4452   33.6491   49.9892 H   0  0  0  0  0  0  0  0  0  0  0  0
   57.8160   32.2842   54.3810 H   0  0  0  0  0  0  0  0  0  0  0  0
   56.9855   32.7576   52.8602 H   0  0  0  0  0  0  0  0  0  0  0  0
   58.1473   31.3876   52.8602 H   0  0  0  0  0  0  0  0  0  0  0  0
   59.0648   34.4297   54.7559 H   0  0  0  0  0  0  0  0  0  0  0  0
   59.9943   35.1188   53.3819 H   0  0  0  0  0  0  0  0  0  0  0  0
   58.1997   35.1981   53.3819 H   0  0  0  0  0  0  0  0  0  0  0  0
   61.0173   30.4763   51.4273 H   0  0  0  0  0  0  0  0  0  0  0  0
  1  2  1  0
  2  3  2  0
  3  4  1  0
  4  5  1  0
  5  6  1  0
  6  7  2  0
  7  8  1  0
  8  9  2  0
  9 10  1  0
 10 11  2  0
 11 12  1  0
 12 13  1  0
 13 14  2  0
 13 15  1  0
 15 16  2  3
 16 17  1  0
 17 18  1  0
 18 19  2  0
 19 20  1  0
 20 21  2  0
 21 22  1  0
  4 23  2  0
 23 24  1  0
 24 25  1  0
 25 26  2  0
 25 27  1  0
 27 28  1  0
 27 29  1  0
 24 30  2  0
 30  2  1  0
 11  6  1  0
 21 16  1  0
  1 31  1  0
  1 32  1  0
  1 33  1  0
  3 34  1  0
  7 35  1  0
  8 36  1  0
  9 37  1  0
 10 38  1  0
 12 39  1  0
 18 40  1  0
 19 41  1  0
 20 42  1  0
 23 43  1  0
 28 44  1  0
 28 45  1  0
 28 46  1  0
 29 47  1  0
 29 48  1  0
 29 49  1  0
 30 50  1  0
M  CHG  2  17  -1  22  -1
M  END
>  <UniqueID>  (12) 
11

>  <SMILES>  (12) 
Cc1cc(Oc2ccccc2NC(=O)N=c2[n-]cccc2[O-])cc(C(=O)N(C)C)c1

>  <Energy>  (12) 
76.96649801040799

>  <Genealogy>  (12) 
Cc1cc(Oc2ccccc2NC(=O)N=c2[n-]cccc2[O-])cc(C(=O)N(C)C)c1 (protonated)
Cc1cc(Oc2ccccc2NC(=O)N=c2[n-]cccc2[O-])cc(C(=O)N(C)C)c1 (3D coordinates assigned)
Cc1cc(Oc2ccccc2NC(=O)N=c2[n-]cccc2[O-])cc(C(=O)N(C)C)c1 (optimized conformer: 76.96649801040799 kcal/mol)

>  <smiles>  (12) 
Cc1cc(Oc2ccccc2NC(=O)N=c2[nH]cccc2O)cc(C(=O)N(C)C)c1

>  <score_type>  (12) 
oracle

>  <origin>  (12) 
adg

>  <m_score__min__energy>  (12) 
-13.970000000000001

>  <m_primary>  (12) 
energy

$$$$
12:0
     RDKit          3D

 60 64  0  0  0  0  0  0  0  0999 V2000
   55.1760   25.4150   46.0260 O   0  0  0  0  0  0  0  0  0  0  0  0
   56.2730   24.9340   45.6350 C   0  0  0  0  0  0  0  0  0  0  0  0
   57.5010   25.6400   45.8660 N   0  0  0  0  0  0  0  0  0  0  0  0
   57.7070   27.0570   45.7670 C   0  0  0  0  0  0  0  0  0  0  0  0
   57.9650   27.8550   46.8950 C   0  0  0  0  0  0  0  0  0  0  0  0
   58.1760   29.2300   46.7530 C   0  0  0  0  0  0  0  0  0  0  0  0
   58.1460   29.8300   45.4810 C   0  0  0  0  0  0  0  0  0  0  0  0
   58.3510   31.2950   45.3300 C   0  0  0  0  0  0  0  0  0  0  0  0
   57.8370   31.9730   44.2110 C   0  0  0  0  0  0  0  0  0  0  0  0
   58.0220   33.3490   44.0720 C   0  0  0  0  0  0  0  0  0  0  0  0
   58.7170   34.0670   45.0450 C   0  0  0  0  0  0  0  0  0  0  0  0
   59.2290   33.4140   46.1800 C   0  0  0  0  0  0  0  0  0  0  0  0
   59.9720   34.1740   47.2140 C   0  0  0  0  0  0  0  0  0  0  0  0
   59.6040   35.3440   47.5090 O   0  0  0  0  0  0  0  0  0  0  0  0
   61.1000   33.5970   47.8950 N   0  0  0  0  0  0  0  0  0  0  0  0
   61.3170   33.9070   49.3150 C   0  0  0  0  0  0  0  0  0  0  0  0
   61.9840   32.7210   50.0150 C   0  0  0  0  0  0  0  0  0  0  0  0
   63.1420   32.2780   49.2320 N   0  0  0  0  0  0  0  0  0  0  0  0
   64.4780   32.5900   49.6610 C   0  0  0  0  0  0  0  0  0  0  0  0
   65.1570   33.4210   49.0000 O   0  0  0  0  0  0  0  0  0  0  0  0
   65.1190   31.9310   50.8610 C   0  0  0  0  0  0  0  0  0  0  0  0
   66.4850   31.3180   50.5650 C   0  0  0  0  0  0  0  0  0  0  0  0
   67.1210   32.2370   51.6020 C   0  0  0  0  0  0  0  0  0  0  0  0
   65.7600   32.8580   51.8950 C   0  0  0  0  0  0  0  0  0  0  0  0
   62.8970   31.9220   47.8320 C   0  0  0  0  0  0  0  0  0  0  0  0
   62.2420   33.1020   47.1120 C   0  0  0  0  0  0  0  0  0  0  0  0
   59.0540   32.0250   46.3070 C   0  0  0  0  0  0  0  0  0  0  0  0
   57.9170   29.0210   44.3540 C   0  0  0  0  0  0  0  0  0  0  0  0
   57.7080   27.6460   44.4990 C   0  0  0  0  0  0  0  0  0  0  0  0
   56.2590   23.6300   44.8820 C   0  0  0  0  0  0  0  0  0  0  0  0
   56.4060   23.7080   43.3680 C   0  0  0  0  0  0  0  0  0  0  0  0
   57.5800   23.2620   44.2250 C   0  0  0  0  0  0  0  0  0  0  0  0
   58.0011   27.3958   47.8939 H   0  0  0  0  0  0  0  0  0  0  0  0
   58.3670   29.8474   47.6431 H   0  0  0  0  0  0  0  0  0  0  0  0
   57.2854   31.4152   43.4399 H   0  0  0  0  0  0  0  0  0  0  0  0
   57.6180   33.8697   43.1913 H   0  0  0  0  0  0  0  0  0  0  0  0
   58.8654   35.1502   44.9237 H   0  0  0  0  0  0  0  0  0  0  0  0
   61.9657   34.7914   49.3995 H   0  0  0  0  0  0  0  0  0  0  0  0
   60.3467   34.1082   49.7924 H   0  0  0  0  0  0  0  0  0  0  0  0
   62.3154   33.0267   51.0184 H   0  0  0  0  0  0  0  0  0  0  0  0
   61.2632   31.8947   50.1022 H   0  0  0  0  0  0  0  0  0  0  0  0
   64.2601   31.3131   51.1618 H   0  0  0  0  0  0  0  0  0  0  0  0
   66.5592   30.2477   50.8076 H   0  0  0  0  0  0  0  0  0  0  0  0
   66.8710   31.2885   49.5354 H   0  0  0  0  0  0  0  0  0  0  0  0
   67.5656   31.7075   52.4575 H   0  0  0  0  0  0  0  0  0  0  0  0
   67.9746   32.8748   51.3289 H   0  0  0  0  0  0  0  0  0  0  0  0
   65.4048   32.6981   52.9237 H   0  0  0  0  0  0  0  0  0  0  0  0
   65.6183   33.9470   51.8321 H   0  0  0  0  0  0  0  0  0  0  0  0
   63.8519   31.6787   47.3432 H   0  0  0  0  0  0  0  0  0  0  0  0
   62.2290   31.0492   47.7875 H   0  0  0  0  0  0  0  0  0  0  0  0
   62.9788   33.9099   46.9916 H   0  0  0  0  0  0  0  0  0  0  0  0
   61.8870   32.7710   46.1249 H   0  0  0  0  0  0  0  0  0  0  0  0
   59.4714   31.5023   47.1802 H   0  0  0  0  0  0  0  0  0  0  0  0
   57.9022   29.4729   43.3512 H   0  0  0  0  0  0  0  0  0  0  0  0
   57.5430   27.0225   43.6079 H   0  0  0  0  0  0  0  0  0  0  0  0
   55.5464   23.1363   45.5591 H   0  0  0  0  0  0  0  0  0  0  0  0
   55.8857   22.9814   42.7266 H   0  0  0  0  0  0  0  0  0  0  0  0
   56.2484   24.4896   42.6102 H   0  0  0  0  0  0  0  0  0  0  0  0
   57.9094   22.2127   44.2029 H   0  0  0  0  0  0  0  0  0  0  0  0
   58.6240   23.5877   44.3431 H   0  0  0  0  0  0  0  0  0  0  0  0
  1  2  2  0
  2  3  1  0
  3  4  1  0
  4  5  2  0
  5  6  1  0
  6  7  2  0
  7  8  1  0
  8  9  2  0
  9 10  1  0
 10 11  2  0
 11 12  1  0
 12 13  1  0
 13 14  2  0
 13 15  1  0
 15 16  1  0
 16 17  1  0
 17 18  1  0
 18 19  1  0
 19 20  2  0
 19 21  1  0
 21 22  1  0
 22 23  1  0
 23 24  1  0
 18 25  1  0
 25 26  1  0
 12 27  2  0
  7 28  1  0
 28 29  2  0
  2 30  1  0
 30 31  1  0
 31 32  1  0
 29  4  1  0
 32 30  1  0
 27  8  1  0
 26 15  1  0
 24 21  1  0
  5 33  1  0
  6 34  1  0
  9 35  1  0
 10 36  1  0
 11 37  1  0
 16 38  1  0
 16 39  1  0
 17 40  1  0
 17 41  1  0
 21 42  1  0
 22 43  1  0
 22 44  1  0
 23 45  1  0
 23 46  1  0
 24 47  1  0
 24 48  1  0
 25 49  1  0
 25 50  1  0
 26 51  1  0
 26 52  1  0
 27 53  1  0
 28 54  1  0
 29 55  1  0
 30 56  1  0
 31 57  1  0
 31 58  1  0
 32 59  1  0
 32 60  1  0
M  CHG  1   3  -1
M  END
>  <UniqueID>  (13) 
12

>  <SMILES>  (13) 
O=C([N-]c1ccc(-c2cccc(C(=O)N3CCN(C(=O)C4CCC4)CC3)c2)cc1)C1CC1

>  <Energy>  (13) 
405.1439588987989

>  <Genealogy>  (13) 
O=C([N-]c1ccc(-c2cccc(C(=O)N3CCN(C(=O)C4CCC4)CC3)c2)cc1)C1CC1 (protonated)
O=C([N-]c1ccc(-c2cccc(C(=O)N3CCN(C(=O)C4CCC4)CC3)c2)cc1)C1CC1 (3D coordinates assigned)
O=C([N-]c1ccc(-c2cccc(C(=O)N3CCN(C(=O)C4CCC4)CC3)c2)cc1)C1CC1 (nonaromatic ring conformer: 405.1439588987989 kcal/mol)

>  <smiles>  (13) 
O=C(Nc1ccc(-c2cccc(C(=O)N3CCN(C(=O)C4CCC4)CC3)c2)cc1)C1CC1

>  <score_type>  (13) 
oracle

>  <origin>  (13) 
adg

>  <m_score__min__energy>  (13) 
-11.43

>  <m_primary>  (13) 
energy

$$$$
13:0
     RDKit          3D

 32 33  0  0  0  0  0  0  0  0999 V2000
   62.9610   33.0550   47.3620 O   0  0  0  0  0  0  0  0  0  0  0  0
   61.8350   32.5670   47.0800 C   0  0  0  0  0  0  0  0  0  0  0  0
   60.7840   33.4630   46.4940 C   0  0  0  0  0  0  0  0  0  0  0  0
   59.6990   34.0590   47.7750 Cl  0  0  0  0  0  0  0  0  0  0  0  0
   61.5720   31.1970   47.4150 N   0  0  0  0  0  0  0  0  0  0  0  0
   60.4820   30.3930   46.9470 C   0  0  0  0  0  0  0  0  0  0  0  0
   59.2540   30.3480   47.6310 C   0  0  0  0  0  0  0  0  0  0  0  0
   58.1990   29.5810   47.1320 C   0  0  0  0  0  0  0  0  0  0  0  0
   58.3500   28.8650   45.9380 C   0  0  0  0  0  0  0  0  0  0  0  0
   57.0000   27.9240   45.3050 S   0  0  0  0  0  0  0  0  0  0  0  0
   56.5480   26.9580   46.3640 O   0  0  0  0  0  0  0  0  0  0  0  0
   57.4360   27.1360   44.1020 O   0  0  0  0  0  0  0  0  0  0  0  0
   55.6640   28.9550   44.8750 N   0  0  0  0  0  0  0  0  0  0  0  0
   55.9570   29.7390   43.6740 C   0  0  0  0  0  0  0  0  0  0  0  0
   56.7520   30.9610   44.0130 C   0  0  0  0  0  0  0  0  0  0  0  0
   57.6580   31.5910   43.1840 C   0  0  0  0  0  0  0  0  0  0  0  0
   58.1370   32.6630   43.9070 C   0  0  0  0  0  0  0  0  0  0  0  0
   57.4960   32.6180   45.1290 C   0  0  0  0  0  0  0  0  0  0  0  0
   56.6770   31.5910   45.1630 O   0  0  0  0  0  0  0  0  0  0  0  0
   59.5620   28.9340   45.2380 C   0  0  0  0  0  0  0  0  0  0  0  0
   60.6180   29.7030   45.7370 C   0  0  0  0  0  0  0  0  0  0  0  0
   61.2693   34.3187   46.0018 H   0  0  0  0  0  0  0  0  0  0  0  0
   60.1944   32.8928   45.7610 H   0  0  0  0  0  0  0  0  0  0  0  0
   59.1241   30.9189   48.5622 H   0  0  0  0  0  0  0  0  0  0  0  0
   57.2456   29.5391   47.6790 H   0  0  0  0  0  0  0  0  0  0  0  0
   56.5324   29.1189   42.9709 H   0  0  0  0  0  0  0  0  0  0  0  0
   55.0059   30.0540   43.2199 H   0  0  0  0  0  0  0  0  0  0  0  0
   57.9390   31.2992   42.1613 H   0  0  0  0  0  0  0  0  0  0  0  0
   58.8797   33.4042   43.5769 H   0  0  0  0  0  0  0  0  0  0  0  0
   57.6480   33.3339   45.9502 H   0  0  0  0  0  0  0  0  0  0  0  0
   59.6830   28.3822   44.2941 H   0  0  0  0  0  0  0  0  0  0  0  0
   61.5615   29.7660   45.1750 H   0  0  0  0  0  0  0  0  0  0  0  0
  1  2  2  0
  2  3  1  0
  3  4  1  0
  2  5  1  0
  5  6  1  0
  6  7  2  0
  7  8  1  0
  8  9  2  0
  9 10  1  0
 10 11  2  0
 10 12  2  0
 10 13  1  0
 13 14  1  0
 14 15  1  0
 15 16  2  0
 16 17  1  0
 17 18  2  0
 18 19  1  0
  9 20  1  0
 20 21  2  0
 21  6  1  0
 19 15  1  0
  3 22  1  0
  3 23  1  0
  7 24  1  0
  8 25  1  0
 14 26  1  0
 14 27  1  0
 16 28  1  0
 17 29  1  0
 18 30  1  0
 20 31  1  0
 21 32  1  0
M  CHG  2   5  -1  13  -1
M  END
>  <UniqueID>  (14) 
13

>  <SMILES>  (14) 
O=C(CCl)[N-]c1ccc(S(=O)(=O)[N-]Cc2ccco2)cc1

>  <Energy>  (14) 
59.562755354043034

>  <Genealogy>  (14) 
O=C(CCl)[N-]c1ccc(S(=O)(=O)[N-]Cc2ccco2)cc1 (protonated)
O=C(CCl)[N-]c1ccc(S(=O)(=O)[N-]Cc2ccco2)cc1 (3D coordinates assigned)
O=C(CCl)[N-]c1ccc(S(=O)(=O)[N-]Cc2ccco2)cc1 (optimized conformer: 59.562755354043034 kcal/mol)

>  <smiles>  (14) 
O=C(CCl)Nc1ccc(S(=O)(=O)NCc2ccco2)cc1

>  <score_type>  (14) 
oracle

>  <origin>  (14) 
adg

>  <m_score__min__energy>  (14) 
-9.8499999999999996

>  <m_primary>  (14) 
energy

$$$$
14:0
     RDKit          3D

 51 53  0  0  0  0  0  0  0  0999 V2000
   56.8480   29.2670   43.0850 C   0  0  0  0  0  0  0  0  0  0  0  0
   57.5010   29.4260   44.2470 C   0  0  0  0  0  0  0  0  0  0  0  0
   57.9330   28.4120   45.1160 C   0  0  0  0  0  0  0  0  0  0  0  0
   58.0270   27.0790   44.9420 C   0  0  0  0  0  0  0  0  0  0  0  0
   57.3870   26.0580   45.7880 C   0  0  0  0  0  0  0  0  0  0  0  0
   58.0250   25.0080   46.3390 N   0  0  0  0  0  0  0  0  0  0  0  0
   57.0800   24.4480   47.1270 C   0  0  0  0  0  0  0  0  0  0  0  0
   57.2930   23.4130   47.8090 O   0  0  0  0  0  0  0  0  0  0  0  0
   55.8920   25.0910   47.1320 N   0  0  0  0  0  0  0  0  0  0  0  0
   56.1090   26.1150   46.2910 C   0  0  0  0  0  0  0  0  0  0  0  0
   55.1620   27.0860   45.9930 O   0  0  0  0  0  0  0  0  0  0  0  0
   58.2940   29.0400   46.2940 C   0  0  0  0  0  0  0  0  0  0  0  0
   58.1430   30.3970   46.0900 C   0  0  0  0  0  0  0  0  0  0  0  0
   58.3810   31.4270   47.1220 C   0  0  0  0  0  0  0  0  0  0  0  0
   57.7670   32.5250   47.0350 O   0  0  0  0  0  0  0  0  0  0  0  0
   59.2980   31.2010   48.2140 N   0  0  0  0  0  0  0  0  0  0  0  0
   59.2470   32.0280   49.4250 C   0  0  0  0  0  0  0  0  0  0  0  0
   60.5840   32.7690   49.6330 C   0  0  0  0  0  0  0  0  0  0  0  0
   61.7550   32.0660   49.0360 N   0  0  0  0  0  0  0  0  0  0  0  0
   62.4410   32.7510   47.8850 C   0  0  0  0  0  0  0  0  0  0  0  0
   63.3160   33.9000   48.4410 C   0  0  0  0  0  0  0  0  0  0  0  0
   61.4470   33.3350   46.8490 C   0  0  0  0  0  0  0  0  0  0  0  0
   63.4010   31.7920   47.1380 C   0  0  0  0  0  0  0  0  0  0  0  0
   61.5650   30.5950   48.9880 C   0  0  0  0  0  0  0  0  0  0  0  0
   60.3730   30.2050   48.1040 C   0  0  0  0  0  0  0  0  0  0  0  0
   57.6840   30.6360   44.8390 N   0  0  0  0  0  0  0  0  0  0  0  0
   57.3710   31.9530   44.2710 C   0  0  0  0  0  0  0  0  0  0  0  0
   56.5616   30.1469   42.4902 H   0  0  0  0  0  0  0  0  0  0  0  0
   56.5993   28.2568   42.7276 H   0  0  0  0  0  0  0  0  0  0  0  0
   58.6335   26.7235   44.0960 H   0  0  0  0  0  0  0  0  0  0  0  0
   58.6364   28.5512   47.2180 H   0  0  0  0  0  0  0  0  0  0  0  0
   58.4367   32.7653   49.3255 H   0  0  0  0  0  0  0  0  0  0  0  0
   59.0640   31.3763   50.2921 H   0  0  0  0  0  0  0  0  0  0  0  0
   60.5048   33.7651   49.1730 H   0  0  0  0  0  0  0  0  0  0  0  0
   60.7582   32.8218   50.7178 H   0  0  0  0  0  0  0  0  0  0  0  0
   63.2976   33.8758   49.5406 H   0  0  0  0  0  0  0  0  0  0  0  0
   64.3507   33.7763   48.0888 H   0  0  0  0  0  0  0  0  0  0  0  0
   62.9216   34.8646   48.0888 H   0  0  0  0  0  0  0  0  0  0  0  0
   60.6142   33.8243   47.3753 H   0  0  0  0  0  0  0  0  0  0  0  0
   61.9657   34.0720   46.2182 H   0  0  0  0  0  0  0  0  0  0  0  0
   61.0557   32.5232   46.2182 H   0  0  0  0  0  0  0  0  0  0  0  0
   63.9821   31.2115   47.8697 H   0  0  0  0  0  0  0  0  0  0  0  0
   62.8166   31.1063   46.5069 H   0  0  0  0  0  0  0  0  0  0  0  0
   64.0861   32.3771   46.5069 H   0  0  0  0  0  0  0  0  0  0  0  0
   62.4762   30.1309   48.5827 H   0  0  0  0  0  0  0  0  0  0  0  0
   61.3638   30.2418   50.0101 H   0  0  0  0  0  0  0  0  0  0  0  0
   60.7042   30.1451   47.0568 H   0  0  0  0  0  0  0  0  0  0  0  0
   59.9881   29.2303   48.4384 H   0  0  0  0  0  0  0  0  0  0  0  0
   57.2000   32.6723   45.0854 H   0  0  0  0  0  0  0  0  0  0  0  0
   58.2130   32.2944   43.6510 H   0  0  0  0  0  0  0  0  0  0  0  0
   56.4654   31.8791   43.6510 H   0  0  0  0  0  0  0  0  0  0  0  0
  1  2  2  0
  2  3  1  0
  3  4  2  3
  4  5  1  0
  5  6  1  0
  6  7  1  0
  7  8  2  0
  7  9  1  0
  9 10  1  0
 10 11  1  0
  3 12  1  0
 12 13  2  0
 13 14  1  0
 14 15  2  0
 14 16  1  0
 16 17  1  0
 17 18  1  0
 18 19  1  0
 19 20  1  0
 20 21  1  0
 20 22  1  0
 20 23  1  0
 19 24  1  0
 24 25  1  0
 13 26  1  0
 26 27  1  0
 26  2  1  0
 10  5  2  0
 25 16  1  0
  1 28  1  0
  1 29  1  0
  4 30  1  0
 12 31  1  0
 17 32  1  0
 17 33  1  0
 18 34  1  0
 18 35  1  0
 21 36  1  0
 21 37  1  0
 21 38  1  0
 22 39  1  0
 22 40  1  0
 22 41  1  0
 23 42  1  0
 23 43  1  0
 23 44  1  0
 24 45  1  0
 24 46  1  0
 25 47  1  0
 25 48  1  0
 27 49  1  0
 27 50  1  0
 27 51  1  0
M  CHG  3   6  -1   9  -1  11  -1
M  END
>  <UniqueID>  (15) 
14

>  <SMILES>  (15) 
C=c1c(=Cc2[n-]c(=O)[n-]c2[O-])cc(C(=O)N2CCN(C(C)(C)C)CC2)n1C

>  <Energy>  (15) 
142.0234578668855

>  <Genealogy>  (15) 
C=c1c(=Cc2[n-]c(=O)[n-]c2[O-])cc(C(=O)N2CCN(C(C)(C)C)CC2)n1C (protonated)
C=c1c(=Cc2[n-]c(=O)[n-]c2[O-])cc(C(=O)N2CCN(C(C)(C)C)CC2)n1C (3D coordinates assigned)
C=c1c(=Cc2[n-]c(=O)[n-]c2[O-])cc(C(=O)N2CCN(C(C)(C)C)CC2)n1C (nonaromatic ring conformer: 142.0234578668855 kcal/mol)

>  <smiles>  (15) 
C=c1c(=Cc2[nH]c(=O)[nH]c2O)cc(C(=O)N2CCN(C(C)(C)C)CC2)n1C

>  <score_type>  (15) 
oracle

>  <origin>  (15) 
adg

>  <m_score__min__energy>  (15) 
-16.989999999999998

>  <m_primary>  (15) 
energy

$$$$
15:0
     RDKit          3D

 54 56  0  0  0  0  0  0  0  0999 V2000
   57.3880   33.5210   45.9330 C   0  0  0  0  0  0  0  0  0  0  0  0
   58.2380   32.7070   45.2970 C   0  0  0  0  0  0  0  0  0  0  0  0
   57.7910   31.8140   44.1730 C   0  0  0  0  0  0  0  0  0  0  0  0
   56.5010   31.2100   44.4980 N   0  0  0  0  0  0  0  0  0  0  0  0
   56.2750   29.7930   44.5230 C   0  0  0  0  0  0  0  0  0  0  0  0
   55.1290   29.3320   44.7950 O   0  0  0  0  0  0  0  0  0  0  0  0
   57.4080   28.8550   44.2170 C   0  0  0  0  0  0  0  0  0  0  0  0
   58.2280   28.5860   45.4510 C   0  0  0  0  0  0  0  0  0  0  0  0
   59.4610   29.2340   45.6320 C   0  0  0  0  0  0  0  0  0  0  0  0
   60.2170   29.0040   46.7830 C   0  0  0  0  0  0  0  0  0  0  0  0
   59.7510   28.1210   47.7750 C   0  0  0  0  0  0  0  0  0  0  0  0
   60.4890   27.8660   48.9790 N   0  0  0  0  0  0  0  0  0  0  0  0
   60.7120   28.9950   50.2740 S   0  0  0  0  0  0  0  0  0  0  0  0
   62.1730   29.0670   50.6210 O   0  0  0  0  0  0  0  0  0  0  0  0
   59.9560   28.5070   51.4780 O   0  0  0  0  0  0  0  0  0  0  0  0
   60.1590   30.6060   49.7920 C   0  0  0  0  0  0  0  0  0  0  0  0
   58.9200   31.0650   50.2690 C   0  0  0  0  0  0  0  0  0  0  0  0
   58.4290   32.3120   49.8840 C   0  0  0  0  0  0  0  0  0  0  0  0
   59.1690   33.1230   49.0270 C   0  0  0  0  0  0  0  0  0  0  0  0
   60.4210   32.6990   48.5530 C   0  0  0  0  0  0  0  0  0  0  0  0
   60.9180   31.4280   48.9220 C   0  0  0  0  0  0  0  0  0  0  0  0
   62.2160   31.0180   48.4440 N   0  0  0  0  0  0  0  0  0  0  0  0
   62.8870   31.7380   47.3600 C   0  0  0  0  0  0  0  0  0  0  0  0
   62.7030   33.2640   47.5330 C   0  0  0  0  0  0  0  0  0  0  0  0
   63.3340   33.9900   46.3280 C   0  0  0  0  0  0  0  0  0  0  0  0
   63.4050   33.7500   48.8240 C   0  0  0  0  0  0  0  0  0  0  0  0
   61.1830   33.5810   47.5870 C   0  0  0  0  0  0  0  0  0  0  0  0
   58.5300   27.4660   47.5880 C   0  0  0  0  0  0  0  0  0  0  0  0
   57.7660   27.7030   46.4410 C   0  0  0  0  0  0  0  0  0  0  0  0
   57.7482   34.1616   46.7515 H   0  0  0  0  0  0  0  0  0  0  0  0
   56.3288   33.5498   45.6375 H   0  0  0  0  0  0  0  0  0  0  0  0
   59.2938   32.6905   45.6051 H   0  0  0  0  0  0  0  0  0  0  0  0
   57.6935   32.4081   43.2524 H   0  0  0  0  0  0  0  0  0  0  0  0
   58.5358   31.0180   44.0260 H   0  0  0  0  0  0  0  0  0  0  0  0
   56.9987   27.9054   43.8420 H   0  0  0  0  0  0  0  0  0  0  0  0
   58.0550   29.3194   43.4582 H   0  0  0  0  0  0  0  0  0  0  0  0
   59.8330   29.9265   44.8626 H   0  0  0  0  0  0  0  0  0  0  0  0
   61.1818   29.5155   46.9152 H   0  0  0  0  0  0  0  0  0  0  0  0
   58.3318   30.4350   50.9524 H   0  0  0  0  0  0  0  0  0  0  0  0
   57.4537   32.6564   50.2585 H   0  0  0  0  0  0  0  0  0  0  0  0
   58.7705   34.1011   48.7197 H   0  0  0  0  0  0  0  0  0  0  0  0
   62.7500   30.2610   48.9320 H   0  0  0  0  0  0  0  0  0  0  0  0
   63.9604   31.4981   47.3753 H   0  0  0  0  0  0  0  0  0  0  0  0
   62.4454   31.4314   46.4003 H   0  0  0  0  0  0  0  0  0  0  0  0
   64.0158   34.7744   46.6884 H   0  0  0  0  0  0  0  0  0  0  0  0
   63.8961   33.2676   45.7179 H   0  0  0  0  0  0  0  0  0  0  0  0
   62.5403   34.4460   45.7179 H   0  0  0  0  0  0  0  0  0  0  0  0
   62.8601   33.3727   49.7019 H   0  0  0  0  0  0  0  0  0  0  0  0
   64.4381   33.3729   48.8438 H   0  0  0  0  0  0  0  0  0  0  0  0
   63.4157   34.8498   48.8438 H   0  0  0  0  0  0  0  0  0  0  0  0
   61.0557   34.6289   47.8963 H   0  0  0  0  0  0  0  0  0  0  0  0
   60.7752   33.3926   46.5829 H   0  0  0  0  0  0  0  0  0  0  0  0
   58.1677   26.7590   48.3488 H   0  0  0  0  0  0  0  0  0  0  0  0
   56.7985   27.1955   46.3134 H   0  0  0  0  0  0  0  0  0  0  0  0
  1  2  2  0
  2  3  1  0
  3  4  1  0
  4  5  1  0
  5  6  2  0
  5  7  1  0
  7  8  1  0
  8  9  2  0
  9 10  1  0
 10 11  2  0
 11 12  1  0
 12 13  1  0
 13 14  2  0
 13 15  2  0
 13 16  1  0
 16 17  2  0
 17 18  1  0
 18 19  2  0
 19 20  1  0
 20 21  2  0
 21 22  1  0
 22 23  1  0
 23 24  1  0
 24 25  1  0
 24 26  1  0
 24 27  1  0
 11 28  1  0
 28 29  2  0
 29  8  1  0
 21 16  1  0
 27 20  1  0
  1 30  1  0
  1 31  1  0
  2 32  1  0
  3 33  1  0
  3 34  1  0
  7 35  1  0
  7 36  1  0
  9 37  1  0
 10 38  1  0
 17 39  1  0
 18 40  1  0
 19 41  1  0
 22 42  1  0
 23 43  1  0
 23 44  1  0
 25 45  1  0
 25 46  1  0
 25 47  1  0
 26 48  1  0
 26 49  1  0
 26 50  1  0
 27 51  1  0
 27 52  1  0
 28 53  1  0
 29 54  1  0
M  CHG  2   4  -1  12  -1
M  END
>  <UniqueID>  (16) 
15

>  <SMILES>  (16) 
C=CC[N-]C(=O)Cc1ccc([N-]S(=O)(=O)c2cccc3c2NCC(C)(C)C3)cc1

>  <Energy>  (16) 
52.29785573892395

>  <Genealogy>  (16) 
C=CC[N-]C(=O)Cc1ccc([N-]S(=O)(=O)c2cccc3c2NCC(C)(C)C3)cc1 (protonated)
C=CC[N-]C(=O)Cc1ccc([N-]S(=O)(=O)c2cccc3c2NCC(C)(C)C3)cc1 (3D coordinates assigned)
C=CC[N-]C(=O)Cc1ccc([N-]S(=O)(=O)c2cccc3c2NCC(C)(C)C3)cc1 (nonaromatic ring conformer: 52.29785573892395 kcal/mol)

>  <smiles>  (16) 
C=CCNC(=O)Cc1ccc(NS(=O)(=O)c2cccc3c2NCC(C)(C)C3)cc1

>  <score_type>  (16) 
oracle

>  <origin>  (16) 
adg

>  <m_score__min__energy>  (16) 
-11.85

>  <m_primary>  (16) 
energy

$$$$
16:0
     RDKit          3D

 41 43  0  0  0  0  0  0  0  0999 V2000
   64.6278   33.9913   46.5135 H   0  0  0  0  0  0  0  0  0  0  0  0
   63.7660   33.5090   46.9980 C   0  0  0  0  0  0  0  0  0  0  0  0
   63.2308   32.6960   46.4855 H   0  0  0  0  0  0  0  0  0  0  0  0
   63.3690   33.9110   48.2100 C   0  0  0  0  0  0  0  0  0  0  0  0
   63.9167   34.7254   48.7068 H   0  0  0  0  0  0  0  0  0  0  0  0
   62.1900   33.2810   48.9200 C   0  0  2  0  0  0  0  0  0  0  0  0
   62.5610   32.9940   50.3800 C   0  0  0  0  0  0  0  0  0  0  0  0
   61.8687   33.5295   51.0463 H   0  0  0  0  0  0  0  0  0  0  0  0
   62.4907   31.9129   50.5705 H   0  0  0  0  0  0  0  0  0  0  0  0
   63.5897   33.3337   50.5705 H   0  0  0  0  0  0  0  0  0  0  0  0
   61.8810   32.0270   48.2900 O   0  0  0  0  0  0  0  0  0  0  0  0
   60.7760   31.8240   47.4570 C   0  0  0  0  0  0  0  0  0  0  0  0
   60.6610   30.6340   46.7360 C   0  0  0  0  0  0  0  0  0  0  0  0
   61.4402   29.8623   46.8218 H   0  0  0  0  0  0  0  0  0  0  0  0
   59.5580   30.4220   45.9060 C   0  0  0  0  0  0  0  0  0  0  0  0
   59.4798   29.4880   45.3302 H   0  0  0  0  0  0  0  0  0  0  0  0
   58.5490   31.3910   45.8010 C   0  0  0  0  0  0  0  0  0  0  0  0
   57.3930   31.1360   44.9110 C   0  0  0  0  0  0  0  0  0  0  0  0
   56.5880   32.0760   44.6790 O   0  0  0  0  0  0  0  0  0  0  0  0
   57.1440   29.8260   44.2730 C   0  0  0  0  0  0  0  0  0  0  0  0
   57.5969   29.6248   43.2910 H   0  0  0  0  0  0  0  0  0  0  0  0
   56.3900   28.8720   44.8390 C   0  0  0  0  0  0  0  0  0  0  0  0
   55.3000   29.0159   44.8750 H   0  0  0  0  0  0  0  0  0  0  0  0
   56.9590   27.6350   45.4170 C   0  0  0  0  0  0  0  0  0  0  0  0
   58.3510   27.4540   45.3590 C   0  0  0  0  0  0  0  0  0  0  0  0
   58.9827   28.2237   44.8915 H   0  0  0  0  0  0  0  0  0  0  0  0
   58.9390   26.3030   45.8910 C   0  0  0  0  0  0  0  0  0  0  0  0
   60.0307   26.1750   45.8497 H   0  0  0  0  0  0  0  0  0  0  0  0
   58.1430   25.3150   46.4750 C   0  0  0  0  0  0  0  0  0  0  0  0
   58.6084   24.4149   46.9031 H   0  0  0  0  0  0  0  0  0  0  0  0
   56.7550   25.4710   46.5150 C   0  0  0  0  0  0  0  0  0  0  0  0
   56.1295   24.6888   46.9698 H   0  0  0  0  0  0  0  0  0  0  0  0
   56.1570   26.6160   45.9800 C   0  0  0  0  0  0  0  0  0  0  0  0
   54.7700   26.7130   45.9830 O   0  0  0  0  0  0  0  0  0  0  0  0
   58.6770   32.6030   46.5130 C   0  0  0  0  0  0  0  0  0  0  0  0
   57.7160   33.6020   46.3750 O   0  0  0  0  0  0  0  0  0  0  0  0
   59.7870   32.8100   47.3510 C   0  0  0  0  0  0  0  0  0  0  0  0
   59.9360   34.0410   48.1460 C   0  0  0  0  0  0  0  0  0  0  0  0
   59.1411   34.8009   48.1211 H   0  0  0  0  0  0  0  0  0  0  0  0
   61.0200   34.2490   48.8960 C   0  0  0  0  0  0  0  0  0  0  0  0
   61.0678   35.1541   49.5193 H   0  0  0  0  0  0  0  0  0  0  0  0
  1  2  1  0
  2  3  1  0
  2  4  2  0
  4  5  1  0
  4  6  1  0
  6  7  1  1
  7  8  1  0
  7  9  1  0
  7 10  1  0
  6 11  1  0
 11 12  1  0
 12 13  2  0
 13 14  1  0
 13 15  1  0
 15 16  1  0
 15 17  2  0
 17 18  1  0
 18 19  2  0
 18 20  1  0
 20 21  1  0
 20 22  2  0
 22 23  1  0
 22 24  1  0
 24 25  2  0
 25 26  1  0
 25 27  1  0
 27 28  1  0
 27 29  2  0
 29 30  1  0
 29 31  1  0
 31 32  1  0
 31 33  2  0
 33 34  1  0
 17 35  1  0
 35 36  1  0
 35 37  2  0
 37 38  1  0
 38 39  1  0
 38 40  2  0
 40 41  1  0
 40  6  1  0
 37 12  1  0
 33 24  1  0
M  CHG  2  34  -1  36  -1
M  END
>  <UniqueID>  (17) 
16

>  <SMILES>  (17) 
C=C[C@@]1(C)C=Cc2c(ccc(C(=O)/C=C/c3ccccc3[O-])c2[O-])O1

>  <Energy>  (17) 
53.86784721477107

>  <Genealogy>  (17) 
C=CC1(C)C=Cc2c(ccc(C(=O)C=Cc3ccccc3[O-])c2[O-])O1 (protonated)
C=C[C@@]1(C)C=Cc2c(ccc(C(=O)C=Cc3ccccc3[O-])c2[O-])O1 (chirality)
C=C[C@@]1(C)C=Cc2c(ccc(C(=O)/C=C/c3ccccc3[O-])c2[O-])O1 (cis-trans isomerization)
C=C[C@@]1(C)C=Cc2c(ccc(C(=O)/C=C/c3ccccc3[O-])c2[O-])O1 (3D coordinates assigned)
C=C[C@@]1(C)C=Cc2c(ccc(C(=O)/C=C/c3ccccc3[O-])c2[O-])O1 (nonaromatic ring conformer: 53.86784721477107 kcal/mol)

>  <smiles>  (17) 
C=CC1(C)C=Cc2c(ccc(C(=O)C=Cc3ccccc3O)c2O)O1

>  <score_type>  (17) 
oracle

>  <origin>  (17) 
adg

>  <m_score__min__energy>  (17) 
-13.81

>  <m_primary>  (17) 
energy

$$$$
17:0
     RDKit          3D

 52 55  0  0  0  0  0  0  0  0999 V2000
   54.7650   26.7220   44.9960 H   0  0  0  0  0  0  0  0  0  0  0  0
   54.8870   26.3010   45.9440 N   0  0  0  0  0  0  0  0  0  0  0  0
   56.1770   26.1970   46.5390 C   0  0  0  0  0  0  0  0  0  0  0  0
   56.5130   25.1320   47.1240 O   0  0  0  0  0  0  0  0  0  0  0  0
   57.1110   27.3260   46.4680 C   0  0  0  0  0  0  0  0  0  0  0  0
   56.9600   28.3720   45.6290 N   0  0  0  0  0  0  0  0  0  0  0  0
   57.9790   29.1990   45.8190 N   0  0  0  0  0  0  0  0  0  0  0  0
   57.9940   30.5050   45.2300 C   0  0  0  0  0  0  0  0  0  0  0  0
   58.1320   31.6480   46.0330 C   0  0  0  0  0  0  0  0  0  0  0  0
   58.2814   31.5420   47.1176 H   0  0  0  0  0  0  0  0  0  0  0  0
   58.0800   32.9210   45.4570 C   0  0  0  0  0  0  0  0  0  0  0  0
   58.1863   33.8149   46.0892 H   0  0  0  0  0  0  0  0  0  0  0  0
   57.8930   33.0590   44.0780 C   0  0  0  0  0  0  0  0  0  0  0  0
   57.8695   34.0606   43.6238 H   0  0  0  0  0  0  0  0  0  0  0  0
   57.7360   31.9250   43.2770 C   0  0  0  0  0  0  0  0  0  0  0  0
   57.5855   32.0345   42.1929 H   0  0  0  0  0  0  0  0  0  0  0  0
   57.7700   30.6520   43.8520 C   0  0  0  0  0  0  0  0  0  0  0  0
   57.6208   29.7621   43.2229 H   0  0  0  0  0  0  0  0  0  0  0  0
   58.7870   28.6750   46.7780 C   0  0  0  0  0  0  0  0  0  0  0  0
   59.9360   29.1380   47.1870 N   0  0  0  0  0  0  0  0  0  0  0  0
   60.3500   29.5050   48.5120 C   0  0  0  0  0  0  0  0  0  0  0  0
   61.2350   28.8030   49.0680 O   0  0  0  0  0  0  0  0  0  0  0  0
   59.8890   30.7700   49.1570 C   0  0  0  0  0  0  0  0  0  0  0  0
   58.6820   30.7570   49.8830 C   0  0  0  0  0  0  0  0  0  0  0  0
   58.0963   29.8274   49.9372 H   0  0  0  0  0  0  0  0  0  0  0  0
   58.2120   31.9020   50.5370 C   0  0  0  0  0  0  0  0  0  0  0  0
   57.0050   31.8210   51.3170 N   0  0  0  0  0  0  0  0  0  0  0  0
   56.5500   32.7160   51.6070 H   0  0  0  0  0  0  0  0  0  0  0  0
   56.4670   30.5930   51.8340 C   0  0  0  0  0  0  0  0  0  0  0  0
   57.2270   29.6030   52.0110 O   0  0  0  0  0  0  0  0  0  0  0  0
   55.0350   30.4910   52.2080 C   0  0  0  0  0  0  0  0  0  0  0  0
   54.6390   29.6600   53.2740 C   0  0  0  0  0  0  0  0  0  0  0  0
   55.3959   29.0889   53.8316 H   0  0  0  0  0  0  0  0  0  0  0  0
   53.2920   29.5560   53.6280 C   0  0  0  0  0  0  0  0  0  0  0  0
   52.9935   28.9091   54.4661 H   0  0  0  0  0  0  0  0  0  0  0  0
   52.3230   30.2710   52.9210 C   0  0  0  0  0  0  0  0  0  0  0  0
   51.2631   30.1890   53.2036 H   0  0  0  0  0  0  0  0  0  0  0  0
   52.7010   31.0910   51.8540 C   0  0  0  0  0  0  0  0  0  0  0  0
   51.4810   31.9780   50.9570 Cl  0  0  0  0  0  0  0  0  0  0  0  0
   54.0490   31.1990   51.4960 C   0  0  0  0  0  0  0  0  0  0  0  0
   54.3403   31.8417   50.6522 H   0  0  0  0  0  0  0  0  0  0  0  0
   58.9600   33.0830   50.4700 C   0  0  0  0  0  0  0  0  0  0  0  0
   58.6145   33.9801   51.0046 H   0  0  0  0  0  0  0  0  0  0  0  0
   60.1400   33.1290   49.7300 C   0  0  0  0  0  0  0  0  0  0  0  0
   60.7014   34.0725   49.6620 H   0  0  0  0  0  0  0  0  0  0  0  0
   60.6220   31.9870   49.0700 C   0  0  0  0  0  0  0  0  0  0  0  0
   61.9000   32.1070   48.2790 C   0  0  0  0  0  0  0  0  0  0  0  0
   62.7525   32.1870   48.9696 H   0  0  0  0  0  0  0  0  0  0  0  0
   62.0239   31.2165   47.6452 H   0  0  0  0  0  0  0  0  0  0  0  0
   61.8560   33.0050   47.6452 H   0  0  0  0  0  0  0  0  0  0  0  0
   58.2500   27.4920   47.2330 C   0  0  0  0  0  0  0  0  0  0  0  0
   58.6377   26.8316   48.0227 H   0  0  0  0  0  0  0  0  0  0  0  0
  1  2  1  0
  2  3  1  0
  3  4  2  0
  3  5  1  0
  5  6  1  0
  6  7  1  0
  7  8  1  0
  8  9  2  0
  9 10  1  0
  9 11  1  0
 11 12  1  0
 11 13  2  0
 13 14  1  0
 13 15  1  0
 15 16  1  0
 15 17  2  0
 17 18  1  0
  7 19  1  0
 19 20  2  0
 20 21  1  0
 21 22  2  0
 21 23  1  0
 23 24  2  0
 24 25  1  0
 24 26  1  0
 26 27  1  0
 27 28  1  0
 27 29  1  0
 29 30  2  0
 29 31  1  0
 31 32  2  0
 32 33  1  0
 32 34  1  0
 34 35  1  0
 34 36  2  0
 36 37  1  0
 36 38  1  0
 38 39  1  0
 38 40  2  0
 40 41  1  0
 26 42  2  0
 42 43  1  0
 42 44  1  0
 44 45  1  0
 44 46  2  0
 46 47  1  0
 47 48  1  0
 47 49  1  0
 47 50  1  0
 19 51  1  0
 51 52  1  0
 51  5  2  0
 17  8  1  0
 46 23  1  0
 40 31  1  0
M  CHG  2   2  -1   6  -1
M  END
>  <UniqueID>  (18) 
17

>  <SMILES>  (18) 
Cc1ccc(NC(=O)c2cccc(Cl)c2)cc1C(=O)/N=c1/cc(C([NH-])=O)[n-]n1-c1ccccc1

>  <Energy>  (18) 
109.49714977103403

>  <Genealogy>  (18) 
Cc1ccc(NC(=O)c2cccc(Cl)c2)cc1C(=O)N=c1cc(C([NH-])=O)[n-]n1-c1ccccc1 (protonated)
Cc1ccc(NC(=O)c2cccc(Cl)c2)cc1C(=O)/N=c1/cc(C([NH-])=O)[n-]n1-c1ccccc1 (cis-trans isomerization)
Cc1ccc(NC(=O)c2cccc(Cl)c2)cc1C(=O)/N=c1/cc(C([NH-])=O)[n-]n1-c1ccccc1 (3D coordinates assigned)
Cc1ccc(NC(=O)c2cccc(Cl)c2)cc1C(=O)/N=c1/cc(C([NH-])=O)[n-]n1-c1ccccc1 (optimized conformer: 109.49714977103403 kcal/mol)

>  <smiles>  (18) 
Cc1ccc(NC(=O)c2cccc(Cl)c2)cc1C(=O)N=c1cc(C(N)=O)[nH]n1-c1ccccc1

>  <score_type>  (18) 
oracle

>  <origin>  (18) 
adg

>  <m_score__min__energy>  (18) 
-15.210000000000001

>  <m_primary>  (18) 
energy

$$$$
18:0
     RDKit          3D

 56 59  0  0  0  0  0  0  0  0999 V2000
   59.7372   35.7757   48.8280 H   0  0  0  0  0  0  0  0  0  0  0  0
   59.8230   34.6960   48.6360 C   0  0  0  0  0  0  0  0  0  0  0  0
   60.3990   33.9380   49.5940 C   0  0  0  0  0  0  0  0  0  0  0  0
   59.6110   33.3080   50.6830 C   0  0  0  0  0  0  0  0  0  0  0  0
   59.2420   33.9970   51.6740 O   0  0  0  0  0  0  0  0  0  0  0  0
   59.2670   31.9160   50.6020 N   0  0  0  0  0  0  0  0  0  0  0  0
   59.8330   31.3130   49.9640 H   0  0  0  0  0  0  0  0  0  0  0  0
   58.2780   31.2860   51.4360 C   0  0  0  0  0  0  0  0  0  0  0  0
   57.0270   31.8880   51.6590 C   0  0  0  0  0  0  0  0  0  0  0  0
   56.8013   32.8651   51.2070 H   0  0  0  0  0  0  0  0  0  0  0  0
   56.0680   31.2500   52.4530 C   0  0  0  0  0  0  0  0  0  0  0  0
   55.0947   31.7305   52.6316 H   0  0  0  0  0  0  0  0  0  0  0  0
   56.3450   30.0040   53.0190 C   0  0  0  0  0  0  0  0  0  0  0  0
   55.4120   29.3920   53.7890 F   0  0  0  0  0  0  0  0  0  0  0  0
   57.5790   29.3890   52.7880 C   0  0  0  0  0  0  0  0  0  0  0  0
   57.8440   28.1790   53.3420 F   0  0  0  0  0  0  0  0  0  0  0  0
   58.5400   30.0230   51.9930 C   0  0  0  0  0  0  0  0  0  0  0  0
   59.7350   29.4150   51.7810 F   0  0  0  0  0  0  0  0  0  0  0  0
   61.8570   33.6510   49.5210 C   0  0  0  0  0  0  0  0  0  0  0  0
   62.6710   33.7600   50.6650 C   0  0  0  0  0  0  0  0  0  0  0  0
   62.2281   34.0655   51.6244 H   0  0  0  0  0  0  0  0  0  0  0  0
   64.0390   33.4820   50.5880 C   0  0  0  0  0  0  0  0  0  0  0  0
   64.6684   33.5712   51.4858 H   0  0  0  0  0  0  0  0  0  0  0  0
   64.6090   33.0910   49.3730 C   0  0  0  0  0  0  0  0  0  0  0  0
   65.6854   32.8718   49.3152 H   0  0  0  0  0  0  0  0  0  0  0  0
   63.8110   32.9790   48.2330 C   0  0  0  0  0  0  0  0  0  0  0  0
   64.2604   32.6726   47.2769 H   0  0  0  0  0  0  0  0  0  0  0  0
   62.4430   33.2550   48.3030 C   0  0  0  0  0  0  0  0  0  0  0  0
   61.8199   33.1624   47.4013 H   0  0  0  0  0  0  0  0  0  0  0  0
   59.2980   34.1890   47.3480 C   0  0  0  0  0  0  0  0  0  0  0  0
   59.9600   34.5150   46.1610 C   0  0  0  0  0  0  0  0  0  0  0  0
   60.8778   35.1207   46.1892 H   0  0  0  0  0  0  0  0  0  0  0  0
   59.4520   34.0690   44.9390 C   0  0  0  0  0  0  0  0  0  0  0  0
   59.9863   34.3061   44.0072 H   0  0  0  0  0  0  0  0  0  0  0  0
   58.2960   33.3400   44.8910 N   0  0  0  0  0  0  0  0  0  0  0  0
   57.7880   32.8540   43.6020 C   0  0  0  0  0  0  0  0  0  0  0  0
   58.4954   33.1283   42.8055 H   0  0  0  0  0  0  0  0  0  0  0  0
   56.8072   33.3120   43.4061 H   0  0  0  0  0  0  0  0  0  0  0  0
   57.6340   31.3570   43.6370 C   0  0  0  0  0  0  0  0  0  0  0  0
   56.6640   30.7330   42.8370 C   0  0  0  0  0  0  0  0  0  0  0  0
   55.9940   31.3419   42.2122 H   0  0  0  0  0  0  0  0  0  0  0  0
   56.5470   29.3410   42.8320 C   0  0  0  0  0  0  0  0  0  0  0  0
   55.7853   28.8570   42.2030 H   0  0  0  0  0  0  0  0  0  0  0  0
   57.3950   28.5610   43.6240 C   0  0  0  0  0  0  0  0  0  0  0  0
   57.3014   27.4650   43.6136 H   0  0  0  0  0  0  0  0  0  0  0  0
   58.3650   29.1730   44.4320 C   0  0  0  0  0  0  0  0  0  0  0  0
   59.3020   28.3430   45.2610 C   0  0  0  0  0  0  0  0  0  0  0  0
   59.1022   28.5200   46.3281 H   0  0  0  0  0  0  0  0  0  0  0  0
   59.1496   27.2781   45.0311 H   0  0  0  0  0  0  0  0  0  0  0  0
   60.3407   28.6228   45.0311 H   0  0  0  0  0  0  0  0  0  0  0  0
   58.4920   30.5700   44.4220 C   0  0  0  0  0  0  0  0  0  0  0  0
   59.2690   31.0522   45.0333 H   0  0  0  0  0  0  0  0  0  0  0  0
   57.6230   33.0310   46.0410 C   0  0  0  0  0  0  0  0  0  0  0  0
   56.6963   32.4407   45.9889 H   0  0  0  0  0  0  0  0  0  0  0  0
   58.1030   33.4590   47.2810 C   0  0  0  0  0  0  0  0  0  0  0  0
   57.5462   33.2245   48.2002 H   0  0  0  0  0  0  0  0  0  0  0  0
  1  2  1  0
  2  3  2  0
  3  4  1  0
  4  5  2  0
  4  6  1  0
  6  7  1  0
  6  8  1  0
  8  9  2  0
  9 10  1  0
  9 11  1  0
 11 12  1  0
 11 13  2  0
 13 14  1  0
 13 15  1  0
 15 16  1  0
 15 17  2  0
 17 18  1  0
  3 19  1  0
 19 20  2  0
 20 21  1  0
 20 22  1  0
 22 23  1  0
 22 24  2  0
 24 25  1  0
 24 26  1  0
 26 27  1  0
 26 28  2  0
 28 29  1  0
  2 30  1  0
 30 31  2  0
 31 32  1  0
 31 33  1  0
 33 34  1  0
 33 35  2  0
 35 36  1  0
 36 37  1  0
 36 38  1  0
 36 39  1  0
 39 40  2  0
 40 41  1  0
 40 42  1  0
 42 43  1  0
 42 44  2  0
 44 45  1  0
 44 46  1  0
 46 47  1  0
 47 48  1  0
 47 49  1  0
 47 50  1  0
 46 51  2  0
 51 52  1  0
 35 53  1  0
 53 54  1  0
 53 55  2  0
 55 56  1  0
 17  8  1  0
 28 19  1  0
 55 30  1  0
 51 39  1  0
M  CHG  1  35   1
M  END
>  <UniqueID>  (19) 
18

>  <SMILES>  (19) 
Cc1cccc(C[n+]2ccc(/C=C(\C(=O)Nc3ccc(F)c(F)c3F)c3ccccc3)cc2)c1

>  <Energy>  (19) 
76.97703525708948

>  <Genealogy>  (19) 
Cc1cccc(C[n+]2ccc(/C=C(\C(=O)Nc3ccc(F)c(F)c3F)c3ccccc3)cc2)c1 (cis-trans isomerization)
Cc1cccc(C[n+]2ccc(/C=C(\C(=O)Nc3ccc(F)c(F)c3F)c3ccccc3)cc2)c1 (3D coordinates assigned)
Cc1cccc(C[n+]2ccc(/C=C(\C(=O)Nc3ccc(F)c(F)c3F)c3ccccc3)cc2)c1 (optimized conformer: 76.97703525708948 kcal/mol)

>  <smiles>  (19) 
Cc1cccc(C[n+]2ccc(C=C(C(=O)Nc3ccc(F)c(F)c3F)c3ccccc3)cc2)c1

>  <score_type>  (19) 
oracle

>  <origin>  (19) 
adg

>  <m_score__min__energy>  (19) 
-7.5899999999999999

>  <m_primary>  (19) 
energy

$$$$
19:0
     RDKit          3D

 49 52  0  0  0  0  0  0  0  0999 V2000
   49.9040   31.7640   54.2520 C   0  0  0  0  0  0  0  0  0  0  0  0
   51.1780   32.0310   53.9720 C   0  0  0  0  0  0  0  0  0  0  0  0
   51.9380   31.2620   52.9580 C   0  0  0  0  0  0  0  0  0  0  0  0
   51.6140   31.4610   51.6030 C   0  0  0  0  0  0  0  0  0  0  0  0
   50.5880   32.3300   51.2410 O   0  0  0  0  0  0  0  0  0  0  0  0
   52.3260   30.8050   50.5990 C   0  0  0  0  0  0  0  0  0  0  0  0
   53.3670   29.9390   50.9240 C   0  0  0  0  0  0  0  0  0  0  0  0
   53.6930   29.6950   52.2650 C   0  0  0  0  0  0  0  0  0  0  0  0
   54.7250   28.7980   52.5790 C   0  0  0  0  0  0  0  0  0  0  0  0
   55.0430   28.5110   53.9170 C   0  0  0  0  0  0  0  0  0  0  0  0
   56.1330   27.5560   54.2460 C   0  0  0  0  0  0  0  0  0  0  0  0
   55.8740   26.4150   55.0140 C   0  0  0  0  0  0  0  0  0  0  0  0
   56.8720   25.5460   55.3090 N   0  0  0  0  0  0  0  0  0  0  0  0
   58.1480   25.7430   54.8820 C   0  0  0  0  0  0  0  0  0  0  0  0
   58.4880   26.8760   54.1070 C   0  0  0  0  0  0  0  0  0  0  0  0
   59.8580   27.1000   53.6410 N   0  0  0  0  0  0  0  0  0  0  0  0
   60.4800   28.4240   53.8660 C   0  0  0  0  0  0  0  0  0  0  0  0
   61.8850   28.5910   53.2700 C   0  0  0  0  0  0  0  0  0  0  0  0
   62.6830   27.3620   53.3230 N   0  0  0  0  0  0  0  0  0  0  0  0
   63.0180   26.9510   54.6970 C   0  0  0  0  0  0  0  0  0  0  0  0
   62.0150   26.3050   52.5560 C   0  0  0  0  0  0  0  0  0  0  0  0
   60.6230   25.9540   53.1010 C   0  0  0  0  0  0  0  0  0  0  0  0
   57.4440   27.7760   53.7940 C   0  0  0  0  0  0  0  0  0  0  0  0
   54.3070   29.1280   54.9390 C   0  0  0  0  0  0  0  0  0  0  0  0
   53.2810   30.0260   54.6380 C   0  0  0  0  0  0  0  0  0  0  0  0
   52.9700   30.3450   53.3000 C   0  0  0  0  0  0  0  0  0  0  0  0
   49.3719   32.3562   55.0110 H   0  0  0  0  0  0  0  0  0  0  0  0
   49.3836   30.9512   53.7243 H   0  0  0  0  0  0  0  0  0  0  0  0
   51.6821   32.8475   54.5098 H   0  0  0  0  0  0  0  0  0  0  0  0
   52.0636   30.9727   49.5440 H   0  0  0  0  0  0  0  0  0  0  0  0
   53.9365   29.4437   50.1238 H   0  0  0  0  0  0  0  0  0  0  0  0
   55.2910   28.3144   51.7692 H   0  0  0  0  0  0  0  0  0  0  0  0
   54.8549   26.2222   55.3804 H   0  0  0  0  0  0  0  0  0  0  0  0
   56.6540   24.7000   55.8830 H   0  0  0  0  0  0  0  0  0  0  0  0
   58.9264   25.0109   55.1430 H   0  0  0  0  0  0  0  0  0  0  0  0
   59.8269   29.1881   53.4193 H   0  0  0  0  0  0  0  0  0  0  0  0
   60.5938   28.5289   54.9551 H   0  0  0  0  0  0  0  0  0  0  0  0
   61.7848   28.8981   52.2185 H   0  0  0  0  0  0  0  0  0  0  0  0
   62.4086   29.3479   53.8725 H   0  0  0  0  0  0  0  0  0  0  0  0
   62.4901   27.5986   55.4125 H   0  0  0  0  0  0  0  0  0  0  0  0
   62.7109   25.9062   54.8524 H   0  0  0  0  0  0  0  0  0  0  0  0
   64.1032   27.0411   54.8524 H   0  0  0  0  0  0  0  0  0  0  0  0
   61.9084   26.6422   51.5144 H   0  0  0  0  0  0  0  0  0  0  0  0
   62.6358   25.4003   52.6343 H   0  0  0  0  0  0  0  0  0  0  0  0
   60.0383   25.5079   52.2830 H   0  0  0  0  0  0  0  0  0  0  0  0
   60.7862   25.2671   53.9445 H   0  0  0  0  0  0  0  0  0  0  0  0
   57.6627   28.6655   53.1849 H   0  0  0  0  0  0  0  0  0  0  0  0
   54.5407   28.9019   55.9898 H   0  0  0  0  0  0  0  0  0  0  0  0
   52.7084   30.4902   55.4544 H   0  0  0  0  0  0  0  0  0  0  0  0
  1  2  2  0
  2  3  1  0
  3  4  2  0
  4  5  1  0
  4  6  1  0
  6  7  2  0
  7  8  1  0
  8  9  2  0
  9 10  1  0
 10 11  1  0
 11 12  2  0
 12 13  1  0
 13 14  2  0
 14 15  1  0
 15 16  1  0
 16 17  1  0
 17 18  1  0
 18 19  1  0
 19 20  1  0
 19 21  1  0
 21 22  1  0
 15 23  2  0
 10 24  2  0
 24 25  1  0
 25 26  2  0
 26  3  1  0
 26  8  1  0
 23 11  1  0
 22 16  1  0
  1 27  1  0
  1 28  1  0
  2 29  1  0
  6 30  1  0
  7 31  1  0
  9 32  1  0
 12 33  1  0
 13 34  1  0
 14 35  1  0
 17 36  1  0
 17 37  1  0
 18 38  1  0
 18 39  1  0
 20 40  1  0
 20 41  1  0
 20 42  1  0
 21 43  1  0
 21 44  1  0
 22 45  1  0
 22 46  1  0
 23 47  1  0
 24 48  1  0
 25 49  1  0
M  CHG  2   5  -1  13   1
M  END
>  <UniqueID>  (20) 
19

>  <SMILES>  (20) 
C=Cc1c([O-])ccc2cc(-c3c[nH+]cc(N4CCN(C)CC4)c3)ccc12

>  <Energy>  (20) 
79.34128897830887

>  <Genealogy>  (20) 
C=Cc1c([O-])ccc2cc(-c3c[nH+]cc(N4CCN(C)CC4)c3)ccc12 (protonated)
C=Cc1c([O-])ccc2cc(-c3c[nH+]cc(N4CCN(C)CC4)c3)ccc12 (3D coordinates assigned)
C=Cc1c([O-])ccc2cc(-c3c[nH+]cc(N4CCN(C)CC4)c3)ccc12 (nonaromatic ring conformer: 79.34128897830887 kcal/mol)

>  <smiles>  (20) 
C=Cc1c(O)ccc2cc(-c3cncc(N4CCN(C)CC4)c3)ccc12

>  <score_type>  (20) 
oracle

>  <origin>  (20) 
adg

>  <m_score__min__energy>  (20) 
-9.0999999999999996

>  <m_primary>  (20) 
energy

$$$$
20:0
     RDKit          3D

 46 48  0  0  0  0  0  0  0  0999 V2000
   59.6250   35.3420   46.7690 C   0  0  0  0  0  0  0  0  0  0  0  0
   58.8670   34.0820   46.7150 N   0  0  0  0  0  0  0  0  0  0  0  0
   57.7350   34.1710   45.7570 C   0  0  0  0  0  0  0  0  0  0  0  0
   58.0600   33.5200   44.4010 C   0  0  0  0  0  0  0  0  0  0  0  0
   58.4610   32.0990   44.5310 N   0  0  0  0  0  0  0  0  0  0  0  0
   57.1340   31.0280   44.1390 S   0  0  0  0  0  0  0  0  0  0  0  0
   56.8960   31.0590   42.6540 O   0  0  0  0  0  0  0  0  0  0  0  0
   55.8900   31.4830   44.8510 O   0  0  0  0  0  0  0  0  0  0  0  0
   57.5060   29.3800   44.6530 C   0  0  0  0  0  0  0  0  0  0  0  0
   58.8270   28.9160   44.6000 C   0  0  0  0  0  0  0  0  0  0  0  0
   59.1340   27.6130   44.9940 C   0  0  0  0  0  0  0  0  0  0  0  0
   58.1280   26.7650   45.4600 C   0  0  0  0  0  0  0  0  0  0  0  0
   56.8030   27.2260   45.5590 C   0  0  0  0  0  0  0  0  0  0  0  0
   55.7410   26.3790   46.0250 N   0  0  0  0  0  0  0  0  0  0  0  0
   55.8830   25.1400   46.7330 C   0  0  0  0  0  0  0  0  0  0  0  0
   56.4090   25.1130   47.8770 O   0  0  0  0  0  0  0  0  0  0  0  0
   55.4380   23.9110   46.1470 N   0  0  0  0  0  0  0  0  0  0  0  0
   56.1700   23.0930   45.2220 C   0  0  0  0  0  0  0  0  0  0  0  0
   55.8680   23.0810   43.8470 C   0  0  0  0  0  0  0  0  0  0  0  0
   56.5810   22.2500   42.9770 C   0  0  0  0  0  0  0  0  0  0  0  0
   57.5850   21.4150   43.4710 C   0  0  0  0  0  0  0  0  0  0  0  0
   57.8730   21.4020   44.8390 C   0  0  0  0  0  0  0  0  0  0  0  0
   57.1650   22.2340   45.7130 C   0  0  0  0  0  0  0  0  0  0  0  0
   57.4600   22.2080   47.0720 O   0  0  0  0  0  0  0  0  0  0  0  0
   56.4940   28.5310   45.1410 C   0  0  0  0  0  0  0  0  0  0  0  0
   55.1810   28.9850   45.2320 O   0  0  0  0  0  0  0  0  0  0  0  0
   59.0130   31.7550   45.8580 C   0  0  0  0  0  0  0  0  0  0  0  0
   59.7730   32.9410   46.4600 C   0  0  0  0  0  0  0  0  0  0  0  0
   59.7943   35.6234   47.8189 H   0  0  0  0  0  0  0  0  0  0  0  0
   60.5933   35.2093   46.2643 H   0  0  0  0  0  0  0  0  0  0  0  0
   59.0541   36.1353   46.2643 H   0  0  0  0  0  0  0  0  0  0  0  0
   56.8627   33.6620   46.1929 H   0  0  0  0  0  0  0  0  0  0  0  0
   57.5319   35.2369   45.5766 H   0  0  0  0  0  0  0  0  0  0  0  0
   57.1676   33.5768   43.7603 H   0  0  0  0  0  0  0  0  0  0  0  0
   58.9090   34.0666   43.9646 H   0  0  0  0  0  0  0  0  0  0  0  0
   59.6269   29.5828   44.2457 H   0  0  0  0  0  0  0  0  0  0  0  0
   60.1719   27.2531   44.9372 H   0  0  0  0  0  0  0  0  0  0  0  0
   58.3724   25.7327   45.7508 H   0  0  0  0  0  0  0  0  0  0  0  0
   55.0686   23.7274   43.4557 H   0  0  0  0  0  0  0  0  0  0  0  0
   56.3504   22.2543   41.9015 H   0  0  0  0  0  0  0  0  0  0  0  0
   58.1494   20.7674   42.7839 H   0  0  0  0  0  0  0  0  0  0  0  0
   58.6574   20.7366   45.2288 H   0  0  0  0  0  0  0  0  0  0  0  0
   58.1876   31.4779   46.5303 H   0  0  0  0  0  0  0  0  0  0  0  0
   59.7121   30.9140   45.7397 H   0  0  0  0  0  0  0  0  0  0  0  0
   60.2325   32.6284   47.4093 H   0  0  0  0  0  0  0  0  0  0  0  0
   60.5437   33.2612   45.7434 H   0  0  0  0  0  0  0  0  0  0  0  0
  1  2  1  0
  2  3  1  0
  3  4  1  0
  4  5  1  0
  5  6  1  0
  6  7  2  0
  6  8  2  0
  6  9  1  0
  9 10  2  0
 10 11  1  0
 11 12  2  0
 12 13  1  0
 13 14  1  0
 14 15  1  0
 15 16  2  0
 15 17  1  0
 17 18  1  0
 18 19  2  0
 19 20  1  0
 20 21  2  0
 21 22  1  0
 22 23  2  0
 23 24  1  0
 13 25  2  0
 25 26  1  0
  5 27  1  0
 27 28  1  0
 28  2  1  0
 25  9  1  0
 23 18  1  0
  1 29  1  0
  1 30  1  0
  1 31  1  0
  3 32  1  0
  3 33  1  0
  4 34  1  0
  4 35  1  0
 10 36  1  0
 11 37  1  0
 12 38  1  0
 19 39  1  0
 20 40  1  0
 21 41  1  0
 22 42  1  0
 27 43  1  0
 27 44  1  0
 28 45  1  0
 28 46  1  0
M  CHG  4  14  -1  17  -1  24  -1  26  -1
M  END
>  <UniqueID>  (21) 
20

>  <SMILES>  (21) 
CN1CCN(S(=O)(=O)c2cccc([N-]C(=O)[N-]c3ccccc3[O-])c2[O-])CC1

>  <Energy>  (21) 
66.46162187161738

>  <Genealogy>  (21) 
CN1CCN(S(=O)(=O)c2cccc([N-]C(=O)[N-]c3ccccc3[O-])c2[O-])CC1 (protonated)
CN1CCN(S(=O)(=O)c2cccc([N-]C(=O)[N-]c3ccccc3[O-])c2[O-])CC1 (3D coordinates assigned)
CN1CCN(S(=O)(=O)c2cccc([N-]C(=O)[N-]c3ccccc3[O-])c2[O-])CC1 (nonaromatic ring conformer: 66.46162187161738 kcal/mol)

>  <smiles>  (21) 
CN1CCN(S(=O)(=O)c2cccc(NC(=O)Nc3ccccc3O)c2O)CC1

>  <score_type>  (21) 
oracle

>  <origin>  (21) 
adg

>  <m_score__min__energy>  (21) 
-19.039999999999999

>  <m_primary>  (21) 
energy

$$$$
21:0
     RDKit          3D

 52 55  0  0  0  0  0  0  0  0999 V2000
   54.0460   25.9240   45.7080 N   0  0  0  0  0  0  0  0  0  0  0  0
   55.2740   25.2000   45.7340 C   0  0  0  0  0  0  0  0  0  0  0  0
   55.3080   24.0300   45.2660 O   0  0  0  0  0  0  0  0  0  0  0  0
   56.4970   25.8140   46.3020 C   0  0  0  0  0  0  0  0  0  0  0  0
   57.4680   25.0170   46.9330 C   0  0  0  0  0  0  0  0  0  0  0  0
   58.6240   25.5930   47.4700 C   0  0  0  0  0  0  0  0  0  0  0  0
   58.8340   26.9820   47.3860 C   0  0  0  0  0  0  0  0  0  0  0  0
   60.0160   27.6080   47.9170 N   0  0  0  0  0  0  0  0  0  0  0  0
   60.0020   28.7850   49.1940 S   0  0  0  0  0  0  0  0  0  0  0  0
   58.6200   29.3640   49.3080 O   0  0  0  0  0  0  0  0  0  0  0  0
   60.3530   28.0930   50.4820 O   0  0  0  0  0  0  0  0  0  0  0  0
   61.1440   30.0920   48.8310 C   0  0  0  0  0  0  0  0  0  0  0  0
   61.9950   30.5360   49.8560 C   0  0  0  0  0  0  0  0  0  0  0  0
   62.8650   31.6070   49.6450 C   0  0  0  0  0  0  0  0  0  0  0  0
   62.8970   32.2480   48.4070 C   0  0  0  0  0  0  0  0  0  0  0  0
   62.0700   31.8110   47.3710 C   0  0  0  0  0  0  0  0  0  0  0  0
   61.1970   30.7260   47.5630 C   0  0  0  0  0  0  0  0  0  0  0  0
   60.3760   30.2760   46.4200 C   0  0  0  0  0  0  0  0  0  0  0  0
   60.8320   29.2430   45.5900 C   0  0  0  0  0  0  0  0  0  0  0  0
   60.0570   28.8160   44.5110 C   0  0  0  0  0  0  0  0  0  0  0  0
   58.8200   29.4120   44.2540 C   0  0  0  0  0  0  0  0  0  0  0  0
   58.3390   30.4420   45.0840 C   0  0  0  0  0  0  0  0  0  0  0  0
   57.0290   31.0810   44.8080 C   0  0  0  0  0  0  0  0  0  0  0  0
   56.0300   30.3640   44.5300 O   0  0  0  0  0  0  0  0  0  0  0  0
   56.8890   32.5070   44.9400 N   0  0  0  0  0  0  0  0  0  0  0  0
   57.7340   33.3760   45.4260 C   0  0  0  0  0  0  0  0  0  0  0  0
   58.6080   34.1390   44.6230 C   0  0  0  0  0  0  0  0  0  0  0  0
   59.4890   35.0400   45.2280 C   0  0  0  0  0  0  0  0  0  0  0  0
   59.5130   35.1720   46.5790 N   0  0  0  0  0  0  0  0  0  0  0  0
   58.6950   34.4390   47.3790 C   0  0  0  0  0  0  0  0  0  0  0  0
   57.8000   33.5260   46.8180 C   0  0  0  0  0  0  0  0  0  0  0  0
   59.1240   30.8620   46.1730 C   0  0  0  0  0  0  0  0  0  0  0  0
   57.8640   27.7760   46.7580 C   0  0  0  0  0  0  0  0  0  0  0  0
   56.7090   27.2010   46.2220 C   0  0  0  0  0  0  0  0  0  0  0  0
   53.8670   26.7020   46.3810 H   0  0  0  0  0  0  0  0  0  0  0  0
   57.3172   23.9298   47.0051 H   0  0  0  0  0  0  0  0  0  0  0  0
   59.3741   24.9559   47.9613 H   0  0  0  0  0  0  0  0  0  0  0  0
   60.9510   27.3300   47.5420 H   0  0  0  0  0  0  0  0  0  0  0  0
   61.9758   30.0348   50.8350 H   0  0  0  0  0  0  0  0  0  0  0  0
   63.5261   31.9457   50.4563 H   0  0  0  0  0  0  0  0  0  0  0  0
   63.5750   33.0993   48.2467 H   0  0  0  0  0  0  0  0  0  0  0  0
   62.1016   32.3198   46.3963 H   0  0  0  0  0  0  0  0  0  0  0  0
   61.8036   28.7674   45.7896 H   0  0  0  0  0  0  0  0  0  0  0  0
   60.4214   28.0072   43.8605 H   0  0  0  0  0  0  0  0  0  0  0  0
   58.2180   29.0742   43.3975 H   0  0  0  0  0  0  0  0  0  0  0  0
   58.5962   34.0257   43.5289 H   0  0  0  0  0  0  0  0  0  0  0  0
   60.1659   35.6448   44.6067 H   0  0  0  0  0  0  0  0  0  0  0  0
   58.7380   34.5652   48.4709 H   0  0  0  0  0  0  0  0  0  0  0  0
   57.1472   32.9249   47.4680 H   0  0  0  0  0  0  0  0  0  0  0  0
   58.7537   31.6568   46.8372 H   0  0  0  0  0  0  0  0  0  0  0  0
   58.0140   28.8634   46.6865 H   0  0  0  0  0  0  0  0  0  0  0  0
   55.9587   27.8397   45.7329 H   0  0  0  0  0  0  0  0  0  0  0  0
  1  2  1  0
  2  3  2  0
  2  4  1  0
  4  5  2  0
  5  6  1  0
  6  7  2  0
  7  8  1  0
  8  9  1  0
  9 10  2  0
  9 11  2  0
  9 12  1  0
 12 13  2  0
 13 14  1  0
 14 15  2  0
 15 16  1  0
 16 17  2  0
 17 18  1  0
 18 19  2  0
 19 20  1  0
 20 21  2  0
 21 22  1  0
 22 23  1  0
 23 24  2  0
 23 25  1  0
 25 26  2  3
 26 27  1  0
 27 28  2  0
 28 29  1  0
 29 30  1  0
 30 31  2  0
 22 32  2  0
  7 33  1  0
 33 34  2  0
 34  4  1  0
 17 12  1  0
 32 18  1  0
 31 26  1  0
  1 35  1  0
  5 36  1  0
  6 37  1  0
  8 38  1  0
 13 39  1  0
 14 40  1  0
 15 41  1  0
 16 42  1  0
 19 43  1  0
 20 44  1  0
 21 45  1  0
 27 46  1  0
 28 47  1  0
 30 48  1  0
 31 49  1  0
 32 50  1  0
 33 51  1  0
 34 52  1  0
M  CHG  2   1  -1  29  -1
M  END
>  <UniqueID>  (22) 
21

>  <SMILES>  (22) 
[NH-]C(=O)c1ccc(NS(=O)(=O)c2ccccc2-c2cccc(C(=O)N=c3cc[n-]cc3)c2)cc1

>  <Energy>  (22) 
77.08605976551307

>  <Genealogy>  (22) 
[NH-]C(=O)c1ccc(NS(=O)(=O)c2ccccc2-c2cccc(C(=O)N=c3cc[n-]cc3)c2)cc1 (protonated)
[NH-]C(=O)c1ccc(NS(=O)(=O)c2ccccc2-c2cccc(C(=O)N=c3cc[n-]cc3)c2)cc1 (3D coordinates assigned)
[NH-]C(=O)c1ccc(NS(=O)(=O)c2ccccc2-c2cccc(C(=O)N=c3cc[n-]cc3)c2)cc1 (optimized conformer: 77.08605976551307 kcal/mol)

>  <smiles>  (22) 
NC(=O)c1ccc(NS(=O)(=O)c2ccccc2-c2cccc(C(=O)N=c3cc[nH]cc3)c2)cc1

>  <score_type>  (22) 
oracle

>  <origin>  (22) 
adg

>  <m_score__min__energy>  (22) 
-13.970000000000001

>  <m_primary>  (22) 
energy

$$$$
22:0
     RDKit          3D

 37 39  0  0  0  0  0  0  0  0999 V2000
   62.1640   34.0120   50.8200 F   0  0  0  0  0  0  0  0  0  0  0  0
   62.2660   33.8270   49.4810 C   0  0  0  0  0  0  0  0  0  0  0  0
   63.5050   33.5210   48.9130 C   0  0  0  0  0  0  0  0  0  0  0  0
   63.6140   33.3390   47.5330 C   0  0  0  0  0  0  0  0  0  0  0  0
   62.4830   33.4600   46.7190 C   0  0  0  0  0  0  0  0  0  0  0  0
   61.2260   33.7600   47.2780 C   0  0  0  0  0  0  0  0  0  0  0  0
   60.0310   33.8870   46.4090 C   0  0  0  0  0  0  0  0  0  0  0  0
   59.1580   32.8850   46.1440 N   0  0  0  0  0  0  0  0  0  0  0  0
   58.1490   33.2670   45.3120 C   0  0  0  0  0  0  0  0  0  0  0  0
   57.0900   32.3050   44.8460 C   0  0  0  0  0  0  0  0  0  0  0  0
   57.3790   30.9240   45.2610 N   0  0  0  0  0  0  0  0  0  0  0  0
   58.4220   30.3090   44.4290 C   0  0  0  0  0  0  0  0  0  0  0  0
   59.1830   29.2510   45.2300 C   0  0  0  0  0  0  0  0  0  0  0  0
   59.6900   29.8160   46.4760 N   0  0  0  0  0  0  0  0  0  0  0  0
   60.9780   30.0910   46.7540 C   0  0  0  0  0  0  0  0  0  0  0  0
   61.0510   30.5530   48.0500 C   0  0  0  0  0  0  0  0  0  0  0  0
   59.7470   30.5240   48.5080 C   0  0  0  0  0  0  0  0  0  0  0  0
   58.9360   30.0660   47.5350 N   0  0  0  0  0  0  0  0  0  0  0  0
   58.2090   34.5910   44.8900 C   0  0  0  0  0  0  0  0  0  0  0  0
   59.5670   35.2880   45.5920 S   0  0  0  0  0  0  0  0  0  0  0  0
   61.1330   33.9480   48.6710 C   0  0  0  0  0  0  0  0  0  0  0  0
   64.3945   33.4235   49.5528 H   0  0  0  0  0  0  0  0  0  0  0  0
   64.5901   33.1003   47.0856 H   0  0  0  0  0  0  0  0  0  0  0  0
   62.5764   33.3195   45.6320 H   0  0  0  0  0  0  0  0  0  0  0  0
   59.2500   31.9100   46.5070 H   0  0  0  0  0  0  0  0  0  0  0  0
   56.1223   32.6086   45.2718 H   0  0  0  0  0  0  0  0  0  0  0  0
   57.0669   32.3316   43.7466 H   0  0  0  0  0  0  0  0  0  0  0  0
   57.6960   30.9260   46.2590 H   0  0  0  0  0  0  0  0  0  0  0  0
   57.9552   29.8350   43.5530 H   0  0  0  0  0  0  0  0  0  0  0  0
   59.1271   31.0883   44.1040 H   0  0  0  0  0  0  0  0  0  0  0  0
   58.5053   28.4160   45.4612 H   0  0  0  0  0  0  0  0  0  0  0  0
   60.0337   28.8959   44.6298 H   0  0  0  0  0  0  0  0  0  0  0  0
   61.8265   29.9680   46.0649 H   0  0  0  0  0  0  0  0  0  0  0  0
   61.9486   30.8740   48.5989 H   0  0  0  0  0  0  0  0  0  0  0  0
   59.4214   30.8285   49.5136 H   0  0  0  0  0  0  0  0  0  0  0  0
   57.4961   35.0913   44.2181 H   0  0  0  0  0  0  0  0  0  0  0  0
   60.1612   34.1919   49.1250 H   0  0  0  0  0  0  0  0  0  0  0  0
  1  2  1  0
  2  3  2  0
  3  4  1  0
  4  5  2  0
  5  6  1  0
  6  7  1  0
  7  8  2  0
  8  9  1  0
  9 10  1  0
 10 11  1  0
 11 12  1  0
 12 13  1  0
 13 14  1  0
 14 15  1  0
 15 16  2  0
 16 17  1  0
 17 18  2  0
  9 19  2  0
 19 20  1  0
  6 21  2  0
 21  2  1  0
 20  7  1  0
 18 14  1  0
  3 22  1  0
  4 23  1  0
  5 24  1  0
  8 25  1  0
 10 26  1  0
 10 27  1  0
 11 28  1  0
 12 29  1  0
 12 30  1  0
 13 31  1  0
 13 32  1  0
 15 33  1  0
 16 34  1  0
 17 35  1  0
 19 36  1  0
 21 37  1  0
M  CHG  1   8   1
M  END
>  <UniqueID>  (23) 
22

>  <SMILES>  (23) 
Fc1cccc(-c2[nH+]c(CNCCn3cccn3)cs2)c1

>  <Energy>  (23) 
95.46308638443394

>  <Genealogy>  (23) 
Fc1cccc(-c2[nH+]c(CNCCn3cccn3)cs2)c1 (protonated)
Fc1cccc(-c2[nH+]c(CNCCn3cccn3)cs2)c1 (3D coordinates assigned)
Fc1cccc(-c2[nH+]c(CNCCn3cccn3)cs2)c1 (optimized conformer: 95.46308638443394 kcal/mol)

>  <smiles>  (23) 
Fc1cccc(-c2nc(CNCCn3cccn3)cs2)c1

>  <score_type>  (23) 
oracle

>  <origin>  (23) 
adg

>  <m_score__min__energy>  (23) 
-4.9199999999999999

>  <m_primary>  (23) 
energy

$$$$
23:0
     RDKit          3D

 67 71  0  0  0  0  0  0  0  0999 V2000
   55.9610   28.3220   45.2750 O   0  0  0  0  0  0  0  0  0  0  0  0
   56.7210   29.0230   44.5510 C   0  0  0  0  0  0  0  0  0  0  0  0
   56.1790   30.1340   43.7420 C   0  0  0  0  0  0  0  0  0  0  0  0
   56.8730   31.2040   43.3150 C   0  0  0  0  0  0  0  0  0  0  0  0
   57.6450   32.1300   44.1730 C   0  0  0  0  0  0  0  0  0  0  0  0
   58.4810   33.1130   43.6200 C   0  0  0  0  0  0  0  0  0  0  0  0
   59.1420   34.0270   44.4450 C   0  0  0  0  0  0  0  0  0  0  0  0
   58.9510   33.9990   45.8400 C   0  0  0  0  0  0  0  0  0  0  0  0
   59.6080   35.0010   46.7100 C   0  0  0  0  0  0  0  0  0  0  0  0
   59.6600   36.2120   46.3650 O   0  0  0  0  0  0  0  0  0  0  0  0
   60.2230   34.6020   47.9360 N   0  0  0  0  0  0  0  0  0  0  0  0
   61.5460   34.0630   48.0220 C   0  0  0  0  0  0  0  0  0  0  0  0
   62.2720   33.7070   46.8710 C   0  0  0  0  0  0  0  0  0  0  0  0
   63.5470   33.1460   46.9900 C   0  0  0  0  0  0  0  0  0  0  0  0
   64.1180   32.9630   48.2520 C   0  0  0  0  0  0  0  0  0  0  0  0
   63.4200   33.3520   49.4030 C   0  0  0  0  0  0  0  0  0  0  0  0
   64.0510   33.2240   50.7290 C   0  0  0  0  0  0  0  0  0  0  0  0
   64.3640   34.2670   51.3650 O   0  0  0  0  0  0  0  0  0  0  0  0
   64.3000   31.9300   51.3100 N   0  0  0  0  0  0  0  0  0  0  0  0
   65.0080   31.7550   52.5680 C   0  0  0  0  0  0  0  0  0  0  0  0
   64.9670   30.2600   52.8530 C   0  0  0  0  0  0  0  0  0  0  0  0
   63.8220   29.7130   52.0020 C   0  0  0  0  0  0  0  0  0  0  0  0
   63.6630   30.7040   50.8540 C   0  0  0  0  0  0  0  0  0  0  0  0
   62.1230   33.8790   49.2830 C   0  0  0  0  0  0  0  0  0  0  0  0
   58.0970   33.0260   46.3880 C   0  0  0  0  0  0  0  0  0  0  0  0
   57.4430   32.1080   45.5600 C   0  0  0  0  0  0  0  0  0  0  0  0
   58.1190   28.7070   44.4600 N   0  0  0  0  0  0  0  0  0  0  0  0
   58.7240   27.5860   45.1750 C   0  0  0  0  0  0  0  0  0  0  0  0
   60.1760   27.8880   45.5640 C   0  0  0  0  0  0  0  0  0  0  0  0
   60.2730   29.0880   46.4620 C   0  0  0  0  0  0  0  0  0  0  0  0
   60.2170   30.4220   46.0690 C   0  0  0  0  0  0  0  0  0  0  0  0
   60.2610   31.2340   47.1490 N   0  0  0  0  0  0  0  0  0  0  0  0
   60.3360   30.4280   48.2190 C   0  0  0  0  0  0  0  0  0  0  0  0
   60.3810   30.8050   49.5600 C   0  0  0  0  0  0  0  0  0  0  0  0
   60.4350   29.7870   50.5280 C   0  0  0  0  0  0  0  0  0  0  0  0
   60.4360   28.4280   50.1400 C   0  0  0  0  0  0  0  0  0  0  0  0
   60.3880   28.0750   48.7790 C   0  0  0  0  0  0  0  0  0  0  0  0
   60.3400   29.1060   47.8420 C   0  0  0  0  0  0  0  0  0  0  0  0
   55.1158   30.0816   43.4649 H   0  0  0  0  0  0  0  0  0  0  0  0
   56.8661   31.4085   42.2342 H   0  0  0  0  0  0  0  0  0  0  0  0
   58.6167   33.1641   42.5296 H   0  0  0  0  0  0  0  0  0  0  0  0
   59.8166   34.7740   44.0014 H   0  0  0  0  0  0  0  0  0  0  0  0
   61.8354   33.8704   45.8747 H   0  0  0  0  0  0  0  0  0  0  0  0
   64.1018   32.8480   46.0881 H   0  0  0  0  0  0  0  0  0  0  0  0
   65.1175   32.5126   48.3421 H   0  0  0  0  0  0  0  0  0  0  0  0
   66.0483   32.1003   52.4750 H   0  0  0  0  0  0  0  0  0  0  0  0
   64.5483   32.3380   53.3796 H   0  0  0  0  0  0  0  0  0  0  0  0
   65.9183   29.7879   52.5665 H   0  0  0  0  0  0  0  0  0  0  0  0
   64.8154   30.0527   53.9226 H   0  0  0  0  0  0  0  0  0  0  0  0
   64.0723   28.7137   51.6162 H   0  0  0  0  0  0  0  0  0  0  0  0
   62.8941   29.6072   52.5832 H   0  0  0  0  0  0  0  0  0  0  0  0
   64.1597   30.3263   49.9481 H   0  0  0  0  0  0  0  0  0  0  0  0
   62.6058   30.8642   50.5957 H   0  0  0  0  0  0  0  0  0  0  0  0
   61.5574   34.1488   50.1870 H   0  0  0  0  0  0  0  0  0  0  0  0
   57.9420   32.9864   47.4763 H   0  0  0  0  0  0  0  0  0  0  0  0
   56.7646   31.3627   46.0007 H   0  0  0  0  0  0  0  0  0  0  0  0
   58.7460   29.3380   43.9120 H   0  0  0  0  0  0  0  0  0  0  0  0
   58.1428   27.3883   46.0877 H   0  0  0  0  0  0  0  0  0  0  0  0
   58.7190   26.7090   44.5110 H   0  0  0  0  0  0  0  0  0  0  0  0
   60.5932   27.0157   46.0885 H   0  0  0  0  0  0  0  0  0  0  0  0
   60.7398   28.1020   44.6440 H   0  0  0  0  0  0  0  0  0  0  0  0
   60.1468   30.7669   45.0268 H   0  0  0  0  0  0  0  0  0  0  0  0
   60.2330   32.2800   47.1470 H   0  0  0  0  0  0  0  0  0  0  0  0
   60.3745   31.8656   49.8517 H   0  0  0  0  0  0  0  0  0  0  0  0
   60.4768   30.0501   51.5953 H   0  0  0  0  0  0  0  0  0  0  0  0
   60.4746   27.6409   50.9074 H   0  0  0  0  0  0  0  0  0  0  0  0
   60.3883   27.0208   48.4648 H   0  0  0  0  0  0  0  0  0  0  0  0
  1  2  2  0
  2  3  1  0
  3  4  2  3
  4  5  1  0
  5  6  2  0
  6  7  1  0
  7  8  2  0
  8  9  1  0
  9 10  2  0
  9 11  1  0
 11 12  1  0
 12 13  2  0
 13 14  1  0
 14 15  2  0
 15 16  1  0
 16 17  1  0
 17 18  2  0
 17 19  1  0
 19 20  1  0
 20 21  1  0
 21 22  1  0
 22 23  1  0
 16 24  2  0
  8 25  1  0
 25 26  2  0
  2 27  1  0
 27 28  1  0
 28 29  1  0
 29 30  1  0
 30 31  2  0
 31 32  1  0
 32 33  1  0
 33 34  2  0
 34 35  1  0
 35 36  2  0
 36 37  1  0
 37 38  2  0
 26  5  1  0
 38 30  1  0
 24 12  1  0
 38 33  1  0
 23 19  1  0
  3 39  1  0
  4 40  1  0
  6 41  1  0
  7 42  1  0
 13 43  1  0
 14 44  1  0
 15 45  1  0
 20 46  1  0
 20 47  1  0
 21 48  1  0
 21 49  1  0
 22 50  1  0
 22 51  1  0
 23 52  1  0
 23 53  1  0
 24 54  1  0
 25 55  1  0
 26 56  1  0
 27 57  1  0
 28 58  1  0
 28 59  1  0
 29 60  1  0
 29 61  1  0
 31 62  1  0
 32 63  1  0
 34 64  1  0
 35 65  1  0
 36 66  1  0
 37 67  1  0
M  CHG  1  11  -1
M  END
>  <UniqueID>  (24) 
23

>  <SMILES>  (24) 
O=C(C=Cc1ccc(C(=O)[N-]c2cccc(C(=O)N3CCCC3)c2)cc1)NCCc1c[nH]c2ccccc12

>  <Energy>  (24) 
120.96011889085509

>  <Genealogy>  (24) 
O=C(C=Cc1ccc(C(=O)[N-]c2cccc(C(=O)N3CCCC3)c2)cc1)NCCc1c[nH]c2ccccc12 (protonated)
O=C(C=Cc1ccc(C(=O)[N-]c2cccc(C(=O)N3CCCC3)c2)cc1)NCCc1c[nH]c2ccccc12 (3D coordinates assigned)
O=C(C=Cc1ccc(C(=O)[N-]c2cccc(C(=O)N3CCCC3)c2)cc1)NCCc1c[nH]c2ccccc12 (nonaromatic ring conformer: 120.96011889085509 kcal/mol)

>  <smiles>  (24) 
O=C(C=Cc1ccc(C(=O)Nc2cccc(C(=O)N3CCCC3)c2)cc1)NCCc1c[nH]c2ccccc12

>  <score_type>  (24) 
oracle

>  <origin>  (24) 
adg

>  <m_score__min__energy>  (24) 
-11.85

>  <m_primary>  (24) 
energy

$$$$
24:0
     RDKit          3D

 42 43  0  0  0  0  0  0  0  0999 V2000
   60.2610   31.3290   48.3850 C   0  0  0  0  0  0  0  0  0  0  0  0
   59.5450   32.6250   48.7750 C   0  0  0  0  0  0  0  0  0  0  0  0
   58.2890   32.8360   47.9270 C   0  0  0  0  0  0  0  0  0  0  0  0
   59.1930   32.6020   50.1970 N   0  0  0  0  0  0  0  0  0  0  0  0
   58.8540   31.5090   50.9050 C   0  0  0  0  0  0  0  0  0  0  0  0
   58.6270   31.8970   52.2120 C   0  0  0  0  0  0  0  0  0  0  0  0
   58.2900   31.0610   53.3850 C   0  0  0  0  0  0  0  0  0  0  0  0
   58.3890   31.5770   54.5310 O   0  0  0  0  0  0  0  0  0  0  0  0
   57.8700   29.6840   53.2670 N   0  0  0  0  0  0  0  0  0  0  0  0
   58.8990   28.6450   53.1550 C   0  0  0  0  0  0  0  0  0  0  0  0
   56.4740   29.2810   53.4880 C   0  0  0  0  0  0  0  0  0  0  0  0
   55.5390   29.8970   52.4800 C   0  0  0  0  0  0  0  0  0  0  0  0
   56.0340   30.5610   51.5300 O   0  0  0  0  0  0  0  0  0  0  0  0
   54.1180   29.6720   52.5420 N   0  0  0  0  0  0  0  0  0  0  0  0
   53.1600   30.3790   51.7370 C   0  0  0  0  0  0  0  0  0  0  0  0
   52.6290   31.6170   52.1470 C   0  0  0  0  0  0  0  0  0  0  0  0
   51.6780   32.2710   51.3560 C   0  0  0  0  0  0  0  0  0  0  0  0
   51.2400   31.6920   50.1610 C   0  0  0  0  0  0  0  0  0  0  0  0
   50.2960   32.3450   49.3780 O   0  0  0  0  0  0  0  0  0  0  0  0
   51.7480   30.4540   49.7600 C   0  0  0  0  0  0  0  0  0  0  0  0
   52.6970   29.7960   50.5470 C   0  0  0  0  0  0  0  0  0  0  0  0
   58.8730   33.2590   52.2250 C   0  0  0  0  0  0  0  0  0  0  0  0
   59.2140   33.6650   50.9870 N   0  0  0  0  0  0  0  0  0  0  0  0
   60.5602   30.7874   49.2945 H   0  0  0  0  0  0  0  0  0  0  0  0
   59.5824   30.6999   47.7902 H   0  0  0  0  0  0  0  0  0  0  0  0
   61.1547   31.5686   47.7902 H   0  0  0  0  0  0  0  0  0  0  0  0
   60.2321   33.4634   48.5879 H   0  0  0  0  0  0  0  0  0  0  0  0
   57.4212   32.9818   48.5870 H   0  0  0  0  0  0  0  0  0  0  0  0
   58.4202   33.7247   47.2922 H   0  0  0  0  0  0  0  0  0  0  0  0
   58.1226   31.9532   47.2922 H   0  0  0  0  0  0  0  0  0  0  0  0
   58.7718   30.4849   50.5119 H   0  0  0  0  0  0  0  0  0  0  0  0
   59.2120   28.3290   54.1611 H   0  0  0  0  0  0  0  0  0  0  0  0
   58.4902   27.7814   52.6100 H   0  0  0  0  0  0  0  0  0  0  0  0
   59.7665   29.0454   52.6100 H   0  0  0  0  0  0  0  0  0  0  0  0
   56.4050   28.1858   53.4126 H   0  0  0  0  0  0  0  0  0  0  0  0
   56.1744   29.6324   54.4864 H   0  0  0  0  0  0  0  0  0  0  0  0
   53.7600   28.8980   53.1450 H   0  0  0  0  0  0  0  0  0  0  0  0
   52.9627   32.0712   53.0916 H   0  0  0  0  0  0  0  0  0  0  0  0
   51.2739   33.2431   51.6750 H   0  0  0  0  0  0  0  0  0  0  0  0
   51.4001   29.9959   48.8224 H   0  0  0  0  0  0  0  0  0  0  0  0
   53.0834   28.8154   50.2321 H   0  0  0  0  0  0  0  0  0  0  0  0
   58.8011   33.9091   53.1094 H   0  0  0  0  0  0  0  0  0  0  0  0
  1  2  1  0
  2  3  1  0
  2  4  1  0
  4  5  1  0
  5  6  2  0
  6  7  1  0
  7  8  2  0
  7  9  1  0
  9 10  1  0
  9 11  1  0
 11 12  1  0
 12 13  2  0
 12 14  1  0
 14 15  1  0
 15 16  2  0
 16 17  1  0
 17 18  2  0
 18 19  1  0
 18 20  1  0
 20 21  2  0
  6 22  1  0
 22 23  2  0
 23  4  1  0
 21 15  1  0
  1 24  1  0
  1 25  1  0
  1 26  1  0
  2 27  1  0
  3 28  1  0
  3 29  1  0
  3 30  1  0
  5 31  1  0
 10 32  1  0
 10 33  1  0
 10 34  1  0
 11 35  1  0
 11 36  1  0
 14 37  1  0
 16 38  1  0
 17 39  1  0
 20 40  1  0
 21 41  1  0
 22 42  1  0
M  CHG  1  19  -1
M  END
>  <UniqueID>  (25) 
24

>  <SMILES>  (25) 
CC(C)n1cc(C(=O)N(C)CC(=O)Nc2ccc([O-])cc2)cn1

>  <Energy>  (25) 
71.40550237443011

>  <Genealogy>  (25) 
CC(C)n1cc(C(=O)N(C)CC(=O)Nc2ccc([O-])cc2)cn1 (protonated)
CC(C)n1cc(C(=O)N(C)CC(=O)Nc2ccc([O-])cc2)cn1 (3D coordinates assigned)
CC(C)n1cc(C(=O)N(C)CC(=O)Nc2ccc([O-])cc2)cn1 (optimized conformer: 71.40550237443011 kcal/mol)

>  <smiles>  (25) 
CC(C)n1cc(C(=O)N(C)CC(=O)Nc2ccc(O)cc2)cn1

>  <score_type>  (25) 
oracle

>  <origin>  (25) 
adg

>  <m_score__min__energy>  (25) 
-10.19

>  <m_primary>  (25) 
energy

$$$$
25:0
     RDKit          3D

 50 52  0  0  0  0  0  0  0  0999 V2000
   58.3749   34.0600   47.8477 H   0  0  0  0  0  0  0  0  0  0  0  0
   58.3010   33.7820   46.7860 C   0  0  0  0  0  0  0  0  0  0  0  0
   57.3890   32.8550   46.3890 N   0  0  0  0  0  0  0  0  0  0  0  0
   57.2610   32.4700   45.0890 C   0  0  0  0  0  0  0  0  0  0  0  0
   56.3580   31.5780   44.7910 N   0  0  0  0  0  0  0  0  0  0  0  0
   56.5750   30.1900   44.4950 C   0  0  0  0  0  0  0  0  0  0  0  0
   55.8780   29.6520   43.5940 O   0  0  0  0  0  0  0  0  0  0  0  0
   57.5320   29.3630   45.2720 C   0  0  0  0  0  0  0  0  0  0  0  0
   58.5580   29.9760   46.0120 C   0  0  0  0  0  0  0  0  0  0  0  0
   58.6472   31.0724   46.0098 H   0  0  0  0  0  0  0  0  0  0  0  0
   59.4720   29.2080   46.7550 C   0  0  0  0  0  0  0  0  0  0  0  0
   60.5500   29.8750   47.5240 C   0  0  0  0  0  0  0  0  0  0  0  0
   61.1250   29.2460   48.4530 O   0  0  0  0  0  0  0  0  0  0  0  0
   60.9590   31.2170   47.2120 N   0  0  0  0  0  0  0  0  0  0  0  0
   60.7080   31.6110   46.2760 H   0  0  0  0  0  0  0  0  0  0  0  0
   61.9360   31.9480   48.0250 C   0  0  0  0  0  0  0  0  0  0  0  0
   62.4448   31.2438   48.6998 H   0  0  0  0  0  0  0  0  0  0  0  0
   62.9920   32.5950   47.1160 C   0  0  0  0  0  0  0  0  0  0  0  0
   63.4552   31.8139   46.4952 H   0  0  0  0  0  0  0  0  0  0  0  0
   62.4916   33.3492   46.4908 H   0  0  0  0  0  0  0  0  0  0  0  0
   64.0920   33.3010   47.9350 C   0  0  0  0  0  0  0  0  0  0  0  0
   64.9092   32.5856   48.1096 H   0  0  0  0  0  0  0  0  0  0  0  0
   64.4191   34.1743   47.3516 H   0  0  0  0  0  0  0  0  0  0  0  0
   63.6030   33.8250   49.2990 C   0  0  0  0  0  0  0  0  0  0  0  0
   63.7457   33.0388   50.0549 H   0  0  0  0  0  0  0  0  0  0  0  0
   64.1856   34.7236   49.5501 H   0  0  0  0  0  0  0  0  0  0  0  0
   62.1220   34.2120   49.2590 C   0  0  0  0  0  0  0  0  0  0  0  0
   61.8270   34.5919   50.2483 H   0  0  0  0  0  0  0  0  0  0  0  0
   61.9918   34.9812   48.4835 H   0  0  0  0  0  0  0  0  0  0  0  0
   61.2220   33.0110   48.8970 C   0  0  0  0  0  0  0  0  0  0  0  0
   60.8894   32.5311   49.8292 H   0  0  0  0  0  0  0  0  0  0  0  0
   60.3798   33.4023   48.3074 H   0  0  0  0  0  0  0  0  0  0  0  0
   59.3600   27.8070   46.7340 C   0  0  0  0  0  0  0  0  0  0  0  0
   60.0806   27.1952   47.2965 H   0  0  0  0  0  0  0  0  0  0  0  0
   58.3400   27.1810   46.0040 C   0  0  0  0  0  0  0  0  0  0  0  0
   58.2510   25.6780   45.9590 C   0  0  0  0  0  0  0  0  0  0  0  0
   58.9133   25.2541   46.7282 H   0  0  0  0  0  0  0  0  0  0  0  0
   58.5578   25.3358   44.9596 H   0  0  0  0  0  0  0  0  0  0  0  0
   56.8230   25.2140   46.2180 C   0  0  0  0  0  0  0  0  0  0  0  0
   56.6470   25.1568   47.3023 H   0  0  0  0  0  0  0  0  0  0  0  0
   56.1180   25.9293   45.7693 H   0  0  0  0  0  0  0  0  0  0  0  0
   56.6731   24.2209   45.7693 H   0  0  0  0  0  0  0  0  0  0  0  0
   57.4390   27.9610   45.2650 C   0  0  0  0  0  0  0  0  0  0  0  0
   56.6516   27.4704   44.6740 H   0  0  0  0  0  0  0  0  0  0  0  0
   58.0870   33.0710   44.1140 C   0  0  0  0  0  0  0  0  0  0  0  0
   57.9883   32.7915   43.0547 H   0  0  0  0  0  0  0  0  0  0  0  0
   59.0300   34.0230   44.5060 C   0  0  0  0  0  0  0  0  0  0  0  0
   59.6840   34.4908   43.7553 H   0  0  0  0  0  0  0  0  0  0  0  0
   59.1430   34.3810   45.8490 C   0  0  0  0  0  0  0  0  0  0  0  0
   59.8871   35.1267   46.1656 H   0  0  0  0  0  0  0  0  0  0  0  0
  1  2  1  0
  2  3  1  0
  3  4  1  0
  4  5  2  0
  5  6  1  0
  6  7  2  0
  6  8  1  0
  8  9  2  0
  9 10  1  0
  9 11  1  0
 11 12  1  0
 12 13  2  0
 12 14  1  0
 14 15  1  0
 14 16  1  0
 16 17  1  0
 16 18  1  0
 18 19  1  0
 18 20  1  0
 18 21  1  0
 21 22  1  0
 21 23  1  0
 21 24  1  0
 24 25  1  0
 24 26  1  0
 24 27  1  0
 27 28  1  0
 27 29  1  0
 27 30  1  0
 30 31  1  0
 30 32  1  0
 11 33  2  0
 33 34  1  0
 33 35  1  0
 35 36  1  0
 36 37  1  0
 36 38  1  0
 36 39  1  0
 39 40  1  0
 39 41  1  0
 39 42  1  0
 35 43  2  0
 43 44  1  0
  4 45  1  0
 45 46  1  0
 45 47  2  0
 47 48  1  0
 47 49  1  0
 49 50  1  0
 49  2  2  0
 43  8  1  0
 30 16  1  0
M  CHG  1   3  -1
M  END
>  <UniqueID>  (26) 
25

>  <SMILES>  (26) 
CCc1cc(C(=O)/N=c2\cccc[n-]2)cc(C(=O)NC2CCCCC2)c1

>  <Energy>  (26) 
61.612049809656504

>  <Genealogy>  (26) 
CCc1cc(C(=O)N=c2cccc[n-]2)cc(C(=O)NC2CCCCC2)c1 (protonated)
CCc1cc(C(=O)/N=c2\cccc[n-]2)cc(C(=O)NC2CCCCC2)c1 (cis-trans isomerization)
CCc1cc(C(=O)/N=c2\cccc[n-]2)cc(C(=O)NC2CCCCC2)c1 (3D coordinates assigned)
CCc1cc(C(=O)/N=c2\cccc[n-]2)cc(C(=O)NC2CCCCC2)c1 (nonaromatic ring conformer: 61.612049809656504 kcal/mol)

>  <smiles>  (26) 
CCc1cc(C(=O)N=c2cccc[nH]2)cc(C(=O)NC2CCCCC2)c1

>  <score_type>  (26) 
oracle

>  <origin>  (26) 
adg

>  <m_score__min__energy>  (26) 
-10.380000000000001

>  <m_primary>  (26) 
energy

$$$$
26:0
     RDKit          3D

 52 55  0  0  0  0  0  0  0  0999 V2000
   59.7880   34.6040   49.2330 O   0  0  0  0  0  0  0  0  0  0  0  0
   60.2710   33.9380   48.2780 C   0  0  0  0  0  0  0  0  0  0  0  0
   59.5210   33.8250   47.0040 C   0  0  0  0  0  0  0  0  0  0  0  0
   59.5010   34.8960   46.0950 C   0  0  0  0  0  0  0  0  0  0  0  0
   58.8210   34.7800   44.8800 C   0  0  0  0  0  0  0  0  0  0  0  0
   58.1550   33.5950   44.5570 C   0  0  0  0  0  0  0  0  0  0  0  0
   58.1560   32.5170   45.4540 C   0  0  0  0  0  0  0  0  0  0  0  0
   57.4580   31.2590   45.1170 C   0  0  0  0  0  0  0  0  0  0  0  0
   56.2650   31.2970   44.7060 O   0  0  0  0  0  0  0  0  0  0  0  0
   58.1190   29.9900   45.2430 N   0  0  0  0  0  0  0  0  0  0  0  0
   58.1440   29.0620   44.1090 C   0  0  0  0  0  0  0  0  0  0  0  0
   57.7770   27.6480   44.5740 C   0  0  0  0  0  0  0  0  0  0  0  0
   58.4740   27.2770   45.8200 N   0  0  0  0  0  0  0  0  0  0  0  0
   58.2640   25.9720   46.4040 C   0  0  0  0  0  0  0  0  0  0  0  0
   58.8400   25.6590   47.4810 O   0  0  0  0  0  0  0  0  0  0  0  0
   57.3150   24.9840   45.7740 C   0  0  0  0  0  0  0  0  0  0  0  0
   56.4880   24.1900   46.7740 C   0  0  0  0  0  0  0  0  0  0  0  0
   55.8310   25.2800   45.9480 C   0  0  0  0  0  0  0  0  0  0  0  0
   59.3930   28.2400   46.4490 C   0  0  0  0  0  0  0  0  0  0  0  0
   58.7320   29.6180   46.5250 C   0  0  0  0  0  0  0  0  0  0  0  0
   58.8570   32.6340   46.6670 C   0  0  0  0  0  0  0  0  0  0  0  0
   61.5510   33.3140   48.4480 N   0  0  0  0  0  0  0  0  0  0  0  0
   61.6990   31.8640   48.2990 C   0  0  0  0  0  0  0  0  0  0  0  0
   62.8310   31.3730   49.2070 C   0  0  0  0  0  0  0  0  0  0  0  0
   64.0130   32.1190   48.9810 O   0  0  0  0  0  0  0  0  0  0  0  0
   63.8140   33.4670   49.3710 C   0  0  0  0  0  0  0  0  0  0  0  0
   62.7560   34.1410   48.4910 C   0  0  0  0  0  0  0  0  0  0  0  0
   60.0240   35.8318   46.3414 H   0  0  0  0  0  0  0  0  0  0  0  0
   58.8099   35.6245   44.1753 H   0  0  0  0  0  0  0  0  0  0  0  0
   57.6279   33.5073   43.5955 H   0  0  0  0  0  0  0  0  0  0  0  0
   57.4195   29.3948   43.3511 H   0  0  0  0  0  0  0  0  0  0  0  0
   59.1566   29.0472   43.6795 H   0  0  0  0  0  0  0  0  0  0  0  0
   56.6917   27.6017   44.7470 H   0  0  0  0  0  0  0  0  0  0  0  0
   58.0856   26.9417   43.7892 H   0  0  0  0  0  0  0  0  0  0  0  0
   57.9579   24.7469   44.9135 H   0  0  0  0  0  0  0  0  0  0  0  0
   56.2527   23.1337   46.5767 H   0  0  0  0  0  0  0  0  0  0  0  0
   56.5684   23.9720   47.8492 H   0  0  0  0  0  0  0  0  0  0  0  0
   55.1201   25.0137   45.1519 H   0  0  0  0  0  0  0  0  0  0  0  0
   55.2389   26.1785   46.1764 H   0  0  0  0  0  0  0  0  0  0  0  0
   59.6406   27.8978   47.4647 H   0  0  0  0  0  0  0  0  0  0  0  0
   60.3105   28.3114   45.8465 H   0  0  0  0  0  0  0  0  0  0  0  0
   57.9534   29.5991   47.3018 H   0  0  0  0  0  0  0  0  0  0  0  0
   59.5067   30.3606   46.7667 H   0  0  0  0  0  0  0  0  0  0  0  0
   58.8859   31.7814   47.3615 H   0  0  0  0  0  0  0  0  0  0  0  0
   60.7592   31.3679   48.5829 H   0  0  0  0  0  0  0  0  0  0  0  0
   61.9369   31.6242   47.2522 H   0  0  0  0  0  0  0  0  0  0  0  0
   62.5267   31.4881   50.2578 H   0  0  0  0  0  0  0  0  0  0  0  0
   63.0318   30.3152   48.9815 H   0  0  0  0  0  0  0  0  0  0  0  0
   63.4805   33.4931   50.4189 H   0  0  0  0  0  0  0  0  0  0  0  0
   64.7639   34.0097   49.2561 H   0  0  0  0  0  0  0  0  0  0  0  0
   62.5075   35.1277   48.9088 H   0  0  0  0  0  0  0  0  0  0  0  0
   63.1523   34.2605   47.4719 H   0  0  0  0  0  0  0  0  0  0  0  0
  1  2  2  0
  2  3  1  0
  3  4  2  0
  4  5  1  0
  5  6  2  0
  6  7  1  0
  7  8  1  0
  8  9  2  0
  8 10  1  0
 10 11  1  0
 11 12  1  0
 12 13  1  0
 13 14  1  0
 14 15  2  0
 14 16  1  0
 16 17  1  0
 17 18  1  0
 13 19  1  0
 19 20  1  0
  7 21  2  0
  2 22  1  0
 22 23  1  0
 23 24  1  0
 24 25  1  0
 25 26  1  0
 26 27  1  0
 21  3  1  0
 27 22  1  0
 20 10  1  0
 18 16  1  0
  4 28  1  0
  5 29  1  0
  6 30  1  0
 11 31  1  0
 11 32  1  0
 12 33  1  0
 12 34  1  0
 16 35  1  0
 17 36  1  0
 17 37  1  0
 18 38  1  0
 18 39  1  0
 19 40  1  0
 19 41  1  0
 20 42  1  0
 20 43  1  0
 21 44  1  0
 23 45  1  0
 23 46  1  0
 24 47  1  0
 24 48  1  0
 26 49  1  0
 26 50  1  0
 27 51  1  0
 27 52  1  0
M  END
>  <UniqueID>  (27) 
26

>  <SMILES>  (27) 
O=C(c1cccc(C(=O)N2CCN(C(=O)C3CC3)CC2)c1)N1CCOCC1

>  <Energy>  (27) 
329.06372744279787

>  <Genealogy>  (27) 
O=C(c1cccc(C(=O)N2CCN(C(=O)C3CC3)CC2)c1)N1CCOCC1 (3D coordinates assigned)
O=C(c1cccc(C(=O)N2CCN(C(=O)C3CC3)CC2)c1)N1CCOCC1 (nonaromatic ring conformer: 329.06372744279787 kcal/mol)

>  <smiles>  (27) 
O=C(c1cccc(C(=O)N2CCN(C(=O)C3CC3)CC2)c1)N1CCOCC1

>  <score_type>  (27) 
oracle

>  <origin>  (27) 
adg

>  <m_score__min__energy>  (27) 
-8.5800000000000001

>  <m_primary>  (27) 
energy

$$$$
27:0
     RDKit          3D

 61 65  0  0  1  0  0  0  0  0999 V2000
   53.7920   22.2880   46.9170 C   0  0  0  0  0  0  0  0  0  0  0  0
   54.2270   22.8060   45.5950 C   0  0  0  0  0  0  0  0  0  0  0  0
   53.3190   23.3300   44.8630 O   0  0  0  0  0  0  0  0  0  0  0  0
   55.5830   22.7300   45.1490 N   0  0  0  0  0  0  0  0  0  0  0  0
   56.5410   22.1210   46.0420 C   0  0  0  0  0  0  0  0  0  0  0  0
   57.8080   21.8970   45.2450 C   0  0  0  0  0  0  0  0  0  0  0  0
   58.2190   23.1490   44.6850 N   0  0  0  0  0  0  0  0  0  0  0  0
   58.6920   24.1150   45.6450 C   0  0  0  0  0  0  0  0  0  0  0  0
   58.0300   25.4220   45.5050 C   0  0  0  0  0  0  0  0  0  0  0  0
   58.5920   26.5020   44.8430 C   0  0  0  0  0  0  0  0  0  0  0  0
   57.9250   27.7160   44.7380 C   0  0  0  0  0  0  0  0  0  0  0  0
   56.6690   27.8590   45.3050 C   0  0  0  0  0  0  0  0  0  0  0  0
   55.9800   29.0980   45.2030 N   0  0  0  0  0  0  0  0  0  0  0  0
   56.5020   30.0360   44.5010 C   0  0  0  0  0  0  0  0  0  0  0  0
   57.1390   31.0200   45.2000 N   0  0  0  0  0  0  0  0  0  0  0  0
   57.7250   32.0580   44.5770 C   0  0  0  0  0  0  0  0  0  0  0  0
   58.4000   33.0960   45.3520 C   0  0  0  0  0  0  0  0  0  0  0  0
   58.9020   32.9440   46.6290 C   0  0  0  0  0  0  0  0  0  0  0  0
   59.4710   34.1330   47.0500 C   0  0  0  0  0  0  0  0  0  0  0  0
   60.0400   34.3680   48.1880 N   0  0  0  0  0  0  0  0  0  0  0  0
   61.4140   34.0370   48.3520 C   0  0  0  0  0  0  0  0  0  0  0  0
   62.0240   34.4390   49.3670 O   0  0  0  0  0  0  0  0  0  0  0  0
   62.0510   33.2210   47.2890 C   0  0  0  0  0  0  0  0  0  0  0  0
   63.3960   32.6240   47.5080 C   0  0  0  0  0  0  0  0  0  0  0  0
   63.3080   33.8030   46.6170 C   0  0  0  0  0  0  0  0  0  0  0  0
   59.2990   34.9870   46.0040 N   0  0  0  0  0  0  0  0  0  0  0  0
   58.6730   34.3710   45.0180 N   0  0  0  0  0  0  0  0  0  0  0  0
   57.6930   32.1460   43.1980 C   0  0  0  0  0  0  0  0  0  0  0  0
   57.0420   31.1360   42.5110 C   0  0  0  0  0  0  0  0  0  0  0  0
   56.4520   30.0920   43.1580 N   0  0  0  0  0  0  0  0  0  0  0  0
   56.1420   26.7640   45.9550 C   0  0  0  0  0  0  0  0  0  0  0  0
   56.7970   25.5900   46.0520 N   0  0  0  0  0  0  0  0  0  0  0  0
   57.3400   23.6870   43.7050 C   0  0  0  0  0  0  0  0  0  0  0  0
   55.9070   23.2600   43.8500 C   0  0  0  0  0  0  0  0  0  0  0  0
   54.2783   22.8671   47.7158 H   0  0  0  0  0  0  0  0  0  0  0  0
   52.6999   22.3842   47.0072 H   0  0  0  0  0  0  0  0  0  0  0  0
   54.0755   21.2290   47.0072 H   0  0  0  0  0  0  0  0  0  0  0  0
   56.7427   22.7890   46.8923 H   0  0  0  0  0  0  0  0  0  0  0  0
   56.1561   21.1716   46.4427 H   0  0  0  0  0  0  0  0  0  0  0  0
   58.5977   21.5084   45.9048 H   0  0  0  0  0  0  0  0  0  0  0  0
   57.6249   21.1670   44.4428 H   0  0  0  0  0  0  0  0  0  0  0  0
   58.4999   23.7293   46.6571 H   0  0  0  0  0  0  0  0  0  0  0  0
   59.7669   24.2647   45.4655 H   0  0  0  0  0  0  0  0  0  0  0  0
   59.5889   26.3955   44.3904 H   0  0  0  0  0  0  0  0  0  0  0  0
   58.3915   28.5592   44.2076 H   0  0  0  0  0  0  0  0  0  0  0  0
   58.8566   32.0185   47.2217 H   0  0  0  0  0  0  0  0  0  0  0  0
   61.0771   32.8238   46.9668 H   0  0  0  0  0  0  0  0  0  0  0  0
   63.8797   32.7213   48.4911 H   0  0  0  0  0  0  0  0  0  0  0  0
   63.8086   31.6107   47.3940 H   0  0  0  0  0  0  0  0  0  0  0  0
   63.7100   34.7736   46.9431 H   0  0  0  0  0  0  0  0  0  0  0  0
   63.6110   34.0290   45.5840 H   0  0  0  0  0  0  0  0  0  0  0  0
   59.6360   35.9730   46.0370 H   0  0  0  0  0  0  0  0  0  0  0  0
   58.4250   34.8150   44.1090 H   0  0  0  0  0  0  0  0  0  0  0  0
   58.1662   32.9855   42.6675 H   0  0  0  0  0  0  0  0  0  0  0  0
   56.9998   31.1773   41.4126 H   0  0  0  0  0  0  0  0  0  0  0  0
   55.9650   29.3360   42.6490 H   0  0  0  0  0  0  0  0  0  0  0  0
   55.1459   26.8517   46.4135 H   0  0  0  0  0  0  0  0  0  0  0  0
   57.3799   24.7842   43.7733 H   0  0  0  0  0  0  0  0  0  0  0  0
   57.6834   23.3031   42.7331 H   0  0  0  0  0  0  0  0  0  0  0  0
   55.2651   24.1334   43.6627 H   0  0  0  0  0  0  0  0  0  0  0  0
   55.7412   22.4496   43.1249 H   0  0  0  0  0  0  0  0  0  0  0  0
  1  2  1  0
  2  3  2  0
  2  4  1  0
  4  5  1  0
  5  6  1  0
  6  7  1  0
  7  8  1  0
  8  9  1  0
  9 10  2  0
 10 11  1  0
 11 12  2  0
 12 13  1  0
 13 14  2  0
 14 15  1  0
 15 16  2  0
 16 17  1  0
 17 18  2  0
 18 19  1  0
 19 20  2  0
 20 21  1  0
 21 22  2  0
 21 23  1  0
 23 24  1  0
 24 25  1  0
 19 26  1  0
 26 27  1  0
 16 28  1  0
 28 29  2  0
 29 30  1  0
 12 31  1  0
 31 32  2  0
  7 33  1  0
 33 34  1  0
 34  4  1  0
 32  9  1  0
 30 14  1  0
 27 17  1  0
 25 23  1  0
  1 35  1  0
  1 36  1  0
  1 37  1  0
  5 38  1  0
  5 39  1  0
  6 40  1  0
  6 41  1  0
  8 42  1  0
  8 43  1  0
 10 44  1  0
 11 45  1  0
 18 46  1  0
 23 47  1  0
 24 48  1  0
 24 49  1  0
 25 50  1  0
 25 51  1  0
 26 52  1  0
 27 53  1  0
 28 54  1  0
 29 55  1  0
 30 56  1  0
 31 57  1  0
 33 58  1  0
 33 59  1  0
 34 60  1  0
 34 61  1  0
M  END
>  <smiles>  (28) 
CC(=O)N1CCN(Cc2ccc(N=c3nc(-c4cc(=NC(=O)C5CC5)[nH][nH]4)cc[nH]3)cn2)CC1

>  <score_type>  (28) 
oracle

>  <origin>  (28) 
adg

>  <m_score__min__energy>  (28) 
-9.9900000000000002

>  <m_primary>  (28) 
energy

$$$$
28:0
     RDKit          3D

 52 55  0  0  0  0  0  0  0  0999 V2000
   56.3130   31.3380   44.8410 O   0  0  0  0  0  0  0  0  0  0  0  0
   57.3480   30.6240   44.9350 C   0  0  0  0  0  0  0  0  0  0  0  0
   58.6440   31.2170   44.7640 N   0  0  0  0  0  0  0  0  0  0  0  0
   58.8260   32.6470   44.5270 C   0  0  0  0  0  0  0  0  0  0  0  0
   59.1270   33.3570   45.8210 C   0  0  0  0  0  0  0  0  0  0  0  0
   59.1890   32.6380   47.0260 C   0  0  0  0  0  0  0  0  0  0  0  0
   59.4470   33.3000   48.2300 C   0  0  0  0  0  0  0  0  0  0  0  0
   59.6440   34.6830   48.2410 C   0  0  0  0  0  0  0  0  0  0  0  0
   59.5820   35.4070   47.0470 C   0  0  0  0  0  0  0  0  0  0  0  0
   59.3230   34.7500   45.8390 C   0  0  0  0  0  0  0  0  0  0  0  0
   59.2620   35.4710   44.6910 F   0  0  0  0  0  0  0  0  0  0  0  0
   57.2100   29.1720   45.2010 C   0  0  0  0  0  0  0  0  0  0  0  0
   55.9320   28.5820   45.2500 C   0  0  0  0  0  0  0  0  0  0  0  0
   54.7880   29.3440   45.0390 O   0  0  0  0  0  0  0  0  0  0  0  0
   55.8000   27.2520   45.4880 N   0  0  0  0  0  0  0  0  0  0  0  0
   56.8710   26.4430   45.6900 C   0  0  0  0  0  0  0  0  0  0  0  0
   56.6760   25.0780   45.9260 C   0  0  0  0  0  0  0  0  0  0  0  0
   57.7760   24.2340   46.1380 C   0  0  0  0  0  0  0  0  0  0  0  0
   57.5460   22.5090   46.4090 S   0  0  0  0  0  0  0  0  0  0  0  0
   58.7810   21.7840   45.9480 O   0  0  0  0  0  0  0  0  0  0  0  0
   57.3520   22.2420   47.8760 O   0  0  0  0  0  0  0  0  0  0  0  0
   56.1520   21.9680   45.5000 N   0  0  0  0  0  0  0  0  0  0  0  0
   56.2010   20.5100   45.2200 C   0  0  0  0  0  0  0  0  0  0  0  0
   56.2530   20.1590   43.7220 C   0  0  0  0  0  0  0  0  0  0  0  0
   57.2480   21.0630   42.9970 C   0  0  0  0  0  0  0  0  0  0  0  0
   56.9030   22.5530   43.1720 C   0  0  0  0  0  0  0  0  0  0  0  0
   55.9050   22.8150   44.3160 C   0  0  0  0  0  0  0  0  0  0  0  0
   59.0720   24.7620   46.1060 C   0  0  0  0  0  0  0  0  0  0  0  0
   59.2750   26.1250   45.8740 C   0  0  0  0  0  0  0  0  0  0  0  0
   58.1770   26.9790   45.6600 C   0  0  0  0  0  0  0  0  0  0  0  0
   58.3410   28.3580   45.4230 C   0  0  0  0  0  0  0  0  0  0  0  0
   59.4960   28.8670   45.4310 O   0  0  0  0  0  0  0  0  0  0  0  0
   59.4930   30.6060   44.7510 H   0  0  0  0  0  0  0  0  0  0  0  0
   59.6626   32.7955   43.8284 H   0  0  0  0  0  0  0  0  0  0  0  0
   57.9003   33.0596   44.0993 H   0  0  0  0  0  0  0  0  0  0  0  0
   59.0338   31.5490   47.0223 H   0  0  0  0  0  0  0  0  0  0  0  0
   59.4950   32.7310   49.1702 H   0  0  0  0  0  0  0  0  0  0  0  0
   59.8479   35.2021   49.1891 H   0  0  0  0  0  0  0  0  0  0  0  0
   59.7372   36.4960   47.0570 H   0  0  0  0  0  0  0  0  0  0  0  0
   55.6566   24.6652   45.9454 H   0  0  0  0  0  0  0  0  0  0  0  0
   57.0980   20.0954   45.7033 H   0  0  0  0  0  0  0  0  0  0  0  0
   55.2686   20.0798   45.6144 H   0  0  0  0  0  0  0  0  0  0  0  0
   56.5649   19.1105   43.6061 H   0  0  0  0  0  0  0  0  0  0  0  0
   55.2539   20.3068   43.2862 H   0  0  0  0  0  0  0  0  0  0  0  0
   58.2544   20.8810   43.4021 H   0  0  0  0  0  0  0  0  0  0  0  0
   57.2039   20.8267   41.9236 H   0  0  0  0  0  0  0  0  0  0  0  0
   57.8310   23.1040   43.3847 H   0  0  0  0  0  0  0  0  0  0  0  0
   56.4267   22.8898   42.2394 H   0  0  0  0  0  0  0  0  0  0  0  0
   55.9849   23.8701   44.6166 H   0  0  0  0  0  0  0  0  0  0  0  0
   54.9005   22.5711   43.9398 H   0  0  0  0  0  0  0  0  0  0  0  0
   59.9360   24.0999   46.2645 H   0  0  0  0  0  0  0  0  0  0  0  0
   60.2968   26.5320   45.8586 H   0  0  0  0  0  0  0  0  0  0  0  0
  1  2  2  0
  2  3  1  0
  3  4  1  0
  4  5  1  0
  5  6  2  0
  6  7  1  0
  7  8  2  0
  8  9  1  0
  9 10  2  0
 10 11  1  0
  2 12  1  0
 12 13  2  0
 13 14  1  0
 13 15  1  0
 15 16  1  0
 16 17  2  0
 17 18  1  0
 18 19  1  0
 19 20  2  0
 19 21  2  0
 19 22  1  0
 22 23  1  0
 23 24  1  0
 24 25  1  0
 25 26  1  0
 26 27  1  0
 18 28  2  0
 28 29  1  0
 29 30  2  0
 30 31  1  0
 31 32  2  0
 10  5  1  0
 31 12  1  0
 30 16  1  0
 27 22  1  0
  3 33  1  0
  4 34  1  0
  4 35  1  0
  6 36  1  0
  7 37  1  0
  8 38  1  0
  9 39  1  0
 17 40  1  0
 23 41  1  0
 23 42  1  0
 24 43  1  0
 24 44  1  0
 25 45  1  0
 25 46  1  0
 26 47  1  0
 26 48  1  0
 27 49  1  0
 27 50  1  0
 28 51  1  0
 29 52  1  0
M  CHG  2  14  -1  15  -1
M  END
>  <UniqueID>  (29) 
27

>  <SMILES>  (29) 
O=C(NCc1ccccc1F)c1c([O-])[n-]c2cc(S(=O)(=O)N3CCCCC3)ccc2c1=O

>  <Energy>  (29) 
70.9794825979004

>  <Genealogy>  (29) 
O=C(NCc1ccccc1F)c1c([O-])[n-]c2cc(S(=O)(=O)N3CCCCC3)ccc2c1=O (protonated)
O=C(NCc1ccccc1F)c1c([O-])[n-]c2cc(S(=O)(=O)N3CCCCC3)ccc2c1=O (3D coordinates assigned)
O=C(NCc1ccccc1F)c1c([O-])[n-]c2cc(S(=O)(=O)N3CCCCC3)ccc2c1=O (nonaromatic ring conformer: 70.9794825979004 kcal/mol)

>  <smiles>  (29) 
O=C(NCc1ccccc1F)c1c(O)[nH]c2cc(S(=O)(=O)N3CCCCC3)ccc2c1=O

>  <score_type>  (29) 
oracle

>  <origin>  (29) 
adg

>  <m_score__min__energy>  (29) 
-14.359999999999999

>  <m_primary>  (29) 
energy

$$$$
29:0
     RDKit          3D

 56 59  0  0  0  0  0  0  0  0999 V2000
   55.4380   23.1590   42.9930 C   0  0  0  0  0  0  0  0  0  0  0  0
   56.4190   22.4630   43.9550 C   0  0  0  0  0  0  0  0  0  0  0  0
   57.2350   21.3920   43.2230 C   0  0  0  0  0  0  0  0  0  0  0  0
   57.3260   23.4000   44.6690 N   0  0  0  0  0  0  0  0  0  0  0  0
   56.8900   23.7710   46.0300 C   0  0  0  0  0  0  0  0  0  0  0  0
   57.6370   25.0320   46.4990 C   0  0  0  0  0  0  0  0  0  0  0  0
   59.0650   25.1120   45.9150 C   0  0  0  0  0  0  0  0  0  0  0  0
   59.9620   25.8830   46.7810 N   0  0  0  0  0  0  0  0  0  0  0  0
   59.6470   27.1250   47.4230 C   0  0  0  0  0  0  0  0  0  0  0  0
   59.9260   27.3010   48.6370 O   0  0  0  0  0  0  0  0  0  0  0  0
   58.9860   28.1930   46.6500 C   0  0  0  0  0  0  0  0  0  0  0  0
   57.6660   28.1210   46.2150 C   0  0  0  0  0  0  0  0  0  0  0  0
   57.4560   29.2720   45.4920 C   0  0  0  0  0  0  0  0  0  0  0  0
   56.3220   29.7130   44.8120 C   0  0  0  0  0  0  0  0  0  0  0  0
   55.1480   28.9700   44.8130 O   0  0  0  0  0  0  0  0  0  0  0  0
   56.3990   30.9330   44.1190 C   0  0  0  0  0  0  0  0  0  0  0  0
   57.6000   31.6730   44.1160 C   0  0  0  0  0  0  0  0  0  0  0  0
   58.7310   31.2030   44.8060 C   0  0  0  0  0  0  0  0  0  0  0  0
   58.6270   29.9900   45.4990 C   0  0  0  0  0  0  0  0  0  0  0  0
   59.5770   29.3420   46.2130 N   0  0  0  0  0  0  0  0  0  0  0  0
   60.9950   29.7160   46.3430 C   0  0  0  0  0  0  0  0  0  0  0  0
   61.1340   30.9930   47.1320 C   0  0  0  0  0  0  0  0  0  0  0  0
   60.0450   31.4930   47.8670 C   0  0  0  0  0  0  0  0  0  0  0  0
   60.1640   32.6890   48.5810 C   0  0  0  0  0  0  0  0  0  0  0  0
   61.3710   33.3930   48.5720 C   0  0  0  0  0  0  0  0  0  0  0  0
   61.4830   34.5550   49.2610 F   0  0  0  0  0  0  0  0  0  0  0  0
   62.4640   32.8940   47.8570 C   0  0  0  0  0  0  0  0  0  0  0  0
   62.3500   31.6960   47.1460 C   0  0  0  0  0  0  0  0  0  0  0  0
   59.6420   23.7170   45.6180 C   0  0  0  0  0  0  0  0  0  0  0  0
   58.7360   22.9390   44.6410 C   0  0  0  0  0  0  0  0  0  0  0  0
   54.6762   23.6995   43.5739 H   0  0  0  0  0  0  0  0  0  0  0  0
   55.9883   23.8698   42.3590 H   0  0  0  0  0  0  0  0  0  0  0  0
   54.9489   22.4048   42.3590 H   0  0  0  0  0  0  0  0  0  0  0  0
   55.7931   21.9885   44.7251 H   0  0  0  0  0  0  0  0  0  0  0  0
   57.7304   20.7417   43.9590 H   0  0  0  0  0  0  0  0  0  0  0  0
   56.5657   20.7885   42.5923 H   0  0  0  0  0  0  0  0  0  0  0  0
   57.9945   21.8771   42.5923 H   0  0  0  0  0  0  0  0  0  0  0  0
   55.8082   23.9701   46.0239 H   0  0  0  0  0  0  0  0  0  0  0  0
   57.1142   22.9427   46.7183 H   0  0  0  0  0  0  0  0  0  0  0  0
   57.0720   25.9193   46.1774 H   0  0  0  0  0  0  0  0  0  0  0  0
   57.7210   24.9882   47.5949 H   0  0  0  0  0  0  0  0  0  0  0  0
   58.9877   25.6464   44.9566 H   0  0  0  0  0  0  0  0  0  0  0  0
   56.9436   27.3143   46.4085 H   0  0  0  0  0  0  0  0  0  0  0  0
   55.5200   31.3122   43.5771 H   0  0  0  0  0  0  0  0  0  0  0  0
   57.6519   32.6260   43.5691 H   0  0  0  0  0  0  0  0  0  0  0  0
   59.6722   31.7723   44.8019 H   0  0  0  0  0  0  0  0  0  0  0  0
   61.5360   28.9100   46.8605 H   0  0  0  0  0  0  0  0  0  0  0  0
   61.4156   29.8709   45.3385 H   0  0  0  0  0  0  0  0  0  0  0  0
   59.0941   30.9402   47.8804 H   0  0  0  0  0  0  0  0  0  0  0  0
   59.3064   33.0764   49.1506 H   0  0  0  0  0  0  0  0  0  0  0  0
   63.4158   33.4455   47.8540 H   0  0  0  0  0  0  0  0  0  0  0  0
   63.2166   31.3019   46.5949 H   0  0  0  0  0  0  0  0  0  0  0  0
   60.6406   23.8288   45.1706 H   0  0  0  0  0  0  0  0  0  0  0  0
   59.7026   23.1552   46.5618 H   0  0  0  0  0  0  0  0  0  0  0  0
   59.1273   23.0682   43.6211 H   0  0  0  0  0  0  0  0  0  0  0  0
   58.7444   21.8840   44.9523 H   0  0  0  0  0  0  0  0  0  0  0  0
  1  2  1  0
  2  3  1  0
  2  4  1  0
  4  5  1  0
  5  6  1  0
  6  7  1  0
  7  8  1  0
  8  9  1  0
  9 10  2  0
  9 11  1  0
 11 12  2  0
 12 13  1  0
 13 14  2  0
 14 15  1  0
 14 16  1  0
 16 17  2  0
 17 18  1  0
 18 19  2  0
 19 20  1  0
 20 21  1  0
 21 22  1  0
 22 23  2  0
 23 24  1  0
 24 25  2  0
 25 26  1  0
 25 27  1  0
 27 28  2  0
  7 29  1  0
 29 30  1  0
 30  4  1  0
 20 11  1  0
 28 22  1  0
 19 13  1  0
  1 31  1  0
  1 32  1  0
  1 33  1  0
  2 34  1  0
  3 35  1  0
  3 36  1  0
  3 37  1  0
  5 38  1  0
  5 39  1  0
  6 40  1  0
  6 41  1  0
  7 42  1  0
 12 43  1  0
 16 44  1  0
 17 45  1  0
 18 46  1  0
 21 47  1  0
 21 48  1  0
 23 49  1  0
 24 50  1  0
 27 51  1  0
 28 52  1  0
 29 53  1  0
 29 54  1  0
 30 55  1  0
 30 56  1  0
M  CHG  2   8  -1  15  -1
M  END
>  <UniqueID>  (30) 
28

>  <SMILES>  (30) 
CC(C)N1CCC([N-]C(=O)c2cc3c([O-])cccc3n2Cc2ccc(F)cc2)CC1

>  <Energy>  (30) 
99.40056205546479

>  <Genealogy>  (30) 
CC(C)N1CCC([N-]C(=O)c2cc3c([O-])cccc3n2Cc2ccc(F)cc2)CC1 (protonated)
CC(C)N1CCC([N-]C(=O)c2cc3c([O-])cccc3n2Cc2ccc(F)cc2)CC1 (3D coordinates assigned)
CC(C)N1CCC([N-]C(=O)c2cc3c([O-])cccc3n2Cc2ccc(F)cc2)CC1 (nonaromatic ring conformer: 99.40056205546479 kcal/mol)

>  <smiles>  (30) 
CC(C)N1CCC(NC(=O)c2cc3c(O)cccc3n2Cc2ccc(F)cc2)CC1

>  <score_type>  (30) 
oracle

>  <origin>  (30) 
adg

>  <m_score__min__energy>  (30) 
-13.48

>  <m_primary>  (30) 
energy

$$$$
30:0
     RDKit          3D

 50 53  0  0  0  0  0  0  0  0999 V2000
   53.5680   27.8840   53.4250 C   0  0  0  0  0  0  0  0  0  0  0  0
   54.1550   29.0000   52.9610 C   0  0  0  0  0  0  0  0  0  0  0  0
   53.5140   30.1990   52.6130 C   0  0  0  0  0  0  0  0  0  0  0  0
   52.2140   30.4730   52.3900 C   0  0  0  0  0  0  0  0  0  0  0  0
   51.6340   30.8680   51.0940 C   0  0  0  0  0  0  0  0  0  0  0  0
   51.6270   30.1030   49.9870 N   0  0  0  0  0  0  0  0  0  0  0  0
   51.0920   30.9150   49.0490 C   0  0  0  0  0  0  0  0  0  0  0  0
   50.8980   30.5470   47.8630 O   0  0  0  0  0  0  0  0  0  0  0  0
   50.7830   32.1560   49.4830 N   0  0  0  0  0  0  0  0  0  0  0  0
   51.1450   32.1120   50.7760 C   0  0  0  0  0  0  0  0  0  0  0  0
   51.0320   33.1860   51.6470 O   0  0  0  0  0  0  0  0  0  0  0  0
   54.5100   31.1510   52.5060 C   0  0  0  0  0  0  0  0  0  0  0  0
   55.7120   30.5040   52.7120 C   0  0  0  0  0  0  0  0  0  0  0  0
   57.0200   31.1950   52.7450 C   0  0  0  0  0  0  0  0  0  0  0  0
   57.1530   32.2700   53.3870 O   0  0  0  0  0  0  0  0  0  0  0  0
   58.1110   30.6890   51.9610 N   0  0  0  0  0  0  0  0  0  0  0  0
   58.3240   30.9890   50.5740 C   0  0  0  0  0  0  0  0  0  0  0  0
   58.2510   32.3160   50.1420 C   0  0  0  0  0  0  0  0  0  0  0  0
   58.5060   32.6380   48.8050 C   0  0  0  0  0  0  0  0  0  0  0  0
   58.8260   31.6300   47.8920 C   0  0  0  0  0  0  0  0  0  0  0  0
   58.8630   30.2920   48.3010 C   0  0  0  0  0  0  0  0  0  0  0  0
   59.2470   29.0310   47.1260 S   0  0  0  0  0  0  0  0  0  0  0  0
   60.4540   29.4600   46.3430 O   0  0  0  0  0  0  0  0  0  0  0  0
   59.5620   27.7440   47.8360 O   0  0  0  0  0  0  0  0  0  0  0  0
   57.9440   28.7740   46.0080 N   0  0  0  0  0  0  0  0  0  0  0  0
   57.6410   29.5850   44.8640 C   0  0  0  0  0  0  0  0  0  0  0  0
   58.3440   30.7840   44.6900 C   0  0  0  0  0  0  0  0  0  0  0  0
   58.0400   31.6360   43.6220 C   0  0  0  0  0  0  0  0  0  0  0  0
   57.0300   31.2950   42.7200 C   0  0  0  0  0  0  0  0  0  0  0  0
   56.3260   30.1010   42.8810 C   0  0  0  0  0  0  0  0  0  0  0  0
   56.6280   29.2430   43.9450 C   0  0  0  0  0  0  0  0  0  0  0  0
   58.5880   29.9710   49.6400 C   0  0  0  0  0  0  0  0  0  0  0  0
   55.5010   29.1840   52.9410 N   0  0  0  0  0  0  0  0  0  0  0  0
   56.5340   28.1680   53.1850 C   0  0  0  0  0  0  0  0  0  0  0  0
   54.1781   27.0007   53.6650 H   0  0  0  0  0  0  0  0  0  0  0  0
   52.4773   27.8536   53.5648 H   0  0  0  0  0  0  0  0  0  0  0  0
   51.5283   30.3955   53.2466 H   0  0  0  0  0  0  0  0  0  0  0  0
   54.3713   32.2219   52.2963 H   0  0  0  0  0  0  0  0  0  0  0  0
   57.9918   33.1110   50.8567 H   0  0  0  0  0  0  0  0  0  0  0  0
   58.4546   33.6852   48.4722 H   0  0  0  0  0  0  0  0  0  0  0  0
   59.0499   31.8892   46.8467 H   0  0  0  0  0  0  0  0  0  0  0  0
   59.1405   31.0578   45.3976 H   0  0  0  0  0  0  0  0  0  0  0  0
   58.5974   32.5755   43.4930 H   0  0  0  0  0  0  0  0  0  0  0  0
   56.7895   31.9672   41.8831 H   0  0  0  0  0  0  0  0  0  0  0  0
   55.5311   29.8331   42.1694 H   0  0  0  0  0  0  0  0  0  0  0  0
   56.0740   28.3002   44.0643 H   0  0  0  0  0  0  0  0  0  0  0  0
   58.5790   28.9186   49.9600 H   0  0  0  0  0  0  0  0  0  0  0  0
   56.6690   28.0352   54.2686 H   0  0  0  0  0  0  0  0  0  0  0  0
   56.2234   27.2137   52.7345 H   0  0  0  0  0  0  0  0  0  0  0  0
   57.4830   28.4944   52.7345 H   0  0  0  0  0  0  0  0  0  0  0  0
  1  2  2  0
  2  3  1  0
  3  4  2  3
  4  5  1  0
  5  6  1  0
  6  7  1  0
  7  8  2  0
  7  9  1  0
  9 10  1  0
 10 11  1  0
  3 12  1  0
 12 13  2  0
 13 14  1  0
 14 15  2  0
 14 16  1  0
 16 17  1  0
 17 18  2  0
 18 19  1  0
 19 20  2  0
 20 21  1  0
 21 22  1  0
 22 23  2  0
 22 24  2  0
 22 25  1  0
 25 26  1  0
 26 27  2  0
 27 28  1  0
 28 29  2  0
 29 30  1  0
 30 31  2  0
 21 32  2  0
 13 33  1  0
 33 34  1  0
 33  2  1  0
 10  5  2  0
 32 17  1  0
 31 26  1  0
  1 35  1  0
  1 36  1  0
  4 37  1  0
 12 38  1  0
 18 39  1  0
 19 40  1  0
 20 41  1  0
 27 42  1  0
 28 43  1  0
 29 44  1  0
 30 45  1  0
 31 46  1  0
 32 47  1  0
 34 48  1  0
 34 49  1  0
 34 50  1  0
M  CHG  5   6  -1   9  -1  11  -1  16  -1  25  -1
M  END
>  <UniqueID>  (31) 
29

>  <SMILES>  (31) 
C=c1c(=Cc2[n-]c(=O)[n-]c2[O-])cc(C(=O)[N-]c2cccc(S(=O)(=O)[N-]c3ccccc3)c2)n1C

>  <Energy>  (31) 
132.29134108444765

>  <Genealogy>  (31) 
C=c1c(=Cc2[n-]c(=O)[n-]c2[O-])cc(C(=O)[N-]c2cccc(S(=O)(=O)[N-]c3ccccc3)c2)n1C (protonated)
C=c1c(=Cc2[n-]c(=O)[n-]c2[O-])cc(C(=O)[N-]c2cccc(S(=O)(=O)[N-]c3ccccc3)c2)n1C (3D coordinates assigned)
C=c1c(=Cc2[n-]c(=O)[n-]c2[O-])cc(C(=O)[N-]c2cccc(S(=O)(=O)[N-]c3ccccc3)c2)n1C (optimized conformer: 132.29134108444765 kcal/mol)

>  <smiles>  (31) 
C=c1c(=Cc2[nH]c(=O)[nH]c2O)cc(C(=O)Nc2cccc(S(=O)(=O)Nc3ccccc3)c2)n1C

>  <score_type>  (31) 
oracle

>  <origin>  (31) 
adg

>  <m_score__min__energy>  (31) 
-21.280000000000001

>  <m_primary>  (31) 
energy

$$$$
31:0
     RDKit          3D

 47 50  0  0  0  0  0  0  0  0999 V2000
   56.1490   22.8650   48.3010 C   0  0  0  0  0  0  0  0  0  0  0  0
   56.4780   23.7980   47.2280 N   0  0  0  0  0  0  0  0  0  0  0  0
   56.9690   25.0420   47.4040 C   0  0  0  0  0  0  0  0  0  0  0  0
   57.0540   25.6840   46.1820 C   0  0  0  0  0  0  0  0  0  0  0  0
   57.5180   27.0590   45.9540 C   0  0  0  0  0  0  0  0  0  0  0  0
   57.1720   27.7780   44.8650 N   0  0  0  0  0  0  0  0  0  0  0  0
   57.8070   28.9480   45.0440 C   0  0  0  0  0  0  0  0  0  0  0  0
   57.8280   29.9970   44.0650 N   0  0  0  0  0  0  0  0  0  0  0  0
   56.8310   31.0650   44.0570 C   0  0  0  0  0  0  0  0  0  0  0  0
   57.3960   32.3030   44.6780 C   0  0  0  0  0  0  0  0  0  0  0  0
   58.4030   33.0850   44.1630 C   0  0  0  0  0  0  0  0  0  0  0  0
   58.6640   34.0790   45.0270 N   0  0  0  0  0  0  0  0  0  0  0  0
   57.8060   33.8660   46.0460 C   0  0  0  0  0  0  0  0  0  0  0  0
   57.0170   32.7850   45.8740 N   0  0  0  0  0  0  0  0  0  0  0  0
   58.5180   28.9150   46.2300 C   0  0  0  0  0  0  0  0  0  0  0  0
   59.3430   29.9830   46.8290 C   0  0  0  0  0  0  0  0  0  0  0  0
   58.7980   30.8830   47.7620 C   0  0  0  0  0  0  0  0  0  0  0  0
   59.6000   31.8750   48.3360 C   0  0  0  0  0  0  0  0  0  0  0  0
   60.9530   31.9680   47.9960 C   0  0  0  0  0  0  0  0  0  0  0  0
   61.7290   32.9270   48.5560 F   0  0  0  0  0  0  0  0  0  0  0  0
   61.5070   31.0620   47.0870 C   0  0  0  0  0  0  0  0  0  0  0  0
   60.7080   30.0690   46.5100 C   0  0  0  0  0  0  0  0  0  0  0  0
   58.3390   27.7110   46.8040 N   0  0  0  0  0  0  0  0  0  0  0  0
   56.6000   24.8020   45.2200 C   0  0  0  0  0  0  0  0  0  0  0  0
   56.2760   23.6470   45.8990 C   0  0  0  0  0  0  0  0  0  0  0  0
   55.7280   22.4840   45.2680 N   0  0  0  0  0  0  0  0  0  0  0  0
   56.3770   21.7750   43.8260 S   0  0  0  0  0  0  0  0  0  0  0  0
   58.1550   21.8470   43.8540 C   0  0  0  0  0  0  0  0  0  0  0  0
   55.8930   22.5650   42.6420 O   0  0  0  0  0  0  0  0  0  0  0  0
   55.9130   20.3540   43.6880 O   0  0  0  0  0  0  0  0  0  0  0  0
   56.3199   23.3497   49.2736 H   0  0  0  0  0  0  0  0  0  0  0  0
   55.0925   22.5697   48.2191 H   0  0  0  0  0  0  0  0  0  0  0  0
   56.7866   21.9724   48.2191 H   0  0  0  0  0  0  0  0  0  0  0  0
   57.2576   25.4789   48.3714 H   0  0  0  0  0  0  0  0  0  0  0  0
   58.5380   29.9820   43.3000 H   0  0  0  0  0  0  0  0  0  0  0  0
   56.5375   31.2805   43.0190 H   0  0  0  0  0  0  0  0  0  0  0  0
   55.9533   30.7413   44.6357 H   0  0  0  0  0  0  0  0  0  0  0  0
   58.9113   32.9228   43.2011 H   0  0  0  0  0  0  0  0  0  0  0  0
   57.7544   34.5131   46.9341 H   0  0  0  0  0  0  0  0  0  0  0  0
   57.7369   30.8066   48.0415 H   0  0  0  0  0  0  0  0  0  0  0  0
   59.1652   32.5835   49.0565 H   0  0  0  0  0  0  0  0  0  0  0  0
   62.5731   31.1299   46.8249 H   0  0  0  0  0  0  0  0  0  0  0  0
   61.1511   29.3521   45.8030 H   0  0  0  0  0  0  0  0  0  0  0  0
   56.5149   24.9836   44.1384 H   0  0  0  0  0  0  0  0  0  0  0  0
   58.5050   21.8612   44.8967 H   0  0  0  0  0  0  0  0  0  0  0  0
   58.5658   20.9648   43.3413 H   0  0  0  0  0  0  0  0  0  0  0  0
   58.4931   22.7596   43.3413 H   0  0  0  0  0  0  0  0  0  0  0  0
  1  2  1  0
  2  3  1  0
  3  4  2  0
  4  5  1  0
  5  6  2  0
  6  7  1  0
  7  8  1  0
  8  9  1  0
  9 10  1  0
 10 11  2  0
 11 12  1  0
 12 13  1  0
 13 14  2  0
  7 15  2  0
 15 16  1  0
 16 17  2  0
 17 18  1  0
 18 19  2  0
 19 20  1  0
 19 21  1  0
 21 22  2  0
 15 23  1  0
  4 24  1  0
 24 25  2  0
 25 26  1  0
 26 27  1  0
 27 28  1  0
 27 29  2  0
 27 30  2  0
 25  2  1  0
 23  5  1  0
 14 10  1  0
 22 16  1  0
  1 31  1  0
  1 32  1  0
  1 33  1  0
  3 34  1  0
  8 35  1  0
  9 36  1  0
  9 37  1  0
 11 38  1  0
 13 39  1  0
 17 40  1  0
 18 41  1  0
 21 42  1  0
 22 43  1  0
 24 44  1  0
 28 45  1  0
 28 46  1  0
 28 47  1  0
M  CHG  3  12  -1  23  -1  26  -1
M  END
>  <UniqueID>  (32) 
30

>  <SMILES>  (32) 
Cn1cc(-c2nc(NCc3c[n-]cn3)c(-c3ccc(F)cc3)[n-]2)cc1[N-]S(C)(=O)=O

>  <Energy>  (32) 
136.56602167836888

>  <Genealogy>  (32) 
Cn1cc(-c2nc(NCc3c[n-]cn3)c(-c3ccc(F)cc3)[n-]2)cc1[N-]S(C)(=O)=O (protonated)
Cn1cc(-c2nc(NCc3c[n-]cn3)c(-c3ccc(F)cc3)[n-]2)cc1[N-]S(C)(=O)=O (3D coordinates assigned)
Cn1cc(-c2nc(NCc3c[n-]cn3)c(-c3ccc(F)cc3)[n-]2)cc1[N-]S(C)(=O)=O (optimized conformer: 136.56602167836888 kcal/mol)

>  <smiles>  (32) 
Cn1cc(-c2nc(NCc3c[nH]cn3)c(-c3ccc(F)cc3)[nH]2)cc1NS(C)(=O)=O

>  <score_type>  (32) 
oracle

>  <origin>  (32) 
adg

>  <m_score__min__energy>  (32) 
-11.94

>  <m_primary>  (32) 
energy

$$$$
32:0
     RDKit          3D

 50 52  0  0  0  0  0  0  0  0999 V2000
   63.5960   34.2430   50.9040 C   0  0  0  0  0  0  0  0  0  0  0  0
   63.5080   33.4800   49.6140 C   0  0  0  0  0  0  0  0  0  0  0  0
   64.5480   32.9060   49.1930 O   0  0  0  0  0  0  0  0  0  0  0  0
   62.2690   33.3730   48.8680 N   0  0  0  0  0  0  0  0  0  0  0  0
   61.0500   34.0700   49.3260 C   0  0  0  0  0  0  0  0  0  0  0  0
   59.7960   33.2930   48.9200 C   0  0  0  0  0  0  0  0  0  0  0  0
   59.8750   32.9430   47.5020 N   0  0  0  0  0  0  0  0  0  0  0  0
   59.0890   33.6570   46.5330 C   0  0  0  0  0  0  0  0  0  0  0  0
   58.9050   34.8970   46.6750 O   0  0  0  0  0  0  0  0  0  0  0  0
   58.4740   32.9580   45.3860 C   0  0  0  0  0  0  0  0  0  0  0  0
   58.5560   33.4120   44.0690 C   0  0  0  0  0  0  0  0  0  0  0  0
   57.7700   32.3060   43.0720 S   0  0  0  0  0  0  0  0  0  0  0  0
   57.3210   31.2540   44.3000 C   0  0  0  0  0  0  0  0  0  0  0  0
   56.4660   29.7370   44.0750 S   0  0  0  0  0  0  0  0  0  0  0  0
   56.1190   29.5640   42.6220 O   0  0  0  0  0  0  0  0  0  0  0  0
   55.1920   29.7740   44.8710 O   0  0  0  0  0  0  0  0  0  0  0  0
   57.4370   28.3960   44.6120 N   0  0  0  0  0  0  0  0  0  0  0  0
   58.8460   28.7750   44.7380 C   0  0  0  0  0  0  0  0  0  0  0  0
   59.3980   28.3710   46.0810 C   0  0  0  0  0  0  0  0  0  0  0  0
   60.0320   27.1280   46.2500 C   0  0  0  0  0  0  0  0  0  0  0  0
   60.5230   26.7550   47.5030 C   0  0  0  0  0  0  0  0  0  0  0  0
   60.3960   27.6200   48.5940 C   0  0  0  0  0  0  0  0  0  0  0  0
   59.7880   28.8800   48.4380 C   0  0  0  0  0  0  0  0  0  0  0  0
   59.6030   29.7970   49.6210 C   0  0  0  0  0  0  0  0  0  0  0  0
   59.3370   29.0640   50.7670 F   0  0  0  0  0  0  0  0  0  0  0  0
   58.5470   30.6670   49.4120 F   0  0  0  0  0  0  0  0  0  0  0  0
   60.7610   30.5290   49.8150 F   0  0  0  0  0  0  0  0  0  0  0  0
   59.2720   29.2380   47.1790 C   0  0  0  0  0  0  0  0  0  0  0  0
   57.7860   31.7400   45.5120 C   0  0  0  0  0  0  0  0  0  0  0  0
   61.0430   32.1650   47.0830 C   0  0  0  0  0  0  0  0  0  0  0  0
   62.3200   32.9210   47.4630 C   0  0  0  0  0  0  0  0  0  0  0  0
   63.5154   33.5441   51.7496 H   0  0  0  0  0  0  0  0  0  0  0  0
   64.5608   34.7691   50.9538 H   0  0  0  0  0  0  0  0  0  0  0  0
   62.7763   34.9749   50.9538 H   0  0  0  0  0  0  0  0  0  0  0  0
   61.0778   34.1631   50.4217 H   0  0  0  0  0  0  0  0  0  0  0  0
   61.0155   35.0650   48.8584 H   0  0  0  0  0  0  0  0  0  0  0  0
   59.7238   32.3743   49.5206 H   0  0  0  0  0  0  0  0  0  0  0  0
   58.9068   33.9167   49.0940 H   0  0  0  0  0  0  0  0  0  0  0  0
   59.0509   34.3369   43.7379 H   0  0  0  0  0  0  0  0  0  0  0  0
   59.4245   28.2758   43.9468 H   0  0  0  0  0  0  0  0  0  0  0  0
   58.9239   29.8681   44.6425 H   0  0  0  0  0  0  0  0  0  0  0  0
   60.1417   26.4472   45.3930 H   0  0  0  0  0  0  0  0  0  0  0  0
   61.0111   25.7777   47.6320 H   0  0  0  0  0  0  0  0  0  0  0  0
   60.7737   27.3140   49.5808 H   0  0  0  0  0  0  0  0  0  0  0  0
   58.7651   30.2061   47.0533 H   0  0  0  0  0  0  0  0  0  0  0  0
   57.6323   31.2256   46.4721 H   0  0  0  0  0  0  0  0  0  0  0  0
   61.0321   31.1867   47.5859 H   0  0  0  0  0  0  0  0  0  0  0  0
   61.0142   32.0162   45.9935 H   0  0  0  0  0  0  0  0  0  0  0  0
   63.1853   32.2549   47.3306 H   0  0  0  0  0  0  0  0  0  0  0  0
   62.4108   33.8043   46.8137 H   0  0  0  0  0  0  0  0  0  0  0  0
  1  2  1  0
  2  3  2  0
  2  4  1  0
  4  5  1  0
  5  6  1  0
  6  7  1  0
  7  8  1  0
  8  9  2  0
  8 10  1  0
 10 11  2  0
 11 12  1  0
 12 13  1  0
 13 14  1  0
 14 15  2  0
 14 16  2  0
 14 17  1  0
 17 18  1  0
 18 19  1  0
 19 20  2  0
 20 21  1  0
 21 22  2  0
 22 23  1  0
 23 24  1  0
 24 25  1  0
 24 26  1  0
 24 27  1  0
 23 28  2  0
 13 29  2  0
  7 30  1  0
 30 31  1  0
 31  4  1  0
 29 10  1  0
 28 19  1  0
  1 32  1  0
  1 33  1  0
  1 34  1  0
  5 35  1  0
  5 36  1  0
  6 37  1  0
  6 38  1  0
 11 39  1  0
 18 40  1  0
 18 41  1  0
 20 42  1  0
 21 43  1  0
 22 44  1  0
 28 45  1  0
 29 46  1  0
 30 47  1  0
 30 48  1  0
 31 49  1  0
 31 50  1  0
M  CHG  1  17  -1
M  END
>  <UniqueID>  (33) 
31

>  <SMILES>  (33) 
CC(=O)N1CCN(C(=O)c2csc(S(=O)(=O)[N-]Cc3cccc(C(F)(F)F)c3)c2)CC1

>  <Energy>  (33) 
79.00779641472269

>  <Genealogy>  (33) 
CC(=O)N1CCN(C(=O)c2csc(S(=O)(=O)[N-]Cc3cccc(C(F)(F)F)c3)c2)CC1 (protonated)
CC(=O)N1CCN(C(=O)c2csc(S(=O)(=O)[N-]Cc3cccc(C(F)(F)F)c3)c2)CC1 (3D coordinates assigned)
CC(=O)N1CCN(C(=O)c2csc(S(=O)(=O)[N-]Cc3cccc(C(F)(F)F)c3)c2)CC1 (nonaromatic ring conformer: 79.00779641472269 kcal/mol)

>  <smiles>  (33) 
CC(=O)N1CCN(C(=O)c2csc(S(=O)(=O)NCc3cccc(C(F)(F)F)c3)c2)CC1

>  <score_type>  (33) 
oracle

>  <origin>  (33) 
adg

>  <m_score__min__energy>  (33) 
-10.73

>  <m_primary>  (33) 
energy

$$$$
33:0
     RDKit          3D

 53 56  0  0  0  0  0  0  0  0999 V2000
   59.0760   24.6730   46.4860 H   0  0  0  0  0  0  0  0  0  0  0  0
   58.2350   24.8040   47.0350 O   0  0  0  0  0  0  0  0  0  0  0  0
   57.1350   25.5010   46.5410 C   0  0  0  0  0  0  0  0  0  0  0  0
   55.8980   24.9790   46.4920 N   0  0  0  0  0  0  0  0  0  0  0  0
   55.1710   25.9820   45.9580 C   0  0  0  0  0  0  0  0  0  0  0  0
   53.9340   25.8860   45.7490 O   0  0  0  0  0  0  0  0  0  0  0  0
   55.8730   27.0990   45.6730 N   0  0  0  0  0  0  0  0  0  0  0  0
   57.1300   26.7860   46.0360 C   0  0  0  0  0  0  0  0  0  0  0  0
   58.2830   27.7130   45.9910 C   0  0  0  0  0  0  0  0  0  0  0  0
   59.2741   27.3035   46.2361 H   0  0  0  0  0  0  0  0  0  0  0  0
   58.2110   29.0230   45.6720 C   0  0  0  0  0  0  0  0  0  0  0  0
   57.9110   29.5640   44.4250 C   0  0  0  0  0  0  0  0  0  0  0  0
   57.6717   29.0063   43.5076 H   0  0  0  0  0  0  0  0  0  0  0  0
   57.9720   30.9360   44.5630 C   0  0  0  0  0  0  0  0  0  0  0  0
   57.7050   31.9220   43.4660 C   0  0  0  0  0  0  0  0  0  0  0  0
   57.4413   32.8958   43.9044 H   0  0  0  0  0  0  0  0  0  0  0  0
   58.6058   32.0316   42.8443 H   0  0  0  0  0  0  0  0  0  0  0  0
   56.8720   31.5621   42.8443 H   0  0  0  0  0  0  0  0  0  0  0  0
   58.2970   31.2690   45.8310 N   0  0  0  0  0  0  0  0  0  0  0  0
   58.4480   32.6090   46.3270 C   0  0  0  0  0  0  0  0  0  0  0  0
   57.4200   33.2620   46.6560 O   0  0  0  0  0  0  0  0  0  0  0  0
   59.7560   33.1980   46.4730 N   0  0  0  0  0  0  0  0  0  0  0  0
   59.9110   34.5820   46.8930 C   0  0  0  0  0  0  0  0  0  0  0  0
   60.8076   35.0096   46.4204 H   0  0  0  0  0  0  0  0  0  0  0  0
   59.0241   35.1572   46.5888 H   0  0  0  0  0  0  0  0  0  0  0  0
   60.0590   34.6440   48.4150 C   0  0  0  0  0  0  0  0  0  0  0  0
   60.6166   35.5583   48.6663 H   0  0  0  0  0  0  0  0  0  0  0  0
   59.0377   34.6280   48.8232 H   0  0  0  0  0  0  0  0  0  0  0  0
   60.7680   33.4890   49.0270 N   0  0  0  0  0  0  0  0  0  0  0  0
   60.9880   33.4900   50.4750 C   0  0  0  0  0  0  0  0  0  0  0  0
   62.2920   33.4000   51.0200 C   0  0  0  0  0  0  0  0  0  0  0  0
   63.1563   33.3225   50.3441 H   0  0  0  0  0  0  0  0  0  0  0  0
   62.4990   33.4080   52.4000 C   0  0  0  0  0  0  0  0  0  0  0  0
   63.5221   33.3460   52.7993 H   0  0  0  0  0  0  0  0  0  0  0  0
   61.4190   33.4940   53.2750 C   0  0  0  0  0  0  0  0  0  0  0  0
   61.5938   33.5157   54.3608 H   0  0  0  0  0  0  0  0  0  0  0  0
   60.1100   33.5530   52.7770 C   0  0  0  0  0  0  0  0  0  0  0  0
   58.9350   33.6860   53.7140 C   0  0  0  0  0  0  0  0  0  0  0  0
   58.8930   34.9450   54.2910 F   0  0  0  0  0  0  0  0  0  0  0  0
   59.0220   32.7490   54.7280 F   0  0  0  0  0  0  0  0  0  0  0  0
   57.7640   33.4780   53.0080 F   0  0  0  0  0  0  0  0  0  0  0  0
   59.9050   33.5700   51.3860 C   0  0  0  0  0  0  0  0  0  0  0  0
   58.8796   33.6472   50.9954 H   0  0  0  0  0  0  0  0  0  0  0  0
   61.1270   32.2680   48.2580 C   0  0  0  0  0  0  0  0  0  0  0  0
   62.1880   32.0460   48.4452 H   0  0  0  0  0  0  0  0  0  0  0  0
   60.4483   31.4747   48.6044 H   0  0  0  0  0  0  0  0  0  0  0  0
   60.9240   32.3760   46.7470 C   0  0  0  0  0  0  0  0  0  0  0  0
   61.8121   32.8365   46.2896 H   0  0  0  0  0  0  0  0  0  0  0  0
   60.7733   31.3717   46.3243 H   0  0  0  0  0  0  0  0  0  0  0  0
   58.4570   30.1110   46.5180 C   0  0  0  0  0  0  0  0  0  0  0  0
   58.8160   30.0550   47.8110 C   0  0  0  0  0  0  0  0  0  0  0  0
   58.9824   30.9838   48.3763 H   0  0  0  0  0  0  0  0  0  0  0  0
   58.9436   29.0803   48.3046 H   0  0  0  0  0  0  0  0  0  0  0  0
  1  2  1  0
  2  3  1  0
  3  4  1  0
  4  5  1  0
  5  6  2  0
  5  7  1  0
  7  8  1  0
  8  9  1  0
  9 10  1  0
  9 11  2  0
 11 12  1  0
 12 13  1  0
 12 14  2  0
 14 15  1  0
 15 16  1  0
 15 17  1  0
 15 18  1  0
 14 19  1  0
 19 20  1  0
 20 21  2  0
 20 22  1  0
 22 23  1  0
 23 24  1  0
 23 25  1  0
 23 26  1  0
 26 27  1  0
 26 28  1  0
 26 29  1  0
 29 30  1  0
 30 31  2  0
 31 32  1  0
 31 33  1  0
 33 34  1  0
 33 35  2  0
 35 36  1  0
 35 37  1  0
 37 38  1  0
 38 39  1  0
 38 40  1  0
 38 41  1  0
 37 42  2  0
 42 43  1  0
 29 44  1  0
 44 45  1  0
 44 46  1  0
 44 47  1  0
 47 48  1  0
 47 49  1  0
 19 50  1  0
 50 51  2  0
 51 52  1  0
 51 53  1  0
  8  3  2  0
 50 11  1  0
 47 22  1  0
 42 30  1  0
M  CHG  2   4  -1   7  -1
M  END
>  <UniqueID>  (34) 
32

>  <SMILES>  (34) 
C=c1/c(=C/c2[n-]c(=O)[n-]c2O)cc(C)n1C(=O)N1CCN(c2cccc(C(F)(F)F)c2)CC1

>  <Energy>  (34) 
133.20231657636413

>  <Genealogy>  (34) 
C=c1c(=Cc2[n-]c(=O)[n-]c2O)cc(C)n1C(=O)N1CCN(c2cccc(C(F)(F)F)c2)CC1 (protonated)
C=c1/c(=C/c2[n-]c(=O)[n-]c2O)cc(C)n1C(=O)N1CCN(c2cccc(C(F)(F)F)c2)CC1 (cis-trans isomerization)
C=c1/c(=C/c2[n-]c(=O)[n-]c2O)cc(C)n1C(=O)N1CCN(c2cccc(C(F)(F)F)c2)CC1 (3D coordinates assigned)
C=c1/c(=C/c2[n-]c(=O)[n-]c2O)cc(C)n1C(=O)N1CCN(c2cccc(C(F)(F)F)c2)CC1 (nonaromatic ring conformer: 133.20231657636413 kcal/mol)

>  <smiles>  (34) 
C=c1c(=Cc2[nH]c(=O)[nH]c2O)cc(C)n1C(=O)N1CCN(c2cccc(C(F)(F)F)c2)CC1

>  <score_type>  (34) 
oracle

>  <origin>  (34) 
adg

>  <m_score__min__energy>  (34) 
-12.81

>  <m_primary>  (34) 
energy

$$$$
34:0
     RDKit          3D

 51 53  0  0  0  0  0  0  0  0999 V2000
   59.2560   33.3010   48.0520 C   0  0  0  0  0  0  0  0  0  0  0  0
   59.8370   32.8290   49.2630 O   0  0  0  0  0  0  0  0  0  0  0  0
   59.1820   32.0030   50.1910 C   0  0  0  0  0  0  0  0  0  0  0  0
   58.3480   32.5250   51.1960 C   0  0  0  0  0  0  0  0  0  0  0  0
   57.7150   31.6740   52.1020 C   0  0  0  0  0  0  0  0  0  0  0  0
   57.8930   30.2840   52.0170 C   0  0  0  0  0  0  0  0  0  0  0  0
   57.2350   29.3700   52.9830 C   0  0  0  0  0  0  0  0  0  0  0  0
   57.8350   29.0730   54.0500 O   0  0  0  0  0  0  0  0  0  0  0  0
   55.9270   28.8320   52.7140 N   0  0  0  0  0  0  0  0  0  0  0  0
   55.1170   28.1570   53.6900 C   0  0  0  0  0  0  0  0  0  0  0  0
   55.7810   27.0360   54.6880 S   0  0  0  0  0  0  0  0  0  0  0  0
   53.6850   28.2470   53.6150 N   0  0  0  0  0  0  0  0  0  0  0  0
   52.9870   29.3620   53.0330 C   0  0  0  0  0  0  0  0  0  0  0  0
   52.6150   30.4540   53.8580 C   0  0  0  0  0  0  0  0  0  0  0  0
   51.9350   31.5630   53.3210 C   0  0  0  0  0  0  0  0  0  0  0  0
   51.6570   31.5530   51.9570 C   0  0  0  0  0  0  0  0  0  0  0  0
   51.0280   32.4980   51.2420 N   0  0  0  0  0  0  0  0  0  0  0  0
   51.0510   31.9680   49.9930 C   0  0  0  0  0  0  0  0  0  0  0  0
   50.5490   32.5580   49.0010 O   0  0  0  0  0  0  0  0  0  0  0  0
   51.6550   30.7560   49.8870 N   0  0  0  0  0  0  0  0  0  0  0  0
   52.0270   30.5190   51.1540 C   0  0  0  0  0  0  0  0  0  0  0  0
   52.7040   29.4060   51.6460 C   0  0  0  0  0  0  0  0  0  0  0  0
   58.7350   29.7630   51.0210 C   0  0  0  0  0  0  0  0  0  0  0  0
   59.3800   30.6170   50.1040 C   0  0  0  0  0  0  0  0  0  0  0  0
   60.2260   30.1340   49.0900 O   0  0  0  0  0  0  0  0  0  0  0  0
   59.9260   29.0620   48.1950 C   0  0  0  0  0  0  0  0  0  0  0  0
   58.6170   29.3060   47.4300 C   0  0  0  0  0  0  0  0  0  0  0  0
   58.8500   30.0970   46.2000 N   0  0  0  0  0  0  0  0  0  0  0  0
   57.7340   29.9060   45.2580 C   0  0  0  0  0  0  0  0  0  0  0  0
   60.1110   29.7050   45.5430 C   0  0  0  0  0  0  0  0  0  0  0  0
   58.4217   33.9788   48.2854 H   0  0  0  0  0  0  0  0  0  0  0  0
   60.0150   33.8415   47.4675 H   0  0  0  0  0  0  0  0  0  0  0  0
   58.8824   32.4473   47.4675 H   0  0  0  0  0  0  0  0  0  0  0  0
   58.1938   33.6118   51.2681 H   0  0  0  0  0  0  0  0  0  0  0  0
   57.0717   32.0950   52.8887 H   0  0  0  0  0  0  0  0  0  0  0  0
   55.4940   29.0080   51.7810 H   0  0  0  0  0  0  0  0  0  0  0  0
   53.1190   27.4470   53.9780 H   0  0  0  0  0  0  0  0  0  0  0  0
   52.8608   30.4339   54.9300 H   0  0  0  0  0  0  0  0  0  0  0  0
   51.6336   32.4084   53.9570 H   0  0  0  0  0  0  0  0  0  0  0  0
   53.0093   28.5868   50.9784 H   0  0  0  0  0  0  0  0  0  0  0  0
   58.8928   28.6763   50.9559 H   0  0  0  0  0  0  0  0  0  0  0  0
   60.7481   28.9622   47.4710 H   0  0  0  0  0  0  0  0  0  0  0  0
   59.8083   28.1438   48.7892 H   0  0  0  0  0  0  0  0  0  0  0  0
   58.1775   28.3361   47.1540 H   0  0  0  0  0  0  0  0  0  0  0  0
   57.9352   29.8719   48.0818 H   0  0  0  0  0  0  0  0  0  0  0  0
   56.8024   29.7466   45.8207 H   0  0  0  0  0  0  0  0  0  0  0  0
   57.6316   30.7997   44.6249 H   0  0  0  0  0  0  0  0  0  0  0  0
   57.9346   29.0291   44.6249 H   0  0  0  0  0  0  0  0  0  0  0  0
   60.8656   29.4704   46.3082 H   0  0  0  0  0  0  0  0  0  0  0  0
   59.9373   28.8185   44.9154 H   0  0  0  0  0  0  0  0  0  0  0  0
   60.4705   30.5338   44.9154 H   0  0  0  0  0  0  0  0  0  0  0  0
  1  2  1  0
  2  3  1  0
  3  4  2  0
  4  5  1  0
  5  6  2  0
  6  7  1  0
  7  8  2  0
  7  9  1  0
  9 10  1  0
 10 11  2  0
 10 12  1  0
 12 13  1  0
 13 14  2  0
 14 15  1  0
 15 16  2  0
 16 17  1  0
 17 18  1  0
 18 19  2  0
 18 20  1  0
 20 21  1  0
 21 22  2  0
  6 23  1  0
 23 24  2  0
 24 25  1  0
 25 26  1  0
 26 27  1  0
 27 28  1  0
 28 29  1  0
 28 30  1  0
 24  3  1  0
 22 13  1  0
 21 16  1  0
  1 31  1  0
  1 32  1  0
  1 33  1  0
  4 34  1  0
  5 35  1  0
  9 36  1  0
 12 37  1  0
 14 38  1  0
 15 39  1  0
 22 40  1  0
 23 41  1  0
 26 42  1  0
 26 43  1  0
 27 44  1  0
 27 45  1  0
 29 46  1  0
 29 47  1  0
 29 48  1  0
 30 49  1  0
 30 50  1  0
 30 51  1  0
M  CHG  2  17  -1  20  -1
M  END
>  <UniqueID>  (35) 
33

>  <SMILES>  (35) 
COc1ccc(C(=O)NC(=S)Nc2ccc3[n-]c(=O)[n-]c3c2)cc1OCCN(C)C

>  <Energy>  (35) 
95.86264922788642

>  <Genealogy>  (35) 
COc1ccc(C(=O)NC(=S)Nc2ccc3[n-]c(=O)[n-]c3c2)cc1OCCN(C)C (protonated)
COc1ccc(C(=O)NC(=S)Nc2ccc3[n-]c(=O)[n-]c3c2)cc1OCCN(C)C (3D coordinates assigned)
COc1ccc(C(=O)NC(=S)Nc2ccc3[n-]c(=O)[n-]c3c2)cc1OCCN(C)C (optimized conformer: 95.86264922788642 kcal/mol)

>  <smiles>  (35) 
COc1ccc(C(=O)NC(=S)Nc2ccc3[nH]c(=O)[nH]c3c2)cc1OCCN(C)C

>  <score_type>  (35) 
oracle

>  <origin>  (35) 
adg

>  <m_score__min__energy>  (35) 
-11.82

>  <m_primary>  (35) 
energy

$$$$
35:0
     RDKit          3D

 63 67  0  0  1  0  0  0  0  0999 V2000
   65.7490   32.7330   50.9580 C   0  0  0  0  0  0  0  0  0  0  0  0
   64.4780   32.9480   51.7250 C   0  0  0  0  0  0  0  0  0  0  0  0
   64.4750   33.6680   52.7330 O   0  0  0  0  0  0  0  0  0  0  0  0
   63.3180   32.2850   51.2160 N   0  0  0  0  0  0  0  0  0  0  0  0
   63.3280   31.4220   50.0660 C   0  0  0  0  0  0  0  0  0  0  0  0
   62.0410   30.6200   50.0650 C   0  0  0  0  0  0  0  0  0  0  0  0
   60.9130   31.4980   50.1140 N   0  0  0  0  0  0  0  0  0  0  0  0
   59.6520   31.2320   49.4870 C   0  0  0  0  0  0  0  0  0  0  0  0
   58.6840   32.0080   49.5100 O   0  0  0  0  0  0  0  0  0  0  0  0
   59.4900   29.9640   48.7820 C   0  0  0  0  0  0  0  0  0  0  0  0
   60.3750   29.3360   47.8940 C   0  0  0  0  0  0  0  0  0  0  0  0
   59.7150   28.2060   47.4950 C   0  0  0  0  0  0  0  0  0  0  0  0
   60.1410   27.1270   46.5340 C   0  0  0  0  0  0  0  0  0  0  0  0
   59.9310   27.8250   44.8380 S   0  0  0  0  0  0  0  0  0  0  0  0
   58.6340   29.0320   44.8480 C   0  0  0  0  0  0  0  0  0  0  0  0
   58.9760   30.2980   45.2000 N   0  0  0  0  0  0  0  0  0  0  0  0
   58.0600   31.2860   45.1690 C   0  0  0  0  0  0  0  0  0  0  0  0
   58.4660   32.6450   45.4540 C   0  0  0  0  0  0  0  0  0  0  0  0
   58.3380   33.7230   44.6590 C   0  0  0  0  0  0  0  0  0  0  0  0
   58.8020   34.9960   44.9070 C   0  0  0  0  0  0  0  0  0  0  0  0
   59.4550   35.1640   46.0840 N   0  0  0  0  0  0  0  0  0  0  0  0
   59.6160   34.1080   46.9370 C   0  0  0  0  0  0  0  0  0  0  0  0
   60.2820   34.3020   47.9770 N   0  0  0  0  0  0  0  0  0  0  0  0
   61.6220   34.1670   48.2610 C   0  0  0  0  0  0  0  0  0  0  0  0
   62.3360   34.7180   49.1170 O   0  0  0  0  0  0  0  0  0  0  0  0
   62.3770   33.1810   47.3710 C   0  0  0  0  0  0  0  0  0  0  0  0
   63.2710   33.8800   46.3430 C   0  0  0  0  0  0  0  0  0  0  0  0
   63.8510   33.1450   47.5230 C   0  0  0  0  0  0  0  0  0  0  0  0
   59.1460   32.8480   46.6730 C   0  0  0  0  0  0  0  0  0  0  0  0
   56.7440   31.0380   44.7830 C   0  0  0  0  0  0  0  0  0  0  0  0
   56.4080   29.7440   44.4300 C   0  0  0  0  0  0  0  0  0  0  0  0
   55.2350   29.3700   44.0880 N   0  0  0  0  0  0  0  0  0  0  0  0
   57.3700   28.8180   44.4810 N   0  0  0  0  0  0  0  0  0  0  0  0
   58.5480   28.1530   48.0880 O   0  0  0  0  0  0  0  0  0  0  0  0
   58.3850   29.1660   48.8500 N   0  0  0  0  0  0  0  0  0  0  0  0
   60.9920   32.7430   50.8620 C   0  0  0  0  0  0  0  0  0  0  0  0
   62.0790   32.5300   51.9220 C   0  0  0  0  0  0  0  0  0  0  0  0
   66.5826   32.5920   51.6618 H   0  0  0  0  0  0  0  0  0  0  0  0
   65.6485   31.8391   50.3249 H   0  0  0  0  0  0  0  0  0  0  0  0
   65.9481   33.6102   50.3249 H   0  0  0  0  0  0  0  0  0  0  0  0
   63.3918   32.0251   49.1483 H   0  0  0  0  0  0  0  0  0  0  0  0
   64.1962   30.7476   50.1043 H   0  0  0  0  0  0  0  0  0  0  0  0
   61.9907   30.0144   49.1481 H   0  0  0  0  0  0  0  0  0  0  0  0
   62.0251   29.9649   50.9485 H   0  0  0  0  0  0  0  0  0  0  0  0
   61.3752   29.6756   47.5871 H   0  0  0  0  0  0  0  0  0  0  0  0
   61.1935   26.8578   46.7068 H   0  0  0  0  0  0  0  0  0  0  0  0
   59.5399   26.2154   46.6668 H   0  0  0  0  0  0  0  0  0  0  0  0
   57.8054   33.5713   43.7086 H   0  0  0  0  0  0  0  0  0  0  0  0
   58.6527   35.8226   44.1968 H   0  0  0  0  0  0  0  0  0  0  0  0
   59.8330   36.0880   46.3590 H   0  0  0  0  0  0  0  0  0  0  0  0
   61.5969   32.4056   47.3611 H   0  0  0  0  0  0  0  0  0  0  0  0
   63.3750   33.4688   45.3281 H   0  0  0  0  0  0  0  0  0  0  0  0
   63.3515   34.8973   45.9324 H   0  0  0  0  0  0  0  0  0  0  0  0
   64.3927   32.2008   47.3648 H   0  0  0  0  0  0  0  0  0  0  0  0
   64.5467   33.4165   48.3306 H   0  0  0  0  0  0  0  0  0  0  0  0
   59.2938   32.0240   47.3866 H   0  0  0  0  0  0  0  0  0  0  0  0
   55.9971   31.8452   44.7599 H   0  0  0  0  0  0  0  0  0  0  0  0
   54.7630   28.5350   44.5100 H   0  0  0  0  0  0  0  0  0  0  0  0
   57.1110   27.8500   44.2060 H   0  0  0  0  0  0  0  0  0  0  0  0
   61.2663   33.5733   50.1946 H   0  0  0  0  0  0  0  0  0  0  0  0
   60.0259   32.9996   51.3211 H   0  0  0  0  0  0  0  0  0  0  0  0
   62.1740   33.4274   52.5510 H   0  0  0  0  0  0  0  0  0  0  0  0
   61.8271   31.6830   52.5771 H   0  0  0  0  0  0  0  0  0  0  0  0
  1  2  1  0
  2  3  2  0
  2  4  1  0
  4  5  1  0
  5  6  1  0
  6  7  1  0
  7  8  1  0
  8  9  2  0
  8 10  1  0
 10 11  1  0
 11 12  2  0
 12 13  1  0
 13 14  1  0
 14 15  1  0
 15 16  2  0
 16 17  1  0
 17 18  1  0
 18 19  1  0
 19 20  2  0
 20 21  1  0
 21 22  1  0
 22 23  2  0
 23 24  1  0
 24 25  2  0
 24 26  1  0
 26 27  1  0
 27 28  1  0
 22 29  1  0
 17 30  2  0
 30 31  1  0
 31 32  2  3
 31 33  1  0
 12 34  1  0
 34 35  1  0
  7 36  1  0
 36 37  1  0
 37  4  1  0
 35 10  2  0
 33 15  1  0
 29 18  2  0
 28 26  1  0
  1 38  1  0
  1 39  1  0
  1 40  1  0
  5 41  1  0
  5 42  1  0
  6 43  1  0
  6 44  1  0
 11 45  1  0
 13 46  1  0
 13 47  1  0
 19 48  1  0
 20 49  1  0
 21 50  1  0
 26 51  1  0
 27 52  1  0
 27 53  1  0
 28 54  1  0
 28 55  1  0
 29 56  1  0
 30 57  1  0
 32 58  1  0
 33 59  1  0
 36 60  1  0
 36 61  1  0
 37 62  1  0
 37 63  1  0
M  END
>  <smiles>  (36) 
CC(=O)N1CCN(C(=O)c2cc(CSc3nc(-c4cc[nH]c(=NC(=O)C5CC5)c4)cc(=N)[nH]3)on2)CC1

>  <score_type>  (36) 
oracle

>  <origin>  (36) 
adg

>  <m_score__min__energy>  (36) 
-9.4100000000000001

>  <m_primary>  (36) 
energy

$$$$
36:0
     RDKit          3D

 69 72  0  0  0  0  0  0  0  0999 V2000
   59.5030   29.9490   48.7490 C   0  0  0  0  0  0  0  0  0  0  0  0
   60.1070   29.4590   50.0630 C   0  0  0  0  0  0  0  0  0  0  0  0
   61.0540   30.4570   50.5910 N   0  0  0  0  0  0  0  0  0  0  0  0
   62.4670   30.4070   50.1750 C   0  0  0  0  0  0  0  0  0  0  0  0
   62.7600   31.5420   49.2300 C   0  0  0  0  0  0  0  0  0  0  0  0
   62.1230   31.6160   47.9810 C   0  0  0  0  0  0  0  0  0  0  0  0
   62.4730   32.6300   47.0860 C   0  0  0  0  0  0  0  0  0  0  0  0
   63.4190   33.5480   47.4330 N   0  0  0  0  0  0  0  0  0  0  0  0
   64.0390   33.5110   48.6450 C   0  0  0  0  0  0  0  0  0  0  0  0
   63.7260   32.5030   49.5600 C   0  0  0  0  0  0  0  0  0  0  0  0
   60.5560   31.5480   51.3940 C   0  0  0  0  0  0  0  0  0  0  0  0
   60.4900   31.4170   52.6490 O   0  0  0  0  0  0  0  0  0  0  0  0
   60.2290   32.8900   50.7910 C   0  0  0  0  0  0  0  0  0  0  0  0
   58.8850   32.8650   50.0510 C   0  0  0  0  0  0  0  0  0  0  0  0
   59.0080   33.4490   48.6670 C   0  0  0  0  0  0  0  0  0  0  0  0
   59.9110   34.4900   48.4100 C   0  0  0  0  0  0  0  0  0  0  0  0
   60.0460   34.9690   47.1070 C   0  0  0  0  0  0  0  0  0  0  0  0
   59.2940   34.4010   46.0730 C   0  0  0  0  0  0  0  0  0  0  0  0
   58.3870   33.3680   46.3580 C   0  0  0  0  0  0  0  0  0  0  0  0
   57.5250   32.7980   45.3060 C   0  0  0  0  0  0  0  0  0  0  0  0
   57.0730   33.5450   44.3930 O   0  0  0  0  0  0  0  0  0  0  0  0
   57.2460   31.3960   45.2900 N   0  0  0  0  0  0  0  0  0  0  0  0
   57.8490   30.4710   44.3380 C   0  0  0  0  0  0  0  0  0  0  0  0
   58.0030   29.1230   44.9850 C   0  0  0  0  0  0  0  0  0  0  0  0
   56.8990   28.2620   45.0730 C   0  0  0  0  0  0  0  0  0  0  0  0
   57.0440   26.9910   45.6380 C   0  0  0  0  0  0  0  0  0  0  0  0
   58.2810   26.5730   46.1450 C   0  0  0  0  0  0  0  0  0  0  0  0
   58.3680   25.2770   46.7500 N   0  0  0  0  0  0  0  0  0  0  0  0
   57.0890   24.1010   46.7810 S   0  0  0  0  0  0  0  0  0  0  0  0
   57.3730   23.0940   47.8580 O   0  0  0  0  0  0  0  0  0  0  0  0
   55.7750   24.7710   47.0850 O   0  0  0  0  0  0  0  0  0  0  0  0
   57.0100   23.2570   45.2350 C   0  0  0  0  0  0  0  0  0  0  0  0
   57.8460   22.1590   44.9620 C   0  0  0  0  0  0  0  0  0  0  0  0
   57.7540   21.4960   43.7330 C   0  0  0  0  0  0  0  0  0  0  0  0
   56.8440   21.9340   42.7660 C   0  0  0  0  0  0  0  0  0  0  0  0
   56.0270   23.0380   43.0280 C   0  0  0  0  0  0  0  0  0  0  0  0
   56.1060   23.6960   44.2610 C   0  0  0  0  0  0  0  0  0  0  0  0
   59.3870   27.4340   46.0560 C   0  0  0  0  0  0  0  0  0  0  0  0
   59.2510   28.6950   45.4680 C   0  0  0  0  0  0  0  0  0  0  0  0
   58.2760   32.9210   47.6410 N   0  0  0  0  0  0  0  0  0  0  0  0
   58.6649   30.6289   48.9617 H   0  0  0  0  0  0  0  0  0  0  0  0
   60.2703   30.4830   48.1693 H   0  0  0  0  0  0  0  0  0  0  0  0
   59.1387   29.0880   48.1693 H   0  0  0  0  0  0  0  0  0  0  0  0
   59.3021   29.2987   50.7954 H   0  0  0  0  0  0  0  0  0  0  0  0
   60.6433   28.5158   49.8820 H   0  0  0  0  0  0  0  0  0  0  0  0
   63.1122   30.4940   51.0617 H   0  0  0  0  0  0  0  0  0  0  0  0
   62.6628   29.4512   49.6670 H   0  0  0  0  0  0  0  0  0  0  0  0
   61.3526   30.8796   47.7086 H   0  0  0  0  0  0  0  0  0  0  0  0
   61.9854   32.6876   46.1017 H   0  0  0  0  0  0  0  0  0  0  0  0
   64.7867   34.2753   48.9035 H   0  0  0  0  0  0  0  0  0  0  0  0
   64.2348   32.4634   50.5344 H   0  0  0  0  0  0  0  0  0  0  0  0
   60.1802   33.6399   51.5943 H   0  0  0  0  0  0  0  0  0  0  0  0
   61.0164   33.1419   50.0654 H   0  0  0  0  0  0  0  0  0  0  0  0
   58.5401   31.8236   49.9706 H   0  0  0  0  0  0  0  0  0  0  0  0
   58.1653   33.4719   50.6200 H   0  0  0  0  0  0  0  0  0  0  0  0
   60.5064   34.9242   49.2267 H   0  0  0  0  0  0  0  0  0  0  0  0
   60.7430   35.7925   46.8926 H   0  0  0  0  0  0  0  0  0  0  0  0
   59.4129   34.7623   45.0409 H   0  0  0  0  0  0  0  0  0  0  0  0
   57.2027   30.3819   43.4524 H   0  0  0  0  0  0  0  0  0  0  0  0
   58.8361   30.8481   44.0323 H   0  0  0  0  0  0  0  0  0  0  0  0
   55.9177   28.5871   44.6970 H   0  0  0  0  0  0  0  0  0  0  0  0
   56.1788   26.3134   45.6847 H   0  0  0  0  0  0  0  0  0  0  0  0
   58.5728   21.8212   45.7154 H   0  0  0  0  0  0  0  0  0  0  0  0
   58.3987   20.6288   43.5274 H   0  0  0  0  0  0  0  0  0  0  0  0
   56.7710   21.4111   41.8010 H   0  0  0  0  0  0  0  0  0  0  0  0
   55.3199   23.3906   42.2627 H   0  0  0  0  0  0  0  0  0  0  0  0
   55.4562   24.5599   44.4648 H   0  0  0  0  0  0  0  0  0  0  0  0
   60.3632   27.1152   46.4502 H   0  0  0  0  0  0  0  0  0  0  0  0
   60.1262   29.3560   45.3830 H   0  0  0  0  0  0  0  0  0  0  0  0
  1  2  1  0
  2  3  1  0
  3  4  1  0
  4  5  1  0
  5  6  2  0
  6  7  1  0
  7  8  2  0
  8  9  1  0
  9 10  2  0
  3 11  1  0
 11 12  2  0
 11 13  1  0
 13 14  1  0
 14 15  1  0
 15 16  2  0
 16 17  1  0
 17 18  2  0
 18 19  1  0
 19 20  1  0
 20 21  2  0
 20 22  1  0
 22 23  1  0
 23 24  1  0
 24 25  2  0
 25 26  1  0
 26 27  2  0
 27 28  1  0
 28 29  1  0
 29 30  2  0
 29 31  2  0
 29 32  1  0
 32 33  2  0
 33 34  1  0
 34 35  2  0
 35 36  1  0
 36 37  2  0
 27 38  1  0
 38 39  2  0
 19 40  2  0
 10  5  1  0
 40 15  1  0
 39 24  1  0
 37 32  1  0
  1 41  1  0
  1 42  1  0
  1 43  1  0
  2 44  1  0
  2 45  1  0
  4 46  1  0
  4 47  1  0
  6 48  1  0
  7 49  1  0
  9 50  1  0
 10 51  1  0
 13 52  1  0
 13 53  1  0
 14 54  1  0
 14 55  1  0
 16 56  1  0
 17 57  1  0
 18 58  1  0
 23 59  1  0
 23 60  1  0
 25 61  1  0
 26 62  1  0
 33 63  1  0
 34 64  1  0
 35 65  1  0
 36 66  1  0
 37 67  1  0
 38 68  1  0
 39 69  1  0
M  CHG  2  22  -1  28  -1
M  END
>  <UniqueID>  (37) 
34

>  <SMILES>  (37) 
CCN(Cc1ccncc1)C(=O)CCc1cccc(C(=O)[N-]Cc2ccc([N-]S(=O)(=O)c3ccccc3)cc2)n1

>  <Energy>  (37) 
69.81930934396176

>  <Genealogy>  (37) 
CCN(Cc1ccncc1)C(=O)CCc1cccc(C(=O)[N-]Cc2ccc([N-]S(=O)(=O)c3ccccc3)cc2)n1 (protonated)
CCN(Cc1ccncc1)C(=O)CCc1cccc(C(=O)[N-]Cc2ccc([N-]S(=O)(=O)c3ccccc3)cc2)n1 (3D coordinates assigned)
CCN(Cc1ccncc1)C(=O)CCc1cccc(C(=O)[N-]Cc2ccc([N-]S(=O)(=O)c3ccccc3)cc2)n1 (optimized conformer: 69.81930934396176 kcal/mol)

>  <smiles>  (37) 
CCN(Cc1ccncc1)C(=O)CCc1cccc(C(=O)NCc2ccc(NS(=O)(=O)c3ccccc3)cc2)n1

>  <score_type>  (37) 
oracle

>  <origin>  (37) 
adg

>  <m_score__min__energy>  (37) 
-12.81

>  <m_primary>  (37) 
energy

$$$$
37:0
     RDKit          3D

 50 53  0  0  1  0  0  0  0  0999 V2000
   57.7230   28.4950   43.6280 N   0  0  0  0  0  0  0  0  0  0  0  0
   56.6480   29.7640   44.0480 S   0  0  0  0  0  0  0  0  0  0  0  0
   55.6290   29.3270   45.0640 O   0  0  0  0  0  0  0  0  0  0  0  0
   55.8990   30.1720   42.8100 O   0  0  0  0  0  0  0  0  0  0  0  0
   57.5090   31.1990   44.6130 C   0  0  0  0  0  0  0  0  0  0  0  0
   57.7770   32.2240   43.7090 C   0  0  0  0  0  0  0  0  0  0  0  0
   58.4460   33.3700   44.0970 C   0  0  0  0  0  0  0  0  0  0  0  0
   58.8430   33.4650   45.4170 C   0  0  0  0  0  0  0  0  0  0  0  0
   58.5720   32.4400   46.3150 C   0  0  0  0  0  0  0  0  0  0  0  0
   59.0240   32.6360   47.6520 N   0  0  0  0  0  0  0  0  0  0  0  0
   58.8700   31.7600   48.5660 C   0  0  0  0  0  0  0  0  0  0  0  0
   58.2010   32.0450   49.6840 N   0  0  0  0  0  0  0  0  0  0  0  0
   58.0710   31.0830   50.6080 C   0  0  0  0  0  0  0  0  0  0  0  0
   58.5660   29.8460   50.4960 N   0  0  0  0  0  0  0  0  0  0  0  0
   59.2470   29.5050   49.3930 C   0  0  0  0  0  0  0  0  0  0  0  0
   59.8070   28.2950   49.1320 O   0  0  0  0  0  0  0  0  0  0  0  0
   59.7220   27.5150   48.0140 C   0  0  0  0  0  0  0  0  0  0  0  0
   60.7380   26.8000   47.4350 C   0  0  0  0  0  0  0  0  0  0  0  0
   60.5810   26.0270   46.2960 C   0  0  0  0  0  0  0  0  0  0  0  0
   59.3390   25.9630   45.7000 C   0  0  0  0  0  0  0  0  0  0  0  0
   58.2710   26.6780   46.2570 C   0  0  0  0  0  0  0  0  0  0  0  0
   56.9630   26.6270   45.6560 N   0  0  0  0  0  0  0  0  0  0  0  0
   55.8690   25.3440   45.8890 S   0  0  0  0  0  0  0  0  0  0  0  0
   54.4520   25.7760   45.6190 O   0  0  0  0  0  0  0  0  0  0  0  0
   55.9910   24.8710   47.3080 O   0  0  0  0  0  0  0  0  0  0  0  0
   56.2490   24.0470   44.8030 C   0  0  0  0  0  0  0  0  0  0  0  0
   55.6610   23.6610   43.6330 C   0  0  0  0  0  0  0  0  0  0  0  0
   56.1300   22.6200   42.9560 C   0  0  0  0  0  0  0  0  0  0  0  0
   57.2520   21.9660   43.5260 C   0  0  0  0  0  0  0  0  0  0  0  0
   57.5960   22.9080   45.0640 S   0  0  0  0  0  0  0  0  0  0  0  0
   58.4720   27.4360   47.3910 C   0  0  0  0  0  0  0  0  0  0  0  0
   59.3880   30.4950   48.4270 C   0  0  0  0  0  0  0  0  0  0  0  0
   60.0630   30.2290   47.2800 F   0  0  0  0  0  0  0  0  0  0  0  0
   57.8980   31.2860   45.9250 C   0  0  0  0  0  0  0  0  0  0  0  0
   57.1540   27.6940   43.2620 H   0  0  0  0  0  0  0  0  0  0  0  0
   58.3250   28.7950   42.8050 H   0  0  0  0  0  0  0  0  0  0  0  0
   57.4494   32.1195   42.6641 H   0  0  0  0  0  0  0  0  0  0  0  0
   58.6549   34.1777   43.3801 H   0  0  0  0  0  0  0  0  0  0  0  0
   59.3794   34.3618   45.7606 H   0  0  0  0  0  0  0  0  0  0  0  0
   57.7850   32.9880   49.8500 H   0  0  0  0  0  0  0  0  0  0  0  0
   57.5165   31.3291   51.5256 H   0  0  0  0  0  0  0  0  0  0  0  0
   61.7337   26.8423   47.9007 H   0  0  0  0  0  0  0  0  0  0  0  0
   61.4328   25.4735   45.8741 H   0  0  0  0  0  0  0  0  0  0  0  0
   59.1884   25.3558   44.7952 H   0  0  0  0  0  0  0  0  0  0  0  0
   56.7340   27.4600   45.0520 H   0  0  0  0  0  0  0  0  0  0  0  0
   54.7927   24.2164   43.2487 H   0  0  0  0  0  0  0  0  0  0  0  0
   55.6765   22.2853   42.0114 H   0  0  0  0  0  0  0  0  0  0  0  0
   57.7936   21.0920   43.1351 H   0  0  0  0  0  0  0  0  0  0  0  0
   57.6257   27.9943   47.8178 H   0  0  0  0  0  0  0  0  0  0  0  0
   57.6862   30.4773   46.6399 H   0  0  0  0  0  0  0  0  0  0  0  0
  1  2  1  0
  2  3  2  0
  2  4  2  0
  2  5  1  0
  5  6  2  0
  6  7  1  0
  7  8  2  0
  8  9  1  0
  9 10  1  0
 10 11  2  0
 11 12  1  0
 12 13  1  0
 13 14  2  0
 14 15  1  0
 15 16  1  0
 16 17  1  0
 17 18  2  0
 18 19  1  0
 19 20  2  0
 20 21  1  0
 21 22  1  0
 22 23  1  0
 23 24  2  0
 23 25  2  0
 23 26  1  0
 26 27  2  0
 27 28  1  0
 28 29  2  0
 29 30  1  0
 21 31  2  0
 15 32  2  0
 32 33  1  0
  9 34  2  0
 34  5  1  0
 32 11  1  0
 31 17  1  0
 30 26  1  0
  1 35  1  0
  1 36  1  0
  6 37  1  0
  7 38  1  0
  8 39  1  0
 12 40  1  0
 13 41  1  0
 18 42  1  0
 19 43  1  0
 20 44  1  0
 22 45  1  0
 27 46  1  0
 28 47  1  0
 29 48  1  0
 31 49  1  0
 34 50  1  0
M  END
>  <smiles>  (38) 
NS(=O)(=O)c1cccc(N=c2[nH]cnc(Oc3cccc(NS(=O)(=O)c4cccs4)c3)c2F)c1

>  <score_type>  (38) 
oracle

>  <origin>  (38) 
adg

>  <m_score__min__energy>  (38) 
-10.48

>  <m_primary>  (38) 
energy

$$$$
38:0
     RDKit          3D

 52 55  0  0  0  0  0  0  0  0999 V2000
   57.3093   31.8989   52.2845 H   0  0  0  0  0  0  0  0  0  0  0  0
   56.2110   31.8640   52.3340 C   0  0  0  0  0  0  0  0  0  0  0  0
   55.6223   32.7714   52.1336 H   0  0  0  0  0  0  0  0  0  0  0  0
   55.5890   30.7140   52.6390 C   0  0  0  0  0  0  0  0  0  0  0  0
   54.2090   30.5120   52.7400 C   0  0  0  0  0  0  0  0  0  0  0  0
   53.2340   31.4070   52.4940 C   0  0  0  0  0  0  0  0  0  0  0  0
   53.1210   32.2525   53.1886 H   0  0  0  0  0  0  0  0  0  0  0  0
   52.3090   31.3220   51.3500 C   0  0  0  0  0  0  0  0  0  0  0  0
   52.3800   30.3590   50.4140 N   0  0  0  0  0  0  0  0  0  0  0  0
   51.4150   30.7070   49.5350 C   0  0  0  0  0  0  0  0  0  0  0  0
   51.1590   30.0270   48.5070 O   0  0  0  0  0  0  0  0  0  0  0  0
   50.7520   31.8430   49.8390 N   0  0  0  0  0  0  0  0  0  0  0  0
   51.3370   32.2280   50.9840 C   0  0  0  0  0  0  0  0  0  0  0  0
   51.0200   33.4040   51.6510 O   0  0  0  0  0  0  0  0  0  0  0  0
   54.0360   29.1780   53.0930 C   0  0  0  0  0  0  0  0  0  0  0  0
   53.0793   28.6597   53.2546 H   0  0  0  0  0  0  0  0  0  0  0  0
   55.2990   28.6310   53.2010 C   0  0  0  0  0  0  0  0  0  0  0  0
   55.5910   27.1960   53.5150 C   0  0  0  0  0  0  0  0  0  0  0  0
   55.6191   27.0577   54.6059 H   0  0  0  0  0  0  0  0  0  0  0  0
   54.8041   26.5591   53.0849 H   0  0  0  0  0  0  0  0  0  0  0  0
   56.5643   26.9172   53.0849 H   0  0  0  0  0  0  0  0  0  0  0  0
   56.2370   29.5570   52.9190 N   0  0  0  0  0  0  0  0  0  0  0  0
   57.6550   29.3330   52.9150 C   0  0  0  0  0  0  0  0  0  0  0  0
   58.1920   28.8110   53.9290 O   0  0  0  0  0  0  0  0  0  0  0  0
   58.4480   29.6750   51.7610 N   0  0  0  0  0  0  0  0  0  0  0  0
   59.9170   29.6210   51.8090 C   0  0  0  0  0  0  0  0  0  0  0  0
   60.3111   30.6455   51.8797 H   0  0  0  0  0  0  0  0  0  0  0  0
   60.2141   29.0282   52.6867 H   0  0  0  0  0  0  0  0  0  0  0  0
   60.4950   28.9460   50.5470 C   0  0  0  0  0  0  0  0  0  0  0  0
   61.4226   29.4670   50.2674 H   0  0  0  0  0  0  0  0  0  0  0  0
   60.6692   27.8889   50.7965 H   0  0  0  0  0  0  0  0  0  0  0  0
   59.5710   28.9740   49.3840 N   0  0  0  0  0  0  0  0  0  0  0  0
   60.3000   28.8080   48.1110 C   0  0  0  0  0  0  0  0  0  0  0  0
   61.1016   29.5590   48.0525 H   0  0  0  0  0  0  0  0  0  0  0  0
   60.7259   27.7944   48.0750 H   0  0  0  0  0  0  0  0  0  0  0  0
   59.3680   28.9860   46.9410 C   0  0  0  0  0  0  0  0  0  0  0  0
   59.6570   29.9190   45.9310 C   0  0  0  0  0  0  0  0  0  0  0  0
   60.5609   30.5418   46.0021 H   0  0  0  0  0  0  0  0  0  0  0  0
   58.8000   30.0580   44.8370 C   0  0  0  0  0  0  0  0  0  0  0  0
   59.0280   30.7929   44.0510 H   0  0  0  0  0  0  0  0  0  0  0  0
   57.6530   29.2650   44.7390 C   0  0  0  0  0  0  0  0  0  0  0  0
   56.9778   29.3788   43.8781 H   0  0  0  0  0  0  0  0  0  0  0  0
   57.3640   28.3280   45.7340 C   0  0  0  0  0  0  0  0  0  0  0  0
   56.2520   27.5560   45.6360 F   0  0  0  0  0  0  0  0  0  0  0  0
   58.2200   28.1850   46.8310 C   0  0  0  0  0  0  0  0  0  0  0  0
   57.9930   27.4425   47.6102 H   0  0  0  0  0  0  0  0  0  0  0  0
   58.7660   30.2070   49.3670 C   0  0  0  0  0  0  0  0  0  0  0  0
   59.4268   31.0816   49.4587 H   0  0  0  0  0  0  0  0  0  0  0  0
   58.2086   30.2774   48.4213 H   0  0  0  0  0  0  0  0  0  0  0  0
   57.7910   30.1730   50.5450 C   0  0  0  0  0  0  0  0  0  0  0  0
   57.4158   31.1903   50.7303 H   0  0  0  0  0  0  0  0  0  0  0  0
   56.9621   29.4951   50.2931 H   0  0  0  0  0  0  0  0  0  0  0  0
  1  2  1  0
  2  3  1  0
  2  4  2  0
  4  5  1  0
  5  6  2  0
  6  7  1  0
  6  8  1  0
  8  9  1  0
  9 10  1  0
 10 11  2  0
 10 12  1  0
 12 13  1  0
 13 14  1  0
  5 15  1  0
 15 16  1  0
 15 17  2  0
 17 18  1  0
 18 19  1  0
 18 20  1  0
 18 21  1  0
 17 22  1  0
 22 23  1  0
 23 24  2  0
 23 25  1  0
 25 26  1  0
 26 27  1  0
 26 28  1  0
 26 29  1  0
 29 30  1  0
 29 31  1  0
 29 32  1  0
 32 33  1  0
 33 34  1  0
 33 35  1  0
 33 36  1  0
 36 37  2  0
 37 38  1  0
 37 39  1  0
 39 40  1  0
 39 41  2  0
 41 42  1  0
 41 43  1  0
 43 44  1  0
 43 45  2  0
 45 46  1  0
 32 47  1  0
 47 48  1  0
 47 49  1  0
 47 50  1  0
 50 51  1  0
 50 52  1  0
 22  4  1  0
 50 25  1  0
 13  8  2  0
 45 36  1  0
M  CHG  3   9  -1  12  -1  14  -1
M  END
>  <UniqueID>  (39) 
35

>  <SMILES>  (39) 
C=c1/c(=C/c2[n-]c(=O)[n-]c2[O-])cc(C)n1C(=O)N1CCN(Cc2cccc(F)c2)CC1

>  <Energy>  (39) 
131.21276087210583

>  <Genealogy>  (39) 
C=c1c(=Cc2[n-]c(=O)[n-]c2[O-])cc(C)n1C(=O)N1CCN(Cc2cccc(F)c2)CC1 (protonated)
C=c1/c(=C/c2[n-]c(=O)[n-]c2[O-])cc(C)n1C(=O)N1CCN(Cc2cccc(F)c2)CC1 (cis-trans isomerization)
C=c1/c(=C/c2[n-]c(=O)[n-]c2[O-])cc(C)n1C(=O)N1CCN(Cc2cccc(F)c2)CC1 (3D coordinates assigned)
C=c1/c(=C/c2[n-]c(=O)[n-]c2[O-])cc(C)n1C(=O)N1CCN(Cc2cccc(F)c2)CC1 (nonaromatic ring conformer: 131.21276087210583 kcal/mol)

>  <smiles>  (39) 
C=c1c(=Cc2[nH]c(=O)[nH]c2O)cc(C)n1C(=O)N1CCN(Cc2cccc(F)c2)CC1

>  <score_type>  (39) 
oracle

>  <origin>  (39) 
adg

>  <m_score__min__energy>  (39) 
-17.77

>  <m_primary>  (39) 
energy

$$$$
39:0
     RDKit          3D

 62 65  0  0  0  0  0  0  0  0999 V2000
   60.0170   33.4380   50.1170 C   0  0  0  0  0  0  0  0  0  0  0  0
   60.0190   32.0970   49.4430 C   0  0  0  0  0  0  0  0  0  0  0  0
   60.9990   31.7920   48.4880 C   0  0  0  0  0  0  0  0  0  0  0  0
   60.9870   30.5550   47.8360 C   0  0  0  0  0  0  0  0  0  0  0  0
   59.9830   29.6140   48.1190 C   0  0  0  0  0  0  0  0  0  0  0  0
   59.9940   28.2740   47.4330 C   0  0  0  0  0  0  0  0  0  0  0  0
   58.7160   28.0390   46.7630 N   0  0  0  0  0  0  0  0  0  0  0  0
   58.4180   26.8100   46.0820 C   0  0  0  0  0  0  0  0  0  0  0  0
   59.2470   25.8610   46.1040 O   0  0  0  0  0  0  0  0  0  0  0  0
   57.1000   26.6140   45.3810 C   0  0  1  0  0  0  0  0  0  0  0  0
   56.4160   25.3050   45.8270 C   0  0  0  0  0  0  0  0  0  0  0  0
   56.7840   24.1190   44.9690 C   0  0  0  0  0  0  0  0  0  0  0  0
   57.8780   23.3060   45.3150 C   0  0  0  0  0  0  0  0  0  0  0  0
   58.2030   22.1920   44.5340 C   0  0  0  0  0  0  0  0  0  0  0  0
   57.4410   21.8820   43.4040 C   0  0  0  0  0  0  0  0  0  0  0  0
   56.3520   22.6840   43.0540 C   0  0  0  0  0  0  0  0  0  0  0  0
   56.0220   23.7980   43.8330 C   0  0  0  0  0  0  0  0  0  0  0  0
   56.2330   27.7690   45.6190 N   0  0  0  0  0  0  0  0  0  0  0  0
   56.2030   28.9670   44.8340 C   0  0  0  0  0  0  0  0  0  0  0  0
   55.1440   29.6500   44.8180 O   0  0  0  0  0  0  0  0  0  0  0  0
   57.4250   29.4620   44.1040 C   0  0  0  0  0  0  0  0  0  0  0  0
   57.6290   30.8950   44.3110 N   0  0  0  0  0  0  0  0  0  0  0  0
   57.9290   31.8600   43.3170 C   0  0  0  0  0  0  0  0  0  0  0  0
   57.7900   31.6530   42.0830 O   0  0  0  0  0  0  0  0  0  0  0  0
   58.4310   33.0840   43.8450 N   0  0  0  0  0  0  0  0  0  0  0  0
   58.5080   32.9300   45.3020 C   0  0  0  0  0  0  0  0  0  0  0  0
   57.6510   33.9960   46.0080 C   0  0  0  0  0  0  0  0  0  0  0  0
   58.6060   34.7980   46.8850 C   0  0  0  0  0  0  0  0  0  0  0  0
   59.9990   34.5350   46.3400 C   0  0  0  0  0  0  0  0  0  0  0  0
   59.9490   33.1240   45.7840 C   0  0  0  0  0  0  0  0  0  0  0  0
   58.0060   31.5260   45.5270 C   0  0  0  0  0  0  0  0  0  0  0  0
   57.9300   30.9620   46.6530 O   0  0  0  0  0  0  0  0  0  0  0  0
   58.9960   29.9250   49.0670 C   0  0  0  0  0  0  0  0  0  0  0  0
   59.0090   31.1610   49.7190 C   0  0  0  0  0  0  0  0  0  0  0  0
   60.0172   33.2999   51.2083 H   0  0  0  0  0  0  0  0  0  0  0  0
   60.9143   33.9998   49.8183 H   0  0  0  0  0  0  0  0  0  0  0  0
   59.1180   33.9971   49.8183 H   0  0  0  0  0  0  0  0  0  0  0  0
   61.7806   32.5288   48.2506 H   0  0  0  0  0  0  0  0  0  0  0  0
   61.7674   30.3176   47.0980 H   0  0  0  0  0  0  0  0  0  0  0  0
   60.8036   28.2536   46.6886 H   0  0  0  0  0  0  0  0  0  0  0  0
   60.1550   27.4873   48.1848 H   0  0  0  0  0  0  0  0  0  0  0  0
   57.9990   28.7970   46.7960 H   0  0  0  0  0  0  0  0  0  0  0  0
   57.2888   26.5306   44.3005 H   0  0  0  0  0  0  0  0  0  0  0  0
   56.7129   25.0914   46.8644 H   0  0  0  0  0  0  0  0  0  0  0  0
   55.3305   25.4541   45.7299 H   0  0  0  0  0  0  0  0  0  0  0  0
   58.4805   23.5470   46.2032 H   0  0  0  0  0  0  0  0  0  0  0  0
   59.0594   21.5591   44.8095 H   0  0  0  0  0  0  0  0  0  0  0  0
   57.6988   21.0064   42.7902 H   0  0  0  0  0  0  0  0  0  0  0  0
   55.7531   22.4391   42.1644 H   0  0  0  0  0  0  0  0  0  0  0  0
   55.1623   24.4254   43.5550 H   0  0  0  0  0  0  0  0  0  0  0  0
   58.3069   28.9183   44.4737 H   0  0  0  0  0  0  0  0  0  0  0  0
   57.2792   29.2860   43.0280 H   0  0  0  0  0  0  0  0  0  0  0  0
   57.1720   34.6524   45.2666 H   0  0  0  0  0  0  0  0  0  0  0  0
   56.8502   33.5352   46.6050 H   0  0  0  0  0  0  0  0  0  0  0  0
   58.3691   35.8706   46.8259 H   0  0  0  0  0  0  0  0  0  0  0  0
   58.5253   34.5029   47.9416 H   0  0  0  0  0  0  0  0  0  0  0  0
   60.2443   35.2544   45.5449 H   0  0  0  0  0  0  0  0  0  0  0  0
   60.7713   34.6440   47.1157 H   0  0  0  0  0  0  0  0  0  0  0  0
   60.6534   33.0149   44.9462 H   0  0  0  0  0  0  0  0  0  0  0  0
   60.2332   32.3757   46.5385 H   0  0  0  0  0  0  0  0  0  0  0  0
   58.2085   29.1925   49.2979 H   0  0  0  0  0  0  0  0  0  0  0  0
   58.2246   31.4018   50.4517 H   0  0  0  0  0  0  0  0  0  0  0  0
  1  2  1  0
  2  3  2  0
  3  4  1  0
  4  5  2  0
  5  6  1  0
  6  7  1  0
  7  8  1  0
  8  9  2  0
  8 10  1  0
 10 11  1  0
 11 12  1  0
 12 13  2  0
 13 14  1  0
 14 15  2  0
 15 16  1  0
 16 17  2  0
 10 18  1  0
 18 19  1  0
 19 20  2  0
 19 21  1  0
 21 22  1  0
 22 23  1  0
 23 24  2  0
 23 25  1  0
 25 26  1  0
 26 27  1  0
 27 28  1  0
 28 29  1  0
 29 30  1  0
 26 31  1  0
 31 32  2  0
  5 33  1  0
 33 34  2  0
 34  2  1  0
 17 12  1  0
 31 22  1  0
 30 26  1  0
  1 35  1  0
  1 36  1  0
  1 37  1  0
  3 38  1  0
  4 39  1  0
  6 40  1  0
  6 41  1  0
  7 42  1  0
 10 43  1  6
 11 44  1  0
 11 45  1  0
 13 46  1  0
 14 47  1  0
 15 48  1  0
 16 49  1  0
 17 50  1  0
 21 51  1  0
 21 52  1  0
 27 53  1  0
 27 54  1  0
 28 55  1  0
 28 56  1  0
 29 57  1  0
 29 58  1  0
 30 59  1  0
 30 60  1  0
 33 61  1  0
 34 62  1  0
M  CHG  2  18  -1  25  -1
M  END
>  <UniqueID>  (40) 
36

>  <SMILES>  (40) 
Cc1ccc(CNC(=O)[C@@H](Cc2ccccc2)[N-]C(=O)CN2C(=O)[N-]C3(CCCC3)C2=O)cc1

>  <Energy>  (40) 
77.52681766534533

>  <Genealogy>  (40) 
Cc1ccc(CNC(=O)C(Cc2ccccc2)[N-]C(=O)CN2C(=O)[N-]C3(CCCC3)C2=O)cc1 (protonated)
Cc1ccc(CNC(=O)[C@@H](Cc2ccccc2)[N-]C(=O)CN2C(=O)[N-]C3(CCCC3)C2=O)cc1 (chirality)
Cc1ccc(CNC(=O)[C@@H](Cc2ccccc2)[N-]C(=O)CN2C(=O)[N-]C3(CCCC3)C2=O)cc1 (3D coordinates assigned)
Cc1ccc(CNC(=O)[C@@H](Cc2ccccc2)[N-]C(=O)CN2C(=O)[N-]C3(CCCC3)C2=O)cc1 (nonaromatic ring conformer: 77.52681766534533 kcal/mol)

>  <smiles>  (40) 
Cc1ccc(CNC(=O)C(Cc2ccccc2)NC(=O)CN2C(=O)NC3(CCCC3)C2=O)cc1

>  <score_type>  (40) 
oracle

>  <origin>  (40) 
adg

>  <m_score__min__energy>  (40) 
-14.199999999999999

>  <m_primary>  (40) 
energy

$$$$
40:0
     RDKit          3D

 56 59  0  0  0  0  0  0  0  0999 V2000
   54.3760   25.9030   45.7380 N   0  0  0  0  0  0  0  0  0  0  0  0
   55.6570   24.7680   45.9850 S   0  0  0  0  0  0  0  0  0  0  0  0
   55.6520   23.7690   44.8610 O   0  0  0  0  0  0  0  0  0  0  0  0
   55.4460   24.0420   47.2830 O   0  0  0  0  0  0  0  0  0  0  0  0
   57.1920   25.6260   46.0360 C   0  0  0  0  0  0  0  0  0  0  0  0
   58.4080   24.9330   45.9900 C   0  0  0  0  0  0  0  0  0  0  0  0
   59.6180   25.6300   46.0030 C   0  0  0  0  0  0  0  0  0  0  0  0
   59.6220   27.0270   46.0620 C   0  0  0  0  0  0  0  0  0  0  0  0
   58.4110   27.7390   46.1180 C   0  0  0  0  0  0  0  0  0  0  0  0
   58.4090   29.2180   46.1830 C   0  0  0  0  0  0  0  0  0  0  0  0
   58.2980   29.9820   45.0080 C   0  0  0  0  0  0  0  0  0  0  0  0
   58.2880   31.3750   45.0660 C   0  0  0  0  0  0  0  0  0  0  0  0
   58.4240   32.0330   46.2940 C   0  0  0  0  0  0  0  0  0  0  0  0
   58.4890   33.5060   46.3190 C   0  0  0  0  0  0  0  0  0  0  0  0
   57.5750   34.1600   45.7480 O   0  0  0  0  0  0  0  0  0  0  0  0
   59.6730   34.1840   46.8130 N   0  0  1  0  0  0  0  0  0  0  0  0
   59.6050   34.2400   48.2940 C   0  0  0  0  0  0  0  0  0  0  0  0
   60.9800   34.5500   48.8940 C   0  0  0  0  0  0  0  0  0  0  0  0
   62.0000   33.4000   48.6110 C   0  0  1  0  0  0  0  0  0  0  0  0
   63.4270   34.0220   48.4590 C   0  0  0  0  0  0  0  0  0  0  0  0
   64.5190   33.0520   48.9120 C   0  0  0  0  0  0  0  0  0  0  0  0
   64.3290   32.6550   50.3940 C   0  0  0  0  0  0  0  0  0  0  0  0
   62.9310   32.7580   50.8580 N   0  0  0  0  0  0  0  0  0  0  0  0
   61.9860   32.3770   49.7980 C   0  0  0  0  0  0  0  0  0  0  0  0
   61.6090   32.6450   47.2970 C   0  0  0  0  0  0  0  0  0  0  0  0
   60.9270   33.5790   46.2840 C   0  0  0  0  0  0  0  0  0  0  0  0
   58.5330   31.2810   47.4730 C   0  0  0  0  0  0  0  0  0  0  0  0
   58.6330   31.8970   48.6800 F   0  0  0  0  0  0  0  0  0  0  0  0
   58.5160   29.8820   47.4190 C   0  0  0  0  0  0  0  0  0  0  0  0
   57.1970   27.0250   46.1080 C   0  0  0  0  0  0  0  0  0  0  0  0
   54.7950   26.7320   45.2510 H   0  0  0  0  0  0  0  0  0  0  0  0
   58.4101   23.8340   45.9434 H   0  0  0  0  0  0  0  0  0  0  0  0
   60.5695   25.0792   45.9668 H   0  0  0  0  0  0  0  0  0  0  0  0
   60.5776   27.5718   46.0646 H   0  0  0  0  0  0  0  0  0  0  0  0
   58.2183   29.4763   44.0344 H   0  0  0  0  0  0  0  0  0  0  0  0
   58.1726   31.9601   44.1417 H   0  0  0  0  0  0  0  0  0  0  0  0
   59.6440   35.1730   46.4720 H   0  0  0  0  0  0  0  0  0  0  0  0
   59.2565   33.2688   48.6753 H   0  0  0  0  0  0  0  0  0  0  0  0
   58.9073   35.0397   48.5834 H   0  0  0  0  0  0  0  0  0  0  0  0
   60.8754   34.6755   49.9818 H   0  0  0  0  0  0  0  0  0  0  0  0
   61.3602   35.4713   48.4287 H   0  0  0  0  0  0  0  0  0  0  0  0
   63.5935   34.2777   47.4022 H   0  0  0  0  0  0  0  0  0  0  0  0
   63.4796   34.9181   49.0948 H   0  0  0  0  0  0  0  0  0  0  0  0
   64.4765   32.1465   48.2889 H   0  0  0  0  0  0  0  0  0  0  0  0
   65.4946   33.5487   48.8050 H   0  0  0  0  0  0  0  0  0  0  0  0
   64.6619   31.6143   50.5209 H   0  0  0  0  0  0  0  0  0  0  0  0
   64.9218   33.3596   50.9957 H   0  0  0  0  0  0  0  0  0  0  0  0
   62.7420   33.7480   51.1460 H   0  0  0  0  0  0  0  0  0  0  0  0
   62.2620   31.3834   49.4151 H   0  0  0  0  0  0  0  0  0  0  0  0
   60.9741   32.3672   50.2292 H   0  0  0  0  0  0  0  0  0  0  0  0
   60.9180   31.8269   47.5485 H   0  0  0  0  0  0  0  0  0  0  0  0
   62.5304   32.2570   46.8382 H   0  0  0  0  0  0  0  0  0  0  0  0
   60.6846   33.0008   45.3801 H   0  0  0  0  0  0  0  0  0  0  0  0
   61.6259   34.4002   46.0667 H   0  0  0  0  0  0  0  0  0  0  0  0
   58.5867   29.2983   48.3487 H   0  0  0  0  0  0  0  0  0  0  0  0
   56.2435   27.5712   46.1572 H   0  0  0  0  0  0  0  0  0  0  0  0
  1  2  1  0
  2  3  2  0
  2  4  2  0
  2  5  1  0
  5  6  2  0
  6  7  1  0
  7  8  2  0
  8  9  1  0
  9 10  1  0
 10 11  2  0
 11 12  1  0
 12 13  2  0
 13 14  1  0
 14 15  2  0
 14 16  1  0
 16 17  1  0
 17 18  1  0
 19 18  1  1
 19 20  1  0
 20 21  1  0
 21 22  1  0
 22 23  1  0
 23 24  1  0
 19 25  1  0
 25 26  1  0
 13 27  1  0
 27 28  1  0
 27 29  2  0
  9 30  2  0
 30  5  1  0
 29 10  1  0
 26 16  1  0
 24 19  1  0
  1 31  1  0
  6 32  1  0
  7 33  1  0
  8 34  1  0
 11 35  1  0
 12 36  1  0
 16 37  1  6
 17 38  1  0
 17 39  1  0
 18 40  1  0
 18 41  1  0
 20 42  1  0
 20 43  1  0
 21 44  1  0
 21 45  1  0
 22 46  1  0
 22 47  1  0
 23 48  1  0
 24 49  1  0
 24 50  1  0
 25 51  1  0
 25 52  1  0
 26 53  1  0
 26 54  1  0
 29 55  1  0
 30 56  1  0
M  CHG  2   1  -1  16   1
M  END
>  <UniqueID>  (41) 
37

>  <SMILES>  (41) 
[NH-]S(=O)(=O)c1cccc(-c2ccc(C(=O)[NH+]3CCC4(CCCNC4)CC3)c(F)c2)c1

>  <Energy>  (41) 
88.49832180010218

>  <Genealogy>  (41) 
[NH-]S(=O)(=O)c1cccc(-c2ccc(C(=O)[NH+]3CCC4(CCCNC4)CC3)c(F)c2)c1 (protonated)
[NH-]S(=O)(=O)c1cccc(-c2ccc(C(=O)[NH+]3CCC4(CCCNC4)CC3)c(F)c2)c1 (3D coordinates assigned)
[NH-]S(=O)(=O)c1cccc(-c2ccc(C(=O)[NH+]3CCC4(CCCNC4)CC3)c(F)c2)c1 (nonaromatic ring conformer: 88.49832180010218 kcal/mol)

>  <smiles>  (41) 
NS(=O)(=O)c1cccc(-c2ccc(C(=O)N3CCC4(CCCNC4)CC3)c(F)c2)c1

>  <score_type>  (41) 
oracle

>  <origin>  (41) 
adg

>  <m_score__min__energy>  (41) 
-10.99

>  <m_primary>  (41) 
energy

$$$$
41:0
     RDKit          3D

 47 49  0  0  0  0  0  0  0  0999 V2000
   59.5270   34.5760   47.6330 C   0  0  0  0  0  0  0  0  0  0  0  0
   58.8980   33.9350   46.4860 N   0  0  0  0  0  0  0  0  0  0  0  0
   59.1930   34.1620   45.1890 C   0  0  0  0  0  0  0  0  0  0  0  0
   58.3280   33.4530   44.3770 C   0  0  0  0  0  0  0  0  0  0  0  0
   57.4730   32.7890   45.2370 C   0  0  0  0  0  0  0  0  0  0  0  0
   56.3650   31.9600   44.8820 N   0  0  0  0  0  0  0  0  0  0  0  0
   56.5380   30.3630   44.2290 S   0  0  0  0  0  0  0  0  0  0  0  0
   56.2990   30.4230   42.7460 O   0  0  0  0  0  0  0  0  0  0  0  0
   55.5170   29.4500   44.8480 O   0  0  0  0  0  0  0  0  0  0  0  0
   58.1860   29.7330   44.5250 C   0  0  0  0  0  0  0  0  0  0  0  0
   58.1470   28.5640   45.4710 C   0  0  0  0  0  0  0  0  0  0  0  0
   58.9320   28.5620   46.6350 C   0  0  0  0  0  0  0  0  0  0  0  0
   58.9260   27.4540   47.4870 C   0  0  0  0  0  0  0  0  0  0  0  0
   58.1480   26.3360   47.1770 C   0  0  0  0  0  0  0  0  0  0  0  0
   57.3750   26.3140   46.0050 C   0  0  0  0  0  0  0  0  0  0  0  0
   56.5750   25.1180   45.6650 C   0  0  0  0  0  0  0  0  0  0  0  0
   55.3910   25.0300   46.0920 O   0  0  0  0  0  0  0  0  0  0  0  0
   57.1310   24.0450   44.8790 N   0  0  0  0  0  0  0  0  0  0  0  0
   56.2660   23.2510   43.9980 C   0  0  0  0  0  0  0  0  0  0  0  0
   56.2460   21.7810   44.4470 C   0  0  0  0  0  0  0  0  0  0  0  0
   57.6190   21.2700   44.9390 C   0  0  0  0  0  0  0  0  0  0  0  0
   58.7750   22.2040   44.5580 C   0  0  0  0  0  0  0  0  0  0  0  0
   58.5230   23.6160   45.1060 C   0  0  0  0  0  0  0  0  0  0  0  0
   57.3570   27.4430   45.1710 C   0  0  0  0  0  0  0  0  0  0  0  0
   57.8370   33.1060   46.5250 C   0  0  0  0  0  0  0  0  0  0  0  0
   59.1134   34.1545   48.5610 H   0  0  0  0  0  0  0  0  0  0  0  0
   60.6123   34.3997   47.6020 H   0  0  0  0  0  0  0  0  0  0  0  0
   59.3302   35.6578   47.6020 H   0  0  0  0  0  0  0  0  0  0  0  0
   60.0025   34.8150   44.8308 H   0  0  0  0  0  0  0  0  0  0  0  0
   58.3212   33.4233   43.2774 H   0  0  0  0  0  0  0  0  0  0  0  0
   58.6259   29.4100   43.5699 H   0  0  0  0  0  0  0  0  0  0  0  0
   58.7941   30.5316   44.9749 H   0  0  0  0  0  0  0  0  0  0  0  0
   59.5543   29.4360   46.8775 H   0  0  0  0  0  0  0  0  0  0  0  0
   59.5349   27.4624   48.4031 H   0  0  0  0  0  0  0  0  0  0  0  0
   58.1409   25.4690   47.8540 H   0  0  0  0  0  0  0  0  0  0  0  0
   55.2435   23.6548   44.0346 H   0  0  0  0  0  0  0  0  0  0  0  0
   56.6579   23.3046   42.9716 H   0  0  0  0  0  0  0  0  0  0  0  0
   55.5209   21.6771   45.2677 H   0  0  0  0  0  0  0  0  0  0  0  0
   55.9707   21.1775   43.5695 H   0  0  0  0  0  0  0  0  0  0  0  0
   57.5876   21.1792   46.0348 H   0  0  0  0  0  0  0  0  0  0  0  0
   57.8039   20.3006   44.4531 H   0  0  0  0  0  0  0  0  0  0  0  0
   59.7120   21.8126   44.9809 H   0  0  0  0  0  0  0  0  0  0  0  0
   58.8479   22.2538   43.4615 H   0  0  0  0  0  0  0  0  0  0  0  0
   58.7265   23.6211   46.1870 H   0  0  0  0  0  0  0  0  0  0  0  0
   59.1890   24.3143   44.5780 H   0  0  0  0  0  0  0  0  0  0  0  0
   56.7187   27.4494   44.2752 H   0  0  0  0  0  0  0  0  0  0  0  0
   57.3425   32.7420   47.4377 H   0  0  0  0  0  0  0  0  0  0  0  0
  1  2  1  0
  2  3  1  0
  3  4  2  0
  4  5  1  0
  5  6  1  0
  6  7  1  0
  7  8  2  0
  7  9  2  0
  7 10  1  0
 10 11  1  0
 11 12  2  0
 12 13  1  0
 13 14  2  0
 14 15  1  0
 15 16  1  0
 16 17  2  0
 16 18  1  0
 18 19  1  0
 19 20  1  0
 20 21  1  0
 21 22  1  0
 22 23  1  0
 15 24  2  0
  5 25  2  0
 25  2  1  0
 24 11  1  0
 23 18  1  0
  1 26  1  0
  1 27  1  0
  1 28  1  0
  3 29  1  0
  4 30  1  0
 10 31  1  0
 10 32  1  0
 12 33  1  0
 13 34  1  0
 14 35  1  0
 19 36  1  0
 19 37  1  0
 20 38  1  0
 20 39  1  0
 21 40  1  0
 21 41  1  0
 22 42  1  0
 22 43  1  0
 23 44  1  0
 23 45  1  0
 24 46  1  0
 25 47  1  0
M  CHG  1   6  -1
M  END
>  <UniqueID>  (42) 
38

>  <SMILES>  (42) 
Cn1ccc([N-]S(=O)(=O)Cc2cccc(C(=O)N3CCCCC3)c2)c1

>  <Energy>  (42) 
75.2475860946362

>  <Genealogy>  (42) 
Cn1ccc([N-]S(=O)(=O)Cc2cccc(C(=O)N3CCCCC3)c2)c1 (protonated)
Cn1ccc([N-]S(=O)(=O)Cc2cccc(C(=O)N3CCCCC3)c2)c1 (3D coordinates assigned)
Cn1ccc([N-]S(=O)(=O)Cc2cccc(C(=O)N3CCCCC3)c2)c1 (nonaromatic ring conformer: 75.2475860946362 kcal/mol)

>  <smiles>  (42) 
Cn1ccc(NS(=O)(=O)Cc2cccc(C(=O)N3CCCCC3)c2)c1

>  <score_type>  (42) 
oracle

>  <origin>  (42) 
adg

>  <m_score__min__energy>  (42) 
-10.73

>  <m_primary>  (42) 
energy

$$$$
42:0
     RDKit          3D

 56 59  0  0  0  0  0  0  0  0999 V2000
   60.1520   29.0500   49.5440 O   0  0  0  0  0  0  0  0  0  0  0  0
   60.1400   29.8070   48.5370 C   0  0  0  0  0  0  0  0  0  0  0  0
   59.3260   29.4210   47.3670 C   0  0  0  0  0  0  0  0  0  0  0  0
   58.7620   30.3080   46.4670 C   0  0  0  0  0  0  0  0  0  0  0  0
   58.1410   29.5260   45.5160 C   0  0  0  0  0  0  0  0  0  0  0  0
   57.2980   30.1120   44.0920 S   0  0  0  0  0  0  0  0  0  0  0  0
   56.9940   28.9610   43.1750 O   0  0  0  0  0  0  0  0  0  0  0  0
   56.0030   30.7460   44.5160 O   0  0  0  0  0  0  0  0  0  0  0  0
   58.2670   31.2870   43.2560 N   0  0  0  0  0  0  0  0  0  0  0  0
   57.6710   32.6160   43.4020 C   0  0  0  0  0  0  0  0  0  0  0  0
   58.1190   33.2320   44.6980 C   0  0  0  0  0  0  0  0  0  0  0  0
   57.3570   33.0680   45.8640 C   0  0  0  0  0  0  0  0  0  0  0  0
   57.7730   33.6790   47.0490 C   0  0  0  0  0  0  0  0  0  0  0  0
   58.9020   34.4370   47.0670 N   0  0  0  0  0  0  0  0  0  0  0  0
   59.6520   34.6230   45.9480 C   0  0  0  0  0  0  0  0  0  0  0  0
   59.2720   34.0290   44.7420 C   0  0  0  0  0  0  0  0  0  0  0  0
   58.3610   28.2080   45.8530 C   0  0  0  0  0  0  0  0  0  0  0  0
   59.0870   28.1500   46.9840 N   0  0  0  0  0  0  0  0  0  0  0  0
   60.9120   31.0240   48.5580 N   0  0  0  0  0  0  0  0  0  0  0  0
   61.5840   31.5190   47.3490 C   0  0  0  0  0  0  0  0  0  0  0  0
   63.0270   31.9790   47.6480 C   0  0  0  0  0  0  0  0  0  0  0  0
   63.2330   32.3850   49.0590 N   0  0  0  0  0  0  0  0  0  0  0  0
   64.4390   33.2210   49.2680 C   0  0  0  0  0  0  0  0  0  0  0  0
   65.5060   32.5680   50.1290 C   0  0  0  0  0  0  0  0  0  0  0  0
   66.8020   33.1130   50.1750 C   0  0  0  0  0  0  0  0  0  0  0  0
   67.7930   32.5210   50.9620 C   0  0  0  0  0  0  0  0  0  0  0  0
   67.5080   31.3700   51.6980 C   0  0  0  0  0  0  0  0  0  0  0  0
   66.2340   30.8010   51.6380 C   0  0  0  0  0  0  0  0  0  0  0  0
   65.2380   31.3880   50.8530 C   0  0  0  0  0  0  0  0  0  0  0  0
   64.0230   30.7870   50.7790 F   0  0  0  0  0  0  0  0  0  0  0  0
   62.0200   32.9190   49.6950 C   0  0  0  0  0  0  0  0  0  0  0  0
   60.9930   31.7930   49.8070 C   0  0  0  0  0  0  0  0  0  0  0  0
   58.8009   31.4067   46.5027 H   0  0  0  0  0  0  0  0  0  0  0  0
   58.2450   31.0280   42.2430 H   0  0  0  0  0  0  0  0  0  0  0  0
   57.9898   33.2538   42.5644 H   0  0  0  0  0  0  0  0  0  0  0  0
   56.5747   32.5260   43.4010 H   0  0  0  0  0  0  0  0  0  0  0  0
   56.4387   32.4627   45.8453 H   0  0  0  0  0  0  0  0  0  0  0  0
   57.1861   33.5468   47.9699 H   0  0  0  0  0  0  0  0  0  0  0  0
   60.5599   35.2425   45.9925 H   0  0  0  0  0  0  0  0  0  0  0  0
   59.8726   34.1853   43.8338 H   0  0  0  0  0  0  0  0  0  0  0  0
   57.9990   27.3382   45.2852 H   0  0  0  0  0  0  0  0  0  0  0  0
   59.4350   27.2770   47.4370 H   0  0  0  0  0  0  0  0  0  0  0  0
   61.6142   30.7122   46.6019 H   0  0  0  0  0  0  0  0  0  0  0  0
   61.0188   32.3838   46.9712 H   0  0  0  0  0  0  0  0  0  0  0  0
   63.7122   31.1493   47.4199 H   0  0  0  0  0  0  0  0  0  0  0  0
   63.2232   32.8626   47.0229 H   0  0  0  0  0  0  0  0  0  0  0  0
   64.8783   33.4452   48.2848 H   0  0  0  0  0  0  0  0  0  0  0  0
   64.1095   34.1241   49.8027 H   0  0  0  0  0  0  0  0  0  0  0  0
   67.0370   34.0123   49.5867 H   0  0  0  0  0  0  0  0  0  0  0  0
   68.7996   32.9628   51.0016 H   0  0  0  0  0  0  0  0  0  0  0  0
   68.2865   30.9111   52.3251 H   0  0  0  0  0  0  0  0  0  0  0  0
   66.0139   29.8879   52.2105 H   0  0  0  0  0  0  0  0  0  0  0  0
   62.2640   33.2993   50.6979 H   0  0  0  0  0  0  0  0  0  0  0  0
   61.6106   33.7428   49.0918 H   0  0  0  0  0  0  0  0  0  0  0  0
   61.2868   31.1191   50.6253 H   0  0  0  0  0  0  0  0  0  0  0  0
   60.0073   32.2382   50.0073 H   0  0  0  0  0  0  0  0  0  0  0  0
  1  2  2  0
  2  3  1  0
  3  4  2  0
  4  5  1  0
  5  6  1  0
  6  7  2  0
  6  8  2  0
  6  9  1  0
  9 10  1  0
 10 11  1  0
 11 12  2  0
 12 13  1  0
 13 14  2  0
 14 15  1  0
 15 16  2  0
  5 17  2  0
 17 18  1  0
  2 19  1  0
 19 20  1  0
 20 21  1  0
 21 22  1  0
 22 23  1  0
 23 24  1  0
 24 25  2  0
 25 26  1  0
 26 27  2  0
 27 28  1  0
 28 29  2  0
 29 30  1  0
 22 31  1  0
 31 32  1  0
 18  3  1  0
 32 19  1  0
 16 11  1  0
 29 24  1  0
  4 33  1  0
  9 34  1  0
 10 35  1  0
 10 36  1  0
 12 37  1  0
 13 38  1  0
 15 39  1  0
 16 40  1  0
 17 41  1  0
 18 42  1  0
 20 43  1  0
 20 44  1  0
 21 45  1  0
 21 46  1  0
 23 47  1  0
 23 48  1  0
 25 49  1  0
 26 50  1  0
 27 51  1  0
 28 52  1  0
 31 53  1  0
 31 54  1  0
 32 55  1  0
 32 56  1  0
M  END
>  <UniqueID>  (43) 
39

>  <SMILES>  (43) 
O=C(c1cc(S(=O)(=O)NCc2ccncc2)c[nH]1)N1CCN(Cc2ccccc2F)CC1

>  <Energy>  (43) 
95.11348127521198

>  <Genealogy>  (43) 
O=C(c1cc(S(=O)(=O)NCc2ccncc2)c[nH]1)N1CCN(Cc2ccccc2F)CC1 (3D coordinates assigned)
O=C(c1cc(S(=O)(=O)NCc2ccncc2)c[nH]1)N1CCN(Cc2ccccc2F)CC1 (nonaromatic ring conformer: 95.11348127521198 kcal/mol)

>  <smiles>  (43) 
O=C(c1cc(S(=O)(=O)NCc2ccncc2)c[nH]1)N1CCN(Cc2ccccc2F)CC1

>  <score_type>  (43) 
oracle

>  <origin>  (43) 
adg

>  <m_score__min__energy>  (43) 
-9.8000000000000007

>  <m_primary>  (43) 
energy

$$$$
43:0
     RDKit          3D

 58 61  0  0  1  0  0  0  0  0999 V2000
   55.4650   20.4010   45.6540 C   0  0  0  0  0  0  0  0  0  0  0  0
   55.2550   21.8230   45.3680 C   0  0  0  0  0  0  0  0  0  0  0  0
   54.1120   22.3100   45.6220 O   0  0  0  0  0  0  0  0  0  0  0  0
   56.2180   22.7040   44.8330 N   0  0  0  0  0  0  0  0  0  0  0  0
   55.8190   24.0840   44.6200 C   0  0  0  0  0  0  0  0  0  0  0  0
   57.0280   24.9340   44.2460 C   0  0  0  0  0  0  0  0  0  0  0  0
   58.0970   24.6080   45.1570 N   0  0  0  0  0  0  0  0  0  0  0  0
   58.7390   25.5380   46.0140 C   0  0  0  0  0  0  0  0  0  0  0  0
   58.5750   25.5660   47.3810 C   0  0  0  0  0  0  0  0  0  0  0  0
   59.2130   26.4880   48.1990 C   0  0  0  0  0  0  0  0  0  0  0  0
   60.0560   27.4320   47.6480 C   0  0  0  0  0  0  0  0  0  0  0  0
   60.7370   28.4020   48.4400 N   0  0  0  0  0  0  0  0  0  0  0  0
   60.3410   29.6350   48.3160 C   0  0  0  0  0  0  0  0  0  0  0  0
   61.0660   30.5760   48.9470 N   0  0  0  0  0  0  0  0  0  0  0  0
   60.6490   31.8480   48.8140 C   0  0  0  0  0  0  0  0  0  0  0  0
   59.5470   32.2220   48.0840 C   0  0  0  0  0  0  0  0  0  0  0  0
   59.0340   33.8730   47.9440 Cl  0  0  0  0  0  0  0  0  0  0  0  0
   58.8280   31.2410   47.4510 C   0  0  0  0  0  0  0  0  0  0  0  0
   57.7910   31.4290   46.7310 N   0  0  0  0  0  0  0  0  0  0  0  0
   57.8680   31.7850   45.3670 C   0  0  0  0  0  0  0  0  0  0  0  0
   58.3720   33.0560   45.0550 C   0  0  0  0  0  0  0  0  0  0  0  0
   58.5170   33.4840   43.7530 C   0  0  0  0  0  0  0  0  0  0  0  0
   58.1440   32.6040   42.7610 C   0  0  0  0  0  0  0  0  0  0  0  0
   57.6470   31.3520   43.0490 C   0  0  0  0  0  0  0  0  0  0  0  0
   57.4910   30.8980   44.3640 C   0  0  0  0  0  0  0  0  0  0  0  0
   56.8830   29.3160   44.6930 S   0  0  0  0  0  0  0  0  0  0  0  0
   57.3550   28.2160   43.4870 N   0  0  0  0  0  0  0  0  0  0  0  0
   57.4240   28.8830   46.0500 O   0  0  0  0  0  0  0  0  0  0  0  0
   55.3840   29.3490   44.8680 O   0  0  0  0  0  0  0  0  0  0  0  0
   59.2580   29.9690   47.5930 N   0  0  0  0  0  0  0  0  0  0  0  0
   60.2390   27.4290   46.2790 C   0  0  0  0  0  0  0  0  0  0  0  0
   59.5930   26.5020   45.4850 C   0  0  0  0  0  0  0  0  0  0  0  0
   58.5400   23.2250   45.1930 C   0  0  0  0  0  0  0  0  0  0  0  0
   57.5600   22.3330   44.4850 C   0  0  0  0  0  0  0  0  0  0  0  0
   55.4880   20.2455   46.7427 H   0  0  0  0  0  0  0  0  0  0  0  0
   54.6438   19.8139   45.2170 H   0  0  0  0  0  0  0  0  0  0  0  0
   56.4208   20.0763   45.2170 H   0  0  0  0  0  0  0  0  0  0  0  0
   55.0802   24.1264   43.8062 H   0  0  0  0  0  0  0  0  0  0  0  0
   55.3800   24.4764   45.5491 H   0  0  0  0  0  0  0  0  0  0  0  0
   57.3360   24.7122   43.2135 H   0  0  0  0  0  0  0  0  0  0  0  0
   56.7801   26.0036   44.3127 H   0  0  0  0  0  0  0  0  0  0  0  0
   57.9085   24.8244   47.8454 H   0  0  0  0  0  0  0  0  0  0  0  0
   59.0469   26.4665   49.2862 H   0  0  0  0  0  0  0  0  0  0  0  0
   61.8950   30.3050   49.4990 H   0  0  0  0  0  0  0  0  0  0  0  0
   61.2253   32.6363   49.3204 H   0  0  0  0  0  0  0  0  0  0  0  0
   58.6602   33.7315   45.8739 H   0  0  0  0  0  0  0  0  0  0  0  0
   58.9126   34.4828   43.5167 H   0  0  0  0  0  0  0  0  0  0  0  0
   58.2459   32.9097   41.7093 H   0  0  0  0  0  0  0  0  0  0  0  0
   57.3637   30.6878   42.2192 H   0  0  0  0  0  0  0  0  0  0  0  0
   56.9580   27.2850   43.5130 H   0  0  0  0  0  0  0  0  0  0  0  0
   58.2810   28.3350   43.0800 H   0  0  0  0  0  0  0  0  0  0  0  0
   58.7390   29.1930   47.1290 H   0  0  0  0  0  0  0  0  0  0  0  0
   60.9056   28.1720   45.8168 H   0  0  0  0  0  0  0  0  0  0  0  0
   59.7588   26.5260   44.3978 H   0  0  0  0  0  0  0  0  0  0  0  0
   59.5202   23.1472   44.6998 H   0  0  0  0  0  0  0  0  0  0  0  0
   58.6136   22.9052   46.2429 H   0  0  0  0  0  0  0  0  0  0  0  0
   57.6954   22.4335   43.3980 H   0  0  0  0  0  0  0  0  0  0  0  0
   57.7364   21.2905   44.7883 H   0  0  0  0  0  0  0  0  0  0  0  0
  1  2  1  0
  2  3  2  0
  2  4  1  0
  4  5  1  0
  5  6  1  0
  6  7  1  0
  7  8  1  0
  8  9  2  0
  9 10  1  0
 10 11  2  0
 11 12  1  0
 12 13  2  0
 13 14  1  0
 14 15  1  0
 15 16  2  0
 16 17  1  0
 16 18  1  0
 18 19  2  0
 19 20  1  0
 20 21  2  0
 21 22  1  0
 22 23  2  0
 23 24  1  0
 24 25  2  0
 25 26  1  0
 26 27  1  0
 26 28  2  0
 26 29  2  0
 18 30  1  0
 11 31  1  0
 31 32  2  0
  7 33  1  0
 33 34  1  0
 34  4  1  0
 32  8  1  0
 30 13  1  0
 25 20  1  0
  1 35  1  0
  1 36  1  0
  1 37  1  0
  5 38  1  0
  5 39  1  0
  6 40  1  0
  6 41  1  0
  9 42  1  0
 10 43  1  0
 14 44  1  0
 15 45  1  0
 21 46  1  0
 22 47  1  0
 23 48  1  0
 24 49  1  0
 27 50  1  0
 27 51  1  0
 30 52  1  0
 31 53  1  0
 32 54  1  0
 33 55  1  0
 33 56  1  0
 34 57  1  0
 34 58  1  0
M  END
>  <smiles>  (44) 
CC(=O)N1CCN(c2ccc(N=c3[nH]cc(Cl)c(=Nc4ccccc4S(N)(=O)=O)[nH]3)cc2)CC1

>  <score_type>  (44) 
oracle

>  <origin>  (44) 
adg

>  <m_score__min__energy>  (44) 
-10.220000000000001

>  <m_primary>  (44) 
energy

$$$$
44:0
     RDKit          3D

 47 49  0  0  0  0  0  0  0  0999 V2000
   50.7600   21.0817   46.1893 H   0  0  0  0  0  0  0  0  0  0  0  0
   50.9950   22.0440   45.7110 C   0  0  0  0  0  0  0  0  0  0  0  0
   52.2880   22.3740   45.4510 N   0  0  0  0  0  0  0  0  0  0  0  0
   52.6250   23.5550   44.8570 C   0  0  0  0  0  0  0  0  0  0  0  0
   53.8650   23.8580   44.6030 N   0  0  0  0  0  0  0  0  0  0  0  0
   54.6610   24.8530   45.2640 C   0  0  0  0  0  0  0  0  0  0  0  0
   54.1560   25.9410   45.6530 O   0  0  0  0  0  0  0  0  0  0  0  0
   56.0460   24.5870   45.4930 N   0  0  0  0  0  0  0  0  0  0  0  0
   56.7370   24.9050   46.7380 C   0  0  0  0  0  0  0  0  0  0  0  0
   56.0459   24.7531   47.5802 H   0  0  0  0  0  0  0  0  0  0  0  0
   57.6117   24.2441   46.8279 H   0  0  0  0  0  0  0  0  0  0  0  0
   57.2250   26.3560   46.7490 C   0  0  0  0  0  0  0  0  0  0  0  0
   56.9137   26.8329   47.6901 H   0  0  0  0  0  0  0  0  0  0  0  0
   58.3214   26.3572   46.6600 H   0  0  0  0  0  0  0  0  0  0  0  0
   56.6650   27.1080   45.6230 N   0  0  0  0  0  0  0  0  0  0  0  0
   56.1100   26.5690   44.9190 H   0  0  0  0  0  0  0  0  0  0  0  0
   57.0480   28.4570   45.2990 C   0  0  0  0  0  0  0  0  0  0  0  0
   58.3440   28.9350   45.5600 C   0  0  0  0  0  0  0  0  0  0  0  0
   59.0819   28.2799   46.0462 H   0  0  0  0  0  0  0  0  0  0  0  0
   58.6990   30.2400   45.2040 C   0  0  0  0  0  0  0  0  0  0  0  0
   59.7224   30.5979   45.3899 H   0  0  0  0  0  0  0  0  0  0  0  0
   57.7580   31.0960   44.6110 C   0  0  0  0  0  0  0  0  0  0  0  0
   58.1530   32.4630   44.2130 C   0  0  0  0  0  0  0  0  0  0  0  0
   58.1290   32.7660   42.9860 O   0  0  0  0  0  0  0  0  0  0  0  0
   58.5830   33.4390   45.1800 N   0  0  0  0  0  0  0  0  0  0  0  0
   58.8210   34.8340   44.8310 C   0  0  0  0  0  0  0  0  0  0  0  0
   59.3731   34.9009   43.8820 H   0  0  0  0  0  0  0  0  0  0  0  0
   57.8760   35.3816   44.7001 H   0  0  0  0  0  0  0  0  0  0  0  0
   59.6500   35.4200   45.9670 C   0  0  0  0  0  0  0  0  0  0  0  0
   60.6919   35.5618   45.6441 H   0  0  0  0  0  0  0  0  0  0  0  0
   59.2642   36.4022   46.2775 H   0  0  0  0  0  0  0  0  0  0  0  0
   59.5840   34.4100   47.1130 C   0  0  0  0  0  0  0  0  0  0  0  0
   60.5784   34.2806   47.5651 H   0  0  0  0  0  0  0  0  0  0  0  0
   58.9037   34.7494   47.9080 H   0  0  0  0  0  0  0  0  0  0  0  0
   59.1080   33.0970   46.4960 C   0  0  0  0  0  0  0  0  0  0  0  0
   59.9475   32.3926   46.4014 H   0  0  0  0  0  0  0  0  0  0  0  0
   58.3440   32.6115   47.1210 H   0  0  0  0  0  0  0  0  0  0  0  0
   56.4630   30.6200   44.3540 C   0  0  0  0  0  0  0  0  0  0  0  0
   55.7242   31.2764   43.8710 H   0  0  0  0  0  0  0  0  0  0  0  0
   56.1080   29.3160   44.7090 C   0  0  0  0  0  0  0  0  0  0  0  0
   55.0837   28.9599   44.5246 H   0  0  0  0  0  0  0  0  0  0  0  0
   51.6140   24.4600   44.4970 C   0  0  0  0  0  0  0  0  0  0  0  0
   51.8685   25.4137   44.0116 H   0  0  0  0  0  0  0  0  0  0  0  0
   50.2810   24.1360   44.7620 C   0  0  0  0  0  0  0  0  0  0  0  0
   49.4797   24.8383   44.4888 H   0  0  0  0  0  0  0  0  0  0  0  0
   49.9660   22.9220   45.3730 C   0  0  0  0  0  0  0  0  0  0  0  0
   48.9188   22.6607   45.5855 H   0  0  0  0  0  0  0  0  0  0  0  0
  1  2  1  0
  2  3  1  0
  3  4  1  0
  4  5  2  0
  5  6  1  0
  6  7  2  0
  6  8  1  0
  8  9  1  0
  9 10  1  0
  9 11  1  0
  9 12  1  0
 12 13  1  0
 12 14  1  0
 12 15  1  0
 15 16  1  0
 15 17  1  0
 17 18  2  0
 18 19  1  0
 18 20  1  0
 20 21  1  0
 20 22  2  0
 22 23  1  0
 23 24  2  0
 23 25  1  0
 25 26  1  0
 26 27  1  0
 26 28  1  0
 26 29  1  0
 29 30  1  0
 29 31  1  0
 29 32  1  0
 32 33  1  0
 32 34  1  0
 32 35  1  0
 35 36  1  0
 35 37  1  0
 22 38  1  0
 38 39  1  0
 38 40  2  0
 40 41  1  0
  4 42  1  0
 42 43  1  0
 42 44  2  0
 44 45  1  0
 44 46  1  0
 46 47  1  0
 46  2  2  0
 40 17  1  0
 35 25  1  0
M  CHG  2   3  -1   8  -1
M  END
>  <UniqueID>  (45) 
40

>  <SMILES>  (45) 
O=C(/N=c1/cccc[n-]1)[N-]CCNc1ccc(C(=O)N2CCCC2)cc1

>  <Energy>  (45) 
51.71660051500679

>  <Genealogy>  (45) 
O=C(N=c1cccc[n-]1)[N-]CCNc1ccc(C(=O)N2CCCC2)cc1 (protonated)
O=C(/N=c1/cccc[n-]1)[N-]CCNc1ccc(C(=O)N2CCCC2)cc1 (cis-trans isomerization)
O=C(/N=c1/cccc[n-]1)[N-]CCNc1ccc(C(=O)N2CCCC2)cc1 (3D coordinates assigned)
O=C(/N=c1/cccc[n-]1)[N-]CCNc1ccc(C(=O)N2CCCC2)cc1 (nonaromatic ring conformer: 51.71660051500679 kcal/mol)

>  <smiles>  (45) 
O=C(N=c1cccc[nH]1)NCCNc1ccc(C(=O)N2CCCC2)cc1

>  <score_type>  (45) 
oracle

>  <origin>  (45) 
adg

>  <m_score__min__energy>  (45) 
-11.26

>  <m_primary>  (45) 
energy

$$$$
45:0
     RDKit          3D

 52 55  0  0  0  0  0  0  0  0999 V2000
   66.0730   31.5120   49.8450 H   0  0  0  0  0  0  0  0  0  0  0  0
   65.9130   31.4240   50.8400 O   0  0  0  0  0  0  0  0  0  0  0  0
   65.1640   32.3490   51.5690 C   0  0  0  0  0  0  0  0  0  0  0  0
   65.3200   32.3940   52.9590 C   0  0  0  0  0  0  0  0  0  0  0  0
   66.0256   31.7090   53.4519 H   0  0  0  0  0  0  0  0  0  0  0  0
   64.5850   33.3040   53.7260 C   0  0  0  0  0  0  0  0  0  0  0  0
   64.7440   33.3390   55.0720 F   0  0  0  0  0  0  0  0  0  0  0  0
   63.6910   34.1800   53.1050 C   0  0  0  0  0  0  0  0  0  0  0  0
   63.1129   34.8951   53.7088 H   0  0  0  0  0  0  0  0  0  0  0  0
   63.5310   34.1480   51.7170 C   0  0  0  0  0  0  0  0  0  0  0  0
   62.8331   34.8453   51.2304 H   0  0  0  0  0  0  0  0  0  0  0  0
   64.2560   33.2310   50.9410 C   0  0  0  0  0  0  0  0  0  0  0  0
   64.0750   33.2340   49.4790 C   0  0  0  0  0  0  0  0  0  0  0  0
   65.1040   33.2080   48.7500 O   0  0  0  0  0  0  0  0  0  0  0  0
   62.7590   33.2840   48.8820 N   0  0  0  0  0  0  0  0  0  0  0  0
   62.6160   33.3460   47.4220 C   0  0  0  0  0  0  0  0  0  0  0  0
   63.5158   32.9233   46.9512 H   0  0  0  0  0  0  0  0  0  0  0  0
   62.4898   34.3960   47.1195 H   0  0  0  0  0  0  0  0  0  0  0  0
   61.3890   32.5480   46.9730 C   0  0  0  0  0  0  0  0  0  0  0  0
   61.5780   31.4772   47.1393 H   0  0  0  0  0  0  0  0  0  0  0  0
   61.2143   32.7524   45.9064 H   0  0  0  0  0  0  0  0  0  0  0  0
   60.1880   32.9440   47.7230 N   0  0  0  0  0  0  0  0  0  0  0  0
   58.8900   32.7570   47.1240 C   0  0  0  0  0  0  0  0  0  0  0  0
   57.9600   33.5690   47.3770 O   0  0  0  0  0  0  0  0  0  0  0  0
   58.6280   31.6280   46.2090 C   0  0  0  0  0  0  0  0  0  0  0  0
   58.8250   30.3000   46.5390 C   0  0  0  0  0  0  0  0  0  0  0  0
   59.2159   29.9132   47.4917 H   0  0  0  0  0  0  0  0  0  0  0  0
   58.4370   29.5500   45.4430 C   0  0  0  0  0  0  0  0  0  0  0  0
   58.5380   28.2070   45.4070 C   0  0  0  0  0  0  0  0  0  0  0  0
   59.5006   27.7809   45.0879 H   0  0  0  0  0  0  0  0  0  0  0  0
   57.4650   27.2640   45.7600 C   0  0  0  0  0  0  0  0  0  0  0  0
   57.6520   26.0900   46.3910 N   0  0  0  0  0  0  0  0  0  0  0  0
   56.3920   25.6310   46.5670 C   0  0  0  0  0  0  0  0  0  0  0  0
   56.1440   24.5290   47.1220 O   0  0  0  0  0  0  0  0  0  0  0  0
   55.4200   26.4490   46.1090 N   0  0  0  0  0  0  0  0  0  0  0  0
   56.1170   27.4840   45.6110 C   0  0  0  0  0  0  0  0  0  0  0  0
   55.5340   28.6030   45.0230 O   0  0  0  0  0  0  0  0  0  0  0  0
   57.9630   30.4680   44.4880 C   0  0  0  0  0  0  0  0  0  0  0  0
   57.3130   30.1860   43.3500 C   0  0  0  0  0  0  0  0  0  0  0  0
   56.9928   31.0002   42.6832 H   0  0  0  0  0  0  0  0  0  0  0  0
   57.0998   29.1404   43.0830 H   0  0  0  0  0  0  0  0  0  0  0  0
   58.1270   31.7330   44.9570 N   0  0  0  0  0  0  0  0  0  0  0  0
   57.7820   32.9790   44.2600 C   0  0  0  0  0  0  0  0  0  0  0  0
   57.5646   33.7643   44.9989 H   0  0  0  0  0  0  0  0  0  0  0  0
   58.6271   33.2926   43.6296 H   0  0  0  0  0  0  0  0  0  0  0  0
   56.8960   32.8132   43.6296 H   0  0  0  0  0  0  0  0  0  0  0  0
   60.3080   33.7510   48.9430 C   0  0  0  0  0  0  0  0  0  0  0  0
   59.4203   33.5864   49.5713 H   0  0  0  0  0  0  0  0  0  0  0  0
   60.3871   34.8097   48.6551 H   0  0  0  0  0  0  0  0  0  0  0  0
   61.5640   33.3670   49.7390 C   0  0  0  0  0  0  0  0  0  0  0  0
   61.3984   32.3880   50.2125 H   0  0  0  0  0  0  0  0  0  0  0  0
   61.7405   34.1495   50.4917 H   0  0  0  0  0  0  0  0  0  0  0  0
  1  2  1  0
  2  3  1  0
  3  4  2  0
  4  5  1  0
  4  6  1  0
  6  7  1  0
  6  8  2  0
  8  9  1  0
  8 10  1  0
 10 11  1  0
 10 12  2  0
 12 13  1  0
 13 14  2  0
 13 15  1  0
 15 16  1  0
 16 17  1  0
 16 18  1  0
 16 19  1  0
 19 20  1  0
 19 21  1  0
 19 22  1  0
 22 23  1  0
 23 24  2  0
 23 25  1  0
 25 26  2  0
 26 27  1  0
 26 28  1  0
 28 29  2  0
 29 30  1  0
 29 31  1  0
 31 32  1  0
 32 33  1  0
 33 34  2  0
 33 35  1  0
 35 36  1  0
 36 37  1  0
 28 38  1  0
 38 39  2  0
 39 40  1  0
 39 41  1  0
 38 42  1  0
 42 43  1  0
 43 44  1  0
 43 45  1  0
 43 46  1  0
 22 47  1  0
 47 48  1  0
 47 49  1  0
 47 50  1  0
 50 51  1  0
 50 52  1  0
 12  3  1  0
 50 15  1  0
 42 25  1  0
 36 31  2  0
M  CHG  3  32  -1  35  -1  37  -1
M  END
>  <UniqueID>  (46) 
41

>  <SMILES>  (46) 
C=c1/c(=C\c2[n-]c(=O)[n-]c2[O-])cc(C(=O)N2CCN(C(=O)c3ccc(F)cc3O)CC2)n1C

>  <Energy>  (46) 
138.21063613672678

>  <Genealogy>  (46) 
C=c1c(=Cc2[n-]c(=O)[n-]c2[O-])cc(C(=O)N2CCN(C(=O)c3ccc(F)cc3O)CC2)n1C (protonated)
C=c1/c(=C\c2[n-]c(=O)[n-]c2[O-])cc(C(=O)N2CCN(C(=O)c3ccc(F)cc3O)CC2)n1C (cis-trans isomerization)
C=c1/c(=C\c2[n-]c(=O)[n-]c2[O-])cc(C(=O)N2CCN(C(=O)c3ccc(F)cc3O)CC2)n1C (3D coordinates assigned)
C=c1/c(=C\c2[n-]c(=O)[n-]c2[O-])cc(C(=O)N2CCN(C(=O)c3ccc(F)cc3O)CC2)n1C (nonaromatic ring conformer: 138.21063613672678 kcal/mol)

>  <smiles>  (46) 
C=c1c(=Cc2[nH]c(=O)[nH]c2O)cc(C(=O)N2CCN(C(=O)c3ccc(F)cc3O)CC2)n1C

>  <score_type>  (46) 
oracle

>  <origin>  (46) 
adg

>  <m_score__min__energy>  (46) 
-17.170000000000002

>  <m_primary>  (46) 
energy

$$$$
46:0
     RDKit          3D

 39 41  0  0  0  0  0  0  0  0999 V2000
   58.4120   31.1330   47.1680 C   0  0  0  0  0  0  0  0  0  0  0  0
   58.2290   30.8670   45.8660 C   0  0  0  0  0  0  0  0  0  0  0  0
   58.2740   29.6060   45.2600 C   0  0  0  0  0  0  0  0  0  0  0  0
   58.5070   28.4220   45.8600 C   0  0  0  0  0  0  0  0  0  0  0  0
   57.5090   27.3410   45.9730 C   0  0  0  0  0  0  0  0  0  0  0  0
   57.7340   26.1100   46.4680 N   0  0  0  0  0  0  0  0  0  0  0  0
   56.5220   25.5200   46.4740 C   0  0  0  0  0  0  0  0  0  0  0  0
   56.3340   24.3430   46.8800 O   0  0  0  0  0  0  0  0  0  0  0  0
   55.5230   26.3070   46.0220 N   0  0  0  0  0  0  0  0  0  0  0  0
   56.1600   27.4550   45.7220 C   0  0  0  0  0  0  0  0  0  0  0  0
   55.5210   28.5870   45.2320 O   0  0  0  0  0  0  0  0  0  0  0  0
   57.9630   29.8070   43.9200 C   0  0  0  0  0  0  0  0  0  0  0  0
   57.7640   31.1640   43.7600 C   0  0  0  0  0  0  0  0  0  0  0  0
   57.3750   31.8270   42.4740 C   0  0  0  0  0  0  0  0  0  0  0  0
   57.9280   31.8070   44.9370 N   0  0  0  0  0  0  0  0  0  0  0  0
   57.8080   33.2250   45.1320 C   0  0  0  0  0  0  0  0  0  0  0  0
   56.6620   33.7410   45.2360 O   0  0  0  0  0  0  0  0  0  0  0  0
   59.0250   34.1050   45.0610 C   0  0  0  0  0  0  0  0  0  0  0  0
   59.8270   34.0590   46.3380 C   0  0  0  0  0  0  0  0  0  0  0  0
   61.1320   33.5400   46.3440 C   0  0  0  0  0  0  0  0  0  0  0  0
   61.8670   33.4920   47.5330 C   0  0  0  0  0  0  0  0  0  0  0  0
   61.3060   33.9630   48.7240 C   0  0  0  0  0  0  0  0  0  0  0  0
   62.2280   33.9010   50.2150 Cl  0  0  0  0  0  0  0  0  0  0  0  0
   60.0090   34.4860   48.7250 C   0  0  0  0  0  0  0  0  0  0  0  0
   59.2720   34.5370   47.5380 C   0  0  0  0  0  0  0  0  0  0  0  0
   58.3529   32.1696   47.5312 H   0  0  0  0  0  0  0  0  0  0  0  0
   58.6212   30.3145   47.8725 H   0  0  0  0  0  0  0  0  0  0  0  0
   59.5037   28.2507   46.2927 H   0  0  0  0  0  0  0  0  0  0  0  0
   58.6290   25.7130   46.8310 H   0  0  0  0  0  0  0  0  0  0  0  0
   57.8897   29.0354   43.1394 H   0  0  0  0  0  0  0  0  0  0  0  0
   56.8293   32.7570   42.6914 H   0  0  0  0  0  0  0  0  0  0  0  0
   58.2797   32.0599   41.8932 H   0  0  0  0  0  0  0  0  0  0  0  0
   56.7304   31.1509   41.8932 H   0  0  0  0  0  0  0  0  0  0  0  0
   59.6606   33.7667   44.2294 H   0  0  0  0  0  0  0  0  0  0  0  0
   58.6885   35.1408   44.9066 H   0  0  0  0  0  0  0  0  0  0  0  0
   61.5781   33.1695   45.4093 H   0  0  0  0  0  0  0  0  0  0  0  0
   62.8881   33.0830   47.5311 H   0  0  0  0  0  0  0  0  0  0  0  0
   59.5678   34.8580   49.6615 H   0  0  0  0  0  0  0  0  0  0  0  0
   58.2537   34.9529   47.5430 H   0  0  0  0  0  0  0  0  0  0  0  0
  1  2  2  0
  2  3  1  0
  3  4  2  3
  4  5  1  0
  5  6  1  0
  6  7  1  0
  7  8  2  0
  7  9  1  0
  9 10  1  0
 10 11  1  0
  3 12  1  0
 12 13  2  0
 13 14  1  0
 13 15  1  0
 15 16  1  0
 16 17  2  0
 16 18  1  0
 18 19  1  0
 19 20  2  0
 20 21  1  0
 21 22  2  0
 22 23  1  0
 22 24  1  0
 24 25  2  0
 15  2  1  0
 25 19  1  0
 10  5  2  0
  1 26  1  0
  1 27  1  0
  4 28  1  0
  6 29  1  0
 12 30  1  0
 14 31  1  0
 14 32  1  0
 14 33  1  0
 18 34  1  0
 18 35  1  0
 20 36  1  0
 21 37  1  0
 24 38  1  0
 25 39  1  0
M  CHG  2   9  -1  11  -1
M  END
>  <UniqueID>  (47) 
42

>  <SMILES>  (47) 
C=c1c(=Cc2[nH]c(=O)[n-]c2[O-])cc(C)n1C(=O)Cc1ccc(Cl)cc1

>  <Energy>  (47) 
111.46297281396532

>  <Genealogy>  (47) 
C=c1c(=Cc2[nH]c(=O)[n-]c2[O-])cc(C)n1C(=O)Cc1ccc(Cl)cc1 (protonated)
C=c1c(=Cc2[nH]c(=O)[n-]c2[O-])cc(C)n1C(=O)Cc1ccc(Cl)cc1 (3D coordinates assigned)
C=c1c(=Cc2[nH]c(=O)[n-]c2[O-])cc(C)n1C(=O)Cc1ccc(Cl)cc1 (optimized conformer: 111.46297281396532 kcal/mol)

>  <smiles>  (47) 
C=c1c(=Cc2[nH]c(=O)[nH]c2O)cc(C)n1C(=O)Cc1ccc(Cl)cc1

>  <score_type>  (47) 
oracle

>  <origin>  (47) 
adg

>  <m_score__min__energy>  (47) 
-14.109999999999999

>  <m_primary>  (47) 
energy

$$$$
47:0
     RDKit          3D

 58 61  0  0  1  0  0  0  0  0999 V2000
   54.7960   24.4660   45.1500 C   0  0  0  0  0  0  0  0  0  0  0  0
   55.7950   25.1940   46.0160 C   0  0  0  0  0  0  0  0  0  0  0  0
   55.9380   24.7520   47.1700 O   0  0  0  0  0  0  0  0  0  0  0  0
   56.4930   26.2940   45.5080 N   0  0  0  0  0  0  0  0  0  0  0  0
   57.4540   27.0750   46.1880 C   0  0  0  0  0  0  0  0  0  0  0  0
   58.3960   26.5840   47.0590 C   0  0  0  0  0  0  0  0  0  0  0  0
   59.3230   27.4080   47.7060 C   0  0  0  0  0  0  0  0  0  0  0  0
   59.3230   28.7690   47.4860 C   0  0  0  0  0  0  0  0  0  0  0  0
   58.3750   29.2540   46.6100 C   0  0  0  0  0  0  0  0  0  0  0  0
   57.4620   28.4390   45.9750 C   0  0  0  0  0  0  0  0  0  0  0  0
   57.6340   33.5200   45.2110 N   0  0  0  0  0  0  0  0  0  0  0  0
   57.3730   32.4360   44.5790 C   0  0  0  0  0  0  0  0  0  0  0  0
   57.0710   31.2860   45.1990 N   0  0  0  0  0  0  0  0  0  0  0  0
   56.8010   30.1530   44.4980 C   0  0  0  0  0  0  0  0  0  0  0  0
   56.5120   29.0540   45.0770 N   0  0  0  0  0  0  0  0  0  0  0  0
   58.7660   33.6000   46.0650 C   0  0  0  0  0  0  0  0  0  0  0  0
   60.0160   33.8730   45.5540 C   0  0  0  0  0  0  0  0  0  0  0  0
   61.1360   33.9550   46.3620 C   0  0  0  0  0  0  0  0  0  0  0  0
   61.0550   33.7630   47.7430 C   0  0  0  0  0  0  0  0  0  0  0  0
   62.2220   33.8500   48.5300 N   0  0  0  0  0  0  0  0  0  0  0  0
   62.3260   34.5050   49.8110 C   0  0  0  0  0  0  0  0  0  0  0  0
   62.8870   33.5900   50.8740 C   0  0  0  0  0  0  0  0  0  0  0  0
   63.9390   32.7440   50.3870 N   0  0  0  0  0  0  0  0  0  0  0  0
   63.5930   31.3390   50.4180 C   0  0  0  0  0  0  0  0  0  0  0  0
   64.4940   33.1620   49.1250 C   0  0  0  0  0  0  0  0  0  0  0  0
   63.4550   33.2250   48.0290 C   0  0  0  0  0  0  0  0  0  0  0  0
   59.7990   33.4910   48.2310 C   0  0  0  0  0  0  0  0  0  0  0  0
   58.6720   33.4080   47.4260 C   0  0  0  0  0  0  0  0  0  0  0  0
   57.4210   32.5080   43.2200 N   0  0  0  0  0  0  0  0  0  0  0  0
   57.1650   31.4190   42.4780 C   0  0  0  0  0  0  0  0  0  0  0  0
   56.8520   30.2290   43.1120 C   0  0  0  0  0  0  0  0  0  0  0  0
   56.6010   29.1600   42.3170 F   0  0  0  0  0  0  0  0  0  0  0  0
   54.0724   23.9387   45.7890 H   0  0  0  0  0  0  0  0  0  0  0  0
   54.2648   25.1902   44.5149 H   0  0  0  0  0  0  0  0  0  0  0  0
   55.3227   23.7385   44.5149 H   0  0  0  0  0  0  0  0  0  0  0  0
   56.2700   26.5620   44.5010 H   0  0  0  0  0  0  0  0  0  0  0  0
   58.4224   25.5019   47.2551 H   0  0  0  0  0  0  0  0  0  0  0  0
   60.0576   26.9666   48.3956 H   0  0  0  0  0  0  0  0  0  0  0  0
   60.0432   29.4346   47.9843 H   0  0  0  0  0  0  0  0  0  0  0  0
   58.3459   30.3352   46.4096 H   0  0  0  0  0  0  0  0  0  0  0  0
   57.0400   31.2570   46.2240 H   0  0  0  0  0  0  0  0  0  0  0  0
   60.1268   34.0305   44.4710 H   0  0  0  0  0  0  0  0  0  0  0  0
   62.1124   34.1764   45.9064 H   0  0  0  0  0  0  0  0  0  0  0  0
   62.9871   35.3784   49.7100 H   0  0  0  0  0  0  0  0  0  0  0  0
   61.3139   34.8038   50.1214 H   0  0  0  0  0  0  0  0  0  0  0  0
   63.2842   34.2069   51.6936 H   0  0  0  0  0  0  0  0  0  0  0  0
   62.0688   32.9368   51.2113 H   0  0  0  0  0  0  0  0  0  0  0  0
   63.5107   31.0046   51.4627 H   0  0  0  0  0  0  0  0  0  0  0  0
   62.6306   31.1870   49.9074 H   0  0  0  0  0  0  0  0  0  0  0  0
   64.3748   30.7575   49.9074 H   0  0  0  0  0  0  0  0  0  0  0  0
   64.9380   34.1609   49.2482 H   0  0  0  0  0  0  0  0  0  0  0  0
   65.2484   32.4183   48.8285 H   0  0  0  0  0  0  0  0  0  0  0  0
   63.8478   33.8185   47.1903 H   0  0  0  0  0  0  0  0  0  0  0  0
   63.2269   32.2027   47.6930 H   0  0  0  0  0  0  0  0  0  0  0  0
   59.6817   33.3313   49.3130 H   0  0  0  0  0  0  0  0  0  0  0  0
   57.6942   33.1868   47.8787 H   0  0  0  0  0  0  0  0  0  0  0  0
   57.6600   33.4190   42.7340 H   0  0  0  0  0  0  0  0  0  0  0  0
   57.2035   31.4716   41.3799 H   0  0  0  0  0  0  0  0  0  0  0  0
  1  2  1  0
  2  3  2  0
  2  4  1  0
  4  5  1  0
  5  6  2  0
  6  7  1  0
  7  8  2  0
  8  9  1  0
  9 10  2  0
 10 11  1  0
 11 12  2  0
 12 13  1  0
 13 14  1  0
 14 15  2  0
 15 16  1  0
 16 17  2  0
 17 18  1  0
 18 19  2  0
 19 20  1  0
 20 21  1  0
 21 22  1  0
 22 23  1  0
 23 24  1  0
 23 25  1  0
 25 26  1  0
 19 27  1  0
 27 28  2  0
 14 29  1  0
 29 30  1  0
 30 31  2  0
 31 32  1  0
 10  5  1  0
 31 12  1  0
 28 16  1  0
 26 20  1  0
  1 33  1  0
  1 34  1  0
  1 35  1  0
  4 36  1  0
  6 37  1  0
  7 38  1  0
  8 39  1  0
  9 40  1  0
 13 41  1  0
 17 42  1  0
 18 43  1  0
 21 44  1  0
 21 45  1  0
 22 46  1  0
 22 47  1  0
 24 48  1  0
 24 49  1  0
 24 50  1  0
 25 51  1  0
 25 52  1  0
 26 53  1  0
 26 54  1  0
 27 55  1  0
 28 56  1  0
 29 57  1  0
 30 58  1  0
M  END
>  <smiles>  (48) 
CC(=O)Nc1ccccc1N=c1[nH]c(=Nc2ccc(N3CCN(C)CC3)cc2)[nH]cc1F

>  <score_type>  (48) 
oracle

>  <origin>  (48) 
adg

>  <m_score__min__energy>  (48) 
-9.1099999999999994

>  <m_primary>  (48) 
energy

$$$$
48:0
     RDKit          3D

 51 53  0  0  0  0  0  0  0  0999 V2000
   55.4780   23.8110   45.1920 C   0  0  0  0  0  0  0  0  0  0  0  0
   54.7760   25.0640   45.6160 C   0  0  0  0  0  0  0  0  0  0  0  0
   53.5180   25.0830   45.6640 O   0  0  0  0  0  0  0  0  0  0  0  0
   55.5030   26.2440   45.9700 N   0  0  0  0  0  0  0  0  0  0  0  0
   56.8940   26.4830   45.6050 C   0  0  0  0  0  0  0  0  0  0  0  0
   57.2160   27.9370   45.7910 C   0  0  0  0  0  0  0  0  0  0  0  0
   56.6850   28.8960   44.9140 C   0  0  0  0  0  0  0  0  0  0  0  0
   57.0130   30.2450   45.0640 C   0  0  0  0  0  0  0  0  0  0  0  0
   57.8830   30.6600   46.0890 C   0  0  0  0  0  0  0  0  0  0  0  0
   58.2600   32.1210   46.2560 C   0  0  2  0  0  0  0  0  0  0  0  0
   57.0590   33.0650   46.1760 C   0  0  0  0  0  0  0  0  0  0  0  0
   57.3720   34.0300   45.0400 C   0  0  0  0  0  0  0  0  0  0  0  0
   58.8090   33.9420   44.7520 N   0  0  0  0  0  0  0  0  0  0  0  0
   59.6130   35.0450   45.3360 C   0  0  0  0  0  0  0  0  0  0  0  0
   60.3210   34.6960   46.6330 C   0  0  0  0  0  0  0  0  0  0  0  0
   59.6870   34.9120   47.8670 C   0  0  0  0  0  0  0  0  0  0  0  0
   60.3280   34.5740   49.0580 C   0  0  0  0  0  0  0  0  0  0  0  0
   61.6120   34.0260   49.0350 C   0  0  0  0  0  0  0  0  0  0  0  0
   62.2800   33.8220   47.8140 C   0  0  0  0  0  0  0  0  0  0  0  0
   63.6460   33.2330   47.8030 C   0  0  0  0  0  0  0  0  0  0  0  0
   64.4580   33.0880   49.0550 C   0  0  0  0  0  0  0  0  0  0  0  0
   64.1490   32.8400   46.7150 O   0  0  0  0  0  0  0  0  0  0  0  0
   61.6290   34.1810   46.6170 C   0  0  0  0  0  0  0  0  0  0  0  0
   59.2340   32.6010   45.1740 C   0  0  0  0  0  0  0  0  0  0  0  0
   58.4300   29.6930   46.9510 C   0  0  0  0  0  0  0  0  0  0  0  0
   58.1010   28.3420   46.8000 C   0  0  0  0  0  0  0  0  0  0  0  0
   55.7934   23.2480   46.0828 H   0  0  0  0  0  0  0  0  0  0  0  0
   54.7946   23.1933   44.5909 H   0  0  0  0  0  0  0  0  0  0  0  0
   56.3617   24.0713   44.5909 H   0  0  0  0  0  0  0  0  0  0  0  0
   57.5509   25.8768   46.2461 H   0  0  0  0  0  0  0  0  0  0  0  0
   57.0506   26.2039   44.5526 H   0  0  0  0  0  0  0  0  0  0  0  0
   56.0078   28.5835   44.1054 H   0  0  0  0  0  0  0  0  0  0  0  0
   56.5876   30.9895   44.3750 H   0  0  0  0  0  0  0  0  0  0  0  0
   58.7182   32.1580   47.2553 H   0  0  0  0  0  0  0  0  0  0  0  0
   56.1405   32.5003   45.9581 H   0  0  0  0  0  0  0  0  0  0  0  0
   56.8932   33.5943   47.1259 H   0  0  0  0  0  0  0  0  0  0  0  0
   56.7945   33.7534   44.1456 H   0  0  0  0  0  0  0  0  0  0  0  0
   57.1022   35.0572   45.3263 H   0  0  0  0  0  0  0  0  0  0  0  0
   60.3741   35.3415   44.5992 H   0  0  0  0  0  0  0  0  0  0  0  0
   58.9052   35.8522   45.5758 H   0  0  0  0  0  0  0  0  0  0  0  0
   58.6786   35.3505   47.8942 H   0  0  0  0  0  0  0  0  0  0  0  0
   59.8202   34.7397   50.0196 H   0  0  0  0  0  0  0  0  0  0  0  0
   62.1051   33.7516   49.9792 H   0  0  0  0  0  0  0  0  0  0  0  0
   63.8040   33.2048   49.9317 H   0  0  0  0  0  0  0  0  0  0  0  0
   64.9250   32.0923   49.0759 H   0  0  0  0  0  0  0  0  0  0  0  0
   65.2407   33.8606   49.0759 H   0  0  0  0  0  0  0  0  0  0  0  0
   62.1514   34.0566   45.6570 H   0  0  0  0  0  0  0  0  0  0  0  0
   59.2092   31.9131   44.3160 H   0  0  0  0  0  0  0  0  0  0  0  0
   60.2614   32.6286   45.5660 H   0  0  0  0  0  0  0  0  0  0  0  0
   59.1212   30.0011   47.7493 H   0  0  0  0  0  0  0  0  0  0  0  0
   58.5390   27.5933   47.4765 H   0  0  0  0  0  0  0  0  0  0  0  0
  1  2  1  0
  2  3  2  0
  2  4  1  0
  4  5  1  0
  5  6  1  0
  6  7  2  0
  7  8  1  0
  8  9  2  0
  9 10  1  0
 10 11  1  0
 11 12  1  0
 12 13  1  0
 13 14  1  0
 14 15  1  0
 15 16  2  0
 16 17  1  0
 17 18  2  0
 18 19  1  0
 19 20  1  0
 20 21  1  0
 20 22  2  0
 19 23  2  0
 13 24  1  0
  9 25  1  0
 25 26  2  0
 26  6  1  0
 24 10  1  0
 23 15  1  0
  1 27  1  0
  1 28  1  0
  1 29  1  0
  5 30  1  0
  5 31  1  0
  7 32  1  0
  8 33  1  0
 10 34  1  1
 11 35  1  0
 11 36  1  0
 12 37  1  0
 12 38  1  0
 14 39  1  0
 14 40  1  0
 16 41  1  0
 17 42  1  0
 18 43  1  0
 21 44  1  0
 21 45  1  0
 21 46  1  0
 23 47  1  0
 24 48  1  0
 24 49  1  0
 25 50  1  0
 26 51  1  0
M  CHG  1   4  -1
M  END
>  <UniqueID>  (49) 
43

>  <SMILES>  (49) 
CC(=O)[N-]Cc1ccc([C@@H]2CCN(Cc3cccc(C(C)=O)c3)C2)cc1

>  <Energy>  (49) 
55.41442676982665

>  <Genealogy>  (49) 
CC(=O)[N-]Cc1ccc(C2CCN(Cc3cccc(C(C)=O)c3)C2)cc1 (protonated)
CC(=O)[N-]Cc1ccc([C@@H]2CCN(Cc3cccc(C(C)=O)c3)C2)cc1 (chirality)
CC(=O)[N-]Cc1ccc([C@@H]2CCN(Cc3cccc(C(C)=O)c3)C2)cc1 (3D coordinates assigned)
CC(=O)[N-]Cc1ccc([C@@H]2CCN(Cc3cccc(C(C)=O)c3)C2)cc1 (nonaromatic ring conformer: 55.41442676982665 kcal/mol)

>  <smiles>  (49) 
CC(=O)NCc1ccc(C2CCN(Cc3cccc(C(C)=O)c3)C2)cc1

>  <score_type>  (49) 
oracle

>  <origin>  (49) 
adg

>  <m_score__min__energy>  (49) 
-10.43

>  <m_primary>  (49) 
energy

$$$$
49:0
     RDKit          3D

 68 73  0  0  0  0  0  0  0  0999 V2000
   57.7570   32.4000   42.2810 C   0  0  0  0  0  0  0  0  0  0  0  0
   57.9350   32.4750   43.6020 C   0  0  0  0  0  0  0  0  0  0  0  0
   58.4060   33.8980   44.3670 S   0  0  0  0  0  0  0  0  0  0  0  0
   58.2300   33.3430   45.9410 C   0  0  0  0  0  0  0  0  0  0  0  0
   58.3670   34.0380   47.0820 C   0  0  0  0  0  0  0  0  0  0  0  0
   59.1720   33.6280   48.2520 C   0  0  0  0  0  0  0  0  0  0  0  0
   60.4880   33.9570   48.3750 N   0  0  0  0  0  0  0  0  0  0  0  0
   61.1940   33.6340   49.4910 C   0  0  0  0  0  0  0  0  0  0  0  0
   62.4100   33.9490   49.5820 O   0  0  0  0  0  0  0  0  0  0  0  0
   60.5640   32.9620   50.5400 C   0  0  0  0  0  0  0  0  0  0  0  0
   59.2140   32.6140   50.4010 C   0  0  0  0  0  0  0  0  0  0  0  0
   58.5030   31.9680   51.4700 N   0  0  0  0  0  0  0  0  0  0  0  0
   57.0390   32.0620   51.5570 C   0  0  0  0  0  0  0  0  0  0  0  0
   56.4680   30.8140   52.2410 C   0  0  0  0  0  0  0  0  0  0  0  0
   57.2080   29.6770   51.8360 O   0  0  0  0  0  0  0  0  0  0  0  0
   58.5050   29.6850   52.4200 C   0  0  0  0  0  0  0  0  0  0  0  0
   59.1970   31.0670   52.3970 C   0  0  0  0  0  0  0  0  0  0  0  0
   58.5550   32.9550   49.2590 N   0  0  0  0  0  0  0  0  0  0  0  0
   57.8320   32.0110   45.8840 C   0  0  0  0  0  0  0  0  0  0  0  0
   57.6570   31.5070   44.5820 C   0  0  0  0  0  0  0  0  0  0  0  0
   57.1650   30.1160   44.3900 C   0  0  0  0  0  0  0  0  0  0  0  0
   55.9150   29.9350   44.3660 O   0  0  0  0  0  0  0  0  0  0  0  0
   58.0470   28.9760   44.2390 N   0  0  0  0  0  0  0  0  0  0  0  0
   59.4610   29.3670   44.4880 C   0  0  0  0  0  0  0  0  0  0  0  0
   60.2960   28.1820   44.9980 C   0  0  0  0  0  0  0  0  0  0  0  0
   59.7920   27.6630   46.3010 N   0  0  0  0  0  0  0  0  0  0  0  0
   60.5830   28.2110   47.4390 C   0  0  2  0  0  0  0  0  0  0  0  0
   60.0280   27.6800   48.7870 C   0  0  0  0  0  0  0  0  0  0  0  0
   59.6640   28.9630   49.5590 C   0  0  1  0  0  0  0  0  0  0  0  0
   60.9660   29.6570   49.9880 C   0  0  0  0  0  0  0  0  0  0  0  0
   61.5090   30.2010   48.6610 C   0  0  0  0  0  0  0  0  0  0  0  0
   60.4440   29.7500   47.6390 C   0  0  2  0  0  0  0  0  0  0  0  0
   59.1790   29.8600   48.4490 C   0  0  0  0  0  0  0  0  0  0  0  0
   58.3290   27.8560   46.4620 C   0  0  0  0  0  0  0  0  0  0  0  0
   57.5920   27.8650   45.1160 C   0  0  0  0  0  0  0  0  0  0  0  0
   57.4485   31.4498   41.8207 H   0  0  0  0  0  0  0  0  0  0  0  0
   57.9188   33.2884   41.6529 H   0  0  0  0  0  0  0  0  0  0  0  0
   57.8330   34.9971   47.1521 H   0  0  0  0  0  0  0  0  0  0  0  0
   61.1165   32.7107   51.4574 H   0  0  0  0  0  0  0  0  0  0  0  0
   56.7662   32.9534   52.1410 H   0  0  0  0  0  0  0  0  0  0  0  0
   56.6231   32.1367   50.5414 H   0  0  0  0  0  0  0  0  0  0  0  0
   56.5391   30.9286   53.3327 H   0  0  0  0  0  0  0  0  0  0  0  0
   55.4134   30.6877   51.9549 H   0  0  0  0  0  0  0  0  0  0  0  0
   58.4147   29.3609   53.4673 H   0  0  0  0  0  0  0  0  0  0  0  0
   59.1286   29.0071   51.8188 H   0  0  0  0  0  0  0  0  0  0  0  0
   59.1764   31.5001   53.4079 H   0  0  0  0  0  0  0  0  0  0  0  0
   60.2373   30.9410   52.0625 H   0  0  0  0  0  0  0  0  0  0  0  0
   57.6674   31.4010   46.7844 H   0  0  0  0  0  0  0  0  0  0  0  0
   58.0150   28.6530   43.2450 H   0  0  0  0  0  0  0  0  0  0  0  0
   59.9000   29.7347   43.5488 H   0  0  0  0  0  0  0  0  0  0  0  0
   59.4697   30.1506   45.2600 H   0  0  0  0  0  0  0  0  0  0  0  0
   60.2555   27.3728   44.2540 H   0  0  0  0  0  0  0  0  0  0  0  0
   61.3275   28.5333   45.1485 H   0  0  0  0  0  0  0  0  0  0  0  0
   61.6142   27.9180   47.1926 H   0  0  0  0  0  0  0  0  0  0  0  0
   59.1388   27.0528   48.6260 H   0  0  0  0  0  0  0  0  0  0  0  0
   60.7478   27.0464   49.3259 H   0  0  0  0  0  0  0  0  0  0  0  0
   58.9897   28.7734   50.4071 H   0  0  0  0  0  0  0  0  0  0  0  0
   60.7657   30.4721   50.6989 H   0  0  0  0  0  0  0  0  0  0  0  0
   61.6682   28.9873   50.5060 H   0  0  0  0  0  0  0  0  0  0  0  0
   61.5920   31.2975   48.6876 H   0  0  0  0  0  0  0  0  0  0  0  0
   62.5192   29.8361   48.4239 H   0  0  0  0  0  0  0  0  0  0  0  0
   60.4978   30.3018   46.6890 H   0  0  0  0  0  0  0  0  0  0  0  0
   58.9713   30.8866   48.7852 H   0  0  0  0  0  0  0  0  0  0  0  0
   58.2298   29.6013   47.9570 H   0  0  0  0  0  0  0  0  0  0  0  0
   57.9298   27.0372   47.0786 H   0  0  0  0  0  0  0  0  0  0  0  0
   58.1688   28.8335   46.9404 H   0  0  0  0  0  0  0  0  0  0  0  0
   57.7770   26.9095   44.6035 H   0  0  0  0  0  0  0  0  0  0  0  0
   56.5200   28.0080   45.3167 H   0  0  0  0  0  0  0  0  0  0  0  0
  1  2  2  0
  2  3  1  0
  3  4  1  0
  4  5  2  3
  5  6  1  0
  6  7  2  0
  7  8  1  0
  8  9  2  0
  8 10  1  0
 10 11  2  0
 11 12  1  0
 12 13  1  0
 13 14  1  0
 14 15  1  0
 15 16  1  0
 16 17  1  0
 11 18  1  0
  4 19  1  0
 19 20  2  0
 20 21  1  0
 21 22  2  0
 21 23  1  0
 23 24  1  0
 24 25  1  0
 25 26  1  0
 26 27  1  0
 27 28  1  0
 28 29  1  0
 29 30  1  0
 30 31  1  0
 31 32  1  0
 32 33  1  0
 26 34  1  0
 34 35  1  0
 20  2  1  0
 35 23  1  0
 18  6  1  0
 32 27  1  0
 17 12  1  0
 33 29  1  0
  1 36  1  0
  1 37  1  0
  5 38  1  0
 10 39  1  0
 13 40  1  0
 13 41  1  0
 14 42  1  0
 14 43  1  0
 16 44  1  0
 16 45  1  0
 17 46  1  0
 17 47  1  0
 19 48  1  0
 23 49  1  0
 24 50  1  0
 24 51  1  0
 25 52  1  0
 25 53  1  0
 27 54  1  6
 28 55  1  0
 28 56  1  0
 29 57  1  1
 30 58  1  0
 30 59  1  0
 31 60  1  0
 31 61  1  0
 32 62  1  6
 33 63  1  0
 33 64  1  0
 34 65  1  0
 34 66  1  0
 35 67  1  0
 35 68  1  0
M  CHG  2  18  -1  23   1
M  END
>  <UniqueID>  (50) 
44

>  <SMILES>  (50) 
C=c1sc(=Cc2nc(=O)cc(N3CCOCC3)[n-]2)cc1C(=O)[NH+]1CCN([C@@H]2C[C@H]3CCC2C3)CC1

>  <Energy>  (50) 
162.97166707552094

>  <Genealogy>  (50) 
C=c1sc(=Cc2nc(=O)cc(N3CCOCC3)[n-]2)cc1C(=O)[NH+]1CCN(C2CC3CCC2C3)CC1 (protonated)
C=c1sc(=Cc2nc(=O)cc(N3CCOCC3)[n-]2)cc1C(=O)[NH+]1CCN([C@@H]2C[C@H]3CCC2C3)CC1 (chirality)
C=c1sc(=Cc2nc(=O)cc(N3CCOCC3)[n-]2)cc1C(=O)[NH+]1CCN([C@@H]2C[C@H]3CCC2C3)CC1 (3D coordinates assigned)
C=c1sc(=Cc2nc(=O)cc(N3CCOCC3)[n-]2)cc1C(=O)[NH+]1CCN([C@@H]2C[C@H]3CCC2C3)CC1 (nonaromatic ring conformer: 162.97166707552094 kcal/mol)

>  <smiles>  (50) 
C=c1sc(=Cc2nc(=O)cc(N3CCOCC3)[nH]2)cc1C(=O)N1CCN(C2CC3CCC2C3)CC1

>  <score_type>  (50) 
oracle

>  <origin>  (50) 
adg

>  <m_score__min__energy>  (50) 
-10.76

>  <m_primary>  (50) 
energy

$$$$
50:0
     RDKit          3D

 59 62  0  0  0  0  0  0  0  0999 V2000
   51.7574   28.6685   47.9924 H   0  0  0  0  0  0  0  0  0  0  0  0
   51.7740   29.7230   48.3050 C   0  0  0  0  0  0  0  0  0  0  0  0
   52.7111   30.1768   48.6597 H   0  0  0  0  0  0  0  0  0  0  0  0
   50.6600   30.4500   48.2540 C   0  0  0  0  0  0  0  0  0  0  0  0
   49.7366   29.9717   47.8954 H   0  0  0  0  0  0  0  0  0  0  0  0
   50.6080   31.8690   48.6570 C   0  0  0  0  0  0  0  0  0  0  0  0
   50.0840   32.7000   47.8710 O   0  0  0  0  0  0  0  0  0  0  0  0
   51.1700   32.3440   49.8890 N   0  0  0  0  0  0  0  0  0  0  0  0
   51.5530   31.5370   51.0120 C   0  0  0  0  0  0  0  0  0  0  0  0
   50.7800   31.4910   52.1850 C   0  0  0  0  0  0  0  0  0  0  0  0
   49.8382   32.0563   52.2441 H   0  0  0  0  0  0  0  0  0  0  0  0
   51.2050   30.7290   53.2760 C   0  0  0  0  0  0  0  0  0  0  0  0
   50.5961   30.6950   54.1915 H   0  0  0  0  0  0  0  0  0  0  0  0
   52.4010   30.0100   53.2080 C   0  0  0  0  0  0  0  0  0  0  0  0
   52.7336   29.4172   54.0728 H   0  0  0  0  0  0  0  0  0  0  0  0
   53.1810   30.0410   52.0390 C   0  0  0  0  0  0  0  0  0  0  0  0
   54.4350   29.3430   51.9580 N   0  0  0  0  0  0  0  0  0  0  0  0
   54.4120   28.3300   51.6940 H   0  0  0  0  0  0  0  0  0  0  0  0
   55.7040   29.9210   52.3030 C   0  0  0  0  0  0  0  0  0  0  0  0
   56.4760   29.3620   53.2700 N   0  0  0  0  0  0  0  0  0  0  0  0
   57.6830   29.8750   53.6170 C   0  0  0  0  0  0  0  0  0  0  0  0
   58.2715   29.3915   54.4107 H   0  0  0  0  0  0  0  0  0  0  0  0
   58.1900   31.0170   52.9740 C   0  0  0  0  0  0  0  0  0  0  0  0
   59.4700   31.5470   53.3830 N   0  0  0  0  0  0  0  0  0  0  0  0
   59.5560   32.4610   54.2290 O   0  0  0  0  0  0  0  0  0  0  0  0
   60.6340   30.9980   52.8930 O   0  0  0  0  0  0  0  0  0  0  0  0
   57.4270   31.6000   51.9290 C   0  0  0  0  0  0  0  0  0  0  0  0
   57.8900   32.6470   51.3000 N   0  0  0  0  0  0  0  0  0  0  0  0
   58.8350   32.6770   50.2190 C   0  0  0  0  0  0  0  0  0  0  0  0
   60.0620   33.3480   50.3460 C   0  0  0  0  0  0  0  0  0  0  0  0
   60.3260   33.8326   51.2976 H   0  0  0  0  0  0  0  0  0  0  0  0
   60.9490   33.4020   49.2670 C   0  0  0  0  0  0  0  0  0  0  0  0
   61.9166   33.9138   49.3758 H   0  0  0  0  0  0  0  0  0  0  0  0
   60.6070   32.8060   48.0500 C   0  0  0  0  0  0  0  0  0  0  0  0
   61.3118   32.8402   47.2062 H   0  0  0  0  0  0  0  0  0  0  0  0
   59.3680   32.1640   47.9000 C   0  0  0  0  0  0  0  0  0  0  0  0
   59.0100   31.5110   46.5900 C   0  0  0  0  0  0  0  0  0  0  0  0
   59.7914   31.7372   45.8496 H   0  0  0  0  0  0  0  0  0  0  0  0
   58.9330   30.4252   46.7483 H   0  0  0  0  0  0  0  0  0  0  0  0
   57.7090   32.0090   46.0890 N   0  0  0  0  0  0  0  0  0  0  0  0
   57.5650   33.4740   46.2250 C   0  0  0  0  0  0  0  0  0  0  0  0
   56.5137   33.7452   46.0485 H   0  0  0  0  0  0  0  0  0  0  0  0
   57.8837   33.7533   47.2401 H   0  0  0  0  0  0  0  0  0  0  0  0
   58.4540   34.2410   45.2180 C   0  0  0  0  0  0  0  0  0  0  0  0
   57.8577   35.0493   44.7696 H   0  0  0  0  0  0  0  0  0  0  0  0
   59.3205   34.6279   45.7743 H   0  0  0  0  0  0  0  0  0  0  0  0
   58.9530   33.4190   44.1780 O   0  0  0  0  0  0  0  0  0  0  0  0
   57.9150   32.6200   43.6550 C   0  0  0  0  0  0  0  0  0  0  0  0
   57.0672   33.2647   43.3801 H   0  0  0  0  0  0  0  0  0  0  0  0
   58.2926   32.0860   42.7705 H   0  0  0  0  0  0  0  0  0  0  0  0
   57.4450   31.5830   44.6950 C   0  0  0  0  0  0  0  0  0  0  0  0
   56.3627   31.4288   44.5735 H   0  0  0  0  0  0  0  0  0  0  0  0
   58.0111   30.6565   44.5186 H   0  0  0  0  0  0  0  0  0  0  0  0
   58.4810   32.1130   48.9880 C   0  0  0  0  0  0  0  0  0  0  0  0
   57.5014   31.6264   48.8717 H   0  0  0  0  0  0  0  0  0  0  0  0
   56.1700   31.0440   51.6130 C   0  0  0  0  0  0  0  0  0  0  0  0
   55.5543   31.4954   50.8211 H   0  0  0  0  0  0  0  0  0  0  0  0
   52.7600   30.8300   50.9570 C   0  0  0  0  0  0  0  0  0  0  0  0
   53.3862   30.8935   50.0549 H   0  0  0  0  0  0  0  0  0  0  0  0
  1  2  1  0
  2  3  1  0
  2  4  2  0
  4  5  1  0
  4  6  1  0
  6  7  2  0
  6  8  1  0
  8  9  1  0
  9 10  2  0
 10 11  1  0
 10 12  1  0
 12 13  1  0
 12 14  2  0
 14 15  1  0
 14 16  1  0
 16 17  1  0
 17 18  1  0
 17 19  1  0
 19 20  1  0
 20 21  1  0
 21 22  1  0
 21 23  2  0
 23 24  1  0
 24 25  2  0
 24 26  1  0
 23 27  1  0
 27 28  2  0
 28 29  1  0
 29 30  2  0
 30 31  1  0
 30 32  1  0
 32 33  1  0
 32 34  2  0
 34 35  1  0
 34 36  1  0
 36 37  1  0
 37 38  1  0
 37 39  1  0
 37 40  1  0
 40 41  1  0
 41 42  1  0
 41 43  1  0
 41 44  1  0
 44 45  1  0
 44 46  1  0
 44 47  1  0
 47 48  1  0
 48 49  1  0
 48 50  1  0
 48 51  1  0
 51 52  1  0
 51 53  1  0
 36 54  2  0
 54 55  1  0
 27 56  1  0
 56 57  1  0
 16 58  2  0
 58 59  1  0
 58  9  1  0
 56 19  2  0
 54 29  1  0
 51 40  1  0
M  CHG  4   8  -1  20  -1  24   1  26  -1
M  END
>  <UniqueID>  (51) 
45

>  <SMILES>  (51) 
C=CC(=O)[N-]c1cccc(Nc2c/c(=N\c3cccc(CN4CCOCC4)c3)c([N+](=O)[O-])c[n-]2)c1

>  <Energy>  (51) 
97.28537555629023

>  <Genealogy>  (51) 
C=CC(=O)[N-]c1cccc(Nc2cc(=Nc3cccc(CN4CCOCC4)c3)c([N+](=O)[O-])c[n-]2)c1 (protonated)
C=CC(=O)[N-]c1cccc(Nc2c/c(=N\c3cccc(CN4CCOCC4)c3)c([N+](=O)[O-])c[n-]2)c1 (cis-trans isomerization)
C=CC(=O)[N-]c1cccc(Nc2c/c(=N\c3cccc(CN4CCOCC4)c3)c([N+](=O)[O-])c[n-]2)c1 (3D coordinates assigned)
C=CC(=O)[N-]c1cccc(Nc2c/c(=N\c3cccc(CN4CCOCC4)c3)c([N+](=O)[O-])c[n-]2)c1 (nonaromatic ring conformer: 97.28537555629023 kcal/mol)

>  <smiles>  (51) 
C=CC(=O)Nc1cccc(Nc2cc(=Nc3cccc(CN4CCOCC4)c3)c([N+](=O)[O-])c[nH]2)c1

>  <score_type>  (51) 
oracle

>  <origin>  (51) 
adg

>  <m_score__min__energy>  (51) 
-13.26

>  <m_primary>  (51) 
energy

$$$$
51:0
     RDKit          3D

 58 61  0  0  0  0  0  0  0  0999 V2000
   55.9530   32.8993   45.3396 H   0  0  0  0  0  0  0  0  0  0  0  0
   56.9630   32.9520   44.9070 C   0  0  0  0  0  0  0  0  0  0  0  0
   57.3820   31.9080   43.9520 C   0  0  0  0  0  0  0  0  0  0  0  0
   57.4080   32.1950   42.7260 O   0  0  0  0  0  0  0  0  0  0  0  0
   57.7390   30.5800   44.3680 N   0  0  0  0  0  0  0  0  0  0  0  0
   56.9700   29.8330   45.1450 N   0  0  0  0  0  0  0  0  0  0  0  0
   57.6360   28.6870   45.3870 C   0  0  0  0  0  0  0  0  0  0  0  0
   57.1130   27.5940   46.2150 C   0  0  0  0  0  0  0  0  0  0  0  0
   56.0330   27.0320   45.8900 O   0  0  0  0  0  0  0  0  0  0  0  0
   57.8050   27.2150   47.4120 N   0  0  0  0  0  0  0  0  0  0  0  0
   58.7700   27.9980   48.1310 C   0  0  0  0  0  0  0  0  0  0  0  0
   58.5890   29.3730   48.3710 C   0  0  0  0  0  0  0  0  0  0  0  0
   57.6886   29.8816   47.9960 H   0  0  0  0  0  0  0  0  0  0  0  0
   59.5510   30.0940   49.0850 C   0  0  0  0  0  0  0  0  0  0  0  0
   59.4086   31.1704   49.2612 H   0  0  0  0  0  0  0  0  0  0  0  0
   60.6950   29.4530   49.5770 C   0  0  0  0  0  0  0  0  0  0  0  0
   61.9200   30.3680   50.4590 S   0  0  0  0  0  0  0  0  0  0  0  0
   63.0330   29.4410   50.8610 O   0  0  0  0  0  0  0  0  0  0  0  0
   61.3110   30.9340   51.7120 O   0  0  0  0  0  0  0  0  0  0  0  0
   62.5760   31.6700   49.4960 N   0  0  0  0  0  0  0  0  0  0  0  0
   62.5570   31.3130   48.0670 C   0  0  0  0  0  0  0  0  0  0  0  0
   63.0168   30.3223   47.9359 H   0  0  0  0  0  0  0  0  0  0  0  0
   61.5135   31.2976   47.7195 H   0  0  0  0  0  0  0  0  0  0  0  0
   63.3420   32.3500   47.2370 C   0  0  0  0  0  0  0  0  0  0  0  0
   64.2801   31.8941   46.8875 H   0  0  0  0  0  0  0  0  0  0  0  0
   62.7190   32.6574   46.3841 H   0  0  0  0  0  0  0  0  0  0  0  0
   63.6450   33.4960   48.0060 O   0  0  0  0  0  0  0  0  0  0  0  0
   64.5090   33.1440   49.0730 C   0  0  0  0  0  0  0  0  0  0  0  0
   65.4801   32.8388   48.6561 H   0  0  0  0  0  0  0  0  0  0  0  0
   64.6115   34.0222   49.7274 H   0  0  0  0  0  0  0  0  0  0  0  0
   63.9470   31.9850   49.9220 C   0  0  0  0  0  0  0  0  0  0  0  0
   64.5823   31.0965   49.7919 H   0  0  0  0  0  0  0  0  0  0  0  0
   63.9370   32.2840   50.9805 H   0  0  0  0  0  0  0  0  0  0  0  0
   60.8590   28.0780   49.3660 C   0  0  0  0  0  0  0  0  0  0  0  0
   61.7471   27.5648   49.7633 H   0  0  0  0  0  0  0  0  0  0  0  0
   59.8990   27.3560   48.6530 C   0  0  0  0  0  0  0  0  0  0  0  0
   60.0313   26.2747   48.5006 H   0  0  0  0  0  0  0  0  0  0  0  0
   58.8680   28.7150   44.7580 C   0  0  0  0  0  0  0  0  0  0  0  0
   59.6447   27.9360   44.7611 H   0  0  0  0  0  0  0  0  0  0  0  0
   58.9020   29.9390   44.1270 C   0  0  0  0  0  0  0  0  0  0  0  0
   59.7374   30.3289   43.5270 H   0  0  0  0  0  0  0  0  0  0  0  0
   57.7670   33.9620   45.2670 C   0  0  0  0  0  0  0  0  0  0  0  0
   57.7611   34.8736   44.6514 H   0  0  0  0  0  0  0  0  0  0  0  0
   58.6640   33.9220   46.4470 C   0  0  0  0  0  0  0  0  0  0  0  0
   59.9390   34.5020   46.3390 C   0  0  0  0  0  0  0  0  0  0  0  0
   60.2472   34.9688   45.3919 H   0  0  0  0  0  0  0  0  0  0  0  0
   60.8180   34.4910   47.4230 C   0  0  0  0  0  0  0  0  0  0  0  0
   61.8172   34.9403   47.3239 H   0  0  0  0  0  0  0  0  0  0  0  0
   60.4320   33.9110   48.6330 C   0  0  0  0  0  0  0  0  0  0  0  0
   61.1324   33.8992   49.4811 H   0  0  0  0  0  0  0  0  0  0  0  0
   59.1610   33.3450   48.7740 C   0  0  0  0  0  0  0  0  0  0  0  0
   58.8190   32.7850   50.0150 O   0  0  0  0  0  0  0  0  0  0  0  0
   59.2840   33.2650   51.2710 C   0  0  0  0  0  0  0  0  0  0  0  0
   58.7668   32.7311   52.0818 H   0  0  0  0  0  0  0  0  0  0  0  0
   60.3674   33.0926   51.3511 H   0  0  0  0  0  0  0  0  0  0  0  0
   59.0773   34.3424   51.3511 H   0  0  0  0  0  0  0  0  0  0  0  0
   58.2750   33.3550   47.6780 C   0  0  0  0  0  0  0  0  0  0  0  0
   57.2716   32.9168   47.7838 H   0  0  0  0  0  0  0  0  0  0  0  0
  1  2  1  0
  2  3  1  0
  3  4  2  0
  3  5  1  0
  5  6  1  0
  6  7  2  0
  7  8  1  0
  8  9  2  0
  8 10  1  0
 10 11  1  0
 11 12  2  0
 12 13  1  0
 12 14  1  0
 14 15  1  0
 14 16  2  0
 16 17  1  0
 17 18  2  0
 17 19  2  0
 17 20  1  0
 20 21  1  0
 21 22  1  0
 21 23  1  0
 21 24  1  0
 24 25  1  0
 24 26  1  0
 24 27  1  0
 27 28  1  0
 28 29  1  0
 28 30  1  0
 28 31  1  0
 31 32  1  0
 31 33  1  0
 16 34  1  0
 34 35  1  0
 34 36  2  0
 36 37  1  0
  7 38  1  0
 38 39  1  0
 38 40  2  0
 40 41  1  0
  2 42  2  0
 42 43  1  0
 42 44  1  0
 44 45  2  0
 45 46  1  0
 45 47  1  0
 47 48  1  0
 47 49  2  0
 49 50  1  0
 49 51  1  0
 51 52  1  0
 52 53  1  0
 53 54  1  0
 53 55  1  0
 53 56  1  0
 51 57  2  0
 57 58  1  0
 40  5  1  0
 57 44  1  0
 36 11  1  0
 31 20  1  0
M  CHG  1  10  -1
M  END
>  <UniqueID>  (52) 
46

>  <SMILES>  (52) 
COc1cccc(/C=C/C(=O)n2ccc(C(=O)[N-]c3ccc(S(=O)(=O)N4CCOCC4)cc3)n2)c1

>  <Energy>  (52) 
105.65579864019455

>  <Genealogy>  (52) 
COc1cccc(C=CC(=O)n2ccc(C(=O)[N-]c3ccc(S(=O)(=O)N4CCOCC4)cc3)n2)c1 (protonated)
COc1cccc(/C=C/C(=O)n2ccc(C(=O)[N-]c3ccc(S(=O)(=O)N4CCOCC4)cc3)n2)c1 (cis-trans isomerization)
COc1cccc(/C=C/C(=O)n2ccc(C(=O)[N-]c3ccc(S(=O)(=O)N4CCOCC4)cc3)n2)c1 (3D coordinates assigned)
COc1cccc(/C=C/C(=O)n2ccc(C(=O)[N-]c3ccc(S(=O)(=O)N4CCOCC4)cc3)n2)c1 (nonaromatic ring conformer: 105.65579864019455 kcal/mol)

>  <smiles>  (52) 
COc1cccc(C=CC(=O)n2ccc(C(=O)Nc3ccc(S(=O)(=O)N4CCOCC4)cc3)n2)c1

>  <score_type>  (52) 
oracle

>  <origin>  (52) 
adg

>  <m_score__min__energy>  (52) 
-11.390000000000001

>  <m_primary>  (52) 
energy

$$$$
52:0
     RDKit          3D

 39 40  0  0  0  0  0  0  0  0999 V2000
   59.7050   34.3560   49.0640 C   0  0  0  0  0  0  0  0  0  0  0  0
   59.3710   34.8280   47.6500 C   0  0  0  0  0  0  0  0  0  0  0  0
   59.7020   33.7920   46.6560 N   0  0  0  0  0  0  0  0  0  0  0  0
   61.0730   33.7600   46.1120 C   0  0  0  0  0  0  0  0  0  0  0  0
   62.0230   33.1370   47.1010 C   0  0  0  0  0  0  0  0  0  0  0  0
   61.6920   31.9360   47.7540 C   0  0  0  0  0  0  0  0  0  0  0  0
   62.5670   31.3840   48.6930 C   0  0  0  0  0  0  0  0  0  0  0  0
   63.7750   32.0220   48.9890 C   0  0  0  0  0  0  0  0  0  0  0  0
   64.1080   33.2180   48.3470 C   0  0  0  0  0  0  0  0  0  0  0  0
   63.2350   33.7750   47.4080 C   0  0  0  0  0  0  0  0  0  0  0  0
   58.7180   32.7710   46.3480 C   0  0  0  0  0  0  0  0  0  0  0  0
   58.5500   31.8060   47.1430 O   0  0  0  0  0  0  0  0  0  0  0  0
   57.8700   32.8120   45.1100 C   0  0  0  0  0  0  0  0  0  0  0  0
   56.8910   31.7810   45.1670 O   0  0  0  0  0  0  0  0  0  0  0  0
   56.9090   30.6750   44.3110 C   0  0  0  0  0  0  0  0  0  0  0  0
   56.9330   30.8340   43.0610 O   0  0  0  0  0  0  0  0  0  0  0  0
   56.8900   29.3180   44.8710 C   0  0  0  0  0  0  0  0  0  0  0  0
   58.0080   28.5540   45.1500 C   0  0  0  0  0  0  0  0  0  0  0  0
   57.5410   27.3610   45.6540 C   0  0  0  0  0  0  0  0  0  0  0  0
   56.1670   27.4670   45.6500 C   0  0  0  0  0  0  0  0  0  0  0  0
   55.2890   26.4780   46.0830 O   0  0  0  0  0  0  0  0  0  0  0  0
   55.7540   28.6560   45.1730 N   0  0  0  0  0  0  0  0  0  0  0  0
   59.2307   35.0263   49.7959 H   0  0  0  0  0  0  0  0  0  0  0  0
   59.3293   33.3321   49.2071 H   0  0  0  0  0  0  0  0  0  0  0  0
   60.7956   34.3697   49.2071 H   0  0  0  0  0  0  0  0  0  0  0  0
   58.2960   35.0534   47.5904 H   0  0  0  0  0  0  0  0  0  0  0  0
   59.9657   35.7270   47.4308 H   0  0  0  0  0  0  0  0  0  0  0  0
   61.0796   33.1698   45.1837 H   0  0  0  0  0  0  0  0  0  0  0  0
   61.3980   34.7914   45.9104 H   0  0  0  0  0  0  0  0  0  0  0  0
   60.7424   31.4303   47.5249 H   0  0  0  0  0  0  0  0  0  0  0  0
   62.3044   30.4443   49.2010 H   0  0  0  0  0  0  0  0  0  0  0  0
   64.4630   31.5831   49.7266 H   0  0  0  0  0  0  0  0  0  0  0  0
   65.0577   33.7213   48.5808 H   0  0  0  0  0  0  0  0  0  0  0  0
   63.4992   34.7181   46.9072 H   0  0  0  0  0  0  0  0  0  0  0  0
   57.3691   33.7890   45.0417 H   0  0  0  0  0  0  0  0  0  0  0  0
   58.5071   32.6619   44.2260 H   0  0  0  0  0  0  0  0  0  0  0  0
   59.0591   28.8415   44.9996 H   0  0  0  0  0  0  0  0  0  0  0  0
   58.1401   26.5018   45.9900 H   0  0  0  0  0  0  0  0  0  0  0  0
   55.1420   26.3090   47.0710 H   0  0  0  0  0  0  0  0  0  0  0  0
  1  2  1  0
  2  3  1  0
  3  4  1  0
  4  5  1  0
  5  6  2  0
  6  7  1  0
  7  8  2  0
  8  9  1  0
  9 10  2  0
  3 11  1  0
 11 12  2  0
 11 13  1  0
 13 14  1  0
 14 15  1  0
 15 16  2  0
 15 17  1  0
 17 18  2  0
 18 19  1  0
 19 20  2  0
 20 21  1  0
 20 22  1  0
 10  5  1  0
 22 17  1  0
  1 23  1  0
  1 24  1  0
  1 25  1  0
  2 26  1  0
  2 27  1  0
  4 28  1  0
  4 29  1  0
  6 30  1  0
  7 31  1  0
  8 32  1  0
  9 33  1  0
 10 34  1  0
 13 35  1  0
 13 36  1  0
 18 37  1  0
 19 38  1  0
 21 39  1  0
M  CHG  1  22  -1
M  END
>  <UniqueID>  (53) 
47

>  <SMILES>  (53) 
CCN(Cc1ccccc1)C(=O)COC(=O)c1ccc(O)[n-]1

>  <Energy>  (53) 
55.341871138657154

>  <Genealogy>  (53) 
CCN(Cc1ccccc1)C(=O)COC(=O)c1ccc(O)[n-]1 (protonated)
CCN(Cc1ccccc1)C(=O)COC(=O)c1ccc(O)[n-]1 (3D coordinates assigned)
CCN(Cc1ccccc1)C(=O)COC(=O)c1ccc(O)[n-]1 (optimized conformer: 55.341871138657154 kcal/mol)

>  <smiles>  (53) 
CCN(Cc1ccccc1)C(=O)COC(=O)c1ccc(O)[nH]1

>  <score_type>  (53) 
oracle

>  <origin>  (53) 
adg

>  <m_score__min__energy>  (53) 
-10.02

>  <m_primary>  (53) 
energy

$$$$
53:0
     RDKit          3D

 74 78  0  0  0  0  0  0  0  0999 V2000
   59.3610   26.0190   46.7920 C   0  0  0  0  0  0  0  0  0  0  0  0
   58.7750   26.9840   46.0660 C   0  0  0  0  0  0  0  0  0  0  0  0
   57.8500   26.8190   45.0220 C   0  0  0  0  0  0  0  0  0  0  0  0
   57.4690   25.7190   44.3430 C   0  0  0  0  0  0  0  0  0  0  0  0
   56.4510   24.7500   44.7810 C   0  0  0  0  0  0  0  0  0  0  0  0
   56.5120   23.4190   44.5550 N   0  0  0  0  0  0  0  0  0  0  0  0
   55.3170   22.9650   44.9950 C   0  0  0  0  0  0  0  0  0  0  0  0
   55.0020   21.7470   44.9790 O   0  0  0  0  0  0  0  0  0  0  0  0
   54.5000   23.9410   45.4440 N   0  0  0  0  0  0  0  0  0  0  0  0
   53.1770   23.7940   46.0440 C   0  0  0  0  0  0  0  0  0  0  0  0
   55.2180   25.0660   45.3080 C   0  0  0  0  0  0  0  0  0  0  0  0
   54.7700   26.3380   45.6460 O   0  0  0  0  0  0  0  0  0  0  0  0
   57.3340   28.0770   44.7600 C   0  0  0  0  0  0  0  0  0  0  0  0
   57.9940   28.9620   45.5870 C   0  0  0  0  0  0  0  0  0  0  0  0
   57.7450   30.4380   45.6340 C   0  0  0  0  0  0  0  0  0  0  0  0
   58.8710   28.3030   46.3750 N   0  0  0  0  0  0  0  0  0  0  0  0
   59.6600   28.8940   47.4220 C   0  0  0  0  0  0  0  0  0  0  0  0
   59.5410   28.4250   48.7370 C   0  0  0  0  0  0  0  0  0  0  0  0
   60.3270   28.9720   49.7530 C   0  0  0  0  0  0  0  0  0  0  0  0
   61.2250   30.0110   49.4680 C   0  0  0  0  0  0  0  0  0  0  0  0
   62.0850   30.5490   50.5370 C   0  0  0  0  0  0  0  0  0  0  0  0
   62.6300   29.7290   51.3300 O   0  0  0  0  0  0  0  0  0  0  0  0
   62.2140   31.9850   50.7530 N   0  0  1  0  0  0  0  0  0  0  0  0
   62.1980   32.2290   52.2090 C   0  0  0  0  0  0  0  0  0  0  0  0
   63.6540   32.2630   52.6860 C   0  0  0  0  0  0  0  0  0  0  0  0
   64.5030   32.2630   51.4190 C   0  0  0  0  0  0  0  0  0  0  0  0
   63.5070   32.5710   50.2860 C   0  0  0  0  0  0  0  0  0  0  0  0
   64.0100   32.0210   48.9060 C   0  0  0  0  0  0  0  0  0  0  0  0
   63.4920   32.8200   47.6880 C   0  0  0  0  0  0  0  0  0  0  0  0
   62.2440   33.5460   48.0020 N   0  0  0  0  0  0  0  0  0  0  0  0
   61.6460   34.1390   46.7810 C   0  0  0  0  0  0  0  0  0  0  0  0
   60.1190   34.1140   46.8640 C   0  0  0  0  0  0  0  0  0  0  0  0
   59.6870   33.3810   47.9960 O   0  0  0  0  0  0  0  0  0  0  0  0
   58.3700   32.9080   47.8120 C   0  0  0  0  0  0  0  0  0  0  0  0
   62.4780   34.5890   49.0220 C   0  0  0  0  0  0  0  0  0  0  0  0
   63.4060   34.1240   50.1590 C   0  0  0  0  0  0  0  0  0  0  0  0
   61.3450   30.4810   48.1540 C   0  0  0  0  0  0  0  0  0  0  0  0
   60.5670   29.9240   47.1320 C   0  0  0  0  0  0  0  0  0  0  0  0
   60.7040   30.3790   45.8620 F   0  0  0  0  0  0  0  0  0  0  0  0
   60.0730   26.2847   47.5873 H   0  0  0  0  0  0  0  0  0  0  0  0
   59.1292   24.9625   46.5917 H   0  0  0  0  0  0  0  0  0  0  0  0
   57.9613   25.5287   43.3779 H   0  0  0  0  0  0  0  0  0  0  0  0
   53.2683   23.8041   47.1402 H   0  0  0  0  0  0  0  0  0  0  0  0
   52.5338   24.6262   45.7219 H   0  0  0  0  0  0  0  0  0  0  0  0
   52.7322   22.8409   45.7219 H   0  0  0  0  0  0  0  0  0  0  0  0
   56.5477   28.3236   44.0313 H   0  0  0  0  0  0  0  0  0  0  0  0
   57.6894   30.7673   46.6821 H   0  0  0  0  0  0  0  0  0  0  0  0
   58.5670   30.9648   45.1272 H   0  0  0  0  0  0  0  0  0  0  0  0
   56.7957   30.6660   45.1272 H   0  0  0  0  0  0  0  0  0  0  0  0
   58.8254   27.6226   48.9698 H   0  0  0  0  0  0  0  0  0  0  0  0
   60.2417   28.5870   50.7799 H   0  0  0  0  0  0  0  0  0  0  0  0
   61.3960   32.4710   50.3150 H   0  0  0  0  0  0  0  0  0  0  0  0
   61.7100   33.1912   52.4233 H   0  0  0  0  0  0  0  0  0  0  0  0
   61.6383   31.4373   52.7285 H   0  0  0  0  0  0  0  0  0  0  0  0
   63.8436   33.1726   53.2748 H   0  0  0  0  0  0  0  0  0  0  0  0
   63.8896   31.4051   53.3328 H   0  0  0  0  0  0  0  0  0  0  0  0
   65.2818   33.0379   51.4731 H   0  0  0  0  0  0  0  0  0  0  0  0
   65.0264   31.3076   51.2669 H   0  0  0  0  0  0  0  0  0  0  0  0
   65.1095   32.0538   48.8998 H   0  0  0  0  0  0  0  0  0  0  0  0
   63.6180   30.9979   48.8075 H   0  0  0  0  0  0  0  0  0  0  0  0
   64.2605   33.5464   47.3850 H   0  0  0  0  0  0  0  0  0  0  0  0
   63.2802   32.1088   46.8760 H   0  0  0  0  0  0  0  0  0  0  0  0
   61.9858   35.1804   46.6810 H   0  0  0  0  0  0  0  0  0  0  0  0
   61.9638   33.5501   45.9080 H   0  0  0  0  0  0  0  0  0  0  0  0
   59.7453   35.1459   46.9389 H   0  0  0  0  0  0  0  0  0  0  0  0
   59.7255   33.6279   45.9591 H   0  0  0  0  0  0  0  0  0  0  0  0
   57.9006   32.7394   48.7924 H   0  0  0  0  0  0  0  0  0  0  0  0
   57.7879   33.6533   47.2501 H   0  0  0  0  0  0  0  0  0  0  0  0
   58.3951   31.9627   47.2501 H   0  0  0  0  0  0  0  0  0  0  0  0
   62.9346   35.4616   48.5321 H   0  0  0  0  0  0  0  0  0  0  0  0
   61.5042   34.8322   49.4720 H   0  0  0  0  0  0  0  0  0  0  0  0
   64.4134   34.5241   49.9716 H   0  0  0  0  0  0  0  0  0  0  0  0
   62.9765   34.4979   51.1001 H   0  0  0  0  0  0  0  0  0  0  0  0
   62.0532   31.2908   47.9242 H   0  0  0  0  0  0  0  0  0  0  0  0
  1  2  2  0
  2  3  1  0
  3  4  2  3
  4  5  1  0
  5  6  1  0
  6  7  1  0
  7  8  2  0
  7  9  1  0
  9 10  1  0
  9 11  1  0
 11 12  1  0
  3 13  1  0
 13 14  2  0
 14 15  1  0
 14 16  1  0
 16 17  1  0
 17 18  2  0
 18 19  1  0
 19 20  2  0
 20 21  1  0
 21 22  2  0
 21 23  1  0
 23 24  1  0
 24 25  1  0
 25 26  1  0
 26 27  1  0
 27 28  1  0
 28 29  1  0
 29 30  1  0
 30 31  1  0
 31 32  1  0
 32 33  1  0
 33 34  1  0
 30 35  1  0
 35 36  1  0
 20 37  1  0
 37 38  2  0
 38 39  1  0
 16  2  1  0
 38 17  1  0
 11  5  2  0
 27 23  1  0
 36 27  1  0
  1 40  1  0
  1 41  1  0
  4 42  1  0
 10 43  1  0
 10 44  1  0
 10 45  1  0
 13 46  1  0
 15 47  1  0
 15 48  1  0
 15 49  1  0
 18 50  1  0
 19 51  1  0
 23 52  1  6
 24 53  1  0
 24 54  1  0
 25 55  1  0
 25 56  1  0
 26 57  1  0
 26 58  1  0
 28 59  1  0
 28 60  1  0
 29 61  1  0
 29 62  1  0
 31 63  1  0
 31 64  1  0
 32 65  1  0
 32 66  1  0
 34 67  1  0
 34 68  1  0
 34 69  1  0
 35 70  1  0
 35 71  1  0
 36 72  1  0
 36 73  1  0
 37 74  1  0
M  CHG  3   6  -1  12  -1  23   1
M  END
>  <UniqueID>  (54) 
48

>  <SMILES>  (54) 
C=c1c(=Cc2[n-]c(=O)n(C)c2[O-])cc(C)n1-c1ccc(C(=O)[N@H+]2CCCC23CCN(CCOC)CC3)cc1F

>  <Energy>  (54) 
182.020517933048

>  <Genealogy>  (54) 
C=c1c(=Cc2[n-]c(=O)n(C)c2[O-])cc(C)n1-c1ccc(C(=O)[NH+]2CCCC23CCN(CCOC)CC3)cc1F (protonated)
C=c1c(=Cc2[n-]c(=O)n(C)c2[O-])cc(C)n1-c1ccc(C(=O)[N@H+]2CCCC23CCN(CCOC)CC3)cc1F (chirality)
C=c1c(=Cc2[n-]c(=O)n(C)c2[O-])cc(C)n1-c1ccc(C(=O)[N@H+]2CCCC23CCN(CCOC)CC3)cc1F (3D coordinates assigned)
C=c1c(=Cc2[n-]c(=O)n(C)c2[O-])cc(C)n1-c1ccc(C(=O)[N@H+]2CCCC23CCN(CCOC)CC3)cc1F (nonaromatic ring conformer: 182.020517933048 kcal/mol)

>  <smiles>  (54) 
C=c1c(=Cc2[nH]c(=O)n(C)c2O)cc(C)n1-c1ccc(C(=O)N2CCCC23CCN(CCOC)CC3)cc1F

>  <score_type>  (54) 
oracle

>  <origin>  (54) 
adg

>  <m_score__min__energy>  (54) 
-13.029999999999999

>  <m_primary>  (54) 
energy

$$$$
54:0
     RDKit          3D

 51 53  0  0  0  0  0  0  0  0999 V2000
   59.9660   27.3850   47.8380 C   0  0  0  0  0  0  0  0  0  0  0  0
   59.1570   27.8900   46.6380 C   0  0  0  0  0  0  0  0  0  0  0  0
   57.7140   27.3390   46.6630 C   0  0  0  0  0  0  0  0  0  0  0  0
   57.1360   27.0490   45.2630 C   0  0  0  0  0  0  0  0  0  0  0  0
   57.6170   27.9720   44.2140 N   0  0  0  0  0  0  0  0  0  0  0  0
   56.7420   29.4890   44.1710 S   0  0  0  0  0  0  0  0  0  0  0  0
   56.5010   29.8740   42.7380 O   0  0  0  0  0  0  0  0  0  0  0  0
   55.4060   29.3270   44.8410 O   0  0  0  0  0  0  0  0  0  0  0  0
   57.6180   30.7920   44.9570 C   0  0  0  0  0  0  0  0  0  0  0  0
   57.9660   32.0000   44.3890 C   0  0  0  0  0  0  0  0  0  0  0  0
   58.7010   32.7120   45.2630 N   0  0  0  0  0  0  0  0  0  0  0  0
   58.8140   31.9650   46.3800 C   0  0  0  0  0  0  0  0  0  0  0  0
   59.5920   32.3610   47.5660 C   0  0  0  0  0  0  0  0  0  0  0  0
   59.9080   31.4820   48.4150 O   0  0  0  0  0  0  0  0  0  0  0  0
   60.0040   33.7270   47.7640 N   0  0  0  0  0  0  0  0  0  0  0  0
   60.0610   34.2680   49.1250 C   0  0  0  0  0  0  0  0  0  0  0  0
   61.3720   33.8810   49.8250 C   0  0  0  0  0  0  0  0  0  0  0  0
   62.6050   34.2550   48.9870 C   0  0  0  0  0  0  0  0  0  0  0  0
   62.8250   33.3760   47.7390 C   0  0  0  0  0  0  0  0  0  0  0  0
   62.0850   33.7970   46.4520 C   0  0  0  0  0  0  0  0  0  0  0  0
   60.7090   34.4350   46.6850 C   0  0  0  0  0  0  0  0  0  0  0  0
   58.1290   30.7740   46.2380 C   0  0  0  0  0  0  0  0  0  0  0  0
   59.0880   28.1440   44.1330 C   0  0  0  0  0  0  0  0  0  0  0  0
   59.8540   27.5380   45.3200 C   0  0  0  0  0  0  0  0  0  0  0  0
   59.4708   27.6941   48.7703 H   0  0  0  0  0  0  0  0  0  0  0  0
   60.0283   26.2873   47.8024 H   0  0  0  0  0  0  0  0  0  0  0  0
   60.9795   27.8111   47.8024 H   0  0  0  0  0  0  0  0  0  0  0  0
   59.0988   28.9860   46.7113 H   0  0  0  0  0  0  0  0  0  0  0  0
   57.7098   26.4031   47.2410 H   0  0  0  0  0  0  0  0  0  0  0  0
   57.0814   28.1160   47.1170 H   0  0  0  0  0  0  0  0  0  0  0  0
   57.4164   26.0243   44.9779 H   0  0  0  0  0  0  0  0  0  0  0  0
   56.0466   27.1846   45.3328 H   0  0  0  0  0  0  0  0  0  0  0  0
   57.6860   32.3303   43.3778 H   0  0  0  0  0  0  0  0  0  0  0  0
   59.1040   33.6600   45.0970 H   0  0  0  0  0  0  0  0  0  0  0  0
   59.9902   35.3647   49.0779 H   0  0  0  0  0  0  0  0  0  0  0  0
   59.2230   33.8482   49.7008 H   0  0  0  0  0  0  0  0  0  0  0  0
   61.4269   34.4048   50.7907 H   0  0  0  0  0  0  0  0  0  0  0  0
   61.3738   32.7897   49.9633 H   0  0  0  0  0  0  0  0  0  0  0  0
   62.4913   35.2979   48.6562 H   0  0  0  0  0  0  0  0  0  0  0  0
   63.4804   34.1003   49.6349 H   0  0  0  0  0  0  0  0  0  0  0  0
   63.9026   33.3754   47.5182 H   0  0  0  0  0  0  0  0  0  0  0  0
   62.4078   32.3929   48.0023 H   0  0  0  0  0  0  0  0  0  0  0  0
   62.7139   34.5238   45.9170 H   0  0  0  0  0  0  0  0  0  0  0  0
   61.9077   32.8749   45.8790 H   0  0  0  0  0  0  0  0  0  0  0  0
   60.8395   35.4905   46.9660 H   0  0  0  0  0  0  0  0  0  0  0  0
   60.1172   34.3662   45.7603 H   0  0  0  0  0  0  0  0  0  0  0  0
   58.0150   29.9783   46.9889 H   0  0  0  0  0  0  0  0  0  0  0  0
   59.4424   27.6618   43.2100 H   0  0  0  0  0  0  0  0  0  0  0  0
   59.2834   29.2264   44.1470 H   0  0  0  0  0  0  0  0  0  0  0  0
   59.8891   26.4442   45.2089 H   0  0  0  0  0  0  0  0  0  0  0  0
   60.8745   27.9482   45.3342 H   0  0  0  0  0  0  0  0  0  0  0  0
  1  2  1  0
  2  3  1  0
  3  4  1  0
  4  5  1  0
  5  6  1  0
  6  7  2  0
  6  8  2  0
  6  9  1  0
  9 10  2  0
 10 11  1  0
 11 12  1  0
 12 13  1  0
 13 14  2  0
 13 15  1  0
 15 16  1  0
 16 17  1  0
 17 18  1  0
 18 19  1  0
 19 20  1  0
 20 21  1  0
 12 22  2  0
  5 23  1  0
 23 24  1  0
 24  2  1  0
 22  9  1  0
 21 15  1  0
  1 25  1  0
  1 26  1  0
  1 27  1  0
  2 28  1  0
  3 29  1  0
  3 30  1  0
  4 31  1  0
  4 32  1  0
 10 33  1  0
 11 34  1  0
 16 35  1  0
 16 36  1  0
 17 37  1  0
 17 38  1  0
 18 39  1  0
 18 40  1  0
 19 41  1  0
 19 42  1  0
 20 43  1  0
 20 44  1  0
 21 45  1  0
 21 46  1  0
 22 47  1  0
 23 48  1  0
 23 49  1  0
 24 50  1  0
 24 51  1  0
M  END
>  <UniqueID>  (55) 
49

>  <SMILES>  (55) 
CC1CCN(S(=O)(=O)c2c[nH]c(C(=O)N3CCCCCC3)c2)CC1

>  <Energy>  (55) 
85.39742990039974

>  <Genealogy>  (55) 
CC1CCN(S(=O)(=O)c2c[nH]c(C(=O)N3CCCCCC3)c2)CC1 (3D coordinates assigned)
CC1CCN(S(=O)(=O)c2c[nH]c(C(=O)N3CCCCCC3)c2)CC1 (nonaromatic ring conformer: 85.39742990039974 kcal/mol)

>  <smiles>  (55) 
CC1CCN(S(=O)(=O)c2c[nH]c(C(=O)N3CCCCCC3)c2)CC1

>  <score_type>  (55) 
oracle

>  <origin>  (55) 
adg

>  <m_score__min__energy>  (55) 
-6.9800000000000004

>  <m_primary>  (55) 
energy

$$$$
55:0
     RDKit          3D

 22 23  0  0  0  0  0  0  0  0999 V2000
   56.2800   24.2480   46.8730 C   0  0  0  0  0  0  0  0  0  0  0  0
   56.6370   25.4560   46.4420 C   0  0  0  0  0  0  0  0  0  0  0  0
   58.2200   26.0130   46.3330 S   0  0  0  0  0  0  0  0  0  0  0  0
   57.8300   27.5410   45.7400 C   0  0  0  0  0  0  0  0  0  0  0  0
   58.7370   28.4740   45.4220 C   0  0  0  0  0  0  0  0  0  0  0  0
   58.5180   29.9270   45.5890 C   0  0  0  0  0  0  0  0  0  0  0  0
   59.4120   30.6870   46.3580 C   0  0  0  0  0  0  0  0  0  0  0  0
   60.5280   30.0900   46.9390 O   0  0  0  0  0  0  0  0  0  0  0  0
   59.1960   32.0190   46.5320 N   0  0  0  0  0  0  0  0  0  0  0  0
   58.1170   32.6320   45.9820 C   0  0  0  0  0  0  0  0  0  0  0  0
   57.8870   34.2320   46.2060 S   0  0  0  0  0  0  0  0  0  0  0  0
   57.2220   31.9130   45.2590 N   0  0  0  0  0  0  0  0  0  0  0  0
   57.3900   30.5800   45.0570 C   0  0  0  0  0  0  0  0  0  0  0  0
   56.5190   29.9390   44.4110 O   0  0  0  0  0  0  0  0  0  0  0  0
   56.4410   27.6300   45.6080 C   0  0  0  0  0  0  0  0  0  0  0  0
   55.7820   26.4620   46.0060 C   0  0  0  0  0  0  0  0  0  0  0  0
   54.3990   26.3290   45.9590 O   0  0  0  0  0  0  0  0  0  0  0  0
   55.2165   23.9694   46.9103 H   0  0  0  0  0  0  0  0  0  0  0  0
   57.0485   23.5285   47.1918 H   0  0  0  0  0  0  0  0  0  0  0  0
   59.7016   28.1397   45.0125 H   0  0  0  0  0  0  0  0  0  0  0  0
   61.2210   30.6440   47.4260 H   0  0  0  0  0  0  0  0  0  0  0  0
   55.9216   28.5235   45.2312 H   0  0  0  0  0  0  0  0  0  0  0  0
  1  2  2  0
  2  3  1  0
  3  4  1  0
  4  5  2  3
  5  6  1  0
  6  7  2  0
  7  8  1  0
  7  9  1  0
  9 10  1  0
 10 11  2  0
 10 12  1  0
 12 13  1  0
 13 14  2  0
  4 15  1  0
 15 16  2  0
 16 17  1  0
 16  2  1  0
 13  6  1  0
  1 18  1  0
  1 19  1  0
  5 20  1  0
  8 21  1  0
 15 22  1  0
M  CHG  3   9  -1  12  -1  17  -1
M  END
>  <UniqueID>  (56) 
50

>  <SMILES>  (56) 
C=c1sc(=Cc2c(O)[n-]c(=S)[n-]c2=O)cc1[O-]

>  <Energy>  (56) 
57.62903086077333

>  <Genealogy>  (56) 
C=c1sc(=Cc2c(O)[n-]c(=S)[n-]c2=O)cc1[O-] (protonated)
C=c1sc(=Cc2c(O)[n-]c(=S)[n-]c2=O)cc1[O-] (3D coordinates assigned)
C=c1sc(=Cc2c(O)[n-]c(=S)[n-]c2=O)cc1[O-] (optimized conformer: 57.62903086077333 kcal/mol)

>  <smiles>  (56) 
C=c1sc(=Cc2c(O)[nH]c(=S)[nH]c2=O)cc1O

>  <score_type>  (56) 
oracle

>  <origin>  (56) 
adg

>  <m_score__min__energy>  (56) 
-11.59

>  <m_primary>  (56) 
energy

$$$$
56:0
     RDKit          3D

 40 42  0  0  1  0  0  0  0  0999 V2000
   56.4670   29.8610   42.5960 N   0  0  0  0  0  0  0  0  0  0  0  0
   56.4230   29.9980   44.3080 S   0  0  0  0  0  0  0  0  0  0  0  0
   56.4830   31.4660   44.6310 O   0  0  0  0  0  0  0  0  0  0  0  0
   55.1920   29.3410   44.8510 O   0  0  0  0  0  0  0  0  0  0  0  0
   57.8300   29.2190   44.9970 C   0  0  0  0  0  0  0  0  0  0  0  0
   58.2230   28.0000   44.4880 C   0  0  0  0  0  0  0  0  0  0  0  0
   59.3320   27.4080   45.0450 C   0  0  0  0  0  0  0  0  0  0  0  0
   60.0240   28.0100   46.0750 C   0  0  0  0  0  0  0  0  0  0  0  0
   59.6340   29.2470   46.6000 C   0  0  0  0  0  0  0  0  0  0  0  0
   60.3840   29.8580   47.6880 C   0  0  0  0  0  0  0  0  0  0  0  0
   60.7740   31.1390   47.5660 N   0  0  0  0  0  0  0  0  0  0  0  0
   61.4690   31.7560   48.5390 C   0  0  0  0  0  0  0  0  0  0  0  0
   61.8030   32.9720   48.3470 N   0  0  0  0  0  0  0  0  0  0  0  0
   60.9340   34.0810   48.5460 C   0  0  0  0  0  0  0  0  0  0  0  0
   59.8650   34.0640   47.5040 C   0  0  0  0  0  0  0  0  0  0  0  0
   58.6340   33.4800   47.7020 C   0  0  0  0  0  0  0  0  0  0  0  0
   57.6400   33.4660   46.7340 C   0  0  0  0  0  0  0  0  0  0  0  0
   57.8610   34.0520   45.5080 C   0  0  0  0  0  0  0  0  0  0  0  0
   56.9400   34.0780   44.5140 F   0  0  0  0  0  0  0  0  0  0  0  0
   59.0820   34.6450   45.2770 C   0  0  0  0  0  0  0  0  0  0  0  0
   60.0590   34.6520   46.2490 C   0  0  0  0  0  0  0  0  0  0  0  0
   61.8100   31.1020   49.7020 C   0  0  0  0  0  0  0  0  0  0  0  0
   61.4070   29.7880   49.8210 C   0  0  0  0  0  0  0  0  0  0  0  0
   60.7140   29.2150   48.8210 N   0  0  0  0  0  0  0  0  0  0  0  0
   58.5240   29.8150   46.0240 C   0  0  0  0  0  0  0  0  0  0  0  0
   57.3860   29.5500   42.2410 H   0  0  0  0  0  0  0  0  0  0  0  0
   55.7210   29.2610   42.2150 H   0  0  0  0  0  0  0  0  0  0  0  0
   57.6705   27.5190   43.6674 H   0  0  0  0  0  0  0  0  0  0  0  0
   59.6740   26.4353   44.6616 H   0  0  0  0  0  0  0  0  0  0  0  0
   60.9060   27.5042   46.4949 H   0  0  0  0  0  0  0  0  0  0  0  0
   60.4756   34.0141   49.5437 H   0  0  0  0  0  0  0  0  0  0  0  0
   61.5075   35.0166   48.4700 H   0  0  0  0  0  0  0  0  0  0  0  0
   58.4292   33.0028   48.6717 H   0  0  0  0  0  0  0  0  0  0  0  0
   56.6735   32.9857   46.9466 H   0  0  0  0  0  0  0  0  0  0  0  0
   59.2801   35.1191   44.3044 H   0  0  0  0  0  0  0  0  0  0  0  0
   61.0227   35.1355   46.0312 H   0  0  0  0  0  0  0  0  0  0  0  0
   62.3775   31.6042   50.4993 H   0  0  0  0  0  0  0  0  0  0  0  0
   61.6506   29.2134   50.7268 H   0  0  0  0  0  0  0  0  0  0  0  0
   60.4300   28.2230   48.9540 H   0  0  0  0  0  0  0  0  0  0  0  0
   58.1752   30.7881   46.4001 H   0  0  0  0  0  0  0  0  0  0  0  0
  1  2  1  0
  2  3  2  0
  2  4  2  0
  2  5  1  0
  5  6  2  0
  6  7  1  0
  7  8  2  0
  8  9  1  0
  9 10  1  0
 10 11  2  0
 11 12  1  0
 12 13  2  0
 13 14  1  0
 14 15  1  0
 15 16  2  0
 16 17  1  0
 17 18  2  0
 18 19  1  0
 18 20  1  0
 20 21  2  0
 12 22  1  0
 22 23  2  0
 23 24  1  0
  9 25  2  0
 25  5  1  0
 24 10  1  0
 21 15  1  0
  1 26  1  0
  1 27  1  0
  6 28  1  0
  7 29  1  0
  8 30  1  0
 14 31  1  0
 14 32  1  0
 16 33  1  0
 17 34  1  0
 20 35  1  0
 21 36  1  0
 22 37  1  0
 23 38  1  0
 24 39  1  0
 25 40  1  0
M  END
>  <smiles>  (57) 
NS(=O)(=O)c1cccc(-c2nc(=NCc3ccc(F)cc3)cc[nH]2)c1

>  <score_type>  (57) 
oracle

>  <origin>  (57) 
adg

>  <m_score__min__energy>  (57) 
-9.1600000000000001

>  <m_primary>  (57) 
energy

$$$$
57:0
     RDKit          3D

 37 40  0  0  0  0  0  0  0  0999 V2000
   55.1250   29.3400   44.8610 N   0  0  0  0  0  0  0  0  0  0  0  0
   56.7580   29.7710   44.4960 S   0  0  0  0  0  0  0  0  0  0  0  0
   57.0080   29.5710   43.0280 O   0  0  0  0  0  0  0  0  0  0  0  0
   56.9850   31.2190   44.8310 O   0  0  0  0  0  0  0  0  0  0  0  0
   57.8560   28.7690   45.4400 C   0  0  0  0  0  0  0  0  0  0  0  0
   58.3720   27.5820   44.9050 C   0  0  0  0  0  0  0  0  0  0  0  0
   59.2350   26.7880   45.6650 C   0  0  0  0  0  0  0  0  0  0  0  0
   59.5830   27.1710   46.9640 C   0  0  0  0  0  0  0  0  0  0  0  0
   59.0660   28.3570   47.5170 C   0  0  0  0  0  0  0  0  0  0  0  0
   59.4110   28.7850   48.8890 C   0  0  0  0  0  0  0  0  0  0  0  0
   60.6250   28.6760   49.5430 C   0  0  0  0  0  0  0  0  0  0  0  0
   60.5050   29.1920   50.7830 N   0  0  0  0  0  0  0  0  0  0  0  0
   59.2180   29.5920   50.8260 C   0  0  0  0  0  0  0  0  0  0  0  0
   58.6950   30.1540   51.8740 N   0  0  0  0  0  0  0  0  0  0  0  0
   57.3470   29.9610   52.3350 C   0  0  0  0  0  0  0  0  0  0  0  0
   57.1240   29.2620   53.5270 C   0  0  0  0  0  0  0  0  0  0  0  0
   55.8180   29.0690   53.9830 C   0  0  0  0  0  0  0  0  0  0  0  0
   54.7430   29.5770   53.2430 C   0  0  0  0  0  0  0  0  0  0  0  0
   53.4150   29.4100   53.6580 C   0  0  0  0  0  0  0  0  0  0  0  0
   52.4010   29.9200   52.9080 N   0  0  0  0  0  0  0  0  0  0  0  0
   52.6330   30.5960   51.7510 C   0  0  0  0  0  0  0  0  0  0  0  0
   53.9420   30.7880   51.2980 C   0  0  0  0  0  0  0  0  0  0  0  0
   55.0030   30.2750   52.0480 C   0  0  0  0  0  0  0  0  0  0  0  0
   56.2860   30.4470   51.6300 N   0  0  0  0  0  0  0  0  0  0  0  0
   58.5650   29.3550   49.7120 O   0  0  0  0  0  0  0  0  0  0  0  0
   58.1990   29.1490   46.7430 C   0  0  0  0  0  0  0  0  0  0  0  0
   55.1610   28.6340   45.6290 H   0  0  0  0  0  0  0  0  0  0  0  0
   58.0976   27.2743   43.8852 H   0  0  0  0  0  0  0  0  0  0  0  0
   59.6419   25.8586   45.2399 H   0  0  0  0  0  0  0  0  0  0  0  0
   60.2641   26.5422   47.5563 H   0  0  0  0  0  0  0  0  0  0  0  0
   61.5412   28.2386   49.1195 H   0  0  0  0  0  0  0  0  0  0  0  0
   57.9739   28.8662   54.1023 H   0  0  0  0  0  0  0  0  0  0  0  0
   55.6347   28.5207   54.9188 H   0  0  0  0  0  0  0  0  0  0  0  0
   53.1928   28.8674   54.5887 H   0  0  0  0  0  0  0  0  0  0  0  0
   51.7880   30.9932   51.1694 H   0  0  0  0  0  0  0  0  0  0  0  0
   54.1336   31.3357   50.3635 H   0  0  0  0  0  0  0  0  0  0  0  0
   57.7861   30.0767   47.1659 H   0  0  0  0  0  0  0  0  0  0  0  0
  1  2  1  0
  2  3  2  0
  2  4  2  0
  2  5  1  0
  5  6  2  0
  6  7  1  0
  7  8  2  0
  8  9  1  0
  9 10  1  0
 10 11  2  0
 11 12  1  0
 12 13  1  0
 13 14  2  3
 14 15  1  0
 15 16  2  0
 16 17  1  0
 17 18  2  0
 18 19  1  0
 19 20  2  0
 20 21  1  0
 21 22  2  0
 22 23  1  0
 23 24  2  0
 13 25  1  0
  9 26  2  0
 26  5  1  0
 25 10  1  0
 24 15  1  0
 23 18  1  0
  1 27  1  0
  6 28  1  0
  7 29  1  0
  8 30  1  0
 11 31  1  0
 16 32  1  0
 17 33  1  0
 19 34  1  0
 21 35  1  0
 22 36  1  0
 26 37  1  0
M  CHG  2   1  -1  12  -1
M  END
>  <UniqueID>  (58) 
51

>  <SMILES>  (58) 
[NH-]S(=O)(=O)c1cccc(-c2c[n-]c(=Nc3ccc4cnccc4n3)o2)c1

>  <Energy>  (58) 
77.13549555401741

>  <Genealogy>  (58) 
[NH-]S(=O)(=O)c1cccc(-c2c[n-]c(=Nc3ccc4cnccc4n3)o2)c1 (protonated)
[NH-]S(=O)(=O)c1cccc(-c2c[n-]c(=Nc3ccc4cnccc4n3)o2)c1 (3D coordinates assigned)
[NH-]S(=O)(=O)c1cccc(-c2c[n-]c(=Nc3ccc4cnccc4n3)o2)c1 (optimized conformer: 77.13549555401741 kcal/mol)

>  <smiles>  (58) 
NS(=O)(=O)c1cccc(-c2c[nH]c(=Nc3ccc4cnccc4n3)o2)c1

>  <score_type>  (58) 
oracle

>  <origin>  (58) 
adg

>  <m_score__min__energy>  (58) 
-12.66

>  <m_primary>  (58) 
energy

$$$$
58:0
     RDKit          3D

 76 81  0  0  0  0  0  0  0  0999 V2000
   63.2950   25.8170   52.0090 C   0  0  0  0  0  0  0  0  0  0  0  0
   64.6430   25.3600   51.9870 O   0  0  0  0  0  0  0  0  0  0  0  0
   65.6400   25.9850   51.2310 C   0  0  0  0  0  0  0  0  0  0  0  0
   66.0310   25.4660   50.1480 O   0  0  0  0  0  0  0  0  0  0  0  0
   66.2410   27.2520   51.7080 C   0  0  0  0  0  0  0  0  0  0  0  0
   67.4150   27.7460   51.1170 C   0  0  0  0  0  0  0  0  0  0  0  0
   67.9700   28.9530   51.5490 C   0  0  0  0  0  0  0  0  0  0  0  0
   67.3660   29.6760   52.5780 C   0  0  0  0  0  0  0  0  0  0  0  0
   66.2040   29.1850   53.2010 C   0  0  0  0  0  0  0  0  0  0  0  0
   65.5340   29.9110   54.2430 N   0  0  0  0  0  0  0  0  0  0  0  0
   64.5750   30.9640   54.0730 C   0  0  0  0  0  0  0  0  0  0  0  0
   63.3390   30.7130   54.0520 O   0  0  0  0  0  0  0  0  0  0  0  0
   65.0540   32.3720   53.9060 C   0  0  0  0  0  0  0  0  0  0  0  0
   64.6770   32.9140   52.5560 C   0  0  0  0  0  0  0  0  0  0  0  0
   64.6350   34.2390   52.1680 C   0  0  0  0  0  0  0  0  0  0  0  0
   64.9560   35.4340   53.0090 C   0  0  0  0  0  0  0  0  0  0  0  0
   64.3280   34.2520   50.8200 C   0  0  0  0  0  0  0  0  0  0  0  0
   64.1790   32.9850   50.3590 N   0  0  0  0  0  0  0  0  0  0  0  0
   63.7910   32.5620   48.9950 C   0  0  2  0  0  0  0  0  0  0  0  0
   64.0210   33.6390   47.9000 C   0  0  0  0  0  0  0  0  0  0  0  0
   62.8650   33.4920   46.8940 C   0  0  0  0  0  0  0  0  0  0  0  0
   62.1620   32.2080   47.3220 C   0  0  2  0  0  0  0  0  0  0  0  0
   60.7690   31.8320   46.7450 C   0  0  2  0  0  0  0  0  0  0  0  0
   59.8330   32.9870   46.3630 C   0  0  0  0  0  0  0  0  0  0  0  0
   58.5930   32.4560   45.6030 C   0  0  0  0  0  0  0  0  0  0  0  0
   58.1730   31.0270   45.9350 C   0  0  0  0  0  0  0  0  0  0  0  0
   57.0770   30.4870   45.2430 C   0  0  0  0  0  0  0  0  0  0  0  0
   56.6780   29.1670   45.4640 C   0  0  0  0  0  0  0  0  0  0  0  0
   55.5890   28.6460   44.7730 O   0  0  0  0  0  0  0  0  0  0  0  0
   57.3700   28.3710   46.3750 C   0  0  0  0  0  0  0  0  0  0  0  0
   58.4620   28.8880   47.0740 C   0  0  0  0  0  0  0  0  0  0  0  0
   58.8870   30.2150   46.8580 C   0  0  0  0  0  0  0  0  0  0  0  0
   59.9910   30.8640   47.6750 C   0  0  1  0  0  0  0  0  0  0  0  0
   60.9570   29.9230   48.4390 C   0  0  0  0  0  0  0  0  0  0  0  0
   61.9830   30.6940   49.3280 C   0  0  0  0  0  0  0  0  0  0  0  0
   62.2980   32.1480   48.8500 C   0  0  1  0  0  0  0  0  0  0  0  0
   61.3900   33.1820   49.5860 C   0  0  0  0  0  0  0  0  0  0  0  0
   64.4010   32.1750   51.4250 C   0  0  0  0  0  0  0  0  0  0  0  0
   64.3790   30.7800   51.4000 O   0  0  0  0  0  0  0  0  0  0  0  0
   65.6400   27.9840   52.7490 C   0  0  0  0  0  0  0  0  0  0  0  0
   62.9630   25.9296   53.0516 H   0  0  0  0  0  0  0  0  0  0  0  0
   63.2286   26.7879   51.4962 H   0  0  0  0  0  0  0  0  0  0  0  0
   62.6518   25.0867   51.4962 H   0  0  0  0  0  0  0  0  0  0  0  0
   67.9006   27.1792   50.3090 H   0  0  0  0  0  0  0  0  0  0  0  0
   68.8868   29.3348   51.0760 H   0  0  0  0  0  0  0  0  0  0  0  0
   67.7997   30.6331   52.9033 H   0  0  0  0  0  0  0  0  0  0  0  0
   64.5997   33.0011   54.6856 H   0  0  0  0  0  0  0  0  0  0  0  0
   66.1505   32.3812   53.9929 H   0  0  0  0  0  0  0  0  0  0  0  0
   64.8834   35.1639   54.0728 H   0  0  0  0  0  0  0  0  0  0  0  0
   65.9777   35.7754   52.7862 H   0  0  0  0  0  0  0  0  0  0  0  0
   64.2429   36.2414   52.7862 H   0  0  0  0  0  0  0  0  0  0  0  0
   64.2200   35.1601   50.2087 H   0  0  0  0  0  0  0  0  0  0  0  0
   64.4558   31.6985   48.8455 H   0  0  0  0  0  0  0  0  0  0  0  0
   64.0104   34.6440   48.3471 H   0  0  0  0  0  0  0  0  0  0  0  0
   64.9960   33.5052   47.4085 H   0  0  0  0  0  0  0  0  0  0  0  0
   62.1811   34.3513   46.9564 H   0  0  0  0  0  0  0  0  0  0  0  0
   63.2140   33.4554   45.8515 H   0  0  0  0  0  0  0  0  0  0  0  0
   62.6752   31.3782   46.8140 H   0  0  0  0  0  0  0  0  0  0  0  0
   61.0505   31.3464   45.7990 H   0  0  0  0  0  0  0  0  0  0  0  0
   59.5032   33.5023   47.2772 H   0  0  0  0  0  0  0  0  0  0  0  0
   60.3782   33.6833   45.7088 H   0  0  0  0  0  0  0  0  0  0  0  0
   57.7461   33.1190   45.8337 H   0  0  0  0  0  0  0  0  0  0  0  0
   58.8757   32.4453   44.5400 H   0  0  0  0  0  0  0  0  0  0  0  0
   56.5280   31.1090   44.5207 H   0  0  0  0  0  0  0  0  0  0  0  0
   57.0543   27.3309   46.5439 H   0  0  0  0  0  0  0  0  0  0  0  0
   58.9951   28.2553   47.7989 H   0  0  0  0  0  0  0  0  0  0  0  0
   59.4828   31.3882   48.4978 H   0  0  0  0  0  0  0  0  0  0  0  0
   60.3627   29.2595   49.0845 H   0  0  0  0  0  0  0  0  0  0  0  0
   61.5302   29.3594   47.6881 H   0  0  0  0  0  0  0  0  0  0  0  0
   61.5780   30.7492   50.3492 H   0  0  0  0  0  0  0  0  0  0  0  0
   62.9285   30.1352   49.2671 H   0  0  0  0  0  0  0  0  0  0  0  0
   61.4994   33.0574   50.6734 H   0  0  0  0  0  0  0  0  0  0  0  0
   61.6902   34.2013   49.3017 H   0  0  0  0  0  0  0  0  0  0  0  0
   60.3404   33.0161   49.3017 H   0  0  0  0  0  0  0  0  0  0  0  0
   64.4420   30.2100   52.2290 H   0  0  0  0  0  0  0  0  0  0  0  0
   64.7162   27.6090   53.2137 H   0  0  0  0  0  0  0  0  0  0  0  0
  1  2  1  0
  2  3  1  0
  3  4  2  0
  3  5  1  0
  5  6  2  0
  6  7  1  0
  7  8  2  0
  8  9  1  0
  9 10  1  0
 10 11  1  0
 11 12  2  0
 11 13  1  0
 13 14  1  0
 14 15  1  0
 15 16  1  0
 15 17  2  0
 17 18  1  0
 18 19  1  0
 19 20  1  0
 20 21  1  0
 21 22  1  0
 22 23  1  0
 23 24  1  0
 24 25  1  0
 25 26  1  0
 26 27  2  0
 27 28  1  0
 28 29  1  0
 28 30  2  0
 30 31  1  0
 31 32  2  0
 32 33  1  0
 33 34  1  0
 34 35  1  0
 35 36  1  0
 36 37  1  1
 18 38  1  0
 38 39  1  0
  9 40  2  0
 40  5  1  0
 38 14  2  0
 36 19  1  0
 36 22  1  0
 33 23  1  0
 32 26  1  0
  1 41  1  0
  1 42  1  0
  1 43  1  0
  6 44  1  0
  7 45  1  0
  8 46  1  0
 13 47  1  0
 13 48  1  0
 16 49  1  0
 16 50  1  0
 16 51  1  0
 17 52  1  0
 19 53  1  6
 20 54  1  0
 20 55  1  0
 21 56  1  0
 21 57  1  0
 22 58  1  6
 23 59  1  6
 24 60  1  0
 24 61  1  0
 25 62  1  0
 25 63  1  0
 27 64  1  0
 30 65  1  0
 31 66  1  0
 33 67  1  1
 34 68  1  0
 34 69  1  0
 35 70  1  0
 35 71  1  0
 37 72  1  0
 37 73  1  0
 37 74  1  0
 39 75  1  0
 40 76  1  0
M  CHG  2  10  -1  29  -1
M  END
>  <UniqueID>  (59) 
52

>  <SMILES>  (59) 
COC(=O)c1cccc([N-]C(=O)Cc2c(C)cn([C@@H]3CC[C@@H]4C5CCc6cc([O-])ccc6C5CCC43C)c2O)c1

>  <Energy>  (59) 
144.79458281374605

>  <Genealogy>  (59) 
COC(=O)c1cccc([N-]C(=O)Cc2c(C)cn(C3CCC4C5CCc6cc([O-])ccc6C5CCC43C)c2O)c1 (protonated)
COC(=O)c1cccc([N-]C(=O)Cc2c(C)cn([C@@H]3CC[C@@H]4C5CCc6cc([O-])ccc6C5CCC43C)c2O)c1 (chirality)
COC(=O)c1cccc([N-]C(=O)Cc2c(C)cn([C@@H]3CC[C@@H]4C5CCc6cc([O-])ccc6C5CCC43C)c2O)c1 (3D coordinates assigned)
COC(=O)c1cccc([N-]C(=O)Cc2c(C)cn([C@@H]3CC[C@@H]4C5CCc6cc([O-])ccc6C5CCC43C)c2O)c1 (nonaromatic ring conformer: 144.79458281374605 kcal/mol)

>  <smiles>  (59) 
COC(=O)c1cccc(NC(=O)Cc2c(C)cn(C3CCC4C5CCc6cc(O)ccc6C5CCC43C)c2O)c1

>  <score_type>  (59) 
oracle

>  <origin>  (59) 
adg

>  <m_score__min__energy>  (59) 
-14.029999999999999

>  <m_primary>  (59) 
energy

$$$$
59:0
     RDKit          3D

 54 57  0  0  0  0  0  0  0  0999 V2000
   59.0230   29.2720   44.1560 O   0  0  0  0  0  0  0  0  0  0  0  0
   58.1350   28.5000   44.6100 C   0  0  0  0  0  0  0  0  0  0  0  0
   58.4940   27.2080   45.1100 N   0  0  0  0  0  0  0  0  0  0  0  0
   57.7980   26.5780   46.2240 C   0  0  0  0  0  0  0  0  0  0  0  0
   56.9640   25.4350   45.7160 C   0  0  0  0  0  0  0  0  0  0  0  0
   57.5830   24.2260   45.3480 C   0  0  0  0  0  0  0  0  0  0  0  0
   56.8160   23.1520   44.8880 C   0  0  0  0  0  0  0  0  0  0  0  0
   55.4240   23.2710   44.7980 C   0  0  0  0  0  0  0  0  0  0  0  0
   54.7990   24.4610   45.1780 C   0  0  0  0  0  0  0  0  0  0  0  0
   55.5590   25.5410   45.6430 C   0  0  0  0  0  0  0  0  0  0  0  0
   54.9130   26.7130   46.0290 O   0  0  0  0  0  0  0  0  0  0  0  0
   56.7600   28.9030   44.6240 N   0  0  0  0  0  0  0  0  0  0  0  0
   56.3150   30.2420   44.2330 C   0  0  0  0  0  0  0  0  0  0  0  0
   57.2700   31.2850   44.7510 C   0  0  0  0  0  0  0  0  0  0  0  0
   57.6190   32.3850   43.9520 C   0  0  0  0  0  0  0  0  0  0  0  0
   58.4860   33.3680   44.4390 C   0  0  0  0  0  0  0  0  0  0  0  0
   58.9940   33.2830   45.7460 C   0  0  0  0  0  0  0  0  0  0  0  0
   59.9020   34.3320   46.2650 C   0  0  0  0  0  0  0  0  0  0  0  0
   59.6930   35.5390   45.9640 O   0  0  0  0  0  0  0  0  0  0  0  0
   61.0040   34.0010   47.1320 N   0  0  0  0  0  0  0  0  0  0  0  0
   62.3410   33.8270   46.5520 C   0  0  0  0  0  0  0  0  0  0  0  0
   62.9520   32.5150   47.0440 C   0  0  0  0  0  0  0  0  0  0  0  0
   63.0590   32.5170   48.5710 C   0  0  0  0  0  0  0  0  0  0  0  0
   61.7690   32.9380   49.2350 C   0  0  0  0  0  0  0  0  0  0  0  0
   61.5730   32.6450   50.5930 C   0  0  0  0  0  0  0  0  0  0  0  0
   60.4210   33.0800   51.2500 C   0  0  0  0  0  0  0  0  0  0  0  0
   59.4630   33.8270   50.5640 C   0  0  0  0  0  0  0  0  0  0  0  0
   59.6500   34.1370   49.2150 C   0  0  0  0  0  0  0  0  0  0  0  0
   60.7980   33.6910   48.5310 C   0  0  0  0  0  0  0  0  0  0  0  0
   58.6410   32.1830   46.5470 C   0  0  0  0  0  0  0  0  0  0  0  0
   57.7840   31.1950   46.0540 C   0  0  0  0  0  0  0  0  0  0  0  0
   58.5340   26.2003   46.9490 H   0  0  0  0  0  0  0  0  0  0  0  0
   57.1460   27.3172   46.7124 H   0  0  0  0  0  0  0  0  0  0  0  0
   58.6759   24.1257   45.4227 H   0  0  0  0  0  0  0  0  0  0  0  0
   57.3068   22.2118   44.5962 H   0  0  0  0  0  0  0  0  0  0  0  0
   54.8226   22.4275   44.4281 H   0  0  0  0  0  0  0  0  0  0  0  0
   53.7046   24.5500   45.1116 H   0  0  0  0  0  0  0  0  0  0  0  0
   56.0450   28.2270   44.9790 H   0  0  0  0  0  0  0  0  0  0  0  0
   56.2717   30.3034   43.1356 H   0  0  0  0  0  0  0  0  0  0  0  0
   55.3188   30.4262   44.6616 H   0  0  0  0  0  0  0  0  0  0  0  0
   57.2076   32.4743   42.9357 H   0  0  0  0  0  0  0  0  0  0  0  0
   58.7719   34.2127   43.7950 H   0  0  0  0  0  0  0  0  0  0  0  0
   62.2631   33.8049   45.4550 H   0  0  0  0  0  0  0  0  0  0  0  0
   62.9829   34.6651   46.8611 H   0  0  0  0  0  0  0  0  0  0  0  0
   62.3148   31.6766   46.7262 H   0  0  0  0  0  0  0  0  0  0  0  0
   63.9593   32.4071   46.6154 H   0  0  0  0  0  0  0  0  0  0  0  0
   63.3162   31.5023   48.9090 H   0  0  0  0  0  0  0  0  0  0  0  0
   63.8356   33.2431   48.8532 H   0  0  0  0  0  0  0  0  0  0  0  0
   62.3317   32.0691   51.1431 H   0  0  0  0  0  0  0  0  0  0  0  0
   60.2681   32.8333   52.3110 H   0  0  0  0  0  0  0  0  0  0  0  0
   58.5587   34.1725   51.0865 H   0  0  0  0  0  0  0  0  0  0  0  0
   58.8950   34.7340   48.6825 H   0  0  0  0  0  0  0  0  0  0  0  0
   59.0417   32.0993   47.5680 H   0  0  0  0  0  0  0  0  0  0  0  0
   57.5105   30.3412   46.6914 H   0  0  0  0  0  0  0  0  0  0  0  0
  1  2  2  0
  2  3  1  0
  3  4  1  0
  4  5  1  0
  5  6  2  0
  6  7  1  0
  7  8  2  0
  8  9  1  0
  9 10  2  0
 10 11  1  0
  2 12  1  0
 12 13  1  0
 13 14  1  0
 14 15  2  0
 15 16  1  0
 16 17  2  0
 17 18  1  0
 18 19  2  0
 18 20  1  0
 20 21  1  0
 21 22  1  0
 22 23  1  0
 23 24  1  0
 24 25  2  0
 25 26  1  0
 26 27  2  0
 27 28  1  0
 28 29  2  0
 17 30  1  0
 30 31  2  0
 10  5  1  0
 31 14  1  0
 29 20  1  0
 29 24  1  0
  4 32  1  0
  4 33  1  0
  6 34  1  0
  7 35  1  0
  8 36  1  0
  9 37  1  0
 12 38  1  0
 13 39  1  0
 13 40  1  0
 15 41  1  0
 16 42  1  0
 21 43  1  0
 21 44  1  0
 22 45  1  0
 22 46  1  0
 23 47  1  0
 23 48  1  0
 25 49  1  0
 26 50  1  0
 27 51  1  0
 28 52  1  0
 30 53  1  0
 31 54  1  0
M  CHG  2   3  -1  11  -1
M  END
>  <UniqueID>  (60) 
53

>  <SMILES>  (60) 
O=C([N-]Cc1ccccc1[O-])NCc1ccc(C(=O)N2CCCc3ccccc32)cc1

>  <Energy>  (60) 
62.36878875937229

>  <Genealogy>  (60) 
O=C([N-]Cc1ccccc1[O-])NCc1ccc(C(=O)N2CCCc3ccccc32)cc1 (protonated)
O=C([N-]Cc1ccccc1[O-])NCc1ccc(C(=O)N2CCCc3ccccc32)cc1 (3D coordinates assigned)
O=C([N-]Cc1ccccc1[O-])NCc1ccc(C(=O)N2CCCc3ccccc32)cc1 (nonaromatic ring conformer: 62.36878875937229 kcal/mol)

>  <smiles>  (60) 
O=C(NCc1ccc(C(=O)N2CCCc3ccccc32)cc1)NCc1ccccc1O

>  <score_type>  (60) 
oracle

>  <origin>  (60) 
adg

>  <m_score__min__energy>  (60) 
-15.529999999999999

>  <m_primary>  (60) 
energy

$$$$
60:0
     RDKit          3D

 51 54  0  0  0  0  0  0  0  0999 V2000
   56.6700   20.7110   42.9480 C   0  0  0  0  0  0  0  0  0  0  0  0
   57.0470   21.8740   43.8160 C   0  0  0  0  0  0  0  0  0  0  0  0
   58.2510   21.8570   44.5350 C   0  0  0  0  0  0  0  0  0  0  0  0
   58.6210   22.9560   45.3180 C   0  0  0  0  0  0  0  0  0  0  0  0
   57.8020   24.0940   45.3720 C   0  0  0  0  0  0  0  0  0  0  0  0
   58.1810   25.2580   46.2410 C   0  0  0  0  0  0  0  0  0  0  0  0
   57.9680   26.4980   45.5040 N   0  0  0  0  0  0  0  0  0  0  0  0
   56.8270   27.3500   45.6570 C   0  0  0  0  0  0  0  0  0  0  0  0
   55.7230   26.8340   45.9750 O   0  0  0  0  0  0  0  0  0  0  0  0
   56.9010   28.8080   45.4290 C   0  0  0  0  0  0  0  0  0  0  0  0
   56.0620   29.4150   44.4850 C   0  0  0  0  0  0  0  0  0  0  0  0
   56.1370   30.7500   44.2520 N   0  0  0  0  0  0  0  0  0  0  0  0
   57.0190   31.5460   44.9110 C   0  0  0  0  0  0  0  0  0  0  0  0
   57.0550   32.9170   44.6410 C   0  0  0  0  0  0  0  0  0  0  0  0
   57.9650   33.7400   45.3080 C   0  0  0  0  0  0  0  0  0  0  0  0
   58.8540   33.1990   46.2480 C   0  0  0  0  0  0  0  0  0  0  0  0
   60.0010   34.2470   47.0910 S   0  0  0  0  0  0  0  0  0  0  0  0
   59.3390   34.8120   48.3170 O   0  0  0  0  0  0  0  0  0  0  0  0
   60.3680   35.3940   46.1910 O   0  0  0  0  0  0  0  0  0  0  0  0
   61.4600   33.4120   47.5680 N   0  0  0  0  0  0  0  0  0  0  0  0
   62.5640   33.6590   46.6420 C   0  0  0  0  0  0  0  0  0  0  0  0
   63.8440   33.4470   47.4360 C   0  0  0  0  0  0  0  0  0  0  0  0
   63.4370   33.5730   48.8980 C   0  0  0  0  0  0  0  0  0  0  0  0
   61.9420   33.8490   48.8760 C   0  0  0  0  0  0  0  0  0  0  0  0
   58.8140   31.8260   46.5310 C   0  0  0  0  0  0  0  0  0  0  0  0
   57.9020   30.9870   45.8630 C   0  0  0  0  0  0  0  0  0  0  0  0
   57.8390   29.6030   46.1160 C   0  0  0  0  0  0  0  0  0  0  0  0
   58.6120   29.0730   46.9630 O   0  0  0  0  0  0  0  0  0  0  0  0
   56.5980   24.1120   44.6520 C   0  0  0  0  0  0  0  0  0  0  0  0
   56.2290   23.0140   43.8680 C   0  0  0  0  0  0  0  0  0  0  0  0
   56.3927   19.8555   43.5814 H   0  0  0  0  0  0  0  0  0  0  0  0
   55.8160   20.9891   42.3129 H   0  0  0  0  0  0  0  0  0  0  0  0
   57.5247   20.4352   42.3129 H   0  0  0  0  0  0  0  0  0  0  0  0
   58.9074   20.9758   44.4832 H   0  0  0  0  0  0  0  0  0  0  0  0
   59.5579   22.9277   45.8937 H   0  0  0  0  0  0  0  0  0  0  0  0
   57.5584   25.2578   47.1479 H   0  0  0  0  0  0  0  0  0  0  0  0
   59.2402   25.1758   46.5264 H   0  0  0  0  0  0  0  0  0  0  0  0
   55.3363   28.8042   43.9279 H   0  0  0  0  0  0  0  0  0  0  0  0
   56.3648   33.3488   43.9013 H   0  0  0  0  0  0  0  0  0  0  0  0
   57.9846   34.8190   45.0948 H   0  0  0  0  0  0  0  0  0  0  0  0
   62.5182   32.9545   45.7984 H   0  0  0  0  0  0  0  0  0  0  0  0
   62.5161   34.6760   46.2256 H   0  0  0  0  0  0  0  0  0  0  0  0
   64.2598   32.4483   47.2367 H   0  0  0  0  0  0  0  0  0  0  0  0
   64.6210   34.1762   47.1628 H   0  0  0  0  0  0  0  0  0  0  0  0
   63.6484   32.6387   49.4387 H   0  0  0  0  0  0  0  0  0  0  0  0
   63.9938   34.3708   49.4114 H   0  0  0  0  0  0  0  0  0  0  0  0
   61.4392   33.2840   49.6747 H   0  0  0  0  0  0  0  0  0  0  0  0
   61.7314   34.9158   49.0421 H   0  0  0  0  0  0  0  0  0  0  0  0
   59.4995   31.4020   47.2796 H   0  0  0  0  0  0  0  0  0  0  0  0
   55.9416   24.9931   44.7043 H   0  0  0  0  0  0  0  0  0  0  0  0
   55.2938   23.0437   43.2896 H   0  0  0  0  0  0  0  0  0  0  0  0
  1  2  1  0
  2  3  2  0
  3  4  1  0
  4  5  2  0
  5  6  1  0
  6  7  1  0
  7  8  1  0
  8  9  2  0
  8 10  1  0
 10 11  2  0
 11 12  1  0
 12 13  1  0
 13 14  2  0
 14 15  1  0
 15 16  2  0
 16 17  1  0
 17 18  2  0
 17 19  2  0
 17 20  1  0
 20 21  1  0
 21 22  1  0
 22 23  1  0
 23 24  1  0
 16 25  1  0
 25 26  2  0
 26 27  1  0
 27 28  2  0
  5 29  1  0
 29 30  2  0
 30  2  1  0
 27 10  1  0
 26 13  1  0
 24 20  1  0
  1 31  1  0
  1 32  1  0
  1 33  1  0
  3 34  1  0
  4 35  1  0
  6 36  1  0
  6 37  1  0
 11 38  1  0
 14 39  1  0
 15 40  1  0
 21 41  1  0
 21 42  1  0
 22 43  1  0
 22 44  1  0
 23 45  1  0
 23 46  1  0
 24 47  1  0
 24 48  1  0
 25 49  1  0
 29 50  1  0
 30 51  1  0
M  CHG  2   7  -1  12  -1
M  END
>  <UniqueID>  (61) 
54

>  <SMILES>  (61) 
Cc1ccc(C[N-]C(=O)c2c[n-]c3ccc(S(=O)(=O)N4CCCC4)cc3c2=O)cc1

>  <Energy>  (61) 
63.50190700763788

>  <Genealogy>  (61) 
Cc1ccc(C[N-]C(=O)c2c[n-]c3ccc(S(=O)(=O)N4CCCC4)cc3c2=O)cc1 (protonated)
Cc1ccc(C[N-]C(=O)c2c[n-]c3ccc(S(=O)(=O)N4CCCC4)cc3c2=O)cc1 (3D coordinates assigned)
Cc1ccc(C[N-]C(=O)c2c[n-]c3ccc(S(=O)(=O)N4CCCC4)cc3c2=O)cc1 (nonaromatic ring conformer: 63.50190700763788 kcal/mol)

>  <smiles>  (61) 
Cc1ccc(CNC(=O)c2c[nH]c3ccc(S(=O)(=O)N4CCCC4)cc3c2=O)cc1

>  <score_type>  (61) 
oracle

>  <origin>  (61) 
adg

>  <m_score__min__energy>  (61) 
-12.470000000000001

>  <m_primary>  (61) 
energy

$$$$
61:0
     RDKit          3D

 41 43  0  0  0  0  0  0  0  0999 V2000
   54.2880   25.9660   45.6550 N   0  0  0  0  0  0  0  0  0  0  0  0
   55.8190   25.2060   45.9100 S   0  0  0  0  0  0  0  0  0  0  0  0
   55.9790   24.0630   44.9480 O   0  0  0  0  0  0  0  0  0  0  0  0
   55.8830   24.6700   47.3120 O   0  0  0  0  0  0  0  0  0  0  0  0
   57.1060   26.3830   45.6620 C   0  0  0  0  0  0  0  0  0  0  0  0
   58.4300   25.9540   45.5120 C   0  0  0  0  0  0  0  0  0  0  0  0
   59.4490   26.8840   45.2990 C   0  0  0  0  0  0  0  0  0  0  0  0
   59.1530   28.2480   45.2370 C   0  0  0  0  0  0  0  0  0  0  0  0
   57.8280   28.6980   45.3900 C   0  0  0  0  0  0  0  0  0  0  0  0
   57.4930   30.1390   45.3160 C   0  0  0  0  0  0  0  0  0  0  0  0
   56.4430   30.4980   44.7140 O   0  0  0  0  0  0  0  0  0  0  0  0
   58.3330   31.1320   45.9320 N   0  0  0  0  0  0  0  0  0  0  0  0
   58.0590   32.5650   45.8270 C   0  0  0  0  0  0  0  0  0  0  0  0
   59.1970   33.3960   46.4340 C   0  0  1  0  0  0  0  0  0  0  0  0
   58.8590   33.8720   47.8600 C   0  0  0  0  0  0  0  0  0  0  0  0
   60.0450   34.6430   48.4550 C   0  0  0  0  0  0  0  0  0  0  0  0
   61.3360   33.8780   48.3070 C   0  0  0  0  0  0  0  0  0  0  0  0
   62.4320   34.1710   49.1330 C   0  0  0  0  0  0  0  0  0  0  0  0
   63.6360   33.4790   48.9730 C   0  0  0  0  0  0  0  0  0  0  0  0
   63.7570   32.4990   47.9830 C   0  0  0  0  0  0  0  0  0  0  0  0
   62.6740   32.2130   47.1460 C   0  0  0  0  0  0  0  0  0  0  0  0
   61.4680   32.9050   47.2960 C   0  0  0  0  0  0  0  0  0  0  0  0
   60.3890   32.6080   46.4550 O   0  0  0  0  0  0  0  0  0  0  0  0
   56.8070   27.7510   45.5900 C   0  0  0  0  0  0  0  0  0  0  0  0
   53.5620   25.3320   46.0590 H   0  0  0  0  0  0  0  0  0  0  0  0
   58.6681   24.8812   45.5621 H   0  0  0  0  0  0  0  0  0  0  0  0
   60.4877   26.5421   45.1797 H   0  0  0  0  0  0  0  0  0  0  0  0
   59.9608   28.9752   45.0675 H   0  0  0  0  0  0  0  0  0  0  0  0
   59.1630   30.8400   46.4930 H   0  0  0  0  0  0  0  0  0  0  0  0
   57.9473   32.8316   44.7657 H   0  0  0  0  0  0  0  0  0  0  0  0
   57.1350   32.7835   46.3825 H   0  0  0  0  0  0  0  0  0  0  0  0
   59.3420   34.2916   45.8120 H   0  0  0  0  0  0  0  0  0  0  0  0
   57.9784   34.5303   47.8244 H   0  0  0  0  0  0  0  0  0  0  0  0
   58.6470   32.9960   48.4906 H   0  0  0  0  0  0  0  0  0  0  0  0
   60.1403   35.6077   47.9352 H   0  0  0  0  0  0  0  0  0  0  0  0
   59.8547   34.7916   49.5282 H   0  0  0  0  0  0  0  0  0  0  0  0
   62.3435   34.9467   49.9079 H   0  0  0  0  0  0  0  0  0  0  0  0
   64.4904   33.7060   49.6276 H   0  0  0  0  0  0  0  0  0  0  0  0
   64.7043   31.9530   47.8626 H   0  0  0  0  0  0  0  0  0  0  0  0
   62.7709   31.4418   46.3676 H   0  0  0  0  0  0  0  0  0  0  0  0
   55.7644   28.0869   45.6908 H   0  0  0  0  0  0  0  0  0  0  0  0
  1  2  1  0
  2  3  2  0
  2  4  2  0
  2  5  1  0
  5  6  2  0
  6  7  1  0
  7  8  2  0
  8  9  1  0
  9 10  1  0
 10 11  2  0
 10 12  1  0
 12 13  1  0
 13 14  1  0
 14 15  1  0
 15 16  1  0
 16 17  1  0
 17 18  2  0
 18 19  1  0
 19 20  2  0
 20 21  1  0
 21 22  2  0
 22 23  1  0
  9 24  2  0
 24  5  1  0
 23 14  1  0
 22 17  1  0
  1 25  1  0
  6 26  1  0
  7 27  1  0
  8 28  1  0
 12 29  1  0
 13 30  1  0
 13 31  1  0
 14 32  1  6
 15 33  1  0
 15 34  1  0
 16 35  1  0
 16 36  1  0
 18 37  1  0
 19 38  1  0
 20 39  1  0
 21 40  1  0
 24 41  1  0
M  CHG  1   1  -1
M  END
>  <UniqueID>  (62) 
55

>  <SMILES>  (62) 
[NH-]S(=O)(=O)c1cccc(C(=O)NC[C@H]2CCc3ccccc3O2)c1

>  <Energy>  (62) 
40.99510108206529

>  <Genealogy>  (62) 
[NH-]S(=O)(=O)c1cccc(C(=O)NCC2CCc3ccccc3O2)c1 (protonated)
[NH-]S(=O)(=O)c1cccc(C(=O)NC[C@H]2CCc3ccccc3O2)c1 (chirality)
[NH-]S(=O)(=O)c1cccc(C(=O)NC[C@H]2CCc3ccccc3O2)c1 (3D coordinates assigned)
[NH-]S(=O)(=O)c1cccc(C(=O)NC[C@H]2CCc3ccccc3O2)c1 (nonaromatic ring conformer: 40.99510108206529 kcal/mol)

>  <smiles>  (62) 
NS(=O)(=O)c1cccc(C(=O)NCC2CCc3ccccc3O2)c1

>  <score_type>  (62) 
oracle

>  <origin>  (62) 
adg

>  <m_score__min__energy>  (62) 
-11.94

>  <m_primary>  (62) 
energy

$$$$
62:0
     RDKit          3D

 41 44  0  0  0  0  0  0  0  0999 V2000
   55.9650   31.5830   52.3820 C   0  0  0  0  0  0  0  0  0  0  0  0
   57.2440   32.2150   51.9210 C   0  0  0  0  0  0  0  0  0  0  0  0
   57.9500   33.1020   52.7660 C   0  0  0  0  0  0  0  0  0  0  0  0
   59.1610   33.6740   52.3470 C   0  0  0  0  0  0  0  0  0  0  0  0
   59.6420   33.3200   51.0890 C   0  0  0  0  0  0  0  0  0  0  0  0
   60.7680   33.7780   50.5070 N   0  0  0  0  0  0  0  0  0  0  0  0
   60.8150   33.1610   49.3040 C   0  0  0  0  0  0  0  0  0  0  0  0
   61.9200   33.3330   48.3490 C   0  0  0  0  0  0  0  0  0  0  0  0
   63.2730   33.1680   48.6150 C   0  0  0  0  0  0  0  0  0  0  0  0
   64.0900   33.4380   47.5100 C   0  0  0  0  0  0  0  0  0  0  0  0
   63.3860   33.8320   46.3800 C   0  0  0  0  0  0  0  0  0  0  0  0
   61.7470   33.8480   46.7580 S   0  0  0  0  0  0  0  0  0  0  0  0
   59.6890   32.3460   49.1770 C   0  0  0  0  0  0  0  0  0  0  0  0
   59.2580   31.6100   48.0200 N   0  0  0  0  0  0  0  0  0  0  0  0
   58.6760   32.2160   46.8530 C   0  0  0  0  0  0  0  0  0  0  0  0
   58.3430   33.5780   46.9040 C   0  0  0  0  0  0  0  0  0  0  0  0
   57.7240   34.1990   45.8190 C   0  0  0  0  0  0  0  0  0  0  0  0
   57.4460   33.4710   44.6630 C   0  0  0  0  0  0  0  0  0  0  0  0
   57.8140   32.1270   44.5770 C   0  0  0  0  0  0  0  0  0  0  0  0
   58.4580   31.4920   45.6520 C   0  0  0  0  0  0  0  0  0  0  0  0
   58.9050   30.0640   45.4830 C   0  0  0  0  0  0  0  0  0  0  0  0
   58.9720   32.4530   50.3100 N   0  0  0  0  0  0  0  0  0  0  0  0
   57.7890   31.8870   50.6660 C   0  0  0  0  0  0  0  0  0  0  0  0
   55.9381   31.5697   53.4816 H   0  0  0  0  0  0  0  0  0  0  0  0
   55.1114   32.1630   52.0013 H   0  0  0  0  0  0  0  0  0  0  0  0
   55.9071   30.5526   52.0013 H   0  0  0  0  0  0  0  0  0  0  0  0
   57.5467   33.3457   53.7600 H   0  0  0  0  0  0  0  0  0  0  0  0
   59.7110   34.3772   52.9896 H   0  0  0  0  0  0  0  0  0  0  0  0
   61.4620   34.4480   50.9090 H   0  0  0  0  0  0  0  0  0  0  0  0
   63.6637   32.8566   49.5950 H   0  0  0  0  0  0  0  0  0  0  0  0
   65.1859   33.3466   47.5350 H   0  0  0  0  0  0  0  0  0  0  0  0
   63.8248   34.0895   45.4048 H   0  0  0  0  0  0  0  0  0  0  0  0
   59.4210   30.5790   48.0100 H   0  0  0  0  0  0  0  0  0  0  0  0
   58.5721   34.1615   47.8079 H   0  0  0  0  0  0  0  0  0  0  0  0
   57.4550   35.2641   45.8756 H   0  0  0  0  0  0  0  0  0  0  0  0
   56.9361   33.9561   43.8176 H   0  0  0  0  0  0  0  0  0  0  0  0
   57.5978   31.5602   43.6594 H   0  0  0  0  0  0  0  0  0  0  0  0
   59.0486   29.6052   46.4724 H   0  0  0  0  0  0  0  0  0  0  0  0
   58.1393   29.5035   44.9266 H   0  0  0  0  0  0  0  0  0  0  0  0
   59.8536   30.0401   44.9266 H   0  0  0  0  0  0  0  0  0  0  0  0
   57.2709   31.1904   49.9905 H   0  0  0  0  0  0  0  0  0  0  0  0
  1  2  1  0
  2  3  1  0
  3  4  2  0
  4  5  1  0
  5  6  2  0
  6  7  1  0
  7  8  1  0
  8  9  2  0
  9 10  1  0
 10 11  2  0
 11 12  1  0
  7 13  2  0
 13 14  1  0
 14 15  1  0
 15 16  2  0
 16 17  1  0
 17 18  2  0
 18 19  1  0
 19 20  2  0
 20 21  1  0
 13 22  1  0
 22 23  1  0
 23  2  2  0
 22  5  1  0
 12  8  1  0
 20 15  1  0
  1 24  1  0
  1 25  1  0
  1 26  1  0
  3 27  1  0
  4 28  1  0
  6 29  1  0
  9 30  1  0
 10 31  1  0
 11 32  1  0
 14 33  1  0
 16 34  1  0
 17 35  1  0
 18 36  1  0
 19 37  1  0
 21 38  1  0
 21 39  1  0
 21 40  1  0
 23 41  1  0
M  CHG  1   6   1
M  END
>  <UniqueID>  (63) 
56

>  <SMILES>  (63) 
Cc1ccc2[nH+]c(-c3cccs3)c(Nc3ccccc3C)n2c1

>  <Energy>  (63) 
116.1966618833727

>  <Genealogy>  (63) 
Cc1ccc2[nH+]c(-c3cccs3)c(Nc3ccccc3C)n2c1 (protonated)
Cc1ccc2[nH+]c(-c3cccs3)c(Nc3ccccc3C)n2c1 (3D coordinates assigned)
Cc1ccc2[nH+]c(-c3cccs3)c(Nc3ccccc3C)n2c1 (optimized conformer: 116.1966618833727 kcal/mol)

>  <smiles>  (63) 
Cc1ccc2nc(-c3cccs3)c(Nc3ccccc3C)n2c1

>  <score_type>  (63) 
oracle

>  <origin>  (63) 
adg

>  <m_score__min__energy>  (63) 
-5.9400000000000004

>  <m_primary>  (63) 
energy

$$$$
63:0
     RDKit          3D

 41 43  0  0  0  0  0  0  0  0999 V2000
   59.7180   27.9650   46.7370 C   0  0  0  0  0  0  0  0  0  0  0  0
   59.0030   28.4840   45.7270 C   0  0  0  0  0  0  0  0  0  0  0  0
   58.0470   27.8230   44.9380 C   0  0  0  0  0  0  0  0  0  0  0  0
   57.7410   26.5160   44.8260 C   0  0  0  0  0  0  0  0  0  0  0  0
   57.2560   25.6520   45.9140 C   0  0  0  0  0  0  0  0  0  0  0  0
   57.9750   24.6720   46.4940 N   0  0  0  0  0  0  0  0  0  0  0  0
   57.0830   24.0760   47.3150 C   0  0  0  0  0  0  0  0  0  0  0  0
   57.3870   23.1050   48.0560 O   0  0  0  0  0  0  0  0  0  0  0  0
   55.8380   24.5960   47.2720 N   0  0  0  0  0  0  0  0  0  0  0  0
   55.9620   25.5820   46.3690 C   0  0  0  0  0  0  0  0  0  0  0  0
   54.9150   26.4010   45.9620 O   0  0  0  0  0  0  0  0  0  0  0  0
   57.4120   28.8060   44.1970 C   0  0  0  0  0  0  0  0  0  0  0  0
   58.0210   30.0010   44.5120 C   0  0  0  0  0  0  0  0  0  0  0  0
   57.6520   31.2960   43.9140 C   0  0  0  0  0  0  0  0  0  0  0  0
   57.1690   31.3070   42.7500 O   0  0  0  0  0  0  0  0  0  0  0  0
   57.8040   32.5300   44.6430 N   0  0  0  0  0  0  0  0  0  0  0  0
   58.8040   33.5120   44.2110 C   0  0  0  0  0  0  0  0  0  0  0  0
   57.1040   32.7230   45.9180 C   0  0  0  0  0  0  0  0  0  0  0  0
   58.0510   33.2200   46.9660 C   0  0  0  0  0  0  0  0  0  0  0  0
   58.7090   34.4430   46.9540 C   0  0  0  0  0  0  0  0  0  0  0  0
   59.5800   34.6090   48.0380 C   0  0  0  0  0  0  0  0  0  0  0  0
   59.6170   33.5200   48.8970 C   0  0  0  0  0  0  0  0  0  0  0  0
   58.5670   32.3460   48.3070 S   0  0  0  0  0  0  0  0  0  0  0  0
   59.0060   29.8060   45.4200 N   0  0  0  0  0  0  0  0  0  0  0  0
   59.9110   30.8270   45.9620 C   0  0  0  0  0  0  0  0  0  0  0  0
   60.4400   28.5931   47.2794 H   0  0  0  0  0  0  0  0  0  0  0  0
   59.5821   26.9114   47.0225 H   0  0  0  0  0  0  0  0  0  0  0  0
   57.8644   26.0544   43.8352 H   0  0  0  0  0  0  0  0  0  0  0  0
   54.0070   26.3370   46.4060 H   0  0  0  0  0  0  0  0  0  0  0  0
   56.5804   28.6604   43.4918 H   0  0  0  0  0  0  0  0  0  0  0  0
   59.2720   33.9715   45.0941 H   0  0  0  0  0  0  0  0  0  0  0  0
   59.5743   33.0097   43.6075 H   0  0  0  0  0  0  0  0  0  0  0  0
   58.3157   34.2913   43.6075 H   0  0  0  0  0  0  0  0  0  0  0  0
   56.2977   33.4585   45.7806 H   0  0  0  0  0  0  0  0  0  0  0  0
   56.6864   31.7590   46.2441 H   0  0  0  0  0  0  0  0  0  0  0  0
   58.5612   35.2034   46.1730 H   0  0  0  0  0  0  0  0  0  0  0  0
   60.1791   35.5182   48.1939 H   0  0  0  0  0  0  0  0  0  0  0  0
   60.2283   33.4384   49.8078 H   0  0  0  0  0  0  0  0  0  0  0  0
   59.8831   30.7955   47.0612 H   0  0  0  0  0  0  0  0  0  0  0  0
   60.9361   30.6295   45.6155 H   0  0  0  0  0  0  0  0  0  0  0  0
   59.5919   31.8210   45.6155 H   0  0  0  0  0  0  0  0  0  0  0  0
  1  2  2  0
  2  3  1  0
  3  4  2  3
  4  5  1  0
  5  6  1  0
  6  7  1  0
  7  8  2  0
  7  9  1  0
  9 10  1  0
 10 11  1  0
  3 12  1  0
 12 13  2  0
 13 14  1  0
 14 15  2  0
 14 16  1  0
 16 17  1  0
 16 18  1  0
 18 19  1  0
 19 20  2  0
 20 21  1  0
 21 22  2  0
 22 23  1  0
 13 24  1  0
 24 25  1  0
 24  2  1  0
 10  5  2  0
 23 19  1  0
  1 26  1  0
  1 27  1  0
  4 28  1  0
 11 29  1  0
 12 30  1  0
 17 31  1  0
 17 32  1  0
 17 33  1  0
 18 34  1  0
 18 35  1  0
 20 36  1  0
 21 37  1  0
 22 38  1  0
 25 39  1  0
 25 40  1  0
 25 41  1  0
M  CHG  2   6  -1   9  -1
M  END
>  <UniqueID>  (64) 
57

>  <SMILES>  (64) 
C=c1c(=Cc2[n-]c(=O)[n-]c2O)cc(C(=O)N(C)Cc2cccs2)n1C

>  <Energy>  (64) 
139.83223567847617

>  <Genealogy>  (64) 
C=c1c(=Cc2[n-]c(=O)[n-]c2O)cc(C(=O)N(C)Cc2cccs2)n1C (protonated)
C=c1c(=Cc2[n-]c(=O)[n-]c2O)cc(C(=O)N(C)Cc2cccs2)n1C (3D coordinates assigned)
C=c1c(=Cc2[n-]c(=O)[n-]c2O)cc(C(=O)N(C)Cc2cccs2)n1C (optimized conformer: 139.83223567847617 kcal/mol)

>  <smiles>  (64) 
C=c1c(=Cc2[nH]c(=O)[nH]c2O)cc(C(=O)N(C)Cc2cccs2)n1C

>  <score_type>  (64) 
oracle

>  <origin>  (64) 
adg

>  <m_score__min__energy>  (64) 
-12.050000000000001

>  <m_primary>  (64) 
energy

$$$$
64:0
     RDKit          3D

 84 89  0  0  0  0  0  0  0  0999 V2000
   57.1795   32.2559   43.6742 H   0  0  0  0  0  0  0  0  0  0  0  0
   57.3100   31.2640   43.2170 C   0  0  0  0  0  0  0  0  0  0  0  0
   57.2264   31.1457   42.1266 H   0  0  0  0  0  0  0  0  0  0  0  0
   57.5700   30.2030   43.9860 C   0  0  0  0  0  0  0  0  0  0  0  0
   57.8540   30.1710   45.3650 C   0  0  0  0  0  0  0  0  0  0  0  0
   57.7630   31.1470   46.2950 C   0  0  0  0  0  0  0  0  0  0  0  0
   57.1730   30.9310   47.1979 H   0  0  0  0  0  0  0  0  0  0  0  0
   58.3920   32.4820   46.1980 C   0  0  0  0  0  0  0  0  0  0  0  0
   59.6220   32.7260   46.8310 C   0  0  0  0  0  0  0  0  0  0  0  0
   60.1900   31.7040   47.5810 O   0  0  0  0  0  0  0  0  0  0  0  0
   60.2520   33.9440   46.7000 N   0  0  0  0  0  0  0  0  0  0  0  0
   61.5830   34.2090   47.3190 C   0  0  0  0  0  0  0  0  0  0  0  0
   61.7810   35.2824   47.1826 H   0  0  0  0  0  0  0  0  0  0  0  0
   61.5560   33.9210   48.8260 C   0  0  0  0  0  0  0  0  0  0  0  0
   60.9117   34.6555   49.3314 H   0  0  0  0  0  0  0  0  0  0  0  0
   61.1585   32.9114   49.0068 H   0  0  0  0  0  0  0  0  0  0  0  0
   62.9870   34.0250   49.3750 C   0  0  0  0  0  0  0  0  0  0  0  0
   63.3868   35.0192   49.1266 H   0  0  0  0  0  0  0  0  0  0  0  0
   62.9360   33.8641   50.4620 H   0  0  0  0  0  0  0  0  0  0  0  0
   63.8980   32.9940   48.8140 N   0  0  0  0  0  0  0  0  0  0  0  0
   64.1150   31.9030   49.7980 C   0  0  0  0  0  0  0  0  0  0  0  0
   63.3312   31.9575   50.5678 H   0  0  0  0  0  0  0  0  0  0  0  0
   64.0757   30.9451   49.2587 H   0  0  0  0  0  0  0  0  0  0  0  0
   65.4660   32.0080   50.4680 C   0  0  0  0  0  0  0  0  0  0  0  0
   65.9050   31.0050   51.3500 C   0  0  0  0  0  0  0  0  0  0  0  0
   65.2681   30.1302   51.5475 H   0  0  0  0  0  0  0  0  0  0  0  0
   67.1530   31.1180   51.9780 C   0  0  0  0  0  0  0  0  0  0  0  0
   67.4897   30.3373   52.6760 H   0  0  0  0  0  0  0  0  0  0  0  0
   67.9700   32.2220   51.7180 C   0  0  0  0  0  0  0  0  0  0  0  0
   68.9537   32.3029   52.2036 H   0  0  0  0  0  0  0  0  0  0  0  0
   67.5410   33.2220   50.8440 C   0  0  0  0  0  0  0  0  0  0  0  0
   68.1851   34.0910   50.6439 H   0  0  0  0  0  0  0  0  0  0  0  0
   66.2890   33.1190   50.2210 C   0  0  0  0  0  0  0  0  0  0  0  0
   65.9503   33.9108   49.5367 H   0  0  0  0  0  0  0  0  0  0  0  0
   63.4760   32.4550   47.4940 C   0  0  0  0  0  0  0  0  0  0  0  0
   64.3704   32.0975   46.9627 H   0  0  0  0  0  0  0  0  0  0  0  0
   62.7551   31.6480   47.6915 H   0  0  0  0  0  0  0  0  0  0  0  0
   62.7600   33.4920   46.6010 C   0  0  0  0  0  0  0  0  0  0  0  0
   63.4932   34.2503   46.2889 H   0  0  0  0  0  0  0  0  0  0  0  0
   62.3373   32.9485   45.7432 H   0  0  0  0  0  0  0  0  0  0  0  0
   59.6030   34.9550   46.0260 C   0  0  0  0  0  0  0  0  0  0  0  0
   60.1210   36.1000   45.9220 O   0  0  0  0  0  0  0  0  0  0  0  0
   58.3820   34.7450   45.4720 N   0  0  0  0  0  0  0  0  0  0  0  0
   57.7610   33.5470   45.5460 C   0  0  0  0  0  0  0  0  0  0  0  0
   56.6190   33.4060   45.0270 O   0  0  0  0  0  0  0  0  0  0  0  0
   58.2910   28.8710   45.6240 C   0  0  0  0  0  0  0  0  0  0  0  0
   58.8360   28.3490   46.8970 C   0  0  0  0  0  0  0  0  0  0  0  0
   58.5020   27.1990   47.2910 O   0  0  0  0  0  0  0  0  0  0  0  0
   59.7470   29.1530   47.6670 N   0  0  0  0  0  0  0  0  0  0  0  0
   60.1180   30.0230   47.2270 H   0  0  0  0  0  0  0  0  0  0  0  0
   60.2170   28.8370   48.9920 C   0  0  0  0  0  0  0  0  0  0  0  0
   60.5740   27.5130   49.2850 C   0  0  0  0  0  0  0  0  0  0  0  0
   60.4446   26.7315   48.5218 H   0  0  0  0  0  0  0  0  0  0  0  0
   61.0930   27.1780   50.5390 C   0  0  0  0  0  0  0  0  0  0  0  0
   61.3645   26.1354   50.7611 H   0  0  0  0  0  0  0  0  0  0  0  0
   61.2670   28.1680   51.5110 C   0  0  0  0  0  0  0  0  0  0  0  0
   61.6702   27.9007   52.4989 H   0  0  0  0  0  0  0  0  0  0  0  0
   60.9300   29.4990   51.2320 C   0  0  0  0  0  0  0  0  0  0  0  0
   61.2230   30.7390   52.4550 S   0  0  0  0  0  0  0  0  0  0  0  0
   61.9880   31.8650   51.8110 O   0  0  0  0  0  0  0  0  0  0  0  0
   62.0500   30.1780   53.5810 O   0  0  0  0  0  0  0  0  0  0  0  0
   59.6940   31.3420   53.0570 N   0  0  0  0  0  0  0  0  0  0  0  0
   59.5510   32.7900   52.8160 C   0  0  0  0  0  0  0  0  0  0  0  0
   58.7462   33.1763   53.4587 H   0  0  0  0  0  0  0  0  0  0  0  0
   60.5169   33.2631   53.0467 H   0  0  0  0  0  0  0  0  0  0  0  0
   59.2080   33.1180   51.3390 C   0  0  0  0  0  0  0  0  0  0  0  0
   58.4733   33.9366   51.3269 H   0  0  0  0  0  0  0  0  0  0  0  0
   60.1512   33.3923   50.8439 H   0  0  0  0  0  0  0  0  0  0  0  0
   58.6670   32.0200   50.6200 O   0  0  0  0  0  0  0  0  0  0  0  0
   57.7730   31.2960   51.4360 C   0  0  0  0  0  0  0  0  0  0  0  0
   57.0567   31.9917   51.8975 H   0  0  0  0  0  0  0  0  0  0  0  0
   57.2358   30.5613   50.8183 H   0  0  0  0  0  0  0  0  0  0  0  0
   58.5470   30.5560   52.5400 C   0  0  0  0  0  0  0  0  0  0  0  0
   57.8594   30.3467   53.3727 H   0  0  0  0  0  0  0  0  0  0  0  0
   58.9478   29.6298   52.1025 H   0  0  0  0  0  0  0  0  0  0  0  0
   60.4240   29.8360   49.9660 C   0  0  0  0  0  0  0  0  0  0  0  0
   60.1878   30.8847   49.7327 H   0  0  0  0  0  0  0  0  0  0  0  0
   58.1650   28.1630   44.4360 C   0  0  0  0  0  0  0  0  0  0  0  0
   58.4820   26.7150   44.2210 C   0  0  0  0  0  0  0  0  0  0  0  0
   58.5914   26.2151   45.1947 H   0  0  0  0  0  0  0  0  0  0  0  0
   57.6663   26.2412   43.6552 H   0  0  0  0  0  0  0  0  0  0  0  0
   59.4210   26.6253   43.6552 H   0  0  0  0  0  0  0  0  0  0  0  0
   57.7350   28.9740   43.4540 N   0  0  0  0  0  0  0  0  0  0  0  0
   57.6170   28.7100   42.4450 H   0  0  0  0  0  0  0  0  0  0  0  0
  1  2  1  0
  2  3  1  0
  2  4  2  0
  4  5  1  0
  5  6  2  0
  6  7  1  0
  6  8  1  0
  8  9  2  0
  9 10  1  0
  9 11  1  0
 11 12  1  0
 12 13  1  0
 12 14  1  0
 14 15  1  0
 14 16  1  0
 14 17  1  0
 17 18  1  0
 17 19  1  0
 17 20  1  0
 20 21  1  0
 21 22  1  0
 21 23  1  0
 21 24  1  0
 24 25  2  0
 25 26  1  0
 25 27  1  0
 27 28  1  0
 27 29  2  0
 29 30  1  0
 29 31  1  0
 31 32  1  0
 31 33  2  0
 33 34  1  0
 20 35  1  0
 35 36  1  0
 35 37  1  0
 35 38  1  0
 38 39  1  0
 38 40  1  0
 11 41  1  0
 41 42  2  0
 41 43  1  0
 43 44  1  0
 44 45  2  0
  5 46  1  0
 46 47  1  0
 47 48  2  0
 47 49  1  0
 49 50  1  0
 49 51  1  0
 51 52  2  0
 52 53  1  0
 52 54  1  0
 54 55  1  0
 54 56  2  0
 56 57  1  0
 56 58  1  0
 58 59  1  0
 59 60  2  0
 59 61  2  0
 59 62  1  0
 62 63  1  0
 63 64  1  0
 63 65  1  0
 63 66  1  0
 66 67  1  0
 66 68  1  0
 66 69  1  0
 69 70  1  0
 70 71  1  0
 70 72  1  0
 70 73  1  0
 73 74  1  0
 73 75  1  0
 58 76  2  0
 76 77  1  0
 46 78  2  0
 78 79  1  0
 79 80  1  0
 79 81  1  0
 79 82  1  0
 78 83  1  0
 83 84  1  0
 83  4  1  0
 44  8  1  0
 76 51  1  0
 38 12  1  0
 73 62  1  0
 33 24  1  0
M  CHG  2  10  -1  43  -1
M  END
>  <UniqueID>  (65) 
58

>  <SMILES>  (65) 
C=c1[nH]c(C)c(C(=O)Nc2cccc(S(=O)(=O)N3CCOCC3)c2)/c1=C/c1c([O-])n(C2CCN(Cc3ccccc3)CC2)c(=O)[n-]c1=O

>  <Energy>  (65) 
168.13614744162388

>  <Genealogy>  (65) 
C=c1[nH]c(C)c(C(=O)Nc2cccc(S(=O)(=O)N3CCOCC3)c2)c1=Cc1c([O-])n(C2CCN(Cc3ccccc3)CC2)c(=O)[n-]c1=O (protonated)
C=c1[nH]c(C)c(C(=O)Nc2cccc(S(=O)(=O)N3CCOCC3)c2)/c1=C/c1c([O-])n(C2CCN(Cc3ccccc3)CC2)c(=O)[n-]c1=O (cis-trans isomerization)
C=c1[nH]c(C)c(C(=O)Nc2cccc(S(=O)(=O)N3CCOCC3)c2)/c1=C/c1c([O-])n(C2CCN(Cc3ccccc3)CC2)c(=O)[n-]c1=O (3D coordinates assigned)
C=c1[nH]c(C)c(C(=O)Nc2cccc(S(=O)(=O)N3CCOCC3)c2)/c1=C/c1c([O-])n(C2CCN(Cc3ccccc3)CC2)c(=O)[n-]c1=O (nonaromatic ring conformer: 168.13614744162388 kcal/mol)

>  <smiles>  (65) 
C=c1[nH]c(C)c(C(=O)Nc2cccc(S(=O)(=O)N3CCOCC3)c2)c1=Cc1c(O)n(C2CCN(Cc3ccccc3)CC2)c(=O)[nH]c1=O

>  <score_type>  (65) 
oracle

>  <origin>  (65) 
adg

>  <m_score__min__energy>  (65) 
-13.800000000000001

>  <m_primary>  (65) 
energy

$$$$
65:0
     RDKit          3D

 41 42  0  0  0  0  0  0  0  0999 V2000
   59.2940   34.4500   48.2190 C   0  0  0  0  0  0  0  0  0  0  0  0
   60.0820   34.3610   46.9870 N   0  0  0  0  0  0  0  0  0  0  0  0
   59.4880   34.7040   45.6920 C   0  0  0  0  0  0  0  0  0  0  0  0
   61.4520   33.9250   47.0480 C   0  0  0  0  0  0  0  0  0  0  0  0
   62.1380   33.8460   45.9910 O   0  0  0  0  0  0  0  0  0  0  0  0
   62.0430   33.5870   48.3100 N   0  0  0  0  0  0  0  0  0  0  0  0
   63.0330   32.5290   48.4900 C   0  0  0  0  0  0  0  0  0  0  0  0
   62.4070   31.3120   49.1670 C   0  0  0  0  0  0  0  0  0  0  0  0
   60.9960   31.3130   48.9660 O   0  0  0  0  0  0  0  0  0  0  0  0
   60.3400   30.6200   47.9370 C   0  0  0  0  0  0  0  0  0  0  0  0
   60.6370   29.2660   47.7540 C   0  0  0  0  0  0  0  0  0  0  0  0
   60.0110   28.5310   46.7440 C   0  0  0  0  0  0  0  0  0  0  0  0
   59.0760   29.1450   45.8960 C   0  0  0  0  0  0  0  0  0  0  0  0
   58.3750   28.3460   44.8290 C   0  0  0  0  0  0  0  0  0  0  0  0
   57.5210   27.2640   45.4500 C   0  0  0  0  0  0  0  0  0  0  0  0
   56.1360   27.4430   45.6230 C   0  0  0  0  0  0  0  0  0  0  0  0
   55.5220   28.6360   45.2620 O   0  0  0  0  0  0  0  0  0  0  0  0
   55.3820   26.4440   46.1520 N   0  0  0  0  0  0  0  0  0  0  0  0
   55.9390   25.2620   46.5180 C   0  0  0  0  0  0  0  0  0  0  0  0
   55.2210   24.3530   47.0060 O   0  0  0  0  0  0  0  0  0  0  0  0
   57.2710   25.0610   46.3550 N   0  0  0  0  0  0  0  0  0  0  0  0
   58.0710   26.0250   45.8320 C   0  0  0  0  0  0  0  0  0  0  0  0
   59.3020   25.7970   45.6960 O   0  0  0  0  0  0  0  0  0  0  0  0
   58.7720   30.5030   46.0800 C   0  0  0  0  0  0  0  0  0  0  0  0
   59.3990   31.2380   47.0910 C   0  0  0  0  0  0  0  0  0  0  0  0
   59.9633   34.3744   49.0886 H   0  0  0  0  0  0  0  0  0  0  0  0
   58.7643   35.4137   48.2467 H   0  0  0  0  0  0  0  0  0  0  0  0
   58.5627   33.6287   48.2467 H   0  0  0  0  0  0  0  0  0  0  0  0
   58.5457   35.2481   45.8534 H   0  0  0  0  0  0  0  0  0  0  0  0
   60.1853   35.3385   45.1253 H   0  0  0  0  0  0  0  0  0  0  0  0
   59.2871   33.7829   45.1253 H   0  0  0  0  0  0  0  0  0  0  0  0
   63.4268   32.2322   47.5067 H   0  0  0  0  0  0  0  0  0  0  0  0
   63.8445   32.9095   49.1278 H   0  0  0  0  0  0  0  0  0  0  0  0
   62.8355   30.3951   48.7360 H   0  0  0  0  0  0  0  0  0  0  0  0
   62.6175   31.3515   50.2459 H   0  0  0  0  0  0  0  0  0  0  0  0
   61.3700   28.7751   48.4110 H   0  0  0  0  0  0  0  0  0  0  0  0
   60.2521   27.4658   46.6127 H   0  0  0  0  0  0  0  0  0  0  0  0
   57.7349   29.0166   44.2369 H   0  0  0  0  0  0  0  0  0  0  0  0
   59.1313   27.8748   44.1841 H   0  0  0  0  0  0  0  0  0  0  0  0
   58.0360   30.9920   45.4249 H   0  0  0  0  0  0  0  0  0  0  0  0
   59.1564   32.3024   47.2259 H   0  0  0  0  0  0  0  0  0  0  0  0
  1  2  1  0
  2  3  1  0
  2  4  1  0
  4  5  2  0
  4  6  1  0
  6  7  1  0
  7  8  1  0
  8  9  1  0
  9 10  1  0
 10 11  2  0
 11 12  1  0
 12 13  2  0
 13 14  1  0
 14 15  1  0
 15 16  2  0
 16 17  1  0
 16 18  1  0
 18 19  1  0
 19 20  2  0
 19 21  1  0
 21 22  1  0
 22 23  2  0
 13 24  1  0
 24 25  2  0
 25 10  1  0
 22 15  1  0
  1 26  1  0
  1 27  1  0
  1 28  1  0
  3 29  1  0
  3 30  1  0
  3 31  1  0
  7 32  1  0
  7 33  1  0
  8 34  1  0
  8 35  1  0
 11 36  1  0
 12 37  1  0
 14 38  1  0
 14 39  1  0
 24 40  1  0
 25 41  1  0
M  CHG  4   6  -1  17  -1  18  -1  21  -1
M  END
>  <UniqueID>  (66) 
59

>  <SMILES>  (66) 
CN(C)C(=O)[N-]CCOc1ccc(Cc2c([O-])[n-]c(=O)[n-]c2=O)cc1

>  <Energy>  (66) 
35.245322429094124

>  <Genealogy>  (66) 
CN(C)C(=O)[N-]CCOc1ccc(Cc2c([O-])[n-]c(=O)[n-]c2=O)cc1 (protonated)
CN(C)C(=O)[N-]CCOc1ccc(Cc2c([O-])[n-]c(=O)[n-]c2=O)cc1 (3D coordinates assigned)
CN(C)C(=O)[N-]CCOc1ccc(Cc2c([O-])[n-]c(=O)[n-]c2=O)cc1 (optimized conformer: 35.245322429094124 kcal/mol)

>  <smiles>  (66) 
CN(C)C(=O)NCCOc1ccc(Cc2c(O)[nH]c(=O)[nH]c2=O)cc1

>  <score_type>  (66) 
oracle

>  <origin>  (66) 
adg

>  <m_score__min__energy>  (66) 
-15.039999999999999

>  <m_primary>  (66) 
energy

$$$$
66:0
     RDKit          3D

 57 60  0  0  0  0  0  0  0  0999 V2000
   57.7400   29.7600   46.2130 C   0  0  0  0  0  0  0  0  0  0  0  0
   58.6490   29.1510   46.9870 C   0  0  0  0  0  0  0  0  0  0  0  0
   58.8990   27.7710   47.0860 C   0  0  0  0  0  0  0  0  0  0  0  0
   58.4760   26.7420   46.3260 C   0  0  0  0  0  0  0  0  0  0  0  0
   57.1120   26.1950   46.3010 C   0  0  0  0  0  0  0  0  0  0  0  0
   56.8190   24.9300   46.6490 N   0  0  0  0  0  0  0  0  0  0  0  0
   55.5060   24.8160   46.3550 C   0  0  0  0  0  0  0  0  0  0  0  0
   54.8550   23.7570   46.5580 O   0  0  0  0  0  0  0  0  0  0  0  0
   54.9460   25.9240   45.8180 N   0  0  0  0  0  0  0  0  0  0  0  0
   55.9800   26.7820   45.7770 C   0  0  0  0  0  0  0  0  0  0  0  0
   55.9010   28.0660   45.2450 O   0  0  0  0  0  0  0  0  0  0  0  0
   59.7420   27.6070   48.1740 C   0  0  0  0  0  0  0  0  0  0  0  0
   60.0250   28.8700   48.6560 C   0  0  0  0  0  0  0  0  0  0  0  0
   60.9430   29.1690   49.8000 C   0  0  0  0  0  0  0  0  0  0  0  0
   59.3700   29.8030   47.9330 N   0  0  0  0  0  0  0  0  0  0  0  0
   59.4220   31.2230   48.1450 C   0  0  0  0  0  0  0  0  0  0  0  0
   58.5930   31.7550   48.9290 O   0  0  0  0  0  0  0  0  0  0  0  0
   60.4710   32.0150   47.5510 N   0  0  0  0  0  0  0  0  0  0  0  0
   61.7890   31.4200   47.3030 C   0  0  0  0  0  0  0  0  0  0  0  0
   62.7700   31.9560   48.3520 C   0  0  0  0  0  0  0  0  0  0  0  0
   62.5750   33.4040   48.5740 N   0  0  0  0  0  0  0  0  0  0  0  0
   63.1450   34.0650   49.7310 C   0  0  0  0  0  0  0  0  0  0  0  0
   63.0120   35.3160   49.8630 O   0  0  0  0  0  0  0  0  0  0  0  0
   63.8270   33.2890   50.8400 C   0  0  2  0  0  0  0  0  0  0  0  0
   63.8250   34.0970   52.1400 C   0  0  0  0  0  0  0  0  0  0  0  0
   65.2050   34.7060   52.2120 C   0  0  0  0  0  0  0  0  0  0  0  0
   66.0830   33.7100   51.4770 C   0  0  0  0  0  0  0  0  0  0  0  0
   65.2390   33.0350   50.4750 N   0  0  0  0  0  0  0  0  0  0  0  0
   65.5440   31.5950   50.3900 C   0  0  0  0  0  0  0  0  0  0  0  0
   61.7350   34.1540   47.6200 C   0  0  0  0  0  0  0  0  0  0  0  0
   60.3540   33.4850   47.5100 C   0  0  0  0  0  0  0  0  0  0  0  0
   57.6476   30.8560   46.2315 H   0  0  0  0  0  0  0  0  0  0  0  0
   57.0863   29.1639   45.5593 H   0  0  0  0  0  0  0  0  0  0  0  0
   59.2176   26.2691   45.6653 H   0  0  0  0  0  0  0  0  0  0  0  0
   55.9560   28.2120   44.2430 H   0  0  0  0  0  0  0  0  0  0  0  0
   60.1144   26.6534   48.5765 H   0  0  0  0  0  0  0  0  0  0  0  0
   60.4143   28.9968   50.7491 H   0  0  0  0  0  0  0  0  0  0  0  0
   61.8228   28.5110   49.7458 H   0  0  0  0  0  0  0  0  0  0  0  0
   61.2665   30.2190   49.7458 H   0  0  0  0  0  0  0  0  0  0  0  0
   61.7226   30.3249   47.3825 H   0  0  0  0  0  0  0  0  0  0  0  0
   62.1369   31.6823   46.2930 H   0  0  0  0  0  0  0  0  0  0  0  0
   62.6085   31.4225   49.3003 H   0  0  0  0  0  0  0  0  0  0  0  0
   63.7947   31.7941   47.9862 H   0  0  0  0  0  0  0  0  0  0  0  0
   63.2805   32.3447   50.9802 H   0  0  0  0  0  0  0  0  0  0  0  0
   63.0552   34.8821   52.1081 H   0  0  0  0  0  0  0  0  0  0  0  0
   63.5974   33.4744   53.0178 H   0  0  0  0  0  0  0  0  0  0  0  0
   65.2260   35.6872   51.7153 H   0  0  0  0  0  0  0  0  0  0  0  0
   65.5373   34.8821   53.2457 H   0  0  0  0  0  0  0  0  0  0  0  0
   66.9114   34.2349   50.9788 H   0  0  0  0  0  0  0  0  0  0  0  0
   66.5134   32.9798   52.1781 H   0  0  0  0  0  0  0  0  0  0  0  0
   65.6322   31.1784   51.4042 H   0  0  0  0  0  0  0  0  0  0  0  0
   64.7350   31.0800   49.8512 H   0  0  0  0  0  0  0  0  0  0  0  0
   66.4923   31.4522   49.8512 H   0  0  0  0  0  0  0  0  0  0  0  0
   61.6134   35.1883   47.9742 H   0  0  0  0  0  0  0  0  0  0  0  0
   62.2187   34.1570   46.6320 H   0  0  0  0  0  0  0  0  0  0  0  0
   59.7253   33.8188   48.3486 H   0  0  0  0  0  0  0  0  0  0  0  0
   59.9020   33.7728   46.5493 H   0  0  0  0  0  0  0  0  0  0  0  0
  1  2  2  0
  2  3  1  0
  3  4  2  3
  4  5  1  0
  5  6  1  0
  6  7  1  0
  7  8  2  0
  7  9  1  0
  9 10  1  0
 10 11  1  0
  3 12  1  0
 12 13  2  0
 13 14  1  0
 13 15  1  0
 15 16  1  0
 16 17  2  0
 16 18  1  0
 18 19  1  0
 19 20  1  0
 20 21  1  0
 21 22  1  0
 22 23  2  0
 22 24  1  0
 24 25  1  0
 25 26  1  0
 26 27  1  0
 27 28  1  0
 28 29  1  0
 21 30  1  0
 30 31  1  0
 15  2  1  0
 31 18  1  0
 10  5  2  0
 28 24  1  0
  1 32  1  0
  1 33  1  0
  4 34  1  0
 11 35  1  0
 12 36  1  0
 14 37  1  0
 14 38  1  0
 14 39  1  0
 19 40  1  0
 19 41  1  0
 20 42  1  0
 20 43  1  0
 24 44  1  1
 25 45  1  0
 25 46  1  0
 26 47  1  0
 26 48  1  0
 27 49  1  0
 27 50  1  0
 29 51  1  0
 29 52  1  0
 29 53  1  0
 30 54  1  0
 30 55  1  0
 31 56  1  0
 31 57  1  0
M  CHG  2   6  -1   9  -1
M  END
>  <UniqueID>  (67) 
60

>  <SMILES>  (67) 
C=c1c(=Cc2[n-]c(=O)[n-]c2O)cc(C)n1C(=O)N1CCN(C(=O)[C@@H]2CCCN2C)CC1

>  <Energy>  (67) 
139.29267853035256

>  <Genealogy>  (67) 
C=c1c(=Cc2[n-]c(=O)[n-]c2O)cc(C)n1C(=O)N1CCN(C(=O)C2CCCN2C)CC1 (protonated)
C=c1c(=Cc2[n-]c(=O)[n-]c2O)cc(C)n1C(=O)N1CCN(C(=O)[C@@H]2CCCN2C)CC1 (chirality)
C=c1c(=Cc2[n-]c(=O)[n-]c2O)cc(C)n1C(=O)N1CCN(C(=O)[C@@H]2CCCN2C)CC1 (3D coordinates assigned)
C=c1c(=Cc2[n-]c(=O)[n-]c2O)cc(C)n1C(=O)N1CCN(C(=O)[C@@H]2CCCN2C)CC1 (nonaromatic ring conformer: 139.29267853035256 kcal/mol)

>  <smiles>  (67) 
C=c1c(=Cc2[nH]c(=O)[nH]c2O)cc(C)n1C(=O)N1CCN(C(=O)C2CCCN2C)CC1

>  <score_type>  (67) 
oracle

>  <origin>  (67) 
adg

>  <m_score__min__energy>  (67) 
-12.949999999999999

>  <m_primary>  (67) 
energy

$$$$
67:0
     RDKit          3D

 33 34  0  0  0  0  0  0  0  0999 V2000
   54.4530   24.4410   47.1570 H   0  0  0  0  0  0  0  0  0  0  0  0
   55.4310   24.1800   47.1620 O   0  0  0  0  0  0  0  0  0  0  0  0
   56.4300   25.0410   46.7090 C   0  0  0  0  0  0  0  0  0  0  0  0
   57.7690   24.6620   46.8410 C   0  0  0  0  0  0  0  0  0  0  0  0
   58.0202   23.6941   47.2992 H   0  0  0  0  0  0  0  0  0  0  0  0
   58.7900   25.5040   46.3950 C   0  0  0  0  0  0  0  0  0  0  0  0
   59.8404   25.1992   46.5127 H   0  0  0  0  0  0  0  0  0  0  0  0
   58.4830   26.7420   45.7950 C   0  0  0  0  0  0  0  0  0  0  0  0
   59.5290   27.6800   45.3160 C   0  0  0  0  0  0  0  0  0  0  0  0
   60.3081   27.2917   44.6435 H   0  0  0  0  0  0  0  0  0  0  0  0
   59.5750   28.9780   45.6600 C   0  0  0  0  0  0  0  0  0  0  0  0
   60.4505   29.3296   46.2255 H   0  0  0  0  0  0  0  0  0  0  0  0
   58.5230   29.9660   45.3270 C   0  0  0  0  0  0  0  0  0  0  0  0
   58.6090   31.2000   45.8910 N   0  0  0  0  0  0  0  0  0  0  0  0
   57.6900   32.1720   45.6350 C   0  0  0  0  0  0  0  0  0  0  0  0
   57.7840   33.3440   46.1900 N   0  0  0  0  0  0  0  0  0  0  0  0
   58.8070   33.7250   47.1650 C   0  0  0  0  0  0  0  0  0  0  0  0
   59.6150   32.9787   47.1499 H   0  0  0  0  0  0  0  0  0  0  0  0
   58.3441   33.7690   48.1619 H   0  0  0  0  0  0  0  0  0  0  0  0
   59.3790   35.0770   46.8400 C   0  0  0  0  0  0  0  0  0  0  0  0
   59.5763   35.7870   47.6567 H   0  0  0  0  0  0  0  0  0  0  0  0
   59.6530   35.4360   45.5840 C   0  0  0  0  0  0  0  0  0  0  0  0
   60.0711   36.4318   45.3754 H   0  0  0  0  0  0  0  0  0  0  0  0
   59.4607   34.7360   44.7575 H   0  0  0  0  0  0  0  0  0  0  0  0
   56.6600   31.9170   44.7890 N   0  0  0  0  0  0  0  0  0  0  0  0
   56.5320   30.7070   44.1880 C   0  0  0  0  0  0  0  0  0  0  0  0
   55.5720   30.4980   43.4010 O   0  0  0  0  0  0  0  0  0  0  0  0
   57.4650   29.6990   44.4400 C   0  0  0  0  0  0  0  0  0  0  0  0
   57.3742   28.7161   43.9545 H   0  0  0  0  0  0  0  0  0  0  0  0
   57.1360   27.1240   45.6820 C   0  0  0  0  0  0  0  0  0  0  0  0
   56.8818   28.0976   45.2375 H   0  0  0  0  0  0  0  0  0  0  0  0
   56.1140   26.2790   46.1290 C   0  0  0  0  0  0  0  0  0  0  0  0
   54.7890   26.6770   45.9930 O   0  0  0  0  0  0  0  0  0  0  0  0
  1  2  1  0
  2  3  1  0
  3  4  2  0
  4  5  1  0
  4  6  1  0
  6  7  1  0
  6  8  2  0
  8  9  1  0
  9 10  1  0
  9 11  2  0
 11 12  1  0
 11 13  1  0
 13 14  1  0
 14 15  1  0
 15 16  2  3
 16 17  1  0
 17 18  1  0
 17 19  1  0
 17 20  1  0
 20 21  1  0
 20 22  2  0
 22 23  1  0
 22 24  1  0
 15 25  1  0
 25 26  1  0
 26 27  2  0
 26 28  1  0
 28 29  1  0
  8 30  1  0
 30 31  1  0
 30 32  2  0
 32 33  1  0
 32  3  1  0
 28 13  2  0
M  CHG  3  14  -1  25  -1  33  -1
M  END
>  <UniqueID>  (68) 
61

>  <SMILES>  (68) 
C=CCN=c1[n-]c(/C=C/c2ccc(O)c([O-])c2)cc(=O)[n-]1

>  <Energy>  (68) 
36.09714309782377

>  <Genealogy>  (68) 
C=CCN=c1[n-]c(C=Cc2ccc(O)c([O-])c2)cc(=O)[n-]1 (protonated)
C=CCN=c1[n-]c(/C=C/c2ccc(O)c([O-])c2)cc(=O)[n-]1 (cis-trans isomerization)
C=CCN=c1[n-]c(/C=C/c2ccc(O)c([O-])c2)cc(=O)[n-]1 (3D coordinates assigned)
C=CCN=c1[n-]c(/C=C/c2ccc(O)c([O-])c2)cc(=O)[n-]1 (optimized conformer: 36.09714309782377 kcal/mol)

>  <smiles>  (68) 
C=CCN=c1[nH]c(C=Cc2ccc(O)c(O)c2)cc(=O)[nH]1

>  <score_type>  (68) 
oracle

>  <origin>  (68) 
adg

>  <m_score__min__energy>  (68) 
-13.51

>  <m_primary>  (68) 
energy

$$$$
68:0
     RDKit          3D

 54 56  0  0  0  0  0  0  0  0999 V2000
   55.2320   23.5500   43.7610 C   0  0  0  0  0  0  0  0  0  0  0  0
   56.5060   23.9120   44.5460 C   0  0  0  0  0  0  0  0  0  0  0  0
   57.3580   24.8660   43.6930 C   0  0  0  0  0  0  0  0  0  0  0  0
   57.3330   22.6490   44.8490 C   0  0  0  0  0  0  0  0  0  0  0  0
   56.1670   24.6260   45.7840 N   0  0  0  0  0  0  0  0  0  0  0  0
   56.2070   26.0300   46.0880 C   0  0  0  0  0  0  0  0  0  0  0  0
   55.1400   26.6940   46.0050 O   0  0  0  0  0  0  0  0  0  0  0  0
   57.4350   26.7330   46.4830 C   0  0  0  0  0  0  0  0  0  0  0  0
   58.4930   26.0120   47.0560 C   0  0  0  0  0  0  0  0  0  0  0  0
   59.6900   26.6560   47.3810 C   0  0  0  0  0  0  0  0  0  0  0  0
   59.8460   28.0190   47.1130 C   0  0  0  0  0  0  0  0  0  0  0  0
   58.8090   28.7370   46.5120 C   0  0  0  0  0  0  0  0  0  0  0  0
   57.6090   28.0960   46.1810 C   0  0  0  0  0  0  0  0  0  0  0  0
   56.5870   28.8230   45.5660 O   0  0  0  0  0  0  0  0  0  0  0  0
   56.8060   29.7930   44.5770 C   0  0  0  0  0  0  0  0  0  0  0  0
   56.4310   29.5020   43.2630 C   0  0  0  0  0  0  0  0  0  0  0  0
   56.6430   30.4470   42.2590 C   0  0  0  0  0  0  0  0  0  0  0  0
   57.2100   31.6440   42.5590 N   0  0  0  0  0  0  0  0  0  0  0  0
   57.5800   31.9690   43.8320 C   0  0  0  0  0  0  0  0  0  0  0  0
   58.1420   33.1110   44.0990 N   0  0  0  0  0  0  0  0  0  0  0  0
   57.9370   33.9010   45.2820 C   0  0  0  0  0  0  0  0  0  0  0  0
   56.7900   34.3730   45.5010 O   0  0  0  0  0  0  0  0  0  0  0  0
   59.0450   34.2430   46.1970 C   0  0  0  0  0  0  0  0  0  0  0  0
   58.9200   35.2140   46.9930 O   0  0  0  0  0  0  0  0  0  0  0  0
   60.2610   33.4760   46.1740 N   0  0  0  0  0  0  0  0  0  0  0  0
   61.2920   33.5760   47.1720 C   0  0  0  0  0  0  0  0  0  0  0  0
   60.9830   33.7700   48.5310 C   0  0  0  0  0  0  0  0  0  0  0  0
   62.0050   33.8400   49.4830 C   0  0  0  0  0  0  0  0  0  0  0  0
   63.3390   33.7040   49.0930 C   0  0  0  0  0  0  0  0  0  0  0  0
   64.3280   33.7730   50.0170 F   0  0  0  0  0  0  0  0  0  0  0  0
   63.6540   33.4890   47.7480 C   0  0  0  0  0  0  0  0  0  0  0  0
   62.6350   33.4160   46.7930 C   0  0  0  0  0  0  0  0  0  0  0  0
   57.3920   31.0400   44.8620 C   0  0  0  0  0  0  0  0  0  0  0  0
   54.4199   23.3193   44.4662 H   0  0  0  0  0  0  0  0  0  0  0  0
   54.9374   24.4000   43.1280 H   0  0  0  0  0  0  0  0  0  0  0  0
   55.4284   22.6721   43.1280 H   0  0  0  0  0  0  0  0  0  0  0  0
   57.9445   25.5227   44.3524 H   0  0  0  0  0  0  0  0  0  0  0  0
   58.0394   24.2807   43.0582 H   0  0  0  0  0  0  0  0  0  0  0  0
   56.6997   25.4772   43.0582 H   0  0  0  0  0  0  0  0  0  0  0  0
   57.4181   22.5190   45.9380 H   0  0  0  0  0  0  0  0  0  0  0  0
   56.8344   21.7709   44.4127 H   0  0  0  0  0  0  0  0  0  0  0  0
   58.3372   22.7549   44.4127 H   0  0  0  0  0  0  0  0  0  0  0  0
   58.3801   24.9352   47.2504 H   0  0  0  0  0  0  0  0  0  0  0  0
   60.5096   26.0901   47.8479 H   0  0  0  0  0  0  0  0  0  0  0  0
   60.7859   28.5267   47.3755 H   0  0  0  0  0  0  0  0  0  0  0  0
   58.9356   29.8086   46.2983 H   0  0  0  0  0  0  0  0  0  0  0  0
   55.9709   28.5325   43.0213 H   0  0  0  0  0  0  0  0  0  0  0  0
   56.3505   30.2223   41.2227 H   0  0  0  0  0  0  0  0  0  0  0  0
   60.4540   32.8900   45.3300 H   0  0  0  0  0  0  0  0  0  0  0  0
   59.9335   33.8670   48.8458 H   0  0  0  0  0  0  0  0  0  0  0  0
   61.7573   34.0027   50.5423 H   0  0  0  0  0  0  0  0  0  0  0  0
   64.7042   33.3772   47.4406 H   0  0  0  0  0  0  0  0  0  0  0  0
   62.8869   33.2321   45.7381 H   0  0  0  0  0  0  0  0  0  0  0  0
   57.7009   31.2837   45.8892 H   0  0  0  0  0  0  0  0  0  0  0  0
  1  2  1  0
  2  3  1  0
  2  4  1  0
  2  5  1  0
  5  6  1  0
  6  7  2  0
  6  8  1  0
  8  9  2  0
  9 10  1  0
 10 11  2  0
 11 12  1  0
 12 13  2  0
 13 14  1  0
 14 15  1  0
 15 16  1  0
 16 17  2  0
 17 18  1  0
 18 19  1  0
 19 20  2  3
 20 21  1  0
 21 22  2  0
 21 23  1  0
 23 24  2  0
 23 25  1  0
 25 26  1  0
 26 27  2  0
 27 28  1  0
 28 29  2  0
 29 30  1  0
 29 31  1  0
 31 32  2  0
 19 33  1  0
 13  8  1  0
 33 15  2  0
 32 26  1  0
  1 34  1  0
  1 35  1  0
  1 36  1  0
  3 37  1  0
  3 38  1  0
  3 39  1  0
  4 40  1  0
  4 41  1  0
  4 42  1  0
  9 43  1  0
 10 44  1  0
 11 45  1  0
 12 46  1  0
 16 47  1  0
 17 48  1  0
 25 49  1  0
 27 50  1  0
 28 51  1  0
 31 52  1  0
 32 53  1  0
 33 54  1  0
M  CHG  2   5  -1  18  -1
M  END
>  <UniqueID>  (69) 
62

>  <SMILES>  (69) 
CC(C)(C)[N-]C(=O)c1ccccc1Oc1cc[n-]c(=NC(=O)C(=O)Nc2ccc(F)cc2)c1

>  <Energy>  (69) 
79.31815616785512

>  <Genealogy>  (69) 
CC(C)(C)[N-]C(=O)c1ccccc1Oc1cc[n-]c(=NC(=O)C(=O)Nc2ccc(F)cc2)c1 (protonated)
CC(C)(C)[N-]C(=O)c1ccccc1Oc1cc[n-]c(=NC(=O)C(=O)Nc2ccc(F)cc2)c1 (3D coordinates assigned)
CC(C)(C)[N-]C(=O)c1ccccc1Oc1cc[n-]c(=NC(=O)C(=O)Nc2ccc(F)cc2)c1 (optimized conformer: 79.31815616785512 kcal/mol)

>  <smiles>  (69) 
CC(C)(C)NC(=O)c1ccccc1Oc1cc[nH]c(=NC(=O)C(=O)Nc2ccc(F)cc2)c1

>  <score_type>  (69) 
oracle

>  <origin>  (69) 
adg

>  <m_score__min__energy>  (69) 
-12.289999999999999

>  <m_primary>  (69) 
energy

$$$$
69:0
     RDKit          3D

 27 28  0  0  0  0  0  0  0  0999 V2000
   55.7370   28.1410   44.5850 H   0  0  0  0  0  0  0  0  0  0  0  0
   55.5190   29.1360   44.8220 N   0  0  0  0  0  0  0  0  0  0  0  0
   56.2190   30.1220   44.3630 C   0  0  0  0  0  0  0  0  0  0  0  0
   56.8740   30.9370   45.2290 N   0  0  0  0  0  0  0  0  0  0  0  0
   57.6260   31.9820   44.7880 C   0  0  0  0  0  0  0  0  0  0  0  0
   58.2840   32.8330   45.6850 O   0  0  0  0  0  0  0  0  0  0  0  0
   59.5380   32.5870   46.2640 C   0  0  0  0  0  0  0  0  0  0  0  0
   60.4350   33.6520   46.3980 C   0  0  0  0  0  0  0  0  0  0  0  0
   60.1431   34.6566   46.0581 H   0  0  0  0  0  0  0  0  0  0  0  0
   61.6990   33.4510   46.9600 C   0  0  0  0  0  0  0  0  0  0  0  0
   62.3894   34.3003   47.0696 H   0  0  0  0  0  0  0  0  0  0  0  0
   62.0920   32.1770   47.3840 C   0  0  0  0  0  0  0  0  0  0  0  0
   63.3690   32.0260   47.9450 O   0  0  0  0  0  0  0  0  0  0  0  0
   64.1030   33.0750   48.5680 C   0  0  0  0  0  0  0  0  0  0  0  0
   64.0319   32.9733   49.6610 H   0  0  0  0  0  0  0  0  0  0  0  0
   65.1580   33.0161   48.2622 H   0  0  0  0  0  0  0  0  0  0  0  0
   63.6862   34.0460   48.2622 H   0  0  0  0  0  0  0  0  0  0  0  0
   61.2010   31.0970   47.2330 C   0  0  0  0  0  0  0  0  0  0  0  0
   61.5003   30.0897   47.5582 H   0  0  0  0  0  0  0  0  0  0  0  0
   59.9370   31.3010   46.6710 C   0  0  0  0  0  0  0  0  0  0  0  0
   59.2505   30.4506   46.5464 H   0  0  0  0  0  0  0  0  0  0  0  0
   57.7120   32.2360   43.4190 C   0  0  0  0  0  0  0  0  0  0  0  0
   58.3020   33.0843   43.0419 H   0  0  0  0  0  0  0  0  0  0  0  0
   57.0350   31.3930   42.5380 C   0  0  0  0  0  0  0  0  0  0  0  0
   57.1010   31.5980   41.2970 O   0  0  0  0  0  0  0  0  0  0  0  0
   56.3020   30.3520   43.0200 N   0  0  0  0  0  0  0  0  0  0  0  0
   55.7990   29.7270   42.3480 H   0  0  0  0  0  0  0  0  0  0  0  0
  1  2  1  0
  2  3  2  0
  3  4  1  0
  4  5  1  0
  5  6  1  0
  6  7  1  0
  7  8  2  0
  8  9  1  0
  8 10  1  0
 10 11  1  0
 10 12  2  0
 12 13  1  0
 13 14  1  0
 14 15  1  0
 14 16  1  0
 14 17  1  0
 12 18  1  0
 18 19  1  0
 18 20  2  0
 20 21  1  0
  5 22  2  0
 22 23  1  0
 22 24  1  0
 24 25  2  0
 24 26  1  0
 26 27  1  0
 26  3  1  0
 20  7  1  0
M  CHG  1   4  -1
M  END
>  <UniqueID>  (70) 
63

>  <SMILES>  (70) 
[H]/N=c1/[n-]c(Oc2ccc(OC)cc2)cc(=O)[nH]1

>  <Energy>  (70) 
32.61897197962352

>  <Genealogy>  (70) 
COc1ccc(Oc2cc(=O)[nH]c(=N)[n-]2)cc1 (protonated)
[H]/N=c1/[n-]c(Oc2ccc(OC)cc2)cc(=O)[nH]1 (cis-trans isomerization)
[H]/N=c1/[n-]c(Oc2ccc(OC)cc2)cc(=O)[nH]1 (3D coordinates assigned)
[H]/N=c1/[n-]c(Oc2ccc(OC)cc2)cc(=O)[nH]1 (optimized conformer: 32.61897197962352 kcal/mol)

>  <smiles>  (70) 
COc1ccc(Oc2cc(=O)[nH]c(=N)[nH]2)cc1

>  <score_type>  (70) 
oracle

>  <origin>  (70) 
adg

>  <m_score__min__energy>  (70) 
-7.7400000000000002

>  <m_primary>  (70) 
energy

$$$$
70:0
     RDKit          3D

 55 57  0  0  0  0  0  0  0  0999 V2000
   57.5240   25.8380   46.5740 C   0  0  0  0  0  0  0  0  0  0  0  0
   57.5360   27.2510   46.4020 O   0  0  0  0  0  0  0  0  0  0  0  0
   58.5450   28.1050   46.8750 C   0  0  0  0  0  0  0  0  0  0  0  0
   58.6790   28.4030   48.2470 C   0  0  0  0  0  0  0  0  0  0  0  0
   59.7020   29.2390   48.6940 C   0  0  0  0  0  0  0  0  0  0  0  0
   60.6060   29.7860   47.7850 C   0  0  0  0  0  0  0  0  0  0  0  0
   60.4860   29.5040   46.4240 C   0  0  0  0  0  0  0  0  0  0  0  0
   59.4500   28.6770   45.9520 C   0  0  0  0  0  0  0  0  0  0  0  0
   59.3400   28.4010   44.4610 C   0  0  0  0  0  0  0  0  0  0  0  0
   57.9930   27.9570   44.0290 N   0  0  0  0  0  0  0  0  0  0  0  0
   58.0410   26.7410   43.1960 C   0  0  0  0  0  0  0  0  0  0  0  0
   57.2210   29.0390   43.3830 C   0  0  0  0  0  0  0  0  0  0  0  0
   56.2720   29.6730   44.3550 C   0  0  0  0  0  0  0  0  0  0  0  0
   55.5530   28.9450   45.0890 O   0  0  0  0  0  0  0  0  0  0  0  0
   56.2100   31.1010   44.4550 N   0  0  0  0  0  0  0  0  0  0  0  0
   57.1390   31.9420   45.1500 C   0  0  0  0  0  0  0  0  0  0  0  0
   57.3840   33.2300   44.6570 C   0  0  0  0  0  0  0  0  0  0  0  0
   58.2830   34.0780   45.3070 C   0  0  0  0  0  0  0  0  0  0  0  0
   58.9350   33.6550   46.4750 C   0  0  0  0  0  0  0  0  0  0  0  0
   60.0580   34.7340   47.3000 S   0  0  0  0  0  0  0  0  0  0  0  0
   59.9950   36.0970   46.6690 O   0  0  0  0  0  0  0  0  0  0  0  0
   59.6570   34.8590   48.7450 O   0  0  0  0  0  0  0  0  0  0  0  0
   61.6820   34.1080   47.1600 N   0  0  0  0  0  0  0  0  0  0  0  0
   61.6800   32.6920   46.7880 C   0  0  0  0  0  0  0  0  0  0  0  0
   62.9540   32.0880   47.3570 C   0  0  0  0  0  0  0  0  0  0  0  0
   63.4300   33.0690   48.4170 C   0  0  0  0  0  0  0  0  0  0  0  0
   62.3850   34.1730   48.4410 C   0  0  0  0  0  0  0  0  0  0  0  0
   58.6650   32.3800   46.9930 C   0  0  0  0  0  0  0  0  0  0  0  0
   57.7710   31.5270   46.3360 C   0  0  0  0  0  0  0  0  0  0  0  0
   57.5220   25.5993   47.6478 H   0  0  0  0  0  0  0  0  0  0  0  0
   56.6223   25.4190   46.1036 H   0  0  0  0  0  0  0  0  0  0  0  0
   58.4185   25.4037   46.1036 H   0  0  0  0  0  0  0  0  0  0  0  0
   57.9709   27.9726   48.9704 H   0  0  0  0  0  0  0  0  0  0  0  0
   59.7956   29.4671   49.7660 H   0  0  0  0  0  0  0  0  0  0  0  0
   61.4150   30.4408   48.1411 H   0  0  0  0  0  0  0  0  0  0  0  0
   61.2081   29.9322   45.7132 H   0  0  0  0  0  0  0  0  0  0  0  0
   59.5905   29.3246   43.9186 H   0  0  0  0  0  0  0  0  0  0  0  0
   60.0342   27.5776   44.2371 H   0  0  0  0  0  0  0  0  0  0  0  0
   58.0760   25.8533   43.8447 H   0  0  0  0  0  0  0  0  0  0  0  0
   57.1439   26.6959   42.5610 H   0  0  0  0  0  0  0  0  0  0  0  0
   58.9388   26.7668   42.5610 H   0  0  0  0  0  0  0  0  0  0  0  0
   57.9171   29.8039   43.0083 H   0  0  0  0  0  0  0  0  0  0  0  0
   56.6398   28.6092   42.5539 H   0  0  0  0  0  0  0  0  0  0  0  0
   56.8644   33.5760   43.7513 H   0  0  0  0  0  0  0  0  0  0  0  0
   58.4807   35.0813   44.9018 H   0  0  0  0  0  0  0  0  0  0  0  0
   60.7992   32.1895   47.2142 H   0  0  0  0  0  0  0  0  0  0  0  0
   61.6385   32.5704   45.6955 H   0  0  0  0  0  0  0  0  0  0  0  0
   62.7463   31.1061   47.8073 H   0  0  0  0  0  0  0  0  0  0  0  0
   63.7137   31.9286   46.5776 H   0  0  0  0  0  0  0  0  0  0  0  0
   63.4919   32.5758   49.3983 H   0  0  0  0  0  0  0  0  0  0  0  0
   64.4336   33.4595   48.1929 H   0  0  0  0  0  0  0  0  0  0  0  0
   61.6802   34.0110   49.2698 H   0  0  0  0  0  0  0  0  0  0  0  0
   62.8510   35.1583   48.5893 H   0  0  0  0  0  0  0  0  0  0  0  0
   59.1578   32.0492   47.9192 H   0  0  0  0  0  0  0  0  0  0  0  0
   57.5619   30.5289   46.7484 H   0  0  0  0  0  0  0  0  0  0  0  0
  1  2  1  0
  2  3  1  0
  3  4  2  0
  4  5  1  0
  5  6  2  0
  6  7  1  0
  7  8  2  0
  8  9  1  0
  9 10  1  0
 10 11  1  0
 10 12  1  0
 12 13  1  0
 13 14  2  0
 13 15  1  0
 15 16  1  0
 16 17  2  0
 17 18  1  0
 18 19  2  0
 19 20  1  0
 20 21  2  0
 20 22  2  0
 20 23  1  0
 23 24  1  0
 24 25  1  0
 25 26  1  0
 26 27  1  0
 19 28  1  0
 28 29  2  0
  8  3  1  0
 29 16  1  0
 27 23  1  0
  1 30  1  0
  1 31  1  0
  1 32  1  0
  4 33  1  0
  5 34  1  0
  6 35  1  0
  7 36  1  0
  9 37  1  0
  9 38  1  0
 11 39  1  0
 11 40  1  0
 11 41  1  0
 12 42  1  0
 12 43  1  0
 17 44  1  0
 18 45  1  0
 24 46  1  0
 24 47  1  0
 25 48  1  0
 25 49  1  0
 26 50  1  0
 26 51  1  0
 27 52  1  0
 27 53  1  0
 28 54  1  0
 29 55  1  0
M  CHG  1  15  -1
M  END
>  <UniqueID>  (71) 
64

>  <SMILES>  (71) 
COc1ccccc1CN(C)CC(=O)[N-]c1ccc(S(=O)(=O)N2CCCC2)cc1

>  <Energy>  (71) 
62.49120657970172

>  <Genealogy>  (71) 
COc1ccccc1CN(C)CC(=O)[N-]c1ccc(S(=O)(=O)N2CCCC2)cc1 (protonated)
COc1ccccc1CN(C)CC(=O)[N-]c1ccc(S(=O)(=O)N2CCCC2)cc1 (3D coordinates assigned)
COc1ccccc1CN(C)CC(=O)[N-]c1ccc(S(=O)(=O)N2CCCC2)cc1 (nonaromatic ring conformer: 62.49120657970172 kcal/mol)

>  <smiles>  (71) 
COc1ccccc1CN(C)CC(=O)Nc1ccc(S(=O)(=O)N2CCCC2)cc1

>  <score_type>  (71) 
oracle

>  <origin>  (71) 
adg

>  <m_score__min__energy>  (71) 
-10.1

>  <m_primary>  (71) 
energy

$$$$
71:0
     RDKit          3D

 41 43  0  0  0  0  0  0  0  0999 V2000
   54.6530   24.3670   46.2110 H   0  0  0  0  0  0  0  0  0  0  0  0
   53.6830   24.1330   46.0340 O   0  0  0  0  0  0  0  0  0  0  0  0
   53.2170   22.8180   46.0550 C   0  0  0  0  0  0  0  0  0  0  0  0
   51.8390   22.5860   46.0850 C   0  0  0  0  0  0  0  0  0  0  0  0
   51.1394   23.4348   46.0921 H   0  0  0  0  0  0  0  0  0  0  0  0
   51.3490   21.2790   46.1060 C   0  0  0  0  0  0  0  0  0  0  0  0
   50.2653   21.0917   46.1286 H   0  0  0  0  0  0  0  0  0  0  0  0
   52.2490   20.2130   46.0980 C   0  0  0  0  0  0  0  0  0  0  0  0
   51.8754   19.1785   46.1152 H   0  0  0  0  0  0  0  0  0  0  0  0
   53.5870   20.4510   46.0690 N   0  0  0  0  0  0  0  0  0  0  0  0
   54.0980   21.7170   46.0490 C   0  0  0  0  0  0  0  0  0  0  0  0
   55.3850   21.9190   46.0250 N   0  0  0  0  0  0  0  0  0  0  0  0
   56.2440   22.1740   47.1490 C   0  0  0  0  0  0  0  0  0  0  0  0
   57.2490   21.4490   47.3880 O   0  0  0  0  0  0  0  0  0  0  0  0
   55.9230   23.3040   48.0710 C   0  0  0  0  0  0  0  0  0  0  0  0
   56.6782   23.3526   48.8693 H   0  0  0  0  0  0  0  0  0  0  0  0
   54.9302   23.1446   48.5171 H   0  0  0  0  0  0  0  0  0  0  0  0
   55.9260   24.5530   47.3220 N   0  0  0  0  0  0  0  0  0  0  0  0
   57.1260   25.1760   46.8510 C   0  0  0  0  0  0  0  0  0  0  0  0
   58.2120   24.5370   46.8930 O   0  0  0  0  0  0  0  0  0  0  0  0
   57.0940   26.5690   46.3210 C   0  0  0  0  0  0  0  0  0  0  0  0
   55.9170   27.0920   45.7510 C   0  0  0  0  0  0  0  0  0  0  0  0
   54.7660   26.3210   45.6390 O   0  0  0  0  0  0  0  0  0  0  0  0
   55.8920   28.3630   45.2840 N   0  0  0  0  0  0  0  0  0  0  0  0
   56.9710   29.1810   45.3280 C   0  0  0  0  0  0  0  0  0  0  0  0
   56.8570   30.4430   44.8420 N   0  0  0  0  0  0  0  0  0  0  0  0
   57.8930   31.3180   44.8470 C   0  0  0  0  0  0  0  0  0  0  0  0
   57.7050   32.6980   44.3030 C   0  0  0  0  0  0  0  0  0  0  0  0
   57.6080   33.4103   45.1356 H   0  0  0  0  0  0  0  0  0  0  0  0
   58.5743   32.9707   43.6866 H   0  0  0  0  0  0  0  0  0  0  0  0
   56.7944   32.7282   43.6866 H   0  0  0  0  0  0  0  0  0  0  0  0
   59.1290   30.9250   45.3650 C   0  0  0  0  0  0  0  0  0  0  0  0
   59.9711   31.6327   45.3699 H   0  0  0  0  0  0  0  0  0  0  0  0
   59.3010   29.6290   45.8800 C   0  0  0  0  0  0  0  0  0  0  0  0
   60.6640   29.2650   46.4170 C   0  0  0  0  0  0  0  0  0  0  0  0
   60.6386   29.2718   47.5167 H   0  0  0  0  0  0  0  0  0  0  0  0
   60.9416   28.2613   46.0628 H   0  0  0  0  0  0  0  0  0  0  0  0
   61.4050   29.9967   46.0628 H   0  0  0  0  0  0  0  0  0  0  0  0
   58.1970   28.7240   45.8720 C   0  0  0  0  0  0  0  0  0  0  0  0
   58.2420   27.3970   46.3790 C   0  0  0  0  0  0  0  0  0  0  0  0
   59.2960   26.9450   46.9020 O   0  0  0  0  0  0  0  0  0  0  0  0
  1  2  1  0
  2  3  1  0
  3  4  2  0
  4  5  1  0
  4  6  1  0
  6  7  1  0
  6  8  2  0
  8  9  1  0
  8 10  1  0
 10 11  1  0
 11 12  2  0
 12 13  1  0
 13 14  2  0
 13 15  1  0
 15 16  1  0
 15 17  1  0
 15 18  1  0
 18 19  1  0
 19 20  2  0
 19 21  1  0
 21 22  2  0
 22 23  1  0
 22 24  1  0
 24 25  1  0
 25 26  2  0
 26 27  1  0
 27 28  1  0
 28 29  1  0
 28 30  1  0
 28 31  1  0
 27 32  2  0
 32 33  1  0
 32 34  1  0
 34 35  1  0
 35 36  1  0
 35 37  1  0
 35 38  1  0
 34 39  2  0
 39 40  1  0
 40 41  2  0
 11  3  1  0
 40 21  1  0
 39 25  1  0
M  CHG  4  10  -1  18  -1  23  -1  24  -1
M  END
>  <UniqueID>  (72) 
65

>  <SMILES>  (72) 
Cc1cc(C)c2c(=O)c(C(=O)[N-]CC(=O)/N=c3\[n-]cccc3O)c([O-])[n-]c2n1

>  <Energy>  (72) 
56.821842853178225

>  <Genealogy>  (72) 
Cc1cc(C)c2c(=O)c(C(=O)[N-]CC(=O)N=c3[n-]cccc3O)c([O-])[n-]c2n1 (protonated)
Cc1cc(C)c2c(=O)c(C(=O)[N-]CC(=O)/N=c3\[n-]cccc3O)c([O-])[n-]c2n1 (cis-trans isomerization)
Cc1cc(C)c2c(=O)c(C(=O)[N-]CC(=O)/N=c3\[n-]cccc3O)c([O-])[n-]c2n1 (3D coordinates assigned)
Cc1cc(C)c2c(=O)c(C(=O)[N-]CC(=O)/N=c3\[n-]cccc3O)c([O-])[n-]c2n1 (optimized conformer: 56.821842853178225 kcal/mol)

>  <smiles>  (72) 
Cc1cc(C)c2c(=O)c(C(=O)NCC(=O)N=c3[nH]cccc3O)c(O)[nH]c2n1

>  <score_type>  (72) 
oracle

>  <origin>  (72) 
adg

>  <m_score__min__energy>  (72) 
-15.74

>  <m_primary>  (72) 
energy

$$$$
72:0
     RDKit          3D

 61 64  0  0  0  0  0  0  0  0999 V2000
   58.9130   33.5500   51.9810 C   0  0  0  0  0  0  0  0  0  0  0  0
   59.3020   33.4710   50.7070 C   0  0  0  0  0  0  0  0  0  0  0  0
   60.4550   32.6570   50.2420 C   0  0  0  0  0  0  0  0  0  0  0  0
   61.7320   33.2180   50.0460 C   0  0  0  0  0  0  0  0  0  0  0  0
   62.7950   32.4230   49.6120 C   0  0  0  0  0  0  0  0  0  0  0  0
   62.6040   31.0620   49.3770 C   0  0  0  0  0  0  0  0  0  0  0  0
   61.3470   30.4770   49.5830 C   0  0  0  0  0  0  0  0  0  0  0  0
   61.1590   29.0110   49.2890 C   0  0  0  0  0  0  0  0  0  0  0  0
   60.0550   28.8270   48.3500 N   0  0  0  0  0  0  0  0  0  0  0  0
   59.9880   27.7120   47.4500 C   0  0  0  0  0  0  0  0  0  0  0  0
   61.0040   26.9880   47.2680 O   0  0  0  0  0  0  0  0  0  0  0  0
   58.7350   27.4080   46.7310 C   0  0  0  0  0  0  0  0  0  0  0  0
   58.3530   26.1580   46.2600 C   0  0  0  0  0  0  0  0  0  0  0  0
   59.0060   24.9210   46.2730 C   0  0  0  0  0  0  0  0  0  0  0  0
   58.3570   23.8270   45.6730 C   0  0  0  0  0  0  0  0  0  0  0  0
   57.0910   23.9880   45.0660 C   0  0  0  0  0  0  0  0  0  0  0  0
   56.4650   25.2470   45.0450 C   0  0  0  0  0  0  0  0  0  0  0  0
   57.1310   26.3110   45.6510 C   0  0  0  0  0  0  0  0  0  0  0  0
   56.7950   27.6390   45.7590 C   0  0  0  0  0  0  0  0  0  0  0  0
   55.6330   28.2180   45.2610 O   0  0  0  0  0  0  0  0  0  0  0  0
   57.7660   28.3140   46.4180 N   0  0  0  0  0  0  0  0  0  0  0  0
   57.7490   29.7510   46.7050 C   0  0  0  0  0  0  0  0  0  0  0  0
   58.5810   30.4850   45.6900 C   0  0  0  0  0  0  0  0  0  0  0  0
   59.1170   29.8200   44.7620 O   0  0  0  0  0  0  0  0  0  0  0  0
   58.7080   31.9210   45.6910 N   0  0  0  0  0  0  0  0  0  0  0  0
   58.2020   32.7280   44.5920 C   0  0  0  0  0  0  0  0  0  0  0  0
   58.5410   34.1730   44.9410 C   0  0  2  0  0  0  0  0  0  0  0  0
   59.6460   34.5870   44.2160 F   0  0  0  0  0  0  0  0  0  0  0  0
   58.8740   34.1660   46.4310 C   0  0  0  0  0  0  0  0  0  0  0  0
   59.2920   32.7290   46.7580 C   0  0  2  0  0  0  0  0  0  0  0  0
   60.8280   32.5870   46.7680 C   0  0  0  0  0  0  0  0  0  0  0  0
   61.4520   33.8430   46.9530 O   0  0  0  0  0  0  0  0  0  0  0  0
   62.8130   33.7770   46.5890 C   0  0  0  0  0  0  0  0  0  0  0  0
   60.2720   31.2770   50.0170 C   0  0  0  0  0  0  0  0  0  0  0  0
   59.0470   30.7190   50.2060 F   0  0  0  0  0  0  0  0  0  0  0  0
   58.0488   34.1732   52.2546 H   0  0  0  0  0  0  0  0  0  0  0  0
   59.4565   32.9919   52.7576 H   0  0  0  0  0  0  0  0  0  0  0  0
   58.7357   34.0422   49.9566 H   0  0  0  0  0  0  0  0  0  0  0  0
   61.8931   34.2894   50.2360 H   0  0  0  0  0  0  0  0  0  0  0  0
   63.7867   32.8723   49.4550 H   0  0  0  0  0  0  0  0  0  0  0  0
   63.4444   30.4440   49.0280 H   0  0  0  0  0  0  0  0  0  0  0  0
   62.0825   28.6064   48.8492 H   0  0  0  0  0  0  0  0  0  0  0  0
   60.9285   28.4817   50.2253 H   0  0  0  0  0  0  0  0  0  0  0  0
   59.2900   29.5390   48.3380 H   0  0  0  0  0  0  0  0  0  0  0  0
   59.9964   24.8074   46.7381 H   0  0  0  0  0  0  0  0  0  0  0  0
   58.8387   22.8381   45.6762 H   0  0  0  0  0  0  0  0  0  0  0  0
   56.5916   23.1222   44.6066 H   0  0  0  0  0  0  0  0  0  0  0  0
   55.4842   25.3873   44.5671 H   0  0  0  0  0  0  0  0  0  0  0  0
   56.7133   30.1192   46.6628 H   0  0  0  0  0  0  0  0  0  0  0  0
   58.1647   29.9250   47.7084 H   0  0  0  0  0  0  0  0  0  0  0  0
   58.6889   32.4382   43.6492 H   0  0  0  0  0  0  0  0  0  0  0  0
   57.1193   32.5897   44.4558 H   0  0  0  0  0  0  0  0  0  0  0  0
   57.7112   34.8562   44.7073 H   0  0  0  0  0  0  0  0  0  0  0  0
   59.6987   34.8625   46.6425 H   0  0  0  0  0  0  0  0  0  0  0  0
   58.0155   34.4865   47.0394 H   0  0  0  0  0  0  0  0  0  0  0  0
   58.9484   32.4176   47.7555 H   0  0  0  0  0  0  0  0  0  0  0  0
   61.1218   31.9151   47.5879 H   0  0  0  0  0  0  0  0  0  0  0  0
   61.1483   32.1758   45.7993 H   0  0  0  0  0  0  0  0  0  0  0  0
   63.4342   33.7469   47.4963 H   0  0  0  0  0  0  0  0  0  0  0  0
   62.9897   32.8692   45.9934 H   0  0  0  0  0  0  0  0  0  0  0  0
   63.0767   34.6634   45.9934 H   0  0  0  0  0  0  0  0  0  0  0  0
  1  2  2  0
  2  3  1  0
  3  4  2  0
  4  5  1  0
  5  6  2  0
  6  7  1  0
  7  8  1  0
  8  9  1  0
  9 10  1  0
 10 11  2  0
 10 12  1  0
 12 13  2  0
 13 14  1  0
 14 15  2  0
 15 16  1  0
 16 17  2  0
 17 18  1  0
 18 19  2  0
 19 20  1  0
 19 21  1  0
 21 22  1  0
 22 23  1  0
 23 24  2  0
 23 25  1  0
 25 26  1  0
 26 27  1  0
 27 28  1  0
 27 29  1  0
 29 30  1  0
 30 31  1  0
 31 32  1  0
 32 33  1  0
  7 34  2  0
 34 35  1  0
 34  3  1  0
 21 12  1  0
 30 25  1  0
 18 13  1  0
  1 36  1  0
  1 37  1  0
  2 38  1  0
  4 39  1  0
  5 40  1  0
  6 41  1  0
  8 42  1  0
  8 43  1  0
  9 44  1  0
 14 45  1  0
 15 46  1  0
 16 47  1  0
 17 48  1  0
 22 49  1  0
 22 50  1  0
 26 51  1  0
 26 52  1  0
 27 53  1  1
 29 54  1  0
 29 55  1  0
 30 56  1  1
 31 57  1  0
 31 58  1  0
 33 59  1  0
 33 60  1  0
 33 61  1  0
M  CHG  1  20  -1
M  END
>  <UniqueID>  (73) 
66

>  <SMILES>  (73) 
C=Cc1cccc(CNC(=O)c2c3ccccc3c([O-])n2CC(=O)N2C[C@H](F)C[C@@H]2COC)c1F

>  <Energy>  (73) 
104.10700517066391

>  <Genealogy>  (73) 
C=Cc1cccc(CNC(=O)c2c3ccccc3c([O-])n2CC(=O)N2CC(F)CC2COC)c1F (protonated)
C=Cc1cccc(CNC(=O)c2c3ccccc3c([O-])n2CC(=O)N2C[C@H](F)C[C@@H]2COC)c1F (chirality)
C=Cc1cccc(CNC(=O)c2c3ccccc3c([O-])n2CC(=O)N2C[C@H](F)C[C@@H]2COC)c1F (3D coordinates assigned)
C=Cc1cccc(CNC(=O)c2c3ccccc3c([O-])n2CC(=O)N2C[C@H](F)C[C@@H]2COC)c1F (nonaromatic ring conformer: 104.10700517066391 kcal/mol)

>  <smiles>  (73) 
C=Cc1cccc(CNC(=O)c2c3ccccc3c(O)n2CC(=O)N2CC(F)CC2COC)c1F

>  <score_type>  (73) 
oracle

>  <origin>  (73) 
adg

>  <m_score__min__energy>  (73) 
-11.789999999999999

>  <m_primary>  (73) 
energy

$$$$
73:0
     RDKit          3D

 87 91  0  0  0  0  0  0  0  0999 V2000
   54.8690   23.5900   47.0580 C   0  0  0  0  0  0  0  0  0  0  0  0
   55.9860   24.5100   46.8000 N   0  0  0  0  0  0  0  0  0  0  0  0
   55.8890   25.0800   45.4510 C   0  0  0  0  0  0  0  0  0  0  0  0
   56.8500   26.2620   45.3610 C   0  0  0  0  0  0  0  0  0  0  0  0
   58.1570   25.9350   45.9500 N   0  0  0  0  0  0  0  0  0  0  0  0
   59.2270   26.9080   45.9360 C   0  0  0  0  0  0  0  0  0  0  0  0
   60.4230   26.5060   45.9750 O   0  0  0  0  0  0  0  0  0  0  0  0
   58.9400   28.4040   45.9900 C   0  0  1  0  0  0  0  0  0  0  0  0
   58.2400   28.8750   44.6980 C   0  0  0  0  0  0  0  0  0  0  0  0
   58.0870   30.3740   44.6190 C   0  0  0  0  0  0  0  0  0  0  0  0
   57.8710   31.0060   43.3850 C   0  0  0  0  0  0  0  0  0  0  0  0
   57.7710   32.3980   43.3170 C   0  0  0  0  0  0  0  0  0  0  0  0
   57.8850   33.1690   44.4760 C   0  0  0  0  0  0  0  0  0  0  0  0
   58.0870   32.5520   45.7190 C   0  0  0  0  0  0  0  0  0  0  0  0
   58.2370   33.3570   46.9500 C   0  0  0  0  0  0  0  0  0  0  0  0
   57.3660   33.2420   47.8550 O   0  0  0  0  0  0  0  0  0  0  0  0
   59.3370   34.2730   47.1320 N   0  0  0  0  0  0  0  0  0  0  0  0
   60.0200   34.8670   45.9770 C   0  0  0  0  0  0  0  0  0  0  0  0
   59.6530   34.7470   48.4830 C   0  0  0  0  0  0  0  0  0  0  0  0
   58.2010   31.1540   45.7820 C   0  0  0  0  0  0  0  0  0  0  0  0
   58.1220   28.7890   47.1570 N   0  0  0  0  0  0  0  0  0  0  0  0
   59.0830   28.9910   48.5960 S   0  0  0  0  0  0  0  0  0  0  0  0
   59.7170   27.6760   48.9550 O   0  0  0  0  0  0  0  0  0  0  0  0
   58.1840   29.4040   49.7280 O   0  0  0  0  0  0  0  0  0  0  0  0
   60.3530   30.1940   48.3800 C   0  0  0  0  0  0  0  0  0  0  0  0
   61.1600   30.1620   47.2350 C   0  0  0  0  0  0  0  0  0  0  0  0
   62.1540   31.1260   47.0470 C   0  0  0  0  0  0  0  0  0  0  0  0
   62.3600   32.1210   48.0140 C   0  0  0  0  0  0  0  0  0  0  0  0
   61.5510   32.1610   49.1590 C   0  0  0  0  0  0  0  0  0  0  0  0
   60.5460   31.2000   49.3380 C   0  0  0  0  0  0  0  0  0  0  0  0
   61.7460   33.2740   50.1560 C   0  0  0  0  0  0  0  0  0  0  0  0
   63.1720   33.6180   50.2890 N   0  0  0  0  0  0  0  0  0  0  0  0
   63.6520   34.1490   51.5370 C   0  0  0  0  0  0  0  0  0  0  0  0
   64.8420   34.5590   51.6330 O   0  0  0  0  0  0  0  0  0  0  0  0
   62.7990   34.2070   52.6490 O   0  0  0  0  0  0  0  0  0  0  0  0
   62.3050   33.0520   53.3250 C   0  0  0  0  0  0  0  0  0  0  0  0
   60.8630   32.8020   52.9760 C   0  0  0  0  0  0  0  0  0  0  0  0
   60.4030   31.4950   52.7360 C   0  0  0  0  0  0  0  0  0  0  0  0
   59.0590   31.2690   52.4210 C   0  0  0  0  0  0  0  0  0  0  0  0
   58.1670   32.3430   52.3440 C   0  0  0  0  0  0  0  0  0  0  0  0
   58.6180   33.6450   52.5760 C   0  0  0  0  0  0  0  0  0  0  0  0
   59.9610   33.8780   52.8920 C   0  0  0  0  0  0  0  0  0  0  0  0
   64.1170   33.4640   49.1670 C   0  0  0  0  0  0  0  0  0  0  0  0
   63.4070   33.1800   47.8340 C   0  0  0  0  0  0  0  0  0  0  0  0
   58.4720   24.5450   46.3270 C   0  0  0  0  0  0  0  0  0  0  0  0
   57.2780   23.8150   46.9860 C   0  0  0  0  0  0  0  0  0  0  0  0
   54.7309   23.4762   48.1433 H   0  0  0  0  0  0  0  0  0  0  0  0
   53.9491   23.9959   46.6119 H   0  0  0  0  0  0  0  0  0  0  0  0
   55.0911   22.6094   46.6119 H   0  0  0  0  0  0  0  0  0  0  0  0
   56.1636   24.3196   44.7051 H   0  0  0  0  0  0  0  0  0  0  0  0
   54.8593   25.4123   45.2527 H   0  0  0  0  0  0  0  0  0  0  0  0
   56.9906   26.5295   44.3033 H   0  0  0  0  0  0  0  0  0  0  0  0
   56.4178   27.1039   45.9217 H   0  0  0  0  0  0  0  0  0  0  0  0
   59.9172   28.8994   46.0880 H   0  0  0  0  0  0  0  0  0  0  0  0
   58.8338   28.5380   43.8356 H   0  0  0  0  0  0  0  0  0  0  0  0
   57.2288   28.4421   44.6970 H   0  0  0  0  0  0  0  0  0  0  0  0
   57.7802   30.4041   42.4688 H   0  0  0  0  0  0  0  0  0  0  0  0
   57.6019   32.8885   42.3470 H   0  0  0  0  0  0  0  0  0  0  0  0
   57.8160   34.2651   44.4135 H   0  0  0  0  0  0  0  0  0  0  0  0
   60.8066   35.5511   46.3281 H   0  0  0  0  0  0  0  0  0  0  0  0
   60.4721   34.0699   45.3685 H   0  0  0  0  0  0  0  0  0  0  0  0
   59.2933   35.4253   45.3685 H   0  0  0  0  0  0  0  0  0  0  0  0
   59.2020   34.0704   49.2238 H   0  0  0  0  0  0  0  0  0  0  0  0
   60.7444   34.7649   48.6194 H   0  0  0  0  0  0  0  0  0  0  0  0
   59.2498   35.7613   48.6194 H   0  0  0  0  0  0  0  0  0  0  0  0
   58.3812   30.6650   46.7507 H   0  0  0  0  0  0  0  0  0  0  0  0
   57.3610   28.1000   47.3490 H   0  0  0  0  0  0  0  0  0  0  0  0
   61.0105   29.3750   46.4812 H   0  0  0  0  0  0  0  0  0  0  0  0
   62.7756   31.1045   46.1397 H   0  0  0  0  0  0  0  0  0  0  0  0
   59.9069   31.2351   50.2326 H   0  0  0  0  0  0  0  0  0  0  0  0
   61.1916   34.1617   49.8175 H   0  0  0  0  0  0  0  0  0  0  0  0
   61.3733   32.9378   51.1348 H   0  0  0  0  0  0  0  0  0  0  0  0
   62.9039   32.1779   53.0295 H   0  0  0  0  0  0  0  0  0  0  0  0
   62.3803   33.2202   54.4095 H   0  0  0  0  0  0  0  0  0  0  0  0
   61.1021   30.6479   52.7961 H   0  0  0  0  0  0  0  0  0  0  0  0
   58.7034   30.2451   52.2336 H   0  0  0  0  0  0  0  0  0  0  0  0
   57.1095   32.1628   52.1006 H   0  0  0  0  0  0  0  0  0  0  0  0
   57.9155   34.4889   52.5101 H   0  0  0  0  0  0  0  0  0  0  0  0
   60.3120   34.9043   53.0750 H   0  0  0  0  0  0  0  0  0  0  0  0
   64.6988   34.3920   49.0660 H   0  0  0  0  0  0  0  0  0  0  0  0
   64.7641   32.6031   49.3909 H   0  0  0  0  0  0  0  0  0  0  0  0
   62.9302   34.1034   47.4735 H   0  0  0  0  0  0  0  0  0  0  0  0
   64.1491   32.8272   47.1027 H   0  0  0  0  0  0  0  0  0  0  0  0
   58.7642   23.9933   45.4214 H   0  0  0  0  0  0  0  0  0  0  0  0
   59.2863   24.5797   47.0657 H   0  0  0  0  0  0  0  0  0  0  0  0
   57.1990   22.8097   46.5465 H   0  0  0  0  0  0  0  0  0  0  0  0
   57.4754   23.7832   48.0677 H   0  0  0  0  0  0  0  0  0  0  0  0
  1  2  1  0
  2  3  1  0
  3  4  1  0
  4  5  1  0
  5  6  1  0
  6  7  2  0
  6  8  1  0
  8  9  1  0
  9 10  1  0
 10 11  2  0
 11 12  1  0
 12 13  2  0
 13 14  1  0
 14 15  1  0
 15 16  2  0
 15 17  1  0
 17 18  1  0
 17 19  1  0
 14 20  2  0
  8 21  1  0
 21 22  1  0
 22 23  2  0
 22 24  2  0
 22 25  1  0
 25 26  2  0
 26 27  1  0
 27 28  2  0
 28 29  1  0
 29 30  2  0
 29 31  1  0
 31 32  1  0
 32 33  1  0
 33 34  2  0
 33 35  1  0
 35 36  1  0
 36 37  1  0
 37 38  2  0
 38 39  1  0
 39 40  2  0
 40 41  1  0
 41 42  2  0
 32 43  1  0
 43 44  1  0
  5 45  1  0
 45 46  1  0
 46  2  1  0
 20 10  1  0
 30 25  1  0
 42 37  1  0
 44 28  1  0
  1 47  1  0
  1 48  1  0
  1 49  1  0
  3 50  1  0
  3 51  1  0
  4 52  1  0
  4 53  1  0
  8 54  1  1
  9 55  1  0
  9 56  1  0
 11 57  1  0
 12 58  1  0
 13 59  1  0
 18 60  1  0
 18 61  1  0
 18 62  1  0
 19 63  1  0
 19 64  1  0
 19 65  1  0
 20 66  1  0
 21 67  1  0
 26 68  1  0
 27 69  1  0
 30 70  1  0
 31 71  1  0
 31 72  1  0
 36 73  1  0
 36 74  1  0
 38 75  1  0
 39 76  1  0
 40 77  1  0
 41 78  1  0
 42 79  1  0
 43 80  1  0
 43 81  1  0
 44 82  1  0
 44 83  1  0
 45 84  1  0
 45 85  1  0
 46 86  1  0
 46 87  1  0
M  END
>  <UniqueID>  (74) 
67

>  <SMILES>  (74) 
CN1CCN(C(=O)[C@@H](Cc2cccc(C(=O)N(C)C)c2)NS(=O)(=O)c2ccc3c(c2)CN(C(=O)OCc2ccccc2)CC3)CC1

>  <Energy>  (74) 
94.38720147056421

>  <Genealogy>  (74) 
CN1CCN(C(=O)[C@@H](Cc2cccc(C(=O)N(C)C)c2)NS(=O)(=O)c2ccc3c(c2)CN(C(=O)OCc2ccccc2)CC3)CC1 (chirality)
CN1CCN(C(=O)[C@@H](Cc2cccc(C(=O)N(C)C)c2)NS(=O)(=O)c2ccc3c(c2)CN(C(=O)OCc2ccccc2)CC3)CC1 (3D coordinates assigned)
CN1CCN(C(=O)[C@@H](Cc2cccc(C(=O)N(C)C)c2)NS(=O)(=O)c2ccc3c(c2)CN(C(=O)OCc2ccccc2)CC3)CC1 (nonaromatic ring conformer: 94.38720147056421 kcal/mol)

>  <smiles>  (74) 
CN1CCN(C(=O)C(Cc2cccc(C(=O)N(C)C)c2)NS(=O)(=O)c2ccc3c(c2)CN(C(=O)OCc2ccccc2)CC3)CC1

>  <score_type>  (74) 
oracle

>  <origin>  (74) 
adg

>  <m_score__min__energy>  (74) 
-12.869999999999999

>  <m_primary>  (74) 
energy

$$$$
74:0
     RDKit          3D

 37 40  0  0  0  0  0  0  0  0999 V2000
   56.6640   26.7570   46.0550 C   0  0  0  0  0  0  0  0  0  0  0  0
   57.8310   27.7150   46.0890 C   0  0  0  0  0  0  0  0  0  0  0  0
   59.0360   27.2540   46.6490 C   0  0  0  0  0  0  0  0  0  0  0  0
   60.1560   28.0770   46.7150 C   0  0  0  0  0  0  0  0  0  0  0  0
   60.1000   29.3780   46.2270 C   0  0  0  0  0  0  0  0  0  0  0  0
   58.9170   29.8750   45.6640 C   0  0  0  0  0  0  0  0  0  0  0  0
   58.8900   31.1540   45.1880 N   0  0  0  0  0  0  0  0  0  0  0  0
   57.7810   31.6850   44.6050 C   0  0  0  0  0  0  0  0  0  0  0  0
   57.8270   33.0660   44.0090 C   0  0  0  0  0  0  0  0  0  0  0  0
   57.3610   34.3320   45.2430 S   0  0  0  0  0  0  0  0  0  0  0  0
   58.8770   34.1870   46.1840 C   0  0  0  0  0  0  0  0  0  0  0  0
   60.0640   33.8450   45.6200 N   0  0  0  0  0  0  0  0  0  0  0  0
   60.8770   33.8170   46.6890 C   0  0  0  0  0  0  0  0  0  0  0  0
   62.2330   33.4990   46.7250 C   0  0  0  0  0  0  0  0  0  0  0  0
   62.8750   33.5240   47.9780 C   0  0  0  0  0  0  0  0  0  0  0  0
   62.1530   33.8630   49.1460 C   0  0  0  0  0  0  0  0  0  0  0  0
   60.7830   34.1760   49.0710 C   0  0  0  0  0  0  0  0  0  0  0  0
   60.1830   34.1380   47.8160 C   0  0  0  0  0  0  0  0  0  0  0  0
   58.9400   34.3690   47.4920 O   0  0  0  0  0  0  0  0  0  0  0  0
   56.6230   30.9140   44.4930 C   0  0  0  0  0  0  0  0  0  0  0  0
   56.6010   29.6070   44.9790 C   0  0  0  0  0  0  0  0  0  0  0  0
   55.5330   28.9500   44.8600 O   0  0  0  0  0  0  0  0  0  0  0  0
   57.7600   29.0490   45.5790 C   0  0  0  0  0  0  0  0  0  0  0  0
   56.3626   26.5096   47.0836 H   0  0  0  0  0  0  0  0  0  0  0  0
   55.8198   27.2260   45.5283 H   0  0  0  0  0  0  0  0  0  0  0  0
   56.9596   25.8376   45.5283 H   0  0  0  0  0  0  0  0  0  0  0  0
   59.0939   26.2277   47.0406 H   0  0  0  0  0  0  0  0  0  0  0  0
   61.0897   27.6969   47.1551 H   0  0  0  0  0  0  0  0  0  0  0  0
   60.9905   30.0213   46.2833 H   0  0  0  0  0  0  0  0  0  0  0  0
   59.7540   31.7410   45.2540 H   0  0  0  0  0  0  0  0  0  0  0  0
   58.8477   33.2698   43.6532 H   0  0  0  0  0  0  0  0  0  0  0  0
   57.1106   33.1106   43.1754 H   0  0  0  0  0  0  0  0  0  0  0  0
   62.7819   33.2380   45.8082 H   0  0  0  0  0  0  0  0  0  0  0  0
   63.9449   33.2783   48.0489 H   0  0  0  0  0  0  0  0  0  0  0  0
   62.6655   33.8821   50.1191 H   0  0  0  0  0  0  0  0  0  0  0  0
   60.2080   34.4407   49.9706 H   0  0  0  0  0  0  0  0  0  0  0  0
   55.7251   31.3384   44.0201 H   0  0  0  0  0  0  0  0  0  0  0  0
  1  2  1  0
  2  3  2  0
  3  4  1  0
  4  5  2  0
  5  6  1  0
  6  7  1  0
  7  8  1  0
  8  9  1  0
  9 10  1  0
 10 11  1  0
 11 12  2  0
 12 13  1  0
 13 14  2  0
 14 15  1  0
 15 16  2  0
 16 17  1  0
 17 18  2  0
 18 19  1  0
  8 20  2  0
 20 21  1  0
 21 22  2  0
 21 23  1  0
 23  2  1  0
 23  6  2  0
 19 11  1  0
 18 13  1  0
  1 24  1  0
  1 25  1  0
  1 26  1  0
  3 27  1  0
  4 28  1  0
  5 29  1  0
  7 30  1  0
  9 31  1  0
  9 32  1  0
 14 33  1  0
 15 34  1  0
 16 35  1  0
 17 36  1  0
 20 37  1  0
M  END
>  <UniqueID>  (75) 
68

>  <SMILES>  (75) 
Cc1cccc2[nH]c(CSc3nc4ccccc4o3)cc(=O)c12

>  <Energy>  (75) 
81.95454276886551

>  <Genealogy>  (75) 
Cc1cccc2[nH]c(CSc3nc4ccccc4o3)cc(=O)c12 (3D coordinates assigned)
Cc1cccc2[nH]c(CSc3nc4ccccc4o3)cc(=O)c12 (optimized conformer: 81.95454276886551 kcal/mol)

>  <smiles>  (75) 
Cc1cccc2[nH]c(CSc3nc4ccccc4o3)cc(=O)c12

>  <score_type>  (75) 
oracle

>  <origin>  (75) 
adg

>  <m_score__min__energy>  (75) 
-8.2599999999999998

>  <m_primary>  (75) 
energy

$$$$
75:0
     RDKit          3D

 34 36  0  0  0  0  0  0  0  0999 V2000
   55.9200   28.6320   43.8060 H   0  0  0  0  0  0  0  0  0  0  0  0
   55.8600   28.6920   44.8140 O   0  0  0  0  0  0  0  0  0  0  0  0
   56.2630   27.6410   45.6340 C   0  0  0  0  0  0  0  0  0  0  0  0
   55.4780   26.5890   45.9220 N   0  0  0  0  0  0  0  0  0  0  0  0
   56.2850   25.8070   46.6680 C   0  0  0  0  0  0  0  0  0  0  0  0
   55.9120   24.7000   47.1370 O   0  0  0  0  0  0  0  0  0  0  0  0
   57.5270   26.2990   46.8660 N   0  0  0  0  0  0  0  0  0  0  0  0
   57.5010   27.4790   46.2240 C   0  0  0  0  0  0  0  0  0  0  0  0
   58.6690   28.3700   46.1270 C   0  0  0  0  0  0  0  0  0  0  0  0
   59.6654   27.9408   46.3085 H   0  0  0  0  0  0  0  0  0  0  0  0
   58.5870   29.6750   45.8300 C   0  0  0  0  0  0  0  0  0  0  0  0
   59.0150   30.6930   46.6630 C   0  0  0  0  0  0  0  0  0  0  0  0
   59.4855   30.5820   47.6511 H   0  0  0  0  0  0  0  0  0  0  0  0
   58.7340   31.8790   46.0070 C   0  0  0  0  0  0  0  0  0  0  0  0
   59.0940   33.2520   46.5070 C   0  0  0  0  0  0  0  0  0  0  0  0
   59.1624   33.9416   45.6527 H   0  0  0  0  0  0  0  0  0  0  0  0
   58.3159   33.5902   47.2071 H   0  0  0  0  0  0  0  0  0  0  0  0
   60.4200   33.2230   47.2290 C   0  0  0  0  0  0  0  0  0  0  0  0
   61.6000   33.4510   46.4990 C   0  0  0  0  0  0  0  0  0  0  0  0
   61.5400   33.6758   45.4239 H   0  0  0  0  0  0  0  0  0  0  0  0
   62.8480   33.3950   47.1250 C   0  0  0  0  0  0  0  0  0  0  0  0
   63.7634   33.5779   46.5431 H   0  0  0  0  0  0  0  0  0  0  0  0
   62.9340   33.1070   48.4890 C   0  0  0  0  0  0  0  0  0  0  0  0
   64.5010   33.0360   49.2730 Cl  0  0  0  0  0  0  0  0  0  0  0  0
   61.7710   32.8750   49.2270 C   0  0  0  0  0  0  0  0  0  0  0  0
   61.8419   32.6491   50.3012 H   0  0  0  0  0  0  0  0  0  0  0  0
   60.5150   32.9280   48.6090 C   0  0  0  0  0  0  0  0  0  0  0  0
   59.0940   32.6330   49.6060 Cl  0  0  0  0  0  0  0  0  0  0  0  0
   58.1410   31.5260   44.7990 C   0  0  0  0  0  0  0  0  0  0  0  0
   57.6970   32.3570   43.8540 C   0  0  0  0  0  0  0  0  0  0  0  0
   57.7978   33.4444   43.9862 H   0  0  0  0  0  0  0  0  0  0  0  0
   57.2302   31.9546   42.9429 H   0  0  0  0  0  0  0  0  0  0  0  0
   58.0490   30.1850   44.7010 N   0  0  0  0  0  0  0  0  0  0  0  0
   57.6150   29.6570   43.9110 H   0  0  0  0  0  0  0  0  0  0  0  0
  1  2  1  0
  2  3  1  0
  3  4  1  0
  4  5  1  0
  5  6  2  0
  5  7  1  0
  7  8  1  0
  8  9  1  0
  9 10  1  0
  9 11  2  0
 11 12  1  0
 12 13  1  0
 12 14  2  0
 14 15  1  0
 15 16  1  0
 15 17  1  0
 15 18  1  0
 18 19  2  0
 19 20  1  0
 19 21  1  0
 21 22  1  0
 21 23  2  0
 23 24  1  0
 23 25  1  0
 25 26  1  0
 25 27  2  0
 27 28  1  0
 14 29  1  0
 29 30  2  0
 30 31  1  0
 30 32  1  0
 29 33  1  0
 33 34  1  0
  8  3  2  0
 33 11  1  0
 27 18  1  0
M  CHG  2   4  -1   7  -1
M  END
>  <UniqueID>  (76) 
69

>  <SMILES>  (76) 
C=c1[nH]/c(=C\c2[n-]c(=O)[n-]c2O)cc1Cc1ccc(Cl)cc1Cl

>  <Energy>  (76) 
97.43884032362654

>  <Genealogy>  (76) 
C=c1[nH]c(=Cc2[n-]c(=O)[n-]c2O)cc1Cc1ccc(Cl)cc1Cl (protonated)
C=c1[nH]/c(=C\c2[n-]c(=O)[n-]c2O)cc1Cc1ccc(Cl)cc1Cl (cis-trans isomerization)
C=c1[nH]/c(=C\c2[n-]c(=O)[n-]c2O)cc1Cc1ccc(Cl)cc1Cl (3D coordinates assigned)
C=c1[nH]/c(=C\c2[n-]c(=O)[n-]c2O)cc1Cc1ccc(Cl)cc1Cl (optimized conformer: 97.43884032362654 kcal/mol)

>  <smiles>  (76) 
C=c1[nH]c(=Cc2[nH]c(=O)[nH]c2O)cc1Cc1ccc(Cl)cc1Cl

>  <score_type>  (76) 
oracle

>  <origin>  (76) 
adg

>  <m_score__min__energy>  (76) 
-13.19

>  <m_primary>  (76) 
energy

$$$$
76:0
     RDKit          3D

 52 55  0  0  0  0  0  0  0  0999 V2000
   54.4530   30.3750   51.3770 C   0  0  0  0  0  0  0  0  0  0  0  0
   54.2100   30.3150   52.6960 C   0  0  0  0  0  0  0  0  0  0  0  0
   52.9670   30.4320   53.3430 C   0  0  0  0  0  0  0  0  0  0  0  0
   51.7440   30.7420   52.8690 C   0  0  0  0  0  0  0  0  0  0  0  0
   51.4220   31.0870   51.4780 C   0  0  0  0  0  0  0  0  0  0  0  0
   51.1580   32.3400   51.0680 N   0  0  0  0  0  0  0  0  0  0  0  0
   51.0210   32.2090   49.7310 C   0  0  0  0  0  0  0  0  0  0  0  0
   50.7500   33.1800   48.9800 O   0  0  0  0  0  0  0  0  0  0  0  0
   51.2090   30.9570   49.2620 N   0  0  0  0  0  0  0  0  0  0  0  0
   51.4770   30.2570   50.3770 C   0  0  0  0  0  0  0  0  0  0  0  0
   51.7870   28.9000   50.3730 O   0  0  0  0  0  0  0  0  0  0  0  0
   53.2030   30.1700   54.6830 C   0  0  0  0  0  0  0  0  0  0  0  0
   54.5580   29.9560   54.8190 C   0  0  0  0  0  0  0  0  0  0  0  0
   55.2480   29.6160   56.1060 C   0  0  0  0  0  0  0  0  0  0  0  0
   55.1690   30.0430   53.6180 N   0  0  0  0  0  0  0  0  0  0  0  0
   56.5700   29.8190   53.3870 C   0  0  0  0  0  0  0  0  0  0  0  0
   57.0240   28.6450   53.4690 O   0  0  0  0  0  0  0  0  0  0  0  0
   57.4480   30.9090   53.0380 N   0  0  0  0  0  0  0  0  0  0  0  0
   58.9050   30.7440   53.0780 C   0  0  0  0  0  0  0  0  0  0  0  0
   59.4350   30.6460   51.6480 C   0  0  0  0  0  0  0  0  0  0  0  0
   58.9100   31.7620   50.8460 N   0  0  0  0  0  0  0  0  0  0  0  0
   59.8010   32.5640   50.0450 C   0  0  0  0  0  0  0  0  0  0  0  0
   60.9540   32.8330   50.4800 O   0  0  0  0  0  0  0  0  0  0  0  0
   59.3910   33.1020   48.7290 C   0  0  0  0  0  0  0  0  0  0  0  0
   59.6790   34.4400   48.4030 C   0  0  0  0  0  0  0  0  0  0  0  0
   59.2970   34.9630   47.1650 C   0  0  0  0  0  0  0  0  0  0  0  0
   58.6380   34.1560   46.2360 C   0  0  0  0  0  0  0  0  0  0  0  0
   58.3640   32.8200   46.5420 C   0  0  0  0  0  0  0  0  0  0  0  0
   58.7430   32.2900   47.7790 C   0  0  0  0  0  0  0  0  0  0  0  0
   58.5180   30.9740   48.0260 F   0  0  0  0  0  0  0  0  0  0  0  0
   57.4590   32.0080   50.8530 C   0  0  0  0  0  0  0  0  0  0  0  0
   56.9460   32.0710   52.2940 C   0  0  0  0  0  0  0  0  0  0  0  0
   55.4814   30.2671   51.0017 H   0  0  0  0  0  0  0  0  0  0  0  0
   53.6237   30.5321   50.6716 H   0  0  0  0  0  0  0  0  0  0  0  0
   50.9121   30.7361   53.5886 H   0  0  0  0  0  0  0  0  0  0  0  0
   51.9480   28.3920   51.2330 H   0  0  0  0  0  0  0  0  0  0  0  0
   52.4517   30.1387   55.4859 H   0  0  0  0  0  0  0  0  0  0  0  0
   54.6182   29.9263   56.9528 H   0  0  0  0  0  0  0  0  0  0  0  0
   55.4190   28.5305   56.1547 H   0  0  0  0  0  0  0  0  0  0  0  0
   56.2130   30.1418   56.1547 H   0  0  0  0  0  0  0  0  0  0  0  0
   59.3603   31.6096   53.5814 H   0  0  0  0  0  0  0  0  0  0  0  0
   59.1599   29.8285   53.6319 H   0  0  0  0  0  0  0  0  0  0  0  0
   60.5340   30.6911   51.6617 H   0  0  0  0  0  0  0  0  0  0  0  0
   59.1093   29.6939   51.2037 H   0  0  0  0  0  0  0  0  0  0  0  0
   60.2078   35.0778   49.1267 H   0  0  0  0  0  0  0  0  0  0  0  0
   59.5161   36.0132   46.9218 H   0  0  0  0  0  0  0  0  0  0  0  0
   58.3345   34.5713   45.2637 H   0  0  0  0  0  0  0  0  0  0  0  0
   57.8487   32.1837   45.8074 H   0  0  0  0  0  0  0  0  0  0  0  0
   57.2489   32.9631   50.3494 H   0  0  0  0  0  0  0  0  0  0  0  0
   56.9510   31.1880   50.3242 H   0  0  0  0  0  0  0  0  0  0  0  0
   57.3032   32.9954   52.7713 H   0  0  0  0  0  0  0  0  0  0  0  0
   55.8460   32.0624   52.2947 H   0  0  0  0  0  0  0  0  0  0  0  0
  1  2  2  0
  2  3  1  0
  3  4  2  3
  4  5  1  0
  5  6  1  0
  6  7  1  0
  7  8  2  0
  7  9  1  0
  9 10  1  0
 10 11  1  0
  3 12  1  0
 12 13  2  0
 13 14  1  0
 13 15  1  0
 15 16  1  0
 16 17  2  0
 16 18  1  0
 18 19  1  0
 19 20  1  0
 20 21  1  0
 21 22  1  0
 22 23  2  0
 22 24  1  0
 24 25  2  0
 25 26  1  0
 26 27  2  0
 27 28  1  0
 28 29  2  0
 29 30  1  0
 21 31  1  0
 31 32  1  0
 15  2  1  0
 32 18  1  0
 10  5  2  0
 29 24  1  0
  1 33  1  0
  1 34  1  0
  4 35  1  0
 11 36  1  0
 12 37  1  0
 14 38  1  0
 14 39  1  0
 14 40  1  0
 19 41  1  0
 19 42  1  0
 20 43  1  0
 20 44  1  0
 25 45  1  0
 26 46  1  0
 27 47  1  0
 28 48  1  0
 31 49  1  0
 31 50  1  0
 32 51  1  0
 32 52  1  0
M  CHG  2   6  -1   9  -1
M  END
>  <UniqueID>  (77) 
70

>  <SMILES>  (77) 
C=c1c(=Cc2[n-]c(=O)[n-]c2O)cc(C)n1C(=O)N1CCN(C(=O)c2ccccc2F)CC1

>  <Energy>  (77) 
136.04757038092214

>  <Genealogy>  (77) 
C=c1c(=Cc2[n-]c(=O)[n-]c2O)cc(C)n1C(=O)N1CCN(C(=O)c2ccccc2F)CC1 (protonated)
C=c1c(=Cc2[n-]c(=O)[n-]c2O)cc(C)n1C(=O)N1CCN(C(=O)c2ccccc2F)CC1 (3D coordinates assigned)
C=c1c(=Cc2[n-]c(=O)[n-]c2O)cc(C)n1C(=O)N1CCN(C(=O)c2ccccc2F)CC1 (nonaromatic ring conformer: 136.04757038092214 kcal/mol)

>  <smiles>  (77) 
C=c1c(=Cc2[nH]c(=O)[nH]c2O)cc(C)n1C(=O)N1CCN(C(=O)c2ccccc2F)CC1

>  <score_type>  (77) 
oracle

>  <origin>  (77) 
adg

>  <m_score__min__energy>  (77) 
-13

>  <m_primary>  (77) 
energy

$$$$
77:0
     RDKit          3D

 57 61  0  0  0  0  0  0  0  0999 V2000
   61.1420   31.4380   47.5100 O   0  0  0  0  0  0  0  0  0  0  0  0
   60.1620   32.0650   47.9960 C   0  0  0  0  0  0  0  0  0  0  0  0
   59.7580   31.7940   49.3940 C   0  0  0  0  0  0  0  0  0  0  0  0
   59.6690   32.8270   50.2260 O   0  0  0  0  0  0  0  0  0  0  0  0
   59.3530   32.7030   51.5090 C   0  0  0  0  0  0  0  0  0  0  0  0
   59.2830   33.8430   52.3170 C   0  0  0  0  0  0  0  0  0  0  0  0
   58.9570   33.7260   53.6700 C   0  0  0  0  0  0  0  0  0  0  0  0
   58.7000   32.4690   54.2250 C   0  0  0  0  0  0  0  0  0  0  0  0
   58.2560   32.3170   56.0770 Br  0  0  0  0  0  0  0  0  0  0  0  0
   58.7660   31.3220   53.4260 C   0  0  0  0  0  0  0  0  0  0  0  0
   59.0940   31.4300   52.0610 C   0  0  0  0  0  0  0  0  0  0  0  0
   59.1600   30.3110   51.2160 C   0  0  0  0  0  0  0  0  0  0  0  0
   58.9080   29.1580   51.6650 O   0  0  0  0  0  0  0  0  0  0  0  0
   59.4880   30.4850   49.8590 C   0  0  0  0  0  0  0  0  0  0  0  0
   59.4710   29.3250   48.9370 C   0  0  0  0  0  0  0  0  0  0  0  0
   58.5240   29.2600   47.9010 C   0  0  0  0  0  0  0  0  0  0  0  0
   58.5120   28.1710   47.0250 C   0  0  0  0  0  0  0  0  0  0  0  0
   59.4410   27.1370   47.1800 C   0  0  0  0  0  0  0  0  0  0  0  0
   59.4260   25.7730   46.0780 Cl  0  0  0  0  0  0  0  0  0  0  0  0
   60.3820   27.1920   48.2150 C   0  0  0  0  0  0  0  0  0  0  0  0
   60.3950   28.2800   49.0930 C   0  0  0  0  0  0  0  0  0  0  0  0
   59.4580   33.0360   47.1940 N   0  0  0  0  0  0  0  0  0  0  0  0
   58.0760   33.4090   47.5210 C   0  0  0  0  0  0  0  0  0  0  0  0
   57.3180   33.8590   46.2610 C   0  0  0  0  0  0  0  0  0  0  0  0
   57.7940   33.1530   45.0430 N   0  0  0  0  0  0  0  0  0  0  0  0
   57.6050   31.6660   45.0970 C   0  0  2  0  0  0  0  0  0  0  0  0
   58.7390   30.8900   44.3730 C   0  0  0  0  0  0  0  0  0  0  0  0
   58.2820   29.4550   44.1200 C   0  0  0  0  0  0  0  0  0  0  0  0
   56.5310   29.5420   43.9470 S   0  0  0  0  0  0  0  0  0  0  0  0
   55.8350   28.5860   44.8750 O   0  0  0  0  0  0  0  0  0  0  0  0
   56.1020   29.3120   42.5250 O   0  0  0  0  0  0  0  0  0  0  0  0
   56.2840   31.2180   44.4370 C   0  0  0  0  0  0  0  0  0  0  0  0
   59.2010   33.5560   44.7650 C   0  0  0  0  0  0  0  0  0  0  0  0
   60.0960   33.6510   46.0250 C   0  0  0  0  0  0  0  0  0  0  0  0
   59.4853   34.8344   51.8854 H   0  0  0  0  0  0  0  0  0  0  0  0
   58.9023   34.6256   54.3007 H   0  0  0  0  0  0  0  0  0  0  0  0
   58.5613   30.3344   53.8651 H   0  0  0  0  0  0  0  0  0  0  0  0
   57.7892   30.0694   47.7789 H   0  0  0  0  0  0  0  0  0  0  0  0
   57.7713   28.1271   46.2130 H   0  0  0  0  0  0  0  0  0  0  0  0
   61.1120   26.3783   48.3376 H   0  0  0  0  0  0  0  0  0  0  0  0
   61.1319   28.3172   49.9088 H   0  0  0  0  0  0  0  0  0  0  0  0
   57.5625   32.5407   47.9597 H   0  0  0  0  0  0  0  0  0  0  0  0
   58.0966   34.2442   48.2366 H   0  0  0  0  0  0  0  0  0  0  0  0
   56.2468   33.6494   46.3972 H   0  0  0  0  0  0  0  0  0  0  0  0
   57.4984   34.9352   46.1222 H   0  0  0  0  0  0  0  0  0  0  0  0
   57.2110   33.5120   44.2490 H   0  0  0  0  0  0  0  0  0  0  0  0
   57.6049   31.4331   46.1721 H   0  0  0  0  0  0  0  0  0  0  0  0
   58.9652   31.3788   43.4139 H   0  0  0  0  0  0  0  0  0  0  0  0
   59.6428   30.8853   45.0000 H   0  0  0  0  0  0  0  0  0  0  0  0
   58.7401   29.0622   43.2003 H   0  0  0  0  0  0  0  0  0  0  0  0
   58.5782   28.7822   44.9383 H   0  0  0  0  0  0  0  0  0  0  0  0
   56.0630   31.8442   43.5601 H   0  0  0  0  0  0  0  0  0  0  0  0
   55.4343   31.3150   45.1288 H   0  0  0  0  0  0  0  0  0  0  0  0
   59.6435   32.8151   44.0829 H   0  0  0  0  0  0  0  0  0  0  0  0
   59.1601   34.5656   44.3301 H   0  0  0  0  0  0  0  0  0  0  0  0
   61.0470   33.1353   45.8259 H   0  0  0  0  0  0  0  0  0  0  0  0
   60.2624   34.7155   46.2468 H   0  0  0  0  0  0  0  0  0  0  0  0
  1  2  2  0
  2  3  1  0
  3  4  1  0
  4  5  1  0
  5  6  2  0
  6  7  1  0
  7  8  2  0
  8  9  1  0
  8 10  1  0
 10 11  2  0
 11 12  1  0
 12 13  2  0
 12 14  1  0
 14 15  1  0
 15 16  2  0
 16 17  1  0
 17 18  2  0
 18 19  1  0
 18 20  1  0
 20 21  2  0
  2 22  1  0
 22 23  1  0
 23 24  1  0
 24 25  1  0
 25 26  1  0
 26 27  1  0
 27 28  1  0
 28 29  1  0
 29 30  2  0
 29 31  2  0
 29 32  1  0
 25 33  1  0
 33 34  1  0
 14  3  2  0
 21 15  1  0
 34 22  1  0
 11  5  1  0
 32 26  1  0
  6 35  1  0
  7 36  1  0
 10 37  1  0
 16 38  1  0
 17 39  1  0
 20 40  1  0
 21 41  1  0
 23 42  1  0
 23 43  1  0
 24 44  1  0
 24 45  1  0
 25 46  1  0
 26 47  1  1
 27 48  1  0
 27 49  1  0
 28 50  1  0
 28 51  1  0
 32 52  1  0
 32 53  1  0
 33 54  1  0
 33 55  1  0
 34 56  1  0
 34 57  1  0
M  CHG  1  25   1
M  END
>  <UniqueID>  (78) 
71

>  <SMILES>  (78) 
O=C(c1oc2ccc(Br)cc2c(=O)c1-c1ccc(Cl)cc1)N1CC[NH+]([C@@H]2CCS(=O)(=O)C2)CC1

>  <Energy>  (78) 
87.99477921612117

>  <Genealogy>  (78) 
O=C(c1oc2ccc(Br)cc2c(=O)c1-c1ccc(Cl)cc1)N1CC[NH+](C2CCS(=O)(=O)C2)CC1 (protonated)
O=C(c1oc2ccc(Br)cc2c(=O)c1-c1ccc(Cl)cc1)N1CC[NH+]([C@@H]2CCS(=O)(=O)C2)CC1 (chirality)
O=C(c1oc2ccc(Br)cc2c(=O)c1-c1ccc(Cl)cc1)N1CC[NH+]([C@@H]2CCS(=O)(=O)C2)CC1 (3D coordinates assigned)
O=C(c1oc2ccc(Br)cc2c(=O)c1-c1ccc(Cl)cc1)N1CC[NH+]([C@@H]2CCS(=O)(=O)C2)CC1 (nonaromatic ring conformer: 87.99477921612117 kcal/mol)

>  <smiles>  (78) 
O=C(c1oc2ccc(Br)cc2c(=O)c1-c1ccc(Cl)cc1)N1CCN(C2CCS(=O)(=O)C2)CC1

>  <score_type>  (78) 
oracle

>  <origin>  (78) 
adg

>  <m_score__min__energy>  (78) 
-7.0700000000000003

>  <m_primary>  (78) 
energy

$$$$
78:0
     RDKit          3D

 51 53  0  0  0  0  0  0  0  0999 V2000
   59.1900   35.2460   44.7520 O   0  0  0  0  0  0  0  0  0  0  0  0
   58.7180   34.1830   45.2430 C   0  0  0  0  0  0  0  0  0  0  0  0
   57.3350   33.7500   44.8680 C   0  0  0  0  0  0  0  0  0  0  0  0
   56.9750   32.5130   45.5640 N   0  0  0  0  0  0  0  0  0  0  0  0
   57.0240   31.1500   44.4840 S   0  0  0  0  0  0  0  0  0  0  0  0
   55.7170   30.4100   44.5390 O   0  0  0  0  0  0  0  0  0  0  0  0
   57.2450   31.6410   43.0800 O   0  0  0  0  0  0  0  0  0  0  0  0
   58.3360   30.0690   44.9200 C   0  0  0  0  0  0  0  0  0  0  0  0
   58.3410   28.7440   44.4700 C   0  0  0  0  0  0  0  0  0  0  0  0
   59.3910   27.9000   44.8390 C   0  0  0  0  0  0  0  0  0  0  0  0
   60.4190   28.3840   45.6520 C   0  0  0  0  0  0  0  0  0  0  0  0
   60.3800   29.7130   46.0800 C   0  0  0  0  0  0  0  0  0  0  0  0
   59.3500   30.5200   45.7110 N   0  0  0  0  0  0  0  0  0  0  0  0
   59.4880   33.4060   46.1740 N   0  0  0  0  0  0  0  0  0  0  0  0
   60.8260   33.8010   46.6340 C   0  0  0  0  0  0  0  0  0  0  0  0
   61.3180   32.9540   47.8680 C   0  0  0  0  0  0  0  0  0  0  0  0
   60.1970   32.0830   48.3760 N   0  0  0  0  0  0  0  0  0  0  0  0
   60.5800   30.7860   49.0030 C   0  0  0  0  0  0  0  0  0  0  0  0
   60.3180   30.7260   50.5120 C   0  0  0  0  0  0  0  0  0  0  0  0
   59.0050   31.1290   50.8140 O   0  0  0  0  0  0  0  0  0  0  0  0
   58.8740   32.4920   50.4970 C   0  0  0  0  0  0  0  0  0  0  0  0
   58.9910   32.7160   48.9870 C   0  0  0  0  0  0  0  0  0  0  0  0
   62.5560   32.0900   47.5260 C   0  0  0  0  0  0  0  0  0  0  0  0
   63.7600   32.7960   48.1260 C   0  0  0  0  0  0  0  0  0  0  0  0
   63.2260   33.5380   49.3340 C   0  0  0  0  0  0  0  0  0  0  0  0
   61.8230   33.9740   48.9400 C   0  0  0  0  0  0  0  0  0  0  0  0
   56.6216   34.5406   45.1437 H   0  0  0  0  0  0  0  0  0  0  0  0
   57.3023   33.5688   43.7835 H   0  0  0  0  0  0  0  0  0  0  0  0
   57.5262   28.3709   43.8321 H   0  0  0  0  0  0  0  0  0  0  0  0
   59.4085   26.8569   44.4904 H   0  0  0  0  0  0  0  0  0  0  0  0
   61.2487   27.7267   45.9513 H   0  0  0  0  0  0  0  0  0  0  0  0
   61.1849   30.1078   46.7174 H   0  0  0  0  0  0  0  0  0  0  0  0
   59.0690   32.5200   46.5340 H   0  0  0  0  0  0  0  0  0  0  0  0
   61.5376   33.6638   45.8065 H   0  0  0  0  0  0  0  0  0  0  0  0
   60.7714   34.8524   46.9526 H   0  0  0  0  0  0  0  0  0  0  0  0
   60.0040   29.9836   48.5190 H   0  0  0  0  0  0  0  0  0  0  0  0
   61.6648   30.6704   48.8618 H   0  0  0  0  0  0  0  0  0  0  0  0
   60.4664   29.6937   50.8617 H   0  0  0  0  0  0  0  0  0  0  0  0
   61.0178   31.4090   51.0157 H   0  0  0  0  0  0  0  0  0  0  0  0
   57.8910   32.8483   50.8387 H   0  0  0  0  0  0  0  0  0  0  0  0
   59.6800   33.0482   50.9980 H   0  0  0  0  0  0  0  0  0  0  0  0
   58.0965   32.2962   48.5037 H   0  0  0  0  0  0  0  0  0  0  0  0
   59.0842   33.8008   48.8302 H   0  0  0  0  0  0  0  0  0  0  0  0
   62.4494   31.0856   47.9617 H   0  0  0  0  0  0  0  0  0  0  0  0
   62.6680   31.9720   46.4381 H   0  0  0  0  0  0  0  0  0  0  0  0
   64.5239   32.0650   48.4293 H   0  0  0  0  0  0  0  0  0  0  0  0
   64.2387   33.4755   47.4054 H   0  0  0  0  0  0  0  0  0  0  0  0
   63.1928   32.8752   50.2112 H   0  0  0  0  0  0  0  0  0  0  0  0
   63.8622   34.3923   49.6085 H   0  0  0  0  0  0  0  0  0  0  0  0
   61.1610   33.9592   49.8184 H   0  0  0  0  0  0  0  0  0  0  0  0
   61.8256   34.9986   48.5399 H   0  0  0  0  0  0  0  0  0  0  0  0
  1  2  2  0
  2  3  1  0
  3  4  1  0
  4  5  1  0
  5  6  2  0
  5  7  2  0
  5  8  1  0
  8  9  2  0
  9 10  1  0
 10 11  2  0
 11 12  1  0
 12 13  2  0
  2 14  1  0
 14 15  1  0
 15 16  1  0
 16 17  1  0
 17 18  1  0
 18 19  1  0
 19 20  1  0
 20 21  1  0
 21 22  1  0
 16 23  1  0
 23 24  1  0
 24 25  1  0
 25 26  1  0
 13  8  1  0
 26 16  1  0
 22 17  1  0
  3 27  1  0
  3 28  1  0
  9 29  1  0
 10 30  1  0
 11 31  1  0
 12 32  1  0
 14 33  1  0
 15 34  1  0
 15 35  1  0
 18 36  1  0
 18 37  1  0
 19 38  1  0
 19 39  1  0
 21 40  1  0
 21 41  1  0
 22 42  1  0
 22 43  1  0
 23 44  1  0
 23 45  1  0
 24 46  1  0
 24 47  1  0
 25 48  1  0
 25 49  1  0
 26 50  1  0
 26 51  1  0
M  CHG  1   4  -1
M  END
>  <UniqueID>  (79) 
72

>  <SMILES>  (79) 
O=C(C[N-]S(=O)(=O)c1ccccn1)NCC1(N2CCOCC2)CCCC1

>  <Energy>  (79) 
76.27111351872307

>  <Genealogy>  (79) 
O=C(C[N-]S(=O)(=O)c1ccccn1)NCC1(N2CCOCC2)CCCC1 (protonated)
O=C(C[N-]S(=O)(=O)c1ccccn1)NCC1(N2CCOCC2)CCCC1 (3D coordinates assigned)
O=C(C[N-]S(=O)(=O)c1ccccn1)NCC1(N2CCOCC2)CCCC1 (nonaromatic ring conformer: 76.27111351872307 kcal/mol)

>  <smiles>  (79) 
O=C(CNS(=O)(=O)c1ccccn1)NCC1(N2CCOCC2)CCCC1

>  <score_type>  (79) 
oracle

>  <origin>  (79) 
adg

>  <m_score__min__energy>  (79) 
-9.8499999999999996

>  <m_primary>  (79) 
energy

$$$$
79:0
     RDKit          3D

 50 52  0  0  0  0  0  0  0  0999 V2000
   60.0020   28.1640   48.5630 C   0  0  0  0  0  0  0  0  0  0  0  0
   60.5010   27.2080   47.7750 C   0  0  0  0  0  0  0  0  0  0  0  0
   60.3020   27.2270   46.2840 C   0  0  0  0  0  0  0  0  0  0  0  0
   58.9550   27.7290   45.9450 N   0  0  0  0  0  0  0  0  0  0  0  0
   57.8680   26.8970   46.0590 C   0  0  0  0  0  0  0  0  0  0  0  0
   58.0000   25.7170   46.4850 O   0  0  0  0  0  0  0  0  0  0  0  0
   56.6300   27.3330   45.7140 N   0  0  0  0  0  0  0  0  0  0  0  0
   56.4260   28.5830   45.2320 C   0  0  0  0  0  0  0  0  0  0  0  0
   55.1420   28.9710   44.8710 O   0  0  0  0  0  0  0  0  0  0  0  0
   57.5090   29.4550   45.0820 C   0  0  0  0  0  0  0  0  0  0  0  0
   57.3120   30.8130   44.5090 C   0  0  0  0  0  0  0  0  0  0  0  0
   57.3340   30.9940   43.0240 C   0  0  0  0  0  0  0  0  0  0  0  0
   57.0570   31.8530   45.2570 N   0  0  0  0  0  0  0  0  0  0  0  0
   57.9980   32.8600   45.6650 C   0  0  0  0  0  0  0  0  0  0  0  0
   58.3570   33.8650   44.7600 C   0  0  0  0  0  0  0  0  0  0  0  0
   59.2480   34.8720   45.1420 C   0  0  0  0  0  0  0  0  0  0  0  0
   59.8130   34.8590   46.4190 C   0  0  0  0  0  0  0  0  0  0  0  0
   59.5240   33.8150   47.3090 C   0  0  0  0  0  0  0  0  0  0  0  0
   60.1010   33.8190   48.6640 C   0  0  0  0  0  0  0  0  0  0  0  0
   59.5640   34.5670   49.5260 O   0  0  0  0  0  0  0  0  0  0  0  0
   61.2910   33.0630   49.0230 N   0  0  0  0  0  0  0  0  0  0  0  0
   62.5360   33.7330   48.5790 C   0  0  0  0  0  0  0  0  0  0  0  0
   62.9590   33.3260   47.1590 C   0  0  0  0  0  0  0  0  0  0  0  0
   63.0330   31.9230   47.0390 O   0  0  0  0  0  0  0  0  0  0  0  0
   61.7450   31.3750   47.2110 C   0  0  0  0  0  0  0  0  0  0  0  0
   61.2310   31.6310   48.6380 C   0  0  0  0  0  0  0  0  0  0  0  0
   58.5980   32.8290   46.9360 C   0  0  0  0  0  0  0  0  0  0  0  0
   58.7830   29.0050   45.4680 C   0  0  0  0  0  0  0  0  0  0  0  0
   59.7690   29.7900   45.3780 O   0  0  0  0  0  0  0  0  0  0  0  0
   60.1650   28.1215   49.6500 H   0  0  0  0  0  0  0  0  0  0  0  0
   59.4280   28.9939   48.1250 H   0  0  0  0  0  0  0  0  0  0  0  0
   61.0727   26.3848   48.2283 H   0  0  0  0  0  0  0  0  0  0  0  0
   61.0577   27.8828   45.8269 H   0  0  0  0  0  0  0  0  0  0  0  0
   60.4050   26.2015   45.8997 H   0  0  0  0  0  0  0  0  0  0  0  0
   57.4636   32.0602   42.7865 H   0  0  0  0  0  0  0  0  0  0  0  0
   58.1689   30.4191   42.5969 H   0  0  0  0  0  0  0  0  0  0  0  0
   56.3857   30.6358   42.5969 H   0  0  0  0  0  0  0  0  0  0  0  0
   57.9363   33.8626   43.7436 H   0  0  0  0  0  0  0  0  0  0  0  0
   59.5044   35.6756   44.4359 H   0  0  0  0  0  0  0  0  0  0  0  0
   60.4875   35.6712   46.7278 H   0  0  0  0  0  0  0  0  0  0  0  0
   61.3220   33.0660   50.0720 H   0  0  0  0  0  0  0  0  0  0  0  0
   62.3758   34.8211   48.5994 H   0  0  0  0  0  0  0  0  0  0  0  0
   63.3395   33.4252   49.2643 H   0  0  0  0  0  0  0  0  0  0  0  0
   62.2214   33.7107   46.4393 H   0  0  0  0  0  0  0  0  0  0  0  0
   63.9532   33.7494   46.9534 H   0  0  0  0  0  0  0  0  0  0  0  0
   61.0559   31.8394   46.4903 H   0  0  0  0  0  0  0  0  0  0  0  0
   61.7976   30.2891   47.0437 H   0  0  0  0  0  0  0  0  0  0  0  0
   60.1859   31.2937   48.7008 H   0  0  0  0  0  0  0  0  0  0  0  0
   61.8817   31.0749   49.3289 H   0  0  0  0  0  0  0  0  0  0  0  0
   58.3398   32.0265   47.6427 H   0  0  0  0  0  0  0  0  0  0  0  0
  1  2  2  0
  2  3  1  0
  3  4  1  0
  4  5  1  0
  5  6  2  0
  5  7  1  0
  7  8  1  0
  8  9  1  0
  8 10  2  0
 10 11  1  0
 11 12  1  0
 11 13  2  3
 13 14  1  0
 14 15  2  0
 15 16  1  0
 16 17  2  0
 17 18  1  0
 18 19  1  0
 19 20  2  0
 19 21  1  0
 21 22  1  0
 22 23  1  0
 23 24  1  0
 24 25  1  0
 25 26  1  0
 18 27  2  0
 10 28  1  0
 28 29  2  0
 28  4  1  0
 27 14  1  0
 26 21  1  0
  1 30  1  0
  1 31  1  0
  2 32  1  0
  3 33  1  0
  3 34  1  0
 12 35  1  0
 12 36  1  0
 12 37  1  0
 15 38  1  0
 16 39  1  0
 17 40  1  0
 21 41  1  0
 22 42  1  0
 22 43  1  0
 23 44  1  0
 23 45  1  0
 25 46  1  0
 25 47  1  0
 26 48  1  0
 26 49  1  0
 27 50  1  0
M  CHG  3   7  -1   9  -1  21   1
M  END
>  <UniqueID>  (80) 
73

>  <SMILES>  (80) 
C=CCn1c(=O)[n-]c([O-])c(C(C)=Nc2cccc(C(=O)[NH+]3CCOCC3)c2)c1=O

>  <Energy>  (80) 
79.20359569829431

>  <Genealogy>  (80) 
C=CCn1c(=O)[n-]c([O-])c(C(C)=Nc2cccc(C(=O)[NH+]3CCOCC3)c2)c1=O (protonated)
C=CCn1c(=O)[n-]c([O-])c(C(C)=Nc2cccc(C(=O)[NH+]3CCOCC3)c2)c1=O (3D coordinates assigned)
C=CCn1c(=O)[n-]c([O-])c(C(C)=Nc2cccc(C(=O)[NH+]3CCOCC3)c2)c1=O (nonaromatic ring conformer: 79.20359569829431 kcal/mol)

>  <smiles>  (80) 
C=CCn1c(=O)[nH]c(O)c(C(C)=Nc2cccc(C(=O)N3CCOCC3)c2)c1=O

>  <score_type>  (80) 
oracle

>  <origin>  (80) 
adg

>  <m_score__min__energy>  (80) 
-12.91

>  <m_primary>  (80) 
energy

$$$$
80:0
     RDKit          3D

 60 63  0  0  0  0  0  0  0  0999 V2000
   57.8250   32.1210   43.6640 C   0  0  0  0  0  0  0  0  0  0  0  0
   57.8660   33.4650   44.2630 N   0  0  0  0  0  0  0  0  0  0  0  0
   59.2640   33.8560   44.5500 C   0  0  0  0  0  0  0  0  0  0  0  0
   59.3200   35.0130   45.5570 C   0  0  0  0  0  0  0  0  0  0  0  0
   58.6990   34.6590   46.8610 N   0  0  0  0  0  0  0  0  0  0  0  0
   59.7210   34.4070   47.8990 C   0  0  0  0  0  0  0  0  0  0  0  0
   59.7040   32.9600   48.3260 C   0  0  0  0  0  0  0  0  0  0  0  0
   58.9030   32.5370   49.3980 C   0  0  0  0  0  0  0  0  0  0  0  0
   58.9130   31.2000   49.8040 C   0  0  0  0  0  0  0  0  0  0  0  0
   59.7390   30.2680   49.1500 C   0  0  0  0  0  0  0  0  0  0  0  0
   59.7580   28.8800   49.5150 N   0  0  0  0  0  0  0  0  0  0  0  0
   59.9690   27.7690   48.6350 C   0  0  0  0  0  0  0  0  0  0  0  0
   60.5820   26.7460   49.0410 O   0  0  0  0  0  0  0  0  0  0  0  0
   59.5250   27.8500   47.2230 C   0  0  0  0  0  0  0  0  0  0  0  0
   60.4670   27.8520   46.1790 C   0  0  0  0  0  0  0  0  0  0  0  0
   60.0520   27.9780   44.8520 C   0  0  0  0  0  0  0  0  0  0  0  0
   58.6950   28.0900   44.5470 C   0  0  0  0  0  0  0  0  0  0  0  0
   57.7340   28.0570   45.5700 C   0  0  0  0  0  0  0  0  0  0  0  0
   56.2670   28.1790   45.2430 C   0  0  0  0  0  0  0  0  0  0  0  0
   55.5180   27.0710   45.8270 N   0  0  0  0  0  0  0  0  0  0  0  0
   56.0990   25.8090   46.1800 C   0  0  0  0  0  0  0  0  0  0  0  0
   56.5930   25.6450   47.3300 O   0  0  0  0  0  0  0  0  0  0  0  0
   56.1240   24.7000   45.1990 C   0  0  0  0  0  0  0  0  0  0  0  0
   57.3370   24.2670   44.6340 C   0  0  0  0  0  0  0  0  0  0  0  0
   57.3510   23.2110   43.7200 C   0  0  0  0  0  0  0  0  0  0  0  0
   56.1480   22.5890   43.3770 C   0  0  0  0  0  0  0  0  0  0  0  0
   56.1420   21.6310   42.5570 O   0  0  0  0  0  0  0  0  0  0  0  0
   54.9810   23.0150   43.9260 N   0  0  0  0  0  0  0  0  0  0  0  0
   54.9400   24.0420   44.8180 C   0  0  0  0  0  0  0  0  0  0  0  0
   58.1560   27.9490   46.9050 C   0  0  0  0  0  0  0  0  0  0  0  0
   60.5250   30.6900   48.0710 C   0  0  0  0  0  0  0  0  0  0  0  0
   60.5170   32.0280   47.6670 C   0  0  0  0  0  0  0  0  0  0  0  0
   57.7380   33.5330   46.7680 C   0  0  0  0  0  0  0  0  0  0  0  0
   56.9670   33.5620   45.4400 C   0  0  0  0  0  0  0  0  0  0  0  0
   57.8019   31.3644   44.4621 H   0  0  0  0  0  0  0  0  0  0  0  0
   56.9235   32.0245   43.0411 H   0  0  0  0  0  0  0  0  0  0  0  0
   58.7189   31.9697   43.0411 H   0  0  0  0  0  0  0  0  0  0  0  0
   59.8004   32.9909   44.9670 H   0  0  0  0  0  0  0  0  0  0  0  0
   59.7332   34.1871   43.6118 H   0  0  0  0  0  0  0  0  0  0  0  0
   60.3728   35.2818   45.7283 H   0  0  0  0  0  0  0  0  0  0  0  0
   58.7534   35.8550   45.1328 H   0  0  0  0  0  0  0  0  0  0  0  0
   60.7141   34.6522   47.4946 H   0  0  0  0  0  0  0  0  0  0  0  0
   59.4984   35.0358   48.7736 H   0  0  0  0  0  0  0  0  0  0  0  0
   58.2633   33.2625   49.9219 H   0  0  0  0  0  0  0  0  0  0  0  0
   58.2730   30.8753   50.6376 H   0  0  0  0  0  0  0  0  0  0  0  0
   61.5381   27.7536   46.4094 H   0  0  0  0  0  0  0  0  0  0  0  0
   60.7978   27.9890   44.0435 H   0  0  0  0  0  0  0  0  0  0  0  0
   58.3767   28.2047   43.5003 H   0  0  0  0  0  0  0  0  0  0  0  0
   55.8839   29.1275   45.6473 H   0  0  0  0  0  0  0  0  0  0  0  0
   56.1434   28.1544   44.1502 H   0  0  0  0  0  0  0  0  0  0  0  0
   58.2787   24.7622   44.9132 H   0  0  0  0  0  0  0  0  0  0  0  0
   58.2986   22.8729   43.2752 H   0  0  0  0  0  0  0  0  0  0  0  0
   53.9764   24.3593   45.2433 H   0  0  0  0  0  0  0  0  0  0  0  0
   57.4087   27.9416   47.7122 H   0  0  0  0  0  0  0  0  0  0  0  0
   61.1540   29.9626   47.5368 H   0  0  0  0  0  0  0  0  0  0  0  0
   61.1514   32.3508   46.8284 H   0  0  0  0  0  0  0  0  0  0  0  0
   58.2902   32.5844   46.8405 H   0  0  0  0  0  0  0  0  0  0  0  0
   57.0139   33.6273   47.5906 H   0  0  0  0  0  0  0  0  0  0  0  0
   56.2656   32.7148   45.4199 H   0  0  0  0  0  0  0  0  0  0  0  0
   56.4375   34.5243   45.3799 H   0  0  0  0  0  0  0  0  0  0  0  0
  1  2  1  0
  2  3  1  0
  3  4  1  0
  4  5  1  0
  5  6  1  0
  6  7  1  0
  7  8  2  0
  8  9  1  0
  9 10  2  0
 10 11  1  0
 11 12  1  0
 12 13  2  0
 12 14  1  0
 14 15  2  0
 15 16  1  0
 16 17  2  0
 17 18  1  0
 18 19  1  0
 19 20  1  0
 20 21  1  0
 21 22  2  0
 21 23  1  0
 23 24  1  0
 24 25  2  0
 25 26  1  0
 26 27  2  0
 26 28  1  0
 28 29  1  0
 18 30  2  0
 10 31  1  0
 31 32  2  0
  5 33  1  0
 33 34  1  0
 34  2  1  0
 32  7  1  0
 30 14  1  0
 29 23  2  0
  1 35  1  0
  1 36  1  0
  1 37  1  0
  3 38  1  0
  3 39  1  0
  4 40  1  0
  4 41  1  0
  6 42  1  0
  6 43  1  0
  8 44  1  0
  9 45  1  0
 15 46  1  0
 16 47  1  0
 17 48  1  0
 19 49  1  0
 19 50  1  0
 24 51  1  0
 25 52  1  0
 29 53  1  0
 30 54  1  0
 31 55  1  0
 32 56  1  0
 33 57  1  0
 33 58  1  0
 34 59  1  0
 34 60  1  0
M  CHG  3  11  -1  20  -1  28  -1
M  END
>  <UniqueID>  (81) 
74

>  <SMILES>  (81) 
CN1CCN(Cc2ccc([N-]C(=O)c3cccc(C[N-]C(=O)c4ccc(=O)[n-]c4)c3)cc2)CC1

>  <Energy>  (81) 
81.59606579409046

>  <Genealogy>  (81) 
CN1CCN(Cc2ccc([N-]C(=O)c3cccc(C[N-]C(=O)c4ccc(=O)[n-]c4)c3)cc2)CC1 (protonated)
CN1CCN(Cc2ccc([N-]C(=O)c3cccc(C[N-]C(=O)c4ccc(=O)[n-]c4)c3)cc2)CC1 (3D coordinates assigned)
CN1CCN(Cc2ccc([N-]C(=O)c3cccc(C[N-]C(=O)c4ccc(=O)[n-]c4)c3)cc2)CC1 (nonaromatic ring conformer: 81.59606579409046 kcal/mol)

>  <smiles>  (81) 
CN1CCN(Cc2ccc(NC(=O)c3cccc(CNC(=O)c4ccc(=O)[nH]c4)c3)cc2)CC1

>  <score_type>  (81) 
oracle

>  <origin>  (81) 
adg

>  <m_score__min__energy>  (81) 
-16.370000000000001

>  <m_primary>  (81) 
energy

$$$$
81:0
     RDKit          3D

 55 60  0  0  0  0  0  0  0  0999 V2000
   67.4280   33.5920   50.5320 C   0  0  0  0  0  0  0  0  0  0  0  0
   66.4190   32.8030   51.2570 N   0  0  0  0  0  0  0  0  0  0  0  0
   65.9700   31.6280   50.4520 C   0  0  0  0  0  0  0  0  0  0  0  0
   64.4590   31.6120   50.1670 C   0  0  0  0  0  0  0  0  0  0  0  0
   63.7150   31.8370   51.4090 N   0  0  0  0  0  0  0  0  0  0  0  0
   62.5720   31.0330   51.7580 C   0  0  0  0  0  0  0  0  0  0  0  0
   62.3660   30.7450   52.9640 O   0  0  0  0  0  0  0  0  0  0  0  0
   61.6090   30.5770   50.7430 C   0  0  0  0  0  0  0  0  0  0  0  0
   60.9670   29.3890   50.8230 N   0  0  0  0  0  0  0  0  0  0  0  0
   60.0840   29.2140   49.8040 C   0  0  0  0  0  0  0  0  0  0  0  0
   60.0010   30.2790   48.9160 C   0  0  0  0  0  0  0  0  0  0  0  0
   59.1240   30.3620   47.7390 C   0  0  0  0  0  0  0  0  0  0  0  0
   58.5950   31.5660   47.3640 N   0  0  0  0  0  0  0  0  0  0  0  0
   57.7750   31.6670   46.2800 C   0  0  0  0  0  0  0  0  0  0  0  0
   57.2830   32.8310   45.9660 N   0  0  0  0  0  0  0  0  0  0  0  0
   58.0400   34.0160   45.5800 C   0  0  0  0  0  0  0  0  0  0  0  0
   58.8510   34.5910   46.7310 C   0  0  0  0  0  0  0  0  0  0  0  0
   59.5480   33.8210   45.6150 C   0  0  0  0  0  0  0  0  0  0  0  0
   57.5080   30.5270   45.5790 N   0  0  0  0  0  0  0  0  0  0  0  0
   56.7780   30.3740   44.4850 N   0  0  0  0  0  0  0  0  0  0  0  0
   56.8290   29.0610   44.1520 C   0  0  0  0  0  0  0  0  0  0  0  0
   57.6160   28.3710   45.0740 C   0  0  0  0  0  0  0  0  0  0  0  0
   57.9550   27.0730   45.1000 C   0  0  0  0  0  0  0  0  0  0  0  0
   57.3700   26.0860   46.0260 C   0  0  0  0  0  0  0  0  0  0  0  0
   58.1120   25.2350   46.7570 N   0  0  0  0  0  0  0  0  0  0  0  0
   57.1960   24.5860   47.5090 C   0  0  0  0  0  0  0  0  0  0  0  0
   57.5090   23.6830   48.3290 O   0  0  0  0  0  0  0  0  0  0  0  0
   55.9210   24.9870   47.3220 N   0  0  0  0  0  0  0  0  0  0  0  0
   56.0470   25.9470   46.3890 C   0  0  0  0  0  0  0  0  0  0  0  0
   54.9850   26.7090   45.9170 O   0  0  0  0  0  0  0  0  0  0  0  0
   58.0270   29.3530   45.9460 C   0  0  0  0  0  0  0  0  0  0  0  0
   58.8360   29.2370   47.0250 N   0  0  0  0  0  0  0  0  0  0  0  0
   61.0760   31.4740   49.4200 S   0  0  0  0  0  0  0  0  0  0  0  0
   64.1900   32.8570   52.3520 C   0  0  0  0  0  0  0  0  0  0  0  0
   65.3280   33.6810   51.7360 C   0  0  0  0  0  0  0  0  0  0  0  0
   68.0818   34.1032   51.2539 H   0  0  0  0  0  0  0  0  0  0  0  0
   68.0314   32.9237   49.9001 H   0  0  0  0  0  0  0  0  0  0  0  0
   66.9249   34.3387   49.9001 H   0  0  0  0  0  0  0  0  0  0  0  0
   66.5042   31.6418   49.4905 H   0  0  0  0  0  0  0  0  0  0  0  0
   66.1938   30.7290   51.0450 H   0  0  0  0  0  0  0  0  0  0  0  0
   64.2152   32.4068   49.4467 H   0  0  0  0  0  0  0  0  0  0  0  0
   64.1795   30.6334   49.7495 H   0  0  0  0  0  0  0  0  0  0  0  0
   59.4822   28.3001   49.6915 H   0  0  0  0  0  0  0  0  0  0  0  0
   57.3288   34.4140   44.8413 H   0  0  0  0  0  0  0  0  0  0  0  0
   58.9883   35.6789   46.8178 H   0  0  0  0  0  0  0  0  0  0  0  0
   58.8130   34.5087   47.8273 H   0  0  0  0  0  0  0  0  0  0  0  0
   60.1884   34.3531   44.8962 H   0  0  0  0  0  0  0  0  0  0  0  0
   60.2217   32.9525   45.5718 H   0  0  0  0  0  0  0  0  0  0  0  0
   56.3256   28.6079   43.2852 H   0  0  0  0  0  0  0  0  0  0  0  0
   58.7161   26.7238   44.3867 H   0  0  0  0  0  0  0  0  0  0  0  0
   55.1510   27.5770   45.4240 H   0  0  0  0  0  0  0  0  0  0  0  0
   63.3565   33.5278   52.6076 H   0  0  0  0  0  0  0  0  0  0  0  0
   64.5675   32.3541   53.2545 H   0  0  0  0  0  0  0  0  0  0  0  0
   64.9343   34.2608   50.8882 H   0  0  0  0  0  0  0  0  0  0  0  0
   65.7319   34.3529   52.5077 H   0  0  0  0  0  0  0  0  0  0  0  0
  1  2  1  0
  2  3  1  0
  3  4  1  0
  4  5  1  0
  5  6  1  0
  6  7  2  0
  6  8  1  0
  8  9  2  0
  9 10  1  0
 10 11  2  0
 11 12  1  0
 12 13  2  0
 13 14  1  0
 14 15  2  3
 15 16  1  0
 16 17  1  0
 17 18  1  0
 14 19  1  0
 19 20  1  0
 20 21  2  0
 21 22  1  0
 22 23  2  3
 23 24  1  0
 24 25  1  0
 25 26  1  0
 26 27  2  0
 26 28  1  0
 28 29  1  0
 29 30  1  0
 22 31  1  0
 31 32  2  0
 11 33  1  0
  5 34  1  0
 34 35  1  0
 35  2  1  0
 33  8  1  0
 32 12  1  0
 18 16  1  0
 31 19  1  0
 29 24  2  0
  1 36  1  0
  1 37  1  0
  1 38  1  0
  3 39  1  0
  3 40  1  0
  4 41  1  0
  4 42  1  0
 10 43  1  0
 16 44  1  0
 17 45  1  0
 17 46  1  0
 18 47  1  0
 18 48  1  0
 21 49  1  0
 23 50  1  0
 30 51  1  0
 34 52  1  0
 34 53  1  0
 35 54  1  0
 35 55  1  0
M  CHG  2  25  -1  28  -1
M  END
>  <UniqueID>  (82) 
75

>  <SMILES>  (82) 
CN1CCN(C(=O)c2ncc(-c3nc(=NC4CC4)n4ncc(=Cc5[n-]c(=O)[n-]c5O)c4n3)s2)CC1

>  <Energy>  (82) 
439.2751813076737

>  <Genealogy>  (82) 
CN1CCN(C(=O)c2ncc(-c3nc(=NC4CC4)n4ncc(=Cc5[n-]c(=O)[n-]c5O)c4n3)s2)CC1 (protonated)
CN1CCN(C(=O)c2ncc(-c3nc(=NC4CC4)n4ncc(=Cc5[n-]c(=O)[n-]c5O)c4n3)s2)CC1 (3D coordinates assigned)
CN1CCN(C(=O)c2ncc(-c3nc(=NC4CC4)n4ncc(=Cc5[n-]c(=O)[n-]c5O)c4n3)s2)CC1 (nonaromatic ring conformer: 439.2751813076737 kcal/mol)

>  <smiles>  (82) 
CN1CCN(C(=O)c2ncc(-c3nc(=NC4CC4)n4ncc(=Cc5[nH]c(=O)[nH]c5O)c4n3)s2)CC1

>  <score_type>  (82) 
oracle

>  <origin>  (82) 
adg

>  <m_score__min__energy>  (82) 
-14.01

>  <m_primary>  (82) 
energy

$$$$
82:0
     RDKit          3D

 54 58  0  0  0  0  0  0  0  0999 V2000
   61.3405   27.5150   46.9868 H   0  0  0  0  0  0  0  0  0  0  0  0
   60.3350   27.9510   46.8920 C   0  0  0  0  0  0  0  0  0  0  0  0
   60.1110   29.1480   47.4510 C   0  0  0  0  0  0  0  0  0  0  0  0
   59.5782   29.1795   48.4128 H   0  0  0  0  0  0  0  0  0  0  0  0
   60.5490   30.4590   46.8350 C   0  0  1  0  0  0  0  0  0  0  0  0
   61.2239   30.1409   46.0267 H   0  0  0  0  0  0  0  0  0  0  0  0
   59.4050   31.2560   46.2640 C   0  0  0  0  0  0  0  0  0  0  0  0
   58.2970   30.7050   45.6980 N   0  0  0  0  0  0  0  0  0  0  0  0
   57.4780   31.6530   45.1890 C   0  0  0  0  0  0  0  0  0  0  0  0
   56.3350   31.3460   44.6490 N   0  0  0  0  0  0  0  0  0  0  0  0
   55.9040   30.0730   44.1380 C   0  0  0  0  0  0  0  0  0  0  0  0
   55.2110   29.3320   44.8810 O   0  0  0  0  0  0  0  0  0  0  0  0
   56.2950   29.5680   42.7830 C   0  0  0  0  0  0  0  0  0  0  0  0
   56.9650   28.7026   42.8935 H   0  0  0  0  0  0  0  0  0  0  0  0
   55.3934   29.2654   42.2302 H   0  0  0  0  0  0  0  0  0  0  0  0
   56.8137   30.3651   42.2302 H   0  0  0  0  0  0  0  0  0  0  0  0
   58.1000   33.2130   45.4190 S   0  0  0  0  0  0  0  0  0  0  0  0
   59.4880   32.6450   46.1700 C   0  0  0  0  0  0  0  0  0  0  0  0
   60.5960   33.4760   46.7710 C   0  0  0  0  0  0  0  0  0  0  0  0
   60.9158   34.2378   46.0448 H   0  0  0  0  0  0  0  0  0  0  0  0
   60.2274   33.9654   47.6846 H   0  0  0  0  0  0  0  0  0  0  0  0
   61.7970   32.5710   47.1270 C   0  0  1  0  0  0  0  0  0  0  0  0
   62.3336   32.3110   46.2027 H   0  0  0  0  0  0  0  0  0  0  0  0
   62.7970   33.2750   48.0000 C   0  0  0  0  0  0  0  0  0  0  0  0
   63.5010   34.2030   47.5100 O   0  0  0  0  0  0  0  0  0  0  0  0
   62.9490   32.8960   49.3800 N   0  0  0  0  0  0  0  0  0  0  0  0
   64.1560   33.2270   50.0960 C   0  0  0  0  0  0  0  0  0  0  0  0
   64.1140   34.1280   51.1740 C   0  0  0  0  0  0  0  0  0  0  0  0
   63.1551   34.5739   51.4768 H   0  0  0  0  0  0  0  0  0  0  0  0
   65.2840   34.4610   51.8640 C   0  0  0  0  0  0  0  0  0  0  0  0
   65.2425   35.1663   52.7071 H   0  0  0  0  0  0  0  0  0  0  0  0
   66.5060   33.8990   51.4840 C   0  0  0  0  0  0  0  0  0  0  0  0
   67.4250   34.1587   52.0299 H   0  0  0  0  0  0  0  0  0  0  0  0
   66.5590   33.0070   50.4100 C   0  0  0  0  0  0  0  0  0  0  0  0
   67.5213   32.5670   50.1094 H   0  0  0  0  0  0  0  0  0  0  0  0
   65.3920   32.6720   49.7160 C   0  0  0  0  0  0  0  0  0  0  0  0
   65.4405   31.9715   48.8693 H   0  0  0  0  0  0  0  0  0  0  0  0
   61.8180   32.2880   50.0860 C   0  0  0  0  0  0  0  0  0  0  0  0
   62.2004   31.7039   50.9361 H   0  0  0  0  0  0  0  0  0  0  0  0
   61.1539   33.0946   50.4300 H   0  0  0  0  0  0  0  0  0  0  0  0
   61.0280   31.3810   49.1880 C   0  0  0  0  0  0  0  0  0  0  0  0
   60.1030   30.6960   49.6980 O   0  0  0  0  0  0  0  0  0  0  0  0
   61.2910   31.3410   47.7650 N   0  0  0  0  0  0  0  0  0  0  0  0
   59.3120   27.1840   46.1570 C   0  0  0  0  0  0  0  0  0  0  0  0
   59.0880   27.4500   44.7970 C   0  0  0  0  0  0  0  0  0  0  0  0
   59.6868   28.2153   44.2815 H   0  0  0  0  0  0  0  0  0  0  0  0
   58.1050   26.7440   44.0960 C   0  0  0  0  0  0  0  0  0  0  0  0
   57.9406   26.9460   43.0273 H   0  0  0  0  0  0  0  0  0  0  0  0
   57.3320   25.7830   44.7510 C   0  0  0  0  0  0  0  0  0  0  0  0
   56.5667   25.2213   44.1953 H   0  0  0  0  0  0  0  0  0  0  0  0
   57.5300   25.5340   46.1130 C   0  0  0  0  0  0  0  0  0  0  0  0
   56.9115   24.7859   46.6305 H   0  0  0  0  0  0  0  0  0  0  0  0
   58.5130   26.2350   46.8170 C   0  0  0  0  0  0  0  0  0  0  0  0
   58.6615   26.0435   47.8900 H   0  0  0  0  0  0  0  0  0  0  0  0
  1  2  1  0
  2  3  2  3
  3  4  1  0
  3  5  1  0
  5  6  1  6
  5  7  1  0
  7  8  1  0
  8  9  1  0
  9 10  2  0
 10 11  1  0
 11 12  2  0
 11 13  1  0
 13 14  1  0
 13 15  1  0
 13 16  1  0
  9 17  1  0
 17 18  1  0
 18 19  1  0
 19 20  1  0
 19 21  1  0
 19 22  1  0
 22 23  1  6
 22 24  1  0
 24 25  2  0
 24 26  1  0
 26 27  1  0
 27 28  2  0
 28 29  1  0
 28 30  1  0
 30 31  1  0
 30 32  2  0
 32 33  1  0
 32 34  1  0
 34 35  1  0
 34 36  2  0
 36 37  1  0
 26 38  1  0
 38 39  1  0
 38 40  1  0
 38 41  1  0
 41 42  2  0
 41 43  1  0
  2 44  1  0
 44 45  2  0
 45 46  1  0
 45 47  1  0
 47 48  1  0
 47 49  2  0
 49 50  1  0
 49 51  1  0
 51 52  1  0
 51 53  2  0
 53 54  1  0
 43  5  1  0
 53 44  1  0
 18  7  2  0
 43 22  1  0
 36 27  1  0
M  CHG  1   8  -1
M  END
>  <UniqueID>  (83) 
76

>  <SMILES>  (83) 
CC(=O)/N=c1/[n-]c2c(s1)C[C@H]1C(=O)N(c3ccccc3)CC(=O)N1[C@H]2C=Cc1ccccc1

>  <Energy>  (83) 
115.71951203024967

>  <Genealogy>  (83) 
CC(=O)N=c1[n-]c2c(s1)CC1C(=O)N(c3ccccc3)CC(=O)N1C2C=Cc1ccccc1 (protonated)
CC(=O)N=c1[n-]c2c(s1)C[C@H]1C(=O)N(c3ccccc3)CC(=O)N1[C@H]2C=Cc1ccccc1 (chirality)
CC(=O)/N=c1/[n-]c2c(s1)C[C@H]1C(=O)N(c3ccccc3)CC(=O)N1[C@H]2C=Cc1ccccc1 (cis-trans isomerization)
CC(=O)/N=c1/[n-]c2c(s1)C[C@H]1C(=O)N(c3ccccc3)CC(=O)N1[C@H]2C=Cc1ccccc1 (3D coordinates assigned)
CC(=O)/N=c1/[n-]c2c(s1)C[C@H]1C(=O)N(c3ccccc3)CC(=O)N1[C@H]2C=Cc1ccccc1 (nonaromatic ring conformer: 115.71951203024967 kcal/mol)

>  <smiles>  (83) 
CC(=O)N=c1[nH]c2c(s1)CC1C(=O)N(c3ccccc3)CC(=O)N1C2C=Cc1ccccc1

>  <score_type>  (83) 
oracle

>  <origin>  (83) 
adg

>  <m_score__min__energy>  (83) 
-11.51

>  <m_primary>  (83) 
energy

$$$$
83:0
     RDKit          3D

 29 30  0  0  0  0  0  0  0  0999 V2000
   56.4300   25.1260   47.0740 O   0  0  0  0  0  0  0  0  0  0  0  0
   56.3480   26.0350   46.2220 N   0  0  0  0  0  0  0  0  0  0  0  0
   55.1360   26.6420   45.9950 O   0  0  0  0  0  0  0  0  0  0  0  0
   57.4710   26.3020   45.3290 C   0  0  0  0  0  0  0  0  0  0  0  0
   58.4630   27.2380   45.9640 C   0  0  0  0  0  0  0  0  0  0  0  0
   59.5770   26.8330   46.4700 N   0  0  0  0  0  0  0  0  0  0  0  0
   60.2980   27.9580   47.0540 C   0  0  0  0  0  0  0  0  0  0  0  0
   59.3940   29.1770   46.8280 C   0  0  0  0  0  0  0  0  0  0  0  0
   58.2400   28.6300   46.1350 N   0  0  0  0  0  0  0  0  0  0  0  0
   57.0770   29.4040   45.7000 C   0  0  0  0  0  0  0  0  0  0  0  0
   57.5220   30.6550   44.9800 C   0  0  0  0  0  0  0  0  0  0  0  0
   58.0960   31.6950   45.7300 C   0  0  0  0  0  0  0  0  0  0  0  0
   58.4880   32.8840   45.1130 C   0  0  0  0  0  0  0  0  0  0  0  0
   59.2080   34.1700   46.0650 Cl  0  0  0  0  0  0  0  0  0  0  0  0
   58.3050   33.0530   43.7410 C   0  0  0  0  0  0  0  0  0  0  0  0
   57.7250   32.0350   42.9770 C   0  0  0  0  0  0  0  0  0  0  0  0
   57.5050   32.3030   41.2510 Cl  0  0  0  0  0  0  0  0  0  0  0  0
   57.3240   30.8320   43.5900 C   0  0  0  0  0  0  0  0  0  0  0  0
   56.5790   29.5680   42.6060 Cl  0  0  0  0  0  0  0  0  0  0  0  0
   57.9743   25.3529   45.0924 H   0  0  0  0  0  0  0  0  0  0  0  0
   57.0831   26.7749   44.4147 H   0  0  0  0  0  0  0  0  0  0  0  0
   60.4628   27.7941   48.1292 H   0  0  0  0  0  0  0  0  0  0  0  0
   61.2899   28.0918   46.5976 H   0  0  0  0  0  0  0  0  0  0  0  0
   59.0978   29.6281   47.7865 H   0  0  0  0  0  0  0  0  0  0  0  0
   59.8921   29.9759   46.2591 H   0  0  0  0  0  0  0  0  0  0  0  0
   56.4665   28.7914   45.0203 H   0  0  0  0  0  0  0  0  0  0  0  0
   56.4854   29.6892   46.5825 H   0  0  0  0  0  0  0  0  0  0  0  0
   58.2378   31.5711   46.8138 H   0  0  0  0  0  0  0  0  0  0  0  0
   58.6179   33.9903   43.2578 H   0  0  0  0  0  0  0  0  0  0  0  0
  1  2  2  0
  2  3  1  0
  2  4  1  0
  4  5  1  0
  5  6  2  0
  6  7  1  0
  7  8  1  0
  8  9  1  0
  9 10  1  0
 10 11  1  0
 11 12  2  0
 12 13  1  0
 13 14  1  0
 13 15  2  0
 15 16  1  0
 16 17  1  0
 16 18  2  0
 18 19  1  0
  9  5  1  0
 18 11  1  0
  4 20  1  0
  4 21  1  0
  7 22  1  0
  7 23  1  0
  8 24  1  0
  8 25  1  0
 10 26  1  0
 10 27  1  0
 12 28  1  0
 15 29  1  0
M  CHG  2   2   1   3  -1
M  END
>  <UniqueID>  (84) 
77

>  <SMILES>  (84) 
O=[N+]([O-])CC1=NCCN1Cc1cc(Cl)cc(Cl)c1Cl

>  <Energy>  (84) 
40.23457953316901

>  <Genealogy>  (84) 
O=[N+]([O-])CC1=NCCN1Cc1cc(Cl)cc(Cl)c1Cl (3D coordinates assigned)
O=[N+]([O-])CC1=NCCN1Cc1cc(Cl)cc(Cl)c1Cl (nonaromatic ring conformer: 40.23457953316901 kcal/mol)

>  <smiles>  (84) 
O=[N+]([O-])CC1=NCCN1Cc1cc(Cl)cc(Cl)c1Cl

>  <score_type>  (84) 
oracle

>  <origin>  (84) 
adg

>  <m_score__min__energy>  (84) 
-7.6699999999999999

>  <m_primary>  (84) 
energy

$$$$
84:0
     RDKit          3D

 49 51  0  0  0  0  0  0  0  0999 V2000
   58.5142   28.6236   47.1409 H   0  0  0  0  0  0  0  0  0  0  0  0
   57.9350   29.0860   46.3280 C   0  0  0  0  0  0  0  0  0  0  0  0
   58.1530   30.3870   45.9970 N   0  0  0  0  0  0  0  0  0  0  0  0
   57.4580   31.0080   45.0040 C   0  0  0  0  0  0  0  0  0  0  0  0
   57.6970   32.2480   44.6850 N   0  0  0  0  0  0  0  0  0  0  0  0
   58.3750   33.2320   45.4850 C   0  0  0  0  0  0  0  0  0  0  0  0
   58.8710   34.4230   44.9250 C   0  0  0  0  0  0  0  0  0  0  0  0
   58.7130   34.6416   43.8586 H   0  0  0  0  0  0  0  0  0  0  0  0
   59.5640   35.3240   45.7310 C   0  0  0  0  0  0  0  0  0  0  0  0
   59.9474   36.2625   45.3040 H   0  0  0  0  0  0  0  0  0  0  0  0
   59.7710   35.0350   47.0790 C   0  0  0  0  0  0  0  0  0  0  0  0
   60.3163   35.7429   47.7204 H   0  0  0  0  0  0  0  0  0  0  0  0
   59.2790   33.8360   47.6100 C   0  0  0  0  0  0  0  0  0  0  0  0
   59.5420   33.4880   49.0440 C   0  0  0  0  0  0  0  0  0  0  0  0
   59.0081   34.1944   49.6966 H   0  0  0  0  0  0  0  0  0  0  0  0
   59.1889   32.4656   49.2439 H   0  0  0  0  0  0  0  0  0  0  0  0
   60.6220   33.5486   49.2439 H   0  0  0  0  0  0  0  0  0  0  0  0
   58.6190   32.9580   46.7990 N   0  0  0  0  0  0  0  0  0  0  0  0
   58.2790   32.0510   47.1930 H   0  0  0  0  0  0  0  0  0  0  0  0
   56.5000   30.2880   44.2820 C   0  0  0  0  0  0  0  0  0  0  0  0
   55.9423   30.7718   43.4666 H   0  0  0  0  0  0  0  0  0  0  0  0
   56.2570   28.9530   44.6030 C   0  0  0  0  0  0  0  0  0  0  0  0
   55.4995   28.3849   44.0431 H   0  0  0  0  0  0  0  0  0  0  0  0
   56.9740   28.3300   45.6370 C   0  0  0  0  0  0  0  0  0  0  0  0
   56.7280   26.9130   45.9880 C   0  0  0  0  0  0  0  0  0  0  0  0
   57.6970   26.1590   46.2810 O   0  0  0  0  0  0  0  0  0  0  0  0
   55.3890   26.3950   45.9960 N   0  0  0  0  0  0  0  0  0  0  0  0
   54.9800   25.0390   45.6180 C   0  0  1  0  0  0  0  0  0  0  0  0
   53.9246   25.1456   45.3267 H   0  0  0  0  0  0  0  0  0  0  0  0
   55.8150   24.4800   44.4660 C   0  0  0  0  0  0  0  0  0  0  0  0
   55.2516   24.5451   43.5235 H   0  0  0  0  0  0  0  0  0  0  0  0
   56.7463   25.0516   44.3397 H   0  0  0  0  0  0  0  0  0  0  0  0
   56.0980   23.0760   44.7900 N   0  0  0  0  0  0  0  0  0  0  0  0
   57.3700   22.5970   44.2120 C   0  0  0  0  0  0  0  0  0  0  0  0
   57.4272   22.9164   43.1609 H   0  0  0  0  0  0  0  0  0  0  0  0
   57.3924   21.5001   44.2910 H   0  0  0  0  0  0  0  0  0  0  0  0
   58.5820   23.1580   44.9700 C   0  0  0  0  0  0  0  0  0  0  0  0
   58.3080   23.2940   46.0266 H   0  0  0  0  0  0  0  0  0  0  0  0
   58.8603   24.1149   44.5042 H   0  0  0  0  0  0  0  0  0  0  0  0
   59.7900   22.2260   44.8900 C   0  0  0  0  0  0  0  0  0  0  0  0
   60.1229   21.9692   45.9065 H   0  0  0  0  0  0  0  0  0  0  0  0
   59.5098   21.3078   44.3530 H   0  0  0  0  0  0  0  0  0  0  0  0
   60.6070   22.7300   44.3530 H   0  0  0  0  0  0  0  0  0  0  0  0
   56.1150   23.0010   46.2540 C   0  0  0  0  0  0  0  0  0  0  0  0
   55.8075   21.9979   46.5845 H   0  0  0  0  0  0  0  0  0  0  0  0
   57.1256   23.1902   46.6450 H   0  0  0  0  0  0  0  0  0  0  0  0
   55.1320   24.0430   46.7640 C   0  0  0  0  0  0  0  0  0  0  0  0
   54.1643   23.5774   47.0021 H   0  0  0  0  0  0  0  0  0  0  0  0
   55.4851   24.5265   47.6868 H   0  0  0  0  0  0  0  0  0  0  0  0
  1  2  1  0
  2  3  1  0
  3  4  1  0
  4  5  2  0
  5  6  1  0
  6  7  2  0
  7  8  1  0
  7  9  1  0
  9 10  1  0
  9 11  2  0
 11 12  1  0
 11 13  1  0
 13 14  1  0
 14 15  1  0
 14 16  1  0
 14 17  1  0
 13 18  2  0
 18 19  1  0
  4 20  1  0
 20 21  1  0
 20 22  2  0
 22 23  1  0
 22 24  1  0
 24 25  1  0
 25 26  2  0
 25 27  1  0
 27 28  1  0
 28 29  1  6
 28 30  1  0
 30 31  1  0
 30 32  1  0
 30 33  1  0
 33 34  1  0
 34 35  1  0
 34 36  1  0
 34 37  1  0
 37 38  1  0
 37 39  1  0
 37 40  1  0
 40 41  1  0
 40 42  1  0
 40 43  1  0
 33 44  1  0
 44 45  1  0
 44 46  1  0
 44 47  1  0
 47 48  1  0
 47 49  1  0
 24  2  2  0
 47 28  1  0
 18  6  1  0
M  CHG  3   3  -1  18   1  27  -1
M  END
>  <UniqueID>  (85) 
78

>  <SMILES>  (85) 
CCCN1CC[C@@H]([N-]C(=O)c2cc/c(=N/c3cccc(C)[nH+]3)[n-]c2)C1

>  <Energy>  (85) 
55.985525391257426

>  <Genealogy>  (85) 
CCCN1CCC([N-]C(=O)c2ccc(=Nc3cccc(C)[nH+]3)[n-]c2)C1 (protonated)
CCCN1CC[C@@H]([N-]C(=O)c2ccc(=Nc3cccc(C)[nH+]3)[n-]c2)C1 (chirality)
CCCN1CC[C@@H]([N-]C(=O)c2cc/c(=N/c3cccc(C)[nH+]3)[n-]c2)C1 (cis-trans isomerization)
CCCN1CC[C@@H]([N-]C(=O)c2cc/c(=N/c3cccc(C)[nH+]3)[n-]c2)C1 (3D coordinates assigned)
CCCN1CC[C@@H]([N-]C(=O)c2cc/c(=N/c3cccc(C)[nH+]3)[n-]c2)C1 (nonaromatic ring conformer: 55.985525391257426 kcal/mol)

>  <smiles>  (85) 
CCCN1CCC(NC(=O)c2ccc(=Nc3cccc(C)n3)[nH]c2)C1

>  <score_type>  (85) 
oracle

>  <origin>  (85) 
adg

>  <m_score__min__energy>  (85) 
-8.7699999999999996

>  <m_primary>  (85) 
energy

$$$$
85:0
     RDKit          3D

 39 40  0  0  0  0  0  0  0  0999 V2000
   63.7470   33.5300   47.9390 C   0  0  0  0  0  0  0  0  0  0  0  0
   62.7180   32.9110   47.1000 N   0  0  0  0  0  0  0  0  0  0  0  0
   62.4920   31.4990   47.4570 C   0  0  0  0  0  0  0  0  0  0  0  0
   61.0730   31.2400   47.9020 C   0  0  0  0  0  0  0  0  0  0  0  0
   60.7150   30.0590   48.1470 O   0  0  0  0  0  0  0  0  0  0  0  0
   60.0840   32.2790   47.9440 N   0  0  0  0  0  0  0  0  0  0  0  0
   59.3060   32.7810   46.8480 C   0  0  0  0  0  0  0  0  0  0  0  0
   59.5810   34.0240   46.2560 C   0  0  0  0  0  0  0  0  0  0  0  0
   58.7960   34.4880   45.1990 C   0  0  0  0  0  0  0  0  0  0  0  0
   57.7140   33.7310   44.7450 C   0  0  0  0  0  0  0  0  0  0  0  0
   57.3910   32.5170   45.3600 C   0  0  0  0  0  0  0  0  0  0  0  0
   56.2730   31.7690   44.8600 N   0  0  0  0  0  0  0  0  0  0  0  0
   56.3280   30.5760   44.0680 C   0  0  0  0  0  0  0  0  0  0  0  0
   56.9570   30.5530   42.9760 O   0  0  0  0  0  0  0  0  0  0  0  0
   55.7230   29.3150   44.5960 C   0  0  0  0  0  0  0  0  0  0  0  0
   56.8010   28.4080   45.1300 C   0  0  0  0  0  0  0  0  0  0  0  0
   58.1510   28.7730   44.9880 C   0  0  0  0  0  0  0  0  0  0  0  0
   59.1620   27.9580   45.5060 C   0  0  0  0  0  0  0  0  0  0  0  0
   60.8450   28.4220   45.3180 Cl  0  0  0  0  0  0  0  0  0  0  0  0
   58.8350   26.7770   46.1780 C   0  0  0  0  0  0  0  0  0  0  0  0
   57.4950   26.4120   46.3360 C   0  0  0  0  0  0  0  0  0  0  0  0
   56.4780   27.2230   45.8210 C   0  0  0  0  0  0  0  0  0  0  0  0
   55.1510   26.8450   46.0020 O   0  0  0  0  0  0  0  0  0  0  0  0
   58.2000   32.0400   46.4090 C   0  0  0  0  0  0  0  0  0  0  0  0
   63.4956   33.3788   48.9991 H   0  0  0  0  0  0  0  0  0  0  0  0
   64.7220   33.0684   47.7239 H   0  0  0  0  0  0  0  0  0  0  0  0
   63.7961   34.6077   47.7239 H   0  0  0  0  0  0  0  0  0  0  0  0
   61.8320   33.4600   47.2060 H   0  0  0  0  0  0  0  0  0  0  0  0
   62.7068   30.8733   46.5782 H   0  0  0  0  0  0  0  0  0  0  0  0
   63.1580   31.2539   48.2975 H   0  0  0  0  0  0  0  0  0  0  0  0
   60.4179   34.6343   46.6263 H   0  0  0  0  0  0  0  0  0  0  0  0
   59.0302   35.4516   44.7229 H   0  0  0  0  0  0  0  0  0  0  0  0
   57.1117   34.0918   43.8982 H   0  0  0  0  0  0  0  0  0  0  0  0
   55.0196   29.5600   45.4054 H   0  0  0  0  0  0  0  0  0  0  0  0
   55.1915   28.8018   43.7811 H   0  0  0  0  0  0  0  0  0  0  0  0
   58.4135   29.7052   44.4663 H   0  0  0  0  0  0  0  0  0  0  0  0
   59.6316   26.1352   46.5823 H   0  0  0  0  0  0  0  0  0  0  0  0
   57.2391   25.4835   46.8673 H   0  0  0  0  0  0  0  0  0  0  0  0
   57.9623   31.0786   46.8877 H   0  0  0  0  0  0  0  0  0  0  0  0
  1  2  1  0
  2  3  1  0
  3  4  1  0
  4  5  2  0
  4  6  1  0
  6  7  1  0
  7  8  2  0
  8  9  1  0
  9 10  2  0
 10 11  1  0
 11 12  1  0
 12 13  1  0
 13 14  2  0
 13 15  1  0
 15 16  1  0
 16 17  2  0
 17 18  1  0
 18 19  1  0
 18 20  2  0
 20 21  1  0
 21 22  2  0
 22 23  1  0
 11 24  2  0
 24  7  1  0
 22 16  1  0
  1 25  1  0
  1 26  1  0
  1 27  1  0
  2 28  1  0
  3 29  1  0
  3 30  1  0
  8 31  1  0
  9 32  1  0
 10 33  1  0
 15 34  1  0
 15 35  1  0
 17 36  1  0
 20 37  1  0
 21 38  1  0
 24 39  1  0
M  CHG  3   6  -1  12  -1  23  -1
M  END
>  <UniqueID>  (86) 
79

>  <SMILES>  (86) 
CNCC(=O)[N-]c1cccc([N-]C(=O)Cc2cc(Cl)ccc2[O-])c1

>  <Energy>  (86) 
46.664068461644426

>  <Genealogy>  (86) 
CNCC(=O)[N-]c1cccc([N-]C(=O)Cc2cc(Cl)ccc2[O-])c1 (protonated)
CNCC(=O)[N-]c1cccc([N-]C(=O)Cc2cc(Cl)ccc2[O-])c1 (3D coordinates assigned)
CNCC(=O)[N-]c1cccc([N-]C(=O)Cc2cc(Cl)ccc2[O-])c1 (optimized conformer: 46.664068461644426 kcal/mol)

>  <smiles>  (86) 
CNCC(=O)Nc1cccc(NC(=O)Cc2cc(Cl)ccc2O)c1

>  <score_type>  (86) 
oracle

>  <origin>  (86) 
adg

>  <m_score__min__energy>  (86) 
-13.529999999999999

>  <m_primary>  (86) 
energy

$$$$
